NITI-SeS.sdf
  xtb     12282114513D
 energy: -215.236217346723 gnorm: 0.000232778131 xtb: 6.4.1 (unknown)
124135  0     0  0            999 V2000
   -2.1407    3.0325   -3.0817 C   0  0  0  0  0  0  0  0  0  0  0  0
   -2.2286    1.7879   -2.3657 C   0  0  0  0  0  0  0  0  0  0  0  0
   -1.3460    0.7437   -2.6966 C   0  0  0  0  0  0  0  0  0  0  0  0
   -1.2613   -0.3589   -1.8950 C   0  0  0  0  0  0  0  0  0  0  0  0
   -2.0803   -0.4786   -0.7446 C   0  0  0  0  0  0  0  0  0  0  0  0
   -3.0043    0.5183   -0.4508 C   0  0  0  0  0  0  0  0  0  0  0  0
   -3.0655    1.6406   -1.2513 C   0  0  0  0  0  0  0  0  0  0  0  0
   -0.3106   -1.5366   -2.0021 C   0  0  0  0  0  0  0  0  0  0  0  0
   -0.5704   -2.1998   -0.6806 C   0  0  0  0  0  0  0  0  0  0  0  0
   -1.6288   -1.6334   -0.0259 C   0  0  0  0  0  0  0  0  0  0  0  0
    1.1452   -1.0904   -2.1916 C   0  0  0  0  0  0  0  0  0  0  0  0
   -0.7972   -2.4196   -3.1756 C   0  0  0  0  0  0  0  0  0  0  0  0
    1.6272   -0.1751   -1.0723 C   0  0  0  0  0  0  0  0  0  0  0  0
   -0.1090   -3.7740   -3.2797 C   0  0  0  0  0  0  0  0  0  0  0  0
    0.0679   -3.1614    0.1689 C   0  0  0  0  0  0  0  0  0  0  0  0
   -0.6571   -3.1938    1.3835 C   0  0  0  0  0  0  0  0  0  0  0  0
   -1.8675   -2.2790    1.3095 C   0  0  0  0  0  0  0  0  0  0  0  0
   -1.8933   -1.2706    2.4670 C   0  0  0  0  0  0  0  0  0  0  0  0
   -3.1308   -3.1697    1.2951 C   0  0  0  0  0  0  0  0  0  0  0  0
   -0.6364   -0.4098    2.5203 C   0  0  0  0  0  0  0  0  0  0  0  0
   -4.4267   -2.4348    0.9794 C   0  0  0  0  0  0  0  0  0  0  0  0
    1.2483   -3.8880    0.0435 C   0  0  0  0  0  0  0  0  0  0  0  0
    1.7179   -4.5815    1.1368 C   0  0  0  0  0  0  0  0  0  0  0  0
    1.0137   -4.6094    2.3484 C   0  0  0  0  0  0  0  0  0  0  0  0
   -0.2118   -3.9308    2.4498 C   0  0  0  0  0  0  0  0  0  0  0  0
   -3.0516    4.0801   -3.1612 C   0  0  0  0  0  0  0  0  0  0  0  0
   -2.5409    5.2785   -3.7428 C   0  0  0  0  0  0  0  0  0  0  0  0
   -1.2248    5.2519   -4.1921 C   0  0  0  0  0  0  0  0  0  0  0  0
   -0.5291    3.5046   -3.9257 Se  0  0  0  0  0  2  0  0  0  0  0  0
   -0.3903    6.1946   -4.7955 C   0  0  0  0  0  0  0  0  0  0  0  0
   -0.4539    7.5705   -4.7276 C   0  0  0  0  0  0  0  0  0  0  0  0
    0.3523    8.4873   -5.5025 C   0  0  0  0  0  0  0  0  0  0  0  0
    0.1173    9.8334   -4.9762 C   0  0  0  0  0  0  0  0  0  0  0  0
   -0.8230    9.7498   -3.9362 C   0  0  0  0  0  0  0  0  0  0  0  0
   -1.1990    8.3334   -3.7266 C   0  0  0  0  0  0  0  0  0  0  0  0
    0.6496   11.0622   -5.3300 C   0  0  0  0  0  0  0  0  0  0  0  0
    0.2235   12.1819   -4.6297 C   0  0  0  0  0  0  0  0  0  0  0  0
   -0.7106   12.0893   -3.5996 C   0  0  0  0  0  0  0  0  0  0  0  0
   -1.2448   10.8623   -3.2378 C   0  0  0  0  0  0  0  0  0  0  0  0
   -1.9101    7.9027   -2.8342 O   0  0  0  0  0  0  0  0  0  0  0  0
    1.1480    8.1838   -6.5770 C   0  0  0  0  0  0  0  0  0  0  0  0
    1.3061    6.8975   -7.1342 C   0  0  0  0  0  0  0  0  0  0  0  0
    1.9070    9.1337   -7.2920 C   0  0  0  0  0  0  0  0  0  0  0  0
    2.5514    9.8559   -7.9091 N   0  0  0  0  0  0  0  0  0  0  0  0
    1.4718    5.8870   -7.6547 N   0  0  0  0  0  0  0  0  0  0  0  0
    1.6263   -5.2072    3.5053 C   0  0  0  0  0  0  0  0  0  0  0  0
    1.0040   -5.7891    4.6064 C   0  0  0  0  0  0  0  0  0  0  0  0
    1.8992   -6.1359    5.6446 C   0  0  0  0  0  0  0  0  0  0  0  0
    3.2589   -5.8397    5.4741 C   0  0  0  0  0  0  0  0  0  0  0  0
    3.4822   -5.0819    3.7458 Se  0  0  0  0  0  2  0  0  0  0  0  0
    4.1937   -6.0515    6.4815 C   0  0  0  0  0  0  0  0  0  0  0  0
    5.5433   -5.7548    6.5209 C   0  0  0  0  0  0  0  0  0  0  0  0
    6.4285   -5.9350    7.6487 C   0  0  0  0  0  0  0  0  0  0  0  0
    7.7342   -5.3866    7.2669 C   0  0  0  0  0  0  0  0  0  0  0  0
    7.6555   -4.9175    5.9440 C   0  0  0  0  0  0  0  0  0  0  0  0
    6.2894   -5.1470    5.4354 C   0  0  0  0  0  0  0  0  0  0  0  0
    8.9221   -5.2688    7.9687 C   0  0  0  0  0  0  0  0  0  0  0  0
   10.0039   -4.6818    7.3258 C   0  0  0  0  0  0  0  0  0  0  0  0
    9.9155   -4.2216    6.0131 C   0  0  0  0  0  0  0  0  0  0  0  0
    8.7306   -4.3365    5.3027 C   0  0  0  0  0  0  0  0  0  0  0  0
    5.8835   -4.8691    4.3124 O   0  0  0  0  0  0  0  0  0  0  0  0
    6.1394   -6.5086    8.8605 C   0  0  0  0  0  0  0  0  0  0  0  0
    7.0694   -6.6415    9.9129 C   0  0  0  0  0  0  0  0  0  0  0  0
    4.8931   -7.0525    9.2359 C   0  0  0  0  0  0  0  0  0  0  0  0
    3.9155   -7.5175    9.6204 N   0  0  0  0  0  0  0  0  0  0  0  0
    7.7760   -6.7783   10.8071 N   0  0  0  0  0  0  0  0  0  0  0  0
    0.7290   13.3794   -4.9532 F   0  0  0  0  0  0  0  0  0  0  0  0
   11.1589   -4.5550    7.9897 F   0  0  0  0  0  0  0  0  0  0  0  0
   -1.0945   13.1964   -2.9493 F   0  0  0  0  0  0  0  0  0  0  0  0
   10.9839   -3.6605    5.4324 F   0  0  0  0  0  0  0  0  0  0  0  0
   -4.4353    4.2052   -2.8433 C   0  0  0  0  0  0  0  0  0  0  0  0
   -4.9467    5.4145   -3.1672 C   0  0  0  0  0  0  0  0  0  0  0  0
   -3.7477    6.4959   -3.8596 S   0  0  0  0  0  0  0  0  0  0  0  0
    1.0889   -6.8721    6.9772 S   0  0  0  0  0  0  0  0  0  0  0  0
   -0.4501   -6.7531    6.1338 C   0  0  0  0  0  0  0  0  0  0  0  0
   -0.3342   -6.1716    4.9186 C   0  0  0  0  0  0  0  0  0  0  0  0
   -1.6708   -7.2994    6.7871 C   0  0  0  0  0  0  0  0  0  0  0  0
   -6.3467    5.8946   -3.0092 C   0  0  0  0  0  0  0  0  0  0  0  0
   -6.9981    6.1697   -4.3652 C   0  0  0  0  0  0  0  0  0  0  0  0
   -1.5793   -8.8167    6.9576 C   0  0  0  0  0  0  0  0  0  0  0  0
   -0.7108    0.8557   -3.5690 H   0  0  0  0  0  0  0  0  0  0  0  0
   -3.6370    0.4480    0.4201 H   0  0  0  0  0  0  0  0  0  0  0  0
   -3.7190    2.4512   -0.9719 H   0  0  0  0  0  0  0  0  0  0  0  0
    1.2299   -0.5709   -3.1483 H   0  0  0  0  0  0  0  0  0  0  0  0
    1.7877   -1.9695   -2.2315 H   0  0  0  0  0  0  0  0  0  0  0  0
   -1.8716   -2.5794   -3.0515 H   0  0  0  0  0  0  0  0  0  0  0  0
   -0.6499   -1.8628   -4.1033 H   0  0  0  0  0  0  0  0  0  0  0  0
    1.5770   -0.6828   -0.1116 H   0  0  0  0  0  0  0  0  0  0  0  0
    1.0181    0.7250   -1.0201 H   0  0  0  0  0  0  0  0  0  0  0  0
    2.6585    0.1196   -1.2503 H   0  0  0  0  0  0  0  0  0  0  0  0
    0.9551   -3.6640   -3.4702 H   0  0  0  0  0  0  0  0  0  0  0  0
   -0.2462   -4.3493   -2.3676 H   0  0  0  0  0  0  0  0  0  0  0  0
   -0.5397   -4.3362   -4.1053 H   0  0  0  0  0  0  0  0  0  0  0  0
   -2.0004   -1.8178    3.4060 H   0  0  0  0  0  0  0  0  0  0  0  0
   -2.7621   -0.6215    2.3583 H   0  0  0  0  0  0  0  0  0  0  0  0
   -2.9796   -3.9526    0.5473 H   0  0  0  0  0  0  0  0  0  0  0  0
   -3.2159   -3.6546    2.2702 H   0  0  0  0  0  0  0  0  0  0  0  0
    0.2511   -1.0284    2.6353 H   0  0  0  0  0  0  0  0  0  0  0  0
   -0.5321    0.1752    1.6094 H   0  0  0  0  0  0  0  0  0  0  0  0
   -0.6884    0.2754    3.3632 H   0  0  0  0  0  0  0  0  0  0  0  0
   -4.6501   -1.6845    1.7333 H   0  0  0  0  0  0  0  0  0  0  0  0
   -4.3695   -1.9524    0.0072 H   0  0  0  0  0  0  0  0  0  0  0  0
   -5.2509   -3.1446    0.9598 H   0  0  0  0  0  0  0  0  0  0  0  0
    1.8102   -3.8820   -0.8768 H   0  0  0  0  0  0  0  0  0  0  0  0
    2.6565   -5.1199    1.0761 H   0  0  0  0  0  0  0  0  0  0  0  0
   -0.7379   -3.9197    3.3920 H   0  0  0  0  0  0  0  0  0  0  0  0
    0.4437    5.7689   -5.3436 H   0  0  0  0  0  0  0  0  0  0  0  0
    1.3784   11.1860   -6.1140 H   0  0  0  0  0  0  0  0  0  0  0  0
   -1.9634   10.7865   -2.4376 H   0  0  0  0  0  0  0  0  0  0  0  0
    3.7639   -6.4850    7.3787 H   0  0  0  0  0  0  0  0  0  0  0  0
    9.0442   -5.6060    8.9847 H   0  0  0  0  0  0  0  0  0  0  0  0
    8.6571   -3.9802    4.2877 H   0  0  0  0  0  0  0  0  0  0  0  0
   -5.0291    3.4086   -2.4331 H   0  0  0  0  0  0  0  0  0  0  0  0
   -1.1640   -6.0377    4.2482 H   0  0  0  0  0  0  0  0  0  0  0  0
   -1.7938   -6.8378    7.7705 H   0  0  0  0  0  0  0  0  0  0  0  0
   -2.5410   -7.0451    6.1782 H   0  0  0  0  0  0  0  0  0  0  0  0
   -6.3468    6.8156   -2.4204 H   0  0  0  0  0  0  0  0  0  0  0  0
   -6.9217    5.1416   -2.4661 H   0  0  0  0  0  0  0  0  0  0  0  0
   -8.0177    6.5198   -4.2278 H   0  0  0  0  0  0  0  0  0  0  0  0
   -7.0191    5.2637   -4.9666 H   0  0  0  0  0  0  0  0  0  0  0  0
   -6.4388    6.9303   -4.9047 H   0  0  0  0  0  0  0  0  0  0  0  0
   -1.4634   -9.3010    5.9905 H   0  0  0  0  0  0  0  0  0  0  0  0
   -2.4811   -9.1959    7.4308 H   0  0  0  0  0  0  0  0  0  0  0  0
   -0.7258   -9.0761    7.5798 H   0  0  0  0  0  0  0  0  0  0  0  0
  1  2  1  0  0  0  0
  2  3  2  0  0  0  0
  3  4  1  0  0  0  0
  4  5  2  0  0  0  0
  5  6  1  0  0  0  0
  6  7  2  0  0  0  0
  7  2  1  0  0  0  0
  4  8  1  0  0  0  0
  8  9  1  0  0  0  0
  9 10  2  0  0  0  0
 10  5  1  0  0  0  0
  8 11  1  0  0  0  0
  8 12  1  0  0  0  0
 11 13  1  0  0  0  0
 12 14  1  0  0  0  0
  9 15  1  0  0  0  0
 15 16  2  0  0  0  0
 16 17  1  0  0  0  0
 17 10  1  0  0  0  0
 17 18  1  0  0  0  0
 17 19  1  0  0  0  0
 18 20  1  0  0  0  0
 19 21  1  0  0  0  0
 15 22  1  0  0  0  0
 22 23  2  0  0  0  0
 23 24  1  0  0  0  0
 24 25  2  0  0  0  0
 25 16  1  0  0  0  0
  1 26  2  0  0  0  0
 26 27  1  0  0  0  0
 27 28  2  0  0  0  0
 28 29  1  0  0  0  0
 29  1  1  0  0  0  0
 28 30  1  0  0  0  0
 30 31  2  0  0  0  0
 31 32  1  0  0  0  0
 32 33  1  0  0  0  0
 33 34  2  0  0  0  0
 34 35  1  0  0  0  0
 35 31  1  0  0  0  0
 33 36  1  0  0  0  0
 36 37  2  0  0  0  0
 37 38  1  0  0  0  0
 38 39  2  0  0  0  0
 39 34  1  0  0  0  0
 35 40  2  0  0  0  0
 32 41  2  0  0  0  0
 41 42  1  0  0  0  0
 41 43  1  0  0  0  0
 43 44  3  0  0  0  0
 42 45  3  0  0  0  0
 46 47  2  0  0  0  0
 47 48  1  0  0  0  0
 48 49  2  0  0  0  0
 49 50  1  0  0  0  0
 50 46  1  0  0  0  0
 49 51  1  0  0  0  0
 51 52  2  0  0  0  0
 52 53  1  0  0  0  0
 53 54  1  0  0  0  0
 54 55  2  0  0  0  0
 55 56  1  0  0  0  0
 56 52  1  0  0  0  0
 54 57  1  0  0  0  0
 57 58  2  0  0  0  0
 58 59  1  0  0  0  0
 59 60  2  0  0  0  0
 60 55  1  0  0  0  0
 56 61  2  0  0  0  0
 53 62  2  0  0  0  0
 62 63  1  0  0  0  0
 62 64  1  0  0  0  0
 64 65  3  0  0  0  0
 63 66  3  0  0  0  0
 24 46  1  0  0  0  0
 37 67  1  0  0  0  0
 58 68  1  0  0  0  0
 38 69  1  0  0  0  0
 59 70  1  0  0  0  0
 26 71  1  0  0  0  0
 71 72  2  0  0  0  0
 72 73  1  0  0  0  0
 73 27  1  0  0  0  0
 48 74  1  0  0  0  0
 74 75  1  0  0  0  0
 75 76  2  0  0  0  0
 76 47  1  0  0  0  0
 75 77  1  0  0  0  0
 72 78  1  0  0  0  0
 78 79  1  0  0  0  0
 77 80  1  0  0  0  0
  3 81  1  0  0  0  0
  6 82  1  0  0  0  0
  7 83  1  0  0  0  0
 11 84  1  0  0  0  0
 11 85  1  0  0  0  0
 12 86  1  0  0  0  0
 12 87  1  0  0  0  0
 13 88  1  0  0  0  0
 13 89  1  0  0  0  0
 13 90  1  0  0  0  0
 14 91  1  0  0  0  0
 14 92  1  0  0  0  0
 14 93  1  0  0  0  0
 18 94  1  0  0  0  0
 18 95  1  0  0  0  0
 19 96  1  0  0  0  0
 19 97  1  0  0  0  0
 20 98  1  0  0  0  0
 20 99  1  0  0  0  0
 20100  1  0  0  0  0
 21101  1  0  0  0  0
 21102  1  0  0  0  0
 21103  1  0  0  0  0
 22104  1  0  0  0  0
 23105  1  0  0  0  0
 25106  1  0  0  0  0
 30107  1  0  0  0  0
 36108  1  0  0  0  0
 39109  1  0  0  0  0
 51110  1  0  0  0  0
 57111  1  0  0  0  0
 60112  1  0  0  0  0
 71113  1  0  0  0  0
 76114  1  0  0  0  0
 77115  1  0  0  0  0
 77116  1  0  0  0  0
 78117  1  0  0  0  0
 78118  1  0  0  0  0
 79119  1  0  0  0  0
 79120  1  0  0  0  0
 79121  1  0  0  0  0
 80122  1  0  0  0  0
 80123  1  0  0  0  0
 80124  1  0  0  0  0
M  END
