
     RDKit          3D

 86 95  0  0  0  0  0  0  0  0999 V2000
    2.1491    2.2929   -5.5567 C   0  0  0  0  0  0  0  0  0  0  0  0
    0.9040    2.0454   -6.0075 C   0  0  0  0  0  0  0  0  0  0  0  0
   -0.1912    1.4582   -5.2175 C   0  0  0  0  0  0  0  0  0  0  0  0
   -0.2265    1.3195   -3.9642 O   0  0  0  0  0  0  0  0  0  0  0  0
   -1.1967    0.9583   -6.1306 C   0  0  0  0  0  0  0  0  0  0  0  0
   -2.3451    0.2212   -5.8416 C   0  0  0  0  0  0  0  0  0  0  0  0
   -3.1382   -0.2240   -6.9094 C   0  0  0  0  0  0  0  0  0  0  0  0
   -4.2518   -0.9558   -6.6604 F   0  0  0  0  0  0  0  0  0  0  0  0
   -2.7468    0.0232   -8.2361 C   0  0  0  0  0  0  0  0  0  0  0  0
   -3.4897   -0.4606   -9.2661 F   0  0  0  0  0  0  0  0  0  0  0  0
   -1.5818    0.7565   -8.5046 C   0  0  0  0  0  0  0  0  0  0  0  0
   -0.8247    1.2588   -7.4313 C   0  0  0  0  0  0  0  0  0  0  0  0
    0.4515    2.0259   -7.4302 C   0  0  0  0  0  0  0  0  0  0  0  0
    0.9573    2.7588   -8.4606 C   0  0  0  0  0  0  0  0  0  0  0  0
    2.0876    3.6374   -8.3033 C   0  0  0  0  0  0  0  0  0  0  0  0
    2.9946    4.3480   -8.1923 N   0  0  0  0  0  0  0  0  0  0  0  0
    0.3211    2.8226   -9.7526 C   0  0  0  0  0  0  0  0  0  0  0  0
   -0.1757    2.8886  -10.7962 N   0  0  0  0  0  0  0  0  0  0  0  0
    2.5197    2.1862   -4.1402 C   0  0  0  0  0  0  0  0  0  0  0  0
    3.3111    0.8341   -3.4667 S   0  0  0  0  0  0  0  0  0  0  0  0
    3.1787    1.4311   -1.9071 C   0  0  0  0  0  0  0  0  0  0  0  0
    3.0513    0.8528   -0.6797 C   0  0  0  0  0  0  0  0  0  0  0  0
    3.1038   -0.4945   -0.3090 C   0  0  0  0  0  0  0  0  0  0  0  0
    3.5971   -1.5588   -0.9603 N   0  0  0  0  0  0  0  0  0  0  0  0
    3.3120   -2.5948   -0.1720 N   0  0  0  0  0  0  0  0  0  0  0  0
    3.6808   -3.9691   -0.5002 C   0  0  0  0  0  0  0  0  0  0  0  0
    2.6160   -4.6040   -1.3857 C   0  0  0  0  0  0  0  0  0  0  0  0
    2.6293   -2.2549    0.9233 N   0  0  0  0  0  0  0  0  0  0  0  0
    2.4969   -0.9234    0.8320 C   0  0  0  0  0  0  0  0  0  0  0  0
    1.8596   -0.0137    1.6708 C   0  0  0  0  0  0  0  0  0  0  0  0
    1.1966   -0.1288    2.8570 C   0  0  0  0  0  0  0  0  0  0  0  0
    0.6313   -1.2940    3.9108 S   0  0  0  0  0  0  0  0  0  0  0  0
    0.0064   -0.1127    4.9873 C   0  0  0  0  0  0  0  0  0  0  0  0
    0.3017    1.1856    4.5394 C   0  0  0  0  0  0  0  0  0  0  0  0
    0.9294    1.1180    3.2969 C   0  0  0  0  0  0  0  0  0  0  0  0
    1.3637    2.0741    2.4361 N   0  0  0  0  0  0  0  0  0  0  0  0
    1.6562    3.4659    2.7976 C   0  0  0  0  0  0  0  0  0  0  0  0
    2.7082    3.5309    3.9047 C   0  0  0  0  0  0  0  0  0  0  0  0
    1.8718    1.3598    1.3861 C   0  0  0  0  0  0  0  0  0  0  0  0
    2.3632    1.7898    0.1178 C   0  0  0  0  0  0  0  0  0  0  0  0
    1.9638    2.8576   -0.6459 N   0  0  0  0  0  0  0  0  0  0  0  0
    2.4920    2.6014   -1.8741 C   0  0  0  0  0  0  0  0  0  0  0  0
    2.0909    3.0629   -3.1336 C   0  0  0  0  0  0  0  0  0  0  0  0
    0.7904    3.7148   -0.4412 C   0  0  0  0  0  0  0  0  0  0  0  0
    1.1650    5.1902   -0.5336 C   0  0  0  0  0  0  0  0  0  0  0  0
   -0.7319   -0.4272    6.2164 C   0  0  0  0  0  0  0  0  0  0  0  0
   -1.7995   -1.2474    6.2317 C   0  0  0  0  0  0  0  0  0  0  0  0
   -2.1920   -2.0260    7.4076 C   0  0  0  0  0  0  0  0  0  0  0  0
   -1.7920   -1.8390    8.5892 O   0  0  0  0  0  0  0  0  0  0  0  0
   -3.0327   -3.1257    6.9621 C   0  0  0  0  0  0  0  0  0  0  0  0
   -3.5521   -4.1853    7.7072 C   0  0  0  0  0  0  0  0  0  0  0  0
   -4.2778   -5.1752    7.0312 C   0  0  0  0  0  0  0  0  0  0  0  0
   -4.7818   -6.2193    7.7198 F   0  0  0  0  0  0  0  0  0  0  0  0
   -4.4735   -5.0954    5.6398 C   0  0  0  0  0  0  0  0  0  0  0  0
   -5.1563   -6.0732    4.9897 F   0  0  0  0  0  0  0  0  0  0  0  0
   -3.9333   -4.0270    4.9069 C   0  0  0  0  0  0  0  0  0  0  0  0
   -3.2150   -3.0320    5.5877 C   0  0  0  0  0  0  0  0  0  0  0  0
   -2.5776   -1.7877    5.0788 C   0  0  0  0  0  0  0  0  0  0  0  0
   -2.9661   -1.0846    3.9821 C   0  0  0  0  0  0  0  0  0  0  0  0
   -2.7852    0.3474    3.9005 C   0  0  0  0  0  0  0  0  0  0  0  0
   -2.6658    1.5020    3.8470 N   0  0  0  0  0  0  0  0  0  0  0  0
   -3.7718   -1.6539    2.9274 C   0  0  0  0  0  0  0  0  0  0  0  0
   -4.4159   -2.0991    2.0729 N   0  0  0  0  0  0  0  0  0  0  0  0
    2.9583    2.4589   -6.2475 H   0  0  0  0  0  0  0  0  0  0  0  0
   -2.6193    0.0023   -4.8189 H   0  0  0  0  0  0  0  0  0  0  0  0
   -1.2835    0.8894   -9.5306 H   0  0  0  0  0  0  0  0  0  0  0  0
    3.7966   -4.5650    0.4293 H   0  0  0  0  0  0  0  0  0  0  0  0
    4.6558   -3.9770   -1.0338 H   0  0  0  0  0  0  0  0  0  0  0  0
    1.6374   -4.6184   -0.8635 H   0  0  0  0  0  0  0  0  0  0  0  0
    2.5124   -4.0305   -2.3300 H   0  0  0  0  0  0  0  0  0  0  0  0
    2.9076   -5.6465   -1.6298 H   0  0  0  0  0  0  0  0  0  0  0  0
    0.0125    2.1027    5.0463 H   0  0  0  0  0  0  0  0  0  0  0  0
    2.0634    4.0097    1.9362 H   0  0  0  0  0  0  0  0  0  0  0  0
    0.7226    3.9713    3.1315 H   0  0  0  0  0  0  0  0  0  0  0  0
    2.3149    3.1084    4.8608 H   0  0  0  0  0  0  0  0  0  0  0  0
    2.9822    4.5920    4.0877 H   0  0  0  0  0  0  0  0  0  0  0  0
    3.6260    2.9835    3.6001 H   0  0  0  0  0  0  0  0  0  0  0  0
    1.4418    3.9156   -3.3109 H   0  0  0  0  0  0  0  0  0  0  0  0
    0.0264    3.4892   -1.2121 H   0  0  0  0  0  0  0  0  0  0  0  0
    0.3010    3.5177    0.5306 H   0  0  0  0  0  0  0  0  0  0  0  0
    1.5052    5.4514   -1.5531 H   0  0  0  0  0  0  0  0  0  0  0  0
    0.2831    5.8157   -0.2856 H   0  0  0  0  0  0  0  0  0  0  0  0
    1.9863    5.4314    0.1646 H   0  0  0  0  0  0  0  0  0  0  0  0
   -0.2808   -0.1057    7.1485 H   0  0  0  0  0  0  0  0  0  0  0  0
   -3.3841   -4.2536    8.7724 H   0  0  0  0  0  0  0  0  0  0  0  0
   -4.0557   -4.0082    3.8394 H   0  0  0  0  0  0  0  0  0  0  0  0
  1  2  2  3
  2  3  1  0
  3  4  2  0
  3  5  1  0
  5  6  2  0
  6  7  1  0
  7  8  1  0
  7  9  2  0
  9 10  1  0
  9 11  1  0
 11 12  2  0
 12 13  1  0
 13 14  2  3
 14 15  1  0
 15 16  3  0
 14 17  1  0
 17 18  3  0
  1 19  1  0
 19 20  1  0
 20 21  1  0
 21 22  1  0
 22 23  1  0
 23 24  2  0
 24 25  1  0
 25 26  1  0
 26 27  1  0
 25 28  1  0
 28 29  2  0
 29 30  1  0
 30 31  1  0
 31 32  1  0
 32 33  1  0
 33 34  2  0
 34 35  1  0
 35 36  1  0
 36 37  1  0
 37 38  1  0
 36 39  1  0
 39 40  1  0
 40 41  1  0
 41 42  1  0
 42 43  1  0
 41 44  1  0
 44 45  1  0
 33 46  1  0
 46 47  2  3
 47 48  1  0
 48 49  2  0
 48 50  1  0
 50 51  2  0
 51 52  1  0
 52 53  1  0
 52 54  2  0
 54 55  1  0
 54 56  1  0
 56 57  2  0
 57 58  1  0
 58 59  2  3
 59 60  1  0
 60 61  3  0
 59 62  1  0
 62 63  3  0
 13  2  1  0
 43 19  2  0
 58 47  1  0
 12  5  1  0
 42 21  2  0
 57 50  1  0
 40 22  2  0
 29 23  1  0
 39 30  2  0
 35 31  2  0
  1 64  1  0
  6 65  1  0
 11 66  1  0
 26 67  1  0
 26 68  1  0
 27 69  1  0
 27 70  1  0
 27 71  1  0
 34 72  1  0
 37 73  1  0
 37 74  1  0
 38 75  1  0
 38 76  1  0
 38 77  1  0
 43 78  1  0
 44 79  1  0
 44 80  1  0
 45 81  1  0
 45 82  1  0
 45 83  1  0
 46 84  1  0
 51 85  1  0
 56 86  1  0
M  END

