
     RDKit          3D

130146  0  0  0  0  0  0  0  0999 V2000
   -4.0604    7.1237   -0.6405 C   0  0  0  0  0  0  0  0  0  0  0  0
   -5.1936    6.6752   -1.2092 C   0  0  0  0  0  0  0  0  0  0  0  0
   -5.8983    7.4602   -2.2317 C   0  0  0  0  0  0  0  0  0  0  0  0
   -5.6631    8.6628   -2.5421 O   0  0  0  0  0  0  0  0  0  0  0  0
   -6.8522    6.5976   -2.8957 C   0  0  0  0  0  0  0  0  0  0  0  0
   -7.6550    6.8829   -4.0032 C   0  0  0  0  0  0  0  0  0  0  0  0
   -8.4330    5.8514   -4.5468 C   0  0  0  0  0  0  0  0  0  0  0  0
   -9.2262    6.1028   -5.6163 F   0  0  0  0  0  0  0  0  0  0  0  0
   -8.3618    4.5512   -4.0067 C   0  0  0  0  0  0  0  0  0  0  0  0
   -9.0591    3.5383   -4.5835 F   0  0  0  0  0  0  0  0  0  0  0  0
   -7.5352    4.2829   -2.9055 C   0  0  0  0  0  0  0  0  0  0  0  0
   -6.8082    5.3347   -2.3275 C   0  0  0  0  0  0  0  0  0  0  0  0
   -5.8813    5.3352   -1.1546 C   0  0  0  0  0  0  0  0  0  0  0  0
   -5.9631    4.4759   -0.1061 C   0  0  0  0  0  0  0  0  0  0  0  0
   -5.2862    4.6797    1.1441 C   0  0  0  0  0  0  0  0  0  0  0  0
   -4.7675    4.8238    2.1683 N   0  0  0  0  0  0  0  0  0  0  0  0
   -6.9900    3.4644   -0.0375 C   0  0  0  0  0  0  0  0  0  0  0  0
   -7.8396    2.6767    0.0464 N   0  0  0  0  0  0  0  0  0  0  0  0
   -3.0639    6.3045    0.0574 C   0  0  0  0  0  0  0  0  0  0  0  0
   -2.4082    6.6789    1.2465 C   0  0  0  0  0  0  0  0  0  0  0  0
   -2.6504    7.9325    1.9897 C   0  0  0  0  0  0  0  0  0  0  0  0
   -3.8937    8.1227    2.6125 C   0  0  0  0  0  0  0  0  0  0  0  0
   -4.1411    9.2699    3.3639 C   0  0  0  0  0  0  0  0  0  0  0  0
   -3.1587   10.2503    3.4894 C   0  0  0  0  0  0  0  0  0  0  0  0
   -1.9306   10.0973    2.8463 C   0  0  0  0  0  0  0  0  0  0  0  0
   -1.6540    8.9373    2.0971 C   0  0  0  0  0  0  0  0  0  0  0  0
   -0.3555    8.8820    1.3191 C   0  0  0  0  0  0  0  0  0  0  0  0
   -0.5239    9.5381   -0.0443 C   0  0  0  0  0  0  0  0  0  0  0  0
   -1.5025    5.6932    1.6436 C   0  0  0  0  0  0  0  0  0  0  0  0
   -0.4802    5.5174    2.9977 S   0  0  0  0  0  0  0  0  0  0  0  0
    0.1019    4.0456    2.3883 C   0  0  0  0  0  0  0  0  0  0  0  0
    1.1420    3.1942    2.6148 C   0  0  0  0  0  0  0  0  0  0  0  0
    2.1248    3.1773    3.6106 C   0  0  0  0  0  0  0  0  0  0  0  0
    3.1746    2.2169    3.5198 C   0  0  0  0  0  0  0  0  0  0  0  0
    4.0932    2.2118    4.5183 N   0  0  0  0  0  0  0  0  0  0  0  0
    3.5092    3.4624    5.4353 S   0  0  0  0  0  0  0  0  0  0  0  0
    2.1493    4.0195    4.6738 N   0  0  0  0  0  0  0  0  0  0  0  0
    3.1824    1.3264    2.4389 C   0  0  0  0  0  0  0  0  0  0  0  0
    3.9003    0.1760    2.2435 C   0  0  0  0  0  0  0  0  0  0  0  0
    4.9063   -0.8291    3.1827 S   0  0  0  0  0  0  0  0  0  0  0  0
    4.5810   -2.1632    2.1727 C   0  0  0  0  0  0  0  0  0  0  0  0
    4.8864   -3.5273    2.2377 C   0  0  0  0  0  0  0  0  0  0  0  0
    5.7432   -4.1398    3.2733 C   0  0  0  0  0  0  0  0  0  0  0  0
    5.2055   -4.9224    4.3296 C   0  0  0  0  0  0  0  0  0  0  0  0
    3.7162   -5.0498    4.5665 C   0  0  0  0  0  0  0  0  0  0  0  0
    3.2530   -4.0711    5.6431 C   0  0  0  0  0  0  0  0  0  0  0  0
    6.0854   -5.5346    5.2406 C   0  0  0  0  0  0  0  0  0  0  0  0
    7.4674   -5.3819    5.1119 C   0  0  0  0  0  0  0  0  0  0  0  0
    7.9886   -4.5992    4.0801 C   0  0  0  0  0  0  0  0  0  0  0  0
    7.1324   -3.9794    3.1666 C   0  0  0  0  0  0  0  0  0  0  0  0
    4.2185   -4.2492    1.2256 C   0  0  0  0  0  0  0  0  0  0  0  0
    3.1724   -3.1932    0.3961 S   0  0  0  0  0  0  0  0  0  0  0  0
    3.6765   -1.8259    1.1990 C   0  0  0  0  0  0  0  0  0  0  0  0
    3.2969   -0.4944    1.2278 C   0  0  0  0  0  0  0  0  0  0  0  0
    2.2239    0.1658    0.7161 N   0  0  0  0  0  0  0  0  0  0  0  0
    2.1785    1.3301    1.4493 C   0  0  0  0  0  0  0  0  0  0  0  0
    1.1729    2.3355    1.5035 C   0  0  0  0  0  0  0  0  0  0  0  0
    0.2314    2.7072    0.5706 N   0  0  0  0  0  0  0  0  0  0  0  0
   -0.4334    3.7153    1.1885 C   0  0  0  0  0  0  0  0  0  0  0  0
   -1.3584    4.6548    0.7580 C   0  0  0  0  0  0  0  0  0  0  0  0
   -2.4020    4.8478   -0.5429 S   0  0  0  0  0  0  0  0  0  0  0  0
    0.3738    2.6234   -0.8869 C   0  0  0  0  0  0  0  0  0  0  0  0
   -0.8516    1.9772   -1.5488 C   0  0  0  0  0  0  0  0  0  0  0  0
    1.1289   -0.4879   -0.0105 C   0  0  0  0  0  0  0  0  0  0  0  0
    1.5123   -0.7645   -1.4680 C   0  0  0  0  0  0  0  0  0  0  0  0
    4.2184   -5.7196    1.0597 C   0  0  0  0  0  0  0  0  0  0  0  0
    3.9423   -6.3388   -0.1108 C   0  0  0  0  0  0  0  0  0  0  0  0
    3.7596   -5.6744   -1.4085 C   0  0  0  0  0  0  0  0  0  0  0  0
    4.3980   -4.6737   -1.8281 O   0  0  0  0  0  0  0  0  0  0  0  0
    2.8056   -6.4295   -2.1834 C   0  0  0  0  0  0  0  0  0  0  0  0
    2.1277   -6.0012   -3.3470 C   0  0  0  0  0  0  0  0  0  0  0  0
    1.1366   -6.8676   -3.7616 C   0  0  0  0  0  0  0  0  0  0  0  0
    0.8193   -8.0867   -3.0795 C   0  0  0  0  0  0  0  0  0  0  0  0
    1.4770   -8.5086   -1.9324 C   0  0  0  0  0  0  0  0  0  0  0  0
    2.5130   -7.6341   -1.4942 C   0  0  0  0  0  0  0  0  0  0  0  0
    3.3398   -7.6954   -0.2541 C   0  0  0  0  0  0  0  0  0  0  0  0
    3.6344   -8.7954    0.4769 C   0  0  0  0  0  0  0  0  0  0  0  0
    3.1264  -10.0992    0.1329 C   0  0  0  0  0  0  0  0  0  0  0  0
    2.7341  -11.1521   -0.1402 N   0  0  0  0  0  0  0  0  0  0  0  0
    4.6091   -8.7703    1.5362 C   0  0  0  0  0  0  0  0  0  0  0  0
    5.3971   -8.7605    2.3859 N   0  0  0  0  0  0  0  0  0  0  0  0
   -0.3051   -8.3501   -4.0379 C   0  0  0  0  0  0  0  0  0  0  0  0
   -1.7648   -8.1248   -3.5353 C   0  0  0  0  0  0  0  0  0  0  0  0
   -1.7864   -7.0403   -2.4805 C   0  0  0  0  0  0  0  0  0  0  0  0
   -1.4945   -5.8975   -3.1054 C   0  0  0  0  0  0  0  0  0  0  0  0
   -1.2808   -6.2442   -4.5607 C   0  0  0  0  0  0  0  0  0  0  0  0
   -2.3251   -7.3370   -4.7029 C   0  0  0  0  0  0  0  0  0  0  0  0
    0.0153   -7.0954   -4.7295 C   0  0  0  0  0  0  0  0  0  0  0  0
   -3.7863    8.1641   -0.7998 H   0  0  0  0  0  0  0  0  0  0  0  0
   -7.6637    7.8760   -4.4444 H   0  0  0  0  0  0  0  0  0  0  0  0
   -7.4502    3.2650   -2.5590 H   0  0  0  0  0  0  0  0  0  0  0  0
   -4.6739    7.3799    2.5261 H   0  0  0  0  0  0  0  0  0  0  0  0
   -5.0980    9.4043    3.8509 H   0  0  0  0  0  0  0  0  0  0  0  0
   -3.3556   11.1443    4.0677 H   0  0  0  0  0  0  0  0  0  0  0  0
   -1.1917   10.8852    2.9259 H   0  0  0  0  0  0  0  0  0  0  0  0
   -0.0081    7.8420    1.1766 H   0  0  0  0  0  0  0  0  0  0  0  0
    0.4474    9.4078    1.8808 H   0  0  0  0  0  0  0  0  0  0  0  0
   -0.8417   10.5965    0.0692 H   0  0  0  0  0  0  0  0  0  0  0  0
   -1.2840    8.9896   -0.6449 H   0  0  0  0  0  0  0  0  0  0  0  0
    0.4437    9.5112   -0.5927 H   0  0  0  0  0  0  0  0  0  0  0  0
    3.4772   -6.0890    4.8902 H   0  0  0  0  0  0  0  0  0  0  0  0
    3.1287   -4.8625    3.6430 H   0  0  0  0  0  0  0  0  0  0  0  0
    2.1490   -4.1048    5.7262 H   0  0  0  0  0  0  0  0  0  0  0  0
    3.5652   -3.0327    5.3890 H   0  0  0  0  0  0  0  0  0  0  0  0
    3.6875   -4.3528    6.6280 H   0  0  0  0  0  0  0  0  0  0  0  0
    5.6961   -6.1346    6.0526 H   0  0  0  0  0  0  0  0  0  0  0  0
    8.1324   -5.8646    5.8152 H   0  0  0  0  0  0  0  0  0  0  0  0
    9.0560   -4.4756    3.9838 H   0  0  0  0  0  0  0  0  0  0  0  0
    7.5501   -3.3830    2.3649 H   0  0  0  0  0  0  0  0  0  0  0  0
    0.5204    3.6424   -1.3032 H   0  0  0  0  0  0  0  0  0  0  0  0
    1.2980    2.0770   -1.1499 H   0  0  0  0  0  0  0  0  0  0  0  0
   -1.4037    2.7326   -2.1513 H   0  0  0  0  0  0  0  0  0  0  0  0
   -0.5342    1.1743   -2.2455 H   0  0  0  0  0  0  0  0  0  0  0  0
   -1.5460    1.5492   -0.7959 H   0  0  0  0  0  0  0  0  0  0  0  0
    0.2076    0.1143    0.0368 H   0  0  0  0  0  0  0  0  0  0  0  0
    0.8712   -1.4438    0.4880 H   0  0  0  0  0  0  0  0  0  0  0  0
    2.3223   -1.5179   -1.5359 H   0  0  0  0  0  0  0  0  0  0  0  0
    0.6292   -1.1595   -2.0120 H   0  0  0  0  0  0  0  0  0  0  0  0
    1.8649    0.1443   -1.9877 H   0  0  0  0  0  0  0  0  0  0  0  0
    4.2733   -6.2969    1.9629 H   0  0  0  0  0  0  0  0  0  0  0  0
    2.3201   -5.0516   -3.8321 H   0  0  0  0  0  0  0  0  0  0  0  0
    1.1562   -9.3902   -1.3966 H   0  0  0  0  0  0  0  0  0  0  0  0
   -0.1599   -9.2561   -4.6661 H   0  0  0  0  0  0  0  0  0  0  0  0
   -2.3204   -9.0468   -3.2687 H   0  0  0  0  0  0  0  0  0  0  0  0
   -2.0746   -7.1396   -1.4400 H   0  0  0  0  0  0  0  0  0  0  0  0
   -1.5037   -4.9084   -2.6571 H   0  0  0  0  0  0  0  0  0  0  0  0
   -1.3835   -5.3904   -5.2626 H   0  0  0  0  0  0  0  0  0  0  0  0
   -2.2718   -7.8811   -5.6761 H   0  0  0  0  0  0  0  0  0  0  0  0
   -3.3695   -6.9786   -4.5339 H   0  0  0  0  0  0  0  0  0  0  0  0
    0.3494   -7.2313   -5.7843 H   0  0  0  0  0  0  0  0  0  0  0  0
  1  2  2  3
  2  3  1  0
  3  4  2  0
  3  5  1  0
  5  6  2  0
  6  7  1  0
  7  8  1  0
  7  9  2  0
  9 10  1  0
  9 11  1  0
 11 12  2  0
 12 13  1  0
 13 14  2  3
 14 15  1  0
 15 16  3  0
 14 17  1  0
 17 18  3  0
  1 19  1  0
 19 20  2  0
 20 21  1  0
 21 22  2  0
 22 23  1  0
 23 24  2  0
 24 25  1  0
 25 26  2  0
 26 27  1  0
 27 28  1  0
 20 29  1  0
 29 30  1  0
 30 31  1  0
 31 32  1  0
 32 33  1  0
 33 34  1  0
 34 35  2  0
 35 36  1  0
 36 37  1  0
 34 38  1  0
 38 39  1  0
 39 40  1  0
 40 41  1  0
 41 42  1  0
 42 43  1  0
 43 44  2  0
 44 45  1  0
 45 46  1  0
 44 47  1  0
 47 48  2  0
 48 49  1  0
 49 50  2  0
 42 51  2  0
 51 52  1  0
 52 53  1  0
 53 54  1  0
 54 55  1  0
 55 56  1  0
 56 57  1  0
 57 58  1  0
 58 59  1  0
 59 60  1  0
 60 61  1  0
 58 62  1  0
 62 63  1  0
 55 64  1  0
 64 65  1  0
 51 66  1  0
 66 67  2  3
 67 68  1  0
 68 69  2  0
 68 70  1  0
 70 71  2  0
 71 72  1  0
 72 73  2  0
 73 74  1  0
 74 75  2  0
 75 76  1  0
 76 77  2  3
 77 78  1  0
 78 79  3  0
 77 80  1  0
 80 81  3  0
 73 82  1  0
 82 83  1  0
 83 84  1  0
 84 85  2  0
 85 86  1  0
 86 87  1  0
 86 88  1  0
 13  2  1  0
 61 19  1  0
 76 67  1  0
 88 82  1  0
 12  5  1  0
 26 21  1  0
 60 29  2  0
 75 70  1  0
 87 83  1  0
 59 31  2  0
 88 72  1  0
 57 32  2  0
 37 33  2  0
 56 38  2  0
 54 39  2  0
 53 41  2  0
 50 43  1  0
  1 89  1  0
  6 90  1  0
 11 91  1  0
 22 92  1  0
 23 93  1  0
 24 94  1  0
 25 95  1  0
 27 96  1  0
 27 97  1  0
 28 98  1  0
 28 99  1  0
 28100  1  0
 45101  1  0
 45102  1  0
 46103  1  0
 46104  1  0
 46105  1  0
 47106  1  0
 48107  1  0
 49108  1  0
 50109  1  0
 62110  1  0
 62111  1  0
 63112  1  0
 63113  1  0
 63114  1  0
 64115  1  0
 64116  1  0
 65117  1  0
 65118  1  0
 65119  1  0
 66120  1  0
 71121  1  0
 74122  1  0
 82123  1  0
 83124  1  0
 84125  1  0
 85126  1  0
 86127  1  0
 87128  1  0
 87129  1  0
 88130  1  0
M  END

