
     RDKit          3D

 85 96  0  0  0  0  0  0  0  0999 V2000
    4.4100    6.7461    1.3968 C   0  0  0  0  0  0  0  0  0  0  0  0
    4.9068    6.2801    0.2048 C   0  0  0  0  0  0  0  0  0  0  0  0
    4.1717    5.5427   -0.8199 C   0  0  0  0  0  0  0  0  0  0  0  0
    2.9054    5.3685   -0.8735 O   0  0  0  0  0  0  0  0  0  0  0  0
    5.0621    5.0206   -1.7977 C   0  0  0  0  0  0  0  0  0  0  0  0
    4.7698    4.2683   -2.9392 C   0  0  0  0  0  0  0  0  0  0  0  0
    5.7807    3.8749   -3.7451 C   0  0  0  0  0  0  0  0  0  0  0  0
    5.4566    3.1370   -4.8575 F   0  0  0  0  0  0  0  0  0  0  0  0
    7.0768    4.1924   -3.4759 C   0  0  0  0  0  0  0  0  0  0  0  0
    8.1094    3.8179   -4.2463 F   0  0  0  0  0  0  0  0  0  0  0  0
    7.3255    4.9680   -2.3015 C   0  0  0  0  0  0  0  0  0  0  0  0
    6.3460    5.3819   -1.4675 C   0  0  0  0  0  0  0  0  0  0  0  0
    6.2911    6.1960   -0.1838 C   0  0  0  0  0  0  0  0  0  0  0  0
    7.3195    6.7085    0.3666 C   0  0  0  0  0  0  0  0  0  0  0  0
    8.6700    6.4508   -0.2302 C   0  0  0  0  0  0  0  0  0  0  0  0
    9.7368    6.2616   -0.6904 N   0  0  0  0  0  0  0  0  0  0  0  0
    7.4777    7.5338    1.5534 C   0  0  0  0  0  0  0  0  0  0  0  0
    7.5774    8.1515    2.4462 N   0  0  0  0  0  0  0  0  0  0  0  0
    3.0129    6.3416    1.5193 C   0  0  0  0  0  0  0  0  0  0  0  0
    1.7570    6.6922    1.5899 C   0  0  0  0  0  0  0  0  0  0  0  0
    0.7114    5.8502    1.5842 C   0  0  0  0  0  0  0  0  0  0  0  0
   -1.1087    6.0383    1.3162 S   0  0  0  0  0  0  0  0  0  0  0  0
   -1.4930    4.3584    1.1571 C   0  0  0  0  0  0  0  0  0  0  0  0
   -2.4450    3.3891    0.8597 C   0  0  0  0  0  0  0  0  0  0  0  0
   -3.7573    3.3484    0.5649 C   0  0  0  0  0  0  0  0  0  0  0  0
   -4.4367    2.2131    0.2582 C   0  0  0  0  0  0  0  0  0  0  0  0
   -5.6902    2.2823   -0.0020 N   0  0  0  0  0  0  0  0  0  0  0  0
   -6.1013    3.9304    0.1349 S   0  0  0  0  0  0  0  0  0  0  0  0
   -4.5752    4.4688    0.5486 N   0  0  0  0  0  0  0  0  0  0  0  0
   -3.6603    1.0194    0.2433 C   0  0  0  0  0  0  0  0  0  0  0  0
   -4.0573   -0.2884   -0.0888 C   0  0  0  0  0  0  0  0  0  0  0  0
   -2.9441   -1.0764   -0.0149 C   0  0  0  0  0  0  0  0  0  0  0  0
   -1.8448   -0.3097    0.3541 N   0  0  0  0  0  0  0  0  0  0  0  0
   -0.4959   -0.7434    0.1262 C   0  0  0  0  0  0  0  0  0  0  0  0
    0.1303   -0.1221   -1.1426 C   0  0  0  0  0  0  0  0  0  0  0  0
   -2.3377    0.9545    0.5170 C   0  0  0  0  0  0  0  0  0  0  0  0
   -1.7441    2.1774    0.8524 C   0  0  0  0  0  0  0  0  0  0  0  0
   -0.5010    2.4270    1.1525 N   0  0  0  0  0  0  0  0  0  0  0  0
   -0.2357    3.7447    1.3305 C   0  0  0  0  0  0  0  0  0  0  0  0
    0.6635    4.6492    1.5218 C   0  0  0  0  0  0  0  0  0  0  0  0
    2.7885    4.3792    1.4498 Se  0  0  0  0  0  2  0  0  0  0  0  0
    0.4251    1.4572    1.7889 C   0  0  0  0  0  0  0  0  0  0  0  0
    0.7071    1.8380    3.2604 C   0  0  0  0  0  0  0  0  0  0  0  0
   -3.1483   -2.3976   -0.2284 C   0  0  0  0  0  0  0  0  0  0  0  0
   -4.4518   -2.8993   -0.5122 C   0  0  0  0  0  0  0  0  0  0  0  0
   -5.2577   -1.4035   -0.4672 S   0  0  0  0  0  0  0  0  0  0  0  0
   -4.0938   -4.1585   -0.6089 C   0  0  0  0  0  0  0  0  0  0  0  0
   -3.8569   -5.2697   -0.7081 C   0  0  0  0  0  0  0  0  0  0  0  0
   -1.9965   -3.9732   -0.2193 Se  0  0  0  0  0  2  0  0  0  0  0  0
   -3.0446   -6.5451   -0.6814 C   0  0  0  0  0  0  0  0  0  0  0  0
   -2.5448   -6.8899    0.5599 C   0  0  0  0  0  0  0  0  0  0  0  0
   -1.6498   -8.1350    0.5655 C   0  0  0  0  0  0  0  0  0  0  0  0
   -1.3961   -8.8693   -0.3442 O   0  0  0  0  0  0  0  0  0  0  0  0
   -1.2189   -8.1213    1.9863 C   0  0  0  0  0  0  0  0  0  0  0  0
   -0.2527   -9.1467    2.4524 C   0  0  0  0  0  0  0  0  0  0  0  0
    0.0713   -8.9084    3.7829 C   0  0  0  0  0  0  0  0  0  0  0  0
   -0.3890   -7.9453    4.5404 C   0  0  0  0  0  0  0  0  0  0  0  0
    0.0863   -7.7521    6.2069 Cl  0  0  0  0  0  0  0  0  0  0  0  0
   -1.3531   -6.9589    4.0173 C   0  0  0  0  0  0  0  0  0  0  0  0
   -1.6632   -7.2010    2.7031 C   0  0  0  0  0  0  0  0  0  0  0  0
   -2.6031   -6.3054    1.8254 C   0  0  0  0  0  0  0  0  0  0  0  0
   -3.5148   -5.5971    2.4459 C   0  0  0  0  0  0  0  0  0  0  0  0
   -4.8314   -5.2559    1.9248 C   0  0  0  0  0  0  0  0  0  0  0  0
   -5.9039   -4.9735    1.5180 N   0  0  0  0  0  0  0  0  0  0  0  0
   -3.2454   -4.9177    3.7319 C   0  0  0  0  0  0  0  0  0  0  0  0
   -3.0530   -4.3909    4.7459 N   0  0  0  0  0  0  0  0  0  0  0  0
    4.9121    7.3002    2.0999 H   0  0  0  0  0  0  0  0  0  0  0  0
    3.7303    4.0005   -3.1619 H   0  0  0  0  0  0  0  0  0  0  0  0
    8.3451    5.1883   -2.1531 H   0  0  0  0  0  0  0  0  0  0  0  0
    1.5917    7.8528    1.6728 H   0  0  0  0  0  0  0  0  0  0  0  0
   -0.5988   -1.8392   -0.3358 H   0  0  0  0  0  0  0  0  0  0  0  0
    0.2398   -0.8596    0.8807 H   0  0  0  0  0  0  0  0  0  0  0  0
    1.1415   -0.5550   -1.2275 H   0  0  0  0  0  0  0  0  0  0  0  0
   -0.3888   -0.4023   -2.0681 H   0  0  0  0  0  0  0  0  0  0  0  0
    0.2463    0.9577   -1.0890 H   0  0  0  0  0  0  0  0  0  0  0  0
    1.2362    1.1286    1.3017 H   0  0  0  0  0  0  0  0  0  0  0  0
   -0.3201    0.6078    2.0513 H   0  0  0  0  0  0  0  0  0  0  0  0
    1.5396    1.2721    3.6456 H   0  0  0  0  0  0  0  0  0  0  0  0
    0.7754    2.9193    3.3069 H   0  0  0  0  0  0  0  0  0  0  0  0
   -0.2008    1.5524    3.8176 H   0  0  0  0  0  0  0  0  0  0  0  0
   -5.4695   -4.5091   -1.0970 H   0  0  0  0  0  0  0  0  0  0  0  0
   -2.9128   -7.0475   -1.5123 H   0  0  0  0  0  0  0  0  0  0  0  0
    0.0849   -9.8853    1.8520 H   0  0  0  0  0  0  0  0  0  0  0  0
    0.8211   -9.6559    4.2272 H   0  0  0  0  0  0  0  0  0  0  0  0
   -1.6386   -6.2459    4.6741 H   0  0  0  0  0  0  0  0  0  0  0  0
  1  2  2  3
  2  3  1  0
  3  4  2  0
  3  5  1  0
  5  6  2  0
  6  7  1  0
  7  8  1  0
  7  9  2  0
  9 10  1  0
  9 11  1  0
 11 12  2  0
 12 13  1  0
 13 14  2  3
 14 15  1  0
 15 16  3  0
 14 17  1  0
 17 18  3  0
  1 19  1  0
 19 20  2  0
 20 21  1  0
 21 22  1  0
 22 23  1  0
 23 24  1  0
 24 25  1  0
 25 26  1  0
 26 27  2  0
 27 28  1  0
 28 29  1  0
 26 30  1  0
 30 31  1  0
 31 32  2  0
 32 33  1  0
 33 34  1  0
 34 35  1  0
 33 36  1  0
 36 37  1  0
 37 38  1  0
 38 39  1  0
 39 40  1  0
 40 41  1  0
 38 42  1  0
 42 43  1  0
 32 44  1  0
 44 45  2  0
 45 46  1  0
 45 47  1  0
 47 48  2  0
 48 49  1  0
 48 50  1  0
 50 51  2  3
 51 52  1  0
 52 53  2  0
 52 54  1  0
 54 55  2  0
 55 56  1  0
 56 57  2  0
 57 58  1  0
 57 59  1  0
 59 60  2  0
 60 61  1  0
 61 62  2  3
 62 63  1  0
 63 64  3  0
 62 65  1  0
 65 66  3  0
 13  2  1  0
 41 19  1  0
 49 44  1  0
 61 51  1  0
 12  5  1  0
 40 21  2  0
 60 54  1  0
 39 23  2  0
 37 24  2  0
 29 25  2  0
 36 30  2  0
 46 31  1  0
  1 67  1  0
  6 68  1  0
 11 69  1  0
 20 70  1  0
 34 71  1  0
 34 72  1  0
 35 73  1  0
 35 74  1  0
 35 75  1  0
 42 76  1  0
 42 77  1  0
 43 78  1  0
 43 79  1  0
 43 80  1  0
 47 81  1  0
 50 82  1  0
 55 83  1  0
 56 84  1  0
 59 85  1  0
M  END

