
     RDKit          3D

130146  0  0  0  0  0  0  0  0999 V2000
   -8.2587   -0.9799   -2.0553 C   0  0  0  0  0  0  0  0  0  0  0  0
   -7.9617   -1.7869   -3.0939 C   0  0  0  0  0  0  0  0  0  0  0  0
   -8.5765   -3.1086   -3.2362 C   0  0  0  0  0  0  0  0  0  0  0  0
   -9.7096   -3.4468   -2.8052 O   0  0  0  0  0  0  0  0  0  0  0  0
   -7.6119   -3.9879   -3.8747 C   0  0  0  0  0  0  0  0  0  0  0  0
   -7.6627   -5.3724   -4.0332 C   0  0  0  0  0  0  0  0  0  0  0  0
   -6.5297   -6.0282   -4.5452 C   0  0  0  0  0  0  0  0  0  0  0  0
   -6.5433   -7.3751   -4.6937 F   0  0  0  0  0  0  0  0  0  0  0  0
   -5.3718   -5.2962   -4.8649 C   0  0  0  0  0  0  0  0  0  0  0  0
   -4.2699   -5.9417   -5.3204 F   0  0  0  0  0  0  0  0  0  0  0  0
   -5.3453   -3.8983   -4.7016 C   0  0  0  0  0  0  0  0  0  0  0  0
   -6.4934   -3.2535   -4.2198 C   0  0  0  0  0  0  0  0  0  0  0  0
   -6.7330   -1.8198   -3.9322 C   0  0  0  0  0  0  0  0  0  0  0  0
   -6.3031   -0.7921   -4.7020 C   0  0  0  0  0  0  0  0  0  0  0  0
   -5.2108   -0.9301   -5.6306 C   0  0  0  0  0  0  0  0  0  0  0  0
   -4.3276   -1.0273   -6.3759 N   0  0  0  0  0  0  0  0  0  0  0  0
   -6.9988    0.4747   -4.7112 C   0  0  0  0  0  0  0  0  0  0  0  0
   -7.5608    1.4879   -4.7258 N   0  0  0  0  0  0  0  0  0  0  0  0
   -7.3192   -0.0672   -1.3451 C   0  0  0  0  0  0  0  0  0  0  0  0
   -7.5127    0.3689   -0.0152 C   0  0  0  0  0  0  0  0  0  0  0  0
   -8.7648    0.2035    0.7487 C   0  0  0  0  0  0  0  0  0  0  0  0
   -9.9557    0.7568    0.2568 C   0  0  0  0  0  0  0  0  0  0  0  0
  -11.1312    0.6781    1.0047 C   0  0  0  0  0  0  0  0  0  0  0  0
  -11.1365    0.0371    2.2546 C   0  0  0  0  0  0  0  0  0  0  0  0
  -12.3883    0.0308    3.0887 C   0  0  0  0  0  0  0  0  0  0  0  0
  -12.5634    1.3647    3.8105 C   0  0  0  0  0  0  0  0  0  0  0  0
   -9.9469   -0.5259    2.7437 C   0  0  0  0  0  0  0  0  0  0  0  0
   -8.7718   -0.4531    1.9903 C   0  0  0  0  0  0  0  0  0  0  0  0
   -6.3460    0.9231    0.5261 C   0  0  0  0  0  0  0  0  0  0  0  0
   -5.8416    1.1567    2.1320 S   0  0  0  0  0  0  0  0  0  0  0  0
   -4.2389    1.4362    1.6537 C   0  0  0  0  0  0  0  0  0  0  0  0
   -3.0309    1.1130    2.2174 C   0  0  0  0  0  0  0  0  0  0  0  0
   -2.7738    0.5104    3.4606 C   0  0  0  0  0  0  0  0  0  0  0  0
   -1.5527   -0.2068    3.6463 C   0  0  0  0  0  0  0  0  0  0  0  0
   -1.3720   -0.8218    4.8382 N   0  0  0  0  0  0  0  0  0  0  0  0
   -2.7989   -0.4190    5.5797 S   0  0  0  0  0  0  0  0  0  0  0  0
   -3.6535    0.4901    4.4923 N   0  0  0  0  0  0  0  0  0  0  0  0
   -0.6333   -0.2408    2.5949 C   0  0  0  0  0  0  0  0  0  0  0  0
    0.6309   -0.7493    2.4912 C   0  0  0  0  0  0  0  0  0  0  0  0
    1.7911   -1.5520    3.4363 S   0  0  0  0  0  0  0  0  0  0  0  0
    3.0014   -1.2624    2.2538 C   0  0  0  0  0  0  0  0  0  0  0  0
    4.3800   -1.5121    2.1783 C   0  0  0  0  0  0  0  0  0  0  0  0
    5.1533   -2.2707    3.1890 C   0  0  0  0  0  0  0  0  0  0  0  0
    6.1039   -3.2207    2.7744 C   0  0  0  0  0  0  0  0  0  0  0  0
    6.8683   -3.9148    3.7141 C   0  0  0  0  0  0  0  0  0  0  0  0
    6.6913   -3.6806    5.0846 C   0  0  0  0  0  0  0  0  0  0  0  0
    7.5223   -4.4325    6.0896 C   0  0  0  0  0  0  0  0  0  0  0  0
    6.9735   -5.8359    6.3120 C   0  0  0  0  0  0  0  0  0  0  0  0
    5.7204   -2.7565    5.5038 C   0  0  0  0  0  0  0  0  0  0  0  0
    4.9626   -2.0513    4.5625 C   0  0  0  0  0  0  0  0  0  0  0  0
    4.9406   -0.9278    1.0179 C   0  0  0  0  0  0  0  0  0  0  0  0
    3.7102   -0.1126    0.1519 S   0  0  0  0  0  0  0  0  0  0  0  0
    2.4939   -0.5436    1.2042 C   0  0  0  0  0  0  0  0  0  0  0  0
    1.1444   -0.2800    1.3272 C   0  0  0  0  0  0  0  0  0  0  0  0
    0.2822    0.5043    0.6393 N   0  0  0  0  0  0  0  0  0  0  0  0
   -0.8563    0.4441    1.3935 C   0  0  0  0  0  0  0  0  0  0  0  0
   -2.1286    1.0051    1.1443 C   0  0  0  0  0  0  0  0  0  0  0  0
   -2.7875    1.0949   -0.0554 N   0  0  0  0  0  0  0  0  0  0  0  0
   -4.0780    1.3386    0.2997 C   0  0  0  0  0  0  0  0  0  0  0  0
   -5.2800    1.0086   -0.3311 C   0  0  0  0  0  0  0  0  0  0  0  0
   -5.7031    0.2752   -1.7755 S   0  0  0  0  0  0  0  0  0  0  0  0
   -2.3670    0.5524   -1.3575 C   0  0  0  0  0  0  0  0  0  0  0  0
   -2.4917    1.6110   -2.4576 C   0  0  0  0  0  0  0  0  0  0  0  0
    0.6820    1.5890   -0.2669 C   0  0  0  0  0  0  0  0  0  0  0  0
    1.3737    2.7138    0.5036 C   0  0  0  0  0  0  0  0  0  0  0  0
    6.3905   -0.6931    0.8297 C   0  0  0  0  0  0  0  0  0  0  0  0
    6.9755   -0.2814   -0.3112 C   0  0  0  0  0  0  0  0  0  0  0  0
    6.3261   -0.1048   -1.6139 C   0  0  0  0  0  0  0  0  0  0  0  0
    5.4499   -0.8598   -2.1155 O   0  0  0  0  0  0  0  0  0  0  0  0
    6.9427    1.0184   -2.2873 C   0  0  0  0  0  0  0  0  0  0  0  0
    6.4467    1.7113   -3.4156 C   0  0  0  0  0  0  0  0  0  0  0  0
    7.1284    2.8830   -3.6902 C   0  0  0  0  0  0  0  0  0  0  0  0
    8.2346    3.3509   -2.9066 C   0  0  0  0  0  0  0  0  0  0  0  0
    8.7305    2.6690   -1.8073 C   0  0  0  0  0  0  0  0  0  0  0  0
    8.0519    1.4532   -1.5202 C   0  0  0  0  0  0  0  0  0  0  0  0
    8.2154    0.5412   -0.3589 C   0  0  0  0  0  0  0  0  0  0  0  0
    9.3436    0.3391    0.3649 C   0  0  0  0  0  0  0  0  0  0  0  0
   10.5405    1.1112    0.1526 C   0  0  0  0  0  0  0  0  0  0  0  0
   11.5077    1.7266   -0.0099 N   0  0  0  0  0  0  0  0  0  0  0  0
    9.4719   -0.7715    1.2757 C   0  0  0  0  0  0  0  0  0  0  0  0
    9.5820   -1.6652    2.0067 N   0  0  0  0  0  0  0  0  0  0  0  0
    8.3073    4.6015   -3.7293 C   0  0  0  0  0  0  0  0  0  0  0  0
    7.7542    5.8977   -3.0636 C   0  0  0  0  0  0  0  0  0  0  0  0
    7.5735    6.8921   -4.1847 C   0  0  0  0  0  0  0  0  0  0  0  0
    6.5459    6.4538   -4.9197 C   0  0  0  0  0  0  0  0  0  0  0  0
    6.0648    5.1796   -4.2678 C   0  0  0  0  0  0  0  0  0  0  0  0
    6.2946    5.5626   -2.8143 C   0  0  0  0  0  0  0  0  0  0  0  0
    7.1765    4.1216   -4.5325 C   0  0  0  0  0  0  0  0  0  0  0  0
   -9.1770   -1.2006   -1.5285 H   0  0  0  0  0  0  0  0  0  0  0  0
   -8.5400   -5.9313   -3.7412 H   0  0  0  0  0  0  0  0  0  0  0  0
   -4.4354   -3.3520   -4.9085 H   0  0  0  0  0  0  0  0  0  0  0  0
   -9.9670    1.2769   -0.6952 H   0  0  0  0  0  0  0  0  0  0  0  0
  -12.0325    1.1377    0.6191 H   0  0  0  0  0  0  0  0  0  0  0  0
  -12.3573   -0.7889    3.8367 H   0  0  0  0  0  0  0  0  0  0  0  0
  -13.2736   -0.1547    2.4435 H   0  0  0  0  0  0  0  0  0  0  0  0
  -12.5672    2.2054    3.0811 H   0  0  0  0  0  0  0  0  0  0  0  0
  -13.5295    1.3695    4.3609 H   0  0  0  0  0  0  0  0  0  0  0  0
  -11.7384    1.5185    4.5401 H   0  0  0  0  0  0  0  0  0  0  0  0
   -9.9276   -1.0164    3.7107 H   0  0  0  0  0  0  0  0  0  0  0  0
   -7.8646   -0.8992    2.3784 H   0  0  0  0  0  0  0  0  0  0  0  0
    6.2572   -3.4243    1.7210 H   0  0  0  0  0  0  0  0  0  0  0  0
    7.5985   -4.6388    3.3728 H   0  0  0  0  0  0  0  0  0  0  0  0
    8.5720   -4.4952    5.7319 H   0  0  0  0  0  0  0  0  0  0  0  0
    7.5392   -3.8915    7.0610 H   0  0  0  0  0  0  0  0  0  0  0  0
    5.9441   -5.7834    6.7252 H   0  0  0  0  0  0  0  0  0  0  0  0
    7.6169   -6.3800    7.0360 H   0  0  0  0  0  0  0  0  0  0  0  0
    6.9545   -6.4076    5.3584 H   0  0  0  0  0  0  0  0  0  0  0  0
    5.5619   -2.5693    6.5595 H   0  0  0  0  0  0  0  0  0  0  0  0
    4.2479   -1.3163    4.9097 H   0  0  0  0  0  0  0  0  0  0  0  0
   -2.9922   -0.3283   -1.6145 H   0  0  0  0  0  0  0  0  0  0  0  0
   -1.3299    0.1677   -1.3275 H   0  0  0  0  0  0  0  0  0  0  0  0
   -3.5257    2.0001   -2.5119 H   0  0  0  0  0  0  0  0  0  0  0  0
   -2.2286    1.1625   -3.4378 H   0  0  0  0  0  0  0  0  0  0  0  0
   -1.8131    2.4645   -2.2627 H   0  0  0  0  0  0  0  0  0  0  0  0
    1.3576    1.1947   -1.0528 H   0  0  0  0  0  0  0  0  0  0  0  0
   -0.1973    2.0325   -0.7597 H   0  0  0  0  0  0  0  0  0  0  0  0
    1.7085    3.4960   -0.2076 H   0  0  0  0  0  0  0  0  0  0  0  0
    0.6693    3.1702    1.2297 H   0  0  0  0  0  0  0  0  0  0  0  0
    2.2607    2.3372    1.0518 H   0  0  0  0  0  0  0  0  0  0  0  0
    6.9633   -0.6704    1.7413 H   0  0  0  0  0  0  0  0  0  0  0  0
    5.5652    1.4043   -3.9624 H   0  0  0  0  0  0  0  0  0  0  0  0
    9.5021    3.0949   -1.1891 H   0  0  0  0  0  0  0  0  0  0  0  0
    9.2627    4.7148   -4.2904 H   0  0  0  0  0  0  0  0  0  0  0  0
    8.3253    6.2678   -2.1871 H   0  0  0  0  0  0  0  0  0  0  0  0
    8.0990    7.8298   -4.3219 H   0  0  0  0  0  0  0  0  0  0  0  0
    6.0931    6.9745   -5.7561 H   0  0  0  0  0  0  0  0  0  0  0  0
    5.0342    4.8669   -4.5336 H   0  0  0  0  0  0  0  0  0  0  0  0
    6.1365    4.7322   -2.0906 H   0  0  0  0  0  0  0  0  0  0  0  0
    5.6873    6.4395   -2.4828 H   0  0  0  0  0  0  0  0  0  0  0  0
    7.4160    3.9303   -5.6030 H   0  0  0  0  0  0  0  0  0  0  0  0
  1  2  2  3
  2  3  1  0
  3  4  2  0
  3  5  1  0
  5  6  2  0
  6  7  1  0
  7  8  1  0
  7  9  2  0
  9 10  1  0
  9 11  1  0
 11 12  2  0
 12 13  1  0
 13 14  2  3
 14 15  1  0
 15 16  3  0
 14 17  1  0
 17 18  3  0
  1 19  1  0
 19 20  2  0
 20 21  1  0
 21 22  2  0
 22 23  1  0
 23 24  2  0
 24 25  1  0
 25 26  1  0
 24 27  1  0
 27 28  2  0
 20 29  1  0
 29 30  1  0
 30 31  1  0
 31 32  1  0
 32 33  1  0
 33 34  1  0
 34 35  2  0
 35 36  1  0
 36 37  1  0
 34 38  1  0
 38 39  1  0
 39 40  1  0
 40 41  1  0
 41 42  1  0
 42 43  1  0
 43 44  2  0
 44 45  1  0
 45 46  2  0
 46 47  1  0
 47 48  1  0
 46 49  1  0
 49 50  2  0
 42 51  2  0
 51 52  1  0
 52 53  1  0
 53 54  1  0
 54 55  1  0
 55 56  1  0
 56 57  1  0
 57 58  1  0
 58 59  1  0
 59 60  1  0
 60 61  1  0
 58 62  1  0
 62 63  1  0
 55 64  1  0
 64 65  1  0
 51 66  1  0
 66 67  2  3
 67 68  1  0
 68 69  2  0
 68 70  1  0
 70 71  2  0
 71 72  1  0
 72 73  2  0
 73 74  1  0
 74 75  2  0
 75 76  1  0
 76 77  2  3
 77 78  1  0
 78 79  3  0
 77 80  1  0
 80 81  3  0
 73 82  1  0
 82 83  1  0
 83 84  1  0
 84 85  2  0
 85 86  1  0
 86 87  1  0
 86 88  1  0
 13  2  1  0
 61 19  1  0
 76 67  1  0
 88 82  1  0
 12  5  1  0
 28 21  1  0
 60 29  2  0
 75 70  1  0
 87 83  1  0
 59 31  2  0
 88 72  1  0
 57 32  2  0
 37 33  2  0
 56 38  2  0
 54 39  2  0
 53 41  2  0
 50 43  1  0
  1 89  1  0
  6 90  1  0
 11 91  1  0
 22 92  1  0
 23 93  1  0
 25 94  1  0
 25 95  1  0
 26 96  1  0
 26 97  1  0
 26 98  1  0
 27 99  1  0
 28100  1  0
 44101  1  0
 45102  1  0
 47103  1  0
 47104  1  0
 48105  1  0
 48106  1  0
 48107  1  0
 49108  1  0
 50109  1  0
 62110  1  0
 62111  1  0
 63112  1  0
 63113  1  0
 63114  1  0
 64115  1  0
 64116  1  0
 65117  1  0
 65118  1  0
 65119  1  0
 66120  1  0
 71121  1  0
 74122  1  0
 82123  1  0
 83124  1  0
 84125  1  0
 85126  1  0
 86127  1  0
 87128  1  0
 87129  1  0
 88130  1  0
M  END

