
     RDKit          3D

 59 66  0  0  0  0  0  0  0  0999 V2000
    0.3622   -3.7565   -3.3281 C   0  0  0  0  0  0  0  0  0  0  0  0
    1.7002   -3.6988   -3.1873 C   0  0  0  0  0  0  0  0  0  0  0  0
    2.5013   -2.4716   -3.0687 C   0  0  0  0  0  0  0  0  0  0  0  0
    2.0682   -1.3010   -2.9036 O   0  0  0  0  0  0  0  0  0  0  0  0
    3.8839   -2.8033   -3.3371 C   0  0  0  0  0  0  0  0  0  0  0  0
    4.9740   -1.9362   -3.4150 C   0  0  0  0  0  0  0  0  0  0  0  0
    6.2210   -2.4607   -3.7791 C   0  0  0  0  0  0  0  0  0  0  0  0
    7.2984   -1.6418   -3.8617 F   0  0  0  0  0  0  0  0  0  0  0  0
    6.3513   -3.8277   -4.0810 C   0  0  0  0  0  0  0  0  0  0  0  0
    7.5545   -4.3230   -4.4624 F   0  0  0  0  0  0  0  0  0  0  0  0
    5.2386   -4.6820   -4.0064 C   0  0  0  0  0  0  0  0  0  0  0  0
    3.9977   -4.1564   -3.6068 C   0  0  0  0  0  0  0  0  0  0  0  0
    2.6681   -4.8113   -3.4437 C   0  0  0  0  0  0  0  0  0  0  0  0
    2.4249   -6.1425   -3.3126 C   0  0  0  0  0  0  0  0  0  0  0  0
    1.1495   -6.6514   -2.8773 C   0  0  0  0  0  0  0  0  0  0  0  0
    0.1288   -7.0680   -2.5241 N   0  0  0  0  0  0  0  0  0  0  0  0
    3.4471   -7.1425   -3.4720 C   0  0  0  0  0  0  0  0  0  0  0  0
    4.2568   -7.9607   -3.5957 N   0  0  0  0  0  0  0  0  0  0  0  0
   -0.5665   -2.6655   -2.9899 C   0  0  0  0  0  0  0  0  0  0  0  0
   -1.7400   -2.3915   -3.6949 C   0  0  0  0  0  0  0  0  0  0  0  0
   -2.5233   -1.4122   -3.0730 C   0  0  0  0  0  0  0  0  0  0  0  0
   -3.7558   -0.9054   -3.5194 C   0  0  0  0  0  0  0  0  0  0  0  0
   -4.4372    0.0863   -2.7394 C   0  0  0  0  0  0  0  0  0  0  0  0
   -5.6242    0.5317   -3.2212 N   0  0  0  0  0  0  0  0  0  0  0  0
   -5.7273   -0.3670   -4.6082 S   0  0  0  0  0  0  0  0  0  0  0  0
   -4.3635   -1.3043   -4.6646 N   0  0  0  0  0  0  0  0  0  0  0  0
   -3.8623    0.5409   -1.5403 C   0  0  0  0  0  0  0  0  0  0  0  0
   -4.3938    1.4880   -0.6571 C   0  0  0  0  0  0  0  0  0  0  0  0
   -3.5567    1.7258    0.4329 C   0  0  0  0  0  0  0  0  0  0  0  0
   -2.1956    0.7168    0.3394 S   0  0  0  0  0  0  0  0  0  0  0  0
   -2.6393    0.0201   -1.1216 C   0  0  0  0  0  0  0  0  0  0  0  0
   -1.9795   -0.9471   -1.8777 C   0  0  0  0  0  0  0  0  0  0  0  0
   -0.5359   -1.7432   -1.5654 S   0  0  0  0  0  0  0  0  0  0  0  0
   -3.9127    2.5682    1.5834 C   0  0  0  0  0  0  0  0  0  0  0  0
   -3.1144    3.5272    2.0914 C   0  0  0  0  0  0  0  0  0  0  0  0
   -1.7842    3.8947    1.5894 C   0  0  0  0  0  0  0  0  0  0  0  0
   -1.3018    3.6103    0.4615 O   0  0  0  0  0  0  0  0  0  0  0  0
   -1.1289    4.7085    2.5879 C   0  0  0  0  0  0  0  0  0  0  0  0
    0.1799    5.1903    2.5817 C   0  0  0  0  0  0  0  0  0  0  0  0
    0.6348    5.9021    3.6993 C   0  0  0  0  0  0  0  0  0  0  0  0
    1.9033    6.3802    3.7236 F   0  0  0  0  0  0  0  0  0  0  0  0
   -0.2129    6.0994    4.8038 C   0  0  0  0  0  0  0  0  0  0  0  0
    0.2441    6.7603    5.8961 F   0  0  0  0  0  0  0  0  0  0  0  0
   -1.5272    5.6035    4.7897 C   0  0  0  0  0  0  0  0  0  0  0  0
   -1.9907    4.9260    3.6490 C   0  0  0  0  0  0  0  0  0  0  0  0
   -3.3176    4.3101    3.3531 C   0  0  0  0  0  0  0  0  0  0  0  0
   -4.4966    4.5916    3.9703 C   0  0  0  0  0  0  0  0  0  0  0  0
   -4.5870    5.4724    5.1050 C   0  0  0  0  0  0  0  0  0  0  0  0
   -4.6791    6.1805    6.0164 N   0  0  0  0  0  0  0  0  0  0  0  0
   -5.7676    4.1467    3.4618 C   0  0  0  0  0  0  0  0  0  0  0  0
   -6.7965    3.7991    3.0610 N   0  0  0  0  0  0  0  0  0  0  0  0
   -0.0903   -4.6381   -3.7546 H   0  0  0  0  0  0  0  0  0  0  0  0
    4.8590   -0.8795   -3.2099 H   0  0  0  0  0  0  0  0  0  0  0  0
    5.3646   -5.7124   -4.2887 H   0  0  0  0  0  0  0  0  0  0  0  0
   -2.0169   -2.8912   -4.6156 H   0  0  0  0  0  0  0  0  0  0  0  0
   -5.3485    1.9780   -0.7982 H   0  0  0  0  0  0  0  0  0  0  0  0
   -4.8553    2.3325    2.0424 H   0  0  0  0  0  0  0  0  0  0  0  0
    0.8350    5.0073    1.7397 H   0  0  0  0  0  0  0  0  0  0  0  0
   -2.1324    5.7282    5.6711 H   0  0  0  0  0  0  0  0  0  0  0  0
  1  2  2  3
  2  3  1  0
  3  4  2  0
  3  5  1  0
  5  6  2  0
  6  7  1  0
  7  8  1  0
  7  9  2  0
  9 10  1  0
  9 11  1  0
 11 12  2  0
 12 13  1  0
 13 14  2  3
 14 15  1  0
 15 16  3  0
 14 17  1  0
 17 18  3  0
  1 19  1  0
 19 20  2  0
 20 21  1  0
 21 22  1  0
 22 23  1  0
 23 24  2  0
 24 25  1  0
 25 26  1  0
 23 27  1  0
 27 28  1  0
 28 29  2  0
 29 30  1  0
 30 31  1  0
 31 32  1  0
 32 33  1  0
 29 34  1  0
 34 35  2  3
 35 36  1  0
 36 37  2  0
 36 38  1  0
 38 39  2  0
 39 40  1  0
 40 41  1  0
 40 42  2  0
 42 43  1  0
 42 44  1  0
 44 45  2  0
 45 46  1  0
 46 47  2  3
 47 48  1  0
 48 49  3  0
 47 50  1  0
 50 51  3  0
 13  2  1  0
 33 19  1  0
 46 35  1  0
 12  5  1  0
 32 21  2  0
 45 38  1  0
 26 22  2  0
 31 27  2  0
  1 52  1  0
  6 53  1  0
 11 54  1  0
 20 55  1  0
 28 56  1  0
 34 57  1  0
 39 58  1  0
 44 59  1  0
M  END

