
     RDKit          3D

 92101  0  0  0  0  0  0  0  0999 V2000
    7.6567    0.7164   -0.0762 C   0  0  0  0  0  0  0  0  0  0  0  0
    8.0296    1.3809   -1.1870 C   0  0  0  0  0  0  0  0  0  0  0  0
    7.1472    2.1858   -2.0430 C   0  0  0  0  0  0  0  0  0  0  0  0
    5.8902    2.1902   -2.0382 O   0  0  0  0  0  0  0  0  0  0  0  0
    7.9663    3.0747   -2.8361 C   0  0  0  0  0  0  0  0  0  0  0  0
    7.5471    4.0797   -3.7070 C   0  0  0  0  0  0  0  0  0  0  0  0
    8.5175    4.8997   -4.2983 C   0  0  0  0  0  0  0  0  0  0  0  0
    8.1396    5.8910   -5.1406 F   0  0  0  0  0  0  0  0  0  0  0  0
    9.8767    4.7184   -3.9921 C   0  0  0  0  0  0  0  0  0  0  0  0
   10.8075    5.5357   -4.5450 F   0  0  0  0  0  0  0  0  0  0  0  0
   10.2761    3.7034   -3.1064 C   0  0  0  0  0  0  0  0  0  0  0  0
    9.3021    2.8608   -2.5460 C   0  0  0  0  0  0  0  0  0  0  0  0
    9.4286    1.7321   -1.5792 C   0  0  0  0  0  0  0  0  0  0  0  0
   10.5513    1.0198   -1.2997 C   0  0  0  0  0  0  0  0  0  0  0  0
   11.8447    1.3680   -1.8256 C   0  0  0  0  0  0  0  0  0  0  0  0
   12.8930    1.6305   -2.2412 N   0  0  0  0  0  0  0  0  0  0  0  0
   10.5112   -0.2132   -0.5577 C   0  0  0  0  0  0  0  0  0  0  0  0
   10.4861   -1.2055    0.0381 N   0  0  0  0  0  0  0  0  0  0  0  0
    6.2646    0.4034    0.2805 C   0  0  0  0  0  0  0  0  0  0  0  0
    5.6106    0.6846    1.8367 S   0  0  0  0  0  0  0  0  0  0  0  0
    4.1386    0.0159    1.4132 C   0  0  0  0  0  0  0  0  0  0  0  0
    2.8437    0.0482    1.8330 C   0  0  0  0  0  0  0  0  0  0  0  0
    1.9495    0.8303    3.0475 S   0  0  0  0  0  0  0  0  0  0  0  0
    0.5353    0.5390    2.1502 C   0  0  0  0  0  0  0  0  0  0  0  0
   -0.8084    0.6049    2.3539 C   0  0  0  0  0  0  0  0  0  0  0  0
   -1.5688    1.0109    3.4557 C   0  0  0  0  0  0  0  0  0  0  0  0
   -2.9816    0.8165    3.4177 C   0  0  0  0  0  0  0  0  0  0  0  0
   -3.6906    1.2348    4.4946 N   0  0  0  0  0  0  0  0  0  0  0  0
   -2.4524    1.8067    5.4355 S   0  0  0  0  0  0  0  0  0  0  0  0
   -1.0546    1.5763    4.5750 N   0  0  0  0  0  0  0  0  0  0  0  0
   -3.5467    0.2438    2.2727 C   0  0  0  0  0  0  0  0  0  0  0  0
   -4.8370    0.1243    1.8648 C   0  0  0  0  0  0  0  0  0  0  0  0
   -6.3464    0.5970    2.3971 S   0  0  0  0  0  0  0  0  0  0  0  0
   -7.0842    0.1719    0.9148 C   0  0  0  0  0  0  0  0  0  0  0  0
   -6.1221   -0.2924   -0.0115 C   0  0  0  0  0  0  0  0  0  0  0  0
   -6.4798   -0.9593   -1.3228 C   0  0  0  0  0  0  0  0  0  0  0  0
   -7.4286   -2.1436   -1.1202 C   0  0  0  0  0  0  0  0  0  0  0  0
   -4.8385   -0.2594    0.5686 C   0  0  0  0  0  0  0  0  0  0  0  0
   -3.5731   -0.3306    0.0575 N   0  0  0  0  0  0  0  0  0  0  0  0
   -2.7832   -0.1303    1.1632 C   0  0  0  0  0  0  0  0  0  0  0  0
   -1.3768   -0.0148    1.2364 C   0  0  0  0  0  0  0  0  0  0  0  0
   -0.4232   -0.5566    0.4146 N   0  0  0  0  0  0  0  0  0  0  0  0
    0.7390   -0.1046    0.9641 C   0  0  0  0  0  0  0  0  0  0  0  0
    2.0888   -0.3888    0.7702 C   0  0  0  0  0  0  0  0  0  0  0  0
    2.8538   -0.6275   -0.3338 N   0  0  0  0  0  0  0  0  0  0  0  0
    4.1155   -0.3882    0.1178 C   0  0  0  0  0  0  0  0  0  0  0  0
    5.3107   -0.1865   -0.5677 C   0  0  0  0  0  0  0  0  0  0  0  0
    2.4495   -0.6776   -1.7400 C   0  0  0  0  0  0  0  0  0  0  0  0
    2.6346   -2.0834   -2.2988 C   0  0  0  0  0  0  0  0  0  0  0  0
   -0.5840   -1.8403   -0.2947 C   0  0  0  0  0  0  0  0  0  0  0  0
   -0.0143   -3.0042    0.5167 C   0  0  0  0  0  0  0  0  0  0  0  0
   -3.1994    0.1391   -1.2939 C   0  0  0  0  0  0  0  0  0  0  0  0
   -3.0119    1.6559   -1.3064 C   0  0  0  0  0  0  0  0  0  0  0  0
   -8.5027    0.4216    0.6044 C   0  0  0  0  0  0  0  0  0  0  0  0
   -9.5295    0.0613    1.3920 C   0  0  0  0  0  0  0  0  0  0  0  0
  -10.8519    0.5071    1.0318 C   0  0  0  0  0  0  0  0  0  0  0  0
  -11.9133    0.8651    0.7444 N   0  0  0  0  0  0  0  0  0  0  0  0
   -9.3886   -0.8350    2.5618 C   0  0  0  0  0  0  0  0  0  0  0  0
  -10.2702   -0.8209    3.4652 O   0  0  0  0  0  0  0  0  0  0  0  0
   -8.3286   -1.7458    2.6296 O   0  0  0  0  0  0  0  0  0  0  0  0
   -8.1207   -2.6368    3.7232 C   0  0  0  0  0  0  0  0  0  0  0  0
   -7.5619   -1.8936    4.9303 C   0  0  0  0  0  0  0  0  0  0  0  0
    8.3966    0.4574    0.6632 H   0  0  0  0  0  0  0  0  0  0  0  0
    6.4967    4.2358   -3.9099 H   0  0  0  0  0  0  0  0  0  0  0  0
   11.3184    3.6214   -2.8589 H   0  0  0  0  0  0  0  0  0  0  0  0
   -6.9440   -0.2144   -2.0043 H   0  0  0  0  0  0  0  0  0  0  0  0
   -5.5848   -1.3883   -1.8082 H   0  0  0  0  0  0  0  0  0  0  0  0
   -7.5567   -2.6788   -2.0843 H   0  0  0  0  0  0  0  0  0  0  0  0
   -8.4321   -1.8131   -0.7850 H   0  0  0  0  0  0  0  0  0  0  0  0
   -7.0066   -2.8503   -0.3715 H   0  0  0  0  0  0  0  0  0  0  0  0
    5.4713   -0.4204   -1.6118 H   0  0  0  0  0  0  0  0  0  0  0  0
    3.0728    0.0276   -2.3317 H   0  0  0  0  0  0  0  0  0  0  0  0
    1.4040   -0.3329   -1.8628 H   0  0  0  0  0  0  0  0  0  0  0  0
    1.9855   -2.8034   -1.7627 H   0  0  0  0  0  0  0  0  0  0  0  0
    3.6928   -2.4018   -2.1851 H   0  0  0  0  0  0  0  0  0  0  0  0
    2.3643   -2.0954   -3.3739 H   0  0  0  0  0  0  0  0  0  0  0  0
   -1.6564   -2.0713   -0.4532 H   0  0  0  0  0  0  0  0  0  0  0  0
   -0.1146   -1.8036   -1.2936 H   0  0  0  0  0  0  0  0  0  0  0  0
   -0.2290   -3.9606   -0.0021 H   0  0  0  0  0  0  0  0  0  0  0  0
   -0.4845   -3.0293    1.5221 H   0  0  0  0  0  0  0  0  0  0  0  0
    1.0851   -2.9129    0.6267 H   0  0  0  0  0  0  0  0  0  0  0  0
   -2.2606   -0.3309   -1.6440 H   0  0  0  0  0  0  0  0  0  0  0  0
   -3.9680   -0.1041   -2.0454 H   0  0  0  0  0  0  0  0  0  0  0  0
   -2.0923    1.9308   -0.7452 H   0  0  0  0  0  0  0  0  0  0  0  0
   -3.8911    2.1601   -0.8455 H   0  0  0  0  0  0  0  0  0  0  0  0
   -2.9075    2.0119   -2.3498 H   0  0  0  0  0  0  0  0  0  0  0  0
   -8.7042    0.9465   -0.3214 H   0  0  0  0  0  0  0  0  0  0  0  0
   -7.3908   -3.4130    3.4110 H   0  0  0  0  0  0  0  0  0  0  0  0
   -9.0700   -3.1470    3.9923 H   0  0  0  0  0  0  0  0  0  0  0  0
   -8.2904   -1.1383    5.2920 H   0  0  0  0  0  0  0  0  0  0  0  0
   -7.3640   -2.6132    5.7504 H   0  0  0  0  0  0  0  0  0  0  0  0
   -6.6120   -1.3901    4.6619 H   0  0  0  0  0  0  0  0  0  0  0  0
  1  2  2  3
  2  3  1  0
  3  4  2  0
  3  5  1  0
  5  6  2  0
  6  7  1  0
  7  8  1  0
  7  9  2  0
  9 10  1  0
  9 11  1  0
 11 12  2  0
 12 13  1  0
 13 14  2  3
 14 15  1  0
 15 16  3  0
 14 17  1  0
 17 18  3  0
  1 19  1  0
 19 20  1  0
 20 21  1  0
 21 22  1  0
 22 23  1  0
 23 24  1  0
 24 25  1  0
 25 26  1  0
 26 27  1  0
 27 28  2  0
 28 29  1  0
 29 30  1  0
 27 31  1  0
 31 32  1  0
 32 33  1  0
 33 34  1  0
 34 35  2  0
 35 36  1  0
 36 37  1  0
 35 38  1  0
 38 39  1  0
 39 40  1  0
 40 41  1  0
 41 42  1  0
 42 43  1  0
 43 44  1  0
 44 45  1  0
 45 46  1  0
 46 47  1  0
 45 48  1  0
 48 49  1  0
 42 50  1  0
 50 51  1  0
 39 52  1  0
 52 53  1  0
 34 54  1  0
 54 55  2  3
 55 56  1  0
 56 57  3  0
 55 58  1  0
 58 59  2  0
 58 60  1  0
 60 61  1  0
 61 62  1  0
 13  2  1  0
 47 19  2  0
 12  5  1  0
 46 21  2  0
 44 22  2  0
 43 24  2  0
 41 25  2  0
 30 26  2  0
 40 31  2  0
 38 32  2  0
  1 63  1  0
  6 64  1  0
 11 65  1  0
 36 66  1  0
 36 67  1  0
 37 68  1  0
 37 69  1  0
 37 70  1  0
 47 71  1  0
 48 72  1  0
 48 73  1  0
 49 74  1  0
 49 75  1  0
 49 76  1  0
 50 77  1  0
 50 78  1  0
 51 79  1  0
 51 80  1  0
 51 81  1  0
 52 82  1  0
 52 83  1  0
 53 84  1  0
 53 85  1  0
 53 86  1  0
 54 87  1  0
 61 88  1  0
 61 89  1  0
 62 90  1  0
 62 91  1  0
 62 92  1  0
M  END

