
     RDKit          3D

114129  0  0  0  0  0  0  0  0999 V2000
    4.3415   -5.2191   -7.3800 C   0  0  0  0  0  0  0  0  0  0  0  0
    5.5423   -5.6474   -6.9360 C   0  0  0  0  0  0  0  0  0  0  0  0
    6.2871   -5.1076   -5.7919 C   0  0  0  0  0  0  0  0  0  0  0  0
    6.1856   -3.9482   -5.3063 O   0  0  0  0  0  0  0  0  0  0  0  0
    7.2591   -6.0919   -5.3766 C   0  0  0  0  0  0  0  0  0  0  0  0
    8.0749   -6.0690   -4.2457 C   0  0  0  0  0  0  0  0  0  0  0  0
    8.8991   -7.1725   -3.9942 C   0  0  0  0  0  0  0  0  0  0  0  0
    9.6940   -7.1851   -2.8952 F   0  0  0  0  0  0  0  0  0  0  0  0
    8.8805   -8.2813   -4.8613 C   0  0  0  0  0  0  0  0  0  0  0  0
    9.6624   -9.3590   -4.5976 F   0  0  0  0  0  0  0  0  0  0  0  0
    8.0484   -8.2843   -5.9932 C   0  0  0  0  0  0  0  0  0  0  0  0
    7.2453   -7.1598   -6.2551 C   0  0  0  0  0  0  0  0  0  0  0  0
    6.2677   -6.8912   -7.3521 C   0  0  0  0  0  0  0  0  0  0  0  0
    6.2183   -7.5068   -8.5621 C   0  0  0  0  0  0  0  0  0  0  0  0
    5.4110   -7.0163   -9.6504 C   0  0  0  0  0  0  0  0  0  0  0  0
    4.7680   -6.6296  -10.5342 N   0  0  0  0  0  0  0  0  0  0  0  0
    7.0606   -8.6259   -8.8949 C   0  0  0  0  0  0  0  0  0  0  0  0
    7.7285   -9.5286   -9.1809 N   0  0  0  0  0  0  0  0  0  0  0  0
    3.5673   -4.1284   -6.7643 C   0  0  0  0  0  0  0  0  0  0  0  0
    2.7276   -2.9418   -7.6711 S   0  0  0  0  0  0  0  0  0  0  0  0
    2.1298   -2.2086   -6.2912 C   0  0  0  0  0  0  0  0  0  0  0  0
    1.5121   -1.0649   -5.8927 C   0  0  0  0  0  0  0  0  0  0  0  0
    0.9001    0.3603   -6.5780 S   0  0  0  0  0  0  0  0  0  0  0  0
    0.7323    1.0018   -5.0099 C   0  0  0  0  0  0  0  0  0  0  0  0
    0.0939    2.0604   -4.4329 C   0  0  0  0  0  0  0  0  0  0  0  0
   -0.7407    3.0494   -4.9765 C   0  0  0  0  0  0  0  0  0  0  0  0
   -1.5026    3.8701   -4.0902 C   0  0  0  0  0  0  0  0  0  0  0  0
   -2.3340    4.7841   -4.6511 N   0  0  0  0  0  0  0  0  0  0  0  0
   -2.0510    4.4631   -6.2530 S   0  0  0  0  0  0  0  0  0  0  0  0
   -0.9333    3.2383   -6.3045 N   0  0  0  0  0  0  0  0  0  0  0  0
   -1.3379    3.6943   -2.7103 C   0  0  0  0  0  0  0  0  0  0  0  0
   -1.8668    4.3352   -1.6233 C   0  0  0  0  0  0  0  0  0  0  0  0
   -3.0273    5.5087   -1.2263 S   0  0  0  0  0  0  0  0  0  0  0  0
   -2.7026    5.3067    0.4403 C   0  0  0  0  0  0  0  0  0  0  0  0
   -3.2819    5.8055    1.6111 C   0  0  0  0  0  0  0  0  0  0  0  0
   -4.4405    6.7620    1.6395 C   0  0  0  0  0  0  0  0  0  0  0  0
   -5.7539    6.0148    1.8542 C   0  0  0  0  0  0  0  0  0  0  0  0
   -2.7251    5.1828    2.7417 C   0  0  0  0  0  0  0  0  0  0  0  0
   -1.5052    4.0828    2.2736 S   0  0  0  0  0  0  0  0  0  0  0  0
   -1.7138    4.3822    0.6460 C   0  0  0  0  0  0  0  0  0  0  0  0
   -1.2544    3.8249   -0.5292 C   0  0  0  0  0  0  0  0  0  0  0  0
   -0.3381    2.8733   -0.8222 N   0  0  0  0  0  0  0  0  0  0  0  0
   -0.4548    2.7416   -2.1783 C   0  0  0  0  0  0  0  0  0  0  0  0
    0.1826    1.8342   -3.0543 C   0  0  0  0  0  0  0  0  0  0  0  0
    0.7095    0.5975   -2.7823 N   0  0  0  0  0  0  0  0  0  0  0  0
    1.1216    0.1589   -4.0056 C   0  0  0  0  0  0  0  0  0  0  0  0
    1.5768   -1.0548   -4.5205 C   0  0  0  0  0  0  0  0  0  0  0  0
    2.2509   -2.1406   -4.0302 N   0  0  0  0  0  0  0  0  0  0  0  0
    2.5571   -2.8275   -5.1643 C   0  0  0  0  0  0  0  0  0  0  0  0
    3.3589   -3.9411   -5.3873 C   0  0  0  0  0  0  0  0  0  0  0  0
    2.8430   -2.3701   -2.7086 C   0  0  0  0  0  0  0  0  0  0  0  0
    3.8811   -1.3021   -2.3841 C   0  0  0  0  0  0  0  0  0  0  0  0
    0.2945   -0.2583   -1.6552 C   0  0  0  0  0  0  0  0  0  0  0  0
   -0.6681   -1.3637   -2.0955 C   0  0  0  0  0  0  0  0  0  0  0  0
    0.8013    2.4934    0.0317 C   0  0  0  0  0  0  0  0  0  0  0  0
    1.6478    3.7102    0.3987 C   0  0  0  0  0  0  0  0  0  0  0  0
   -3.0989    5.4316    4.1401 C   0  0  0  0  0  0  0  0  0  0  0  0
   -3.3322    4.4350    5.0087 C   0  0  0  0  0  0  0  0  0  0  0  0
   -3.5106    3.0155    4.6912 C   0  0  0  0  0  0  0  0  0  0  0  0
   -3.7608    2.5277    3.5554 O   0  0  0  0  0  0  0  0  0  0  0  0
   -3.4814    2.2755    5.9257 C   0  0  0  0  0  0  0  0  0  0  0  0
   -3.5749    0.8768    6.1001 C   0  0  0  0  0  0  0  0  0  0  0  0
   -3.4784    0.4746    7.4175 C   0  0  0  0  0  0  0  0  0  0  0  0
   -3.3166    1.3882    8.5111 C   0  0  0  0  0  0  0  0  0  0  0  0
   -3.2540    2.7650    8.3448 C   0  0  0  0  0  0  0  0  0  0  0  0
   -3.3344    3.1909    6.9951 C   0  0  0  0  0  0  0  0  0  0  0  0
   -3.2571    4.5752    6.4815 C   0  0  0  0  0  0  0  0  0  0  0  0
   -3.8451    5.5921    7.1148 C   0  0  0  0  0  0  0  0  0  0  0  0
   -3.1130    6.2731    8.1548 C   0  0  0  0  0  0  0  0  0  0  0  0
   -2.5307    6.8307    8.9861 N   0  0  0  0  0  0  0  0  0  0  0  0
   -5.2878    5.6631    7.1558 C   0  0  0  0  0  0  0  0  0  0  0  0
   -6.4459    5.7123    7.2104 N   0  0  0  0  0  0  0  0  0  0  0  0
   -3.2651    0.2394    9.4780 C   0  0  0  0  0  0  0  0  0  0  0  0
   -1.8762   -0.1509   10.0717 C   0  0  0  0  0  0  0  0  0  0  0  0
   -0.7825    0.1716    9.0774 C   0  0  0  0  0  0  0  0  0  0  0  0
   -0.9326   -0.6731    8.0581 C   0  0  0  0  0  0  0  0  0  0  0  0
   -2.1244   -1.5415    8.3902 C   0  0  0  0  0  0  0  0  0  0  0  0
   -1.9281   -1.6575    9.8908 C   0  0  0  0  0  0  0  0  0  0  0  0
   -3.4311   -0.6914    8.3571 C   0  0  0  0  0  0  0  0  0  0  0  0
    3.8533   -5.7143   -8.2023 H   0  0  0  0  0  0  0  0  0  0  0  0
    8.0550   -5.2312   -3.5634 H   0  0  0  0  0  0  0  0  0  0  0  0
    8.0233   -9.1655   -6.6111 H   0  0  0  0  0  0  0  0  0  0  0  0
   -4.4931    7.3267    0.6844 H   0  0  0  0  0  0  0  0  0  0  0  0
   -4.2994    7.4985    2.4588 H   0  0  0  0  0  0  0  0  0  0  0  0
   -5.8970    5.2469    1.0633 H   0  0  0  0  0  0  0  0  0  0  0  0
   -6.6017    6.7285    1.8069 H   0  0  0  0  0  0  0  0  0  0  0  0
   -5.7585    5.5263    2.8505 H   0  0  0  0  0  0  0  0  0  0  0  0
    3.7634   -4.5769   -4.6128 H   0  0  0  0  0  0  0  0  0  0  0  0
    2.0644   -2.4286   -1.9331 H   0  0  0  0  0  0  0  0  0  0  0  0
    3.3447   -3.3586   -2.6834 H   0  0  0  0  0  0  0  0  0  0  0  0
    4.6376   -1.2490   -3.1945 H   0  0  0  0  0  0  0  0  0  0  0  0
    3.4001   -0.3085   -2.2721 H   0  0  0  0  0  0  0  0  0  0  0  0
    4.3955   -1.5558   -1.4322 H   0  0  0  0  0  0  0  0  0  0  0  0
   -0.2675    0.3239   -0.9054 H   0  0  0  0  0  0  0  0  0  0  0  0
    1.1794   -0.6590   -1.1319 H   0  0  0  0  0  0  0  0  0  0  0  0
   -1.0426   -1.9086   -1.2034 H   0  0  0  0  0  0  0  0  0  0  0  0
   -1.5336   -0.9166   -2.6270 H   0  0  0  0  0  0  0  0  0  0  0  0
   -0.1779   -2.0989   -2.7616 H   0  0  0  0  0  0  0  0  0  0  0  0
    1.4700    1.7925   -0.5016 H   0  0  0  0  0  0  0  0  0  0  0  0
    0.4327    1.9987    0.9514 H   0  0  0  0  0  0  0  0  0  0  0  0
    2.5818    3.3780    0.9013 H   0  0  0  0  0  0  0  0  0  0  0  0
    1.1055    4.3684    1.1024 H   0  0  0  0  0  0  0  0  0  0  0  0
    1.9145    4.2875   -0.5074 H   0  0  0  0  0  0  0  0  0  0  0  0
   -3.0367    6.4489    4.4999 H   0  0  0  0  0  0  0  0  0  0  0  0
   -3.6820    0.1807    5.2821 H   0  0  0  0  0  0  0  0  0  0  0  0
   -3.1238    3.4430    9.1774 H   0  0  0  0  0  0  0  0  0  0  0  0
   -4.1094    0.2205   10.2005 H   0  0  0  0  0  0  0  0  0  0  0  0
   -1.6872    0.1989   11.1078 H   0  0  0  0  0  0  0  0  0  0  0  0
    0.0395    0.8668    9.2038 H   0  0  0  0  0  0  0  0  0  0  0  0
   -0.2572   -0.7772    7.2132 H   0  0  0  0  0  0  0  0  0  0  0  0
   -2.1696   -2.5037    7.8385 H   0  0  0  0  0  0  0  0  0  0  0  0
   -2.7863   -2.1402   10.4138 H   0  0  0  0  0  0  0  0  0  0  0  0
   -0.9807   -2.1738   10.1729 H   0  0  0  0  0  0  0  0  0  0  0  0
   -4.3748   -1.2761    8.3984 H   0  0  0  0  0  0  0  0  0  0  0  0
  1  2  2  3
  2  3  1  0
  3  4  2  0
  3  5  1  0
  5  6  2  0
  6  7  1  0
  7  8  1  0
  7  9  2  0
  9 10  1  0
  9 11  1  0
 11 12  2  0
 12 13  1  0
 13 14  2  3
 14 15  1  0
 15 16  3  0
 14 17  1  0
 17 18  3  0
  1 19  1  0
 19 20  1  0
 20 21  1  0
 21 22  1  0
 22 23  1  0
 23 24  1  0
 24 25  1  0
 25 26  1  0
 26 27  1  0
 27 28  2  0
 28 29  1  0
 29 30  1  0
 27 31  1  0
 31 32  1  0
 32 33  1  0
 33 34  1  0
 34 35  1  0
 35 36  1  0
 36 37  1  0
 35 38  2  0
 38 39  1  0
 39 40  1  0
 40 41  1  0
 41 42  1  0
 42 43  1  0
 43 44  1  0
 44 45  1  0
 45 46  1  0
 46 47  1  0
 47 48  1  0
 48 49  1  0
 49 50  1  0
 48 51  1  0
 51 52  1  0
 45 53  1  0
 53 54  1  0
 42 55  1  0
 55 56  1  0
 38 57  1  0
 57 58  2  3
 58 59  1  0
 59 60  2  0
 59 61  1  0
 61 62  2  0
 62 63  1  0
 63 64  2  0
 64 65  1  0
 65 66  2  0
 66 67  1  0
 67 68  2  3
 68 69  1  0
 69 70  3  0
 68 71  1  0
 71 72  3  0
 64 73  1  0
 73 74  1  0
 74 75  1  0
 75 76  2  0
 76 77  1  0
 77 78  1  0
 77 79  1  0
 13  2  1  0
 50 19  2  0
 67 58  1  0
 79 73  1  0
 12  5  1  0
 49 21  2  0
 66 61  1  0
 78 74  1  0
 47 22  2  0
 79 63  1  0
 46 24  2  0
 44 25  2  0
 30 26  2  0
 43 31  2  0
 41 32  2  0
 40 34  2  0
  1 80  1  0
  6 81  1  0
 11 82  1  0
 36 83  1  0
 36 84  1  0
 37 85  1  0
 37 86  1  0
 37 87  1  0
 50 88  1  0
 51 89  1  0
 51 90  1  0
 52 91  1  0
 52 92  1  0
 52 93  1  0
 53 94  1  0
 53 95  1  0
 54 96  1  0
 54 97  1  0
 54 98  1  0
 55 99  1  0
 55100  1  0
 56101  1  0
 56102  1  0
 56103  1  0
 57104  1  0
 62105  1  0
 65106  1  0
 73107  1  0
 74108  1  0
 75109  1  0
 76110  1  0
 77111  1  0
 78112  1  0
 78113  1  0
 79114  1  0
M  END

