
     RDKit          3D

115125  0  0  0  0  0  0  0  0999 V2000
    0.5454    0.3776    8.1958 C   0  0  0  0  0  0  0  0  0  0  0  0
   -0.7572    0.1767    8.4714 C   0  0  0  0  0  0  0  0  0  0  0  0
   -1.2847    0.1858    9.8337 C   0  0  0  0  0  0  0  0  0  0  0  0
   -0.6935    0.6248   10.8561 O   0  0  0  0  0  0  0  0  0  0  0  0
   -2.5615   -0.4963    9.8293 C   0  0  0  0  0  0  0  0  0  0  0  0
   -3.3954   -0.7750   10.9110 C   0  0  0  0  0  0  0  0  0  0  0  0
   -4.5932   -1.4662   10.6722 C   0  0  0  0  0  0  0  0  0  0  0  0
   -5.4294   -1.7419   11.7042 F   0  0  0  0  0  0  0  0  0  0  0  0
   -4.9182   -1.8896    9.3718 C   0  0  0  0  0  0  0  0  0  0  0  0
   -6.0760   -2.5642    9.1507 F   0  0  0  0  0  0  0  0  0  0  0  0
   -4.0589   -1.6060    8.2964 C   0  0  0  0  0  0  0  0  0  0  0  0
   -2.8799   -0.8792    8.5370 C   0  0  0  0  0  0  0  0  0  0  0  0
   -1.8490   -0.3569    7.5965 C   0  0  0  0  0  0  0  0  0  0  0  0
   -2.0609   -0.0369    6.2937 C   0  0  0  0  0  0  0  0  0  0  0  0
   -3.1719   -0.5514    5.5399 C   0  0  0  0  0  0  0  0  0  0  0  0
   -4.0589   -0.9614    4.9187 N   0  0  0  0  0  0  0  0  0  0  0  0
   -1.3079    0.9906    5.6231 C   0  0  0  0  0  0  0  0  0  0  0  0
   -0.7243    1.8244    5.0704 N   0  0  0  0  0  0  0  0  0  0  0  0
    1.2049   -0.0285    6.9472 C   0  0  0  0  0  0  0  0  0  0  0  0
    2.2121    0.9971    6.0448 S   0  0  0  0  0  0  0  0  0  0  0  0
    2.3555   -0.1029    4.7907 C   0  0  0  0  0  0  0  0  0  0  0  0
    2.6141    0.0343    3.3888 C   0  0  0  0  0  0  0  0  0  0  0  0
    2.1357   -1.1196    2.7657 C   0  0  0  0  0  0  0  0  0  0  0  0
    1.4217   -2.0454    3.7538 C   0  0  0  0  0  0  0  0  0  0  0  0
    1.6331   -1.2330    5.0233 C   0  0  0  0  0  0  0  0  0  0  0  0
    0.9827   -1.2264    6.2599 C   0  0  0  0  0  0  0  0  0  0  0  0
   -0.0845   -2.1058    3.3344 C   0  0  0  0  0  0  0  0  0  0  0  0
   -0.9685   -3.1001    4.0845 C   0  0  0  0  0  0  0  0  0  0  0  0
    2.1329   -3.4299    3.7694 C   0  0  0  0  0  0  0  0  0  0  0  0
    2.0660   -4.1772    5.1106 C   0  0  0  0  0  0  0  0  0  0  0  0
    2.1260   -1.2095    1.3643 C   0  0  0  0  0  0  0  0  0  0  0  0
    2.4947   -0.0662    0.6447 C   0  0  0  0  0  0  0  0  0  0  0  0
    2.3497    0.1926   -0.7672 C   0  0  0  0  0  0  0  0  0  0  0  0
    2.5589    1.5522   -0.9964 C   0  0  0  0  0  0  0  0  0  0  0  0
    2.8521    2.2884    0.3009 C   0  0  0  0  0  0  0  0  0  0  0  0
    1.6910    3.2455    0.7100 C   0  0  0  0  0  0  0  0  0  0  0  0
    1.3545    4.3569   -0.2854 C   0  0  0  0  0  0  0  0  0  0  0  0
    4.2255    3.0121    0.2721 C   0  0  0  0  0  0  0  0  0  0  0  0
    5.4186    2.0811    0.0302 C   0  0  0  0  0  0  0  0  0  0  0  0
    2.8516    1.1224    1.2740 C   0  0  0  0  0  0  0  0  0  0  0  0
    2.9528    1.1866    2.6732 C   0  0  0  0  0  0  0  0  0  0  0  0
    2.4694    2.0779   -2.2969 C   0  0  0  0  0  0  0  0  0  0  0  0
    2.1424    1.1846   -3.3212 C   0  0  0  0  0  0  0  0  0  0  0  0
    1.7806    1.4480   -4.6890 C   0  0  0  0  0  0  0  0  0  0  0  0
    1.3391    0.3035   -5.2730 C   0  0  0  0  0  0  0  0  0  0  0  0
    1.4590   -0.8934   -4.3550 C   0  0  0  0  0  0  0  0  0  0  0  0
    1.9417   -0.1804   -3.0957 C   0  0  0  0  0  0  0  0  0  0  0  0
    2.0307   -0.7015   -1.7964 C   0  0  0  0  0  0  0  0  0  0  0  0
    2.5330   -1.8457   -4.9487 C   0  0  0  0  0  0  0  0  0  0  0  0
    2.9585   -2.9970   -4.0352 C   0  0  0  0  0  0  0  0  0  0  0  0
    0.0912   -1.6030   -4.1453 C   0  0  0  0  0  0  0  0  0  0  0  0
   -1.0198   -0.6912   -3.6109 C   0  0  0  0  0  0  0  0  0  0  0  0
    0.6455    0.5059   -6.4633 C   0  0  0  0  0  0  0  0  0  0  0  0
    0.5435    1.8660   -6.7666 C   0  0  0  0  0  0  0  0  0  0  0  0
    1.2620    2.8016   -5.5385 S   0  0  0  0  0  0  0  0  0  0  0  0
   -0.3077    2.3876   -7.8422 C   0  0  0  0  0  0  0  0  0  0  0  0
   -1.6443    2.4715   -7.7090 C   0  0  0  0  0  0  0  0  0  0  0  0
   -2.3818    2.1721   -6.4769 C   0  0  0  0  0  0  0  0  0  0  0  0
   -1.9530    2.3097   -5.2996 O   0  0  0  0  0  0  0  0  0  0  0  0
   -3.7086    1.7246   -6.8378 C   0  0  0  0  0  0  0  0  0  0  0  0
   -4.6754    1.1435   -6.0160 C   0  0  0  0  0  0  0  0  0  0  0  0
   -4.4720    1.0151   -4.6814 F   0  0  0  0  0  0  0  0  0  0  0  0
   -5.8470    0.6525   -6.6080 C   0  0  0  0  0  0  0  0  0  0  0  0
   -6.0222    0.7329   -8.0010 C   0  0  0  0  0  0  0  0  0  0  0  0
   -5.0271    1.3080   -8.8102 C   0  0  0  0  0  0  0  0  0  0  0  0
   -3.8738    1.8330   -8.2104 C   0  0  0  0  0  0  0  0  0  0  0  0
   -2.6464    2.4272   -8.8146 C   0  0  0  0  0  0  0  0  0  0  0  0
   -2.5087    2.9450  -10.0640 C   0  0  0  0  0  0  0  0  0  0  0  0
   -1.3420    3.6919  -10.4536 C   0  0  0  0  0  0  0  0  0  0  0  0
   -0.4143    4.3048  -10.7800 N   0  0  0  0  0  0  0  0  0  0  0  0
   -3.5611    2.8940  -11.0407 C   0  0  0  0  0  0  0  0  0  0  0  0
   -4.3978    2.8443  -11.8417 N   0  0  0  0  0  0  0  0  0  0  0  0
    1.1811    0.8092    8.9607 H   0  0  0  0  0  0  0  0  0  0  0  0
   -3.1342   -0.4515   11.9090 H   0  0  0  0  0  0  0  0  0  0  0  0
   -4.3073   -1.9799    7.3191 H   0  0  0  0  0  0  0  0  0  0  0  0
    0.3389   -2.0096    6.6230 H   0  0  0  0  0  0  0  0  0  0  0  0
   -0.1556   -2.3873    2.2587 H   0  0  0  0  0  0  0  0  0  0  0  0
   -0.5357   -1.0946    3.4263 H   0  0  0  0  0  0  0  0  0  0  0  0
   -1.0545   -2.8479    5.1590 H   0  0  0  0  0  0  0  0  0  0  0  0
   -1.9946   -3.0580    3.6614 H   0  0  0  0  0  0  0  0  0  0  0  0
   -0.6058   -4.1378    3.9637 H   0  0  0  0  0  0  0  0  0  0  0  0
    3.2094   -3.3084    3.5212 H   0  0  0  0  0  0  0  0  0  0  0  0
    1.7002   -4.0742    2.9746 H   0  0  0  0  0  0  0  0  0  0  0  0
    1.0644   -4.1161    5.5740 H   0  0  0  0  0  0  0  0  0  0  0  0
    2.3128   -5.2448    4.9523 H   0  0  0  0  0  0  0  0  0  0  0  0
    2.8027   -3.7466    5.8197 H   0  0  0  0  0  0  0  0  0  0  0  0
    1.7405   -2.0866    0.8616 H   0  0  0  0  0  0  0  0  0  0  0  0
    1.9442    3.7235    1.6822 H   0  0  0  0  0  0  0  0  0  0  0  0
    0.7626    2.6540    0.8775 H   0  0  0  0  0  0  0  0  0  0  0  0
    2.2611    4.9241   -0.5832 H   0  0  0  0  0  0  0  0  0  0  0  0
    0.6495    5.0690    0.1943 H   0  0  0  0  0  0  0  0  0  0  0  0
    0.8465    3.9440   -1.1777 H   0  0  0  0  0  0  0  0  0  0  0  0
    4.3872    3.5411    1.2378 H   0  0  0  0  0  0  0  0  0  0  0  0
    4.2294    3.7810   -0.5321 H   0  0  0  0  0  0  0  0  0  0  0  0
    5.2927    1.5166   -0.9190 H   0  0  0  0  0  0  0  0  0  0  0  0
    5.5359    1.3678    0.8717 H   0  0  0  0  0  0  0  0  0  0  0  0
    6.3459    2.6842   -0.0458 H   0  0  0  0  0  0  0  0  0  0  0  0
    3.1743    2.1182    3.1803 H   0  0  0  0  0  0  0  0  0  0  0  0
    2.6169    3.1310   -2.5006 H   0  0  0  0  0  0  0  0  0  0  0  0
    1.8256   -1.7448   -1.5897 H   0  0  0  0  0  0  0  0  0  0  0  0
    3.4473   -1.2655   -5.2038 H   0  0  0  0  0  0  0  0  0  0  0  0
    2.1468   -2.2780   -5.8979 H   0  0  0  0  0  0  0  0  0  0  0  0
    3.4932   -2.6155   -3.1422 H   0  0  0  0  0  0  0  0  0  0  0  0
    3.6594   -3.6566   -4.5873 H   0  0  0  0  0  0  0  0  0  0  0  0
    2.0917   -3.6137   -3.7231 H   0  0  0  0  0  0  0  0  0  0  0  0
   -0.2492   -2.0415   -5.1090 H   0  0  0  0  0  0  0  0  0  0  0  0
    0.2020   -2.4378   -3.4222 H   0  0  0  0  0  0  0  0  0  0  0  0
   -0.7548   -0.2845   -2.6099 H   0  0  0  0  0  0  0  0  0  0  0  0
   -1.2077    0.1449   -4.3075 H   0  0  0  0  0  0  0  0  0  0  0  0
   -1.9603   -1.2688   -3.5131 H   0  0  0  0  0  0  0  0  0  0  0  0
    0.1573   -0.2833   -7.0191 H   0  0  0  0  0  0  0  0  0  0  0  0
    0.1512    2.4500   -8.8193 H   0  0  0  0  0  0  0  0  0  0  0  0
   -6.6071    0.1851   -5.9944 H   0  0  0  0  0  0  0  0  0  0  0  0
   -6.9119    0.3184   -8.4511 H   0  0  0  0  0  0  0  0  0  0  0  0
   -5.1711    1.3025   -9.8779 H   0  0  0  0  0  0  0  0  0  0  0  0
  1  2  2  3
  2  3  1  0
  3  4  2  0
  3  5  1  0
  5  6  2  0
  6  7  1  0
  7  8  1  0
  7  9  2  0
  9 10  1  0
  9 11  1  0
 11 12  2  0
 12 13  1  0
 13 14  2  3
 14 15  1  0
 15 16  3  0
 14 17  1  0
 17 18  3  0
  1 19  1  0
 19 20  1  0
 20 21  1  0
 21 22  1  0
 22 23  2  0
 23 24  1  0
 24 25  1  0
 25 26  1  0
 24 27  1  0
 27 28  1  0
 24 29  1  0
 29 30  1  0
 23 31  1  0
 31 32  2  0
 32 33  1  0
 33 34  2  0
 34 35  1  0
 35 36  1  0
 36 37  1  0
 35 38  1  0
 38 39  1  0
 35 40  1  0
 40 41  2  0
 34 42  1  0
 42 43  2  0
 43 44  1  0
 44 45  2  0
 45 46  1  0
 46 47  1  0
 47 48  2  0
 46 49  1  0
 49 50  1  0
 46 51  1  0
 51 52  1  0
 45 53  1  0
 53 54  2  0
 54 55  1  0
 54 56  1  0
 56 57  2  3
 57 58  1  0
 58 59  2  0
 58 60  1  0
 60 61  2  0
 61 62  1  0
 61 63  1  0
 63 64  2  0
 64 65  1  0
 65 66  2  0
 66 67  1  0
 67 68  2  3
 68 69  1  0
 69 70  3  0
 68 71  1  0
 71 72  3  0
 13  2  1  0
 26 19  2  0
 40 32  1  0
 47 43  1  0
 67 57  1  0
 12  5  1  0
 25 21  2  0
 48 33  1  0
 66 60  1  0
 41 22  1  0
 55 44  1  0
  1 73  1  0
  6 74  1  0
 11 75  1  0
 26 76  1  0
 27 77  1  0
 27 78  1  0
 28 79  1  0
 28 80  1  0
 28 81  1  0
 29 82  1  0
 29 83  1  0
 30 84  1  0
 30 85  1  0
 30 86  1  0
 31 87  1  0
 36 88  1  0
 36 89  1  0
 37 90  1  0
 37 91  1  0
 37 92  1  0
 38 93  1  0
 38 94  1  0
 39 95  1  0
 39 96  1  0
 39 97  1  0
 41 98  1  0
 42 99  1  0
 48100  1  0
 49101  1  0
 49102  1  0
 50103  1  0
 50104  1  0
 50105  1  0
 51106  1  0
 51107  1  0
 52108  1  0
 52109  1  0
 52110  1  0
 53111  1  0
 56112  1  0
 63113  1  0
 64114  1  0
 65115  1  0
M  END

