
     RDKit          3D

 64 71  0  0  0  0  0  0  0  0999 V2000
    2.3821   -3.9592    3.1917 C   0  0  0  0  0  0  0  0  0  0  0  0
    3.6690   -3.5732    3.1231 C   0  0  0  0  0  0  0  0  0  0  0  0
    4.7839   -4.4921    3.3491 C   0  0  0  0  0  0  0  0  0  0  0  0
    4.7201   -5.6127    3.9235 O   0  0  0  0  0  0  0  0  0  0  0  0
    5.9622   -3.9312    2.7193 C   0  0  0  0  0  0  0  0  0  0  0  0
    7.2169   -4.5145    2.5494 C   0  0  0  0  0  0  0  0  0  0  0  0
    8.1853   -3.8141    1.8159 C   0  0  0  0  0  0  0  0  0  0  0  0
    9.4218   -4.3501    1.6527 F   0  0  0  0  0  0  0  0  0  0  0  0
    7.8762   -2.5644    1.2457 C   0  0  0  0  0  0  0  0  0  0  0  0
    8.8099   -1.9048    0.5173 F   0  0  0  0  0  0  0  0  0  0  0  0
    6.6015   -1.9996    1.4185 C   0  0  0  0  0  0  0  0  0  0  0  0
    5.6526   -2.6900    2.1873 C   0  0  0  0  0  0  0  0  0  0  0  0
    4.2552   -2.3297    2.5426 C   0  0  0  0  0  0  0  0  0  0  0  0
    3.7861   -1.0696    2.7273 C   0  0  0  0  0  0  0  0  0  0  0  0
    4.5014    0.0957    2.2762 C   0  0  0  0  0  0  0  0  0  0  0  0
    5.0674    1.0398    1.9163 N   0  0  0  0  0  0  0  0  0  0  0  0
    2.6212   -0.8037    3.5343 C   0  0  0  0  0  0  0  0  0  0  0  0
    1.6894   -0.5814    4.1844 N   0  0  0  0  0  0  0  0  0  0  0  0
    1.2706   -3.3003    2.4821 C   0  0  0  0  0  0  0  0  0  0  0  0
   -0.0454   -3.2641    2.9386 C   0  0  0  0  0  0  0  0  0  0  0  0
   -0.9111   -2.6008    2.0562 C   0  0  0  0  0  0  0  0  0  0  0  0
   -2.3488   -2.2087    2.3561 C   0  0  0  0  0  0  0  0  0  0  0  0
   -3.0150   -3.2644    3.1277 N   0  0  0  0  0  0  0  0  0  0  0  0
   -3.7382   -4.1880    2.5721 C   0  0  0  0  0  0  0  0  0  0  0  0
   -3.9855   -4.1570    1.1252 C   0  0  0  0  0  0  0  0  0  0  0  0
   -3.6749   -3.1030    0.4346 N   0  0  0  0  0  0  0  0  0  0  0  0
   -3.1654   -1.8757    1.0543 C   0  0  0  0  0  0  0  0  0  0  0  0
   -2.3359   -1.1292    0.0342 C   0  0  0  0  0  0  0  0  0  0  0  0
   -0.9710   -1.3281   -0.0610 C   0  0  0  0  0  0  0  0  0  0  0  0
   -0.2641   -2.1294    0.9259 C   0  0  0  0  0  0  0  0  0  0  0  0
    1.3616   -2.5398    0.9716 S   0  0  0  0  0  0  0  0  0  0  0  0
   -0.3539   -0.4889   -1.3771 S   0  0  0  0  0  0  0  0  0  0  0  0
   -1.8420    0.1629   -1.8368 C   0  0  0  0  0  0  0  0  0  0  0  0
   -2.8404   -0.3144   -0.9855 C   0  0  0  0  0  0  0  0  0  0  0  0
   -2.0454    0.9652   -3.0533 C   0  0  0  0  0  0  0  0  0  0  0  0
   -2.8362    2.0527   -3.1269 C   0  0  0  0  0  0  0  0  0  0  0  0
   -3.3345    2.8332   -1.9840 C   0  0  0  0  0  0  0  0  0  0  0  0
   -3.2953    2.5024   -0.7691 O   0  0  0  0  0  0  0  0  0  0  0  0
   -3.7566    4.1303   -2.4694 C   0  0  0  0  0  0  0  0  0  0  0  0
   -4.1903    5.2266   -1.7229 C   0  0  0  0  0  0  0  0  0  0  0  0
   -4.4422    6.4324   -2.3919 C   0  0  0  0  0  0  0  0  0  0  0  0
   -4.8636    7.5164   -1.6955 F   0  0  0  0  0  0  0  0  0  0  0  0
   -4.2289    6.5296   -3.7777 C   0  0  0  0  0  0  0  0  0  0  0  0
   -3.7814    5.4173   -4.5094 C   0  0  0  0  0  0  0  0  0  0  0  0
   -3.5726    4.1993   -3.8402 C   0  0  0  0  0  0  0  0  0  0  0  0
   -3.0879    2.8835   -4.3451 C   0  0  0  0  0  0  0  0  0  0  0  0
   -3.1175    2.4435   -5.6314 C   0  0  0  0  0  0  0  0  0  0  0  0
   -2.8776    1.0655   -5.9759 C   0  0  0  0  0  0  0  0  0  0  0  0
   -2.6880   -0.0409   -6.2579 N   0  0  0  0  0  0  0  0  0  0  0  0
   -3.5249    3.2810   -6.7283 C   0  0  0  0  0  0  0  0  0  0  0  0
   -3.8538    3.9444   -7.6189 N   0  0  0  0  0  0  0  0  0  0  0  0
    2.1450   -4.8859    3.7022 H   0  0  0  0  0  0  0  0  0  0  0  0
    7.4379   -5.4884    2.9672 H   0  0  0  0  0  0  0  0  0  0  0  0
    6.3716   -1.0639    0.9324 H   0  0  0  0  0  0  0  0  0  0  0  0
   -0.3547   -3.6656    3.8953 H   0  0  0  0  0  0  0  0  0  0  0  0
   -2.3089   -1.2931    2.9847 H   0  0  0  0  0  0  0  0  0  0  0  0
   -4.1670   -4.9749    3.1786 H   0  0  0  0  0  0  0  0  0  0  0  0
   -4.4078   -5.0202    0.6294 H   0  0  0  0  0  0  0  0  0  0  0  0
   -4.0334   -1.2433    1.3439 H   0  0  0  0  0  0  0  0  0  0  0  0
   -3.8931   -0.1045   -1.1165 H   0  0  0  0  0  0  0  0  0  0  0  0
   -1.4608    0.6711   -3.9121 H   0  0  0  0  0  0  0  0  0  0  0  0
   -4.3149    5.1537   -0.6500 H   0  0  0  0  0  0  0  0  0  0  0  0
   -4.3956    7.4731   -4.2823 H   0  0  0  0  0  0  0  0  0  0  0  0
   -3.5739    5.5405   -5.5581 H   0  0  0  0  0  0  0  0  0  0  0  0
  1  2  2  3
  2  3  1  0
  3  4  2  0
  3  5  1  0
  5  6  2  0
  6  7  1  0
  7  8  1  0
  7  9  2  0
  9 10  1  0
  9 11  1  0
 11 12  2  0
 12 13  1  0
 13 14  2  3
 14 15  1  0
 15 16  3  0
 14 17  1  0
 17 18  3  0
  1 19  1  0
 19 20  2  0
 20 21  1  0
 21 22  1  0
 22 23  1  0
 23 24  2  0
 24 25  1  0
 25 26  2  0
 26 27  1  0
 27 28  1  0
 28 29  2  0
 29 30  1  0
 30 31  1  0
 29 32  1  0
 32 33  1  0
 33 34  2  0
 33 35  1  0
 35 36  2  3
 36 37  1  0
 37 38  2  0
 37 39  1  0
 39 40  2  0
 40 41  1  0
 41 42  1  0
 41 43  2  0
 43 44  1  0
 44 45  2  0
 45 46  1  0
 46 47  2  3
 47 48  1  0
 48 49  3  0
 47 50  1  0
 50 51  3  0
 13  2  1  0
 31 19  1  0
 46 36  1  0
 12  5  1  0
 30 21  2  0
 45 39  1  0
 27 22  1  0
 34 28  1  0
  1 52  1  0
  6 53  1  0
 11 54  1  0
 20 55  1  0
 22 56  1  0
 24 57  1  0
 25 58  1  0
 27 59  1  0
 34 60  1  0
 35 61  1  0
 40 62  1  0
 43 63  1  0
 44 64  1  0
M  END

