
     RDKit          3D

 90 99  0  0  0  0  0  0  0  0999 V2000
    3.5803    0.1574    3.9204 C   0  0  0  0  0  0  0  0  0  0  0  0
    4.8515    0.3805    3.5352 C   0  0  0  0  0  0  0  0  0  0  0  0
    5.2973    0.6231    2.1550 C   0  0  0  0  0  0  0  0  0  0  0  0
    4.6381    0.4152    1.1022 O   0  0  0  0  0  0  0  0  0  0  0  0
    6.5926    1.2711    2.2077 C   0  0  0  0  0  0  0  0  0  0  0  0
    7.3478    1.7739    1.1479 C   0  0  0  0  0  0  0  0  0  0  0  0
    8.5314    2.4654    1.4362 C   0  0  0  0  0  0  0  0  0  0  0  0
    9.2766    2.9762    0.4255 F   0  0  0  0  0  0  0  0  0  0  0  0
    8.9310    2.6552    2.7707 C   0  0  0  0  0  0  0  0  0  0  0  0
   10.0641    3.3498    3.0452 F   0  0  0  0  0  0  0  0  0  0  0  0
    8.1560    2.1422    3.8243 C   0  0  0  0  0  0  0  0  0  0  0  0
    6.9860    1.4239    3.5266 C   0  0  0  0  0  0  0  0  0  0  0  0
    5.9818    0.7872    4.4243 C   0  0  0  0  0  0  0  0  0  0  0  0
    6.1557    0.4258    5.7228 C   0  0  0  0  0  0  0  0  0  0  0  0
    7.3324    0.7692    6.4770 C   0  0  0  0  0  0  0  0  0  0  0  0
    8.2718    1.0367    7.0975 N   0  0  0  0  0  0  0  0  0  0  0  0
    5.2246   -0.4365    6.4093 C   0  0  0  0  0  0  0  0  0  0  0  0
    4.4826   -1.1345    6.9593 N   0  0  0  0  0  0  0  0  0  0  0  0
    2.4884   -0.2023    3.0043 C   0  0  0  0  0  0  0  0  0  0  0  0
    0.9861    0.5542    2.9848 S   0  0  0  0  0  0  0  0  0  0  0  0
    0.3183   -0.4466    1.8052 C   0  0  0  0  0  0  0  0  0  0  0  0
   -0.9510   -0.3654    1.2187 C   0  0  0  0  0  0  0  0  0  0  0  0
   -1.2888   -1.3192    0.2181 C   0  0  0  0  0  0  0  0  0  0  0  0
   -0.3510   -2.3172   -0.1387 C   0  0  0  0  0  0  0  0  0  0  0  0
    0.9122   -2.3954    0.4814 C   0  0  0  0  0  0  0  0  0  0  0  0
    1.8101   -3.5180    0.1315 C   0  0  0  0  0  0  0  0  0  0  0  0
    1.9368   -4.0896   -1.1313 C   0  0  0  0  0  0  0  0  0  0  0  0
    2.7281   -5.2419   -1.1492 C   0  0  0  0  0  0  0  0  0  0  0  0
    3.2343   -5.5811    0.1036 C   0  0  0  0  0  0  0  0  0  0  0  0
    3.9957   -6.8221    0.4519 C   0  0  0  0  0  0  0  0  0  0  0  0
    5.1440   -7.0907   -0.5241 C   0  0  0  0  0  0  0  0  0  0  0  0
    2.6550   -4.4750    1.2292 S   0  0  0  0  0  0  0  0  0  0  0  0
    1.2485   -1.4195    1.4434 C   0  0  0  0  0  0  0  0  0  0  0  0
    2.4789   -1.2751    2.1122 C   0  0  0  0  0  0  0  0  0  0  0  0
   -2.5621   -1.2299   -0.3876 C   0  0  0  0  0  0  0  0  0  0  0  0
   -3.0593   -2.0329   -1.4329 C   0  0  0  0  0  0  0  0  0  0  0  0
   -4.3273   -1.6470   -1.8502 C   0  0  0  0  0  0  0  0  0  0  0  0
   -4.8492   -0.3287   -0.9458 S   0  0  0  0  0  0  0  0  0  0  0  0
   -3.4574   -0.2310    0.0026 C   0  0  0  0  0  0  0  0  0  0  0  0
   -3.1339    0.7255    0.9768 C   0  0  0  0  0  0  0  0  0  0  0  0
   -4.0573    1.8187    1.3540 C   0  0  0  0  0  0  0  0  0  0  0  0
   -5.4406    1.7196    1.5175 C   0  0  0  0  0  0  0  0  0  0  0  0
   -6.0458    2.9211    1.9017 C   0  0  0  0  0  0  0  0  0  0  0  0
   -5.1420    3.9675    2.0330 C   0  0  0  0  0  0  0  0  0  0  0  0
   -5.4673    5.3515    2.4875 C   0  0  0  0  0  0  0  0  0  0  0  0
   -5.4937    5.4283    4.0091 C   0  0  0  0  0  0  0  0  0  0  0  0
   -3.5908    3.3996    1.7115 S   0  0  0  0  0  0  0  0  0  0  0  0
   -1.8668    0.6471    1.5799 C   0  0  0  0  0  0  0  0  0  0  0  0
   -5.0612   -2.2322   -2.9758 C   0  0  0  0  0  0  0  0  0  0  0  0
   -4.8895   -1.8165   -4.2432 C   0  0  0  0  0  0  0  0  0  0  0  0
   -4.0999   -0.6504   -4.6568 C   0  0  0  0  0  0  0  0  0  0  0  0
   -3.2500   -0.0297   -3.9616 O   0  0  0  0  0  0  0  0  0  0  0  0
   -4.4946   -0.2910   -6.0001 C   0  0  0  0  0  0  0  0  0  0  0  0
   -4.0975    0.8206   -6.7410 C   0  0  0  0  0  0  0  0  0  0  0  0
   -4.6848    1.0310   -7.9959 C   0  0  0  0  0  0  0  0  0  0  0  0
   -4.3311    2.1139   -8.7320 F   0  0  0  0  0  0  0  0  0  0  0  0
   -5.6685    0.1469   -8.4727 C   0  0  0  0  0  0  0  0  0  0  0  0
   -6.2542    0.3694   -9.6779 F   0  0  0  0  0  0  0  0  0  0  0  0
   -6.0618   -0.9612   -7.7054 C   0  0  0  0  0  0  0  0  0  0  0  0
   -5.4402   -1.1882   -6.4662 C   0  0  0  0  0  0  0  0  0  0  0  0
   -5.6600   -2.2536   -5.4476 C   0  0  0  0  0  0  0  0  0  0  0  0
   -6.2277   -3.4704   -5.6516 C   0  0  0  0  0  0  0  0  0  0  0  0
   -6.8683   -3.8362   -6.8889 C   0  0  0  0  0  0  0  0  0  0  0  0
   -7.3978   -4.1415   -7.8763 N   0  0  0  0  0  0  0  0  0  0  0  0
   -6.1400   -4.5286   -4.6798 C   0  0  0  0  0  0  0  0  0  0  0  0
   -6.0688   -5.3889   -3.9075 N   0  0  0  0  0  0  0  0  0  0  0  0
    3.2931    0.3326    4.9463 H   0  0  0  0  0  0  0  0  0  0  0  0
    7.0236    1.6397    0.1236 H   0  0  0  0  0  0  0  0  0  0  0  0
    8.4675    2.3402    4.8341 H   0  0  0  0  0  0  0  0  0  0  0  0
   -0.6080   -3.0648   -0.8746 H   0  0  0  0  0  0  0  0  0  0  0  0
    1.4522   -3.6948   -2.0131 H   0  0  0  0  0  0  0  0  0  0  0  0
    2.8982   -5.8193   -2.0468 H   0  0  0  0  0  0  0  0  0  0  0  0
    4.4182   -6.7248    1.4800 H   0  0  0  0  0  0  0  0  0  0  0  0
    3.2943   -7.6862    0.4456 H   0  0  0  0  0  0  0  0  0  0  0  0
    5.8011   -6.1987   -0.6011 H   0  0  0  0  0  0  0  0  0  0  0  0
    4.7389   -7.3363   -1.5286 H   0  0  0  0  0  0  0  0  0  0  0  0
    5.7507   -7.9499   -0.1672 H   0  0  0  0  0  0  0  0  0  0  0  0
    3.3377   -1.9131    1.9582 H   0  0  0  0  0  0  0  0  0  0  0  0
   -2.5186   -2.8422   -1.9042 H   0  0  0  0  0  0  0  0  0  0  0  0
   -5.9970    0.8035    1.3910 H   0  0  0  0  0  0  0  0  0  0  0  0
   -7.1082    3.0180    2.0952 H   0  0  0  0  0  0  0  0  0  0  0  0
   -6.4519    5.6569    2.0819 H   0  0  0  0  0  0  0  0  0  0  0  0
   -4.7054    6.0606    2.0977 H   0  0  0  0  0  0  0  0  0  0  0  0
   -4.5012    5.1368    4.4215 H   0  0  0  0  0  0  0  0  0  0  0  0
   -6.2759    4.7493    4.4087 H   0  0  0  0  0  0  0  0  0  0  0  0
   -5.7206    6.4682    4.3256 H   0  0  0  0  0  0  0  0  0  0  0  0
   -1.6019    1.3799    2.3348 H   0  0  0  0  0  0  0  0  0  0  0  0
   -5.8236   -2.9530   -2.7327 H   0  0  0  0  0  0  0  0  0  0  0  0
   -3.3634    1.5151   -6.3511 H   0  0  0  0  0  0  0  0  0  0  0  0
   -6.8512   -1.5918   -8.0802 H   0  0  0  0  0  0  0  0  0  0  0  0
  1  2  2  3
  2  3  1  0
  3  4  2  0
  3  5  1  0
  5  6  2  0
  6  7  1  0
  7  8  1  0
  7  9  2  0
  9 10  1  0
  9 11  1  0
 11 12  2  0
 12 13  1  0
 13 14  2  3
 14 15  1  0
 15 16  3  0
 14 17  1  0
 17 18  3  0
  1 19  1  0
 19 20  1  0
 20 21  1  0
 21 22  2  0
 22 23  1  0
 23 24  2  0
 24 25  1  0
 25 26  1  0
 26 27  2  0
 27 28  1  0
 28 29  2  0
 29 30  1  0
 30 31  1  0
 29 32  1  0
 25 33  2  0
 33 34  1  0
 23 35  1  0
 35 36  1  0
 36 37  2  0
 37 38  1  0
 38 39  1  0
 39 40  1  0
 40 41  1  0
 41 42  2  0
 42 43  1  0
 43 44  2  0
 44 45  1  0
 45 46  1  0
 44 47  1  0
 40 48  2  0
 37 49  1  0
 49 50  2  3
 50 51  1  0
 51 52  2  0
 51 53  1  0
 53 54  2  0
 54 55  1  0
 55 56  1  0
 55 57  2  0
 57 58  1  0
 57 59  1  0
 59 60  2  0
 60 61  1  0
 61 62  2  3
 62 63  1  0
 63 64  3  0
 62 65  1  0
 65 66  3  0
 13  2  1  0
 34 19  2  0
 39 35  2  0
 47 41  1  0
 61 50  1  0
 12  5  1  0
 33 21  1  0
 60 53  1  0
 48 22  1  0
 32 26  1  0
  1 67  1  0
  6 68  1  0
 11 69  1  0
 24 70  1  0
 27 71  1  0
 28 72  1  0
 30 73  1  0
 30 74  1  0
 31 75  1  0
 31 76  1  0
 31 77  1  0
 34 78  1  0
 36 79  1  0
 42 80  1  0
 43 81  1  0
 45 82  1  0
 45 83  1  0
 46 84  1  0
 46 85  1  0
 46 86  1  0
 48 87  1  0
 49 88  1  0
 54 89  1  0
 59 90  1  0
M  END

