
     RDKit          3D

100111  0  0  0  0  0  0  0  0999 V2000
   -2.6627   -2.5695    6.5753 C   0  0  0  0  0  0  0  0  0  0  0  0
   -2.9322   -3.6819    5.8629 C   0  0  0  0  0  0  0  0  0  0  0  0
   -2.6254   -3.9057    4.4428 C   0  0  0  0  0  0  0  0  0  0  0  0
   -2.4487   -3.0227    3.5614 O   0  0  0  0  0  0  0  0  0  0  0  0
   -2.6684   -5.3321    4.1930 C   0  0  0  0  0  0  0  0  0  0  0  0
   -2.3055   -6.0175    3.0329 C   0  0  0  0  0  0  0  0  0  0  0  0
   -2.3402   -7.4197    3.0469 C   0  0  0  0  0  0  0  0  0  0  0  0
   -1.9918   -8.1148    1.9356 F   0  0  0  0  0  0  0  0  0  0  0  0
   -2.7121   -8.1081    4.2173 C   0  0  0  0  0  0  0  0  0  0  0  0
   -2.7153   -9.4647    4.2316 F   0  0  0  0  0  0  0  0  0  0  0  0
   -3.0662   -7.3986    5.3774 C   0  0  0  0  0  0  0  0  0  0  0  0
   -3.0663   -5.9938    5.3431 C   0  0  0  0  0  0  0  0  0  0  0  0
   -3.3906   -4.9989    6.4024 C   0  0  0  0  0  0  0  0  0  0  0  0
   -4.1799   -5.2071    7.4876 C   0  0  0  0  0  0  0  0  0  0  0  0
   -4.6886   -4.1256    8.2954 C   0  0  0  0  0  0  0  0  0  0  0  0
   -5.0980   -3.2654    8.9520 N   0  0  0  0  0  0  0  0  0  0  0  0
   -4.6798   -6.5110    7.8398 C   0  0  0  0  0  0  0  0  0  0  0  0
   -5.0939   -7.5529    8.1385 N   0  0  0  0  0  0  0  0  0  0  0  0
   -2.0070   -1.3691    6.0242 C   0  0  0  0  0  0  0  0  0  0  0  0
   -2.4553   -0.0498    6.2039 C   0  0  0  0  0  0  0  0  0  0  0  0
   -3.7755    0.3263    6.8199 C   0  0  0  0  0  0  0  0  0  0  0  0
   -4.9231    0.0620    5.8478 C   0  0  0  0  0  0  0  0  0  0  0  0
   -1.5918    0.8568    5.5827 C   0  0  0  0  0  0  0  0  0  0  0  0
   -1.7147    2.5169    5.2373 S   0  0  0  0  0  0  0  0  0  0  0  0
   -0.2751    2.4743    4.3403 C   0  0  0  0  0  0  0  0  0  0  0  0
    0.2356    3.2035    3.3062 C   0  0  0  0  0  0  0  0  0  0  0  0
   -0.2479    4.3949    2.7521 C   0  0  0  0  0  0  0  0  0  0  0  0
    0.1984    4.7862    1.4614 C   0  0  0  0  0  0  0  0  0  0  0  0
   -0.3397    5.9149    0.9334 N   0  0  0  0  0  0  0  0  0  0  0  0
   -1.3635    6.3342    2.1671 S   0  0  0  0  0  0  0  0  0  0  0  0
   -1.1840    5.1790    3.3398 N   0  0  0  0  0  0  0  0  0  0  0  0
    1.1371    3.9884    0.8113 C   0  0  0  0  0  0  0  0  0  0  0  0
    1.6702    4.0868   -0.4371 C   0  0  0  0  0  0  0  0  0  0  0  0
    1.2984    4.8513   -1.9025 S   0  0  0  0  0  0  0  0  0  0  0  0
    2.3107    3.7745   -2.7522 C   0  0  0  0  0  0  0  0  0  0  0  0
    2.4317    3.4763   -4.1099 C   0  0  0  0  0  0  0  0  0  0  0  0
    1.8274    4.3023   -5.2109 C   0  0  0  0  0  0  0  0  0  0  0  0
    2.7931    5.3930   -5.6522 C   0  0  0  0  0  0  0  0  0  0  0  0
    3.1578    2.2804   -4.2915 C   0  0  0  0  0  0  0  0  0  0  0  0
    3.5890    1.6171   -2.7820 S   0  0  0  0  0  0  0  0  0  0  0  0
    2.8906    2.8624   -1.9079 C   0  0  0  0  0  0  0  0  0  0  0  0
    2.5104    3.0452   -0.5894 C   0  0  0  0  0  0  0  0  0  0  0  0
    2.5926    2.2592    0.5084 N   0  0  0  0  0  0  0  0  0  0  0  0
    1.6748    2.8118    1.3776 C   0  0  0  0  0  0  0  0  0  0  0  0
    1.1488    2.3606    2.6385 C   0  0  0  0  0  0  0  0  0  0  0  0
    1.1292    1.1058    3.2215 N   0  0  0  0  0  0  0  0  0  0  0  0
    0.2534    1.2296    4.2519 C   0  0  0  0  0  0  0  0  0  0  0  0
   -0.4960    0.3012    4.9730 C   0  0  0  0  0  0  0  0  0  0  0  0
   -0.5409   -1.3635    5.1521 S   0  0  0  0  0  0  0  0  0  0  0  0
    1.5976   -0.1882    2.7081 C   0  0  0  0  0  0  0  0  0  0  0  0
    0.8337   -0.6016    1.4528 C   0  0  0  0  0  0  0  0  0  0  0  0
    3.7341    1.3687    0.7497 C   0  0  0  0  0  0  0  0  0  0  0  0
    4.5032    1.7642    2.0111 C   0  0  0  0  0  0  0  0  0  0  0  0
    3.3483    1.5613   -5.5604 C   0  0  0  0  0  0  0  0  0  0  0  0
    2.3394    0.9396   -6.2030 C   0  0  0  0  0  0  0  0  0  0  0  0
    0.9674    0.7707   -5.6871 C   0  0  0  0  0  0  0  0  0  0  0  0
    0.4704    1.3119   -4.6593 O   0  0  0  0  0  0  0  0  0  0  0  0
    0.2965   -0.2220   -6.4896 C   0  0  0  0  0  0  0  0  0  0  0  0
   -0.9670   -0.7720   -6.2868 C   0  0  0  0  0  0  0  0  0  0  0  0
   -1.3751   -1.8354   -7.1122 C   0  0  0  0  0  0  0  0  0  0  0  0
   -2.7404   -2.4331   -6.9370 C   0  0  0  0  0  0  0  0  0  0  0  0
   -0.5030   -2.3192   -8.1108 C   0  0  0  0  0  0  0  0  0  0  0  0
    0.7656   -1.7460   -8.2956 C   0  0  0  0  0  0  0  0  0  0  0  0
    1.1491   -0.6658   -7.4862 C   0  0  0  0  0  0  0  0  0  0  0  0
    2.4289    0.0974   -7.4398 C   0  0  0  0  0  0  0  0  0  0  0  0
    3.3779    0.1537   -8.4126 C   0  0  0  0  0  0  0  0  0  0  0  0
    3.2516   -0.5523   -9.6577 C   0  0  0  0  0  0  0  0  0  0  0  0
    3.1610   -1.0987  -10.6717 N   0  0  0  0  0  0  0  0  0  0  0  0
    4.4969    1.0550   -8.3530 C   0  0  0  0  0  0  0  0  0  0  0  0
    5.4021    1.7780   -8.3207 N   0  0  0  0  0  0  0  0  0  0  0  0
   -2.8671   -2.5378    7.6336 H   0  0  0  0  0  0  0  0  0  0  0  0
   -1.9835   -5.4816    2.1475 H   0  0  0  0  0  0  0  0  0  0  0  0
   -3.2926   -7.9495    6.2752 H   0  0  0  0  0  0  0  0  0  0  0  0
   -3.9392   -0.2595    7.7478 H   0  0  0  0  0  0  0  0  0  0  0  0
   -3.7787    1.3999    7.1036 H   0  0  0  0  0  0  0  0  0  0  0  0
   -5.8756    0.4417    6.2768 H   0  0  0  0  0  0  0  0  0  0  0  0
   -5.0325   -1.0316    5.6672 H   0  0  0  0  0  0  0  0  0  0  0  0
   -4.7415    0.5757    4.8784 H   0  0  0  0  0  0  0  0  0  0  0  0
    0.8853    4.7791   -4.8607 H   0  0  0  0  0  0  0  0  0  0  0  0
    1.5661    3.6618   -6.0802 H   0  0  0  0  0  0  0  0  0  0  0  0
    3.7204    4.9411   -6.0595 H   0  0  0  0  0  0  0  0  0  0  0  0
    3.0512    6.0514   -4.7964 H   0  0  0  0  0  0  0  0  0  0  0  0
    2.3161    6.0077   -6.4423 H   0  0  0  0  0  0  0  0  0  0  0  0
    1.4711   -0.9828    3.4650 H   0  0  0  0  0  0  0  0  0  0  0  0
    2.6823   -0.1864    2.5788 H   0  0  0  0  0  0  0  0  0  0  0  0
   -0.2459   -0.6977    1.6916 H   0  0  0  0  0  0  0  0  0  0  0  0
    0.9523    0.1502    0.6485 H   0  0  0  0  0  0  0  0  0  0  0  0
    1.2086   -1.5850    1.0855 H   0  0  0  0  0  0  0  0  0  0  0  0
    4.4626    1.4625   -0.0813 H   0  0  0  0  0  0  0  0  0  0  0  0
    3.4296    0.3092    0.7097 H   0  0  0  0  0  0  0  0  0  0  0  0
    4.9102    2.7915    1.8943 H   0  0  0  0  0  0  0  0  0  0  0  0
    3.8601    1.7411    2.9114 H   0  0  0  0  0  0  0  0  0  0  0  0
    5.3479    1.0624    2.1677 H   0  0  0  0  0  0  0  0  0  0  0  0
    4.3684    1.4042   -5.8638 H   0  0  0  0  0  0  0  0  0  0  0  0
   -1.6074   -0.3939   -5.4939 H   0  0  0  0  0  0  0  0  0  0  0  0
   -3.0339   -2.4322   -5.8626 H   0  0  0  0  0  0  0  0  0  0  0  0
   -3.4774   -1.8340   -7.5141 H   0  0  0  0  0  0  0  0  0  0  0  0
   -2.7620   -3.4869   -7.2974 H   0  0  0  0  0  0  0  0  0  0  0  0
   -0.8021   -3.1484   -8.7401 H   0  0  0  0  0  0  0  0  0  0  0  0
    1.4219   -2.1903   -9.0198 H   0  0  0  0  0  0  0  0  0  0  0  0
  1  2  2  3
  2  3  1  0
  3  4  2  0
  3  5  1  0
  5  6  2  0
  6  7  1  0
  7  8  1  0
  7  9  2  0
  9 10  1  0
  9 11  1  0
 11 12  2  0
 12 13  1  0
 13 14  2  3
 14 15  1  0
 15 16  3  0
 14 17  1  0
 17 18  3  0
  1 19  1  0
 19 20  2  0
 20 21  1  0
 21 22  1  0
 20 23  1  0
 23 24  1  0
 24 25  1  0
 25 26  1  0
 26 27  1  0
 27 28  1  0
 28 29  2  0
 29 30  1  0
 30 31  1  0
 28 32  1  0
 32 33  1  0
 33 34  1  0
 34 35  1  0
 35 36  1  0
 36 37  1  0
 37 38  1  0
 36 39  2  0
 39 40  1  0
 40 41  1  0
 41 42  1  0
 42 43  1  0
 43 44  1  0
 44 45  1  0
 45 46  1  0
 46 47  1  0
 47 48  1  0
 48 49  1  0
 46 50  1  0
 50 51  1  0
 43 52  1  0
 52 53  1  0
 39 54  1  0
 54 55  2  3
 55 56  1  0
 56 57  2  0
 56 58  1  0
 58 59  2  0
 59 60  1  0
 60 61  1  0
 60 62  2  0
 62 63  1  0
 63 64  2  0
 64 65  1  0
 65 66  2  3
 66 67  1  0
 67 68  3  0
 66 69  1  0
 69 70  3  0
 13  2  1  0
 49 19  1  0
 65 55  1  0
 12  5  1  0
 48 23  2  0
 64 58  1  0
 47 25  2  0
 45 26  2  0
 31 27  2  0
 44 32  2  0
 42 33  2  0
 41 35  2  0
  1 71  1  0
  6 72  1  0
 11 73  1  0
 21 74  1  0
 21 75  1  0
 22 76  1  0
 22 77  1  0
 22 78  1  0
 37 79  1  0
 37 80  1  0
 38 81  1  0
 38 82  1  0
 38 83  1  0
 50 84  1  0
 50 85  1  0
 51 86  1  0
 51 87  1  0
 51 88  1  0
 52 89  1  0
 52 90  1  0
 53 91  1  0
 53 92  1  0
 53 93  1  0
 54 94  1  0
 59 95  1  0
 61 96  1  0
 61 97  1  0
 61 98  1  0
 62 99  1  0
 63100  1  0
M  END

