
     RDKit          3D

 83 92  0  0  0  0  0  0  0  0999 V2000
   -2.5989   -2.6030   -4.2793 C   0  0  0  0  0  0  0  0  0  0  0  0
   -2.3643   -1.9342   -5.4238 C   0  0  0  0  0  0  0  0  0  0  0  0
   -1.2238   -1.0406   -5.6681 C   0  0  0  0  0  0  0  0  0  0  0  0
   -0.4446   -0.5613   -4.8017 O   0  0  0  0  0  0  0  0  0  0  0  0
   -1.1177   -0.8188   -7.0930 C   0  0  0  0  0  0  0  0  0  0  0  0
   -0.1260   -0.1209   -7.7836 C   0  0  0  0  0  0  0  0  0  0  0  0
   -0.1730   -0.1040   -9.1834 C   0  0  0  0  0  0  0  0  0  0  0  0
    0.7779    0.5660   -9.8825 F   0  0  0  0  0  0  0  0  0  0  0  0
   -1.1879   -0.7999   -9.8641 C   0  0  0  0  0  0  0  0  0  0  0  0
   -1.2085   -0.8042  -11.2195 F   0  0  0  0  0  0  0  0  0  0  0  0
   -2.1742   -1.5013   -9.1498 C   0  0  0  0  0  0  0  0  0  0  0  0
   -2.1448   -1.4815   -7.7450 C   0  0  0  0  0  0  0  0  0  0  0  0
   -3.0450   -2.1245   -6.7433 C   0  0  0  0  0  0  0  0  0  0  0  0
   -4.3110   -2.5710   -6.9548 C   0  0  0  0  0  0  0  0  0  0  0  0
   -4.9185   -2.5972   -8.2600 C   0  0  0  0  0  0  0  0  0  0  0  0
   -5.4237   -2.6224   -9.3017 N   0  0  0  0  0  0  0  0  0  0  0  0
   -5.1950   -2.9272   -5.8741 C   0  0  0  0  0  0  0  0  0  0  0  0
   -5.9146   -3.2120   -5.0130 N   0  0  0  0  0  0  0  0  0  0  0  0
   -1.7791   -2.4215   -3.0756 C   0  0  0  0  0  0  0  0  0  0  0  0
   -0.5340   -3.0289   -2.8321 C   0  0  0  0  0  0  0  0  0  0  0  0
    0.1334   -4.0202   -3.7438 C   0  0  0  0  0  0  0  0  0  0  0  0
   -0.4278   -5.4196   -3.5179 C   0  0  0  0  0  0  0  0  0  0  0  0
   -0.0179   -2.6168   -1.6038 C   0  0  0  0  0  0  0  0  0  0  0  0
    1.4414   -2.9431   -0.7777 S   0  0  0  0  0  0  0  0  0  0  0  0
    0.9952   -1.8661    0.4552 C   0  0  0  0  0  0  0  0  0  0  0  0
    1.4706   -1.4038    1.6428 C   0  0  0  0  0  0  0  0  0  0  0  0
    2.6145   -1.7581    2.3590 C   0  0  0  0  0  0  0  0  0  0  0  0
    2.8351   -1.1576    3.6268 C   0  0  0  0  0  0  0  0  0  0  0  0
    3.9617   -1.5166    4.2915 N   0  0  0  0  0  0  0  0  0  0  0  0
    4.5910   -2.5986    3.2075 S   0  0  0  0  0  0  0  0  0  0  0  0
    3.5380   -2.6544    1.9300 N   0  0  0  0  0  0  0  0  0  0  0  0
    1.9172   -0.2119    4.0911 C   0  0  0  0  0  0  0  0  0  0  0  0
    2.0173    0.6535    5.1380 C   0  0  0  0  0  0  0  0  0  0  0  0
    3.1872    1.0943    6.2863 S   0  0  0  0  0  0  0  0  0  0  0  0
    2.3321    2.5259    6.6407 C   0  0  0  0  0  0  0  0  0  0  0  0
    2.6005    3.6134    7.4763 C   0  0  0  0  0  0  0  0  0  0  0  0
    3.7938    3.6857    8.3936 C   0  0  0  0  0  0  0  0  0  0  0  0
    3.3867    3.4400    9.8413 C   0  0  0  0  0  0  0  0  0  0  0  0
    1.6046    4.6052    7.3555 C   0  0  0  0  0  0  0  0  0  0  0  0
    0.4714    4.1205    6.1688 S   0  0  0  0  0  0  0  0  0  0  0  0
    1.2112    2.6493    5.8593 C   0  0  0  0  0  0  0  0  0  0  0  0
    1.0351    1.5721    4.9940 C   0  0  0  0  0  0  0  0  0  0  0  0
    0.2630    1.3521    3.8954 N   0  0  0  0  0  0  0  0  0  0  0  0
    0.7848    0.1941    3.3508 C   0  0  0  0  0  0  0  0  0  0  0  0
    0.5084   -0.4898    2.1210 C   0  0  0  0  0  0  0  0  0  0  0  0
   -0.5870   -0.4802    1.2788 N   0  0  0  0  0  0  0  0  0  0  0  0
   -0.2139   -1.2987    0.2625 C   0  0  0  0  0  0  0  0  0  0  0  0
   -0.8067   -1.7274   -0.9163 C   0  0  0  0  0  0  0  0  0  0  0  0
   -2.2009   -1.3879   -1.7878 S   0  0  0  0  0  0  0  0  0  0  0  0
   -1.9783   -0.0757    1.5235 C   0  0  0  0  0  0  0  0  0  0  0  0
   -2.5089   -0.6420    2.8414 C   0  0  0  0  0  0  0  0  0  0  0  0
   -0.6290    2.3588    3.3067 C   0  0  0  0  0  0  0  0  0  0  0  0
   -0.0583    2.9219    2.0071 C   0  0  0  0  0  0  0  0  0  0  0  0
    1.6146    5.9066    8.0671 C   0  0  0  0  0  0  0  0  0  0  0  0
    0.5277    6.6377    8.3676 C   0  0  0  0  0  0  0  0  0  0  0  0
    0.6902    7.8743    9.0848 C   0  0  0  0  0  0  0  0  0  0  0  0
    0.8224    8.8656    9.6657 N   0  0  0  0  0  0  0  0  0  0  0  0
   -0.8185    6.2078    8.0814 C   0  0  0  0  0  0  0  0  0  0  0  0
   -1.9017    5.8664    7.8556 N   0  0  0  0  0  0  0  0  0  0  0  0
   -3.3586   -3.3630   -4.2235 H   0  0  0  0  0  0  0  0  0  0  0  0
    0.6704    0.3846   -7.2523 H   0  0  0  0  0  0  0  0  0  0  0  0
   -2.9067   -2.0626   -9.7035 H   0  0  0  0  0  0  0  0  0  0  0  0
   -0.0233   -3.7255   -4.8044 H   0  0  0  0  0  0  0  0  0  0  0  0
    1.2295   -4.0294   -3.5567 H   0  0  0  0  0  0  0  0  0  0  0  0
   -1.5164   -5.4395   -3.7409 H   0  0  0  0  0  0  0  0  0  0  0  0
   -0.2607   -5.7364   -2.4658 H   0  0  0  0  0  0  0  0  0  0  0  0
    0.0843   -6.1378   -4.1919 H   0  0  0  0  0  0  0  0  0  0  0  0
    4.5493    2.9244    8.1012 H   0  0  0  0  0  0  0  0  0  0  0  0
    4.2806    4.6790    8.3020 H   0  0  0  0  0  0  0  0  0  0  0  0
    4.2902    3.4546   10.4881 H   0  0  0  0  0  0  0  0  0  0  0  0
    2.6942    4.2347   10.1881 H   0  0  0  0  0  0  0  0  0  0  0  0
    2.8891    2.4512    9.9418 H   0  0  0  0  0  0  0  0  0  0  0  0
   -2.0975    1.0143    1.4219 H   0  0  0  0  0  0  0  0  0  0  0  0
   -2.6383   -0.4829    0.7342 H   0  0  0  0  0  0  0  0  0  0  0  0
   -3.5630   -0.3230    2.9830 H   0  0  0  0  0  0  0  0  0  0  0  0
   -2.4754   -1.7521    2.8128 H   0  0  0  0  0  0  0  0  0  0  0  0
   -1.9168   -0.2928    3.7095 H   0  0  0  0  0  0  0  0  0  0  0  0
   -0.7649    3.2077    3.9983 H   0  0  0  0  0  0  0  0  0  0  0  0
   -1.6509    1.9707    3.2071 H   0  0  0  0  0  0  0  0  0  0  0  0
    0.9378    3.3754    2.2015 H   0  0  0  0  0  0  0  0  0  0  0  0
   -0.7382    3.7087    1.6142 H   0  0  0  0  0  0  0  0  0  0  0  0
    0.0529    2.1307    1.2387 H   0  0  0  0  0  0  0  0  0  0  0  0
    2.5786    6.2724    8.4014 H   0  0  0  0  0  0  0  0  0  0  0  0
  1  2  2  3
  2  3  1  0
  3  4  2  0
  3  5  1  0
  5  6  2  0
  6  7  1  0
  7  8  1  0
  7  9  2  0
  9 10  1  0
  9 11  1  0
 11 12  2  0
 12 13  1  0
 13 14  2  3
 14 15  1  0
 15 16  3  0
 14 17  1  0
 17 18  3  0
  1 19  1  0
 19 20  2  0
 20 21  1  0
 21 22  1  0
 20 23  1  0
 23 24  1  0
 24 25  1  0
 25 26  1  0
 26 27  1  0
 27 28  1  0
 28 29  2  0
 29 30  1  0
 30 31  1  0
 28 32  1  0
 32 33  1  0
 33 34  1  0
 34 35  1  0
 35 36  1  0
 36 37  1  0
 37 38  1  0
 36 39  2  0
 39 40  1  0
 40 41  1  0
 41 42  1  0
 42 43  1  0
 43 44  1  0
 44 45  1  0
 45 46  1  0
 46 47  1  0
 47 48  1  0
 48 49  1  0
 46 50  1  0
 50 51  1  0
 43 52  1  0
 52 53  1  0
 39 54  1  0
 54 55  2  3
 55 56  1  0
 56 57  3  0
 55 58  1  0
 58 59  3  0
 13  2  1  0
 49 19  1  0
 12  5  1  0
 48 23  2  0
 47 25  2  0
 45 26  2  0
 31 27  2  0
 44 32  2  0
 42 33  2  0
 41 35  2  0
  1 60  1  0
  6 61  1  0
 11 62  1  0
 21 63  1  0
 21 64  1  0
 22 65  1  0
 22 66  1  0
 22 67  1  0
 37 68  1  0
 37 69  1  0
 38 70  1  0
 38 71  1  0
 38 72  1  0
 50 73  1  0
 50 74  1  0
 51 75  1  0
 51 76  1  0
 51 77  1  0
 52 78  1  0
 52 79  1  0
 53 80  1  0
 53 81  1  0
 53 82  1  0
 54 83  1  0
M  END

