
     RDKit          3D

 94105  0  0  0  0  0  0  0  0999 V2000
   -2.3380   -4.3867   -4.7661 C   0  0  0  0  0  0  0  0  0  0  0  0
   -2.5231   -5.5224   -4.0583 C   0  0  0  0  0  0  0  0  0  0  0  0
   -1.6321   -6.0962   -3.0478 C   0  0  0  0  0  0  0  0  0  0  0  0
   -0.3742   -6.0630   -3.0539 O   0  0  0  0  0  0  0  0  0  0  0  0
   -2.4400   -6.8519   -2.1119 C   0  0  0  0  0  0  0  0  0  0  0  0
   -2.0791   -7.3620   -0.8650 C   0  0  0  0  0  0  0  0  0  0  0  0
   -3.0740   -7.9426   -0.0676 C   0  0  0  0  0  0  0  0  0  0  0  0
   -2.7616   -8.4151    1.1637 F   0  0  0  0  0  0  0  0  0  0  0  0
   -4.4069   -7.9832   -0.5215 C   0  0  0  0  0  0  0  0  0  0  0  0
   -5.3704   -8.4985    0.2757 F   0  0  0  0  0  0  0  0  0  0  0  0
   -4.7529   -7.4487   -1.7709 C   0  0  0  0  0  0  0  0  0  0  0  0
   -3.7392   -6.9089   -2.5757 C   0  0  0  0  0  0  0  0  0  0  0  0
   -3.8195   -6.2410   -3.9013 C   0  0  0  0  0  0  0  0  0  0  0  0
   -4.7571   -6.4446   -4.8541 C   0  0  0  0  0  0  0  0  0  0  0  0
   -4.6133   -5.9255   -6.1885 C   0  0  0  0  0  0  0  0  0  0  0  0
   -4.5011   -5.5027   -7.2552 N   0  0  0  0  0  0  0  0  0  0  0  0
   -5.8886   -7.3073   -4.6453 C   0  0  0  0  0  0  0  0  0  0  0  0
   -6.7976   -8.0033   -4.4845 N   0  0  0  0  0  0  0  0  0  0  0  0
   -1.2131   -3.4317   -4.6229 C   0  0  0  0  0  0  0  0  0  0  0  0
   -0.8910   -2.4052   -5.5365 C   0  0  0  0  0  0  0  0  0  0  0  0
   -1.5751   -2.1848   -6.8596 C   0  0  0  0  0  0  0  0  0  0  0  0
   -2.7989   -1.2887   -6.7021 C   0  0  0  0  0  0  0  0  0  0  0  0
    0.0748   -1.5360   -5.0079 C   0  0  0  0  0  0  0  0  0  0  0  0
    0.7077   -0.0359   -5.5169 S   0  0  0  0  0  0  0  0  0  0  0  0
    1.5887    0.1221   -4.0712 C   0  0  0  0  0  0  0  0  0  0  0  0
    2.1670    1.1333   -3.3559 C   0  0  0  0  0  0  0  0  0  0  0  0
    2.2526    2.5009   -3.6479 C   0  0  0  0  0  0  0  0  0  0  0  0
    2.5983    3.4082   -2.6047 C   0  0  0  0  0  0  0  0  0  0  0  0
    2.6198    4.7297   -2.9108 N   0  0  0  0  0  0  0  0  0  0  0  0
    2.1706    4.6452   -4.5025 S   0  0  0  0  0  0  0  0  0  0  0  0
    1.9518    3.0399   -4.8542 N   0  0  0  0  0  0  0  0  0  0  0  0
    2.9016    2.8897   -1.3452 C   0  0  0  0  0  0  0  0  0  0  0  0
    3.2301    3.5077   -0.1718 C   0  0  0  0  0  0  0  0  0  0  0  0
    3.1629    5.0526    0.5284 S   0  0  0  0  0  0  0  0  0  0  0  0
    3.4594    4.3909    2.0799 C   0  0  0  0  0  0  0  0  0  0  0  0
    3.3617    4.9064    3.3770 C   0  0  0  0  0  0  0  0  0  0  0  0
    3.0146    6.3359    3.6864 C   0  0  0  0  0  0  0  0  0  0  0  0
    1.5112    6.5159    3.8639 C   0  0  0  0  0  0  0  0  0  0  0  0
    3.4154    3.8673    4.3262 C   0  0  0  0  0  0  0  0  0  0  0  0
    3.5992    2.3637    3.5445 S   0  0  0  0  0  0  0  0  0  0  0  0
    3.6153    3.0298    2.0145 C   0  0  0  0  0  0  0  0  0  0  0  0
    3.4572    2.5367    0.7330 C   0  0  0  0  0  0  0  0  0  0  0  0
    3.2885    1.2912    0.2376 N   0  0  0  0  0  0  0  0  0  0  0  0
    2.8653    1.5124   -1.0536 C   0  0  0  0  0  0  0  0  0  0  0  0
    2.3821    0.6185   -2.0592 C   0  0  0  0  0  0  0  0  0  0  0  0
    1.8308   -0.6408   -1.9551 N   0  0  0  0  0  0  0  0  0  0  0  0
    1.3855   -0.9032   -3.2130 C   0  0  0  0  0  0  0  0  0  0  0  0
    0.5035   -1.8460   -3.7411 C   0  0  0  0  0  0  0  0  0  0  0  0
   -0.3325   -3.1807   -3.1850 S   0  0  0  0  0  0  0  0  0  0  0  0
    1.3759   -1.3667   -0.7612 C   0  0  0  0  0  0  0  0  0  0  0  0
    0.3258   -0.5741    0.0073 C   0  0  0  0  0  0  0  0  0  0  0  0
    3.8509    0.0983    0.8817 C   0  0  0  0  0  0  0  0  0  0  0  0
    4.7928   -0.6736   -0.0423 C   0  0  0  0  0  0  0  0  0  0  0  0
    3.1629    3.9922    5.7697 C   0  0  0  0  0  0  0  0  0  0  0  0
    2.0616    3.4712    6.3437 C   0  0  0  0  0  0  0  0  0  0  0  0
    0.8963    2.9279    5.6043 C   0  0  0  0  0  0  0  0  0  0  0  0
    0.6235    3.0908    4.3868 O   0  0  0  0  0  0  0  0  0  0  0  0
    0.0585    2.2397    6.5520 C   0  0  0  0  0  0  0  0  0  0  0  0
   -0.9986    1.3467    6.4259 C   0  0  0  0  0  0  0  0  0  0  0  0
   -1.2873    0.7628    7.6597 C   0  0  0  0  0  0  0  0  0  0  0  0
   -2.4746   -0.5002    7.9177 Cl  0  0  0  0  0  0  0  0  0  0  0  0
   -0.2135    1.3348    8.8494 S   0  0  0  0  0  0  0  0  0  0  0  0
    0.5856    2.3670    7.7930 C   0  0  0  0  0  0  0  0  0  0  0  0
    1.8291    3.1576    7.7977 C   0  0  0  0  0  0  0  0  0  0  0  0
    2.5553    3.4712    8.8910 C   0  0  0  0  0  0  0  0  0  0  0  0
    3.7400    4.2840    8.8350 C   0  0  0  0  0  0  0  0  0  0  0  0
    4.6917    4.9419    8.8242 N   0  0  0  0  0  0  0  0  0  0  0  0
    2.1647    3.0275   10.2068 C   0  0  0  0  0  0  0  0  0  0  0  0
    1.8582    2.6611   11.2592 N   0  0  0  0  0  0  0  0  0  0  0  0
   -3.1429   -4.0429   -5.3824 H   0  0  0  0  0  0  0  0  0  0  0  0
   -1.0639   -7.2678   -0.5039 H   0  0  0  0  0  0  0  0  0  0  0  0
   -5.7918   -7.4195   -2.0722 H   0  0  0  0  0  0  0  0  0  0  0  0
   -1.8819   -3.1574   -7.2975 H   0  0  0  0  0  0  0  0  0  0  0  0
   -0.8676   -1.7040   -7.5647 H   0  0  0  0  0  0  0  0  0  0  0  0
   -3.2680   -1.1156   -7.6927 H   0  0  0  0  0  0  0  0  0  0  0  0
   -2.4924   -0.3117   -6.2777 H   0  0  0  0  0  0  0  0  0  0  0  0
   -3.5398   -1.7616   -6.0273 H   0  0  0  0  0  0  0  0  0  0  0  0
    3.3731    6.9842    2.8599 H   0  0  0  0  0  0  0  0  0  0  0  0
    3.5364    6.6501    4.6121 H   0  0  0  0  0  0  0  0  0  0  0  0
    1.2779    7.5921    3.9722 H   0  0  0  0  0  0  0  0  0  0  0  0
    0.9607    6.1178    2.9889 H   0  0  0  0  0  0  0  0  0  0  0  0
    1.1639    5.9938    4.7757 H   0  0  0  0  0  0  0  0  0  0  0  0
    0.9234   -2.3280   -1.0426 H   0  0  0  0  0  0  0  0  0  0  0  0
    2.2153   -1.6883   -0.1459 H   0  0  0  0  0  0  0  0  0  0  0  0
   -0.0829   -1.1956    0.8403 H   0  0  0  0  0  0  0  0  0  0  0  0
    0.7699    0.3428    0.4340 H   0  0  0  0  0  0  0  0  0  0  0  0
   -0.5062   -0.3082   -0.6709 H   0  0  0  0  0  0  0  0  0  0  0  0
    3.0564   -0.5142    1.3311 H   0  0  0  0  0  0  0  0  0  0  0  0
    4.4798    0.4026    1.7442 H   0  0  0  0  0  0  0  0  0  0  0  0
    4.2801   -1.0194   -0.9617 H   0  0  0  0  0  0  0  0  0  0  0  0
    5.1944   -1.5621    0.4926 H   0  0  0  0  0  0  0  0  0  0  0  0
    5.6419   -0.0215   -0.3368 H   0  0  0  0  0  0  0  0  0  0  0  0
    3.9670    4.4000    6.3487 H   0  0  0  0  0  0  0  0  0  0  0  0
   -1.4787    1.0827    5.4912 H   0  0  0  0  0  0  0  0  0  0  0  0
  1  2  2  3
  2  3  1  0
  3  4  2  0
  3  5  1  0
  5  6  2  0
  6  7  1  0
  7  8  1  0
  7  9  2  0
  9 10  1  0
  9 11  1  0
 11 12  2  0
 12 13  1  0
 13 14  2  3
 14 15  1  0
 15 16  3  0
 14 17  1  0
 17 18  3  0
  1 19  1  0
 19 20  2  0
 20 21  1  0
 21 22  1  0
 20 23  1  0
 23 24  1  0
 24 25  1  0
 25 26  1  0
 26 27  1  0
 27 28  1  0
 28 29  2  0
 29 30  1  0
 30 31  1  0
 28 32  1  0
 32 33  1  0
 33 34  1  0
 34 35  1  0
 35 36  1  0
 36 37  1  0
 37 38  1  0
 36 39  2  0
 39 40  1  0
 40 41  1  0
 41 42  1  0
 42 43  1  0
 43 44  1  0
 44 45  1  0
 45 46  1  0
 46 47  1  0
 47 48  1  0
 48 49  1  0
 46 50  1  0
 50 51  1  0
 43 52  1  0
 52 53  1  0
 39 54  1  0
 54 55  2  3
 55 56  1  0
 56 57  2  0
 56 58  1  0
 58 59  1  0
 59 60  2  0
 60 61  1  0
 60 62  1  0
 62 63  1  0
 63 64  1  0
 64 65  2  3
 65 66  1  0
 66 67  3  0
 65 68  1  0
 68 69  3  0
 13  2  1  0
 49 19  1  0
 64 55  1  0
 12  5  1  0
 48 23  2  0
 63 58  2  0
 47 25  2  0
 45 26  2  0
 31 27  2  0
 44 32  2  0
 42 33  2  0
 41 35  2  0
  1 70  1  0
  6 71  1  0
 11 72  1  0
 21 73  1  0
 21 74  1  0
 22 75  1  0
 22 76  1  0
 22 77  1  0
 37 78  1  0
 37 79  1  0
 38 80  1  0
 38 81  1  0
 38 82  1  0
 50 83  1  0
 50 84  1  0
 51 85  1  0
 51 86  1  0
 51 87  1  0
 52 88  1  0
 52 89  1  0
 53 90  1  0
 53 91  1  0
 53 92  1  0
 54 93  1  0
 59 94  1  0
M  END

