
     RDKit          3D

 98109  0  0  0  0  0  0  0  0999 V2000
    2.2277    4.1027    6.2597 C   0  0  0  0  0  0  0  0  0  0  0  0
    3.4296    3.6354    6.6573 C   0  0  0  0  0  0  0  0  0  0  0  0
    3.9017    2.2547    6.5382 C   0  0  0  0  0  0  0  0  0  0  0  0
    3.1931    1.2170    6.6137 O   0  0  0  0  0  0  0  0  0  0  0  0
    5.3456    2.2709    6.4709 C   0  0  0  0  0  0  0  0  0  0  0  0
    6.2084    1.1930    6.2795 C   0  0  0  0  0  0  0  0  0  0  0  0
    7.5836    1.4430    6.2297 C   0  0  0  0  0  0  0  0  0  0  0  0
    8.4499    0.4143    6.0539 F   0  0  0  0  0  0  0  0  0  0  0  0
    8.0720    2.7542    6.3758 C   0  0  0  0  0  0  0  0  0  0  0  0
    9.4102    2.9874    6.3339 F   0  0  0  0  0  0  0  0  0  0  0  0
    7.1854    3.8264    6.5863 C   0  0  0  0  0  0  0  0  0  0  0  0
    5.8057    3.5666    6.6409 C   0  0  0  0  0  0  0  0  0  0  0  0
    4.6461    4.4733    6.8844 C   0  0  0  0  0  0  0  0  0  0  0  0
    4.6785    5.7363    7.3762 C   0  0  0  0  0  0  0  0  0  0  0  0
    3.5130    6.3676    7.9438 C   0  0  0  0  0  0  0  0  0  0  0  0
    2.5853    6.8802    8.4171 N   0  0  0  0  0  0  0  0  0  0  0  0
    5.8837    6.5311    7.3956 C   0  0  0  0  0  0  0  0  0  0  0  0
    6.8364    7.1902    7.4066 N   0  0  0  0  0  0  0  0  0  0  0  0
    1.2598    3.3352    5.4465 C   0  0  0  0  0  0  0  0  0  0  0  0
   -0.1144    3.6523    5.2930 C   0  0  0  0  0  0  0  0  0  0  0  0
   -0.8791    4.6440    6.1285 C   0  0  0  0  0  0  0  0  0  0  0  0
   -0.7243    6.0712    5.5916 C   0  0  0  0  0  0  0  0  0  0  0  0
   -0.6796    2.9411    4.2245 C   0  0  0  0  0  0  0  0  0  0  0  0
   -2.2744    2.7704    3.6343 S   0  0  0  0  0  0  0  0  0  0  0  0
   -1.7426    1.6885    2.4341 C   0  0  0  0  0  0  0  0  0  0  0  0
   -2.2866    0.7257    1.6351 C   0  0  0  0  0  0  0  0  0  0  0  0
   -3.6112    0.3044    1.4941 C   0  0  0  0  0  0  0  0  0  0  0  0
   -3.8757   -0.9142    0.7992 C   0  0  0  0  0  0  0  0  0  0  0  0
   -5.1702   -1.2917    0.6889 N   0  0  0  0  0  0  0  0  0  0  0  0
   -5.8915   -0.0509    1.5184 S   0  0  0  0  0  0  0  0  0  0  0  0
   -4.6778    0.9599    2.0142 N   0  0  0  0  0  0  0  0  0  0  0  0
   -2.7986   -1.6307    0.2639 C   0  0  0  0  0  0  0  0  0  0  0  0
   -2.7791   -2.6602   -0.6339 C   0  0  0  0  0  0  0  0  0  0  0  0
   -3.9246   -3.4503   -1.6023 S   0  0  0  0  0  0  0  0  0  0  0  0
   -2.7032   -3.9575   -2.6738 C   0  0  0  0  0  0  0  0  0  0  0  0
   -2.7394   -4.6131   -3.9031 C   0  0  0  0  0  0  0  0  0  0  0  0
   -4.0000   -5.1072   -4.5574 C   0  0  0  0  0  0  0  0  0  0  0  0
   -4.6642   -3.9855   -5.3428 C   0  0  0  0  0  0  0  0  0  0  0  0
   -1.4814   -4.5858   -4.5196 C   0  0  0  0  0  0  0  0  0  0  0  0
   -0.3567   -3.7743   -3.5268 S   0  0  0  0  0  0  0  0  0  0  0  0
   -1.4718   -3.4725   -2.3073 C   0  0  0  0  0  0  0  0  0  0  0  0
   -1.5125   -2.7470   -1.1190 C   0  0  0  0  0  0  0  0  0  0  0  0
   -0.6757   -1.8330   -0.5562 N   0  0  0  0  0  0  0  0  0  0  0  0
   -1.4703   -1.1796    0.3583 C   0  0  0  0  0  0  0  0  0  0  0  0
   -1.2004   -0.0231    1.1474 C   0  0  0  0  0  0  0  0  0  0  0  0
   -0.0231    0.3890    1.7313 N   0  0  0  0  0  0  0  0  0  0  0  0
   -0.4067    1.4477    2.4922 C   0  0  0  0  0  0  0  0  0  0  0  0
    0.1896    2.1322    3.5402 C   0  0  0  0  0  0  0  0  0  0  0  0
    1.7067    2.2105    4.2372 S   0  0  0  0  0  0  0  0  0  0  0  0
    1.1663   -0.4289    2.0079 C   0  0  0  0  0  0  0  0  0  0  0  0
    2.4447    0.1936    1.4292 C   0  0  0  0  0  0  0  0  0  0  0  0
    0.5454   -1.3282   -1.1934 C   0  0  0  0  0  0  0  0  0  0  0  0
    1.7221   -2.2990   -1.0207 C   0  0  0  0  0  0  0  0  0  0  0  0
   -1.1750   -5.1909   -5.8270 C   0  0  0  0  0  0  0  0  0  0  0  0
   -0.9082   -4.4730   -6.9333 C   0  0  0  0  0  0  0  0  0  0  0  0
   -1.0144   -3.0139   -7.0535 C   0  0  0  0  0  0  0  0  0  0  0  0
   -1.0571   -2.1863   -6.1078 O   0  0  0  0  0  0  0  0  0  0  0  0
   -1.1105   -2.6716   -8.4583 C   0  0  0  0  0  0  0  0  0  0  0  0
   -1.3583   -1.4246   -9.0420 C   0  0  0  0  0  0  0  0  0  0  0  0
   -1.4144   -0.2716   -8.2640 O   0  0  0  0  0  0  0  0  0  0  0  0
   -1.5412   -1.3699  -10.4352 C   0  0  0  0  0  0  0  0  0  0  0  0
   -1.5164   -2.5441  -11.2017 C   0  0  0  0  0  0  0  0  0  0  0  0
   -1.2800   -3.7839  -10.5915 C   0  0  0  0  0  0  0  0  0  0  0  0
   -1.0271   -3.8299   -9.2127 C   0  0  0  0  0  0  0  0  0  0  0  0
   -0.7884   -5.0014   -8.3236 C   0  0  0  0  0  0  0  0  0  0  0  0
   -0.2950   -6.2073   -8.6997 C   0  0  0  0  0  0  0  0  0  0  0  0
    0.0694   -7.2223   -7.7404 C   0  0  0  0  0  0  0  0  0  0  0  0
    0.3457   -8.0476   -6.9816 N   0  0  0  0  0  0  0  0  0  0  0  0
    0.0579   -6.5001  -10.0650 C   0  0  0  0  0  0  0  0  0  0  0  0
    0.3741   -6.7382  -11.1489 N   0  0  0  0  0  0  0  0  0  0  0  0
    2.0065    5.1539    6.3423 H   0  0  0  0  0  0  0  0  0  0  0  0
    5.8298    0.1860    6.1761 H   0  0  0  0  0  0  0  0  0  0  0  0
    7.5973    4.8140    6.6946 H   0  0  0  0  0  0  0  0  0  0  0  0
   -1.9545    4.3746    6.1307 H   0  0  0  0  0  0  0  0  0  0  0  0
   -0.5362    4.6002    7.1847 H   0  0  0  0  0  0  0  0  0  0  0  0
   -1.6660    6.6404    5.7705 H   0  0  0  0  0  0  0  0  0  0  0  0
    0.1018    6.5946    6.1292 H   0  0  0  0  0  0  0  0  0  0  0  0
   -0.5037    6.0758    4.4945 H   0  0  0  0  0  0  0  0  0  0  0  0
   -4.7003   -5.4823   -3.7854 H   0  0  0  0  0  0  0  0  0  0  0  0
   -3.7731   -5.9537   -5.2411 H   0  0  0  0  0  0  0  0  0  0  0  0
   -5.6119   -4.3553   -5.7885 H   0  0  0  0  0  0  0  0  0  0  0  0
   -4.9000   -3.1292   -4.6769 H   0  0  0  0  0  0  0  0  0  0  0  0
   -3.9979   -3.6427   -6.1595 H   0  0  0  0  0  0  0  0  0  0  0  0
    1.0186   -1.4492    1.6153 H   0  0  0  0  0  0  0  0  0  0  0  0
    1.2876   -0.5514    3.1109 H   0  0  0  0  0  0  0  0  0  0  0  0
    2.2938    0.6092    0.4185 H   0  0  0  0  0  0  0  0  0  0  0  0
    2.8056    1.0234    2.0668 H   0  0  0  0  0  0  0  0  0  0  0  0
    3.2403   -0.5805    1.3908 H   0  0  0  0  0  0  0  0  0  0  0  0
    0.7954   -0.3326   -0.7931 H   0  0  0  0  0  0  0  0  0  0  0  0
    0.3618   -1.1767   -2.2809 H   0  0  0  0  0  0  0  0  0  0  0  0
    2.6630   -1.7975   -1.3355 H   0  0  0  0  0  0  0  0  0  0  0  0
    1.5847   -3.2029   -1.6489 H   0  0  0  0  0  0  0  0  0  0  0  0
    1.8375   -2.6391    0.0259 H   0  0  0  0  0  0  0  0  0  0  0  0
   -1.3444   -6.2496   -5.9050 H   0  0  0  0  0  0  0  0  0  0  0  0
   -1.5819    0.6354   -8.6794 H   0  0  0  0  0  0  0  0  0  0  0  0
   -1.7302   -0.4193  -10.9184 H   0  0  0  0  0  0  0  0  0  0  0  0
   -1.7033   -2.4902  -12.2673 H   0  0  0  0  0  0  0  0  0  0  0  0
   -1.3499   -4.6742  -11.1968 H   0  0  0  0  0  0  0  0  0  0  0  0
  1  2  2  3
  2  3  1  0
  3  4  2  0
  3  5  1  0
  5  6  2  0
  6  7  1  0
  7  8  1  0
  7  9  2  0
  9 10  1  0
  9 11  1  0
 11 12  2  0
 12 13  1  0
 13 14  2  3
 14 15  1  0
 15 16  3  0
 14 17  1  0
 17 18  3  0
  1 19  1  0
 19 20  2  0
 20 21  1  0
 21 22  1  0
 20 23  1  0
 23 24  1  0
 24 25  1  0
 25 26  1  0
 26 27  1  0
 27 28  1  0
 28 29  2  0
 29 30  1  0
 30 31  1  0
 28 32  1  0
 32 33  1  0
 33 34  1  0
 34 35  1  0
 35 36  1  0
 36 37  1  0
 37 38  1  0
 36 39  2  0
 39 40  1  0
 40 41  1  0
 41 42  1  0
 42 43  1  0
 43 44  1  0
 44 45  1  0
 45 46  1  0
 46 47  1  0
 47 48  1  0
 48 49  1  0
 46 50  1  0
 50 51  1  0
 43 52  1  0
 52 53  1  0
 39 54  1  0
 54 55  2  3
 55 56  1  0
 56 57  2  0
 56 58  1  0
 58 59  2  0
 59 60  1  0
 59 61  1  0
 61 62  2  0
 62 63  1  0
 63 64  2  0
 64 65  1  0
 65 66  2  3
 66 67  1  0
 67 68  3  0
 66 69  1  0
 69 70  3  0
 13  2  1  0
 49 19  1  0
 65 55  1  0
 12  5  1  0
 48 23  2  0
 64 58  1  0
 47 25  2  0
 45 26  2  0
 31 27  2  0
 44 32  2  0
 42 33  2  0
 41 35  2  0
  1 71  1  0
  6 72  1  0
 11 73  1  0
 21 74  1  0
 21 75  1  0
 22 76  1  0
 22 77  1  0
 22 78  1  0
 37 79  1  0
 37 80  1  0
 38 81  1  0
 38 82  1  0
 38 83  1  0
 50 84  1  0
 50 85  1  0
 51 86  1  0
 51 87  1  0
 51 88  1  0
 52 89  1  0
 52 90  1  0
 53 91  1  0
 53 92  1  0
 53 93  1  0
 54 94  1  0
 60 95  1  0
 61 96  1  0
 62 97  1  0
 63 98  1  0
M  END

