
     RDKit          3D

100111  0  0  0  0  0  0  0  0999 V2000
    3.5309    7.5345    1.6466 C   0  0  0  0  0  0  0  0  0  0  0  0
    3.3219    7.5270    2.9809 C   0  0  0  0  0  0  0  0  0  0  0  0
    3.0217    6.3263    3.7770 C   0  0  0  0  0  0  0  0  0  0  0  0
    3.2215    5.1285    3.4373 O   0  0  0  0  0  0  0  0  0  0  0  0
    2.5720    6.7382    5.0826 C   0  0  0  0  0  0  0  0  0  0  0  0
    2.1633    5.9264    6.1391 C   0  0  0  0  0  0  0  0  0  0  0  0
    1.8247    6.5343    7.3546 C   0  0  0  0  0  0  0  0  0  0  0  0
    1.4173    5.7710    8.3958 F   0  0  0  0  0  0  0  0  0  0  0  0
    1.9235    7.9285    7.4985 C   0  0  0  0  0  0  0  0  0  0  0  0
    1.6274    8.5052    8.6924 F   0  0  0  0  0  0  0  0  0  0  0  0
    2.3596    8.7258    6.4263 C   0  0  0  0  0  0  0  0  0  0  0  0
    2.6466    8.1140    5.1911 C   0  0  0  0  0  0  0  0  0  0  0  0
    3.1439    8.6992    3.9049 C   0  0  0  0  0  0  0  0  0  0  0  0
    3.3209   10.0170    3.6226 C   0  0  0  0  0  0  0  0  0  0  0  0
    4.0052   10.4938    2.4531 C   0  0  0  0  0  0  0  0  0  0  0  0
    4.5570   10.8894    1.5160 N   0  0  0  0  0  0  0  0  0  0  0  0
    2.7504   11.0538    4.4427 C   0  0  0  0  0  0  0  0  0  0  0  0
    2.2612   11.8934    5.0758 N   0  0  0  0  0  0  0  0  0  0  0  0
    3.2806    6.3560    0.7988 C   0  0  0  0  0  0  0  0  0  0  0  0
    4.1455    5.8465   -0.1856 C   0  0  0  0  0  0  0  0  0  0  0  0
    5.5085    6.3955   -0.5046 C   0  0  0  0  0  0  0  0  0  0  0  0
    5.4289    7.4243   -1.6251 C   0  0  0  0  0  0  0  0  0  0  0  0
    3.5506    4.7684   -0.8475 C   0  0  0  0  0  0  0  0  0  0  0  0
    4.0787    3.6718   -2.0465 S   0  0  0  0  0  0  0  0  0  0  0  0
    2.6172    2.8070   -1.9417 C   0  0  0  0  0  0  0  0  0  0  0  0
    1.9915    1.7229   -2.4899 C   0  0  0  0  0  0  0  0  0  0  0  0
    2.3670    0.8807   -3.5363 C   0  0  0  0  0  0  0  0  0  0  0  0
    1.4626   -0.1318   -3.9636 C   0  0  0  0  0  0  0  0  0  0  0  0
    1.8753   -0.9367   -4.9722 N   0  0  0  0  0  0  0  0  0  0  0  0
    3.3574   -0.2684   -5.2789 S   0  0  0  0  0  0  0  0  0  0  0  0
    3.5441    0.9737   -4.2015 N   0  0  0  0  0  0  0  0  0  0  0  0
    0.2507   -0.2793   -3.2776 C   0  0  0  0  0  0  0  0  0  0  0  0
   -0.6558   -1.2971   -3.3099 C   0  0  0  0  0  0  0  0  0  0  0  0
   -0.8012   -2.8147   -4.0542 S   0  0  0  0  0  0  0  0  0  0  0  0
   -1.9856   -3.2825   -2.9217 C   0  0  0  0  0  0  0  0  0  0  0  0
   -2.6759   -4.4761   -2.7063 C   0  0  0  0  0  0  0  0  0  0  0  0
   -2.6418   -5.6530   -3.6418 C   0  0  0  0  0  0  0  0  0  0  0  0
   -3.6335   -5.4527   -4.7818 C   0  0  0  0  0  0  0  0  0  0  0  0
   -3.4411   -4.4049   -1.5294 C   0  0  0  0  0  0  0  0  0  0  0  0
   -3.2807   -2.8596   -0.8233 S   0  0  0  0  0  0  0  0  0  0  0  0
   -2.2123   -2.2992   -1.9910 C   0  0  0  0  0  0  0  0  0  0  0  0
   -1.4543   -1.1542   -2.2235 C   0  0  0  0  0  0  0  0  0  0  0  0
   -1.1432   -0.0635   -1.4767 N   0  0  0  0  0  0  0  0  0  0  0  0
   -0.1037    0.5222   -2.1698 C   0  0  0  0  0  0  0  0  0  0  0  0
    0.7432    1.6242   -1.8396 C   0  0  0  0  0  0  0  0  0  0  0  0
    0.5657    2.6963   -0.9880 N   0  0  0  0  0  0  0  0  0  0  0  0
    1.7573    3.3442   -1.0505 C   0  0  0  0  0  0  0  0  0  0  0  0
    2.2765    4.4706   -0.4330 C   0  0  0  0  0  0  0  0  0  0  0  0
    1.8017    5.5034    0.7886 S   0  0  0  0  0  0  0  0  0  0  0  0
   -0.6635    3.3070   -0.4637 C   0  0  0  0  0  0  0  0  0  0  0  0
   -1.7433    3.4207   -1.5385 C   0  0  0  0  0  0  0  0  0  0  0  0
   -1.5876    0.1402   -0.0928 C   0  0  0  0  0  0  0  0  0  0  0  0
   -0.4388   -0.0485    0.8951 C   0  0  0  0  0  0  0  0  0  0  0  0
   -4.3243   -5.4671   -1.0216 C   0  0  0  0  0  0  0  0  0  0  0  0
   -4.2505   -5.9703    0.2248 C   0  0  0  0  0  0  0  0  0  0  0  0
   -3.1302   -5.7778    1.1636 C   0  0  0  0  0  0  0  0  0  0  0  0
   -2.2104   -4.9236    1.0792 O   0  0  0  0  0  0  0  0  0  0  0  0
   -3.2214   -6.7910    2.1927 C   0  0  0  0  0  0  0  0  0  0  0  0
   -2.3243   -7.0404    3.2319 C   0  0  0  0  0  0  0  0  0  0  0  0
   -2.5636   -8.1334    4.0852 C   0  0  0  0  0  0  0  0  0  0  0  0
   -1.6341   -8.4114    5.2330 C   0  0  0  0  0  0  0  0  0  0  0  0
   -3.6924   -8.9513    3.8628 C   0  0  0  0  0  0  0  0  0  0  0  0
   -3.9318  -10.0209    4.6624 F   0  0  0  0  0  0  0  0  0  0  0  0
   -4.5722   -8.6905    2.7968 C   0  0  0  0  0  0  0  0  0  0  0  0
   -4.3359   -7.5831    1.9689 C   0  0  0  0  0  0  0  0  0  0  0  0
   -5.0962   -7.0632    0.7931 C   0  0  0  0  0  0  0  0  0  0  0  0
   -6.3748   -7.3571    0.4469 C   0  0  0  0  0  0  0  0  0  0  0  0
   -7.1077   -6.5946   -0.5388 C   0  0  0  0  0  0  0  0  0  0  0  0
   -7.6970   -5.9836   -1.3231 N   0  0  0  0  0  0  0  0  0  0  0  0
   -7.1497   -8.3585    1.1276 C   0  0  0  0  0  0  0  0  0  0  0  0
   -7.7906   -9.1591    1.6591 N   0  0  0  0  0  0  0  0  0  0  0  0
    3.8012    8.4308    1.1200 H   0  0  0  0  0  0  0  0  0  0  0  0
    2.1201    4.8513    6.0236 H   0  0  0  0  0  0  0  0  0  0  0  0
    2.4814    9.7844    6.5962 H   0  0  0  0  0  0  0  0  0  0  0  0
    6.1815    5.5703   -0.8125 H   0  0  0  0  0  0  0  0  0  0  0  0
    5.9498    6.8677    0.3984 H   0  0  0  0  0  0  0  0  0  0  0  0
    5.1338    6.9317   -2.5780 H   0  0  0  0  0  0  0  0  0  0  0  0
    4.6983    8.2160   -1.3734 H   0  0  0  0  0  0  0  0  0  0  0  0
    6.4214    7.8934   -1.7602 H   0  0  0  0  0  0  0  0  0  0  0  0
   -2.8911   -6.5884   -3.0924 H   0  0  0  0  0  0  0  0  0  0  0  0
   -1.6175   -5.7699   -4.0600 H   0  0  0  0  0  0  0  0  0  0  0  0
   -3.7086   -6.3857   -5.3798 H   0  0  0  0  0  0  0  0  0  0  0  0
   -4.6381   -5.2160   -4.3819 H   0  0  0  0  0  0  0  0  0  0  0  0
   -3.3011   -4.6167   -5.4334 H   0  0  0  0  0  0  0  0  0  0  0  0
   -1.0035    2.8053    0.4613 H   0  0  0  0  0  0  0  0  0  0  0  0
   -0.4633    4.3447   -0.1406 H   0  0  0  0  0  0  0  0  0  0  0  0
   -2.0528    2.4254   -1.9112 H   0  0  0  0  0  0  0  0  0  0  0  0
   -2.6318    3.9334   -1.1157 H   0  0  0  0  0  0  0  0  0  0  0  0
   -1.3565    4.0165   -2.3931 H   0  0  0  0  0  0  0  0  0  0  0  0
   -2.3669   -0.5924    0.1802 H   0  0  0  0  0  0  0  0  0  0  0  0
   -2.1097    1.0999    0.0113 H   0  0  0  0  0  0  0  0  0  0  0  0
    0.3165    0.7577    0.8055 H   0  0  0  0  0  0  0  0  0  0  0  0
   -0.8410   -0.0303    1.9250 H   0  0  0  0  0  0  0  0  0  0  0  0
    0.0517   -1.0310    0.7280 H   0  0  0  0  0  0  0  0  0  0  0  0
   -4.9998   -5.9100   -1.7389 H   0  0  0  0  0  0  0  0  0  0  0  0
   -1.4506   -6.4100    3.3630 H   0  0  0  0  0  0  0  0  0  0  0  0
   -2.0845   -8.0361    6.1744 H   0  0  0  0  0  0  0  0  0  0  0  0
   -1.4408   -9.5003    5.3259 H   0  0  0  0  0  0  0  0  0  0  0  0
   -0.6549   -7.9139    5.0780 H   0  0  0  0  0  0  0  0  0  0  0  0
   -5.3964   -9.3608    2.6310 H   0  0  0  0  0  0  0  0  0  0  0  0
  1  2  2  3
  2  3  1  0
  3  4  2  0
  3  5  1  0
  5  6  2  0
  6  7  1  0
  7  8  1  0
  7  9  2  0
  9 10  1  0
  9 11  1  0
 11 12  2  0
 12 13  1  0
 13 14  2  3
 14 15  1  0
 15 16  3  0
 14 17  1  0
 17 18  3  0
  1 19  1  0
 19 20  2  0
 20 21  1  0
 21 22  1  0
 20 23  1  0
 23 24  1  0
 24 25  1  0
 25 26  1  0
 26 27  1  0
 27 28  1  0
 28 29  2  0
 29 30  1  0
 30 31  1  0
 28 32  1  0
 32 33  1  0
 33 34  1  0
 34 35  1  0
 35 36  1  0
 36 37  1  0
 37 38  1  0
 36 39  2  0
 39 40  1  0
 40 41  1  0
 41 42  1  0
 42 43  1  0
 43 44  1  0
 44 45  1  0
 45 46  1  0
 46 47  1  0
 47 48  1  0
 48 49  1  0
 46 50  1  0
 50 51  1  0
 43 52  1  0
 52 53  1  0
 39 54  1  0
 54 55  2  3
 55 56  1  0
 56 57  2  0
 56 58  1  0
 58 59  2  0
 59 60  1  0
 60 61  1  0
 60 62  2  0
 62 63  1  0
 62 64  1  0
 64 65  2  0
 65 66  1  0
 66 67  2  3
 67 68  1  0
 68 69  3  0
 67 70  1  0
 70 71  3  0
 13  2  1  0
 49 19  1  0
 66 55  1  0
 12  5  1  0
 48 23  2  0
 65 58  1  0
 47 25  2  0
 45 26  2  0
 31 27  2  0
 44 32  2  0
 42 33  2  0
 41 35  2  0
  1 72  1  0
  6 73  1  0
 11 74  1  0
 21 75  1  0
 21 76  1  0
 22 77  1  0
 22 78  1  0
 22 79  1  0
 37 80  1  0
 37 81  1  0
 38 82  1  0
 38 83  1  0
 38 84  1  0
 50 85  1  0
 50 86  1  0
 51 87  1  0
 51 88  1  0
 51 89  1  0
 52 90  1  0
 52 91  1  0
 53 92  1  0
 53 93  1  0
 53 94  1  0
 54 95  1  0
 59 96  1  0
 61 97  1  0
 61 98  1  0
 61 99  1  0
 64100  1  0
M  END

