
     RDKit          3D

 85 95  0  0  0  0  0  0  0  0999 V2000
   -3.9504   -4.2715   -2.0905 C   0  0  0  0  0  0  0  0  0  0  0  0
   -4.7980   -4.9355   -2.8951 C   0  0  0  0  0  0  0  0  0  0  0  0
   -4.5430   -5.3126   -4.2897 C   0  0  0  0  0  0  0  0  0  0  0  0
   -3.5362   -4.9908   -4.9785 O   0  0  0  0  0  0  0  0  0  0  0  0
   -5.5888   -6.2288   -4.7084 C   0  0  0  0  0  0  0  0  0  0  0  0
   -5.7905   -6.7958   -5.9693 C   0  0  0  0  0  0  0  0  0  0  0  0
   -6.9338   -7.5787   -6.1764 C   0  0  0  0  0  0  0  0  0  0  0  0
   -7.1770   -8.0985   -7.4048 F   0  0  0  0  0  0  0  0  0  0  0  0
   -7.8504   -7.7860   -5.1297 C   0  0  0  0  0  0  0  0  0  0  0  0
   -8.9777   -8.5014   -5.3490 F   0  0  0  0  0  0  0  0  0  0  0  0
   -7.6267   -7.2151   -3.8664 C   0  0  0  0  0  0  0  0  0  0  0  0
   -6.4676   -6.4480   -3.6555 C   0  0  0  0  0  0  0  0  0  0  0  0
   -6.0462   -5.6404   -2.4742 C   0  0  0  0  0  0  0  0  0  0  0  0
   -6.7664   -5.4130   -1.3448 C   0  0  0  0  0  0  0  0  0  0  0  0
   -6.5287   -4.2741   -0.4992 C   0  0  0  0  0  0  0  0  0  0  0  0
   -6.3352   -3.3621    0.1886 N   0  0  0  0  0  0  0  0  0  0  0  0
   -7.7962   -6.3061   -0.8931 C   0  0  0  0  0  0  0  0  0  0  0  0
   -8.6160   -7.0290   -0.5112 N   0  0  0  0  0  0  0  0  0  0  0  0
   -2.8401   -3.4187   -2.5455 C   0  0  0  0  0  0  0  0  0  0  0  0
   -2.9681   -2.2632   -3.3510 C   0  0  0  0  0  0  0  0  0  0  0  0
   -4.2539   -1.7952   -3.9907 C   0  0  0  0  0  0  0  0  0  0  0  0
   -5.1646   -1.1317   -2.9635 C   0  0  0  0  0  0  0  0  0  0  0  0
   -1.8436   -1.4367   -3.2252 C   0  0  0  0  0  0  0  0  0  0  0  0
   -1.6275    0.2135   -3.5692 S   0  0  0  0  0  0  0  0  0  0  0  0
   -0.2307    0.2871   -2.6142 C   0  0  0  0  0  0  0  0  0  0  0  0
    0.2853    1.2775   -1.8219 C   0  0  0  0  0  0  0  0  0  0  0  0
   -0.0554    2.6383   -1.7627 C   0  0  0  0  0  0  0  0  0  0  0  0
    0.3369    3.3942   -0.6196 C   0  0  0  0  0  0  0  0  0  0  0  0
   -0.0154    4.7041   -0.5947 N   0  0  0  0  0  0  0  0  0  0  0  0
   -0.8296    4.8002   -2.0348 S   0  0  0  0  0  0  0  0  0  0  0  0
   -0.7708    3.2896   -2.7126 N   0  0  0  0  0  0  0  0  0  0  0  0
    1.0515    2.7568    0.3971 C   0  0  0  0  0  0  0  0  0  0  0  0
    1.7123    3.2735    1.4733 C   0  0  0  0  0  0  0  0  0  0  0  0
    2.0951    4.8211    2.0547 S   0  0  0  0  0  0  0  0  0  0  0  0
    3.3849    4.1855    2.9671 C   0  0  0  0  0  0  0  0  0  0  0  0
    4.3550    4.7795    3.7776 C   0  0  0  0  0  0  0  0  0  0  0  0
    4.3280    6.2400    4.1400 C   0  0  0  0  0  0  0  0  0  0  0  0
    4.8715    7.0957    3.0030 C   0  0  0  0  0  0  0  0  0  0  0  0
    5.3094    3.8219    4.1965 C   0  0  0  0  0  0  0  0  0  0  0  0
    4.8928    2.2938    3.5595 S   0  0  0  0  0  0  0  0  0  0  0  0
    3.5220    2.8351    2.7691 C   0  0  0  0  0  0  0  0  0  0  0  0
    2.5456    2.3054    1.9313 C   0  0  0  0  0  0  0  0  0  0  0  0
    2.4383    1.1435    1.2293 N   0  0  0  0  0  0  0  0  0  0  0  0
    1.4483    1.4143    0.3120 C   0  0  0  0  0  0  0  0  0  0  0  0
    0.9703    0.6289   -0.7811 C   0  0  0  0  0  0  0  0  0  0  0  0
    0.7808   -0.7274   -0.8594 N   0  0  0  0  0  0  0  0  0  0  0  0
    0.0499   -0.8984   -1.9963 C   0  0  0  0  0  0  0  0  0  0  0  0
   -0.8802   -1.8827   -2.3512 C   0  0  0  0  0  0  0  0  0  0  0  0
   -1.3921   -3.3236   -1.6614 S   0  0  0  0  0  0  0  0  0  0  0  0
    0.8149   -1.6835    0.2577 C   0  0  0  0  0  0  0  0  0  0  0  0
    1.7254   -2.8696   -0.0533 C   0  0  0  0  0  0  0  0  0  0  0  0
    3.5166    0.1591    1.0933 C   0  0  0  0  0  0  0  0  0  0  0  0
    3.6215   -0.7512    2.3212 C   0  0  0  0  0  0  0  0  0  0  0  0
    6.4765    4.0280    5.0807 C   0  0  0  0  0  0  0  0  0  0  0  0
    7.3112    5.1442    5.1261 C   0  0  0  0  0  0  0  0  0  0  0  0
    8.3924    5.0045    6.0057 C   0  0  0  0  0  0  0  0  0  0  0  0
    8.4086    3.7836    6.6609 C   0  0  0  0  0  0  0  0  0  0  0  0
    9.4165    3.3643    7.5975 C   0  0  0  0  0  0  0  0  0  0  0  0
   10.2350    3.0340    8.3485 N   0  0  0  0  0  0  0  0  0  0  0  0
    7.1045    2.8651    6.1311 S   0  0  0  0  0  0  0  0  0  0  0  0
   -4.0647   -4.3375   -1.0204 H   0  0  0  0  0  0  0  0  0  0  0  0
   -5.1041   -6.6097   -6.7837 H   0  0  0  0  0  0  0  0  0  0  0  0
   -8.3681   -7.3566   -3.1018 H   0  0  0  0  0  0  0  0  0  0  0  0
   -4.7873   -2.6362   -4.4710 H   0  0  0  0  0  0  0  0  0  0  0  0
   -4.0300   -1.0670   -4.7947 H   0  0  0  0  0  0  0  0  0  0  0  0
   -5.3331   -1.7985   -2.0886 H   0  0  0  0  0  0  0  0  0  0  0  0
   -4.7259   -0.1699   -2.6142 H   0  0  0  0  0  0  0  0  0  0  0  0
   -6.1569   -0.9243   -3.4244 H   0  0  0  0  0  0  0  0  0  0  0  0
    4.9031    6.4318    5.0667 H   0  0  0  0  0  0  0  0  0  0  0  0
    3.2812    6.5557    4.3478 H   0  0  0  0  0  0  0  0  0  0  0  0
    4.2034    7.0306    2.1221 H   0  0  0  0  0  0  0  0  0  0  0  0
    4.9214    8.1567    3.3223 H   0  0  0  0  0  0  0  0  0  0  0  0
    5.8858    6.7656    2.7012 H   0  0  0  0  0  0  0  0  0  0  0  0
    1.1453   -1.1916    1.1844 H   0  0  0  0  0  0  0  0  0  0  0  0
   -0.2117   -2.0419    0.4780 H   0  0  0  0  0  0  0  0  0  0  0  0
    1.6876   -3.5836    0.7990 H   0  0  0  0  0  0  0  0  0  0  0  0
    1.4114   -3.3909   -0.9826 H   0  0  0  0  0  0  0  0  0  0  0  0
    2.7793   -2.5453   -0.1796 H   0  0  0  0  0  0  0  0  0  0  0  0
    3.3560   -0.4453    0.1805 H   0  0  0  0  0  0  0  0  0  0  0  0
    4.4883    0.6876    0.9444 H   0  0  0  0  0  0  0  0  0  0  0  0
    2.6307   -0.9665    2.7680 H   0  0  0  0  0  0  0  0  0  0  0  0
    4.1036   -1.7031    2.0252 H   0  0  0  0  0  0  0  0  0  0  0  0
    4.2542   -0.2934    3.1053 H   0  0  0  0  0  0  0  0  0  0  0  0
    7.1823    6.0221    4.5150 H   0  0  0  0  0  0  0  0  0  0  0  0
    9.1480    5.7639    6.1384 H   0  0  0  0  0  0  0  0  0  0  0  0
  1  2  2  3
  2  3  1  0
  3  4  2  0
  3  5  1  0
  5  6  2  0
  6  7  1  0
  7  8  1  0
  7  9  2  0
  9 10  1  0
  9 11  1  0
 11 12  2  0
 12 13  1  0
 13 14  2  3
 14 15  1  0
 15 16  3  0
 14 17  1  0
 17 18  3  0
  1 19  1  0
 19 20  2  0
 20 21  1  0
 21 22  1  0
 20 23  1  0
 23 24  1  0
 24 25  1  0
 25 26  1  0
 26 27  1  0
 27 28  1  0
 28 29  2  0
 29 30  1  0
 30 31  1  0
 28 32  1  0
 32 33  1  0
 33 34  1  0
 34 35  1  0
 35 36  1  0
 36 37  1  0
 37 38  1  0
 36 39  2  0
 39 40  1  0
 40 41  1  0
 41 42  1  0
 42 43  1  0
 43 44  1  0
 44 45  1  0
 45 46  1  0
 46 47  1  0
 47 48  1  0
 48 49  1  0
 46 50  1  0
 50 51  1  0
 43 52  1  0
 52 53  1  0
 39 54  1  0
 54 55  2  0
 55 56  1  0
 56 57  2  0
 57 58  1  0
 58 59  3  0
 57 60  1  0
 13  2  1  0
 49 19  1  0
 60 54  1  0
 12  5  1  0
 48 23  2  0
 47 25  2  0
 45 26  2  0
 31 27  2  0
 44 32  2  0
 42 33  2  0
 41 35  2  0
  1 61  1  0
  6 62  1  0
 11 63  1  0
 21 64  1  0
 21 65  1  0
 22 66  1  0
 22 67  1  0
 22 68  1  0
 37 69  1  0
 37 70  1  0
 38 71  1  0
 38 72  1  0
 38 73  1  0
 50 74  1  0
 50 75  1  0
 51 76  1  0
 51 77  1  0
 51 78  1  0
 52 79  1  0
 52 80  1  0
 53 81  1  0
 53 82  1  0
 53 83  1  0
 55 84  1  0
 56 85  1  0
M  END

