
     RDKit          3D

 92102  0  0  0  0  0  0  0  0999 V2000
    5.2139   -1.1593   -4.9567 C   0  0  0  0  0  0  0  0  0  0  0  0
    4.5160   -0.4194   -5.8405 C   0  0  0  0  0  0  0  0  0  0  0  0
    3.0693   -0.1612   -5.7885 C   0  0  0  0  0  0  0  0  0  0  0  0
    2.2807   -0.4961   -4.8692 O   0  0  0  0  0  0  0  0  0  0  0  0
    2.6518    0.3978   -7.0550 C   0  0  0  0  0  0  0  0  0  0  0  0
    1.3574    0.7363   -7.4569 C   0  0  0  0  0  0  0  0  0  0  0  0
    1.1670    1.1961   -8.7659 C   0  0  0  0  0  0  0  0  0  0  0  0
   -0.0743    1.5499   -9.1853 F   0  0  0  0  0  0  0  0  0  0  0  0
    2.2569    1.2704   -9.6532 C   0  0  0  0  0  0  0  0  0  0  0  0
    2.0565    1.6861  -10.9259 F   0  0  0  0  0  0  0  0  0  0  0  0
    3.5494    0.9144   -9.2287 C   0  0  0  0  0  0  0  0  0  0  0  0
    3.7414    0.4985   -7.8993 C   0  0  0  0  0  0  0  0  0  0  0  0
    4.9787    0.0766   -7.1754 C   0  0  0  0  0  0  0  0  0  0  0  0
    6.2601    0.3161   -7.5533 C   0  0  0  0  0  0  0  0  0  0  0  0
    7.3834    0.0919   -6.6739 C   0  0  0  0  0  0  0  0  0  0  0  0
    8.2897   -0.0805   -5.9731 N   0  0  0  0  0  0  0  0  0  0  0  0
    6.5966    0.9692   -8.7912 C   0  0  0  0  0  0  0  0  0  0  0  0
    6.8857    1.5088   -9.7765 N   0  0  0  0  0  0  0  0  0  0  0  0
    4.7228   -1.5217   -3.6133 C   0  0  0  0  0  0  0  0  0  0  0  0
    4.7839   -2.8066   -3.0405 C   0  0  0  0  0  0  0  0  0  0  0  0
    5.1691   -4.0589   -3.7792 C   0  0  0  0  0  0  0  0  0  0  0  0
    3.9505   -4.6552   -4.4810 C   0  0  0  0  0  0  0  0  0  0  0  0
    4.2418   -2.7998   -1.7522 C   0  0  0  0  0  0  0  0  0  0  0  0
    3.7693   -4.0434   -0.6899 S   0  0  0  0  0  0  0  0  0  0  0  0
    3.0512   -2.9256    0.3664 C   0  0  0  0  0  0  0  0  0  0  0  0
    2.0073   -2.9838    1.2447 C   0  0  0  0  0  0  0  0  0  0  0  0
    1.2969   -4.0858    1.7429 C   0  0  0  0  0  0  0  0  0  0  0  0
    0.0509   -3.8603    2.4016 C   0  0  0  0  0  0  0  0  0  0  0  0
   -0.6043   -4.9491    2.8748 N   0  0  0  0  0  0  0  0  0  0  0  0
    0.4434   -6.1345    2.3874 S   0  0  0  0  0  0  0  0  0  0  0  0
    1.7001   -5.3731    1.6195 N   0  0  0  0  0  0  0  0  0  0  0  0
   -0.4021   -2.5443    2.5412 C   0  0  0  0  0  0  0  0  0  0  0  0
   -1.4389   -2.0184    3.2533 C   0  0  0  0  0  0  0  0  0  0  0  0
   -2.6627   -2.5537    4.3024 S   0  0  0  0  0  0  0  0  0  0  0  0
   -2.9963   -0.9416    4.7582 C   0  0  0  0  0  0  0  0  0  0  0  0
   -3.9093   -0.3655    5.6417 C   0  0  0  0  0  0  0  0  0  0  0  0
   -4.8824   -1.1540    6.4722 C   0  0  0  0  0  0  0  0  0  0  0  0
   -4.2371   -1.5864    7.7836 C   0  0  0  0  0  0  0  0  0  0  0  0
   -3.7498    1.0330    5.6874 C   0  0  0  0  0  0  0  0  0  0  0  0
   -2.4485    1.5002    4.6822 S   0  0  0  0  0  0  0  0  0  0  0  0
   -2.1431   -0.0550    4.1486 C   0  0  0  0  0  0  0  0  0  0  0  0
   -1.2676   -0.6723    3.2686 C   0  0  0  0  0  0  0  0  0  0  0  0
   -0.1629   -0.2652    2.5898 N   0  0  0  0  0  0  0  0  0  0  0  0
    0.3328   -1.4398    2.0796 C   0  0  0  0  0  0  0  0  0  0  0  0
    1.5128   -1.6731    1.3319 C   0  0  0  0  0  0  0  0  0  0  0  0
    2.1371   -0.8554    0.4228 N   0  0  0  0  0  0  0  0  0  0  0  0
    3.1074   -1.6477   -0.1053 C   0  0  0  0  0  0  0  0  0  0  0  0
    3.8001   -1.5795   -1.3118 C   0  0  0  0  0  0  0  0  0  0  0  0
    4.0448   -0.4200   -2.4979 S   0  0  0  0  0  0  0  0  0  0  0  0
    1.5162    0.2580   -0.3104 C   0  0  0  0  0  0  0  0  0  0  0  0
    0.5874   -0.2555   -1.4115 C   0  0  0  0  0  0  0  0  0  0  0  0
    0.6013    0.9500    2.9053 C   0  0  0  0  0  0  0  0  0  0  0  0
   -0.0897    2.2098    2.3692 C   0  0  0  0  0  0  0  0  0  0  0  0
   -4.4895    1.9434    6.5797 C   0  0  0  0  0  0  0  0  0  0  0  0
   -4.9415    3.1574    6.2309 C   0  0  0  0  0  0  0  0  0  0  0  0
   -5.6542    4.2705    7.4441 S   0  0  0  0  0  0  0  0  0  0  0  0
   -5.5641    5.5862    6.2161 C   0  0  0  0  0  0  0  0  0  0  0  0
   -5.3771    7.1451    6.6969 S   0  0  0  0  0  0  0  0  0  0  0  0
   -5.1995    5.1527    4.9035 N   0  0  0  0  0  0  0  0  0  0  0  0
   -5.2447    5.9786    3.6941 C   0  0  0  0  0  0  0  0  0  0  0  0
   -6.6179    5.8799    3.0333 C   0  0  0  0  0  0  0  0  0  0  0  0
   -4.9263    3.7589    4.8978 C   0  0  0  0  0  0  0  0  0  0  0  0
   -4.7867    3.1076    3.8286 O   0  0  0  0  0  0  0  0  0  0  0  0
    6.1737   -1.5583   -5.2328 H   0  0  0  0  0  0  0  0  0  0  0  0
    0.5197    0.6406   -6.7737 H   0  0  0  0  0  0  0  0  0  0  0  0
    4.3501    0.9416   -9.9469 H   0  0  0  0  0  0  0  0  0  0  0  0
    5.9573   -3.8387   -4.5280 H   0  0  0  0  0  0  0  0  0  0  0  0
    5.5836   -4.8021   -3.0618 H   0  0  0  0  0  0  0  0  0  0  0  0
    3.5266   -3.9272   -5.2092 H   0  0  0  0  0  0  0  0  0  0  0  0
    3.1688   -4.9222   -3.7384 H   0  0  0  0  0  0  0  0  0  0  0  0
    4.2435   -5.5723   -5.0324 H   0  0  0  0  0  0  0  0  0  0  0  0
   -5.2090   -2.0540    5.9104 H   0  0  0  0  0  0  0  0  0  0  0  0
   -5.7878   -0.5461    6.6883 H   0  0  0  0  0  0  0  0  0  0  0  0
   -4.9614   -2.1795    8.3798 H   0  0  0  0  0  0  0  0  0  0  0  0
   -3.3369   -2.2081    7.5833 H   0  0  0  0  0  0  0  0  0  0  0  0
   -3.9393   -0.6950    8.3743 H   0  0  0  0  0  0  0  0  0  0  0  0
    2.2999    0.9113   -0.7420 H   0  0  0  0  0  0  0  0  0  0  0  0
    0.9141    0.8873    0.3508 H   0  0  0  0  0  0  0  0  0  0  0  0
    0.1398    0.6065   -1.9532 H   0  0  0  0  0  0  0  0  0  0  0  0
    1.1441   -0.8800   -2.1379 H   0  0  0  0  0  0  0  0  0  0  0  0
   -0.2280   -0.8658   -0.9701 H   0  0  0  0  0  0  0  0  0  0  0  0
    1.6346    0.8802    2.4981 H   0  0  0  0  0  0  0  0  0  0  0  0
    0.7203    1.0260    4.0094 H   0  0  0  0  0  0  0  0  0  0  0  0
   -0.9764    1.9521    1.7520 H   0  0  0  0  0  0  0  0  0  0  0  0
    0.6187    2.7943    1.7421 H   0  0  0  0  0  0  0  0  0  0  0  0
   -0.4075    2.8689    3.2025 H   0  0  0  0  0  0  0  0  0  0  0  0
   -4.6699    1.5995    7.5901 H   0  0  0  0  0  0  0  0  0  0  0  0
   -4.4665    5.6362    2.9737 H   0  0  0  0  0  0  0  0  0  0  0  0
   -5.0204    7.0418    3.9345 H   0  0  0  0  0  0  0  0  0  0  0  0
   -7.4148    6.1934    3.7455 H   0  0  0  0  0  0  0  0  0  0  0  0
   -6.8116    4.8331    2.7077 H   0  0  0  0  0  0  0  0  0  0  0  0
   -6.6513    6.5455    2.1425 H   0  0  0  0  0  0  0  0  0  0  0  0
  1  2  2  3
  2  3  1  0
  3  4  2  0
  3  5  1  0
  5  6  2  0
  6  7  1  0
  7  8  1  0
  7  9  2  0
  9 10  1  0
  9 11  1  0
 11 12  2  0
 12 13  1  0
 13 14  2  3
 14 15  1  0
 15 16  3  0
 14 17  1  0
 17 18  3  0
  1 19  1  0
 19 20  2  0
 20 21  1  0
 21 22  1  0
 20 23  1  0
 23 24  1  0
 24 25  1  0
 25 26  1  0
 26 27  1  0
 27 28  1  0
 28 29  2  0
 29 30  1  0
 30 31  1  0
 28 32  1  0
 32 33  1  0
 33 34  1  0
 34 35  1  0
 35 36  1  0
 36 37  1  0
 37 38  1  0
 36 39  2  0
 39 40  1  0
 40 41  1  0
 41 42  1  0
 42 43  1  0
 43 44  1  0
 44 45  1  0
 45 46  1  0
 46 47  1  0
 47 48  1  0
 48 49  1  0
 46 50  1  0
 50 51  1  0
 43 52  1  0
 52 53  1  0
 39 54  1  0
 54 55  2  3
 55 56  1  0
 56 57  1  0
 57 58  2  0
 57 59  1  0
 59 60  1  0
 60 61  1  0
 59 62  1  0
 62 63  2  0
 13  2  1  0
 49 19  1  0
 62 55  1  0
 12  5  1  0
 48 23  2  0
 47 25  2  0
 45 26  2  0
 31 27  2  0
 44 32  2  0
 42 33  2  0
 41 35  2  0
  1 64  1  0
  6 65  1  0
 11 66  1  0
 21 67  1  0
 21 68  1  0
 22 69  1  0
 22 70  1  0
 22 71  1  0
 37 72  1  0
 37 73  1  0
 38 74  1  0
 38 75  1  0
 38 76  1  0
 50 77  1  0
 50 78  1  0
 51 79  1  0
 51 80  1  0
 51 81  1  0
 52 82  1  0
 52 83  1  0
 53 84  1  0
 53 85  1  0
 53 86  1  0
 54 87  1  0
 60 88  1  0
 60 89  1  0
 61 90  1  0
 61 91  1  0
 61 92  1  0
M  END

