
     RDKit          3D

 94105  0  0  0  0  0  0  0  0999 V2000
   -5.8138   -4.1779    0.3037 C   0  0  0  0  0  0  0  0  0  0  0  0
   -5.5123   -5.4572    0.5906 C   0  0  0  0  0  0  0  0  0  0  0  0
   -4.2797   -5.9416    1.2229 C   0  0  0  0  0  0  0  0  0  0  0  0
   -3.4475   -5.2569    1.8764 O   0  0  0  0  0  0  0  0  0  0  0  0
   -4.1980   -7.3699    1.0115 C   0  0  0  0  0  0  0  0  0  0  0  0
   -3.1829   -8.2440    1.4042 C   0  0  0  0  0  0  0  0  0  0  0  0
   -3.3204   -9.6061    1.0994 C   0  0  0  0  0  0  0  0  0  0  0  0
   -2.3769  -10.4917    1.5047 F   0  0  0  0  0  0  0  0  0  0  0  0
   -4.4496  -10.0604    0.3932 C   0  0  0  0  0  0  0  0  0  0  0  0
   -4.5838  -11.3780    0.1048 F   0  0  0  0  0  0  0  0  0  0  0  0
   -5.4509   -9.1597    0.0018 C   0  0  0  0  0  0  0  0  0  0  0  0
   -5.3328   -7.8057    0.3474 C   0  0  0  0  0  0  0  0  0  0  0  0
   -6.2684   -6.6657    0.1471 C   0  0  0  0  0  0  0  0  0  0  0  0
   -7.6062   -6.7407   -0.0639 C   0  0  0  0  0  0  0  0  0  0  0  0
   -8.4937   -5.6378    0.2032 C   0  0  0  0  0  0  0  0  0  0  0  0
   -9.2225   -4.7648    0.4299 N   0  0  0  0  0  0  0  0  0  0  0  0
   -8.2624   -7.9623   -0.4581 C   0  0  0  0  0  0  0  0  0  0  0  0
   -8.7978   -8.9409   -0.7762 N   0  0  0  0  0  0  0  0  0  0  0  0
   -5.0121   -3.0266    0.7321 C   0  0  0  0  0  0  0  0  0  0  0  0
   -5.5072   -1.9220    1.4499 C   0  0  0  0  0  0  0  0  0  0  0  0
   -6.9313   -1.7613    1.9028 C   0  0  0  0  0  0  0  0  0  0  0  0
   -7.7523   -1.0129    0.8572 C   0  0  0  0  0  0  0  0  0  0  0  0
   -4.5234   -0.9428    1.5939 C   0  0  0  0  0  0  0  0  0  0  0  0
   -4.5398    0.6428    2.2221 S   0  0  0  0  0  0  0  0  0  0  0  0
   -2.9222    0.8708    1.7510 C   0  0  0  0  0  0  0  0  0  0  0  0
   -2.0707    1.9167    1.5487 C   0  0  0  0  0  0  0  0  0  0  0  0
   -2.2298    3.2956    1.7473 C   0  0  0  0  0  0  0  0  0  0  0  0
   -1.2271    4.1829    1.2461 C   0  0  0  0  0  0  0  0  0  0  0  0
   -1.4095    5.5093    1.4719 N   0  0  0  0  0  0  0  0  0  0  0  0
   -2.8515    5.4609    2.2841 S   0  0  0  0  0  0  0  0  0  0  0  0
   -3.2810    3.8604    2.3900 N   0  0  0  0  0  0  0  0  0  0  0  0
   -0.1127    3.6377    0.5958 C   0  0  0  0  0  0  0  0  0  0  0  0
    1.0824    4.1994    0.2351 C   0  0  0  0  0  0  0  0  0  0  0  0
    1.8508    5.7129    0.3026 S   0  0  0  0  0  0  0  0  0  0  0  0
    3.3560    4.9877   -0.0315 C   0  0  0  0  0  0  0  0  0  0  0  0
    4.6510    5.4887   -0.2199 C   0  0  0  0  0  0  0  0  0  0  0  0
    4.9755    6.9514   -0.3388 C   0  0  0  0  0  0  0  0  0  0  0  0
    4.9175    7.6451    1.0150 C   0  0  0  0  0  0  0  0  0  0  0  0
    5.5654    4.4320   -0.4171 C   0  0  0  0  0  0  0  0  0  0  0  0
    4.7449    2.9436   -0.3982 S   0  0  0  0  0  0  0  0  0  0  0  0
    3.2435    3.6257   -0.1307 C   0  0  0  0  0  0  0  0  0  0  0  0
    1.9349    3.1784   -0.0206 C   0  0  0  0  0  0  0  0  0  0  0  0
    1.3571    1.9549    0.0872 N   0  0  0  0  0  0  0  0  0  0  0  0
    0.0560    2.2511    0.4231 C   0  0  0  0  0  0  0  0  0  0  0  0
   -0.9920    1.3831    0.8269 C   0  0  0  0  0  0  0  0  0  0  0  0
   -1.2303    0.0782    0.4714 N   0  0  0  0  0  0  0  0  0  0  0  0
   -2.3954   -0.2060    1.1089 C   0  0  0  0  0  0  0  0  0  0  0  0
   -3.3206   -1.2387    1.0006 C   0  0  0  0  0  0  0  0  0  0  0  0
   -3.4041   -2.7276    0.2403 S   0  0  0  0  0  0  0  0  0  0  0  0
   -0.8018   -0.5675   -0.7716 C   0  0  0  0  0  0  0  0  0  0  0  0
   -0.1568   -1.9342   -0.5171 C   0  0  0  0  0  0  0  0  0  0  0  0
    2.0869    0.7027    0.3276 C   0  0  0  0  0  0  0  0  0  0  0  0
    2.6977    0.1498   -0.9610 C   0  0  0  0  0  0  0  0  0  0  0  0
    6.9626    4.5281   -0.8514 C   0  0  0  0  0  0  0  0  0  0  0  0
    7.9953    4.4373    0.0065 C   0  0  0  0  0  0  0  0  0  0  0  0
    7.9430    4.7263    1.4575 C   0  0  0  0  0  0  0  0  0  0  0  0
    6.9285    5.0531    2.1385 O   0  0  0  0  0  0  0  0  0  0  0  0
    9.2980    4.6617    1.9539 C   0  0  0  0  0  0  0  0  0  0  0  0
    9.9012    4.8726    3.1931 C   0  0  0  0  0  0  0  0  0  0  0  0
   11.2787    4.6286    3.1268 C   0  0  0  0  0  0  0  0  0  0  0  0
   11.7023    4.1808    1.5322 S   0  0  0  0  0  0  0  0  0  0  0  0
   10.1347    4.3133    0.9453 C   0  0  0  0  0  0  0  0  0  0  0  0
    9.4257    4.1218   -0.3294 C   0  0  0  0  0  0  0  0  0  0  0  0
    9.9337    3.5209   -1.4297 C   0  0  0  0  0  0  0  0  0  0  0  0
    9.0893    2.9915   -2.4715 C   0  0  0  0  0  0  0  0  0  0  0  0
    8.3988    2.5528   -3.2943 N   0  0  0  0  0  0  0  0  0  0  0  0
   11.3354    3.2123   -1.5339 C   0  0  0  0  0  0  0  0  0  0  0  0
   12.4619    2.9553   -1.6190 N   0  0  0  0  0  0  0  0  0  0  0  0
   -6.7010   -3.9487   -0.2629 H   0  0  0  0  0  0  0  0  0  0  0  0
   -2.3149   -7.8851    1.9405 H   0  0  0  0  0  0  0  0  0  0  0  0
   -6.2900   -9.5320   -0.5580 H   0  0  0  0  0  0  0  0  0  0  0  0
   -7.3952   -2.7558    2.0846 H   0  0  0  0  0  0  0  0  0  0  0  0
   -6.9549   -1.2011    2.8611 H   0  0  0  0  0  0  0  0  0  0  0  0
   -8.8099   -0.9458    1.1891 H   0  0  0  0  0  0  0  0  0  0  0  0
   -7.3433    0.0120    0.7192 H   0  0  0  0  0  0  0  0  0  0  0  0
   -7.7203   -1.5438   -0.1154 H   0  0  0  0  0  0  0  0  0  0  0  0
    5.9896    7.0959   -0.7720 H   0  0  0  0  0  0  0  0  0  0  0  0
    4.2460    7.4388   -1.0297 H   0  0  0  0  0  0  0  0  0  0  0  0
    5.7636    7.3211    1.6559 H   0  0  0  0  0  0  0  0  0  0  0  0
    5.0047    8.7460    0.8745 H   0  0  0  0  0  0  0  0  0  0  0  0
    3.9547    7.4357    1.5263 H   0  0  0  0  0  0  0  0  0  0  0  0
   -1.6752   -0.6921   -1.4488 H   0  0  0  0  0  0  0  0  0  0  0  0
   -0.0995    0.0862   -1.3189 H   0  0  0  0  0  0  0  0  0  0  0  0
   -0.8376   -2.7502   -0.8164 H   0  0  0  0  0  0  0  0  0  0  0  0
    0.7522   -2.0410   -1.1402 H   0  0  0  0  0  0  0  0  0  0  0  0
    0.1268   -2.0634    0.5475 H   0  0  0  0  0  0  0  0  0  0  0  0
    2.8924    0.8793    1.0740 H   0  0  0  0  0  0  0  0  0  0  0  0
    1.4168   -0.0532    0.7851 H   0  0  0  0  0  0  0  0  0  0  0  0
    3.6863    0.5868   -1.1488 H   0  0  0  0  0  0  0  0  0  0  0  0
    2.0536    0.3539   -1.8361 H   0  0  0  0  0  0  0  0  0  0  0  0
    2.8455   -0.9495   -0.8665 H   0  0  0  0  0  0  0  0  0  0  0  0
    7.1270    4.4808   -1.9132 H   0  0  0  0  0  0  0  0  0  0  0  0
    9.3790    5.1833    4.0894 H   0  0  0  0  0  0  0  0  0  0  0  0
   11.9634    4.7217    3.9570 H   0  0  0  0  0  0  0  0  0  0  0  0
  1  2  2  3
  2  3  1  0
  3  4  2  0
  3  5  1  0
  5  6  2  0
  6  7  1  0
  7  8  1  0
  7  9  2  0
  9 10  1  0
  9 11  1  0
 11 12  2  0
 12 13  1  0
 13 14  2  3
 14 15  1  0
 15 16  3  0
 14 17  1  0
 17 18  3  0
  1 19  1  0
 19 20  2  0
 20 21  1  0
 21 22  1  0
 20 23  1  0
 23 24  1  0
 24 25  1  0
 25 26  1  0
 26 27  1  0
 27 28  1  0
 28 29  2  0
 29 30  1  0
 30 31  1  0
 28 32  1  0
 32 33  1  0
 33 34  1  0
 34 35  1  0
 35 36  1  0
 36 37  1  0
 37 38  1  0
 36 39  2  0
 39 40  1  0
 40 41  1  0
 41 42  1  0
 42 43  1  0
 43 44  1  0
 44 45  1  0
 45 46  1  0
 46 47  1  0
 47 48  1  0
 48 49  1  0
 46 50  1  0
 50 51  1  0
 43 52  1  0
 52 53  1  0
 39 54  1  0
 54 55  2  3
 55 56  1  0
 56 57  2  0
 56 58  1  0
 58 59  1  0
 59 60  2  0
 60 61  1  0
 61 62  1  0
 62 63  1  0
 63 64  2  3
 64 65  1  0
 65 66  3  0
 64 67  1  0
 67 68  3  0
 13  2  1  0
 49 19  1  0
 63 55  1  0
 12  5  1  0
 48 23  2  0
 62 58  2  0
 47 25  2  0
 45 26  2  0
 31 27  2  0
 44 32  2  0
 42 33  2  0
 41 35  2  0
  1 69  1  0
  6 70  1  0
 11 71  1  0
 21 72  1  0
 21 73  1  0
 22 74  1  0
 22 75  1  0
 22 76  1  0
 37 77  1  0
 37 78  1  0
 38 79  1  0
 38 80  1  0
 38 81  1  0
 50 82  1  0
 50 83  1  0
 51 84  1  0
 51 85  1  0
 51 86  1  0
 52 87  1  0
 52 88  1  0
 53 89  1  0
 53 90  1  0
 53 91  1  0
 54 92  1  0
 59 93  1  0
 60 94  1  0
M  END

