
     RDKit          3D

 84 93  0  0  0  0  0  0  0  0999 V2000
   -2.0999    5.3390   -1.9500 C   0  0  0  0  0  0  0  0  0  0  0  0
   -2.2839    5.0511   -3.2526 C   0  0  0  0  0  0  0  0  0  0  0  0
   -2.2392    3.7075   -3.8448 C   0  0  0  0  0  0  0  0  0  0  0  0
   -2.3014    2.6113   -3.2276 O   0  0  0  0  0  0  0  0  0  0  0  0
   -2.1565    3.8440   -5.2816 C   0  0  0  0  0  0  0  0  0  0  0  0
   -2.0117    2.8321   -6.2320 C   0  0  0  0  0  0  0  0  0  0  0  0
   -1.9112    3.1929   -7.5813 C   0  0  0  0  0  0  0  0  0  0  0  0
   -1.7678    2.2325   -8.5280 F   0  0  0  0  0  0  0  0  0  0  0  0
   -1.9470    4.5468   -7.9561 C   0  0  0  0  0  0  0  0  0  0  0  0
   -1.8339    4.8863   -9.2644 F   0  0  0  0  0  0  0  0  0  0  0  0
   -2.0860    5.5513   -6.9821 C   0  0  0  0  0  0  0  0  0  0  0  0
   -2.2055    5.1851   -5.6282 C   0  0  0  0  0  0  0  0  0  0  0  0
   -2.3837    6.0152   -4.3959 C   0  0  0  0  0  0  0  0  0  0  0  0
   -2.7307    7.3302   -4.3377 C   0  0  0  0  0  0  0  0  0  0  0  0
   -3.1698    7.9645   -3.1225 C   0  0  0  0  0  0  0  0  0  0  0  0
   -3.5288    8.4787   -2.1487 N   0  0  0  0  0  0  0  0  0  0  0  0
   -2.7857    8.1752   -5.5012 C   0  0  0  0  0  0  0  0  0  0  0  0
   -2.8278    8.8700   -6.4283 N   0  0  0  0  0  0  0  0  0  0  0  0
   -1.8814    4.3163   -0.9181 C   0  0  0  0  0  0  0  0  0  0  0  0
   -2.7361    4.0656    0.1672 C   0  0  0  0  0  0  0  0  0  0  0  0
   -4.0271    4.7866    0.4275 C   0  0  0  0  0  0  0  0  0  0  0  0
   -3.7842    6.0513    1.2445 C   0  0  0  0  0  0  0  0  0  0  0  0
   -2.2092    3.0722    0.9940 C   0  0  0  0  0  0  0  0  0  0  0  0
   -2.8155    2.2566    2.3627 S   0  0  0  0  0  0  0  0  0  0  0  0
   -1.4300    1.2777    2.4140 C   0  0  0  0  0  0  0  0  0  0  0  0
   -1.0401    0.1127    3.0019 C   0  0  0  0  0  0  0  0  0  0  0  0
   -1.7372   -0.7273    3.8731 C   0  0  0  0  0  0  0  0  0  0  0  0
   -1.2076   -2.0166    4.1487 C   0  0  0  0  0  0  0  0  0  0  0  0
   -1.9179   -2.8104    4.9875 N   0  0  0  0  0  0  0  0  0  0  0  0
   -3.1966   -1.8065    5.3028 S   0  0  0  0  0  0  0  0  0  0  0  0
   -2.9220   -0.4121    4.4521 N   0  0  0  0  0  0  0  0  0  0  0  0
    0.0072   -2.3795    3.5650 C   0  0  0  0  0  0  0  0  0  0  0  0
    0.7718   -3.4938    3.7322 C   0  0  0  0  0  0  0  0  0  0  0  0
    0.7275   -4.9770    4.5575 S   0  0  0  0  0  0  0  0  0  0  0  0
    2.3066   -5.3419    4.0199 C   0  0  0  0  0  0  0  0  0  0  0  0
    3.1321   -6.4591    4.1660 C   0  0  0  0  0  0  0  0  0  0  0  0
    2.6922   -7.7403    4.8224 C   0  0  0  0  0  0  0  0  0  0  0  0
    2.0256   -8.6624    3.8071 C   0  0  0  0  0  0  0  0  0  0  0  0
    4.3426   -6.2744    3.4645 C   0  0  0  0  0  0  0  0  0  0  0  0
    4.3409   -4.7600    2.6766 S   0  0  0  0  0  0  0  0  0  0  0  0
    2.8268   -4.3293    3.2512 C   0  0  0  0  0  0  0  0  0  0  0  0
    1.9361   -3.2772    3.0829 C   0  0  0  0  0  0  0  0  0  0  0  0
    1.9949   -2.0603    2.4835 N   0  0  0  0  0  0  0  0  0  0  0  0
    0.7482   -1.5196    2.7294 C   0  0  0  0  0  0  0  0  0  0  0  0
    0.1594   -0.2668    2.3638 C   0  0  0  0  0  0  0  0  0  0  0  0
    0.4344    0.6053    1.3298 N   0  0  0  0  0  0  0  0  0  0  0  0
   -0.5504    1.5374    1.4207 C   0  0  0  0  0  0  0  0  0  0  0  0
   -0.9978    2.5632    0.5944 C   0  0  0  0  0  0  0  0  0  0  0  0
   -0.4990    3.3217   -0.8176 S   0  0  0  0  0  0  0  0  0  0  0  0
    1.3010    0.4391    0.1560 C   0  0  0  0  0  0  0  0  0  0  0  0
    0.9481   -0.8220   -0.6305 C   0  0  0  0  0  0  0  0  0  0  0  0
    3.2514   -1.4098    2.0884 C   0  0  0  0  0  0  0  0  0  0  0  0
    3.5177   -0.1477    2.9101 C   0  0  0  0  0  0  0  0  0  0  0  0
    5.4309   -7.2621    3.3219 C   0  0  0  0  0  0  0  0  0  0  0  0
    6.1878   -7.6487    4.3713 C   0  0  0  0  0  0  0  0  0  0  0  0
    7.2499   -8.6143    4.2200 C   0  0  0  0  0  0  0  0  0  0  0  0
    8.1009   -9.3892    4.1003 N   0  0  0  0  0  0  0  0  0  0  0  0
    6.0039   -7.0800    5.6852 C   0  0  0  0  0  0  0  0  0  0  0  0
    5.8551   -6.6237    6.7380 N   0  0  0  0  0  0  0  0  0  0  0  0
    5.6951   -7.7579    1.9896 C   0  0  0  0  0  0  0  0  0  0  0  0
    5.9063   -8.1531    0.9236 N   0  0  0  0  0  0  0  0  0  0  0  0
   -2.0625    6.3562   -1.6039 H   0  0  0  0  0  0  0  0  0  0  0  0
   -1.9701    1.7908   -5.9372 H   0  0  0  0  0  0  0  0  0  0  0  0
   -2.0770    6.5750   -7.3096 H   0  0  0  0  0  0  0  0  0  0  0  0
   -4.7253    4.1216    0.9788 H   0  0  0  0  0  0  0  0  0  0  0  0
   -4.5091    5.0546   -0.5378 H   0  0  0  0  0  0  0  0  0  0  0  0
   -4.7512    6.5616    1.4376 H   0  0  0  0  0  0  0  0  0  0  0  0
   -3.1249    6.7511    0.6906 H   0  0  0  0  0  0  0  0  0  0  0  0
   -3.3120    5.7938    2.2182 H   0  0  0  0  0  0  0  0  0  0  0  0
    1.9748   -7.5156    5.6401 H   0  0  0  0  0  0  0  0  0  0  0  0
    3.5580   -8.2655    5.2734 H   0  0  0  0  0  0  0  0  0  0  0  0
    2.7406   -8.9246    2.9972 H   0  0  0  0  0  0  0  0  0  0  0  0
    1.1348   -8.1679    3.3616 H   0  0  0  0  0  0  0  0  0  0  0  0
    1.7000   -9.5979    4.3092 H   0  0  0  0  0  0  0  0  0  0  0  0
    2.3610    0.5031    0.4345 H   0  0  0  0  0  0  0  0  0  0  0  0
    1.1832    1.2918   -0.5362 H   0  0  0  0  0  0  0  0  0  0  0  0
   -0.1205   -0.7919   -0.9330 H   0  0  0  0  0  0  0  0  0  0  0  0
    1.1247   -1.7354   -0.0299 H   0  0  0  0  0  0  0  0  0  0  0  0
    1.5731   -0.8750   -1.5460 H   0  0  0  0  0  0  0  0  0  0  0  0
    4.1055   -2.0827    2.2853 H   0  0  0  0  0  0  0  0  0  0  0  0
    3.2920   -1.2529    0.9988 H   0  0  0  0  0  0  0  0  0  0  0  0
    4.4934    0.2902    2.6155 H   0  0  0  0  0  0  0  0  0  0  0  0
    3.5543   -0.4030    3.9910 H   0  0  0  0  0  0  0  0  0  0  0  0
    2.7329    0.6158    2.7542 H   0  0  0  0  0  0  0  0  0  0  0  0
  1  2  2  3
  2  3  1  0
  3  4  2  0
  3  5  1  0
  5  6  2  0
  6  7  1  0
  7  8  1  0
  7  9  2  0
  9 10  1  0
  9 11  1  0
 11 12  2  0
 12 13  1  0
 13 14  2  3
 14 15  1  0
 15 16  3  0
 14 17  1  0
 17 18  3  0
  1 19  1  0
 19 20  2  0
 20 21  1  0
 21 22  1  0
 20 23  1  0
 23 24  1  0
 24 25  1  0
 25 26  1  0
 26 27  1  0
 27 28  1  0
 28 29  2  0
 29 30  1  0
 30 31  1  0
 28 32  1  0
 32 33  1  0
 33 34  1  0
 34 35  1  0
 35 36  1  0
 36 37  1  0
 37 38  1  0
 36 39  2  0
 39 40  1  0
 40 41  1  0
 41 42  1  0
 42 43  1  0
 43 44  1  0
 44 45  1  0
 45 46  1  0
 46 47  1  0
 47 48  1  0
 48 49  1  0
 46 50  1  0
 50 51  1  0
 43 52  1  0
 52 53  1  0
 39 54  1  0
 54 55  2  3
 55 56  1  0
 56 57  3  0
 55 58  1  0
 58 59  3  0
 54 60  1  0
 60 61  3  0
 13  2  1  0
 49 19  1  0
 12  5  1  0
 48 23  2  0
 47 25  2  0
 45 26  2  0
 31 27  2  0
 44 32  2  0
 42 33  2  0
 41 35  2  0
  1 62  1  0
  6 63  1  0
 11 64  1  0
 21 65  1  0
 21 66  1  0
 22 67  1  0
 22 68  1  0
 22 69  1  0
 37 70  1  0
 37 71  1  0
 38 72  1  0
 38 73  1  0
 38 74  1  0
 50 75  1  0
 50 76  1  0
 51 77  1  0
 51 78  1  0
 51 79  1  0
 52 80  1  0
 52 81  1  0
 53 82  1  0
 53 83  1  0
 53 84  1  0
M  END

