
     RDKit          3D

103115  0  0  0  0  0  0  0  0999 V2000
    3.9379    3.3247   -6.1547 C   0  0  0  0  0  0  0  0  0  0  0  0
    3.9560    4.3005   -7.0781 C   0  0  0  0  0  0  0  0  0  0  0  0
    3.3385    5.6236   -6.9262 C   0  0  0  0  0  0  0  0  0  0  0  0
    2.3714    5.9125   -6.1708 O   0  0  0  0  0  0  0  0  0  0  0  0
    4.0214    6.5454   -7.8088 C   0  0  0  0  0  0  0  0  0  0  0  0
    3.8881    7.9325   -7.8822 C   0  0  0  0  0  0  0  0  0  0  0  0
    4.7428    8.6443   -8.7358 C   0  0  0  0  0  0  0  0  0  0  0  0
    4.6479    9.9963   -8.8169 F   0  0  0  0  0  0  0  0  0  0  0  0
    5.7227    7.9629   -9.4809 C   0  0  0  0  0  0  0  0  0  0  0  0
    6.5633    8.6616  -10.2816 F   0  0  0  0  0  0  0  0  0  0  0  0
    5.8352    6.5655   -9.4017 C   0  0  0  0  0  0  0  0  0  0  0  0
    4.9588    5.8570   -8.5617 C   0  0  0  0  0  0  0  0  0  0  0  0
    4.8805    4.4006   -8.2468 C   0  0  0  0  0  0  0  0  0  0  0  0
    5.3619    3.3730   -8.9938 C   0  0  0  0  0  0  0  0  0  0  0  0
    6.2006    3.5725  -10.1478 C   0  0  0  0  0  0  0  0  0  0  0  0
    6.8870    3.7117  -11.0701 N   0  0  0  0  0  0  0  0  0  0  0  0
    4.9871    2.0073   -8.7434 C   0  0  0  0  0  0  0  0  0  0  0  0
    4.6935    0.9053   -8.5513 N   0  0  0  0  0  0  0  0  0  0  0  0
    3.3103    3.4797   -4.8346 C   0  0  0  0  0  0  0  0  0  0  0  0
    3.7616    4.3267   -3.8013 C   0  0  0  0  0  0  0  0  0  0  0  0
    4.9703    5.2272   -3.8693 C   0  0  0  0  0  0  0  0  0  0  0  0
    4.6045    6.6950   -3.6686 C   0  0  0  0  0  0  0  0  0  0  0  0
    3.0700    4.0676   -2.6152 C   0  0  0  0  0  0  0  0  0  0  0  0
    3.3694    4.5181   -1.0065 S   0  0  0  0  0  0  0  0  0  0  0  0
    2.1885    3.4416   -0.4390 C   0  0  0  0  0  0  0  0  0  0  0  0
    2.0407    2.7348    0.7188 C   0  0  0  0  0  0  0  0  0  0  0  0
    2.8194    2.7954    1.8803 C   0  0  0  0  0  0  0  0  0  0  0  0
    2.7793    1.7015    2.7868 C   0  0  0  0  0  0  0  0  0  0  0  0
    3.5742    1.7790    3.8783 N   0  0  0  0  0  0  0  0  0  0  0  0
    4.2931    3.2452    3.6068 S   0  0  0  0  0  0  0  0  0  0  0  0
    3.6661    3.8120    2.1843 N   0  0  0  0  0  0  0  0  0  0  0  0
    1.9370    0.6241    2.5037 C   0  0  0  0  0  0  0  0  0  0  0  0
    1.5841   -0.4519    3.2575 C   0  0  0  0  0  0  0  0  0  0  0  0
    1.9031   -1.0498    4.8062 S   0  0  0  0  0  0  0  0  0  0  0  0
    0.6010   -2.1355    4.6648 C   0  0  0  0  0  0  0  0  0  0  0  0
    0.0743   -3.0850    5.5368 C   0  0  0  0  0  0  0  0  0  0  0  0
    0.6799   -3.4333    6.8681 C   0  0  0  0  0  0  0  0  0  0  0  0
    1.7874   -4.4645    6.6952 C   0  0  0  0  0  0  0  0  0  0  0  0
   -1.0887   -3.6671    4.9987 C   0  0  0  0  0  0  0  0  0  0  0  0
   -1.3952   -3.0187    3.4446 S   0  0  0  0  0  0  0  0  0  0  0  0
   -0.0668   -1.9915    3.4754 C   0  0  0  0  0  0  0  0  0  0  0  0
    0.5254   -1.0393    2.6522 C   0  0  0  0  0  0  0  0  0  0  0  0
    0.1817   -0.4253    1.4896 N   0  0  0  0  0  0  0  0  0  0  0  0
    1.1164    0.5807    1.3711 C   0  0  0  0  0  0  0  0  0  0  0  0
    1.2571    1.6094    0.3936 C   0  0  0  0  0  0  0  0  0  0  0  0
    1.0557    1.5556   -0.9673 N   0  0  0  0  0  0  0  0  0  0  0  0
    1.6244    2.7041   -1.4324 C   0  0  0  0  0  0  0  0  0  0  0  0
    2.1345    3.0639   -2.6832 C   0  0  0  0  0  0  0  0  0  0  0  0
    2.1361    2.4087   -4.2303 S   0  0  0  0  0  0  0  0  0  0  0  0
    0.8540    0.3548   -1.7878 C   0  0  0  0  0  0  0  0  0  0  0  0
    2.0868   -0.5486   -1.7672 C   0  0  0  0  0  0  0  0  0  0  0  0
   -1.1453   -0.4981    0.8666 C   0  0  0  0  0  0  0  0  0  0  0  0
   -1.3262   -1.8109    0.0994 C   0  0  0  0  0  0  0  0  0  0  0  0
   -1.8250   -4.7765    5.6329 C   0  0  0  0  0  0  0  0  0  0  0  0
   -3.1604   -4.9414    5.6379 C   0  0  0  0  0  0  0  0  0  0  0  0
   -3.7884   -6.2191    5.9689 C   0  0  0  0  0  0  0  0  0  0  0  0
   -3.2174   -7.2095    6.4996 O   0  0  0  0  0  0  0  0  0  0  0  0
   -5.1681   -6.1761    5.5427 C   0  0  0  0  0  0  0  0  0  0  0  0
   -6.1291   -7.1819    5.6355 C   0  0  0  0  0  0  0  0  0  0  0  0
   -7.4245   -6.9240    5.1569 C   0  0  0  0  0  0  0  0  0  0  0  0
   -8.4286   -7.8988    5.2659 C   0  0  0  0  0  0  0  0  0  0  0  0
   -9.7149   -7.6343    4.7813 C   0  0  0  0  0  0  0  0  0  0  0  0
  -10.0048   -6.4041    4.1847 C   0  0  0  0  0  0  0  0  0  0  0  0
   -9.0134   -5.4230    4.0690 C   0  0  0  0  0  0  0  0  0  0  0  0
   -7.7205   -5.6658    4.5584 C   0  0  0  0  0  0  0  0  0  0  0  0
   -6.7237   -4.6683    4.4754 C   0  0  0  0  0  0  0  0  0  0  0  0
   -5.4438   -4.9315    4.9999 C   0  0  0  0  0  0  0  0  0  0  0  0
   -4.2517   -4.0403    5.1568 C   0  0  0  0  0  0  0  0  0  0  0  0
   -4.2936   -2.6919    5.3065 C   0  0  0  0  0  0  0  0  0  0  0  0
   -3.2930   -1.9825    6.0658 C   0  0  0  0  0  0  0  0  0  0  0  0
   -2.5047   -1.4113    6.6929 N   0  0  0  0  0  0  0  0  0  0  0  0
   -5.4275   -1.8983    4.9060 C   0  0  0  0  0  0  0  0  0  0  0  0
   -6.3322   -1.2499    4.5792 N   0  0  0  0  0  0  0  0  0  0  0  0
    4.5172    2.4265   -6.2915 H   0  0  0  0  0  0  0  0  0  0  0  0
    3.1530    8.4445   -7.2822 H   0  0  0  0  0  0  0  0  0  0  0  0
    6.6263    6.0780   -9.9504 H   0  0  0  0  0  0  0  0  0  0  0  0
    5.4869    5.1220   -4.8439 H   0  0  0  0  0  0  0  0  0  0  0  0
    5.6868    4.9149   -3.0794 H   0  0  0  0  0  0  0  0  0  0  0  0
    4.0456    6.8371   -2.7227 H   0  0  0  0  0  0  0  0  0  0  0  0
    5.5348    7.3023   -3.6285 H   0  0  0  0  0  0  0  0  0  0  0  0
    3.9834    7.0635   -4.5094 H   0  0  0  0  0  0  0  0  0  0  0  0
    1.1069   -2.5176    7.3384 H   0  0  0  0  0  0  0  0  0  0  0  0
   -0.0975   -3.8340    7.5574 H   0  0  0  0  0  0  0  0  0  0  0  0
    2.5750   -4.0709    6.0180 H   0  0  0  0  0  0  0  0  0  0  0  0
    2.2488   -4.6772    7.6813 H   0  0  0  0  0  0  0  0  0  0  0  0
    1.3798   -5.4118    6.2780 H   0  0  0  0  0  0  0  0  0  0  0  0
    0.6236    0.6398   -2.8297 H   0  0  0  0  0  0  0  0  0  0  0  0
   -0.0282   -0.1991   -1.4646 H   0  0  0  0  0  0  0  0  0  0  0  0
    1.8625   -1.4753   -2.3328 H   0  0  0  0  0  0  0  0  0  0  0  0
    2.3516   -0.8180   -0.7221 H   0  0  0  0  0  0  0  0  0  0  0  0
    2.9453   -0.0331   -2.2497 H   0  0  0  0  0  0  0  0  0  0  0  0
   -1.9261   -0.4233    1.6497 H   0  0  0  0  0  0  0  0  0  0  0  0
   -1.3112    0.3730    0.1949 H   0  0  0  0  0  0  0  0  0  0  0  0
   -2.0724   -1.6738   -0.7219 H   0  0  0  0  0  0  0  0  0  0  0  0
   -1.7052   -2.6137    0.7661 H   0  0  0  0  0  0  0  0  0  0  0  0
   -0.3592   -2.1458   -0.3431 H   0  0  0  0  0  0  0  0  0  0  0  0
   -1.2162   -5.5546    6.0778 H   0  0  0  0  0  0  0  0  0  0  0  0
   -5.8731   -8.1349    6.0735 H   0  0  0  0  0  0  0  0  0  0  0  0
   -8.2169   -8.8616    5.7235 H   0  0  0  0  0  0  0  0  0  0  0  0
  -10.4897   -8.3836    4.8789 H   0  0  0  0  0  0  0  0  0  0  0  0
  -11.0064   -6.2096    3.8177 H   0  0  0  0  0  0  0  0  0  0  0  0
   -9.2575   -4.4734    3.6043 H   0  0  0  0  0  0  0  0  0  0  0  0
   -6.9539   -3.7316    3.9912 H   0  0  0  0  0  0  0  0  0  0  0  0
  1  2  2  3
  2  3  1  0
  3  4  2  0
  3  5  1  0
  5  6  2  0
  6  7  1  0
  7  8  1  0
  7  9  2  0
  9 10  1  0
  9 11  1  0
 11 12  2  0
 12 13  1  0
 13 14  2  3
 14 15  1  0
 15 16  3  0
 14 17  1  0
 17 18  3  0
  1 19  1  0
 19 20  2  0
 20 21  1  0
 21 22  1  0
 20 23  1  0
 23 24  1  0
 24 25  1  0
 25 26  1  0
 26 27  1  0
 27 28  1  0
 28 29  2  0
 29 30  1  0
 30 31  1  0
 28 32  1  0
 32 33  1  0
 33 34  1  0
 34 35  1  0
 35 36  1  0
 36 37  1  0
 37 38  1  0
 36 39  2  0
 39 40  1  0
 40 41  1  0
 41 42  1  0
 42 43  1  0
 43 44  1  0
 44 45  1  0
 45 46  1  0
 46 47  1  0
 47 48  1  0
 48 49  1  0
 46 50  1  0
 50 51  1  0
 43 52  1  0
 52 53  1  0
 39 54  1  0
 54 55  2  3
 55 56  1  0
 56 57  2  0
 56 58  1  0
 58 59  2  0
 59 60  1  0
 60 61  2  0
 61 62  1  0
 62 63  2  0
 63 64  1  0
 64 65  2  0
 65 66  1  0
 66 67  2  0
 67 68  1  0
 68 69  2  3
 69 70  1  0
 70 71  3  0
 69 72  1  0
 72 73  3  0
 13  2  1  0
 49 19  1  0
 68 55  1  0
 12  5  1  0
 48 23  2  0
 67 58  1  0
 47 25  2  0
 65 60  1  0
 45 26  2  0
 31 27  2  0
 44 32  2  0
 42 33  2  0
 41 35  2  0
  1 74  1  0
  6 75  1  0
 11 76  1  0
 21 77  1  0
 21 78  1  0
 22 79  1  0
 22 80  1  0
 22 81  1  0
 37 82  1  0
 37 83  1  0
 38 84  1  0
 38 85  1  0
 38 86  1  0
 50 87  1  0
 50 88  1  0
 51 89  1  0
 51 90  1  0
 51 91  1  0
 52 92  1  0
 52 93  1  0
 53 94  1  0
 53 95  1  0
 53 96  1  0
 54 97  1  0
 59 98  1  0
 61 99  1  0
 62100  1  0
 63101  1  0
 64102  1  0
 66103  1  0
M  END

