
     RDKit          3D

100112  0  0  0  0  0  0  0  0999 V2000
   -1.1351    6.6060    3.4032 C   0  0  0  0  0  0  0  0  0  0  0  0
   -2.4119    6.4287    3.8017 C   0  0  0  0  0  0  0  0  0  0  0  0
   -3.0066    5.1459    4.2029 C   0  0  0  0  0  0  0  0  0  0  0  0
   -2.4947    4.0039    4.0802 O   0  0  0  0  0  0  0  0  0  0  0  0
   -4.2289    5.4229    4.9255 C   0  0  0  0  0  0  0  0  0  0  0  0
   -5.0864    4.5035    5.5269 C   0  0  0  0  0  0  0  0  0  0  0  0
   -6.2134    4.9809    6.2039 C   0  0  0  0  0  0  0  0  0  0  0  0
   -7.0666    4.1061    6.7979 F   0  0  0  0  0  0  0  0  0  0  0  0
   -6.4551    6.3663    6.2802 C   0  0  0  0  0  0  0  0  0  0  0  0
   -7.5437    6.8231    6.9444 F   0  0  0  0  0  0  0  0  0  0  0  0
   -5.5718    7.2790    5.6748 C   0  0  0  0  0  0  0  0  0  0  0  0
   -4.4458    6.7881    4.9919 C   0  0  0  0  0  0  0  0  0  0  0  0
   -3.3620    7.4945    4.2407 C   0  0  0  0  0  0  0  0  0  0  0  0
   -3.3297    8.8030    3.8809 C   0  0  0  0  0  0  0  0  0  0  0  0
   -2.4280    9.3036    2.8780 C   0  0  0  0  0  0  0  0  0  0  0  0
   -1.7113    9.7226    2.0688 N   0  0  0  0  0  0  0  0  0  0  0  0
   -4.2579    9.7764    4.3891 C   0  0  0  0  0  0  0  0  0  0  0  0
   -4.9932   10.5786    4.7869 N   0  0  0  0  0  0  0  0  0  0  0  0
   -0.2440    5.5077    3.0042 C   0  0  0  0  0  0  0  0  0  0  0  0
    1.0436    5.2793    3.5227 C   0  0  0  0  0  0  0  0  0  0  0  0
    1.7033    6.1006    4.5974 C   0  0  0  0  0  0  0  0  0  0  0  0
    2.4780    7.2651    3.9932 C   0  0  0  0  0  0  0  0  0  0  0  0
    1.6439    4.1920    2.8898 C   0  0  0  0  0  0  0  0  0  0  0  0
    3.0979    3.3483    3.1696 S   0  0  0  0  0  0  0  0  0  0  0  0
    2.7117    2.2319    1.9534 C   0  0  0  0  0  0  0  0  0  0  0  0
    3.1177    0.9895    1.5670 C   0  0  0  0  0  0  0  0  0  0  0  0
    4.1308    0.1803    2.0890 C   0  0  0  0  0  0  0  0  0  0  0  0
    4.1956   -1.1786    1.6759 C   0  0  0  0  0  0  0  0  0  0  0  0
    5.1825   -1.9381    2.2139 N   0  0  0  0  0  0  0  0  0  0  0  0
    5.8957   -0.8133    3.1989 S   0  0  0  0  0  0  0  0  0  0  0  0
    5.0430    0.5954    3.0040 N   0  0  0  0  0  0  0  0  0  0  0  0
    3.2682   -1.6390    0.7371 C   0  0  0  0  0  0  0  0  0  0  0  0
    3.1879   -2.8337    0.0862 C   0  0  0  0  0  0  0  0  0  0  0  0
    4.0108   -4.3188    0.0384 S   0  0  0  0  0  0  0  0  0  0  0  0
    3.0494   -4.8147   -1.2853 C   0  0  0  0  0  0  0  0  0  0  0  0
    3.0020   -5.9909   -2.0348 C   0  0  0  0  0  0  0  0  0  0  0  0
    3.8677   -7.1949   -1.7568 C   0  0  0  0  0  0  0  0  0  0  0  0
    3.1126   -8.2260   -0.9283 C   0  0  0  0  0  0  0  0  0  0  0  0
    2.0023   -5.9189   -3.0244 C   0  0  0  0  0  0  0  0  0  0  0  0
    1.2571   -4.3773   -2.9805 S   0  0  0  0  0  0  0  0  0  0  0  0
    2.1628   -3.8391   -1.6729 C   0  0  0  0  0  0  0  0  0  0  0  0
    2.2463   -2.7025   -0.8770 C   0  0  0  0  0  0  0  0  0  0  0  0
    1.6838   -1.4644   -0.9044 N   0  0  0  0  0  0  0  0  0  0  0  0
    2.2822   -0.8140    0.1581 C   0  0  0  0  0  0  0  0  0  0  0  0
    2.1419    0.5190    0.6627 C   0  0  0  0  0  0  0  0  0  0  0  0
    1.0991    1.4262    0.5886 N   0  0  0  0  0  0  0  0  0  0  0  0
    1.5085    2.4598    1.3764 C   0  0  0  0  0  0  0  0  0  0  0  0
    0.8857    3.5847    1.9188 C   0  0  0  0  0  0  0  0  0  0  0  0
   -0.5893    4.3762    1.7754 S   0  0  0  0  0  0  0  0  0  0  0  0
   -0.2850    1.2457    0.1275 C   0  0  0  0  0  0  0  0  0  0  0  0
   -0.9726    0.0823    0.8446 C   0  0  0  0  0  0  0  0  0  0  0  0
    0.9169   -0.9356   -2.0422 C   0  0  0  0  0  0  0  0  0  0  0  0
    1.6227    0.2477   -2.7042 C   0  0  0  0  0  0  0  0  0  0  0  0
    1.7338   -6.9711   -4.0253 C   0  0  0  0  0  0  0  0  0  0  0  0
    0.5546   -7.1912   -4.6336 C   0  0  0  0  0  0  0  0  0  0  0  0
    0.4516   -7.8598   -5.9314 C   0  0  0  0  0  0  0  0  0  0  0  0
    1.3544   -8.5387   -6.4873 O   0  0  0  0  0  0  0  0  0  0  0  0
   -0.8216   -7.5161   -6.5258 C   0  0  0  0  0  0  0  0  0  0  0  0
   -1.2829   -7.8086   -7.8165 C   0  0  0  0  0  0  0  0  0  0  0  0
   -2.5111   -7.2537   -8.1945 C   0  0  0  0  0  0  0  0  0  0  0  0
   -3.1434   -7.4199   -9.4291 C   0  0  0  0  0  0  0  0  0  0  0  0
   -4.3446   -6.7247   -9.5106 C   0  0  0  0  0  0  0  0  0  0  0  0
   -5.5175   -6.7097  -11.0177 Br  0  0  0  0  0  0  0  0  0  0  0  0
   -4.6229   -5.9073   -8.0588 S   0  0  0  0  0  0  0  0  0  0  0  0
   -3.2158   -6.4316   -7.3170 C   0  0  0  0  0  0  0  0  0  0  0  0
   -2.7553   -6.1311   -6.0334 C   0  0  0  0  0  0  0  0  0  0  0  0
   -1.5400   -6.7196   -5.6366 C   0  0  0  0  0  0  0  0  0  0  0  0
   -0.7895   -6.6136   -4.3526 C   0  0  0  0  0  0  0  0  0  0  0  0
   -1.3486   -6.4720   -3.1283 C   0  0  0  0  0  0  0  0  0  0  0  0
   -2.7322   -6.1126   -2.9552 C   0  0  0  0  0  0  0  0  0  0  0  0
   -3.8498   -5.8317   -2.8129 N   0  0  0  0  0  0  0  0  0  0  0  0
   -0.6551   -6.8529   -1.9198 C   0  0  0  0  0  0  0  0  0  0  0  0
   -0.1184   -7.1621   -0.9431 N   0  0  0  0  0  0  0  0  0  0  0  0
   -0.6836    7.5862    3.4411 H   0  0  0  0  0  0  0  0  0  0  0  0
   -4.8845    3.4410    5.4688 H   0  0  0  0  0  0  0  0  0  0  0  0
   -5.7832    8.3236    5.7608 H   0  0  0  0  0  0  0  0  0  0  0  0
    0.9401    6.4947    5.2974 H   0  0  0  0  0  0  0  0  0  0  0  0
    2.4028    5.4646    5.1779 H   0  0  0  0  0  0  0  0  0  0  0  0
    1.8075    7.9192    3.3981 H   0  0  0  0  0  0  0  0  0  0  0  0
    3.2829    6.8778    3.3372 H   0  0  0  0  0  0  0  0  0  0  0  0
    2.9426    7.8651    4.8037 H   0  0  0  0  0  0  0  0  0  0  0  0
    4.2085   -7.6627   -2.7052 H   0  0  0  0  0  0  0  0  0  0  0  0
    4.7808   -6.8838   -1.2027 H   0  0  0  0  0  0  0  0  0  0  0  0
    3.8055   -9.0507   -0.6572 H   0  0  0  0  0  0  0  0  0  0  0  0
    2.2544   -8.6417   -1.5091 H   0  0  0  0  0  0  0  0  0  0  0  0
    2.7300   -7.7570    0.0030 H   0  0  0  0  0  0  0  0  0  0  0  0
   -0.3327    1.1750   -0.9674 H   0  0  0  0  0  0  0  0  0  0  0  0
   -0.8843    2.1535    0.3339 H   0  0  0  0  0  0  0  0  0  0  0  0
   -0.4459   -0.8743    0.6786 H   0  0  0  0  0  0  0  0  0  0  0  0
   -2.0080   -0.0266    0.4629 H   0  0  0  0  0  0  0  0  0  0  0  0
   -1.0149    0.2815    1.9383 H   0  0  0  0  0  0  0  0  0  0  0  0
   -0.1295   -0.7290   -1.7628 H   0  0  0  0  0  0  0  0  0  0  0  0
    0.8281   -1.7086   -2.8247 H   0  0  0  0  0  0  0  0  0  0  0  0
    2.6081   -0.0780   -3.1077 H   0  0  0  0  0  0  0  0  0  0  0  0
    1.0073    0.6290   -3.5446 H   0  0  0  0  0  0  0  0  0  0  0  0
    1.7891    1.0773   -1.9904 H   0  0  0  0  0  0  0  0  0  0  0  0
    2.5999   -7.5062   -4.3883 H   0  0  0  0  0  0  0  0  0  0  0  0
   -0.7025   -8.4229   -8.4979 H   0  0  0  0  0  0  0  0  0  0  0  0
   -2.7445   -8.0092  -10.2428 H   0  0  0  0  0  0  0  0  0  0  0  0
   -3.2993   -5.4473   -5.4005 H   0  0  0  0  0  0  0  0  0  0  0  0
  1  2  2  3
  2  3  1  0
  3  4  2  0
  3  5  1  0
  5  6  2  0
  6  7  1  0
  7  8  1  0
  7  9  2  0
  9 10  1  0
  9 11  1  0
 11 12  2  0
 12 13  1  0
 13 14  2  3
 14 15  1  0
 15 16  3  0
 14 17  1  0
 17 18  3  0
  1 19  1  0
 19 20  2  0
 20 21  1  0
 21 22  1  0
 20 23  1  0
 23 24  1  0
 24 25  1  0
 25 26  1  0
 26 27  1  0
 27 28  1  0
 28 29  2  0
 29 30  1  0
 30 31  1  0
 28 32  1  0
 32 33  1  0
 33 34  1  0
 34 35  1  0
 35 36  1  0
 36 37  1  0
 37 38  1  0
 36 39  2  0
 39 40  1  0
 40 41  1  0
 41 42  1  0
 42 43  1  0
 43 44  1  0
 44 45  1  0
 45 46  1  0
 46 47  1  0
 47 48  1  0
 48 49  1  0
 46 50  1  0
 50 51  1  0
 43 52  1  0
 52 53  1  0
 39 54  1  0
 54 55  2  3
 55 56  1  0
 56 57  2  0
 56 58  1  0
 58 59  2  0
 59 60  1  0
 60 61  1  0
 61 62  2  0
 62 63  1  0
 62 64  1  0
 64 65  1  0
 65 66  1  0
 66 67  2  0
 67 68  1  0
 68 69  2  3
 69 70  1  0
 70 71  3  0
 69 72  1  0
 72 73  3  0
 13  2  1  0
 49 19  1  0
 68 55  1  0
 12  5  1  0
 48 23  2  0
 67 58  1  0
 47 25  2  0
 65 60  2  0
 45 26  2  0
 31 27  2  0
 44 32  2  0
 42 33  2  0
 41 35  2  0
  1 74  1  0
  6 75  1  0
 11 76  1  0
 21 77  1  0
 21 78  1  0
 22 79  1  0
 22 80  1  0
 22 81  1  0
 37 82  1  0
 37 83  1  0
 38 84  1  0
 38 85  1  0
 38 86  1  0
 50 87  1  0
 50 88  1  0
 51 89  1  0
 51 90  1  0
 51 91  1  0
 52 92  1  0
 52 93  1  0
 53 94  1  0
 53 95  1  0
 53 96  1  0
 54 97  1  0
 59 98  1  0
 61 99  1  0
 66100  1  0
M  END

