
     RDKit          3D

135149  0  0  0  0  0  0  0  0999 V2000
   -5.1546   -3.2738    3.5638 C   0  0  0  0  0  0  0  0  0  0  0  0
   -4.1372   -4.0480    3.9861 C   0  0  0  0  0  0  0  0  0  0  0  0
   -2.7212   -3.8452    3.6461 C   0  0  0  0  0  0  0  0  0  0  0  0
   -2.2082   -2.8139    3.1371 O   0  0  0  0  0  0  0  0  0  0  0  0
   -1.9970   -5.0528    3.9651 C   0  0  0  0  0  0  0  0  0  0  0  0
   -0.6533   -5.3367    3.7202 C   0  0  0  0  0  0  0  0  0  0  0  0
   -0.1649   -6.6023    4.0688 C   0  0  0  0  0  0  0  0  0  0  0  0
    1.1377   -6.9062    3.8463 F   0  0  0  0  0  0  0  0  0  0  0  0
   -1.0247   -7.5601    4.6353 C   0  0  0  0  0  0  0  0  0  0  0  0
   -0.5478   -8.7885    4.9562 F   0  0  0  0  0  0  0  0  0  0  0  0
   -2.3782   -7.2575    4.8611 C   0  0  0  0  0  0  0  0  0  0  0  0
   -2.8584   -5.9780    4.5324 C   0  0  0  0  0  0  0  0  0  0  0  0
   -4.2226   -5.3811    4.6616 C   0  0  0  0  0  0  0  0  0  0  0  0
   -5.2545   -5.8502    5.4117 C   0  0  0  0  0  0  0  0  0  0  0  0
   -6.4398   -5.0725    5.6642 C   0  0  0  0  0  0  0  0  0  0  0  0
   -7.3964   -4.4559    5.8787 N   0  0  0  0  0  0  0  0  0  0  0  0
   -5.2070   -7.1086    6.1079 C   0  0  0  0  0  0  0  0  0  0  0  0
   -5.1859   -8.1173    6.6759 N   0  0  0  0  0  0  0  0  0  0  0  0
   -4.9332   -2.0152    2.8466 C   0  0  0  0  0  0  0  0  0  0  0  0
   -4.5175   -0.8227    3.4509 C   0  0  0  0  0  0  0  0  0  0  0  0
   -4.1193    0.1002    2.4912 C   0  0  0  0  0  0  0  0  0  0  0  0
   -3.1595    1.4881    2.6022 S   0  0  0  0  0  0  0  0  0  0  0  0
   -2.9313    1.5411    0.9201 C   0  0  0  0  0  0  0  0  0  0  0  0
   -1.8225    2.0068    0.1314 C   0  0  0  0  0  0  0  0  0  0  0  0
   -0.7786    2.8502    0.5192 C   0  0  0  0  0  0  0  0  0  0  0  0
    0.3395    2.9318   -0.3281 C   0  0  0  0  0  0  0  0  0  0  0  0
    1.6997    3.5407    0.0212 C   0  0  0  0  0  0  0  0  0  0  0  0
    2.1422    3.0737    1.4166 C   0  0  0  0  0  0  0  0  0  0  0  0
    2.1769    1.6918    1.7094 C   0  0  0  0  0  0  0  0  0  0  0  0
    2.5600    1.2343    2.9716 C   0  0  0  0  0  0  0  0  0  0  0  0
    2.9322    2.1434    3.9700 C   0  0  0  0  0  0  0  0  0  0  0  0
    3.3175    1.6559    5.3415 C   0  0  0  0  0  0  0  0  0  0  0  0
    2.1570    1.8153    6.3205 C   0  0  0  0  0  0  0  0  0  0  0  0
    2.8940    3.5175    3.6952 C   0  0  0  0  0  0  0  0  0  0  0  0
    2.4989    3.9795    2.4376 C   0  0  0  0  0  0  0  0  0  0  0  0
    1.7250    5.0676   -0.1736 C   0  0  0  0  0  0  0  0  0  0  0  0
    0.5628    5.8603   -0.0399 C   0  0  0  0  0  0  0  0  0  0  0  0
    0.6212    7.2497   -0.1837 C   0  0  0  0  0  0  0  0  0  0  0  0
    1.8432    7.8878   -0.4313 C   0  0  0  0  0  0  0  0  0  0  0  0
    1.9080    9.3766   -0.6091 C   0  0  0  0  0  0  0  0  0  0  0  0
    3.0048    7.1174   -0.5531 C   0  0  0  0  0  0  0  0  0  0  0  0
    2.9494    5.7278   -0.4091 C   0  0  0  0  0  0  0  0  0  0  0  0
    2.5262    2.8726   -1.0638 C   0  0  0  0  0  0  0  0  0  0  0  0
    1.7575    2.1623   -1.9568 C   0  0  0  0  0  0  0  0  0  0  0  0
    0.3936    2.1591   -1.4944 C   0  0  0  0  0  0  0  0  0  0  0  0
   -0.6347    1.2825   -1.8611 C   0  0  0  0  0  0  0  0  0  0  0  0
   -1.7607    1.2228   -1.0236 C   0  0  0  0  0  0  0  0  0  0  0  0
   -2.8656    0.1676   -1.0513 C   0  0  0  0  0  0  0  0  0  0  0  0
   -3.9252    0.4029   -2.1366 C   0  0  0  0  0  0  0  0  0  0  0  0
   -5.0250   -0.4758   -2.2284 C   0  0  0  0  0  0  0  0  0  0  0  0
   -6.0498   -0.2533   -3.1502 C   0  0  0  0  0  0  0  0  0  0  0  0
   -6.0102    0.8611   -3.9970 C   0  0  0  0  0  0  0  0  0  0  0  0
   -7.1158    1.0982   -4.9909 C   0  0  0  0  0  0  0  0  0  0  0  0
   -6.7899    0.4446   -6.3311 C   0  0  0  0  0  0  0  0  0  0  0  0
   -4.9128    1.7310   -3.9331 C   0  0  0  0  0  0  0  0  0  0  0  0
   -3.8847    1.5121   -3.0101 C   0  0  0  0  0  0  0  0  0  0  0  0
   -2.2158   -1.2258   -1.0905 C   0  0  0  0  0  0  0  0  0  0  0  0
   -2.2261   -2.0150   -2.2592 C   0  0  0  0  0  0  0  0  0  0  0  0
   -1.6235   -3.2764   -2.2768 C   0  0  0  0  0  0  0  0  0  0  0  0
   -0.9531   -3.7586   -1.1442 C   0  0  0  0  0  0  0  0  0  0  0  0
   -0.3500   -5.1380   -1.1408 C   0  0  0  0  0  0  0  0  0  0  0  0
   -1.2912   -6.1366   -0.4707 C   0  0  0  0  0  0  0  0  0  0  0  0
   -0.8829   -2.9573    0.0027 C   0  0  0  0  0  0  0  0  0  0  0  0
   -1.4886   -1.7001    0.0235 C   0  0  0  0  0  0  0  0  0  0  0  0
   -3.5088    0.4652    0.2902 C   0  0  0  0  0  0  0  0  0  0  0  0
   -4.2001   -0.3343    1.1958 C   0  0  0  0  0  0  0  0  0  0  0  0
   -4.7570   -1.9168    1.1579 S   0  0  0  0  0  0  0  0  0  0  0  0
    2.6624    0.9520   -2.7398 S   0  0  0  0  0  0  0  0  0  0  0  0
    4.0890    1.4231   -1.9669 C   0  0  0  0  0  0  0  0  0  0  0  0
    5.3422    0.8287   -1.8652 C   0  0  0  0  0  0  0  0  0  0  0  0
    6.0829    1.4114   -0.8257 C   0  0  0  0  0  0  0  0  0  0  0  0
    5.1796    2.6511   -0.0848 S   0  0  0  0  0  0  0  0  0  0  0  0
    3.8495    2.4380   -1.0865 C   0  0  0  0  0  0  0  0  0  0  0  0
    7.4580    1.0688   -0.4339 C   0  0  0  0  0  0  0  0  0  0  0  0
    7.9013   -0.1855   -0.2111 C   0  0  0  0  0  0  0  0  0  0  0  0
    7.1248   -1.4235   -0.3483 C   0  0  0  0  0  0  0  0  0  0  0  0
    5.8695   -1.5279   -0.3180 O   0  0  0  0  0  0  0  0  0  0  0  0
    8.0502   -2.5355   -0.4162 C   0  0  0  0  0  0  0  0  0  0  0  0
    7.7690   -3.8839   -0.6399 C   0  0  0  0  0  0  0  0  0  0  0  0
    6.4936   -4.3174   -0.8053 F   0  0  0  0  0  0  0  0  0  0  0  0
    8.8384   -4.7860   -0.7094 C   0  0  0  0  0  0  0  0  0  0  0  0
   10.1611   -4.3271   -0.5740 C   0  0  0  0  0  0  0  0  0  0  0  0
   10.4230   -2.9654   -0.3501 C   0  0  0  0  0  0  0  0  0  0  0  0
    9.3448   -2.0709   -0.2496 C   0  0  0  0  0  0  0  0  0  0  0  0
    9.3178   -0.6042    0.0219 C   0  0  0  0  0  0  0  0  0  0  0  0
   10.2920    0.1280    0.6230 C   0  0  0  0  0  0  0  0  0  0  0  0
   11.6092   -0.3919    0.8814 C   0  0  0  0  0  0  0  0  0  0  0  0
   12.6723   -0.7955    1.0974 N   0  0  0  0  0  0  0  0  0  0  0  0
   10.0264    1.4157    1.2129 C   0  0  0  0  0  0  0  0  0  0  0  0
    9.8091    2.4406    1.7110 N   0  0  0  0  0  0  0  0  0  0  0  0
   -6.1761   -3.5994    3.6515 H   0  0  0  0  0  0  0  0  0  0  0  0
   -0.0024   -4.5994    3.2659 H   0  0  0  0  0  0  0  0  0  0  0  0
   -3.0131   -8.0271    5.2595 H   0  0  0  0  0  0  0  0  0  0  0  0
   -4.3931   -0.6875    4.5180 H   0  0  0  0  0  0  0  0  0  0  0  0
   -0.7918    3.3454    1.4817 H   0  0  0  0  0  0  0  0  0  0  0  0
    1.9030    0.9647    0.9551 H   0  0  0  0  0  0  0  0  0  0  0  0
    2.5661    0.1693    3.1678 H   0  0  0  0  0  0  0  0  0  0  0  0
    4.1930    2.2330    5.7103 H   0  0  0  0  0  0  0  0  0  0  0  0
    3.6167    0.5842    5.3059 H   0  0  0  0  0  0  0  0  0  0  0  0
    2.4592    1.4385    7.3206 H   0  0  0  0  0  0  0  0  0  0  0  0
    1.8799    2.8881    6.4156 H   0  0  0  0  0  0  0  0  0  0  0  0
    1.2742    1.2386    5.9725 H   0  0  0  0  0  0  0  0  0  0  0  0
    3.1625    4.2334    4.4626 H   0  0  0  0  0  0  0  0  0  0  0  0
    2.4742    5.0476    2.2779 H   0  0  0  0  0  0  0  0  0  0  0  0
   -0.3998    5.4217    0.1702 H   0  0  0  0  0  0  0  0  0  0  0  0
   -0.2905    7.8292   -0.0945 H   0  0  0  0  0  0  0  0  0  0  0  0
    2.8091    9.7829   -0.1052 H   0  0  0  0  0  0  0  0  0  0  0  0
    1.0150    9.8722   -0.1711 H   0  0  0  0  0  0  0  0  0  0  0  0
    1.9577    9.6182   -1.6915 H   0  0  0  0  0  0  0  0  0  0  0  0
    3.9580    7.5945   -0.7460 H   0  0  0  0  0  0  0  0  0  0  0  0
    3.8733    5.1753   -0.4787 H   0  0  0  0  0  0  0  0  0  0  0  0
   -0.5223    0.6038   -2.6975 H   0  0  0  0  0  0  0  0  0  0  0  0
   -5.0897   -1.3425   -1.5862 H   0  0  0  0  0  0  0  0  0  0  0  0
   -6.8812   -0.9460   -3.1967 H   0  0  0  0  0  0  0  0  0  0  0  0
   -7.2651    2.1886   -5.1418 H   0  0  0  0  0  0  0  0  0  0  0  0
   -8.0721    0.6838   -4.6056 H   0  0  0  0  0  0  0  0  0  0  0  0
   -7.6352    0.5999   -7.0356 H   0  0  0  0  0  0  0  0  0  0  0  0
   -6.6329   -0.6491   -6.2012 H   0  0  0  0  0  0  0  0  0  0  0  0
   -5.8741    0.8967   -6.7683 H   0  0  0  0  0  0  0  0  0  0  0  0
   -4.8597    2.5888   -4.5922 H   0  0  0  0  0  0  0  0  0  0  0  0
   -3.0728    2.2236   -2.9824 H   0  0  0  0  0  0  0  0  0  0  0  0
   -2.7008   -1.6662   -3.1655 H   0  0  0  0  0  0  0  0  0  0  0  0
   -1.6755   -3.8750   -3.1787 H   0  0  0  0  0  0  0  0  0  0  0  0
   -0.1428   -5.4739   -2.1807 H   0  0  0  0  0  0  0  0  0  0  0  0
    0.6184   -5.1265   -0.5961 H   0  0  0  0  0  0  0  0  0  0  0  0
   -1.4440   -5.8622    0.5942 H   0  0  0  0  0  0  0  0  0  0  0  0
   -0.8477   -7.1536   -0.5142 H   0  0  0  0  0  0  0  0  0  0  0  0
   -2.2728   -6.1540   -0.9894 H   0  0  0  0  0  0  0  0  0  0  0  0
   -0.3587   -3.3099    0.8835 H   0  0  0  0  0  0  0  0  0  0  0  0
   -1.3944   -1.0991    0.9180 H   0  0  0  0  0  0  0  0  0  0  0  0
    5.6732   -0.0019   -2.4743 H   0  0  0  0  0  0  0  0  0  0  0  0
    8.1343    1.9041   -0.3609 H   0  0  0  0  0  0  0  0  0  0  0  0
    8.6495   -5.8366   -0.8885 H   0  0  0  0  0  0  0  0  0  0  0  0
   10.9819   -5.0280   -0.6544 H   0  0  0  0  0  0  0  0  0  0  0  0
   11.4475   -2.6429   -0.2893 H   0  0  0  0  0  0  0  0  0  0  0  0
  1  2  2  3
  2  3  1  0
  3  4  2  0
  3  5  1  0
  5  6  2  0
  6  7  1  0
  7  8  1  0
  7  9  2  0
  9 10  1  0
  9 11  1  0
 11 12  2  0
 12 13  1  0
 13 14  2  3
 14 15  1  0
 15 16  3  0
 14 17  1  0
 17 18  3  0
  1 19  1  0
 19 20  2  0
 20 21  1  0
 21 22  1  0
 22 23  1  0
 23 24  1  0
 24 25  2  0
 25 26  1  0
 26 27  1  0
 27 28  1  0
 28 29  2  0
 29 30  1  0
 30 31  2  0
 31 32  1  0
 32 33  1  0
 31 34  1  0
 34 35  2  0
 27 36  1  0
 36 37  2  0
 37 38  1  0
 38 39  2  0
 39 40  1  0
 39 41  1  0
 41 42  2  0
 27 43  1  0
 43 44  2  0
 44 45  1  0
 45 46  1  0
 46 47  2  0
 47 48  1  0
 48 49  1  0
 49 50  2  0
 50 51  1  0
 51 52  2  0
 52 53  1  0
 53 54  1  0
 52 55  1  0
 55 56  2  0
 48 57  1  0
 57 58  2  0
 58 59  1  0
 59 60  2  0
 60 61  1  0
 61 62  1  0
 60 63  1  0
 63 64  2  0
 48 65  1  0
 65 66  1  0
 66 67  1  0
 44 68  1  0
 68 69  1  0
 69 70  1  0
 70 71  2  0
 71 72  1  0
 72 73  1  0
 71 74  1  0
 74 75  2  3
 75 76  1  0
 76 77  2  0
 76 78  1  0
 78 79  2  0
 79 80  1  0
 79 81  1  0
 81 82  2  0
 82 83  1  0
 83 84  2  0
 84 85  1  0
 85 86  2  3
 86 87  1  0
 87 88  3  0
 86 89  1  0
 89 90  3  0
 13  2  1  0
 67 19  1  0
 73 69  2  0
 85 75  1  0
 12  5  1  0
 66 21  2  0
 84 78  1  0
 65 23  2  0
 47 24  1  0
 56 49  1  0
 64 57  1  0
 45 26  2  0
 35 28  1  0
 42 36  1  0
 73 43  1  0
  1 91  1  0
  6 92  1  0
 11 93  1  0
 20 94  1  0
 25 95  1  0
 29 96  1  0
 30 97  1  0
 32 98  1  0
 32 99  1  0
 33100  1  0
 33101  1  0
 33102  1  0
 34103  1  0
 35104  1  0
 37105  1  0
 38106  1  0
 40107  1  0
 40108  1  0
 40109  1  0
 41110  1  0
 42111  1  0
 46112  1  0
 50113  1  0
 51114  1  0
 53115  1  0
 53116  1  0
 54117  1  0
 54118  1  0
 54119  1  0
 55120  1  0
 56121  1  0
 58122  1  0
 59123  1  0
 61124  1  0
 61125  1  0
 62126  1  0
 62127  1  0
 62128  1  0
 63129  1  0
 64130  1  0
 70131  1  0
 74132  1  0
 81133  1  0
 82134  1  0
 83135  1  0
M  END

