
     RDKit          3D

135149  0  0  0  0  0  0  0  0999 V2000
    1.3033   -6.5746   -4.3653 C   0  0  0  0  0  0  0  0  0  0  0  0
    0.9334   -6.9131   -5.6136 C   0  0  0  0  0  0  0  0  0  0  0  0
    1.3009   -8.2091   -6.1770 C   0  0  0  0  0  0  0  0  0  0  0  0
    1.8455   -9.1565   -5.5495 O   0  0  0  0  0  0  0  0  0  0  0  0
    0.9710   -8.2226   -7.5788 C   0  0  0  0  0  0  0  0  0  0  0  0
    1.0400   -9.3070   -8.4571 C   0  0  0  0  0  0  0  0  0  0  0  0
    0.4961   -9.1616   -9.7395 C   0  0  0  0  0  0  0  0  0  0  0  0
    0.4931  -10.2201  -10.5916 F   0  0  0  0  0  0  0  0  0  0  0  0
   -0.1127   -7.9529  -10.1173 C   0  0  0  0  0  0  0  0  0  0  0  0
   -0.6675   -7.8373  -11.3499 F   0  0  0  0  0  0  0  0  0  0  0  0
   -0.1660   -6.8700   -9.2206 C   0  0  0  0  0  0  0  0  0  0  0  0
    0.3974   -7.0063   -7.9321 C   0  0  0  0  0  0  0  0  0  0  0  0
    0.2852   -6.1285   -6.7208 C   0  0  0  0  0  0  0  0  0  0  0  0
   -0.4711   -5.0072   -6.6240 C   0  0  0  0  0  0  0  0  0  0  0  0
   -1.0885   -4.5768   -5.4002 C   0  0  0  0  0  0  0  0  0  0  0  0
   -1.6164   -4.2059   -4.4335 N   0  0  0  0  0  0  0  0  0  0  0  0
   -0.8181   -4.2108   -7.7740 C   0  0  0  0  0  0  0  0  0  0  0  0
   -1.0987   -3.5539   -8.6842 N   0  0  0  0  0  0  0  0  0  0  0  0
    1.2064   -5.2673   -3.7236 C   0  0  0  0  0  0  0  0  0  0  0  0
    1.8723   -4.0897   -4.1132 C   0  0  0  0  0  0  0  0  0  0  0  0
    1.7752   -3.1268   -3.1088 C   0  0  0  0  0  0  0  0  0  0  0  0
    2.3899   -1.5514   -2.8925 S   0  0  0  0  0  0  0  0  0  0  0  0
    1.6970   -1.4494   -1.3420 C   0  0  0  0  0  0  0  0  0  0  0  0
    1.5398   -0.4731   -0.2909 C   0  0  0  0  0  0  0  0  0  0  0  0
    1.9278    0.8739   -0.2379 C   0  0  0  0  0  0  0  0  0  0  0  0
    1.4781    1.6336    0.8619 C   0  0  0  0  0  0  0  0  0  0  0  0
    1.5199    3.1623    1.0268 C   0  0  0  0  0  0  0  0  0  0  0  0
    2.9532    3.6345    1.3264 C   0  0  0  0  0  0  0  0  0  0  0  0
    3.9328    3.5743    0.3139 C   0  0  0  0  0  0  0  0  0  0  0  0
    5.1975    4.1370    0.5042 C   0  0  0  0  0  0  0  0  0  0  0  0
    5.5194    4.7736    1.7117 C   0  0  0  0  0  0  0  0  0  0  0  0
    6.8367    5.4862    1.8649 C   0  0  0  0  0  0  0  0  0  0  0  0
    6.7816    6.8656    1.1959 C   0  0  0  0  0  0  0  0  0  0  0  0
    4.5697    4.8093    2.7413 C   0  0  0  0  0  0  0  0  0  0  0  0
    3.3063    4.2379    2.5593 C   0  0  0  0  0  0  0  0  0  0  0  0
    0.8734    3.8904   -0.1609 C   0  0  0  0  0  0  0  0  0  0  0  0
   -0.2318    3.3290   -0.8356 C   0  0  0  0  0  0  0  0  0  0  0  0
   -0.8568    4.0178   -1.8759 C   0  0  0  0  0  0  0  0  0  0  0  0
   -0.4053    5.2861   -2.2624 C   0  0  0  0  0  0  0  0  0  0  0  0
   -1.1112    6.0494   -3.3439 C   0  0  0  0  0  0  0  0  0  0  0  0
    0.6548    5.8760   -1.5663 C   0  0  0  0  0  0  0  0  0  0  0  0
    1.2882    5.1905   -0.5279 C   0  0  0  0  0  0  0  0  0  0  0  0
    0.6028    3.2808    2.2193 C   0  0  0  0  0  0  0  0  0  0  0  0
    0.1771    2.0708    2.6924 C   0  0  0  0  0  0  0  0  0  0  0  0
    0.6808    1.0278    1.8498 C   0  0  0  0  0  0  0  0  0  0  0  0
    0.2601   -0.3012    1.7738 C   0  0  0  0  0  0  0  0  0  0  0  0
    0.7015   -1.0523    0.6776 C   0  0  0  0  0  0  0  0  0  0  0  0
    0.1640   -2.4057    0.2258 C   0  0  0  0  0  0  0  0  0  0  0  0
    0.4380   -3.4676    1.3005 C   0  0  0  0  0  0  0  0  0  0  0  0
    1.6485   -4.1972    1.3241 C   0  0  0  0  0  0  0  0  0  0  0  0
    1.8831   -5.1586    2.3120 C   0  0  0  0  0  0  0  0  0  0  0  0
    0.9341   -5.3923    3.3162 C   0  0  0  0  0  0  0  0  0  0  0  0
    1.1797   -6.4594    4.3502 C   0  0  0  0  0  0  0  0  0  0  0  0
    0.7722   -7.8296    3.8182 C   0  0  0  0  0  0  0  0  0  0  0  0
   -0.2538   -4.6462    3.3229 C   0  0  0  0  0  0  0  0  0  0  0  0
   -0.4879   -3.6778    2.3422 C   0  0  0  0  0  0  0  0  0  0  0  0
   -1.3003   -2.3290   -0.2419 C   0  0  0  0  0  0  0  0  0  0  0  0
   -2.0222   -3.5131   -0.4915 C   0  0  0  0  0  0  0  0  0  0  0  0
   -3.2554   -3.4850   -1.1512 C   0  0  0  0  0  0  0  0  0  0  0  0
   -3.7920   -2.2684   -1.5923 C   0  0  0  0  0  0  0  0  0  0  0  0
   -5.0846   -2.2378   -2.3669 C   0  0  0  0  0  0  0  0  0  0  0  0
   -6.2823   -2.1349   -1.4317 C   0  0  0  0  0  0  0  0  0  0  0  0
   -3.1088   -1.0805   -1.3176 C   0  0  0  0  0  0  0  0  0  0  0  0
   -1.8756   -1.1085   -0.6629 C   0  0  0  0  0  0  0  0  0  0  0  0
    0.9957   -2.5716   -1.0187 C   0  0  0  0  0  0  0  0  0  0  0  0
    1.0590   -3.5164   -2.0152 C   0  0  0  0  0  0  0  0  0  0  0  0
    0.5421   -5.0931   -2.1661 S   0  0  0  0  0  0  0  0  0  0  0  0
   -1.1007    2.2151    3.8086 S   0  0  0  0  0  0  0  0  0  0  0  0
   -1.0355    3.9054    3.7103 C   0  0  0  0  0  0  0  0  0  0  0  0
   -1.7747    4.9201    4.2984 C   0  0  0  0  0  0  0  0  0  0  0  0
   -1.3777    6.1708    3.7974 C   0  0  0  0  0  0  0  0  0  0  0  0
   -0.1099    5.9887    2.6634 S   0  0  0  0  0  0  0  0  0  0  0  0
   -0.0929    4.3208    2.8077 C   0  0  0  0  0  0  0  0  0  0  0  0
   -1.8780    7.4718    4.2623 C   0  0  0  0  0  0  0  0  0  0  0  0
   -3.1498    7.7143    4.6197 C   0  0  0  0  0  0  0  0  0  0  0  0
   -3.5061    8.7640    5.5758 C   0  0  0  0  0  0  0  0  0  0  0  0
   -2.7844    9.7412    5.9078 O   0  0  0  0  0  0  0  0  0  0  0  0
   -4.7941    8.4223    6.1459 C   0  0  0  0  0  0  0  0  0  0  0  0
   -5.4412    9.0187    7.2281 C   0  0  0  0  0  0  0  0  0  0  0  0
   -6.6117    8.4201    7.7177 C   0  0  0  0  0  0  0  0  0  0  0  0
   -7.2597    8.9653    8.7815 F   0  0  0  0  0  0  0  0  0  0  0  0
   -7.0819    7.2218    7.1477 C   0  0  0  0  0  0  0  0  0  0  0  0
   -8.1833    6.6237    7.6564 F   0  0  0  0  0  0  0  0  0  0  0  0
   -6.4052    6.6331    6.0661 C   0  0  0  0  0  0  0  0  0  0  0  0
   -5.2756    7.2662    5.5443 C   0  0  0  0  0  0  0  0  0  0  0  0
   -4.3557    6.8462    4.4587 C   0  0  0  0  0  0  0  0  0  0  0  0
   -4.6900    6.1298    3.3688 C   0  0  0  0  0  0  0  0  0  0  0  0
   -5.9682    5.4814    3.2411 C   0  0  0  0  0  0  0  0  0  0  0  0
   -7.0010    4.9659    3.1251 N   0  0  0  0  0  0  0  0  0  0  0  0
   -3.9047    6.1998    2.1551 C   0  0  0  0  0  0  0  0  0  0  0  0
   -3.3080    6.3056    1.1710 N   0  0  0  0  0  0  0  0  0  0  0  0
    1.7445   -7.3471   -3.7440 H   0  0  0  0  0  0  0  0  0  0  0  0
    1.4713  -10.2504   -8.1360 H   0  0  0  0  0  0  0  0  0  0  0  0
   -0.6831   -5.9861   -9.5415 H   0  0  0  0  0  0  0  0  0  0  0  0
    2.4481   -3.9742   -5.0213 H   0  0  0  0  0  0  0  0  0  0  0  0
    2.4583    1.3296   -1.0617 H   0  0  0  0  0  0  0  0  0  0  0  0
    3.7001    3.1485   -0.6521 H   0  0  0  0  0  0  0  0  0  0  0  0
    5.9191    4.1063   -0.3066 H   0  0  0  0  0  0  0  0  0  0  0  0
    7.0803    5.6251    2.9448 H   0  0  0  0  0  0  0  0  0  0  0  0
    7.6542    4.8855    1.4101 H   0  0  0  0  0  0  0  0  0  0  0  0
    7.7268    7.4108    1.3953 H   0  0  0  0  0  0  0  0  0  0  0  0
    6.6538    6.7518    0.0951 H   0  0  0  0  0  0  0  0  0  0  0  0
    5.9369    7.4537    1.6064 H   0  0  0  0  0  0  0  0  0  0  0  0
    4.7987    5.3022    3.6807 H   0  0  0  0  0  0  0  0  0  0  0  0
    2.6122    4.3046    3.3796 H   0  0  0  0  0  0  0  0  0  0  0  0
   -0.6314    2.3713   -0.5419 H   0  0  0  0  0  0  0  0  0  0  0  0
   -1.7139    3.5704   -2.3620 H   0  0  0  0  0  0  0  0  0  0  0  0
   -1.7753    6.8141   -2.8869 H   0  0  0  0  0  0  0  0  0  0  0  0
   -1.7266    5.3740   -3.9770 H   0  0  0  0  0  0  0  0  0  0  0  0
   -0.3721    6.5608   -3.9988 H   0  0  0  0  0  0  0  0  0  0  0  0
    0.9795    6.8735   -1.8209 H   0  0  0  0  0  0  0  0  0  0  0  0
    2.0743    5.7009    0.0099 H   0  0  0  0  0  0  0  0  0  0  0  0
   -0.4516   -0.7032    2.4834 H   0  0  0  0  0  0  0  0  0  0  0  0
    2.4190   -4.0373    0.5787 H   0  0  0  0  0  0  0  0  0  0  0  0
    2.8102   -5.7161    2.2938 H   0  0  0  0  0  0  0  0  0  0  0  0
    2.2575   -6.4723    4.6241 H   0  0  0  0  0  0  0  0  0  0  0  0
    0.6049   -6.2429    5.2767 H   0  0  0  0  0  0  0  0  0  0  0  0
   -0.3164   -7.8499    3.5960 H   0  0  0  0  0  0  0  0  0  0  0  0
    0.9940   -8.6068    4.5787 H   0  0  0  0  0  0  0  0  0  0  0  0
    1.3376   -8.0734    2.8893 H   0  0  0  0  0  0  0  0  0  0  0  0
   -0.9968   -4.8114    4.0945 H   0  0  0  0  0  0  0  0  0  0  0  0
   -1.4048   -3.1005    2.3896 H   0  0  0  0  0  0  0  0  0  0  0  0
   -1.6103   -4.4752   -0.2123 H   0  0  0  0  0  0  0  0  0  0  0  0
   -3.7700   -4.4139   -1.3535 H   0  0  0  0  0  0  0  0  0  0  0  0
   -5.0883   -1.3636   -3.0563 H   0  0  0  0  0  0  0  0  0  0  0  0
   -5.1759   -3.1493   -2.9910 H   0  0  0  0  0  0  0  0  0  0  0  0
   -6.3461   -3.0384   -0.7870 H   0  0  0  0  0  0  0  0  0  0  0  0
   -7.2166   -2.0566   -2.0340 H   0  0  0  0  0  0  0  0  0  0  0  0
   -6.1958   -1.2378   -0.7808 H   0  0  0  0  0  0  0  0  0  0  0  0
   -3.5074   -0.1281   -1.6437 H   0  0  0  0  0  0  0  0  0  0  0  0
   -1.3561   -0.1642   -0.5438 H   0  0  0  0  0  0  0  0  0  0  0  0
   -2.5394    4.7580    5.0544 H   0  0  0  0  0  0  0  0  0  0  0  0
   -1.1216    8.2210    4.4670 H   0  0  0  0  0  0  0  0  0  0  0  0
   -5.0344    9.9005    7.7183 H   0  0  0  0  0  0  0  0  0  0  0  0
   -6.7458    5.6814    5.6997 H   0  0  0  0  0  0  0  0  0  0  0  0
  1  2  2  3
  2  3  1  0
  3  4  2  0
  3  5  1  0
  5  6  2  0
  6  7  1  0
  7  8  1  0
  7  9  2  0
  9 10  1  0
  9 11  1  0
 11 12  2  0
 12 13  1  0
 13 14  2  3
 14 15  1  0
 15 16  3  0
 14 17  1  0
 17 18  3  0
  1 19  1  0
 19 20  2  0
 20 21  1  0
 21 22  1  0
 22 23  1  0
 23 24  1  0
 24 25  2  0
 25 26  1  0
 26 27  1  0
 27 28  1  0
 28 29  2  0
 29 30  1  0
 30 31  2  0
 31 32  1  0
 32 33  1  0
 31 34  1  0
 34 35  2  0
 27 36  1  0
 36 37  2  0
 37 38  1  0
 38 39  2  0
 39 40  1  0
 39 41  1  0
 41 42  2  0
 27 43  1  0
 43 44  2  0
 44 45  1  0
 45 46  1  0
 46 47  2  0
 47 48  1  0
 48 49  1  0
 49 50  2  0
 50 51  1  0
 51 52  2  0
 52 53  1  0
 53 54  1  0
 52 55  1  0
 55 56  2  0
 48 57  1  0
 57 58  2  0
 58 59  1  0
 59 60  2  0
 60 61  1  0
 61 62  1  0
 60 63  1  0
 63 64  2  0
 48 65  1  0
 65 66  1  0
 66 67  1  0
 44 68  1  0
 68 69  1  0
 69 70  1  0
 70 71  2  0
 71 72  1  0
 72 73  1  0
 71 74  1  0
 74 75  2  3
 75 76  1  0
 76 77  2  0
 76 78  1  0
 78 79  2  0
 79 80  1  0
 80 81  1  0
 80 82  2  0
 82 83  1  0
 82 84  1  0
 84 85  2  0
 85 86  1  0
 86 87  2  3
 87 88  1  0
 88 89  3  0
 87 90  1  0
 90 91  3  0
 13  2  1  0
 67 19  1  0
 73 69  2  0
 86 75  1  0
 12  5  1  0
 66 21  2  0
 85 78  1  0
 65 23  2  0
 47 24  1  0
 56 49  1  0
 64 57  1  0
 45 26  2  0
 35 28  1  0
 42 36  1  0
 73 43  1  0
  1 92  1  0
  6 93  1  0
 11 94  1  0
 20 95  1  0
 25 96  1  0
 29 97  1  0
 30 98  1  0
 32 99  1  0
 32100  1  0
 33101  1  0
 33102  1  0
 33103  1  0
 34104  1  0
 35105  1  0
 37106  1  0
 38107  1  0
 40108  1  0
 40109  1  0
 40110  1  0
 41111  1  0
 42112  1  0
 46113  1  0
 50114  1  0
 51115  1  0
 53116  1  0
 53117  1  0
 54118  1  0
 54119  1  0
 54120  1  0
 55121  1  0
 56122  1  0
 58123  1  0
 59124  1  0
 61125  1  0
 61126  1  0
 62127  1  0
 62128  1  0
 62129  1  0
 63130  1  0
 64131  1  0
 70132  1  0
 74133  1  0
 79134  1  0
 84135  1  0
M  END

