
     RDKit          3D

127142  0  0  0  0  0  0  0  0999 V2000
   -6.8499    3.8929   -3.5766 C   0  0  0  0  0  0  0  0  0  0  0  0
   -5.9713    4.9537   -3.5075 C   0  0  0  0  0  0  0  0  0  0  0  0
   -4.5574    4.7661   -3.1938 C   0  0  0  0  0  0  0  0  0  0  0  0
   -4.0798    3.9482   -2.3442 O   0  0  0  0  0  0  0  0  0  0  0  0
   -3.7548    5.5353   -4.1172 C   0  0  0  0  0  0  0  0  0  0  0  0
   -2.6476    4.9379   -4.7407 C   0  0  0  0  0  0  0  0  0  0  0  0
   -2.3132    5.2984   -6.0481 C   0  0  0  0  0  0  0  0  0  0  0  0
   -2.0918    4.2753   -6.9178 F   0  0  0  0  0  0  0  0  0  0  0  0
   -2.9857    6.3884   -6.6369 C   0  0  0  0  0  0  0  0  0  0  0  0
   -2.6936    6.7577   -7.9099 F   0  0  0  0  0  0  0  0  0  0  0  0
   -4.2047    6.8348   -6.0856 C   0  0  0  0  0  0  0  0  0  0  0  0
   -4.6010    6.4096   -4.8155 C   0  0  0  0  0  0  0  0  0  0  0  0
   -6.0303    6.1543   -4.4022 C   0  0  0  0  0  0  0  0  0  0  0  0
   -7.1014    6.9335   -4.7508 C   0  0  0  0  0  0  0  0  0  0  0  0
   -8.4472    6.4398   -4.6087 C   0  0  0  0  0  0  0  0  0  0  0  0
   -9.4894    5.9555   -4.5589 N   0  0  0  0  0  0  0  0  0  0  0  0
   -6.8929    8.2475   -5.2997 C   0  0  0  0  0  0  0  0  0  0  0  0
   -6.6894    9.3195   -5.6984 N   0  0  0  0  0  0  0  0  0  0  0  0
   -6.3899    2.4949   -3.4460 C   0  0  0  0  0  0  0  0  0  0  0  0
   -5.4771    1.8730   -4.3284 C   0  0  0  0  0  0  0  0  0  0  0  0
   -5.0302    0.6489   -3.8709 C   0  0  0  0  0  0  0  0  0  0  0  0
   -3.6896   -0.2897   -4.2427 S   0  0  0  0  0  0  0  0  0  0  0  0
   -3.8233   -1.2371   -2.8282 C   0  0  0  0  0  0  0  0  0  0  0  0
   -2.8040   -1.7680   -1.9302 C   0  0  0  0  0  0  0  0  0  0  0  0
   -1.5265   -2.2989   -2.1855 C   0  0  0  0  0  0  0  0  0  0  0  0
   -0.6461   -2.3663   -1.0710 C   0  0  0  0  0  0  0  0  0  0  0  0
    0.8104   -2.8094   -1.0292 C   0  0  0  0  0  0  0  0  0  0  0  0
    1.5236   -2.4872   -2.3444 C   0  0  0  0  0  0  0  0  0  0  0  0
    2.2003   -3.4736   -3.0996 C   0  0  0  0  0  0  0  0  0  0  0  0
    2.7265   -3.1930   -4.3532 C   0  0  0  0  0  0  0  0  0  0  0  0
    2.6394   -1.8946   -4.8703 C   0  0  0  0  0  0  0  0  0  0  0  0
    2.0266   -0.8830   -4.1170 C   0  0  0  0  0  0  0  0  0  0  0  0
    1.4692   -1.1683   -2.8649 C   0  0  0  0  0  0  0  0  0  0  0  0
    0.7750   -4.3053   -0.6559 C   0  0  0  0  0  0  0  0  0  0  0  0
    1.1869   -4.7620    0.6260 C   0  0  0  0  0  0  0  0  0  0  0  0
    0.8892   -6.0582    1.0714 C   0  0  0  0  0  0  0  0  0  0  0  0
    0.2326   -6.9513    0.2167 C   0  0  0  0  0  0  0  0  0  0  0  0
   -0.1459   -6.5408   -1.0636 C   0  0  0  0  0  0  0  0  0  0  0  0
    0.1123   -5.2297   -1.5029 C   0  0  0  0  0  0  0  0  0  0  0  0
    1.2633   -1.9426    0.1388 C   0  0  0  0  0  0  0  0  0  0  0  0
    0.1754   -1.4880    0.8627 C   0  0  0  0  0  0  0  0  0  0  0  0
   -1.0322   -1.8057    0.1482 C   0  0  0  0  0  0  0  0  0  0  0  0
   -2.3611   -1.4850    0.4414 C   0  0  0  0  0  0  0  0  0  0  0  0
   -3.2599   -1.5552   -0.6265 C   0  0  0  0  0  0  0  0  0  0  0  0
   -4.7431   -1.2589   -0.6136 C   0  0  0  0  0  0  0  0  0  0  0  0
   -5.1176   -0.2698    0.4976 C   0  0  0  0  0  0  0  0  0  0  0  0
   -4.7234    1.0893    0.4577 C   0  0  0  0  0  0  0  0  0  0  0  0
   -5.0922    1.9705    1.4918 C   0  0  0  0  0  0  0  0  0  0  0  0
   -5.7920    1.4834    2.6010 C   0  0  0  0  0  0  0  0  0  0  0  0
   -6.1212    0.1337    2.6922 C   0  0  0  0  0  0  0  0  0  0  0  0
   -5.7538   -0.7458    1.6690 C   0  0  0  0  0  0  0  0  0  0  0  0
   -5.6019   -2.5276   -0.5926 C   0  0  0  0  0  0  0  0  0  0  0  0
   -7.0087   -2.3987   -0.7632 C   0  0  0  0  0  0  0  0  0  0  0  0
   -7.8095   -3.5380   -0.8111 C   0  0  0  0  0  0  0  0  0  0  0  0
   -7.2310   -4.8191   -0.7423 C   0  0  0  0  0  0  0  0  0  0  0  0
   -5.8539   -4.9611   -0.5720 C   0  0  0  0  0  0  0  0  0  0  0  0
   -5.0554   -3.8187   -0.4664 C   0  0  0  0  0  0  0  0  0  0  0  0
   -4.8548   -0.7584   -2.0447 C   0  0  0  0  0  0  0  0  0  0  0  0
   -5.5342    0.2921   -2.6313 C   0  0  0  0  0  0  0  0  0  0  0  0
   -6.6707    1.4606   -2.1174 S   0  0  0  0  0  0  0  0  0  0  0  0
    0.5623   -0.2750    2.0126 S   0  0  0  0  0  0  0  0  0  0  0  0
    2.1851   -0.4254    1.5685 C   0  0  0  0  0  0  0  0  0  0  0  0
    3.3875    0.1698    1.8516 C   0  0  0  0  0  0  0  0  0  0  0  0
    4.3207   -0.4478    1.0578 C   0  0  0  0  0  0  0  0  0  0  0  0
    3.7601   -1.3970    0.2615 N   0  0  0  0  0  0  0  0  0  0  0  0
    4.4609   -2.3504   -0.5681 C   0  0  0  0  0  0  0  0  0  0  0  0
    4.9453   -1.6959   -1.8623 C   0  0  0  0  0  0  0  0  0  0  0  0
    2.4297   -1.3341    0.5835 C   0  0  0  0  0  0  0  0  0  0  0  0
    5.6191    0.0289    1.2371 C   0  0  0  0  0  0  0  0  0  0  0  0
    5.6337    1.0248    2.2276 C   0  0  0  0  0  0  0  0  0  0  0  0
    4.0429    1.3444    2.8116 S   0  0  0  0  0  0  0  0  0  0  0  0
    6.8186    1.8082    2.6327 C   0  0  0  0  0  0  0  0  0  0  0  0
    7.0504    2.2014    3.9051 C   0  0  0  0  0  0  0  0  0  0  0  0
    6.4676    1.5390    5.0863 C   0  0  0  0  0  0  0  0  0  0  0  0
    5.7694    0.4967    5.1091 O   0  0  0  0  0  0  0  0  0  0  0  0
    6.9129    2.2492    6.2746 C   0  0  0  0  0  0  0  0  0  0  0  0
    6.5555    1.9717    7.5949 C   0  0  0  0  0  0  0  0  0  0  0  0
    7.0621    2.8083    8.6091 C   0  0  0  0  0  0  0  0  0  0  0  0
    6.6333    2.5943   10.0443 C   0  0  0  0  0  0  0  0  0  0  0  0
    6.5724    1.2433   10.3279 F   0  0  0  0  0  0  0  0  0  0  0  0
    7.5137    3.1945   10.9199 F   0  0  0  0  0  0  0  0  0  0  0  0
    5.3822    3.1447   10.2275 F   0  0  0  0  0  0  0  0  0  0  0  0
    7.8896    3.8995    8.2570 C   0  0  0  0  0  0  0  0  0  0  0  0
    8.2465    4.1426    6.9204 C   0  0  0  0  0  0  0  0  0  0  0  0
    7.7671    3.2717    5.9173 C   0  0  0  0  0  0  0  0  0  0  0  0
    7.9384    3.3028    4.4210 C   0  0  0  0  0  0  0  0  0  0  0  0
    8.6417    4.2292    3.7080 C   0  0  0  0  0  0  0  0  0  0  0  0
    8.5806    4.3277    2.2717 C   0  0  0  0  0  0  0  0  0  0  0  0
    8.5352    4.4303    1.1214 N   0  0  0  0  0  0  0  0  0  0  0  0
    9.4875    5.2322    4.3245 C   0  0  0  0  0  0  0  0  0  0  0  0
   10.1770    6.0340    4.7948 N   0  0  0  0  0  0  0  0  0  0  0  0
   -7.8277    4.0190   -3.9999 H   0  0  0  0  0  0  0  0  0  0  0  0
   -2.2720    3.9903   -4.3427 H   0  0  0  0  0  0  0  0  0  0  0  0
   -4.8847    7.3783   -6.7229 H   0  0  0  0  0  0  0  0  0  0  0  0
   -5.1501    2.3183   -5.2816 H   0  0  0  0  0  0  0  0  0  0  0  0
   -1.2260   -2.6124   -3.1814 H   0  0  0  0  0  0  0  0  0  0  0  0
    2.3038   -4.4927   -2.7570 H   0  0  0  0  0  0  0  0  0  0  0  0
    3.1903   -3.9924   -4.9290 H   0  0  0  0  0  0  0  0  0  0  0  0
    3.0675   -1.6794   -5.8424 H   0  0  0  0  0  0  0  0  0  0  0  0
    1.9738    0.1243   -4.5123 H   0  0  0  0  0  0  0  0  0  0  0  0
    0.9786   -0.3681   -2.3065 H   0  0  0  0  0  0  0  0  0  0  0  0
    1.6596   -4.1122    1.3563 H   0  0  0  0  0  0  0  0  0  0  0  0
    1.1682   -6.3476    2.0766 H   0  0  0  0  0  0  0  0  0  0  0  0
    0.0164   -7.9537    0.5523 H   0  0  0  0  0  0  0  0  0  0  0  0
   -0.6520   -7.2334   -1.7276 H   0  0  0  0  0  0  0  0  0  0  0  0
   -0.2390   -4.9331   -2.4888 H   0  0  0  0  0  0  0  0  0  0  0  0
   -2.6467   -1.1211    1.4424 H   0  0  0  0  0  0  0  0  0  0  0  0
   -4.1702    1.4872   -0.3861 H   0  0  0  0  0  0  0  0  0  0  0  0
   -4.8225    3.0199    1.4349 H   0  0  0  0  0  0  0  0  0  0  0  0
   -6.0528    2.1524    3.4066 H   0  0  0  0  0  0  0  0  0  0  0  0
   -6.6438   -0.2529    3.5582 H   0  0  0  0  0  0  0  0  0  0  0  0
   -6.0161   -1.7930    1.8130 H   0  0  0  0  0  0  0  0  0  0  0  0
   -7.4666   -1.4114   -0.8387 H   0  0  0  0  0  0  0  0  0  0  0  0
   -8.8794   -3.4251   -0.9351 H   0  0  0  0  0  0  0  0  0  0  0  0
   -7.8607   -5.6985   -0.8145 H   0  0  0  0  0  0  0  0  0  0  0  0
   -5.3935   -5.9559   -0.5435 H   0  0  0  0  0  0  0  0  0  0  0  0
   -3.9951   -3.9856   -0.3523 H   0  0  0  0  0  0  0  0  0  0  0  0
    5.3506   -2.7671   -0.0305 H   0  0  0  0  0  0  0  0  0  0  0  0
    3.7913   -3.2087   -0.8138 H   0  0  0  0  0  0  0  0  0  0  0  0
    4.1735   -1.0064   -2.2663 H   0  0  0  0  0  0  0  0  0  0  0  0
    5.1550   -2.4766   -2.6279 H   0  0  0  0  0  0  0  0  0  0  0  0
    5.8737   -1.1146   -1.6732 H   0  0  0  0  0  0  0  0  0  0  0  0
    6.4951   -0.3181    0.6754 H   0  0  0  0  0  0  0  0  0  0  0  0
    7.4487    2.1395    1.8233 H   0  0  0  0  0  0  0  0  0  0  0  0
    5.8865    1.1412    7.8188 H   0  0  0  0  0  0  0  0  0  0  0  0
    8.2613    4.5831    9.0085 H   0  0  0  0  0  0  0  0  0  0  0  0
    8.8706    4.9932    6.7190 H   0  0  0  0  0  0  0  0  0  0  0  0
  1  2  2  3
  2  3  1  0
  3  4  2  0
  3  5  1  0
  5  6  2  0
  6  7  1  0
  7  8  1  0
  7  9  2  0
  9 10  1  0
  9 11  1  0
 11 12  2  0
 12 13  1  0
 13 14  2  3
 14 15  1  0
 15 16  3  0
 14 17  1  0
 17 18  3  0
  1 19  1  0
 19 20  2  0
 20 21  1  0
 21 22  1  0
 22 23  1  0
 23 24  1  0
 24 25  2  0
 25 26  1  0
 26 27  1  0
 27 28  1  0
 28 29  2  0
 29 30  1  0
 30 31  2  0
 31 32  1  0
 32 33  2  0
 27 34  1  0
 34 35  2  0
 35 36  1  0
 36 37  2  0
 37 38  1  0
 38 39  2  0
 27 40  1  0
 40 41  2  0
 41 42  1  0
 42 43  1  0
 43 44  2  0
 44 45  1  0
 45 46  1  0
 46 47  2  0
 47 48  1  0
 48 49  2  0
 49 50  1  0
 50 51  2  0
 45 52  1  0
 52 53  2  0
 53 54  1  0
 54 55  2  0
 55 56  1  0
 56 57  2  0
 45 58  1  0
 58 59  1  0
 59 60  1  0
 41 61  1  0
 61 62  1  0
 62 63  1  0
 63 64  2  0
 64 65  1  0
 65 66  1  0
 66 67  1  0
 65 68  1  0
 64 69  1  0
 69 70  2  0
 70 71  1  0
 70 72  1  0
 72 73  2  3
 73 74  1  0
 74 75  2  0
 74 76  1  0
 76 77  2  0
 77 78  1  0
 78 79  1  0
 79 80  1  0
 79 81  1  0
 79 82  1  0
 78 83  2  0
 83 84  1  0
 84 85  2  0
 85 86  1  0
 86 87  2  3
 87 88  1  0
 88 89  3  0
 87 90  1  0
 90 91  3  0
 13  2  1  0
 60 19  1  0
 68 62  2  0
 86 73  1  0
 12  5  1  0
 59 21  2  0
 71 63  1  0
 85 76  1  0
 58 23  2  0
 44 24  1  0
 51 46  1  0
 57 52  1  0
 42 26  2  0
 33 28  1  0
 39 34  1  0
 68 40  1  0
  1 92  1  0
  6 93  1  0
 11 94  1  0
 20 95  1  0
 25 96  1  0
 29 97  1  0
 30 98  1  0
 31 99  1  0
 32100  1  0
 33101  1  0
 35102  1  0
 36103  1  0
 37104  1  0
 38105  1  0
 39106  1  0
 43107  1  0
 47108  1  0
 48109  1  0
 49110  1  0
 50111  1  0
 51112  1  0
 53113  1  0
 54114  1  0
 55115  1  0
 56116  1  0
 57117  1  0
 66118  1  0
 66119  1  0
 67120  1  0
 67121  1  0
 67122  1  0
 69123  1  0
 72124  1  0
 77125  1  0
 83126  1  0
 84127  1  0
M  END

