
     RDKit          3D

110122  0  0  0  0  0  0  0  0999 V2000
   -3.0645   -5.4412    4.5985 C   0  0  0  0  0  0  0  0  0  0  0  0
   -3.4786   -4.4877    5.4532 C   0  0  0  0  0  0  0  0  0  0  0  0
   -3.8902   -4.7900    6.8239 C   0  0  0  0  0  0  0  0  0  0  0  0
   -4.2077   -5.9252    7.2706 O   0  0  0  0  0  0  0  0  0  0  0  0
   -3.7576   -3.5832    7.6132 C   0  0  0  0  0  0  0  0  0  0  0  0
   -3.9000   -3.4292    8.9914 C   0  0  0  0  0  0  0  0  0  0  0  0
   -3.6342   -2.1714    9.5543 C   0  0  0  0  0  0  0  0  0  0  0  0
   -3.7648   -1.9903   10.8928 F   0  0  0  0  0  0  0  0  0  0  0  0
   -3.2082   -1.1064    8.7386 C   0  0  0  0  0  0  0  0  0  0  0  0
   -2.9308    0.1009    9.2921 F   0  0  0  0  0  0  0  0  0  0  0  0
   -3.0607   -1.2867    7.3527 C   0  0  0  0  0  0  0  0  0  0  0  0
   -3.3627   -2.5388    6.7950 C   0  0  0  0  0  0  0  0  0  0  0  0
   -3.3114   -3.0052    5.3842 C   0  0  0  0  0  0  0  0  0  0  0  0
   -3.5131   -2.2336    4.2876 C   0  0  0  0  0  0  0  0  0  0  0  0
   -3.4804   -0.7946    4.3337 C   0  0  0  0  0  0  0  0  0  0  0  0
   -3.4538    0.3625    4.3546 N   0  0  0  0  0  0  0  0  0  0  0  0
   -3.9198   -2.7994    3.0253 C   0  0  0  0  0  0  0  0  0  0  0  0
   -4.2493   -3.2441    2.0090 N   0  0  0  0  0  0  0  0  0  0  0  0
   -2.1207   -5.2261    3.4828 C   0  0  0  0  0  0  0  0  0  0  0  0
   -2.0093   -6.0432    2.3390 C   0  0  0  0  0  0  0  0  0  0  0  0
   -2.9418   -7.1667    1.9763 C   0  0  0  0  0  0  0  0  0  0  0  0
   -4.2097   -6.6309    1.3213 C   0  0  0  0  0  0  0  0  0  0  0  0
   -0.9599   -5.6131    1.5218 C   0  0  0  0  0  0  0  0  0  0  0  0
   -0.4598   -6.0367   -0.0511 S   0  0  0  0  0  0  0  0  0  0  0  0
    0.7375   -4.8329   -0.0266 C   0  0  0  0  0  0  0  0  0  0  0  0
    1.4031   -4.1041   -0.9653 C   0  0  0  0  0  0  0  0  0  0  0  0
    1.3786   -4.1771   -2.3603 C   0  0  0  0  0  0  0  0  0  0  0  0
    1.8200   -3.1343   -3.1169 C   0  0  0  0  0  0  0  0  0  0  0  0
    1.5986   -3.4056   -4.4094 N   0  0  0  0  0  0  0  0  0  0  0  0
    1.0293   -4.6116   -4.3999 N   0  0  0  0  0  0  0  0  0  0  0  0
    0.5484   -5.2764   -5.6040 C   0  0  0  0  0  0  0  0  0  0  0  0
   -0.8582   -4.7971   -5.9385 C   0  0  0  0  0  0  0  0  0  0  0  0
    0.8558   -5.1060   -3.1733 N   0  0  0  0  0  0  0  0  0  0  0  0
    2.3350   -1.9943   -2.5105 C   0  0  0  0  0  0  0  0  0  0  0  0
    2.8371   -0.8260   -3.0008 C   0  0  0  0  0  0  0  0  0  0  0  0
    3.0694   -0.0166   -4.4750 S   0  0  0  0  0  0  0  0  0  0  0  0
    3.7475    1.3232   -3.6502 C   0  0  0  0  0  0  0  0  0  0  0  0
    4.1350    2.6020   -4.0529 C   0  0  0  0  0  0  0  0  0  0  0  0
    4.0879    3.0736   -5.4805 C   0  0  0  0  0  0  0  0  0  0  0  0
    5.4264    2.8350   -6.1682 C   0  0  0  0  0  0  0  0  0  0  0  0
    4.5043    3.3965   -2.9440 C   0  0  0  0  0  0  0  0  0  0  0  0
    4.3220    2.4861   -1.5085 S   0  0  0  0  0  0  0  0  0  0  0  0
    3.7960    1.1111   -2.2976 C   0  0  0  0  0  0  0  0  0  0  0  0
    3.2586   -0.1082   -1.9317 C   0  0  0  0  0  0  0  0  0  0  0  0
    3.0748   -0.7430   -0.7481 N   0  0  0  0  0  0  0  0  0  0  0  0
    2.4249   -1.8958   -1.1085 C   0  0  0  0  0  0  0  0  0  0  0  0
    1.8551   -2.9385   -0.3099 C   0  0  0  0  0  0  0  0  0  0  0  0
    1.3742   -2.9016    0.9797 N   0  0  0  0  0  0  0  0  0  0  0  0
    0.7289   -4.0933    1.1159 C   0  0  0  0  0  0  0  0  0  0  0  0
   -0.2494   -4.5399    1.9982 C   0  0  0  0  0  0  0  0  0  0  0  0
   -0.8896   -4.0412    3.4602 S   0  0  0  0  0  0  0  0  0  0  0  0
    1.0840   -1.7126    1.7958 C   0  0  0  0  0  0  0  0  0  0  0  0
    1.8045   -1.7713    3.1463 C   0  0  0  0  0  0  0  0  0  0  0  0
    3.8648   -0.4960    0.4638 C   0  0  0  0  0  0  0  0  0  0  0  0
    5.3595   -0.6648    0.1973 C   0  0  0  0  0  0  0  0  0  0  0  0
    4.8185    4.8400   -3.0322 C   0  0  0  0  0  0  0  0  0  0  0  0
    4.0478    5.7734   -2.4471 C   0  0  0  0  0  0  0  0  0  0  0  0
    3.4194    6.8164   -3.2651 C   0  0  0  0  0  0  0  0  0  0  0  0
    3.9354    7.3820   -4.2656 O   0  0  0  0  0  0  0  0  0  0  0  0
    2.0419    6.9695   -2.8246 C   0  0  0  0  0  0  0  0  0  0  0  0
    0.9945    7.6229   -3.4735 C   0  0  0  0  0  0  0  0  0  0  0  0
   -0.3104    7.4592   -2.9722 C   0  0  0  0  0  0  0  0  0  0  0  0
   -1.4008    8.0681   -3.6120 C   0  0  0  0  0  0  0  0  0  0  0  0
   -2.6976    7.8730   -3.1272 C   0  0  0  0  0  0  0  0  0  0  0  0
   -3.7452    8.4631   -3.7541 F   0  0  0  0  0  0  0  0  0  0  0  0
   -2.9189    7.0685   -2.0041 C   0  0  0  0  0  0  0  0  0  0  0  0
   -4.1810    6.8829   -1.5416 F   0  0  0  0  0  0  0  0  0  0  0  0
   -1.8433    6.4519   -1.3581 C   0  0  0  0  0  0  0  0  0  0  0  0
   -0.5351    6.6369   -1.8294 C   0  0  0  0  0  0  0  0  0  0  0  0
    0.5460    5.9903   -1.1988 C   0  0  0  0  0  0  0  0  0  0  0  0
    1.8346    6.1818   -1.7082 C   0  0  0  0  0  0  0  0  0  0  0  0
    3.1119    5.5459   -1.3172 C   0  0  0  0  0  0  0  0  0  0  0  0
    3.4957    5.2431   -0.0574 C   0  0  0  0  0  0  0  0  0  0  0  0
    4.8910    5.0804    0.2708 C   0  0  0  0  0  0  0  0  0  0  0  0
    6.0129    4.9556    0.5319 N   0  0  0  0  0  0  0  0  0  0  0  0
    2.5667    5.1761    1.0394 C   0  0  0  0  0  0  0  0  0  0  0  0
    1.8289    5.1084    1.9320 N   0  0  0  0  0  0  0  0  0  0  0  0
   -3.3118   -6.4696    4.8306 H   0  0  0  0  0  0  0  0  0  0  0  0
   -4.1964   -4.2612    9.6165 H   0  0  0  0  0  0  0  0  0  0  0  0
   -2.6900   -0.4689    6.7558 H   0  0  0  0  0  0  0  0  0  0  0  0
   -3.2105   -7.7519    2.8797 H   0  0  0  0  0  0  0  0  0  0  0  0
   -2.4376   -7.8646    1.2739 H   0  0  0  0  0  0  0  0  0  0  0  0
   -4.7713   -5.9908    2.0346 H   0  0  0  0  0  0  0  0  0  0  0  0
   -4.8609   -7.4783    1.0224 H   0  0  0  0  0  0  0  0  0  0  0  0
   -3.9576   -6.0403    0.4148 H   0  0  0  0  0  0  0  0  0  0  0  0
    1.2295   -5.0493   -6.4505 H   0  0  0  0  0  0  0  0  0  0  0  0
    0.5403   -6.3779   -5.4488 H   0  0  0  0  0  0  0  0  0  0  0  0
   -0.8536   -3.6992   -6.1129 H   0  0  0  0  0  0  0  0  0  0  0  0
   -1.5493   -5.0331   -5.1018 H   0  0  0  0  0  0  0  0  0  0  0  0
   -1.2173   -5.3068   -6.8584 H   0  0  0  0  0  0  0  0  0  0  0  0
    3.2925    2.5277   -6.0312 H   0  0  0  0  0  0  0  0  0  0  0  0
    3.8314    4.1526   -5.5246 H   0  0  0  0  0  0  0  0  0  0  0  0
    6.2330    3.3890   -5.6441 H   0  0  0  0  0  0  0  0  0  0  0  0
    5.6699    1.7521   -6.1719 H   0  0  0  0  0  0  0  0  0  0  0  0
    5.3741    3.1943   -7.2178 H   0  0  0  0  0  0  0  0  0  0  0  0
    1.3599   -0.7872    1.2566 H   0  0  0  0  0  0  0  0  0  0  0  0
   -0.0105   -1.6323    1.9655 H   0  0  0  0  0  0  0  0  0  0  0  0
    1.9064   -0.7453    3.5584 H   0  0  0  0  0  0  0  0  0  0  0  0
    1.2363   -2.3751    3.8770 H   0  0  0  0  0  0  0  0  0  0  0  0
    2.8142   -2.2224    3.0503 H   0  0  0  0  0  0  0  0  0  0  0  0
    3.6556    0.5239    0.8468 H   0  0  0  0  0  0  0  0  0  0  0  0
    3.6131   -1.2329    1.2368 H   0  0  0  0  0  0  0  0  0  0  0  0
    5.7310    0.0987   -0.5155 H   0  0  0  0  0  0  0  0  0  0  0  0
    5.9215   -0.5544    1.1503 H   0  0  0  0  0  0  0  0  0  0  0  0
    5.5596   -1.6748   -0.2199 H   0  0  0  0  0  0  0  0  0  0  0  0
    5.3509    5.1389   -3.9277 H   0  0  0  0  0  0  0  0  0  0  0  0
    1.1836    8.2025   -4.3698 H   0  0  0  0  0  0  0  0  0  0  0  0
   -1.2497    8.6859   -4.4904 H   0  0  0  0  0  0  0  0  0  0  0  0
   -2.0345    5.8262   -0.4948 H   0  0  0  0  0  0  0  0  0  0  0  0
    0.3700    5.3164   -0.3728 H   0  0  0  0  0  0  0  0  0  0  0  0
  1  2  2  3
  2  3  1  0
  3  4  2  0
  3  5  1  0
  5  6  2  0
  6  7  1  0
  7  8  1  0
  7  9  2  0
  9 10  1  0
  9 11  1  0
 11 12  2  0
 12 13  1  0
 13 14  2  3
 14 15  1  0
 15 16  3  0
 14 17  1  0
 17 18  3  0
  1 19  1  0
 19 20  2  0
 20 21  1  0
 21 22  1  0
 20 23  1  0
 23 24  1  0
 24 25  1  0
 25 26  1  0
 26 27  1  0
 27 28  1  0
 28 29  2  0
 29 30  1  0
 30 31  1  0
 31 32  1  0
 30 33  1  0
 28 34  1  0
 34 35  1  0
 35 36  1  0
 36 37  1  0
 37 38  1  0
 38 39  1  0
 39 40  1  0
 38 41  2  0
 41 42  1  0
 42 43  1  0
 43 44  1  0
 44 45  1  0
 45 46  1  0
 46 47  1  0
 47 48  1  0
 48 49  1  0
 49 50  1  0
 50 51  1  0
 48 52  1  0
 52 53  1  0
 45 54  1  0
 54 55  1  0
 41 56  1  0
 56 57  2  3
 57 58  1  0
 58 59  2  0
 58 60  1  0
 60 61  2  0
 61 62  1  0
 62 63  2  0
 63 64  1  0
 64 65  1  0
 64 66  2  0
 66 67  1  0
 66 68  1  0
 68 69  2  0
 69 70  1  0
 70 71  2  0
 71 72  1  0
 72 73  2  3
 73 74  1  0
 74 75  3  0
 73 76  1  0
 76 77  3  0
 13  2  1  0
 51 19  1  0
 72 57  1  0
 12  5  1  0
 50 23  2  0
 71 60  1  0
 49 25  2  0
 69 62  1  0
 47 26  2  0
 33 27  2  0
 46 34  2  0
 44 35  2  0
 43 37  2  0
  1 78  1  0
  6 79  1  0
 11 80  1  0
 21 81  1  0
 21 82  1  0
 22 83  1  0
 22 84  1  0
 22 85  1  0
 31 86  1  0
 31 87  1  0
 32 88  1  0
 32 89  1  0
 32 90  1  0
 39 91  1  0
 39 92  1  0
 40 93  1  0
 40 94  1  0
 40 95  1  0
 52 96  1  0
 52 97  1  0
 53 98  1  0
 53 99  1  0
 53100  1  0
 54101  1  0
 54102  1  0
 55103  1  0
 55104  1  0
 55105  1  0
 56106  1  0
 61107  1  0
 63108  1  0
 68109  1  0
 70110  1  0
M  END

