
     RDKit          3D

104115  0  0  0  0  0  0  0  0999 V2000
    6.5000    4.2398   -2.8877 C   0  0  0  0  0  0  0  0  0  0  0  0
    5.8367    5.1910   -3.5781 C   0  0  0  0  0  0  0  0  0  0  0  0
    4.4227    5.5452   -3.4169 C   0  0  0  0  0  0  0  0  0  0  0  0
    3.7275    5.3976   -2.3760 O   0  0  0  0  0  0  0  0  0  0  0  0
    3.9819    6.2137   -4.6223 C   0  0  0  0  0  0  0  0  0  0  0  0
    2.6870    6.6000   -4.9661 C   0  0  0  0  0  0  0  0  0  0  0  0
    2.4745    7.1652   -6.2309 C   0  0  0  0  0  0  0  0  0  0  0  0
    1.2251    7.5451   -6.6000 F   0  0  0  0  0  0  0  0  0  0  0  0
    3.5476    7.3102   -7.1306 C   0  0  0  0  0  0  0  0  0  0  0  0
    3.3279    7.8203   -8.3669 F   0  0  0  0  0  0  0  0  0  0  0  0
    4.8422    6.9100   -6.7632 C   0  0  0  0  0  0  0  0  0  0  0  0
    5.0552    6.3816   -5.4790 C   0  0  0  0  0  0  0  0  0  0  0  0
    6.2996    5.8819   -4.8234 C   0  0  0  0  0  0  0  0  0  0  0  0
    7.5782    6.1827   -5.1636 C   0  0  0  0  0  0  0  0  0  0  0  0
    7.9064    6.9189   -6.3578 C   0  0  0  0  0  0  0  0  0  0  0  0
    8.1859    7.5060   -7.3180 N   0  0  0  0  0  0  0  0  0  0  0  0
    8.6957    5.8895   -4.3029 C   0  0  0  0  0  0  0  0  0  0  0  0
    9.6003    5.6624   -3.6153 N   0  0  0  0  0  0  0  0  0  0  0  0
    5.8715    3.3268   -1.9124 C   0  0  0  0  0  0  0  0  0  0  0  0
    6.4988    2.8055   -0.7603 C   0  0  0  0  0  0  0  0  0  0  0  0
    7.8646    3.1924   -0.2747 C   0  0  0  0  0  0  0  0  0  0  0  0
    8.9277    2.2830   -0.8830 C   0  0  0  0  0  0  0  0  0  0  0  0
    5.7135    1.8090   -0.1686 C   0  0  0  0  0  0  0  0  0  0  0  0
    5.8862    0.8296    1.2239 S   0  0  0  0  0  0  0  0  0  0  0  0
    4.4104    0.0534    0.8914 C   0  0  0  0  0  0  0  0  0  0  0  0
    3.5079   -0.7569    1.5163 C   0  0  0  0  0  0  0  0  0  0  0  0
    3.4639   -1.2758    2.8127 C   0  0  0  0  0  0  0  0  0  0  0  0
    2.3170   -1.8308    3.2989 C   0  0  0  0  0  0  0  0  0  0  0  0
    2.5239   -2.2197    4.5643 N   0  0  0  0  0  0  0  0  0  0  0  0
    3.7859   -1.8655    4.8167 N   0  0  0  0  0  0  0  0  0  0  0  0
    4.4525   -2.1209    6.0859 C   0  0  0  0  0  0  0  0  0  0  0  0
    5.1566   -3.4693    6.0414 C   0  0  0  0  0  0  0  0  0  0  0  0
    4.3951   -1.2856    3.7778 N   0  0  0  0  0  0  0  0  0  0  0  0
    1.1780   -1.9113    2.5003 C   0  0  0  0  0  0  0  0  0  0  0  0
   -0.0478   -2.4742    2.6870 C   0  0  0  0  0  0  0  0  0  0  0  0
   -0.9339   -3.2783    3.8886 S   0  0  0  0  0  0  0  0  0  0  0  0
   -2.2143   -3.5453    2.7895 C   0  0  0  0  0  0  0  0  0  0  0  0
   -3.4859   -4.1077    2.9101 C   0  0  0  0  0  0  0  0  0  0  0  0
   -4.0476   -4.6855    4.1791 C   0  0  0  0  0  0  0  0  0  0  0  0
   -3.9635   -6.2074    4.1643 C   0  0  0  0  0  0  0  0  0  0  0  0
   -4.1741   -4.0446    1.6867 C   0  0  0  0  0  0  0  0  0  0  0  0
   -3.2127   -3.2904    0.5034 S   0  0  0  0  0  0  0  0  0  0  0  0
   -1.9230   -3.0477    1.5433 C   0  0  0  0  0  0  0  0  0  0  0  0
   -0.6917   -2.4155    1.4955 C   0  0  0  0  0  0  0  0  0  0  0  0
    0.0438   -1.8295    0.5139 N   0  0  0  0  0  0  0  0  0  0  0  0
    1.1931   -1.4537    1.1667 C   0  0  0  0  0  0  0  0  0  0  0  0
    2.3625   -0.7767    0.6892 C   0  0  0  0  0  0  0  0  0  0  0  0
    2.5211    0.0902   -0.3672 N   0  0  0  0  0  0  0  0  0  0  0  0
    3.7971    0.5368   -0.2159 C   0  0  0  0  0  0  0  0  0  0  0  0
    4.5331    1.5475   -0.8166 C   0  0  0  0  0  0  0  0  0  0  0  0
    4.3959    2.5086   -2.1770 S   0  0  0  0  0  0  0  0  0  0  0  0
    1.4807    0.8518   -1.0728 C   0  0  0  0  0  0  0  0  0  0  0  0
    0.6576    1.6972   -0.1030 C   0  0  0  0  0  0  0  0  0  0  0  0
   -0.1110   -2.1279   -0.9159 C   0  0  0  0  0  0  0  0  0  0  0  0
   -1.2391   -1.3091   -1.5536 C   0  0  0  0  0  0  0  0  0  0  0  0
   -5.5517   -4.4898    1.4520 C   0  0  0  0  0  0  0  0  0  0  0  0
   -6.6189   -3.7036    1.6833 C   0  0  0  0  0  0  0  0  0  0  0  0
   -6.5749   -2.3932    2.3435 C   0  0  0  0  0  0  0  0  0  0  0  0
   -5.5493   -1.6947    2.5583 O   0  0  0  0  0  0  0  0  0  0  0  0
   -7.9183   -2.0362    2.7333 C   0  0  0  0  0  0  0  0  0  0  0  0
   -8.3233   -0.9383    3.4912 C   0  0  0  0  0  0  0  0  0  0  0  0
   -9.6741   -0.8286    3.8396 C   0  0  0  0  0  0  0  0  0  0  0  0
  -10.0903    0.2223    4.5896 F   0  0  0  0  0  0  0  0  0  0  0  0
  -10.5901   -1.8182    3.4345 C   0  0  0  0  0  0  0  0  0  0  0  0
  -11.8950   -1.7168    3.7915 F   0  0  0  0  0  0  0  0  0  0  0  0
  -10.1581   -2.9231    2.6761 C   0  0  0  0  0  0  0  0  0  0  0  0
   -8.8039   -3.0152    2.3110 C   0  0  0  0  0  0  0  0  0  0  0  0
   -8.0660   -4.0653    1.5475 C   0  0  0  0  0  0  0  0  0  0  0  0
   -8.6043   -5.0183    0.7418 C   0  0  0  0  0  0  0  0  0  0  0  0
  -10.0225   -5.2195    0.6137 C   0  0  0  0  0  0  0  0  0  0  0  0
  -11.1585   -5.4033    0.4925 N   0  0  0  0  0  0  0  0  0  0  0  0
   -7.8027   -5.8350   -0.1342 C   0  0  0  0  0  0  0  0  0  0  0  0
   -7.1685   -6.4907   -0.8453 N   0  0  0  0  0  0  0  0  0  0  0  0
    7.5260    4.0171   -3.1232 H   0  0  0  0  0  0  0  0  0  0  0  0
    1.8580    6.4541   -4.2821 H   0  0  0  0  0  0  0  0  0  0  0  0
    5.6325    6.9901   -7.4877 H   0  0  0  0  0  0  0  0  0  0  0  0
    7.9057    3.1164    0.8323 H   0  0  0  0  0  0  0  0  0  0  0  0
    8.0834    4.2476   -0.5460 H   0  0  0  0  0  0  0  0  0  0  0  0
    8.7584    1.2284   -0.5754 H   0  0  0  0  0  0  0  0  0  0  0  0
    8.9061    2.3474   -1.9910 H   0  0  0  0  0  0  0  0  0  0  0  0
    9.9329    2.5953   -0.5334 H   0  0  0  0  0  0  0  0  0  0  0  0
    3.7049   -2.1247    6.9095 H   0  0  0  0  0  0  0  0  0  0  0  0
    5.1993   -1.3209    6.2911 H   0  0  0  0  0  0  0  0  0  0  0  0
    4.4149   -4.2869    5.8965 H   0  0  0  0  0  0  0  0  0  0  0  0
    5.8930   -3.4900    5.2050 H   0  0  0  0  0  0  0  0  0  0  0  0
    5.6991   -3.6417    6.9980 H   0  0  0  0  0  0  0  0  0  0  0  0
   -3.4895   -4.2961    5.0576 H   0  0  0  0  0  0  0  0  0  0  0  0
   -5.1066   -4.3748    4.2909 H   0  0  0  0  0  0  0  0  0  0  0  0
   -4.5209   -6.6175    3.2954 H   0  0  0  0  0  0  0  0  0  0  0  0
   -2.9022   -6.5338    4.1107 H   0  0  0  0  0  0  0  0  0  0  0  0
   -4.4154   -6.6092    5.0954 H   0  0  0  0  0  0  0  0  0  0  0  0
    1.9304    1.5260   -1.8235 H   0  0  0  0  0  0  0  0  0  0  0  0
    0.8394    0.1960   -1.6633 H   0  0  0  0  0  0  0  0  0  0  0  0
    0.0628    1.0439    0.5673 H   0  0  0  0  0  0  0  0  0  0  0  0
    1.3288    2.3347    0.5135 H   0  0  0  0  0  0  0  0  0  0  0  0
   -0.0378    2.3502   -0.6713 H   0  0  0  0  0  0  0  0  0  0  0  0
    0.8483   -1.9615   -1.4470 H   0  0  0  0  0  0  0  0  0  0  0  0
   -0.3281   -3.2125   -1.0470 H   0  0  0  0  0  0  0  0  0  0  0  0
   -2.1798   -1.8868   -1.5827 H   0  0  0  0  0  0  0  0  0  0  0  0
   -0.9749   -1.0741   -2.6063 H   0  0  0  0  0  0  0  0  0  0  0  0
   -1.4119   -0.3625   -1.0017 H   0  0  0  0  0  0  0  0  0  0  0  0
   -5.6630   -5.5038    1.1067 H   0  0  0  0  0  0  0  0  0  0  0  0
   -7.6057   -0.1991    3.8247 H   0  0  0  0  0  0  0  0  0  0  0  0
  -10.8765   -3.6855    2.4279 H   0  0  0  0  0  0  0  0  0  0  0  0
  1  2  2  3
  2  3  1  0
  3  4  2  0
  3  5  1  0
  5  6  2  0
  6  7  1  0
  7  8  1  0
  7  9  2  0
  9 10  1  0
  9 11  1  0
 11 12  2  0
 12 13  1  0
 13 14  2  3
 14 15  1  0
 15 16  3  0
 14 17  1  0
 17 18  3  0
  1 19  1  0
 19 20  2  0
 20 21  1  0
 21 22  1  0
 20 23  1  0
 23 24  1  0
 24 25  1  0
 25 26  1  0
 26 27  1  0
 27 28  1  0
 28 29  2  0
 29 30  1  0
 30 31  1  0
 31 32  1  0
 30 33  1  0
 28 34  1  0
 34 35  1  0
 35 36  1  0
 36 37  1  0
 37 38  1  0
 38 39  1  0
 39 40  1  0
 38 41  2  0
 41 42  1  0
 42 43  1  0
 43 44  1  0
 44 45  1  0
 45 46  1  0
 46 47  1  0
 47 48  1  0
 48 49  1  0
 49 50  1  0
 50 51  1  0
 48 52  1  0
 52 53  1  0
 45 54  1  0
 54 55  1  0
 41 56  1  0
 56 57  2  3
 57 58  1  0
 58 59  2  0
 58 60  1  0
 60 61  2  0
 61 62  1  0
 62 63  1  0
 62 64  2  0
 64 65  1  0
 64 66  1  0
 66 67  2  0
 67 68  1  0
 68 69  2  3
 69 70  1  0
 70 71  3  0
 69 72  1  0
 72 73  3  0
 13  2  1  0
 51 19  1  0
 68 57  1  0
 12  5  1  0
 50 23  2  0
 67 60  1  0
 49 25  2  0
 47 26  2  0
 33 27  2  0
 46 34  2  0
 44 35  2  0
 43 37  2  0
  1 74  1  0
  6 75  1  0
 11 76  1  0
 21 77  1  0
 21 78  1  0
 22 79  1  0
 22 80  1  0
 22 81  1  0
 31 82  1  0
 31 83  1  0
 32 84  1  0
 32 85  1  0
 32 86  1  0
 39 87  1  0
 39 88  1  0
 40 89  1  0
 40 90  1  0
 40 91  1  0
 52 92  1  0
 52 93  1  0
 53 94  1  0
 53 95  1  0
 53 96  1  0
 54 97  1  0
 54 98  1  0
 55 99  1  0
 55100  1  0
 55101  1  0
 56102  1  0
 61103  1  0
 66104  1  0
M  END

