
     RDKit          3D

156171  0  0  0  0  0  0  0  0999 V2000
    6.3043    6.0165    1.6967 C   0  0  0  0  0  0  0  0  0  0  0  0
    6.9965    5.8011    0.5611 C   0  0  0  0  0  0  0  0  0  0  0  0
    8.3952    6.1925    0.3954 C   0  0  0  0  0  0  0  0  0  0  0  0
    9.0309    7.0161    1.1064 O   0  0  0  0  0  0  0  0  0  0  0  0
    8.9458    5.4283   -0.7042 C   0  0  0  0  0  0  0  0  0  0  0  0
   10.2493    5.4462   -1.2075 C   0  0  0  0  0  0  0  0  0  0  0  0
   10.5515    4.6219   -2.3035 C   0  0  0  0  0  0  0  0  0  0  0  0
   11.8060    4.6231   -2.8237 F   0  0  0  0  0  0  0  0  0  0  0  0
    9.5620    3.7870   -2.8562 C   0  0  0  0  0  0  0  0  0  0  0  0
    9.8612    2.9956   -3.9193 F   0  0  0  0  0  0  0  0  0  0  0  0
    8.2586    3.7827   -2.3327 C   0  0  0  0  0  0  0  0  0  0  0  0
    7.9545    4.6260   -1.2517 C   0  0  0  0  0  0  0  0  0  0  0  0
    6.6500    4.9144   -0.5843 C   0  0  0  0  0  0  0  0  0  0  0  0
    5.4411    4.8722   -1.1935 C   0  0  0  0  0  0  0  0  0  0  0  0
    5.1638    4.0139   -2.3110 C   0  0  0  0  0  0  0  0  0  0  0  0
    4.9223    3.3291   -3.2135 N   0  0  0  0  0  0  0  0  0  0  0  0
    4.4480    5.8811   -0.9327 C   0  0  0  0  0  0  0  0  0  0  0  0
    3.6556    6.7031   -0.7501 N   0  0  0  0  0  0  0  0  0  0  0  0
    5.1136    5.2482    2.0912 C   0  0  0  0  0  0  0  0  0  0  0  0
    5.1076    3.6065    2.5361 S   0  0  0  0  0  0  0  0  0  0  0  0
    3.4797    3.6203    2.9432 C   0  0  0  0  0  0  0  0  0  0  0  0
    2.4389    2.6377    3.0551 C   0  0  0  0  0  0  0  0  0  0  0  0
    1.2229    3.2173    2.7732 C   0  0  0  0  0  0  0  0  0  0  0  0
    1.4012    4.7234    2.4901 C   0  0  0  0  0  0  0  0  0  0  0  0
    2.9137    4.8174    2.6370 C   0  0  0  0  0  0  0  0  0  0  0  0
    3.8298    5.7791    2.2046 C   0  0  0  0  0  0  0  0  0  0  0  0
    1.0084    5.0123    1.0269 C   0  0  0  0  0  0  0  0  0  0  0  0
    1.5941    4.2380    0.0002 C   0  0  0  0  0  0  0  0  0  0  0  0
    1.1864    4.3700   -1.3253 C   0  0  0  0  0  0  0  0  0  0  0  0
    0.1579    5.2597   -1.6612 C   0  0  0  0  0  0  0  0  0  0  0  0
   -0.3325    5.3507   -3.0837 C   0  0  0  0  0  0  0  0  0  0  0  0
    0.3350    6.5061   -3.8178 C   0  0  0  0  0  0  0  0  0  0  0  0
   -0.3988    6.0757   -0.6655 C   0  0  0  0  0  0  0  0  0  0  0  0
    0.0217    5.9546    0.6624 C   0  0  0  0  0  0  0  0  0  0  0  0
    0.7794    5.6260    3.5747 C   0  0  0  0  0  0  0  0  0  0  0  0
    0.9662    7.0222    3.5240 C   0  0  0  0  0  0  0  0  0  0  0  0
    0.4615    7.8547    4.5273 C   0  0  0  0  0  0  0  0  0  0  0  0
   -0.2181    7.3072    5.6226 C   0  0  0  0  0  0  0  0  0  0  0  0
   -0.7763    8.2084    6.6941 C   0  0  0  0  0  0  0  0  0  0  0  0
   -2.1943    8.6516    6.3426 C   0  0  0  0  0  0  0  0  0  0  0  0
   -0.4041    5.9214    5.6934 C   0  0  0  0  0  0  0  0  0  0  0  0
    0.1016    5.0871    4.6933 C   0  0  0  0  0  0  0  0  0  0  0  0
    0.2345    2.2606    2.4235 C   0  0  0  0  0  0  0  0  0  0  0  0
   -1.0945    2.4561    1.9695 C   0  0  0  0  0  0  0  0  0  0  0  0
   -1.8959    3.7226    2.1683 C   0  0  0  0  0  0  0  0  0  0  0  0
   -2.9155    3.5510    3.2932 C   0  0  0  0  0  0  0  0  0  0  0  0
   -1.7816    1.3569    1.4238 C   0  0  0  0  0  0  0  0  0  0  0  0
   -1.2483    0.0550    1.4838 C   0  0  0  0  0  0  0  0  0  0  0  0
   -1.9390   -1.0456    0.9605 C   0  0  0  0  0  0  0  0  0  0  0  0
   -3.3228   -0.9845   -0.0252 S   0  0  0  0  0  0  0  0  0  0  0  0
   -3.3990   -2.6441   -0.1528 C   0  0  0  0  0  0  0  0  0  0  0  0
   -4.0836   -3.5531   -1.0209 C   0  0  0  0  0  0  0  0  0  0  0  0
   -3.4885   -4.7722   -0.8908 C   0  0  0  0  0  0  0  0  0  0  0  0
   -2.4403   -4.7991    0.2208 C   0  0  0  0  0  0  0  0  0  0  0  0
   -1.1250   -5.3399   -0.3455 C   0  0  0  0  0  0  0  0  0  0  0  0
   -0.5554   -6.5575    0.0868 C   0  0  0  0  0  0  0  0  0  0  0  0
    0.6154   -7.0455   -0.5002 C   0  0  0  0  0  0  0  0  0  0  0  0
    1.2516   -6.3323   -1.5268 C   0  0  0  0  0  0  0  0  0  0  0  0
    2.5118   -6.8619   -2.1652 C   0  0  0  0  0  0  0  0  0  0  0  0
    2.1946   -7.7862   -3.3355 C   0  0  0  0  0  0  0  0  0  0  0  0
    0.6770   -5.1398   -1.9890 C   0  0  0  0  0  0  0  0  0  0  0  0
   -0.4906   -4.6459   -1.3980 C   0  0  0  0  0  0  0  0  0  0  0  0
   -3.0443   -5.5760    1.4112 C   0  0  0  0  0  0  0  0  0  0  0  0
   -3.6382   -6.8412    1.2016 C   0  0  0  0  0  0  0  0  0  0  0  0
   -4.3459   -7.4848    2.2210 C   0  0  0  0  0  0  0  0  0  0  0  0
   -4.4487   -6.9020    3.4904 C   0  0  0  0  0  0  0  0  0  0  0  0
   -5.2961   -7.5397    4.5586 C   0  0  0  0  0  0  0  0  0  0  0  0
   -6.6972   -6.9297    4.5585 C   0  0  0  0  0  0  0  0  0  0  0  0
   -3.8253   -5.6713    3.7319 C   0  0  0  0  0  0  0  0  0  0  0  0
   -3.1357   -5.0155    2.7060 C   0  0  0  0  0  0  0  0  0  0  0  0
   -2.3792   -3.2841    0.5063 C   0  0  0  0  0  0  0  0  0  0  0  0
   -1.4959   -2.3726    1.1486 C   0  0  0  0  0  0  0  0  0  0  0  0
   -0.2963   -2.5998    1.8784 C   0  0  0  0  0  0  0  0  0  0  0  0
    0.2300   -3.9587    2.2677 C   0  0  0  0  0  0  0  0  0  0  0  0
    1.5337   -4.2819    1.5311 C   0  0  0  0  0  0  0  0  0  0  0  0
    0.4558   -1.4809    2.3021 C   0  0  0  0  0  0  0  0  0  0  0  0
    0.0013   -0.1646    2.0967 C   0  0  0  0  0  0  0  0  0  0  0  0
    0.7553    0.9550    2.4772 C   0  0  0  0  0  0  0  0  0  0  0  0
    2.4068    0.9745    2.8814 S   0  0  0  0  0  0  0  0  0  0  0  0
   -3.6647   -5.6061   -2.0015 C   0  0  0  0  0  0  0  0  0  0  0  0
   -4.3784   -4.9636   -3.0193 C   0  0  0  0  0  0  0  0  0  0  0  0
   -4.7644   -3.3770   -2.5436 S   0  0  0  0  0  0  0  0  0  0  0  0
   -4.6633   -5.5155   -4.3558 C   0  0  0  0  0  0  0  0  0  0  0  0
   -3.7300   -6.0249   -5.1849 C   0  0  0  0  0  0  0  0  0  0  0  0
   -2.2736   -5.8741   -5.0361 C   0  0  0  0  0  0  0  0  0  0  0  0
   -1.6600   -5.4895   -4.0102 O   0  0  0  0  0  0  0  0  0  0  0  0
   -1.6457   -6.1419   -6.3115 C   0  0  0  0  0  0  0  0  0  0  0  0
   -2.6147   -6.4863   -7.2375 C   0  0  0  0  0  0  0  0  0  0  0  0
   -2.2616   -6.6350   -8.5907 C   0  0  0  0  0  0  0  0  0  0  0  0
   -0.9180   -6.4797   -8.9687 C   0  0  0  0  0  0  0  0  0  0  0  0
   -0.5647   -6.6069  -10.2741 F   0  0  0  0  0  0  0  0  0  0  0  0
    0.0565   -6.1497   -8.0072 C   0  0  0  0  0  0  0  0  0  0  0  0
    1.3497   -5.9765   -8.3876 F   0  0  0  0  0  0  0  0  0  0  0  0
   -0.3092   -5.9608   -6.6673 C   0  0  0  0  0  0  0  0  0  0  0  0
    0.6142   -5.5747   -5.7509 F   0  0  0  0  0  0  0  0  0  0  0  0
   -3.9489   -6.5419   -6.5721 C   0  0  0  0  0  0  0  0  0  0  0  0
   -5.0617   -7.1608   -7.0396 C   0  0  0  0  0  0  0  0  0  0  0  0
   -6.2400   -7.3365   -6.2340 C   0  0  0  0  0  0  0  0  0  0  0  0
   -7.1977   -7.4784   -5.5948 N   0  0  0  0  0  0  0  0  0  0  0  0
   -5.1035   -7.8080   -8.3271 C   0  0  0  0  0  0  0  0  0  0  0  0
   -5.1528   -8.3338   -9.3586 N   0  0  0  0  0  0  0  0  0  0  0  0
    6.7140    6.6866    2.4408 H   0  0  0  0  0  0  0  0  0  0  0  0
   11.0037    6.0928   -0.7767 H   0  0  0  0  0  0  0  0  0  0  0  0
    7.5242    3.1218   -2.7667 H   0  0  0  0  0  0  0  0  0  0  0  0
    3.5635    6.7834    1.9052 H   0  0  0  0  0  0  0  0  0  0  0  0
    2.3590    3.5076    0.2254 H   0  0  0  0  0  0  0  0  0  0  0  0
    1.6478    3.7468   -2.0860 H   0  0  0  0  0  0  0  0  0  0  0  0
   -1.4372    5.4994   -3.0874 H   0  0  0  0  0  0  0  0  0  0  0  0
   -0.1274    4.3978   -3.6230 H   0  0  0  0  0  0  0  0  0  0  0  0
   -0.0111    6.5217   -4.8705 H   0  0  0  0  0  0  0  0  0  0  0  0
    1.4368    6.3850   -3.8040 H   0  0  0  0  0  0  0  0  0  0  0  0
    0.0662    7.4693   -3.3393 H   0  0  0  0  0  0  0  0  0  0  0  0
   -1.1786    6.7817   -0.9145 H   0  0  0  0  0  0  0  0  0  0  0  0
   -0.4789    6.5657    1.3997 H   0  0  0  0  0  0  0  0  0  0  0  0
    1.4861    7.4772    2.6885 H   0  0  0  0  0  0  0  0  0  0  0  0
    0.6076    8.9247    4.4499 H   0  0  0  0  0  0  0  0  0  0  0  0
   -0.7950    7.6725    7.6678 H   0  0  0  0  0  0  0  0  0  0  0  0
   -0.1293    9.1023    6.8218 H   0  0  0  0  0  0  0  0  0  0  0  0
   -2.5588    9.3723    7.1065 H   0  0  0  0  0  0  0  0  0  0  0  0
   -2.2115    9.1511    5.3497 H   0  0  0  0  0  0  0  0  0  0  0  0
   -2.8770    7.7754    6.3205 H   0  0  0  0  0  0  0  0  0  0  0  0
   -0.9411    5.4827    6.5289 H   0  0  0  0  0  0  0  0  0  0  0  0
   -0.0575    4.0259    4.8008 H   0  0  0  0  0  0  0  0  0  0  0  0
   -2.4245    3.9909    1.2263 H   0  0  0  0  0  0  0  0  0  0  0  0
   -1.2644    4.5687    2.4386 H   0  0  0  0  0  0  0  0  0  0  0  0
   -2.4009    3.2708    4.2374 H   0  0  0  0  0  0  0  0  0  0  0  0
   -3.4621    4.5075    3.4501 H   0  0  0  0  0  0  0  0  0  0  0  0
   -3.6558    2.7641    3.0347 H   0  0  0  0  0  0  0  0  0  0  0  0
   -2.7788    1.5038    1.0242 H   0  0  0  0  0  0  0  0  0  0  0  0
   -0.9999   -7.1350    0.8856 H   0  0  0  0  0  0  0  0  0  0  0  0
    1.0386   -7.9743   -0.1376 H   0  0  0  0  0  0  0  0  0  0  0  0
    3.1357   -6.0120   -2.5261 H   0  0  0  0  0  0  0  0  0  0  0  0
    3.1193   -7.4133   -1.4108 H   0  0  0  0  0  0  0  0  0  0  0  0
    1.7588   -8.7356   -2.9624 H   0  0  0  0  0  0  0  0  0  0  0  0
    3.1294   -8.0122   -3.8928 H   0  0  0  0  0  0  0  0  0  0  0  0
    1.4784   -7.3032   -4.0295 H   0  0  0  0  0  0  0  0  0  0  0  0
    1.1312   -4.5941   -2.8091 H   0  0  0  0  0  0  0  0  0  0  0  0
   -0.9080   -3.7195   -1.7765 H   0  0  0  0  0  0  0  0  0  0  0  0
   -3.5881   -7.3167    0.2280 H   0  0  0  0  0  0  0  0  0  0  0  0
   -4.8277   -8.4352    2.0106 H   0  0  0  0  0  0  0  0  0  0  0  0
   -4.8363   -7.3914    5.5583 H   0  0  0  0  0  0  0  0  0  0  0  0
   -5.3847   -8.6381    4.3852 H   0  0  0  0  0  0  0  0  0  0  0  0
   -7.3321   -7.4371    5.3186 H   0  0  0  0  0  0  0  0  0  0  0  0
   -6.6484   -5.8449    4.8128 H   0  0  0  0  0  0  0  0  0  0  0  0
   -7.1778   -7.0499    3.5614 H   0  0  0  0  0  0  0  0  0  0  0  0
   -3.9022   -5.2006    4.7052 H   0  0  0  0  0  0  0  0  0  0  0  0
   -2.7085   -4.0513    2.9391 H   0  0  0  0  0  0  0  0  0  0  0  0
   -0.5105   -4.7492    2.1029 H   0  0  0  0  0  0  0  0  0  0  0  0
    0.4372   -3.9681    3.3644 H   0  0  0  0  0  0  0  0  0  0  0  0
    1.7659   -5.3645    1.6423 H   0  0  0  0  0  0  0  0  0  0  0  0
    1.4532   -4.0367    0.4550 H   0  0  0  0  0  0  0  0  0  0  0  0
    2.3744   -3.7049    1.9638 H   0  0  0  0  0  0  0  0  0  0  0  0
    1.3884   -1.6401    2.8334 H   0  0  0  0  0  0  0  0  0  0  0  0
   -3.2111   -6.5886   -2.1039 H   0  0  0  0  0  0  0  0  0  0  0  0
   -5.6728   -5.3888   -4.7059 H   0  0  0  0  0  0  0  0  0  0  0  0
   -2.9930   -6.8201   -9.3585 H   0  0  0  0  0  0  0  0  0  0  0  0
  1  2  2  3
  2  3  1  0
  3  4  2  0
  3  5  1  0
  5  6  2  0
  6  7  1  0
  7  8  1  0
  7  9  2  0
  9 10  1  0
  9 11  1  0
 11 12  2  0
 12 13  1  0
 13 14  2  3
 14 15  1  0
 15 16  3  0
 14 17  1  0
 17 18  3  0
  1 19  1  0
 19 20  1  0
 20 21  1  0
 21 22  1  0
 22 23  2  0
 23 24  1  0
 24 25  1  0
 25 26  1  0
 24 27  1  0
 27 28  2  0
 28 29  1  0
 29 30  2  0
 30 31  1  0
 31 32  1  0
 30 33  1  0
 33 34  2  0
 24 35  1  0
 35 36  2  0
 36 37  1  0
 37 38  2  0
 38 39  1  0
 39 40  1  0
 38 41  1  0
 41 42  2  0
 23 43  1  0
 43 44  2  0
 44 45  1  0
 45 46  1  0
 44 47  1  0
 47 48  2  0
 48 49  1  0
 49 50  1  0
 50 51  1  0
 51 52  1  0
 52 53  2  0
 53 54  1  0
 54 55  1  0
 55 56  2  0
 56 57  1  0
 57 58  2  0
 58 59  1  0
 59 60  1  0
 58 61  1  0
 61 62  2  0
 54 63  1  0
 63 64  2  0
 64 65  1  0
 65 66  2  0
 66 67  1  0
 67 68  1  0
 66 69  1  0
 69 70  2  0
 54 71  1  0
 71 72  1  0
 72 73  1  0
 73 74  1  0
 74 75  1  0
 73 76  2  0
 76 77  1  0
 77 78  2  0
 78 79  1  0
 53 80  1  0
 80 81  2  0
 81 82  1  0
 81 83  1  0
 83 84  2  3
 84 85  1  0
 85 86  2  0
 85 87  1  0
 87 88  2  0
 88 89  1  0
 89 90  2  0
 90 91  1  0
 90 92  1  0
 92 93  1  0
 92 94  2  0
 94 95  1  0
 88 96  1  0
 96 97  2  3
 97 98  1  0
 98 99  3  0
 97100  1  0
100101  3  0
 13  2  1  0
 26 19  2  0
 34 27  1  0
 42 35  1  0
 78 43  1  0
 96 84  1  0
 12  5  1  0
 25 21  2  0
 77 48  1  0
 94 87  1  0
 79 22  1  0
 72 49  2  0
 71 51  2  0
 82 52  1  0
 62 55  1  0
 70 63  1  0
  1102  1  0
  6103  1  0
 11104  1  0
 26105  1  0
 28106  1  0
 29107  1  0
 31108  1  0
 31109  1  0
 32110  1  0
 32111  1  0
 32112  1  0
 33113  1  0
 34114  1  0
 36115  1  0
 37116  1  0
 39117  1  0
 39118  1  0
 40119  1  0
 40120  1  0
 40121  1  0
 41122  1  0
 42123  1  0
 45124  1  0
 45125  1  0
 46126  1  0
 46127  1  0
 46128  1  0
 47129  1  0
 56130  1  0
 57131  1  0
 59132  1  0
 59133  1  0
 60134  1  0
 60135  1  0
 60136  1  0
 61137  1  0
 62138  1  0
 64139  1  0
 65140  1  0
 67141  1  0
 67142  1  0
 68143  1  0
 68144  1  0
 68145  1  0
 69146  1  0
 70147  1  0
 74148  1  0
 74149  1  0
 75150  1  0
 75151  1  0
 75152  1  0
 76153  1  0
 80154  1  0
 83155  1  0
 89156  1  0
M  END

