
     RDKit          3D

152167  0  0  0  0  0  0  0  0999 V2000
   -0.7175   -7.5440   -1.7247 C   0  0  0  0  0  0  0  0  0  0  0  0
   -0.1174   -7.2015   -2.8824 C   0  0  0  0  0  0  0  0  0  0  0  0
    0.4964   -5.8994   -3.1882 C   0  0  0  0  0  0  0  0  0  0  0  0
    0.2481   -4.7990   -2.6245 O   0  0  0  0  0  0  0  0  0  0  0  0
    1.4190   -6.0828   -4.2901 C   0  0  0  0  0  0  0  0  0  0  0  0
    2.3384   -5.1665   -4.8113 C   0  0  0  0  0  0  0  0  0  0  0  0
    3.2555   -5.6151   -5.7725 C   0  0  0  0  0  0  0  0  0  0  0  0
    4.1816   -4.7569   -6.2778 F   0  0  0  0  0  0  0  0  0  0  0  0
    3.2644   -6.9664   -6.1636 C   0  0  0  0  0  0  0  0  0  0  0  0
    4.2224   -7.4152   -7.0027 F   0  0  0  0  0  0  0  0  0  0  0  0
    2.3226   -7.8674   -5.6338 C   0  0  0  0  0  0  0  0  0  0  0  0
    1.3710   -7.3976   -4.7168 C   0  0  0  0  0  0  0  0  0  0  0  0
    0.3038   -8.1252   -3.9750 C   0  0  0  0  0  0  0  0  0  0  0  0
   -0.3103   -9.2714   -4.3635 C   0  0  0  0  0  0  0  0  0  0  0  0
   -1.5252   -9.7347   -3.7409 C   0  0  0  0  0  0  0  0  0  0  0  0
   -2.5021  -10.1090   -3.2467 N   0  0  0  0  0  0  0  0  0  0  0  0
    0.1028  -10.0118   -5.5269 C   0  0  0  0  0  0  0  0  0  0  0  0
    0.4224  -10.6158   -6.4611 N   0  0  0  0  0  0  0  0  0  0  0  0
   -0.7364   -6.6628   -0.5512 C   0  0  0  0  0  0  0  0  0  0  0  0
    0.6615   -6.0473    0.1981 S   0  0  0  0  0  0  0  0  0  0  0  0
   -0.2066   -5.1405    1.3065 C   0  0  0  0  0  0  0  0  0  0  0  0
    0.0122   -3.8984    1.8172 C   0  0  0  0  0  0  0  0  0  0  0  0
    1.2102   -2.7661    1.4191 S   0  0  0  0  0  0  0  0  0  0  0  0
    0.1151   -1.5036    1.6489 C   0  0  0  0  0  0  0  0  0  0  0  0
    0.1761   -0.0769    1.6233 C   0  0  0  0  0  0  0  0  0  0  0  0
    1.1027    0.7451    0.9783 C   0  0  0  0  0  0  0  0  0  0  0  0
    0.7585    2.0970    0.8267 C   0  0  0  0  0  0  0  0  0  0  0  0
    1.4542    3.1322   -0.0576 C   0  0  0  0  0  0  0  0  0  0  0  0
    1.4966    2.5732   -1.4879 C   0  0  0  0  0  0  0  0  0  0  0  0
    2.5763    1.7616   -1.8963 C   0  0  0  0  0  0  0  0  0  0  0  0
    2.5662    1.1184   -3.1356 C   0  0  0  0  0  0  0  0  0  0  0  0
    1.4699    1.2576   -3.9954 C   0  0  0  0  0  0  0  0  0  0  0  0
    1.4349    0.5174   -5.3074 C   0  0  0  0  0  0  0  0  0  0  0  0
    0.8032   -0.8646   -5.1366 C   0  0  0  0  0  0  0  0  0  0  0  0
    0.3785    2.0389   -3.5954 C   0  0  0  0  0  0  0  0  0  0  0  0
    0.3845    2.6833   -2.3537 C   0  0  0  0  0  0  0  0  0  0  0  0
    2.8175    3.6000    0.4595 C   0  0  0  0  0  0  0  0  0  0  0  0
    3.2051    3.4227    1.8038 C   0  0  0  0  0  0  0  0  0  0  0  0
    4.4062    3.9643    2.2759 C   0  0  0  0  0  0  0  0  0  0  0  0
    5.2327    4.7112    1.4263 C   0  0  0  0  0  0  0  0  0  0  0  0
    6.5345    5.2760    1.9221 C   0  0  0  0  0  0  0  0  0  0  0  0
    7.6784    4.3005    1.6557 C   0  0  0  0  0  0  0  0  0  0  0  0
    4.8518    4.8965    0.0916 C   0  0  0  0  0  0  0  0  0  0  0  0
    3.6514    4.3633   -0.3826 C   0  0  0  0  0  0  0  0  0  0  0  0
    0.4803    4.2736    0.1161 C   0  0  0  0  0  0  0  0  0  0  0  0
   -0.5719    3.9361    0.8994 C   0  0  0  0  0  0  0  0  0  0  0  0
   -0.4470    2.5786    1.3490 C   0  0  0  0  0  0  0  0  0  0  0  0
   -1.3720    1.7591    2.0080 C   0  0  0  0  0  0  0  0  0  0  0  0
   -1.0541    0.3905    2.0993 C   0  0  0  0  0  0  0  0  0  0  0  0
   -1.9243   -0.7637    2.6091 C   0  0  0  0  0  0  0  0  0  0  0  0
   -1.8202   -0.7299    4.1485 C   0  0  0  0  0  0  0  0  0  0  0  0
   -1.0103   -1.6252    4.8840 C   0  0  0  0  0  0  0  0  0  0  0  0
   -0.9094   -1.5252    6.2730 C   0  0  0  0  0  0  0  0  0  0  0  0
   -1.5931   -0.5167    6.9665 C   0  0  0  0  0  0  0  0  0  0  0  0
   -1.4924   -0.4227    8.4647 C   0  0  0  0  0  0  0  0  0  0  0  0
   -2.6864   -1.0919    9.1384 C   0  0  0  0  0  0  0  0  0  0  0  0
   -2.3970    0.3796    6.2511 C   0  0  0  0  0  0  0  0  0  0  0  0
   -2.4991    0.2827    4.8595 C   0  0  0  0  0  0  0  0  0  0  0  0
   -3.3851   -0.7288    2.1400 C   0  0  0  0  0  0  0  0  0  0  0  0
   -3.7799   -0.0396    0.9760 C   0  0  0  0  0  0  0  0  0  0  0  0
   -5.1340    0.0963    0.6543 C   0  0  0  0  0  0  0  0  0  0  0  0
   -6.1269   -0.4720    1.4693 C   0  0  0  0  0  0  0  0  0  0  0  0
   -7.5833   -0.1541    1.2049 C   0  0  0  0  0  0  0  0  0  0  0  0
   -8.5001   -1.3709    1.3326 C   0  0  0  0  0  0  0  0  0  0  0  0
   -5.7344   -1.2199    2.5908 C   0  0  0  0  0  0  0  0  0  0  0  0
   -4.3815   -1.3778    2.8986 C   0  0  0  0  0  0  0  0  0  0  0  0
   -1.1428   -1.9155    1.9807 C   0  0  0  0  0  0  0  0  0  0  0  0
   -1.2300   -3.3141    1.9949 C   0  0  0  0  0  0  0  0  0  0  0  0
   -2.2130   -4.1061    1.4689 N   0  0  0  0  0  0  0  0  0  0  0  0
   -1.5497   -5.2308    1.0764 C   0  0  0  0  0  0  0  0  0  0  0  0
   -1.8821   -6.1104    0.0327 C   0  0  0  0  0  0  0  0  0  0  0  0
   -3.3431   -3.6176    0.7326 C   0  0  0  0  0  0  0  0  0  0  0  0
   -3.2307   -2.8457   -0.4191 C   0  0  0  0  0  0  0  0  0  0  0  0
   -4.4059   -2.8031   -1.1749 C   0  0  0  0  0  0  0  0  0  0  0  0
   -5.4431   -3.5509   -0.6234 C   0  0  0  0  0  0  0  0  0  0  0  0
   -6.7557   -3.8650   -1.2810 C   0  0  0  0  0  0  0  0  0  0  0  0
   -7.3002   -2.6908   -2.0941 C   0  0  0  0  0  0  0  0  0  0  0  0
   -4.8778   -4.3065    0.7743 S   0  0  0  0  0  0  0  0  0  0  0  0
   -1.5678    5.2500    1.2050 S   0  0  0  0  0  0  0  0  0  0  0  0
   -0.5777    6.3112    0.3080 C   0  0  0  0  0  0  0  0  0  0  0  0
    0.5041    5.6156   -0.2500 C   0  0  0  0  0  0  0  0  0  0  0  0
   -0.8515    7.7469    0.1520 C   0  0  0  0  0  0  0  0  0  0  0  0
    0.0914    8.7029    0.0593 C   0  0  0  0  0  0  0  0  0  0  0  0
   -0.1589    9.9881   -0.5909 C   0  0  0  0  0  0  0  0  0  0  0  0
   -1.2885   10.4845   -0.8427 O   0  0  0  0  0  0  0  0  0  0  0  0
    1.1187   10.5555   -0.9738 C   0  0  0  0  0  0  0  0  0  0  0  0
    1.3701   11.6935   -1.7437 C   0  0  0  0  0  0  0  0  0  0  0  0
    2.6983   11.9974   -2.0727 C   0  0  0  0  0  0  0  0  0  0  0  0
    3.0438   13.4185   -3.0410 Cl  0  0  0  0  0  0  0  0  0  0  0  0
    3.7446   11.1514   -1.6513 C   0  0  0  0  0  0  0  0  0  0  0  0
    5.0247   11.4267   -2.0003 F   0  0  0  0  0  0  0  0  0  0  0  0
    3.4662   10.0057   -0.8873 C   0  0  0  0  0  0  0  0  0  0  0  0
    2.1377    9.7324   -0.5274 C   0  0  0  0  0  0  0  0  0  0  0  0
    1.5679    8.6168    0.2724 C   0  0  0  0  0  0  0  0  0  0  0  0
    2.1942    7.9850    1.2983 C   0  0  0  0  0  0  0  0  0  0  0  0
    1.4644    7.2639    2.3121 C   0  0  0  0  0  0  0  0  0  0  0  0
    0.8914    6.6874    3.1375 N   0  0  0  0  0  0  0  0  0  0  0  0
    3.6018    8.1479    1.5612 C   0  0  0  0  0  0  0  0  0  0  0  0
    4.7300    8.2769    1.7808 N   0  0  0  0  0  0  0  0  0  0  0  0
   -1.0704   -8.5473   -1.5573 H   0  0  0  0  0  0  0  0  0  0  0  0
    2.3608   -4.1410   -4.4665 H   0  0  0  0  0  0  0  0  0  0  0  0
    2.3962   -8.9087   -5.8932 H   0  0  0  0  0  0  0  0  0  0  0  0
    1.9987    0.3356    0.5300 H   0  0  0  0  0  0  0  0  0  0  0  0
    3.4208    1.5993   -1.2384 H   0  0  0  0  0  0  0  0  0  0  0  0
    3.4045    0.4919   -3.4135 H   0  0  0  0  0  0  0  0  0  0  0  0
    2.4636    0.3951   -5.7074 H   0  0  0  0  0  0  0  0  0  0  0  0
    0.8542    1.0944   -6.0561 H   0  0  0  0  0  0  0  0  0  0  0  0
    1.3999   -1.4758   -4.4276 H   0  0  0  0  0  0  0  0  0  0  0  0
   -0.2362   -0.7730   -4.7547 H   0  0  0  0  0  0  0  0  0  0  0  0
    0.7791   -1.3840   -6.1181 H   0  0  0  0  0  0  0  0  0  0  0  0
   -0.4919    2.1282   -4.2334 H   0  0  0  0  0  0  0  0  0  0  0  0
   -0.4939    3.2428   -2.0654 H   0  0  0  0  0  0  0  0  0  0  0  0
    2.5745    2.8842    2.5020 H   0  0  0  0  0  0  0  0  0  0  0  0
    4.6816    3.8116    3.3121 H   0  0  0  0  0  0  0  0  0  0  0  0
    6.7486    6.2377    1.4105 H   0  0  0  0  0  0  0  0  0  0  0  0
    6.4746    5.4856    3.0104 H   0  0  0  0  0  0  0  0  0  0  0  0
    7.5073    3.3483    2.1964 H   0  0  0  0  0  0  0  0  0  0  0  0
    7.7647    4.0968    0.5677 H   0  0  0  0  0  0  0  0  0  0  0  0
    8.6332    4.7452    2.0095 H   0  0  0  0  0  0  0  0  0  0  0  0
    5.4785    5.4678   -0.5829 H   0  0  0  0  0  0  0  0  0  0  0  0
    3.3680    4.5588   -1.4091 H   0  0  0  0  0  0  0  0  0  0  0  0
   -2.3288    2.1460    2.3379 H   0  0  0  0  0  0  0  0  0  0  0  0
   -0.4382   -2.4023    4.4001 H   0  0  0  0  0  0  0  0  0  0  0  0
   -0.2903   -2.2319    6.8080 H   0  0  0  0  0  0  0  0  0  0  0  0
   -1.4469    0.6412    8.7701 H   0  0  0  0  0  0  0  0  0  0  0  0
   -0.5617   -0.9092    8.8203 H   0  0  0  0  0  0  0  0  0  0  0  0
   -2.7560   -2.1580    8.8302 H   0  0  0  0  0  0  0  0  0  0  0  0
   -2.5613   -1.0469   10.2383 H   0  0  0  0  0  0  0  0  0  0  0  0
   -3.6277   -0.5684    8.8630 H   0  0  0  0  0  0  0  0  0  0  0  0
   -2.9435    1.1576    6.7702 H   0  0  0  0  0  0  0  0  0  0  0  0
   -3.1254    0.9935    4.3368 H   0  0  0  0  0  0  0  0  0  0  0  0
   -3.0478    0.4102    0.3200 H   0  0  0  0  0  0  0  0  0  0  0  0
   -5.4087    0.6798   -0.2154 H   0  0  0  0  0  0  0  0  0  0  0  0
   -7.7072    0.2623    0.1789 H   0  0  0  0  0  0  0  0  0  0  0  0
   -7.9181    0.6235    1.9253 H   0  0  0  0  0  0  0  0  0  0  0  0
   -8.1194   -2.2172    0.7286 H   0  0  0  0  0  0  0  0  0  0  0  0
   -8.5977   -1.6923    2.3904 H   0  0  0  0  0  0  0  0  0  0  0  0
   -9.5161   -1.1110    0.9644 H   0  0  0  0  0  0  0  0  0  0  0  0
   -6.4691   -1.6629    3.2499 H   0  0  0  0  0  0  0  0  0  0  0  0
   -4.1193   -1.9679    3.7682 H   0  0  0  0  0  0  0  0  0  0  0  0
   -2.8781   -6.2332   -0.3713 H   0  0  0  0  0  0  0  0  0  0  0  0
   -2.3065   -2.3808   -0.7434 H   0  0  0  0  0  0  0  0  0  0  0  0
   -4.4710   -2.2827   -2.1197 H   0  0  0  0  0  0  0  0  0  0  0  0
   -6.6218   -4.7417   -1.9497 H   0  0  0  0  0  0  0  0  0  0  0  0
   -7.4928   -4.1420   -0.4984 H   0  0  0  0  0  0  0  0  0  0  0  0
   -6.7107   -2.5616   -3.0255 H   0  0  0  0  0  0  0  0  0  0  0  0
   -7.2556   -1.7457   -1.5069 H   0  0  0  0  0  0  0  0  0  0  0  0
   -8.3555   -2.8890   -2.3691 H   0  0  0  0  0  0  0  0  0  0  0  0
    1.2739    6.0613   -0.8618 H   0  0  0  0  0  0  0  0  0  0  0  0
   -1.8876    8.0190   -0.0050 H   0  0  0  0  0  0  0  0  0  0  0  0
    0.5556   12.3165   -2.0914 H   0  0  0  0  0  0  0  0  0  0  0  0
    4.2750    9.3441   -0.6216 H   0  0  0  0  0  0  0  0  0  0  0  0
  1  2  2  3
  2  3  1  0
  3  4  2  0
  3  5  1  0
  5  6  2  0
  6  7  1  0
  7  8  1  0
  7  9  2  0
  9 10  1  0
  9 11  1  0
 11 12  2  0
 12 13  1  0
 13 14  2  3
 14 15  1  0
 15 16  3  0
 14 17  1  0
 17 18  3  0
  1 19  1  0
 19 20  1  0
 20 21  1  0
 21 22  1  0
 22 23  1  0
 23 24  1  0
 24 25  1  0
 25 26  2  0
 26 27  1  0
 27 28  1  0
 28 29  1  0
 29 30  2  0
 30 31  1  0
 31 32  2  0
 32 33  1  0
 33 34  1  0
 32 35  1  0
 35 36  2  0
 28 37  1  0
 37 38  2  0
 38 39  1  0
 39 40  2  0
 40 41  1  0
 41 42  1  0
 40 43  1  0
 43 44  2  0
 28 45  1  0
 45 46  2  0
 46 47  1  0
 47 48  1  0
 48 49  2  0
 49 50  1  0
 50 51  1  0
 51 52  2  0
 52 53  1  0
 53 54  2  0
 54 55  1  0
 55 56  1  0
 54 57  1  0
 57 58  2  0
 50 59  1  0
 59 60  2  0
 60 61  1  0
 61 62  2  0
 62 63  1  0
 63 64  1  0
 62 65  1  0
 65 66  2  0
 50 67  1  0
 67 68  1  0
 68 69  1  0
 69 70  1  0
 70 71  1  0
 69 72  1  0
 72 73  2  0
 73 74  1  0
 74 75  2  0
 75 76  1  0
 76 77  1  0
 75 78  1  0
 46 79  1  0
 79 80  1  0
 80 81  2  0
 80 82  1  0
 82 83  2  3
 83 84  1  0
 84 85  2  0
 84 86  1  0
 86 87  2  0
 87 88  1  0
 88 89  1  0
 88 90  2  0
 90 91  1  0
 90 92  1  0
 92 93  2  0
 93 94  1  0
 94 95  2  3
 95 96  1  0
 96 97  3  0
 95 98  1  0
 98 99  3  0
 13  2  1  0
 71 19  2  0
 78 72  1  0
 94 83  1  0
 12  5  1  0
 70 21  2  0
 93 86  1  0
 68 22  2  0
 67 24  2  0
 49 25  1  0
 58 51  1  0
 66 59  1  0
 47 27  2  0
 36 29  1  0
 44 37  1  0
 81 45  1  0
  1100  1  0
  6101  1  0
 11102  1  0
 26103  1  0
 30104  1  0
 31105  1  0
 33106  1  0
 33107  1  0
 34108  1  0
 34109  1  0
 34110  1  0
 35111  1  0
 36112  1  0
 38113  1  0
 39114  1  0
 41115  1  0
 41116  1  0
 42117  1  0
 42118  1  0
 42119  1  0
 43120  1  0
 44121  1  0
 48122  1  0
 52123  1  0
 53124  1  0
 55125  1  0
 55126  1  0
 56127  1  0
 56128  1  0
 56129  1  0
 57130  1  0
 58131  1  0
 60132  1  0
 61133  1  0
 63134  1  0
 63135  1  0
 64136  1  0
 64137  1  0
 64138  1  0
 65139  1  0
 66140  1  0
 71141  1  0
 73142  1  0
 74143  1  0
 76144  1  0
 76145  1  0
 77146  1  0
 77147  1  0
 77148  1  0
 81149  1  0
 82150  1  0
 87151  1  0
 92152  1  0
M  END

