
     RDKit          3D

118129  0  0  0  0  0  0  0  0999 V2000
   -0.1580    2.2358   -3.4414 C   0  0  0  0  0  0  0  0  0  0  0  0
   -0.9531    1.5645   -4.3000 C   0  0  0  0  0  0  0  0  0  0  0  0
   -1.8178    0.4284   -3.9598 C   0  0  0  0  0  0  0  0  0  0  0  0
   -2.2513    0.1321   -2.8150 O   0  0  0  0  0  0  0  0  0  0  0  0
   -2.1396   -0.2822   -5.1762 C   0  0  0  0  0  0  0  0  0  0  0  0
   -2.8334   -1.4839   -5.3136 C   0  0  0  0  0  0  0  0  0  0  0  0
   -2.9775   -2.0278   -6.5961 C   0  0  0  0  0  0  0  0  0  0  0  0
   -3.6525   -3.1929   -6.7613 F   0  0  0  0  0  0  0  0  0  0  0  0
   -2.4125   -1.3759   -7.7074 C   0  0  0  0  0  0  0  0  0  0  0  0
   -2.5383   -1.9190   -8.9436 F   0  0  0  0  0  0  0  0  0  0  0  0
   -1.7174   -0.1644   -7.5456 C   0  0  0  0  0  0  0  0  0  0  0  0
   -1.6013    0.3905   -6.2592 C   0  0  0  0  0  0  0  0  0  0  0  0
   -0.9424    1.6480   -5.7916 C   0  0  0  0  0  0  0  0  0  0  0  0
   -0.6110    2.7261   -6.5500 C   0  0  0  0  0  0  0  0  0  0  0  0
   -0.7130    2.7267   -7.9861 C   0  0  0  0  0  0  0  0  0  0  0  0
   -0.7846    2.7454   -9.1401 N   0  0  0  0  0  0  0  0  0  0  0  0
   -0.2429    3.9940   -5.9734 C   0  0  0  0  0  0  0  0  0  0  0  0
    0.0561    5.0159   -5.5205 N   0  0  0  0  0  0  0  0  0  0  0  0
   -0.0137    1.8869   -2.0116 C   0  0  0  0  0  0  0  0  0  0  0  0
    0.3575    0.5805   -1.6507 C   0  0  0  0  0  0  0  0  0  0  0  0
    0.5064    0.2158   -0.3017 C   0  0  0  0  0  0  0  0  0  0  0  0
    0.3004    1.1896    0.7077 C   0  0  0  0  0  0  0  0  0  0  0  0
    0.0409    2.5246    0.3412 C   0  0  0  0  0  0  0  0  0  0  0  0
   -0.1169    2.8717   -1.0142 C   0  0  0  0  0  0  0  0  0  0  0  0
   -0.3369    4.1753   -1.3366 N   0  0  0  0  0  0  0  0  0  0  0  0
   -0.3922    5.1573   -0.3958 C   0  0  0  0  0  0  0  0  0  0  0  0
   -0.4853    6.5541   -0.8597 C   0  0  0  0  0  0  0  0  0  0  0  0
   -1.2379    6.9884   -1.9462 C   0  0  0  0  0  0  0  0  0  0  0  0
   -1.0397    8.3397   -2.2554 C   0  0  0  0  0  0  0  0  0  0  0  0
   -0.1112    8.9620   -1.4263 C   0  0  0  0  0  0  0  0  0  0  0  0
    0.3417   10.3852   -1.5272 C   0  0  0  0  0  0  0  0  0  0  0  0
    1.7851   10.4644   -2.0160 C   0  0  0  0  0  0  0  0  0  0  0  0
    0.4728    7.8361   -0.3239 S   0  0  0  0  0  0  0  0  0  0  0  0
   -0.2445    4.8045    0.9641 C   0  0  0  0  0  0  0  0  0  0  0  0
   -0.3104    5.7749    2.0677 C   0  0  0  0  0  0  0  0  0  0  0  0
    0.5882    5.8372    3.1261 C   0  0  0  0  0  0  0  0  0  0  0  0
    0.2804    6.8317    4.0596 C   0  0  0  0  0  0  0  0  0  0  0  0
   -0.8899    7.5227    3.7636 C   0  0  0  0  0  0  0  0  0  0  0  0
   -1.4394    8.7059    4.5066 C   0  0  0  0  0  0  0  0  0  0  0  0
   -1.4220    8.5002    6.0212 C   0  0  0  0  0  0  0  0  0  0  0  0
   -1.5187    6.9243    2.3187 S   0  0  0  0  0  0  0  0  0  0  0  0
   -0.0308    3.5025    1.2812 N   0  0  0  0  0  0  0  0  0  0  0  0
    0.3759    0.8125    2.0617 C   0  0  0  0  0  0  0  0  0  0  0  0
    0.6540   -0.5092    2.4228 C   0  0  0  0  0  0  0  0  0  0  0  0
    0.9684   -1.4458    1.4239 C   0  0  0  0  0  0  0  0  0  0  0  0
    1.3596   -2.7030    1.7536 N   0  0  0  0  0  0  0  0  0  0  0  0
    1.6640   -3.6409    0.8208 C   0  0  0  0  0  0  0  0  0  0  0  0
    1.9801   -4.9914    1.3104 C   0  0  0  0  0  0  0  0  0  0  0  0
    1.5105   -6.2014    0.7978 C   0  0  0  0  0  0  0  0  0  0  0  0
    1.8496   -7.3059    1.5870 C   0  0  0  0  0  0  0  0  0  0  0  0
    2.5554   -6.9628    2.7380 C   0  0  0  0  0  0  0  0  0  0  0  0
    3.0836   -7.9113    3.7649 C   0  0  0  0  0  0  0  0  0  0  0  0
    4.5003   -8.3491    3.4155 C   0  0  0  0  0  0  0  0  0  0  0  0
    2.7714   -5.2971    2.7660 S   0  0  0  0  0  0  0  0  0  0  0  0
    1.5953   -3.2874   -0.5465 C   0  0  0  0  0  0  0  0  0  0  0  0
    1.1901   -2.0308   -0.8742 N   0  0  0  0  0  0  0  0  0  0  0  0
    0.8766   -1.0959    0.0647 C   0  0  0  0  0  0  0  0  0  0  0  0
    2.0511   -4.1673   -1.6397 C   0  0  0  0  0  0  0  0  0  0  0  0
    1.5149   -4.1875   -2.9227 C   0  0  0  0  0  0  0  0  0  0  0  0
    2.2433   -4.9804   -3.8200 C   0  0  0  0  0  0  0  0  0  0  0  0
    3.3615   -5.5707   -3.2453 C   0  0  0  0  0  0  0  0  0  0  0  0
    4.3758   -6.4071   -3.9616 C   0  0  0  0  0  0  0  0  0  0  0  0
    5.2726   -5.5434   -4.8406 C   0  0  0  0  0  0  0  0  0  0  0  0
    3.4663   -5.0861   -1.6369 S   0  0  0  0  0  0  0  0  0  0  0  0
    0.6846   -0.8698    3.8544 C   0  0  0  0  0  0  0  0  0  0  0  0
   -0.1323   -1.7874    4.4113 C   0  0  0  0  0  0  0  0  0  0  0  0
   -1.0995   -2.6324    3.6982 C   0  0  0  0  0  0  0  0  0  0  0  0
   -1.5672   -2.4292    2.5475 O   0  0  0  0  0  0  0  0  0  0  0  0
   -1.4511   -3.7440    4.5560 C   0  0  0  0  0  0  0  0  0  0  0  0
   -2.2393   -4.8578    4.2576 C   0  0  0  0  0  0  0  0  0  0  0  0
   -2.8404   -4.9838    3.0494 F   0  0  0  0  0  0  0  0  0  0  0  0
   -2.3807   -5.8556    5.2298 C   0  0  0  0  0  0  0  0  0  0  0  0
   -1.7219   -5.7357    6.4650 C   0  0  0  0  0  0  0  0  0  0  0  0
   -0.9298   -4.6108    6.7451 C   0  0  0  0  0  0  0  0  0  0  0  0
   -0.8242   -3.5951    5.7818 C   0  0  0  0  0  0  0  0  0  0  0  0
   -0.0748   -2.3069    5.8107 C   0  0  0  0  0  0  0  0  0  0  0  0
    0.3305   -1.6276    6.9138 C   0  0  0  0  0  0  0  0  0  0  0  0
    0.2204   -2.1745    8.2396 C   0  0  0  0  0  0  0  0  0  0  0  0
    0.1396   -2.6031    9.3129 N   0  0  0  0  0  0  0  0  0  0  0  0
    0.7745   -0.2586    6.8589 C   0  0  0  0  0  0  0  0  0  0  0  0
    1.1294    0.8440    6.8241 N   0  0  0  0  0  0  0  0  0  0  0  0
    0.4951    3.0179   -3.7922 H   0  0  0  0  0  0  0  0  0  0  0  0
   -3.2423   -1.9913   -4.4502 H   0  0  0  0  0  0  0  0  0  0  0  0
   -1.2711    0.2929   -8.4139 H   0  0  0  0  0  0  0  0  0  0  0  0
    0.5247   -0.1514   -2.4332 H   0  0  0  0  0  0  0  0  0  0  0  0
   -1.9067    6.3475   -2.5039 H   0  0  0  0  0  0  0  0  0  0  0  0
   -1.5476    8.8420   -3.0675 H   0  0  0  0  0  0  0  0  0  0  0  0
   -0.3102   10.9411   -2.2377 H   0  0  0  0  0  0  0  0  0  0  0  0
    0.2622   10.8690   -0.5308 H   0  0  0  0  0  0  0  0  0  0  0  0
    2.0900   11.5288   -2.1136 H   0  0  0  0  0  0  0  0  0  0  0  0
    2.4658    9.9702   -1.2895 H   0  0  0  0  0  0  0  0  0  0  0  0
    1.8874    9.9667   -3.0064 H   0  0  0  0  0  0  0  0  0  0  0  0
    1.4514    5.1903    3.2131 H   0  0  0  0  0  0  0  0  0  0  0  0
    0.8989    7.0350    4.9219 H   0  0  0  0  0  0  0  0  0  0  0  0
   -0.8375    9.6041    4.2477 H   0  0  0  0  0  0  0  0  0  0  0  0
   -2.4888    8.8879    4.1838 H   0  0  0  0  0  0  0  0  0  0  0  0
   -0.3790    8.4588    6.3990 H   0  0  0  0  0  0  0  0  0  0  0  0
   -1.9310    9.3510    6.5180 H   0  0  0  0  0  0  0  0  0  0  0  0
   -1.9503    7.5603    6.2922 H   0  0  0  0  0  0  0  0  0  0  0  0
    0.1944    1.5379    2.8481 H   0  0  0  0  0  0  0  0  0  0  0  0
    0.9181   -6.2820   -0.1056 H   0  0  0  0  0  0  0  0  0  0  0  0
    1.5692   -8.3209    1.3405 H   0  0  0  0  0  0  0  0  0  0  0  0
    3.0852   -7.4152    4.7598 H   0  0  0  0  0  0  0  0  0  0  0  0
    2.4236   -8.8034    3.8289 H   0  0  0  0  0  0  0  0  0  0  0  0
    4.5107   -8.8804    2.4389 H   0  0  0  0  0  0  0  0  0  0  0  0
    5.1726   -7.4653    3.3603 H   0  0  0  0  0  0  0  0  0  0  0  0
    4.8810   -9.0362    4.1983 H   0  0  0  0  0  0  0  0  0  0  0  0
    0.6365   -3.6252   -3.2148 H   0  0  0  0  0  0  0  0  0  0  0  0
    1.9722   -5.1007   -4.8608 H   0  0  0  0  0  0  0  0  0  0  0  0
    4.9984   -6.9520   -3.2218 H   0  0  0  0  0  0  0  0  0  0  0  0
    3.8547   -7.1583   -4.5923 H   0  0  0  0  0  0  0  0  0  0  0  0
    4.6728   -5.0395   -5.6296 H   0  0  0  0  0  0  0  0  0  0  0  0
    6.0374   -6.1805   -5.3335 H   0  0  0  0  0  0  0  0  0  0  0  0
    5.7919   -4.7724   -4.2324 H   0  0  0  0  0  0  0  0  0  0  0  0
    1.4344   -0.3691    4.4444 H   0  0  0  0  0  0  0  0  0  0  0  0
   -2.9853   -6.7295    5.0239 H   0  0  0  0  0  0  0  0  0  0  0  0
   -1.8177   -6.5223    7.2030 H   0  0  0  0  0  0  0  0  0  0  0  0
   -0.3962   -4.5787    7.6810 H   0  0  0  0  0  0  0  0  0  0  0  0
  1  2  2  3
  2  3  1  0
  3  4  2  0
  3  5  1  0
  5  6  2  0
  6  7  1  0
  7  8  1  0
  7  9  2  0
  9 10  1  0
  9 11  1  0
 11 12  2  0
 12 13  1  0
 13 14  2  3
 14 15  1  0
 15 16  3  0
 14 17  1  0
 17 18  3  0
  1 19  1  0
 19 20  2  0
 20 21  1  0
 21 22  2  0
 22 23  1  0
 23 24  2  0
 24 25  1  0
 25 26  2  0
 26 27  1  0
 27 28  2  0
 28 29  1  0
 29 30  2  0
 30 31  1  0
 31 32  1  0
 30 33  1  0
 26 34  1  0
 34 35  1  0
 35 36  2  0
 36 37  1  0
 37 38  2  0
 38 39  1  0
 39 40  1  0
 38 41  1  0
 34 42  2  0
 22 43  1  0
 43 44  2  0
 44 45  1  0
 45 46  2  0
 46 47  1  0
 47 48  1  0
 48 49  2  0
 49 50  1  0
 50 51  2  0
 51 52  1  0
 52 53  1  0
 51 54  1  0
 47 55  2  0
 55 56  1  0
 56 57  2  0
 55 58  1  0
 58 59  2  0
 59 60  1  0
 60 61  2  0
 61 62  1  0
 62 63  1  0
 61 64  1  0
 44 65  1  0
 65 66  2  3
 66 67  1  0
 67 68  2  0
 67 69  1  0
 69 70  2  0
 70 71  1  0
 70 72  1  0
 72 73  2  0
 73 74  1  0
 74 75  2  0
 75 76  1  0
 76 77  2  3
 77 78  1  0
 78 79  3  0
 77 80  1  0
 80 81  3  0
 13  2  1  0
 24 19  1  0
 33 27  1  0
 41 35  1  0
 57 45  1  0
 64 58  1  0
 76 66  1  0
 12  5  1  0
 57 21  1  0
 75 69  1  0
 42 23  1  0
 54 48  1  0
  1 82  1  0
  6 83  1  0
 11 84  1  0
 20 85  1  0
 28 86  1  0
 29 87  1  0
 31 88  1  0
 31 89  1  0
 32 90  1  0
 32 91  1  0
 32 92  1  0
 36 93  1  0
 37 94  1  0
 39 95  1  0
 39 96  1  0
 40 97  1  0
 40 98  1  0
 40 99  1  0
 43100  1  0
 49101  1  0
 50102  1  0
 52103  1  0
 52104  1  0
 53105  1  0
 53106  1  0
 53107  1  0
 59108  1  0
 60109  1  0
 62110  1  0
 62111  1  0
 63112  1  0
 63113  1  0
 63114  1  0
 65115  1  0
 72116  1  0
 73117  1  0
 74118  1  0
M  END

