
     RDKit          3D

106117  0  0  0  0  0  0  0  0999 V2000
    5.5198   -3.6136   -4.1443 C   0  0  0  0  0  0  0  0  0  0  0  0
    5.6613   -3.1250   -5.3915 C   0  0  0  0  0  0  0  0  0  0  0  0
    4.5621   -2.6336   -6.2337 C   0  0  0  0  0  0  0  0  0  0  0  0
    3.3832   -2.3902   -5.8640 O   0  0  0  0  0  0  0  0  0  0  0  0
    5.0340   -2.5546   -7.5981 C   0  0  0  0  0  0  0  0  0  0  0  0
    4.3031   -2.2225   -8.7394 C   0  0  0  0  0  0  0  0  0  0  0  0
    4.9488   -2.2667   -9.9808 C   0  0  0  0  0  0  0  0  0  0  0  0
    4.2626   -1.9555  -11.1083 F   0  0  0  0  0  0  0  0  0  0  0  0
    6.2992   -2.6563  -10.0623 C   0  0  0  0  0  0  0  0  0  0  0  0
    6.9091   -2.7245  -11.2708 F   0  0  0  0  0  0  0  0  0  0  0  0
    7.0177   -2.9870   -8.8996 C   0  0  0  0  0  0  0  0  0  0  0  0
    6.3698   -2.9248   -7.6535 C   0  0  0  0  0  0  0  0  0  0  0  0
    6.8640   -3.2230   -6.2764 C   0  0  0  0  0  0  0  0  0  0  0  0
    8.1563   -3.3639   -5.8788 C   0  0  0  0  0  0  0  0  0  0  0  0
    9.2571   -3.4199   -6.8023 C   0  0  0  0  0  0  0  0  0  0  0  0
   10.1590   -3.4634   -7.5211 N   0  0  0  0  0  0  0  0  0  0  0  0
    8.5368   -3.3669   -4.4914 C   0  0  0  0  0  0  0  0  0  0  0  0
    8.8555   -3.3626   -3.3774 N   0  0  0  0  0  0  0  0  0  0  0  0
    4.2764   -3.4732   -3.3770 C   0  0  0  0  0  0  0  0  0  0  0  0
    3.3454   -4.4950   -3.1194 C   0  0  0  0  0  0  0  0  0  0  0  0
    3.5170   -5.9358   -3.5120 C   0  0  0  0  0  0  0  0  0  0  0  0
    4.2531   -6.7048   -2.4208 C   0  0  0  0  0  0  0  0  0  0  0  0
    2.2749   -4.0039   -2.3706 C   0  0  0  0  0  0  0  0  0  0  0  0
    2.3650   -2.6766   -2.0396 C   0  0  0  0  0  0  0  0  0  0  0  0
    3.7744   -2.0132   -2.6559 S   0  0  0  0  0  0  0  0  0  0  0  0
    1.2932   -2.2362   -1.2773 C   0  0  0  0  0  0  0  0  0  0  0  0
    0.4038   -3.2325   -1.0324 C   0  0  0  0  0  0  0  0  0  0  0  0
    0.8779   -4.7211   -1.7027 S   0  0  0  0  0  0  0  0  0  0  0  0
   -0.4410   -2.7846   -0.0567 C   0  0  0  0  0  0  0  0  0  0  0  0
   -1.3752   -3.4714    0.7344 C   0  0  0  0  0  0  0  0  0  0  0  0
   -1.7216   -4.7589    0.4863 N   0  0  0  0  0  0  0  0  0  0  0  0
   -2.6256   -5.4125    1.2685 C   0  0  0  0  0  0  0  0  0  0  0  0
   -2.9956   -6.8221    0.9206 C   0  0  0  0  0  0  0  0  0  0  0  0
   -3.2242   -4.7276    2.3568 C   0  0  0  0  0  0  0  0  0  0  0  0
   -4.2159   -5.3893    3.2665 C   0  0  0  0  0  0  0  0  0  0  0  0
   -2.8608   -3.4402    2.6115 N   0  0  0  0  0  0  0  0  0  0  0  0
   -1.9511   -2.7984    1.8358 C   0  0  0  0  0  0  0  0  0  0  0  0
   -1.5688   -1.4700    2.0803 C   0  0  0  0  0  0  0  0  0  0  0  0
   -2.0505   -0.5457    2.9572 C   0  0  0  0  0  0  0  0  0  0  0  0
   -3.2571   -0.4236    4.1461 S   0  0  0  0  0  0  0  0  0  0  0  0
   -3.0126    1.2619    4.2471 C   0  0  0  0  0  0  0  0  0  0  0  0
   -3.5494    2.2657    5.0575 C   0  0  0  0  0  0  0  0  0  0  0  0
   -4.5740    2.0083    6.1324 C   0  0  0  0  0  0  0  0  0  0  0  0
   -3.9101    1.5394    7.4244 C   0  0  0  0  0  0  0  0  0  0  0  0
   -2.9552    3.5145    4.7856 C   0  0  0  0  0  0  0  0  0  0  0  0
   -1.7773    3.3164    3.5611 S   0  0  0  0  0  0  0  0  0  0  0  0
   -2.0569    1.6835    3.3598 C   0  0  0  0  0  0  0  0  0  0  0  0
   -1.4942    0.6460    2.6348 C   0  0  0  0  0  0  0  0  0  0  0  0
   -0.6726    0.5779    1.5556 N   0  0  0  0  0  0  0  0  0  0  0  0
   -0.4949    1.6772    0.5924 C   0  0  0  0  0  0  0  0  0  0  0  0
    0.4764    2.7454    1.1073 C   0  0  0  0  0  0  0  0  0  0  0  0
   -0.6687   -0.7664    1.2653 C   0  0  0  0  0  0  0  0  0  0  0  0
   -0.0334   -1.4661    0.2126 C   0  0  0  0  0  0  0  0  0  0  0  0
    1.1034   -1.1471   -0.4890 N   0  0  0  0  0  0  0  0  0  0  0  0
    2.2121   -0.3003   -0.0229 C   0  0  0  0  0  0  0  0  0  0  0  0
    3.0418   -1.0242    1.0388 C   0  0  0  0  0  0  0  0  0  0  0  0
   -3.0788    4.7033    5.6551 C   0  0  0  0  0  0  0  0  0  0  0  0
   -2.9002    5.9776    5.2633 C   0  0  0  0  0  0  0  0  0  0  0  0
   -2.6165    6.4512    3.9053 C   0  0  0  0  0  0  0  0  0  0  0  0
   -2.9890    5.9081    2.8287 O   0  0  0  0  0  0  0  0  0  0  0  0
   -1.9479    7.7319    4.0029 C   0  0  0  0  0  0  0  0  0  0  0  0
   -1.3873    8.4929    2.9773 C   0  0  0  0  0  0  0  0  0  0  0  0
   -0.7113    9.6756    3.3153 C   0  0  0  0  0  0  0  0  0  0  0  0
   -0.1361   10.4268    2.3460 F   0  0  0  0  0  0  0  0  0  0  0  0
   -0.6060   10.0675    4.6661 C   0  0  0  0  0  0  0  0  0  0  0  0
    0.0900   11.1873    4.9929 F   0  0  0  0  0  0  0  0  0  0  0  0
   -1.1885    9.2898    5.6809 C   0  0  0  0  0  0  0  0  0  0  0  0
   -1.8862    8.1200    5.3306 C   0  0  0  0  0  0  0  0  0  0  0  0
   -2.6098    7.1284    6.1707 C   0  0  0  0  0  0  0  0  0  0  0  0
   -3.1252    7.3337    7.4072 C   0  0  0  0  0  0  0  0  0  0  0  0
   -2.8411    8.5208    8.1757 C   0  0  0  0  0  0  0  0  0  0  0  0
   -2.6212    9.4697    8.8049 N   0  0  0  0  0  0  0  0  0  0  0  0
   -4.1247    6.4586    7.9679 C   0  0  0  0  0  0  0  0  0  0  0  0
   -4.9405    5.7762    8.4191 N   0  0  0  0  0  0  0  0  0  0  0  0
    6.2989   -4.2025   -3.6883 H   0  0  0  0  0  0  0  0  0  0  0  0
    3.2583   -1.9395   -8.6681 H   0  0  0  0  0  0  0  0  0  0  0  0
    8.0418   -3.3017   -9.0069 H   0  0  0  0  0  0  0  0  0  0  0  0
    2.5217   -6.4011   -3.6834 H   0  0  0  0  0  0  0  0  0  0  0  0
    4.0878   -6.0023   -4.4600 H   0  0  0  0  0  0  0  0  0  0  0  0
    4.4012   -7.7555   -2.7438 H   0  0  0  0  0  0  0  0  0  0  0  0
    3.6582   -6.6965   -1.4801 H   0  0  0  0  0  0  0  0  0  0  0  0
    5.2474   -6.2465   -2.2339 H   0  0  0  0  0  0  0  0  0  0  0  0
   -4.0203   -6.8482    0.4864 H   0  0  0  0  0  0  0  0  0  0  0  0
   -2.9631   -7.4654    1.8254 H   0  0  0  0  0  0  0  0  0  0  0  0
   -2.2800   -7.2339    0.1751 H   0  0  0  0  0  0  0  0  0  0  0  0
   -3.6914   -6.1085    3.9268 H   0  0  0  0  0  0  0  0  0  0  0  0
   -4.7317   -4.6293    3.9015 H   0  0  0  0  0  0  0  0  0  0  0  0
   -4.9900   -5.9235    2.6775 H   0  0  0  0  0  0  0  0  0  0  0  0
   -5.2875    1.2303    5.7860 H   0  0  0  0  0  0  0  0  0  0  0  0
   -5.1597    2.9314    6.3313 H   0  0  0  0  0  0  0  0  0  0  0  0
   -3.2289    2.3230    7.8144 H   0  0  0  0  0  0  0  0  0  0  0  0
   -3.3288    0.6078    7.2451 H   0  0  0  0  0  0  0  0  0  0  0  0
   -4.6874    1.3317    8.1889 H   0  0  0  0  0  0  0  0  0  0  0  0
   -1.4824    2.1465    0.3844 H   0  0  0  0  0  0  0  0  0  0  0  0
   -0.1396    1.2895   -0.3882 H   0  0  0  0  0  0  0  0  0  0  0  0
    1.2122    2.9983    0.3165 H   0  0  0  0  0  0  0  0  0  0  0  0
    1.0249    2.4010    2.0077 H   0  0  0  0  0  0  0  0  0  0  0  0
   -0.0687    3.6796    1.3512 H   0  0  0  0  0  0  0  0  0  0  0  0
    1.8550    0.6370    0.4193 H   0  0  0  0  0  0  0  0  0  0  0  0
    2.8593   -0.0234   -0.8784 H   0  0  0  0  0  0  0  0  0  0  0  0
    3.3318   -2.0360    0.6881 H   0  0  0  0  0  0  0  0  0  0  0  0
    2.4509   -1.1093    1.9746 H   0  0  0  0  0  0  0  0  0  0  0  0
    3.9626   -0.4423    1.2512 H   0  0  0  0  0  0  0  0  0  0  0  0
   -3.1909    4.4922    6.7073 H   0  0  0  0  0  0  0  0  0  0  0  0
   -1.4562    8.1746    1.9451 H   0  0  0  0  0  0  0  0  0  0  0  0
   -1.0494    9.5881    6.7089 H   0  0  0  0  0  0  0  0  0  0  0  0
  1  2  2  3
  2  3  1  0
  3  4  2  0
  3  5  1  0
  5  6  2  0
  6  7  1  0
  7  8  1  0
  7  9  2  0
  9 10  1  0
  9 11  1  0
 11 12  2  0
 12 13  1  0
 13 14  2  3
 14 15  1  0
 15 16  3  0
 14 17  1  0
 17 18  3  0
  1 19  1  0
 19 20  2  0
 20 21  1  0
 21 22  1  0
 20 23  1  0
 23 24  2  0
 24 25  1  0
 24 26  1  0
 26 27  2  0
 27 28  1  0
 27 29  1  0
 29 30  2  0
 30 31  1  0
 31 32  2  0
 32 33  1  0
 32 34  1  0
 34 35  1  0
 34 36  2  0
 36 37  1  0
 37 38  2  0
 38 39  1  0
 39 40  1  0
 40 41  1  0
 41 42  1  0
 42 43  1  0
 43 44  1  0
 42 45  2  0
 45 46  1  0
 46 47  1  0
 47 48  1  0
 48 49  1  0
 49 50  1  0
 50 51  1  0
 49 52  1  0
 52 53  2  0
 53 54  1  0
 54 55  1  0
 55 56  1  0
 45 57  1  0
 57 58  2  3
 58 59  1  0
 59 60  2  0
 59 61  1  0
 61 62  2  0
 62 63  1  0
 63 64  1  0
 63 65  2  0
 65 66  1  0
 65 67  1  0
 67 68  2  0
 68 69  1  0
 69 70  2  3
 70 71  1  0
 71 72  3  0
 70 73  1  0
 73 74  3  0
 13  2  1  0
 25 19  1  0
 54 26  1  0
 69 58  1  0
 12  5  1  0
 28 23  1  0
 53 29  1  0
 68 61  1  0
 37 30  1  0
 52 38  1  0
 48 39  2  0
 47 41  2  0
  1 75  1  0
  6 76  1  0
 11 77  1  0
 21 78  1  0
 21 79  1  0
 22 80  1  0
 22 81  1  0
 22 82  1  0
 33 83  1  0
 33 84  1  0
 33 85  1  0
 35 86  1  0
 35 87  1  0
 35 88  1  0
 43 89  1  0
 43 90  1  0
 44 91  1  0
 44 92  1  0
 44 93  1  0
 50 94  1  0
 50 95  1  0
 51 96  1  0
 51 97  1  0
 51 98  1  0
 55 99  1  0
 55100  1  0
 56101  1  0
 56102  1  0
 56103  1  0
 57104  1  0
 62105  1  0
 67106  1  0
M  END

