
     RDKit          3D

 93102  0  0  0  0  0  0  0  0999 V2000
   -4.3348    0.7902    5.2017 C   0  0  0  0  0  0  0  0  0  0  0  0
   -5.1773    1.7676    4.8261 C   0  0  0  0  0  0  0  0  0  0  0  0
   -6.3286    2.1553    5.6343 C   0  0  0  0  0  0  0  0  0  0  0  0
   -6.8339    1.4771    6.5668 O   0  0  0  0  0  0  0  0  0  0  0  0
   -6.7548    3.4775    5.2250 C   0  0  0  0  0  0  0  0  0  0  0  0
   -7.8105    4.2433    5.7247 C   0  0  0  0  0  0  0  0  0  0  0  0
   -8.0534    5.5033    5.1490 C   0  0  0  0  0  0  0  0  0  0  0  0
   -9.0886    6.2606    5.5916 F   0  0  0  0  0  0  0  0  0  0  0  0
   -7.2337    5.9793    4.1110 C   0  0  0  0  0  0  0  0  0  0  0  0
   -7.4797    7.1984    3.5585 F   0  0  0  0  0  0  0  0  0  0  0  0
   -6.1844    5.1834    3.6158 C   0  0  0  0  0  0  0  0  0  0  0  0
   -5.9566    3.9126    4.1779 C   0  0  0  0  0  0  0  0  0  0  0  0
   -5.0181    2.8199    3.7761 C   0  0  0  0  0  0  0  0  0  0  0  0
   -4.5153    2.6407    2.5301 C   0  0  0  0  0  0  0  0  0  0  0  0
   -4.2224    1.3292    2.0016 C   0  0  0  0  0  0  0  0  0  0  0  0
   -4.0006    0.2903    1.5523 N   0  0  0  0  0  0  0  0  0  0  0  0
   -4.4427    3.7013    1.5629 C   0  0  0  0  0  0  0  0  0  0  0  0
   -4.3800    4.5416    0.7733 N   0  0  0  0  0  0  0  0  0  0  0  0
   -2.9761    0.5925    4.6728 C   0  0  0  0  0  0  0  0  0  0  0  0
   -1.8835    1.4883    4.7354 C   0  0  0  0  0  0  0  0  0  0  0  0
   -1.8965    2.8483    5.3868 C   0  0  0  0  0  0  0  0  0  0  0  0
   -1.5980    3.9763    4.4002 C   0  0  0  0  0  0  0  0  0  0  0  0
   -0.7266    0.8778    4.2284 C   0  0  0  0  0  0  0  0  0  0  0  0
   -0.8925   -0.4070    3.7705 C   0  0  0  0  0  0  0  0  0  0  0  0
   -2.4722   -0.8966    4.0200 S   0  0  0  0  0  0  0  0  0  0  0  0
    0.2524   -0.9395    3.1778 C   0  0  0  0  0  0  0  0  0  0  0  0
    1.2847   -0.0612    3.2136 C   0  0  0  0  0  0  0  0  0  0  0  0
    0.8580    1.4227    3.9254 S   0  0  0  0  0  0  0  0  0  0  0  0
    2.1989   -0.4673    2.2812 C   0  0  0  0  0  0  0  0  0  0  0  0
    3.2481    0.2614    1.6951 C   0  0  0  0  0  0  0  0  0  0  0  0
    3.6721    1.4525    2.1982 N   0  0  0  0  0  0  0  0  0  0  0  0
    4.6634    2.1673    1.5931 C   0  0  0  0  0  0  0  0  0  0  0  0
    5.0962    3.4686    2.2040 C   0  0  0  0  0  0  0  0  0  0  0  0
    5.2534    1.6655    0.4079 C   0  0  0  0  0  0  0  0  0  0  0  0
    6.3683    2.3896   -0.2928 C   0  0  0  0  0  0  0  0  0  0  0  0
    4.8155    0.4796   -0.0999 N   0  0  0  0  0  0  0  0  0  0  0  0
    3.8283   -0.2314    0.5082 C   0  0  0  0  0  0  0  0  0  0  0  0
    3.3570   -1.4456   -0.0115 C   0  0  0  0  0  0  0  0  0  0  0  0
    3.6783   -2.1141   -1.1584 C   0  0  0  0  0  0  0  0  0  0  0  0
    4.5339   -1.8623   -2.6029 S   0  0  0  0  0  0  0  0  0  0  0  0
    3.9062   -3.3181   -3.2463 C   0  0  0  0  0  0  0  0  0  0  0  0
    3.9173   -3.8784   -4.5233 C   0  0  0  0  0  0  0  0  0  0  0  0
    4.6996   -3.3174   -5.6734 C   0  0  0  0  0  0  0  0  0  0  0  0
    6.0930   -3.9323   -5.7316 C   0  0  0  0  0  0  0  0  0  0  0  0
    3.0436   -4.9812   -4.5945 C   0  0  0  0  0  0  0  0  0  0  0  0
    2.2628   -5.2159   -3.0941 S   0  0  0  0  0  0  0  0  0  0  0  0
    3.0658   -3.9377   -2.3613 C   0  0  0  0  0  0  0  0  0  0  0  0
    2.9402   -3.2413   -1.1755 C   0  0  0  0  0  0  0  0  0  0  0  0
    2.1513   -3.3891   -0.0881 N   0  0  0  0  0  0  0  0  0  0  0  0
    1.7063   -4.7114    0.3817 C   0  0  0  0  0  0  0  0  0  0  0  0
    2.1505   -4.9875    1.8175 C   0  0  0  0  0  0  0  0  0  0  0  0
    2.3543   -2.2179    0.6069 C   0  0  0  0  0  0  0  0  0  0  0  0
    1.6921   -1.6682    1.7430 C   0  0  0  0  0  0  0  0  0  0  0  0
    0.4431   -1.9333    2.2679 N   0  0  0  0  0  0  0  0  0  0  0  0
   -0.6496   -2.7211    1.6838 C   0  0  0  0  0  0  0  0  0  0  0  0
   -1.0908   -2.1637    0.3354 C   0  0  0  0  0  0  0  0  0  0  0  0
    2.6922   -5.7192   -5.8215 C   0  0  0  0  0  0  0  0  0  0  0  0
    1.5440   -5.4692   -6.4851 C   0  0  0  0  0  0  0  0  0  0  0  0
    0.6217   -4.4490   -6.0438 C   0  0  0  0  0  0  0  0  0  0  0  0
   -0.1206   -3.6296   -5.6954 N   0  0  0  0  0  0  0  0  0  0  0  0
    1.1868   -6.1906   -7.6789 C   0  0  0  0  0  0  0  0  0  0  0  0
    0.9007   -6.7685   -8.6361 N   0  0  0  0  0  0  0  0  0  0  0  0
    3.6213   -6.7222   -6.2863 C   0  0  0  0  0  0  0  0  0  0  0  0
    4.3704   -7.5275   -6.6557 N   0  0  0  0  0  0  0  0  0  0  0  0
   -4.6379    0.1171    5.9946 H   0  0  0  0  0  0  0  0  0  0  0  0
   -8.4550    3.8682    6.5159 H   0  0  0  0  0  0  0  0  0  0  0  0
   -5.5924    5.5760    2.8211 H   0  0  0  0  0  0  0  0  0  0  0  0
   -1.1315    2.8691    6.1900 H   0  0  0  0  0  0  0  0  0  0  0  0
   -2.8780    3.0427    5.8633 H   0  0  0  0  0  0  0  0  0  0  0  0
   -1.6986    4.9491    4.9324 H   0  0  0  0  0  0  0  0  0  0  0  0
   -2.3130    3.9629    3.5582 H   0  0  0  0  0  0  0  0  0  0  0  0
   -0.5591    3.9013    4.0027 H   0  0  0  0  0  0  0  0  0  0  0  0
    4.5297    3.6619    3.1410 H   0  0  0  0  0  0  0  0  0  0  0  0
    6.1747    3.4240    2.4564 H   0  0  0  0  0  0  0  0  0  0  0  0
    4.9081    4.3029    1.4962 H   0  0  0  0  0  0  0  0  0  0  0  0
    6.6316    1.8719   -1.2372 H   0  0  0  0  0  0  0  0  0  0  0  0
    7.2629    2.4030    0.3572 H   0  0  0  0  0  0  0  0  0  0  0  0
    6.0634    3.4348   -0.5253 H   0  0  0  0  0  0  0  0  0  0  0  0
    4.1626   -3.5122   -6.6216 H   0  0  0  0  0  0  0  0  0  0  0  0
    4.7845   -2.2154   -5.5573 H   0  0  0  0  0  0  0  0  0  0  0  0
    6.6644   -3.4927   -6.5713 H   0  0  0  0  0  0  0  0  0  0  0  0
    6.0248   -5.0282   -5.8997 H   0  0  0  0  0  0  0  0  0  0  0  0
    6.6441   -3.7209   -4.7930 H   0  0  0  0  0  0  0  0  0  0  0  0
    0.6267   -4.8608    0.2061 H   0  0  0  0  0  0  0  0  0  0  0  0
    2.1833   -5.5030   -0.2293 H   0  0  0  0  0  0  0  0  0  0  0  0
    1.6239   -4.3204    2.5244 H   0  0  0  0  0  0  0  0  0  0  0  0
    3.2478   -4.8175    1.9213 H   0  0  0  0  0  0  0  0  0  0  0  0
    1.9256   -6.0347    2.0958 H   0  0  0  0  0  0  0  0  0  0  0  0
   -0.3852   -3.7748    1.6318 H   0  0  0  0  0  0  0  0  0  0  0  0
   -1.5244   -2.7234    2.3530 H   0  0  0  0  0  0  0  0  0  0  0  0
   -1.9995   -2.7035   -0.0018 H   0  0  0  0  0  0  0  0  0  0  0  0
   -1.3136   -1.0750    0.4367 H   0  0  0  0  0  0  0  0  0  0  0  0
   -0.3013   -2.3061   -0.4320 H   0  0  0  0  0  0  0  0  0  0  0  0
  1  2  2  3
  2  3  1  0
  3  4  2  0
  3  5  1  0
  5  6  2  0
  6  7  1  0
  7  8  1  0
  7  9  2  0
  9 10  1  0
  9 11  1  0
 11 12  2  0
 12 13  1  0
 13 14  2  3
 14 15  1  0
 15 16  3  0
 14 17  1  0
 17 18  3  0
  1 19  1  0
 19 20  2  0
 20 21  1  0
 21 22  1  0
 20 23  1  0
 23 24  2  0
 24 25  1  0
 24 26  1  0
 26 27  2  0
 27 28  1  0
 27 29  1  0
 29 30  2  0
 30 31  1  0
 31 32  2  0
 32 33  1  0
 32 34  1  0
 34 35  1  0
 34 36  2  0
 36 37  1  0
 37 38  2  0
 38 39  1  0
 39 40  1  0
 40 41  1  0
 41 42  1  0
 42 43  1  0
 43 44  1  0
 42 45  2  0
 45 46  1  0
 46 47  1  0
 47 48  1  0
 48 49  1  0
 49 50  1  0
 50 51  1  0
 49 52  1  0
 52 53  2  0
 53 54  1  0
 54 55  1  0
 55 56  1  0
 45 57  1  0
 57 58  2  3
 58 59  1  0
 59 60  3  0
 58 61  1  0
 61 62  3  0
 57 63  1  0
 63 64  3  0
 13  2  1  0
 25 19  1  0
 54 26  1  0
 12  5  1  0
 28 23  1  0
 53 29  1  0
 37 30  1  0
 52 38  1  0
 48 39  2  0
 47 41  2  0
  1 65  1  0
  6 66  1  0
 11 67  1  0
 21 68  1  0
 21 69  1  0
 22 70  1  0
 22 71  1  0
 22 72  1  0
 33 73  1  0
 33 74  1  0
 33 75  1  0
 35 76  1  0
 35 77  1  0
 35 78  1  0
 43 79  1  0
 43 80  1  0
 44 81  1  0
 44 82  1  0
 44 83  1  0
 50 84  1  0
 50 85  1  0
 51 86  1  0
 51 87  1  0
 51 88  1  0
 55 89  1  0
 55 90  1  0
 56 91  1  0
 56 92  1  0
 56 93  1  0
M  END

