
     RDKit          3D

136153  0  0  0  0  0  0  0  0999 V2000
    3.3123   -5.5417   -5.0286 C   0  0  0  0  0  0  0  0  0  0  0  0
    3.6601   -6.5541   -4.2143 C   0  0  0  0  0  0  0  0  0  0  0  0
    3.3589   -6.6512   -2.7842 C   0  0  0  0  0  0  0  0  0  0  0  0
    2.4732   -5.9934   -2.1799 O   0  0  0  0  0  0  0  0  0  0  0  0
    4.2206   -7.6736   -2.1926 C   0  0  0  0  0  0  0  0  0  0  0  0
    4.9874   -8.2369   -3.2073 C   0  0  0  0  0  0  0  0  0  0  0  0
    6.0194   -9.1332   -2.8964 C   0  0  0  0  0  0  0  0  0  0  0  0
    6.2187   -9.5181   -1.5664 C   0  0  0  0  0  0  0  0  0  0  0  0
    5.4102   -8.9973   -0.5389 C   0  0  0  0  0  0  0  0  0  0  0  0
    5.6231   -9.3903    0.7920 C   0  0  0  0  0  0  0  0  0  0  0  0
    4.8349   -8.8601    1.8147 C   0  0  0  0  0  0  0  0  0  0  0  0
    3.8318   -7.9352    1.5227 C   0  0  0  0  0  0  0  0  0  0  0  0
    3.6111   -7.5255    0.2059 C   0  0  0  0  0  0  0  0  0  0  0  0
    4.3940   -8.0489   -0.8427 C   0  0  0  0  0  0  0  0  0  0  0  0
    4.5836   -7.6812   -4.5294 C   0  0  0  0  0  0  0  0  0  0  0  0
    4.8125   -8.2385   -5.7504 C   0  0  0  0  0  0  0  0  0  0  0  0
    4.1560   -7.7801   -6.9486 C   0  0  0  0  0  0  0  0  0  0  0  0
    3.6330   -7.4234   -7.9169 N   0  0  0  0  0  0  0  0  0  0  0  0
    5.6119   -9.4220   -5.9282 C   0  0  0  0  0  0  0  0  0  0  0  0
    6.2505  -10.3743   -6.0877 N   0  0  0  0  0  0  0  0  0  0  0  0
    2.5560   -4.3557   -4.6012 C   0  0  0  0  0  0  0  0  0  0  0  0
    1.4633   -3.8147   -5.3077 C   0  0  0  0  0  0  0  0  0  0  0  0
    0.6952   -4.5288   -6.3527 C   0  0  0  0  0  0  0  0  0  0  0  0
    0.2921   -3.8704   -7.5240 C   0  0  0  0  0  0  0  0  0  0  0  0
   -0.5068   -4.5265   -8.4652 C   0  0  0  0  0  0  0  0  0  0  0  0
   -0.9104   -5.8546   -8.2517 C   0  0  0  0  0  0  0  0  0  0  0  0
   -1.8186   -6.5449   -9.2324 C   0  0  0  0  0  0  0  0  0  0  0  0
   -3.2777   -6.3999   -8.8129 C   0  0  0  0  0  0  0  0  0  0  0  0
   -0.4860   -6.5216   -7.0920 C   0  0  0  0  0  0  0  0  0  0  0  0
    0.3120   -5.8654   -6.1512 C   0  0  0  0  0  0  0  0  0  0  0  0
    1.1673   -2.5267   -4.8472 C   0  0  0  0  0  0  0  0  0  0  0  0
    0.0307   -1.3485   -5.3238 S   0  0  0  0  0  0  0  0  0  0  0  0
    0.6302   -0.2723   -4.1622 C   0  0  0  0  0  0  0  0  0  0  0  0
    0.4948    1.0351   -3.8133 C   0  0  0  0  0  0  0  0  0  0  0  0
   -0.2561    2.0581   -4.3927 C   0  0  0  0  0  0  0  0  0  0  0  0
   -0.1126    3.3770   -3.8848 C   0  0  0  0  0  0  0  0  0  0  0  0
   -0.8548    4.3462   -4.4804 N   0  0  0  0  0  0  0  0  0  0  0  0
   -1.6217    3.4436   -5.6383 S   0  0  0  0  0  0  0  0  0  0  0  0
   -1.0997    1.8857   -5.4410 N   0  0  0  0  0  0  0  0  0  0  0  0
    0.7408    3.5934   -2.7964 C   0  0  0  0  0  0  0  0  0  0  0  0
    0.7832    4.6579   -1.9401 C   0  0  0  0  0  0  0  0  0  0  0  0
   -0.2283    5.9968   -1.6840 S   0  0  0  0  0  0  0  0  0  0  0  0
    0.1915    6.0519   -0.0378 C   0  0  0  0  0  0  0  0  0  0  0  0
   -0.4112    6.7027    1.0428 C   0  0  0  0  0  0  0  0  0  0  0  0
   -1.4134    7.7802    0.8900 C   0  0  0  0  0  0  0  0  0  0  0  0
   -1.1483    8.8664    0.0421 C   0  0  0  0  0  0  0  0  0  0  0  0
   -2.0934    9.8815   -0.1258 C   0  0  0  0  0  0  0  0  0  0  0  0
   -3.3236    9.8230    0.5458 C   0  0  0  0  0  0  0  0  0  0  0  0
   -4.3551   10.8973    0.3323 C   0  0  0  0  0  0  0  0  0  0  0  0
   -5.2087   10.5921   -0.8960 C   0  0  0  0  0  0  0  0  0  0  0  0
   -3.6026    8.7228    1.3728 C   0  0  0  0  0  0  0  0  0  0  0  0
   -2.6515    7.7122    1.5477 C   0  0  0  0  0  0  0  0  0  0  0  0
   -0.0140    6.1173    2.2575 C   0  0  0  0  0  0  0  0  0  0  0  0
    1.0706    4.8389    1.9580 S   0  0  0  0  0  0  0  0  0  0  0  0
    1.0401    5.0208    0.2928 C   0  0  0  0  0  0  0  0  0  0  0  0
    1.3878    4.2257   -0.8002 C   0  0  0  0  0  0  0  0  0  0  0  0
    1.8159    2.9359   -0.8962 N   0  0  0  0  0  0  0  0  0  0  0  0
    1.4549    2.5513   -2.1702 C   0  0  0  0  0  0  0  0  0  0  0  0
    1.4204    1.2559   -2.7747 C   0  0  0  0  0  0  0  0  0  0  0  0
    2.2081    0.1350   -2.5951 N   0  0  0  0  0  0  0  0  0  0  0  0
    1.6517   -0.7762   -3.4370 C   0  0  0  0  0  0  0  0  0  0  0  0
    1.9762   -2.0673   -3.8357 C   0  0  0  0  0  0  0  0  0  0  0  0
    3.1313   -3.2244   -3.4563 S   0  0  0  0  0  0  0  0  0  0  0  0
    3.5481   -0.0034   -2.0097 C   0  0  0  0  0  0  0  0  0  0  0  0
    4.4848    1.1426   -2.3970 C   0  0  0  0  0  0  0  0  0  0  0  0
    2.2336    2.1092    0.2432 C   0  0  0  0  0  0  0  0  0  0  0  0
    1.1578    1.0959    0.6274 C   0  0  0  0  0  0  0  0  0  0  0  0
   -0.5508    6.4255    3.5895 C   0  0  0  0  0  0  0  0  0  0  0  0
   -1.3359    5.5605    4.2608 C   0  0  0  0  0  0  0  0  0  0  0  0
   -1.7601    4.2434    3.7704 C   0  0  0  0  0  0  0  0  0  0  0  0
   -1.7879    3.8684    2.5694 O   0  0  0  0  0  0  0  0  0  0  0  0
   -2.1686    3.4398    4.8980 C   0  0  0  0  0  0  0  0  0  0  0  0
   -2.4910    2.0631    4.8854 C   0  0  0  0  0  0  0  0  0  0  0  0
   -2.7096    1.5318    6.1413 C   0  0  0  0  0  0  0  0  0  0  0  0
   -2.6083    2.3019    7.3461 C   0  0  0  0  0  0  0  0  0  0  0  0
   -2.2958    3.6522    7.3621 C   0  0  0  0  0  0  0  0  0  0  0  0
   -2.0967    4.2269    6.0763 C   0  0  0  0  0  0  0  0  0  0  0  0
   -1.7157    5.6205    5.7048 C   0  0  0  0  0  0  0  0  0  0  0  0
   -1.8949    6.7370    6.4586 C   0  0  0  0  0  0  0  0  0  0  0  0
   -2.3899    6.6876    7.8092 C   0  0  0  0  0  0  0  0  0  0  0  0
   -2.7871    6.6675    8.8968 N   0  0  0  0  0  0  0  0  0  0  0  0
   -1.7469    8.0613    5.9111 C   0  0  0  0  0  0  0  0  0  0  0  0
   -1.6338    9.1297    5.4765 N   0  0  0  0  0  0  0  0  0  0  0  0
   -2.8940    1.0811    8.1676 C   0  0  0  0  0  0  0  0  0  0  0  0
   -1.6787    0.4320    8.8967 C   0  0  0  0  0  0  0  0  0  0  0  0
   -2.1327   -0.9475    9.3074 C   0  0  0  0  0  0  0  0  0  0  0  0
   -2.2367   -1.6623    8.1819 C   0  0  0  0  0  0  0  0  0  0  0  0
   -1.8528   -0.7407    7.0491 C   0  0  0  0  0  0  0  0  0  0  0  0
   -0.7574    0.0443    7.7519 C   0  0  0  0  0  0  0  0  0  0  0  0
   -3.0096    0.2963    6.9331 C   0  0  0  0  0  0  0  0  0  0  0  0
    3.6409   -5.5234   -6.0520 H   0  0  0  0  0  0  0  0  0  0  0  0
    6.6964   -9.5097   -3.6439 H   0  0  0  0  0  0  0  0  0  0  0  0
    7.0143  -10.2152   -1.3367 H   0  0  0  0  0  0  0  0  0  0  0  0
    6.4004  -10.1020    1.0387 H   0  0  0  0  0  0  0  0  0  0  0  0
    5.0072   -9.1654    2.8399 H   0  0  0  0  0  0  0  0  0  0  0  0
    3.2242   -7.5316    2.3218 H   0  0  0  0  0  0  0  0  0  0  0  0
    2.8268   -6.8074    0.0264 H   0  0  0  0  0  0  0  0  0  0  0  0
    0.5900   -2.8467   -7.7148 H   0  0  0  0  0  0  0  0  0  0  0  0
   -0.8297   -3.9928   -9.3501 H   0  0  0  0  0  0  0  0  0  0  0  0
   -1.6832   -6.1176  -10.2507 H   0  0  0  0  0  0  0  0  0  0  0  0
   -1.5589   -7.6251   -9.2933 H   0  0  0  0  0  0  0  0  0  0  0  0
   -3.4338   -6.8377   -7.8032 H   0  0  0  0  0  0  0  0  0  0  0  0
   -3.9281   -6.9353   -9.5363 H   0  0  0  0  0  0  0  0  0  0  0  0
   -3.5710   -5.3296   -8.7938 H   0  0  0  0  0  0  0  0  0  0  0  0
   -0.7908   -7.5436   -6.9089 H   0  0  0  0  0  0  0  0  0  0  0  0
    0.6019   -6.3904   -5.2493 H   0  0  0  0  0  0  0  0  0  0  0  0
   -0.1985    8.9367   -0.4775 H   0  0  0  0  0  0  0  0  0  0  0  0
   -1.8669   10.7134   -0.7823 H   0  0  0  0  0  0  0  0  0  0  0  0
   -3.8559   11.8819    0.1962 H   0  0  0  0  0  0  0  0  0  0  0  0
   -5.0145   10.9839    1.2246 H   0  0  0  0  0  0  0  0  0  0  0  0
   -5.9423   11.4127   -1.0542 H   0  0  0  0  0  0  0  0  0  0  0  0
   -5.7650    9.6415   -0.7531 H   0  0  0  0  0  0  0  0  0  0  0  0
   -4.5655   10.5084   -1.7987 H   0  0  0  0  0  0  0  0  0  0  0  0
   -4.5530    8.6506    1.8858 H   0  0  0  0  0  0  0  0  0  0  0  0
   -2.9000    6.8654    2.1757 H   0  0  0  0  0  0  0  0  0  0  0  0
    4.0381   -0.9174   -2.3899 H   0  0  0  0  0  0  0  0  0  0  0  0
    3.4827   -0.1702   -0.9221 H   0  0  0  0  0  0  0  0  0  0  0  0
    4.6663    1.1266   -3.4954 H   0  0  0  0  0  0  0  0  0  0  0  0
    5.4593    1.0046   -1.8806 H   0  0  0  0  0  0  0  0  0  0  0  0
    4.0809    2.1318   -2.1064 H   0  0  0  0  0  0  0  0  0  0  0  0
    2.4473    2.7389    1.1219 H   0  0  0  0  0  0  0  0  0  0  0  0
    3.2038    1.6423    0.0479 H   0  0  0  0  0  0  0  0  0  0  0  0
    1.4781    0.5385    1.5332 H   0  0  0  0  0  0  0  0  0  0  0  0
    0.2038    1.6222    0.8453 H   0  0  0  0  0  0  0  0  0  0  0  0
    0.9909    0.3691   -0.1903 H   0  0  0  0  0  0  0  0  0  0  0  0
   -0.1972    7.3342    4.0511 H   0  0  0  0  0  0  0  0  0  0  0  0
   -2.5167    1.4648    3.9844 H   0  0  0  0  0  0  0  0  0  0  0  0
   -2.1693    4.1789    8.2914 H   0  0  0  0  0  0  0  0  0  0  0  0
   -3.8332    1.1511    8.7641 H   0  0  0  0  0  0  0  0  0  0  0  0
   -1.2220    1.0408    9.7056 H   0  0  0  0  0  0  0  0  0  0  0  0
   -2.2650   -1.3248   10.3157 H   0  0  0  0  0  0  0  0  0  0  0  0
   -2.4687   -2.7189    8.1198 H   0  0  0  0  0  0  0  0  0  0  0  0
   -1.5617   -1.2455    6.1029 H   0  0  0  0  0  0  0  0  0  0  0  0
    0.1053   -0.5876    8.0706 H   0  0  0  0  0  0  0  0  0  0  0  0
   -0.3668    0.9096    7.1688 H   0  0  0  0  0  0  0  0  0  0  0  0
   -4.0208   -0.1245    6.7403 H   0  0  0  0  0  0  0  0  0  0  0  0
  1  2  2  3
  2  3  1  0
  3  4  2  0
  3  5  1  0
  5  6  2  0
  6  7  1  0
  7  8  2  0
  8  9  1  0
  9 10  2  0
 10 11  1  0
 11 12  2  0
 12 13  1  0
 13 14  2  0
  6 15  1  0
 15 16  2  3
 16 17  1  0
 17 18  3  0
 16 19  1  0
 19 20  3  0
  1 21  1  0
 21 22  2  0
 22 23  1  0
 23 24  2  0
 24 25  1  0
 25 26  2  0
 26 27  1  0
 27 28  1  0
 26 29  1  0
 29 30  2  0
 22 31  1  0
 31 32  1  0
 32 33  1  0
 33 34  1  0
 34 35  1  0
 35 36  1  0
 36 37  2  0
 37 38  1  0
 38 39  1  0
 36 40  1  0
 40 41  1  0
 41 42  1  0
 42 43  1  0
 43 44  1  0
 44 45  1  0
 45 46  2  0
 46 47  1  0
 47 48  2  0
 48 49  1  0
 49 50  1  0
 48 51  1  0
 51 52  2  0
 44 53  2  0
 53 54  1  0
 54 55  1  0
 55 56  1  0
 56 57  1  0
 57 58  1  0
 58 59  1  0
 59 60  1  0
 60 61  1  0
 61 62  1  0
 62 63  1  0
 60 64  1  0
 64 65  1  0
 57 66  1  0
 66 67  1  0
 53 68  1  0
 68 69  2  3
 69 70  1  0
 70 71  2  0
 70 72  1  0
 72 73  2  0
 73 74  1  0
 74 75  2  0
 75 76  1  0
 76 77  2  0
 77 78  1  0
 78 79  2  3
 79 80  1  0
 80 81  3  0
 79 82  1  0
 82 83  3  0
 75 84  1  0
 84 85  1  0
 85 86  1  0
 86 87  2  0
 87 88  1  0
 88 89  1  0
 88 90  1  0
 15  2  1  0
 63 21  1  0
 78 69  1  0
 90 84  1  0
 14  5  1  0
 30 23  1  0
 62 31  2  0
 77 72  1  0
 89 85  1  0
 14  9  1  0
 61 33  2  0
 90 74  1  0
 59 34  2  0
 39 35  2  0
 58 40  2  0
 56 41  2  0
 55 43  2  0
 52 45  1  0
  1 91  1  0
  7 92  1  0
  8 93  1  0
 10 94  1  0
 11 95  1  0
 12 96  1  0
 13 97  1  0
 24 98  1  0
 25 99  1  0
 27100  1  0
 27101  1  0
 28102  1  0
 28103  1  0
 28104  1  0
 29105  1  0
 30106  1  0
 46107  1  0
 47108  1  0
 49109  1  0
 49110  1  0
 50111  1  0
 50112  1  0
 50113  1  0
 51114  1  0
 52115  1  0
 64116  1  0
 64117  1  0
 65118  1  0
 65119  1  0
 65120  1  0
 66121  1  0
 66122  1  0
 67123  1  0
 67124  1  0
 67125  1  0
 68126  1  0
 73127  1  0
 76128  1  0
 84129  1  0
 85130  1  0
 86131  1  0
 87132  1  0
 88133  1  0
 89134  1  0
 89135  1  0
 90136  1  0
M  END

