
     RDKit          3D

107121  0  0  0  0  0  0  0  0999 V2000
    5.5565    5.3178   -3.7990 C   0  0  0  0  0  0  0  0  0  0  0  0
    4.6446    5.9508   -4.5927 C   0  0  0  0  0  0  0  0  0  0  0  0
    4.9762    7.2565   -5.2082 C   0  0  0  0  0  0  0  0  0  0  0  0
    6.0995    7.7795   -5.2958 O   0  0  0  0  0  0  0  0  0  0  0  0
    3.6880    7.8005   -5.7104 C   0  0  0  0  0  0  0  0  0  0  0  0
    2.6829    6.9442   -5.4664 C   0  0  0  0  0  0  0  0  0  0  0  0
    1.3931    7.2359   -5.8034 C   0  0  0  0  0  0  0  0  0  0  0  0
    1.1585    8.4753   -6.4320 C   0  0  0  0  0  0  0  0  0  0  0  0
    2.1749    9.3385   -6.6854 C   0  0  0  0  0  0  0  0  0  0  0  0
    1.8807   10.5310   -7.2759 C   0  0  0  0  0  0  0  0  0  0  0  0
    2.8902   11.4480   -7.5208 C   0  0  0  0  0  0  0  0  0  0  0  0
    4.1938   11.1582   -7.1678 C   0  0  0  0  0  0  0  0  0  0  0  0
    4.4871    9.9553   -6.5763 C   0  0  0  0  0  0  0  0  0  0  0  0
    3.4703    9.0244   -6.3276 C   0  0  0  0  0  0  0  0  0  0  0  0
    3.2350    5.7119   -4.7578 C   0  0  0  0  0  0  0  0  0  0  0  0
    2.5852    4.5998   -4.9757 C   0  0  0  0  0  0  0  0  0  0  0  0
    3.3805    3.3304   -5.1745 C   0  0  0  0  0  0  0  0  0  0  0  0
    3.9857    2.3465   -5.3271 N   0  0  0  0  0  0  0  0  0  0  0  0
    1.2427    4.2852   -4.8635 C   0  0  0  0  0  0  0  0  0  0  0  0
    0.0435    3.9962   -4.7588 N   0  0  0  0  0  0  0  0  0  0  0  0
    5.3371    4.1281   -3.1046 C   0  0  0  0  0  0  0  0  0  0  0  0
    4.3674    4.8599   -1.2926 Se  0  0  0  0  0  2  0  0  0  0  0  0
    4.2147    3.0969   -0.6962 C   0  0  0  0  0  0  0  0  0  0  0  0
    3.5837    2.3795    0.2962 C   0  0  0  0  0  0  0  0  0  0  0  0
    2.8963    2.8152    1.4119 C   0  0  0  0  0  0  0  0  0  0  0  0
    2.3284    1.8715    2.2006 C   0  0  0  0  0  0  0  0  0  0  0  0
    1.6879    2.3047    3.2906 N   0  0  0  0  0  0  0  0  0  0  0  0
    1.8473    3.9687    3.2371 S   0  0  0  0  0  0  0  0  0  0  0  0
    2.7335    4.0889    1.8339 N   0  0  0  0  0  0  0  0  0  0  0  0
    2.4803    0.5269    1.7912 C   0  0  0  0  0  0  0  0  0  0  0  0
    1.8643   -0.5875    2.3269 C   0  0  0  0  0  0  0  0  0  0  0  0
    0.8035   -1.0864    3.5478 S   0  0  0  0  0  0  0  0  0  0  0  0
    0.7206   -2.7735    3.0749 C   0  0  0  0  0  0  0  0  0  0  0  0
    0.0688   -3.8850    3.4815 C   0  0  0  0  0  0  0  0  0  0  0  0
   -0.9536   -3.7994    4.6304 C   0  0  0  0  0  0  0  0  0  0  0  0
   -2.2362   -3.2013    4.0470 C   0  0  0  0  0  0  0  0  0  0  0  0
    0.2299   -5.0609    2.8390 C   0  0  0  0  0  0  0  0  0  0  0  0
    1.3058   -4.5863    1.6652 S   0  0  0  0  0  0  0  0  0  0  0  0
    1.5176   -2.8620    2.0121 C   0  0  0  0  0  0  0  0  0  0  0  0
    2.1426   -1.6837    1.5880 C   0  0  0  0  0  0  0  0  0  0  0  0
    2.9535   -1.2504    0.5335 N   0  0  0  0  0  0  0  0  0  0  0  0
    3.1434    0.0817    0.6950 C   0  0  0  0  0  0  0  0  0  0  0  0
    3.7506    1.0624   -0.0967 C   0  0  0  0  0  0  0  0  0  0  0  0
    4.4424    1.0029   -1.2076 N   0  0  0  0  0  0  0  0  0  0  0  0
    4.7610    2.3236   -1.6444 C   0  0  0  0  0  0  0  0  0  0  0  0
    5.2766    2.8901   -2.7565 C   0  0  0  0  0  0  0  0  0  0  0  0
    4.9733   -0.1139   -1.9248 C   0  0  0  0  0  0  0  0  0  0  0  0
    4.2111   -0.4747   -3.1324 C   0  0  0  0  0  0  0  0  0  0  0  0
    3.3065   -2.1624   -0.4934 C   0  0  0  0  0  0  0  0  0  0  0  0
    2.1429   -2.2632   -1.5100 C   0  0  0  0  0  0  0  0  0  0  0  0
   -0.5281   -6.2550    3.3411 C   0  0  0  0  0  0  0  0  0  0  0  0
   -1.7719   -6.4966    2.9008 C   0  0  0  0  0  0  0  0  0  0  0  0
   -2.5687   -5.8299    1.9709 C   0  0  0  0  0  0  0  0  0  0  0  0
   -2.1526   -5.1832    0.9185 O   0  0  0  0  0  0  0  0  0  0  0  0
   -3.9851   -5.9238    2.2971 C   0  0  0  0  0  0  0  0  0  0  0  0
   -5.1107   -5.4078    1.6256 C   0  0  0  0  0  0  0  0  0  0  0  0
   -6.3799   -5.6097    2.1048 C   0  0  0  0  0  0  0  0  0  0  0  0
   -6.5228   -6.3210    3.2589 C   0  0  0  0  0  0  0  0  0  0  0  0
   -5.3899   -6.8395    3.9187 C   0  0  0  0  0  0  0  0  0  0  0  0
   -4.1153   -6.6362    3.4298 C   0  0  0  0  0  0  0  0  0  0  0  0
   -2.7258   -7.0914    3.9385 C   0  0  0  0  0  0  0  0  0  0  0  0
   -2.5517   -7.8853    4.8349 C   0  0  0  0  0  0  0  0  0  0  0  0
   -3.8051   -8.2329    5.7845 C   0  0  0  0  0  0  0  0  0  0  0  0
   -4.6571   -8.4781    6.4296 N   0  0  0  0  0  0  0  0  0  0  0  0
   -1.6339   -8.8151    5.4147 C   0  0  0  0  0  0  0  0  0  0  0  0
   -0.9065   -9.5243    5.8680 N   0  0  0  0  0  0  0  0  0  0  0  0
   -7.9830   -6.1338    3.3241 C   0  0  0  0  0  0  0  0  0  0  0  0
   -8.3286   -4.9544    4.2404 C   0  0  0  0  0  0  0  0  0  0  0  0
   -9.7424   -4.6052    3.9606 C   0  0  0  0  0  0  0  0  0  0  0  0
   -9.7853   -4.1504    2.6967 C   0  0  0  0  0  0  0  0  0  0  0  0
   -8.4185   -4.0846    2.2026 C   0  0  0  0  0  0  0  0  0  0  0  0
   -7.6608   -3.8227    3.4978 C   0  0  0  0  0  0  0  0  0  0  0  0
   -7.8955   -5.4718    1.9603 C   0  0  0  0  0  0  0  0  0  0  0  0
    6.5170    5.8224   -3.6951 H   0  0  0  0  0  0  0  0  0  0  0  0
    0.5939    6.5616   -5.6262 H   0  0  0  0  0  0  0  0  0  0  0  0
    0.1390    8.6958   -6.7163 H   0  0  0  0  0  0  0  0  0  0  0  0
    0.8509   10.7530   -7.5385 H   0  0  0  0  0  0  0  0  0  0  0  0
    2.6007   12.3824   -7.9932 H   0  0  0  0  0  0  0  0  0  0  0  0
    4.9446   11.9423   -7.3710 H   0  0  0  0  0  0  0  0  0  0  0  0
    5.5037    9.7645   -6.3073 H   0  0  0  0  0  0  0  0  0  0  0  0
   -0.5917   -3.0275    5.3748 H   0  0  0  0  0  0  0  0  0  0  0  0
   -1.0325   -4.6976    5.1496 H   0  0  0  0  0  0  0  0  0  0  0  0
   -2.4012   -2.1799    4.3797 H   0  0  0  0  0  0  0  0  0  0  0  0
   -3.1059   -3.8151    4.2753 H   0  0  0  0  0  0  0  0  0  0  0  0
   -2.1014   -3.1489    2.9303 H   0  0  0  0  0  0  0  0  0  0  0  0
    5.8124    2.1808   -3.5363 H   0  0  0  0  0  0  0  0  0  0  0  0
    6.0021    0.2462   -2.3980 H   0  0  0  0  0  0  0  0  0  0  0  0
    5.4338   -0.8498   -1.2889 H   0  0  0  0  0  0  0  0  0  0  0  0
    4.6960   -0.0602   -4.0992 H   0  0  0  0  0  0  0  0  0  0  0  0
    3.1939   -0.0073   -3.1983 H   0  0  0  0  0  0  0  0  0  0  0  0
    4.1262   -1.5318   -3.3418 H   0  0  0  0  0  0  0  0  0  0  0  0
    3.2743   -3.2415   -0.0452 H   0  0  0  0  0  0  0  0  0  0  0  0
    4.2853   -2.2209   -0.9423 H   0  0  0  0  0  0  0  0  0  0  0  0
    2.3799   -2.9199   -2.3667 H   0  0  0  0  0  0  0  0  0  0  0  0
    1.8251   -1.3076   -1.8932 H   0  0  0  0  0  0  0  0  0  0  0  0
    1.2783   -2.7696   -0.9775 H   0  0  0  0  0  0  0  0  0  0  0  0
   -0.0584   -6.8837    4.0254 H   0  0  0  0  0  0  0  0  0  0  0  0
   -4.9633   -4.8346    0.7510 H   0  0  0  0  0  0  0  0  0  0  0  0
   -5.5868   -7.3776    4.8015 H   0  0  0  0  0  0  0  0  0  0  0  0
   -8.5180   -7.0439    3.4259 H   0  0  0  0  0  0  0  0  0  0  0  0
   -8.0655   -5.0628    5.2577 H   0  0  0  0  0  0  0  0  0  0  0  0
  -10.5765   -4.6935    4.6386 H   0  0  0  0  0  0  0  0  0  0  0  0
  -10.6746   -3.8649    2.1149 H   0  0  0  0  0  0  0  0  0  0  0  0
   -8.1689   -3.3643    1.4116 H   0  0  0  0  0  0  0  0  0  0  0  0
   -7.9082   -2.8541    3.9419 H   0  0  0  0  0  0  0  0  0  0  0  0
   -6.5885   -3.9825    3.4236 H   0  0  0  0  0  0  0  0  0  0  0  0
   -8.2322   -6.0295    1.1086 H   0  0  0  0  0  0  0  0  0  0  0  0
  1  2  2  3
  2  3  1  0
  3  4  2  0
  3  5  1  0
  5  6  2  0
  6  7  1  0
  7  8  2  0
  8  9  1  0
  9 10  2  0
 10 11  1  0
 11 12  2  0
 12 13  1  0
 13 14  2  0
  6 15  1  0
 15 16  2  3
 16 17  1  0
 17 18  3  0
 16 19  1  0
 19 20  3  0
  1 21  1  0
 21 22  1  0
 22 23  1  0
 23 24  1  0
 24 25  1  0
 25 26  1  0
 26 27  2  0
 27 28  1  0
 28 29  1  0
 26 30  1  0
 30 31  1  0
 31 32  1  0
 32 33  1  0
 33 34  1  0
 34 35  1  0
 35 36  1  0
 34 37  2  0
 37 38  1  0
 38 39  1  0
 39 40  1  0
 40 41  1  0
 41 42  1  0
 42 43  1  0
 43 44  1  0
 44 45  1  0
 45 46  1  0
 44 47  1  0
 47 48  1  0
 41 49  1  0
 49 50  1  0
 37 51  1  0
 51 52  2  3
 52 53  1  0
 53 54  2  0
 53 55  1  0
 55 56  2  0
 56 57  1  0
 57 58  2  0
 58 59  1  0
 59 60  2  0
 60 61  1  0
 61 62  2  3
 62 63  1  0
 63 64  3  0
 62 65  1  0
 65 66  3  0
 58 67  1  0
 67 68  1  0
 68 69  1  0
 69 70  2  0
 70 71  1  0
 71 72  1  0
 71 73  1  0
 15  2  1  0
 46 21  2  0
 61 52  1  0
 73 67  1  0
 14  5  1  0
 45 23  2  0
 60 55  1  0
 72 68  1  0
 14  9  1  0
 43 24  2  0
 73 57  1  0
 29 25  2  0
 42 30  2  0
 40 31  2  0
 39 33  2  0
  1 74  1  0
  7 75  1  0
  8 76  1  0
 10 77  1  0
 11 78  1  0
 12 79  1  0
 13 80  1  0
 35 81  1  0
 35 82  1  0
 36 83  1  0
 36 84  1  0
 36 85  1  0
 46 86  1  0
 47 87  1  0
 47 88  1  0
 48 89  1  0
 48 90  1  0
 48 91  1  0
 49 92  1  0
 49 93  1  0
 50 94  1  0
 50 95  1  0
 50 96  1  0
 51 97  1  0
 56 98  1  0
 59 99  1  0
 67100  1  0
 68101  1  0
 69102  1  0
 70103  1  0
 71104  1  0
 72105  1  0
 72106  1  0
 73107  1  0
M  END

