
     RDKit          3D

104119  0  0  0  0  0  0  0  0999 V2000
   -6.7578    6.9353    0.4756 C   0  0  0  0  0  0  0  0  0  0  0  0
   -5.5927    7.0203    1.1273 C   0  0  0  0  0  0  0  0  0  0  0  0
   -4.6055    5.9152    1.3521 C   0  0  0  0  0  0  0  0  0  0  0  0
   -4.8577    4.7185    1.3942 O   0  0  0  0  0  0  0  0  0  0  0  0
   -3.2728    6.4432    1.5260 C   0  0  0  0  0  0  0  0  0  0  0  0
   -3.3255    7.8602    1.4362 C   0  0  0  0  0  0  0  0  0  0  0  0
   -2.0890    8.3903    1.5005 C   0  0  0  0  0  0  0  0  0  0  0  0
   -0.8606    7.8337    1.6256 C   0  0  0  0  0  0  0  0  0  0  0  0
   -0.8757    6.3989    1.7119 C   0  0  0  0  0  0  0  0  0  0  0  0
    0.3037    5.7383    1.8050 C   0  0  0  0  0  0  0  0  0  0  0  0
    0.3383    4.3368    1.8576 C   0  0  0  0  0  0  0  0  0  0  0  0
   -0.8495    3.6713    1.8130 C   0  0  0  0  0  0  0  0  0  0  0  0
   -2.0242    4.3751    1.7167 C   0  0  0  0  0  0  0  0  0  0  0  0
   -2.0837    5.7637    1.6630 C   0  0  0  0  0  0  0  0  0  0  0  0
   -4.7074    8.2424    1.2089 C   0  0  0  0  0  0  0  0  0  0  0  0
   -5.1708    9.3939    1.1567 C   0  0  0  0  0  0  0  0  0  0  0  0
   -6.4528   10.0530    1.0321 C   0  0  0  0  0  0  0  0  0  0  0  0
   -7.3670   10.5432    0.9453 N   0  0  0  0  0  0  0  0  0  0  0  0
   -4.1042   10.5519    1.3336 C   0  0  0  0  0  0  0  0  0  0  0  0
   -3.3824   11.3475    1.4477 N   0  0  0  0  0  0  0  0  0  0  0  0
   -6.9478    5.5683   -0.0928 C   0  0  0  0  0  0  0  0  0  0  0  0
   -6.8471    5.3429   -1.4775 C   0  0  0  0  0  0  0  0  0  0  0  0
   -6.5298    4.0886   -1.9043 C   0  0  0  0  0  0  0  0  0  0  0  0
   -5.9118    3.5044   -3.5102 S   0  0  0  0  0  0  0  0  0  0  0  0
   -5.4365    1.9272   -2.9654 C   0  0  0  0  0  0  0  0  0  0  0  0
   -4.6983    0.8118   -3.3102 C   0  0  0  0  0  0  0  0  0  0  0  0
   -4.0053    0.5272   -4.4965 C   0  0  0  0  0  0  0  0  0  0  0  0
   -3.1414   -0.5073   -4.5427 C   0  0  0  0  0  0  0  0  0  0  0  0
   -2.5129   -0.7049   -5.6994 N   0  0  0  0  0  0  0  0  0  0  0  0
   -3.0843    0.4869   -6.7130 S   0  0  0  0  0  0  0  0  0  0  0  0
   -4.1209    1.2427   -5.6395 N   0  0  0  0  0  0  0  0  0  0  0  0
   -2.9951   -1.2449   -3.3680 C   0  0  0  0  0  0  0  0  0  0  0  0
   -2.0068   -2.1639   -3.0415 C   0  0  0  0  0  0  0  0  0  0  0  0
   -2.1070   -2.4478   -1.7183 C   0  0  0  0  0  0  0  0  0  0  0  0
   -3.1619   -1.7270   -1.1987 N   0  0  0  0  0  0  0  0  0  0  0  0
   -3.6561   -1.9095    0.1338 C   0  0  0  0  0  0  0  0  0  0  0  0
   -4.8253   -2.8819    0.1434 C   0  0  0  0  0  0  0  0  0  0  0  0
   -3.6820   -0.9966   -2.1987 C   0  0  0  0  0  0  0  0  0  0  0  0
   -4.5951    0.0915   -2.1403 C   0  0  0  0  0  0  0  0  0  0  0  0
   -5.2402    0.7048   -1.1523 N   0  0  0  0  0  0  0  0  0  0  0  0
   -5.7814    1.9097   -1.6303 C   0  0  0  0  0  0  0  0  0  0  0  0
   -6.3056    3.0308   -1.2733 C   0  0  0  0  0  0  0  0  0  0  0  0
   -6.6495    3.9940    0.6684 Se  0  0  0  0  0  2  0  0  0  0  0  0
   -5.5823    0.3136    0.1739 C   0  0  0  0  0  0  0  0  0  0  0  0
   -7.0288   -0.2386    0.0970 C   0  0  0  0  0  0  0  0  0  0  0  0
   -1.0512   -3.2319   -1.3907 C   0  0  0  0  0  0  0  0  0  0  0  0
   -0.2533   -3.7019   -1.6134 C   0  0  0  0  0  0  0  0  0  0  0  0
   -0.6228   -2.9867   -3.5421 S   0  0  0  0  0  0  0  0  0  0  0  0
    0.9866   -4.4091   -1.7449 C   0  0  0  0  0  0  0  0  0  0  0  0
    1.3281   -4.4107   -0.2714 C   0  0  0  0  0  0  0  0  0  0  0  0
   -0.1722   -3.5101    0.5393 Se  0  0  0  0  0  2  0  0  0  0  0  0
    2.5787   -4.6905    0.1981 C   0  0  0  0  0  0  0  0  0  0  0  0
    3.8106   -4.9071    0.6829 C   0  0  0  0  0  0  0  0  0  0  0  0
    4.6084   -3.9922    1.3741 C   0  0  0  0  0  0  0  0  0  0  0  0
    4.2960   -2.9108    2.0063 O   0  0  0  0  0  0  0  0  0  0  0  0
    5.9671   -4.4394    1.2732 C   0  0  0  0  0  0  0  0  0  0  0  0
    7.1279   -3.7682    1.6566 C   0  0  0  0  0  0  0  0  0  0  0  0
    8.4054   -4.2705    1.2847 C   0  0  0  0  0  0  0  0  0  0  0  0
    8.3552   -5.4130    0.5641 C   0  0  0  0  0  0  0  0  0  0  0  0
    7.1723   -6.0677    0.1935 C   0  0  0  0  0  0  0  0  0  0  0  0
    5.9856   -5.5383    0.5837 C   0  0  0  0  0  0  0  0  0  0  0  0
    4.3647   -6.0954    0.0451 C   0  0  0  0  0  0  0  0  0  0  0  0
    4.8485   -7.0886   -0.4530 C   0  0  0  0  0  0  0  0  0  0  0  0
    5.7871   -7.9728    0.0469 C   0  0  0  0  0  0  0  0  0  0  0  0
    6.7306   -8.8340    0.5273 N   0  0  0  0  0  0  0  0  0  0  0  0
    4.3689   -7.5534   -1.8661 C   0  0  0  0  0  0  0  0  0  0  0  0
    4.0203   -7.8644   -2.8595 N   0  0  0  0  0  0  0  0  0  0  0  0
    9.8191   -5.5634    0.3940 C   0  0  0  0  0  0  0  0  0  0  0  0
   10.2580   -5.2077   -1.0019 C   0  0  0  0  0  0  0  0  0  0  0  0
    9.2438   -4.2549   -1.5405 C   0  0  0  0  0  0  0  0  0  0  0  0
    9.3526   -3.1413   -0.8364 C   0  0  0  0  0  0  0  0  0  0  0  0
   10.4543   -3.3202    0.1616 C   0  0  0  0  0  0  0  0  0  0  0  0
   11.3668   -4.2205   -0.6464 C   0  0  0  0  0  0  0  0  0  0  0  0
    9.8762   -4.2735    1.1804 C   0  0  0  0  0  0  0  0  0  0  0  0
   -7.4310    7.6803    0.3725 H   0  0  0  0  0  0  0  0  0  0  0  0
   -2.0014    9.5049    1.4062 H   0  0  0  0  0  0  0  0  0  0  0  0
    0.0787    8.3080    1.6651 H   0  0  0  0  0  0  0  0  0  0  0  0
    1.2747    6.1998    1.8381 H   0  0  0  0  0  0  0  0  0  0  0  0
    1.2770    3.8045    1.9106 H   0  0  0  0  0  0  0  0  0  0  0  0
   -0.8715    2.5708    1.8547 H   0  0  0  0  0  0  0  0  0  0  0  0
   -2.9188    3.7765    1.7019 H   0  0  0  0  0  0  0  0  0  0  0  0
   -7.0614    6.2206   -2.1118 H   0  0  0  0  0  0  0  0  0  0  0  0
   -3.5151   -1.1662    0.8746 H   0  0  0  0  0  0  0  0  0  0  0  0
   -2.8279   -2.6691    0.5857 H   0  0  0  0  0  0  0  0  0  0  0  0
   -4.4529   -3.9122   -0.2090 H   0  0  0  0  0  0  0  0  0  0  0  0
   -5.3097   -3.0387    1.0729 H   0  0  0  0  0  0  0  0  0  0  0  0
   -5.5011   -2.6312   -0.7032 H   0  0  0  0  0  0  0  0  0  0  0  0
   -4.9991   -0.1112    0.9020 H   0  0  0  0  0  0  0  0  0  0  0  0
   -5.8371    1.3169    0.7791 H   0  0  0  0  0  0  0  0  0  0  0  0
   -7.7129    0.5943   -0.2884 H   0  0  0  0  0  0  0  0  0  0  0  0
   -7.4400   -0.5030    1.0660 H   0  0  0  0  0  0  0  0  0  0  0  0
   -7.1064   -0.9972   -0.6919 H   0  0  0  0  0  0  0  0  0  0  0  0
    1.5956   -4.8466   -2.3832 H   0  0  0  0  0  0  0  0  0  0  0  0
    2.5584   -3.5210    0.9848 H   0  0  0  0  0  0  0  0  0  0  0  0
    7.1067   -2.8809    2.2114 H   0  0  0  0  0  0  0  0  0  0  0  0
    7.3126   -6.8809   -0.4835 H   0  0  0  0  0  0  0  0  0  0  0  0
   10.2508   -6.4601    0.8537 H   0  0  0  0  0  0  0  0  0  0  0  0
   10.5254   -6.0175   -1.6491 H   0  0  0  0  0  0  0  0  0  0  0  0
    8.5875   -4.4816   -2.3583 H   0  0  0  0  0  0  0  0  0  0  0  0
    8.7187   -2.2665   -0.9559 H   0  0  0  0  0  0  0  0  0  0  0  0
   10.9155   -2.4291    0.5226 H   0  0  0  0  0  0  0  0  0  0  0  0
   12.1656   -4.7256   -0.0536 H   0  0  0  0  0  0  0  0  0  0  0  0
   11.7522   -3.7245   -1.5452 H   0  0  0  0  0  0  0  0  0  0  0  0
   10.3185   -4.3156    2.1600 H   0  0  0  0  0  0  0  0  0  0  0  0
  1  2  2  3
  2  3  1  0
  3  4  2  0
  3  5  1  0
  5  6  2  0
  6  7  1  0
  7  8  2  0
  8  9  1  0
  9 10  2  0
 10 11  1  0
 11 12  2  0
 12 13  1  0
 13 14  2  0
  6 15  1  0
 15 16  2  3
 16 17  1  0
 17 18  3  0
 16 19  1  0
 19 20  3  0
  1 21  1  0
 21 22  2  0
 22 23  1  0
 23 24  1  0
 24 25  1  0
 25 26  1  0
 26 27  1  0
 27 28  1  0
 28 29  2  0
 29 30  1  0
 30 31  1  0
 28 32  1  0
 32 33  1  0
 33 34  2  0
 34 35  1  0
 35 36  1  0
 36 37  1  0
 35 38  1  0
 38 39  1  0
 39 40  1  0
 40 41  1  0
 41 42  1  0
 42 43  1  0
 40 44  1  0
 44 45  1  0
 34 46  1  0
 46 47  2  0
 47 48  1  0
 47 49  1  0
 49 50  2  0
 50 51  1  0
 50 52  1  0
 52 53  2  3
 53 54  1  0
 54 55  2  0
 54 56  1  0
 56 57  2  0
 57 58  1  0
 58 59  2  0
 59 60  1  0
 60 61  2  0
 61 62  1  0
 62 63  2  3
 63 64  1  0
 64 65  3  0
 63 66  1  0
 66 67  3  0
 59 68  1  0
 68 69  1  0
 69 70  1  0
 70 71  2  0
 71 72  1  0
 72 73  1  0
 72 74  1  0
 15  2  1  0
 43 21  1  0
 51 46  1  0
 62 53  1  0
 74 68  1  0
 14  5  1  0
 42 23  2  0
 61 56  1  0
 73 69  1  0
 14  9  1  0
 41 25  2  0
 74 58  1  0
 39 26  2  0
 31 27  2  0
 38 32  2  0
 48 33  1  0
  1 75  1  0
  7 76  1  0
  8 77  1  0
 10 78  1  0
 11 79  1  0
 12 80  1  0
 13 81  1  0
 22 82  1  0
 36 83  1  0
 36 84  1  0
 37 85  1  0
 37 86  1  0
 37 87  1  0
 44 88  1  0
 44 89  1  0
 45 90  1  0
 45 91  1  0
 45 92  1  0
 49 93  1  0
 52 94  1  0
 57 95  1  0
 60 96  1  0
 68 97  1  0
 69 98  1  0
 70 99  1  0
 71100  1  0
 72101  1  0
 73102  1  0
 73103  1  0
 74104  1  0
M  END

