
     RDKit          3D

 91103  0  0  0  0  0  0  0  0999 V2000
    5.6437   -5.6036    2.7196 C   0  0  0  0  0  0  0  0  0  0  0  0
    6.4366   -5.4471    1.6410 C   0  0  0  0  0  0  0  0  0  0  0  0
    6.1002   -4.9181    0.3205 C   0  0  0  0  0  0  0  0  0  0  0  0
    4.9439   -4.6212   -0.1073 O   0  0  0  0  0  0  0  0  0  0  0  0
    7.3306   -4.7966   -0.4659 C   0  0  0  0  0  0  0  0  0  0  0  0
    8.4154   -5.2308    0.3291 C   0  0  0  0  0  0  0  0  0  0  0  0
    9.6927   -5.2202   -0.1878 C   0  0  0  0  0  0  0  0  0  0  0  0
    9.9706   -4.7686   -1.5068 C   0  0  0  0  0  0  0  0  0  0  0  0
    8.8839   -4.3189   -2.2306 C   0  0  0  0  0  0  0  0  0  0  0  0
    9.1930   -3.7328   -3.4951 C   0  0  0  0  0  0  0  0  0  0  0  0
    8.2085   -3.2024   -4.2160 C   0  0  0  0  0  0  0  0  0  0  0  0
    6.8868   -3.1888   -3.8073 C   0  0  0  0  0  0  0  0  0  0  0  0
    6.6137   -3.7800   -2.5369 C   0  0  0  0  0  0  0  0  0  0  0  0
    7.6242   -4.3312   -1.7643 C   0  0  0  0  0  0  0  0  0  0  0  0
    7.8644   -5.6063    1.6318 C   0  0  0  0  0  0  0  0  0  0  0  0
    8.5638   -5.7955    2.7696 C   0  0  0  0  0  0  0  0  0  0  0  0
    9.9481   -5.9303    2.6582 C   0  0  0  0  0  0  0  0  0  0  0  0
   11.4670   -6.0538    2.5396 N   0  0  0  0  0  0  0  0  0  0  0  0
    8.1957   -5.7282    4.0188 C   0  0  0  0  0  0  0  0  0  0  0  0
    7.7863   -5.6545    5.3528 N   0  0  0  0  0  0  0  0  0  0  0  0
    4.2613   -5.1819    2.6555 C   0  0  0  0  0  0  0  0  0  0  0  0
    3.0660   -5.8158    2.8443 C   0  0  0  0  0  0  0  0  0  0  0  0
    1.9503   -5.0826    2.8087 C   0  0  0  0  0  0  0  0  0  0  0  0
    0.1939   -5.6545    2.8401 S   0  0  0  0  0  0  0  0  0  0  0  0
   -0.5000   -4.0730    2.6184 C   0  0  0  0  0  0  0  0  0  0  0  0
   -1.6425   -3.3530    2.4974 C   0  0  0  0  0  0  0  0  0  0  0  0
   -3.0147   -3.8142    2.2712 C   0  0  0  0  0  0  0  0  0  0  0  0
   -3.8832   -2.9287    1.9432 C   0  0  0  0  0  0  0  0  0  0  0  0
   -5.1243   -3.4250    1.6892 N   0  0  0  0  0  0  0  0  0  0  0  0
   -5.0097   -5.0828    1.9170 S   0  0  0  0  0  0  0  0  0  0  0  0
   -3.3248   -5.1063    2.3519 N   0  0  0  0  0  0  0  0  0  0  0  0
   -3.5522   -1.5818    1.8501 C   0  0  0  0  0  0  0  0  0  0  0  0
   -4.3007   -0.5069    1.3805 C   0  0  0  0  0  0  0  0  0  0  0  0
   -3.5166    0.5738    1.3572 C   0  0  0  0  0  0  0  0  0  0  0  0
   -2.2245    0.1943    1.8259 N   0  0  0  0  0  0  0  0  0  0  0  0
   -1.2924    1.1523    2.3607 C   0  0  0  0  0  0  0  0  0  0  0  0
   -0.5118    2.0071    1.5247 C   0  0  0  0  0  0  0  0  0  0  0  0
   -2.2906   -1.0954    2.0785 C   0  0  0  0  0  0  0  0  0  0  0  0
   -1.2803   -2.0309    2.3884 C   0  0  0  0  0  0  0  0  0  0  0  0
    0.0574   -1.9336    2.3947 N   0  0  0  0  0  0  0  0  0  0  0  0
    0.6103   -3.2354    2.5371 C   0  0  0  0  0  0  0  0  0  0  0  0
    1.6648   -3.9436    2.6491 C   0  0  0  0  0  0  0  0  0  0  0  0
    3.7686   -3.3860    2.4112 Se  0  0  0  0  0  2  0  0  0  0  0  0
    0.9480   -0.8520    2.1571 C   0  0  0  0  0  0  0  0  0  0  0  0
    1.2168   -0.6284    0.6555 C   0  0  0  0  0  0  0  0  0  0  0  0
   -3.9956    1.6833    0.7165 C   0  0  0  0  0  0  0  0  0  0  0  0
   -5.3230    1.5360    0.1602 C   0  0  0  0  0  0  0  0  0  0  0  0
   -5.6876   -0.0258    0.5734 S   0  0  0  0  0  0  0  0  0  0  0  0
   -5.6173    2.7260   -0.6655 C   0  0  0  0  0  0  0  0  0  0  0  0
   -5.1133    3.6661   -0.9382 C   0  0  0  0  0  0  0  0  0  0  0  0
   -3.4329    3.3767    0.0849 Se  0  0  0  0  0  2  0  0  0  0  0  0
   -5.2385    4.7897   -1.8244 C   0  0  0  0  0  0  0  0  0  0  0  0
   -5.9928    5.6419   -2.3115 C   0  0  0  0  0  0  0  0  0  0  0  0
   -7.3948    5.9248   -2.1972 C   0  0  0  0  0  0  0  0  0  0  0  0
   -8.3412    5.3493   -1.6001 O   0  0  0  0  0  0  0  0  0  0  0  0
   -7.7216    7.1998   -3.0710 C   0  0  0  0  0  0  0  0  0  0  0  0
   -8.8692    7.6918   -3.2651 C   0  0  0  0  0  0  0  0  0  0  0  0
   -9.0448    8.8761   -4.2606 C   0  0  0  0  0  0  0  0  0  0  0  0
  -10.2009    9.3486   -4.4805 F   0  0  0  0  0  0  0  0  0  0  0  0
   -7.7989    9.1111   -4.7132 C   0  0  0  0  0  0  0  0  0  0  0  0
   -7.8205   10.1684   -5.7435 F   0  0  0  0  0  0  0  0  0  0  0  0
   -6.5856    8.6506   -4.5560 C   0  0  0  0  0  0  0  0  0  0  0  0
   -6.4543    7.4971   -3.6110 C   0  0  0  0  0  0  0  0  0  0  0  0
   -5.4263    6.7866   -3.3095 C   0  0  0  0  0  0  0  0  0  0  0  0
   -4.2613    6.3383   -3.7332 C   0  0  0  0  0  0  0  0  0  0  0  0
   -3.2260    6.0794   -4.1769 C   0  0  0  0  0  0  0  0  0  0  0  0
   -2.0060    5.7490   -4.6981 N   0  0  0  0  0  0  0  0  0  0  0  0
   -3.8385    8.3490   -3.8843 C   0  0  0  0  0  0  0  0  0  0  0  0
   -3.6023    9.4695   -3.9509 N   0  0  0  0  0  0  0  0  0  0  0  0
    5.9135   -6.0966    3.6122 H   0  0  0  0  0  0  0  0  0  0  0  0
   10.5264   -5.6107    0.3785 H   0  0  0  0  0  0  0  0  0  0  0  0
   10.9415   -4.7450   -1.9076 H   0  0  0  0  0  0  0  0  0  0  0  0
   10.2093   -3.7477   -3.8154 H   0  0  0  0  0  0  0  0  0  0  0  0
    8.4619   -2.6839   -5.1893 H   0  0  0  0  0  0  0  0  0  0  0  0
    6.1040   -2.7693   -4.3864 H   0  0  0  0  0  0  0  0  0  0  0  0
    5.6085   -3.8178   -2.1868 H   0  0  0  0  0  0  0  0  0  0  0  0
    3.1573   -6.9215    3.0848 H   0  0  0  0  0  0  0  0  0  0  0  0
   -0.8582    0.7742    3.3625 H   0  0  0  0  0  0  0  0  0  0  0  0
   -2.0160    1.9352    2.9413 H   0  0  0  0  0  0  0  0  0  0  0  0
   -0.7760    2.0068    0.4264 H   0  0  0  0  0  0  0  0  0  0  0  0
   -0.6445    3.1555    1.7916 H   0  0  0  0  0  0  0  0  0  0  0  0
    0.6101    1.9415    1.5852 H   0  0  0  0  0  0  0  0  0  0  0  0
    0.9558   -0.0064    2.8041 H   0  0  0  0  0  0  0  0  0  0  0  0
    2.0244   -1.2234    2.4537 H   0  0  0  0  0  0  0  0  0  0  0  0
    2.0578    0.0300    0.4514 H   0  0  0  0  0  0  0  0  0  0  0  0
    1.4986   -1.6154    0.1797 H   0  0  0  0  0  0  0  0  0  0  0  0
    0.2877   -0.3078    0.1420 H   0  0  0  0  0  0  0  0  0  0  0  0
   -6.7640    2.4780   -1.1159 H   0  0  0  0  0  0  0  0  0  0  0  0
   -4.0776    4.9867   -2.1363 H   0  0  0  0  0  0  0  0  0  0  0  0
   -9.8407    7.4689   -2.9064 H   0  0  0  0  0  0  0  0  0  0  0  0
   -5.6936    8.9626   -5.0836 H   0  0  0  0  0  0  0  0  0  0  0  0
  1  2  2  3
  2  3  1  0
  3  4  2  0
  3  5  1  0
  5  6  2  0
  6  7  1  0
  7  8  2  0
  8  9  1  0
  9 10  2  0
 10 11  1  0
 11 12  2  0
 12 13  1  0
 13 14  2  0
  6 15  1  0
 15 16  2  3
 16 17  1  0
 17 18  3  0
 16 19  1  0
 19 20  3  0
  1 21  1  0
 21 22  2  0
 22 23  1  0
 23 24  1  0
 24 25  1  0
 25 26  1  0
 26 27  1  0
 27 28  1  0
 28 29  2  0
 29 30  1  0
 30 31  1  0
 28 32  1  0
 32 33  1  0
 33 34  2  0
 34 35  1  0
 35 36  1  0
 36 37  1  0
 35 38  1  0
 38 39  1  0
 39 40  1  0
 40 41  1  0
 41 42  1  0
 42 43  1  0
 40 44  1  0
 44 45  1  0
 34 46  1  0
 46 47  2  0
 47 48  1  0
 47 49  1  0
 49 50  2  0
 50 51  1  0
 50 52  1  0
 52 53  2  3
 53 54  1  0
 54 55  2  0
 54 56  1  0
 56 57  2  0
 57 58  1  0
 58 59  1  0
 58 60  2  0
 60 61  1  0
 60 62  1  0
 62 63  2  0
 63 64  1  0
 64 65  2  3
 65 66  1  0
 66 67  3  0
 65 68  1  0
 68 69  3  0
 15  2  1  0
 43 21  1  0
 51 46  1  0
 64 53  1  0
 14  5  1  0
 42 23  2  0
 63 56  1  0
 14  9  1  0
 41 25  2  0
 39 26  2  0
 31 27  2  0
 38 32  2  0
 48 33  1  0
  1 70  1  0
  7 71  1  0
  8 72  1  0
 10 73  1  0
 11 74  1  0
 12 75  1  0
 13 76  1  0
 22 77  1  0
 36 78  1  0
 36 79  1  0
 37 80  1  0
 37 81  1  0
 37 82  1  0
 44 83  1  0
 44 84  1  0
 45 85  1  0
 45 86  1  0
 45 87  1  0
 49 88  1  0
 52 89  1  0
 57 90  1  0
 62 91  1  0
M  END

