
     RDKit          3D

103115  0  0  0  0  0  0  0  0999 V2000
    3.4874   -4.3666   -5.8410 C   0  0  0  0  0  0  0  0  0  0  0  0
    4.1847   -4.8967   -4.6555 C   0  0  0  0  0  0  0  0  0  0  0  0
    3.7244   -4.5122   -3.3946 C   0  0  0  0  0  0  0  0  0  0  0  0
    2.9245   -3.6070   -3.0351 O   0  0  0  0  0  0  0  0  0  0  0  0
    4.4039   -5.4259   -2.5446 C   0  0  0  0  0  0  0  0  0  0  0  0
    5.1781   -6.2515   -3.2547 C   0  0  0  0  0  0  0  0  0  0  0  0
    5.9219   -7.1741   -2.6822 C   0  0  0  0  0  0  0  0  0  0  0  0
    5.9636   -7.4065   -1.2808 C   0  0  0  0  0  0  0  0  0  0  0  0
    5.1323   -6.5625   -0.5401 C   0  0  0  0  0  0  0  0  0  0  0  0
    5.0504   -6.8067    0.8305 C   0  0  0  0  0  0  0  0  0  0  0  0
    4.1778   -6.0387    1.5534 C   0  0  0  0  0  0  0  0  0  0  0  0
    3.4103   -5.0655    0.9011 C   0  0  0  0  0  0  0  0  0  0  0  0
    3.5019   -4.8408   -0.4339 C   0  0  0  0  0  0  0  0  0  0  0  0
    4.3892   -5.6179   -1.1360 C   0  0  0  0  0  0  0  0  0  0  0  0
    5.0151   -5.8454   -4.9870 C   0  0  0  0  0  0  0  0  0  0  0  0
    5.7889   -6.9626   -5.2142 C   0  0  0  0  0  0  0  0  0  0  0  0
    6.9546   -6.9284   -6.0932 C   0  0  0  0  0  0  0  0  0  0  0  0
    7.8781   -6.8951   -6.8127 N   0  0  0  0  0  0  0  0  0  0  0  0
    5.3307   -8.1479   -4.9186 C   0  0  0  0  0  0  0  0  0  0  0  0
    4.8521   -9.4340   -4.5996 N   0  0  0  0  0  0  0  0  0  0  0  0
    2.3709   -3.4939   -5.6006 C   0  0  0  0  0  0  0  0  0  0  0  0
    1.0505   -3.9152   -5.7327 C   0  0  0  0  0  0  0  0  0  0  0  0
    0.7486   -5.3344   -6.1749 C   0  0  0  0  0  0  0  0  0  0  0  0
    0.8684   -6.2440   -4.9352 C   0  0  0  0  0  0  0  0  0  0  0  0
    0.1279   -3.0245   -5.3489 C   0  0  0  0  0  0  0  0  0  0  0  0
   -1.7905   -3.1266   -5.0987 Se  0  0  0  0  0  2  0  0  0  0  0  0
   -1.7949   -1.3251   -4.3141 C   0  0  0  0  0  0  0  0  0  0  0  0
   -2.6129   -0.4825   -3.6150 C   0  0  0  0  0  0  0  0  0  0  0  0
   -3.9026   -0.7451   -3.0961 C   0  0  0  0  0  0  0  0  0  0  0  0
   -4.3565    0.0306   -2.0882 C   0  0  0  0  0  0  0  0  0  0  0  0
   -5.5765   -0.2457   -1.6193 N   0  0  0  0  0  0  0  0  0  0  0  0
   -6.0873   -1.5366   -2.5382 S   0  0  0  0  0  0  0  0  0  0  0  0
   -4.7311   -1.7052   -3.5060 N   0  0  0  0  0  0  0  0  0  0  0  0
   -3.5157    1.0415   -1.6424 C   0  0  0  0  0  0  0  0  0  0  0  0
   -3.5542    1.8462   -0.5597 C   0  0  0  0  0  0  0  0  0  0  0  0
   -4.5983    1.9860    1.1570 Se  0  0  0  0  0  2  0  0  0  0  0  0
   -3.2093    3.1919    1.8455 C   0  0  0  0  0  0  0  0  0  0  0  0
   -3.0324    3.8361    3.0510 C   0  0  0  0  0  0  0  0  0  0  0  0
   -3.9163    3.3330    4.2128 C   0  0  0  0  0  0  0  0  0  0  0  0
   -3.4752    1.8471    4.4299 C   0  0  0  0  0  0  0  0  0  0  0  0
   -1.9599    4.6165    3.1640 C   0  0  0  0  0  0  0  0  0  0  0  0
   -1.2129    4.4026    1.5989 S   0  0  0  0  0  0  0  0  0  0  0  0
   -2.3691    3.2867    0.8607 C   0  0  0  0  0  0  0  0  0  0  0  0
   -2.5146    2.6227   -0.3331 C   0  0  0  0  0  0  0  0  0  0  0  0
   -1.6714    2.2740   -1.4262 N   0  0  0  0  0  0  0  0  0  0  0  0
   -2.2580    1.3407   -2.1654 C   0  0  0  0  0  0  0  0  0  0  0  0
   -1.7735    0.5113   -3.2038 C   0  0  0  0  0  0  0  0  0  0  0  0
   -0.5048    0.2607   -3.6548 N   0  0  0  0  0  0  0  0  0  0  0  0
   -0.5246   -0.9512   -4.3674 C   0  0  0  0  0  0  0  0  0  0  0  0
    0.3977   -1.8560   -4.8969 C   0  0  0  0  0  0  0  0  0  0  0  0
    2.1824   -1.9435   -4.9966 S   0  0  0  0  0  0  0  0  0  0  0  0
    0.7184    0.9695   -3.5156 C   0  0  0  0  0  0  0  0  0  0  0  0
    1.5875    0.5420   -2.3585 C   0  0  0  0  0  0  0  0  0  0  0  0
   -0.5101    3.0245   -1.7358 C   0  0  0  0  0  0  0  0  0  0  0  0
   -0.9165    4.1335   -2.7803 C   0  0  0  0  0  0  0  0  0  0  0  0
   -1.3661    5.4499    4.2234 C   0  0  0  0  0  0  0  0  0  0  0  0
   -2.0832    6.1813    5.0741 C   0  0  0  0  0  0  0  0  0  0  0  0
   -3.4992    6.3431    5.1553 C   0  0  0  0  0  0  0  0  0  0  0  0
   -4.3869    6.1107    4.2614 O   0  0  0  0  0  0  0  0  0  0  0  0
   -3.8556    6.8537    6.4830 C   0  0  0  0  0  0  0  0  0  0  0  0
   -5.0804    7.0594    7.0645 C   0  0  0  0  0  0  0  0  0  0  0  0
   -6.5274    6.9189    6.0992 Cl  0  0  0  0  0  0  0  0  0  0  0  0
   -5.2372    7.4170    8.3904 C   0  0  0  0  0  0  0  0  0  0  0  0
   -6.8124    7.6765    9.0977 Cl  0  0  0  0  0  0  0  0  0  0  0  0
   -4.1091    7.5663    9.1562 C   0  0  0  0  0  0  0  0  0  0  0  0
   -4.2012    8.0011   10.8958 Cl  0  0  0  0  0  0  0  0  0  0  0  0
   -2.8538    7.3536    8.5510 C   0  0  0  0  0  0  0  0  0  0  0  0
   -1.5440    7.2291    9.7062 Cl  0  0  0  0  0  0  0  0  0  0  0  0
   -2.6823    7.0158    7.2223 C   0  0  0  0  0  0  0  0  0  0  0  0
   -1.5384    6.6440    6.4026 C   0  0  0  0  0  0  0  0  0  0  0  0
   -0.3118    6.9061    6.5976 C   0  0  0  0  0  0  0  0  0  0  0  0
    0.7901    6.8030    5.6649 C   0  0  0  0  0  0  0  0  0  0  0  0
    1.7025    6.7384    4.8975 N   0  0  0  0  0  0  0  0  0  0  0  0
    0.0844    7.8655    7.7161 C   0  0  0  0  0  0  0  0  0  0  0  0
    0.3916    8.5917    8.5757 N   0  0  0  0  0  0  0  0  0  0  0  0
    3.8522   -4.6567   -6.7476 H   0  0  0  0  0  0  0  0  0  0  0  0
    6.6549   -7.8667   -3.1746 H   0  0  0  0  0  0  0  0  0  0  0  0
    6.5535   -8.1346   -0.8408 H   0  0  0  0  0  0  0  0  0  0  0  0
    5.6605   -7.5620    1.2665 H   0  0  0  0  0  0  0  0  0  0  0  0
    4.0376   -6.1837    2.6005 H   0  0  0  0  0  0  0  0  0  0  0  0
    2.7166   -4.4956    1.5054 H   0  0  0  0  0  0  0  0  0  0  0  0
    2.9346   -4.0726   -0.9318 H   0  0  0  0  0  0  0  0  0  0  0  0
    1.4324   -5.6343   -6.9781 H   0  0  0  0  0  0  0  0  0  0  0  0
   -0.2777   -5.4573   -6.5557 H   0  0  0  0  0  0  0  0  0  0  0  0
    1.0861   -5.6692   -4.0182 H   0  0  0  0  0  0  0  0  0  0  0  0
   -0.0934   -6.7685   -4.7797 H   0  0  0  0  0  0  0  0  0  0  0  0
    1.6257   -7.0057   -5.1386 H   0  0  0  0  0  0  0  0  0  0  0  0
   -4.9512    3.3333    3.9730 H   0  0  0  0  0  0  0  0  0  0  0  0
   -3.5912    3.7800    5.1729 H   0  0  0  0  0  0  0  0  0  0  0  0
   -2.5303    1.9215    4.9704 H   0  0  0  0  0  0  0  0  0  0  0  0
   -4.2843    1.3548    4.9053 H   0  0  0  0  0  0  0  0  0  0  0  0
   -3.2129    1.4035    3.4196 H   0  0  0  0  0  0  0  0  0  0  0  0
    0.7363    2.0354   -3.8361 H   0  0  0  0  0  0  0  0  0  0  0  0
    1.4149    0.6346   -4.4047 H   0  0  0  0  0  0  0  0  0  0  0  0
    1.1594    0.6009   -1.3415 H   0  0  0  0  0  0  0  0  0  0  0  0
    2.5653    1.1166   -2.3923 H   0  0  0  0  0  0  0  0  0  0  0  0
    1.9472   -0.4963   -2.4648 H   0  0  0  0  0  0  0  0  0  0  0  0
   -0.3109    3.7364   -0.8099 H   0  0  0  0  0  0  0  0  0  0  0  0
    0.4171    2.6917   -1.9654 H   0  0  0  0  0  0  0  0  0  0  0  0
   -1.6963    3.7028   -3.4293 H   0  0  0  0  0  0  0  0  0  0  0  0
   -0.0263    4.4312   -3.3197 H   0  0  0  0  0  0  0  0  0  0  0  0
   -1.3721    4.9757   -2.2795 H   0  0  0  0  0  0  0  0  0  0  0  0
   -0.3099    5.3649    4.2773 H   0  0  0  0  0  0  0  0  0  0  0  0
  1  2  2  3
  2  3  1  0
  3  4  2  0
  3  5  1  0
  5  6  2  0
  6  7  1  0
  7  8  2  0
  8  9  1  0
  9 10  2  0
 10 11  1  0
 11 12  2  0
 12 13  1  0
 13 14  2  0
  6 15  1  0
 15 16  2  3
 16 17  1  0
 17 18  3  0
 16 19  1  0
 19 20  3  0
  1 21  1  0
 21 22  2  0
 22 23  1  0
 23 24  1  0
 22 25  1  0
 25 26  1  0
 26 27  1  0
 27 28  1  0
 28 29  1  0
 29 30  1  0
 30 31  2  0
 31 32  1  0
 32 33  1  0
 30 34  1  0
 34 35  1  0
 35 36  1  0
 36 37  1  0
 37 38  1  0
 38 39  1  0
 39 40  1  0
 38 41  2  0
 41 42  1  0
 42 43  1  0
 43 44  1  0
 44 45  1  0
 45 46  1  0
 46 47  1  0
 47 48  1  0
 48 49  1  0
 49 50  1  0
 50 51  1  0
 48 52  1  0
 52 53  1  0
 45 54  1  0
 54 55  1  0
 41 56  1  0
 56 57  2  3
 57 58  1  0
 58 59  2  0
 58 60  1  0
 60 61  2  0
 61 62  1  0
 61 63  1  0
 63 64  1  0
 63 65  2  0
 65 66  1  0
 65 67  1  0
 67 68  1  0
 67 69  2  0
 69 70  1  0
 70 71  2  3
 71 72  1  0
 72 73  3  0
 71 74  1  0
 74 75  3  0
 15  2  1  0
 51 21  1  0
 70 57  1  0
 14  5  1  0
 50 25  2  0
 69 60  1  0
 14  9  1  0
 49 27  2  0
 47 28  2  0
 33 29  2  0
 46 34  2  0
 44 35  2  0
 43 37  2  0
  1 76  1  0
  7 77  1  0
  8 78  1  0
 10 79  1  0
 11 80  1  0
 12 81  1  0
 13 82  1  0
 23 83  1  0
 23 84  1  0
 24 85  1  0
 24 86  1  0
 24 87  1  0
 39 88  1  0
 39 89  1  0
 40 90  1  0
 40 91  1  0
 40 92  1  0
 52 93  1  0
 52 94  1  0
 53 95  1  0
 53 96  1  0
 53 97  1  0
 54 98  1  0
 54 99  1  0
 55100  1  0
 55101  1  0
 55102  1  0
 56103  1  0
M  END

