
     RDKit          3D

103115  0  0  0  0  0  0  0  0999 V2000
   -1.2522   -6.9734   -1.2318 C   0  0  0  0  0  0  0  0  0  0  0  0
   -2.4496   -6.7559   -0.6573 C   0  0  0  0  0  0  0  0  0  0  0  0
   -3.6262   -7.5655   -0.9672 C   0  0  0  0  0  0  0  0  0  0  0  0
   -3.5955   -8.7140   -1.4827 O   0  0  0  0  0  0  0  0  0  0  0  0
   -4.8222   -6.7790   -0.6652 C   0  0  0  0  0  0  0  0  0  0  0  0
   -4.4142   -5.5668   -0.1124 C   0  0  0  0  0  0  0  0  0  0  0  0
   -5.3475   -4.5540    0.1420 C   0  0  0  0  0  0  0  0  0  0  0  0
   -6.7026   -4.7935   -0.1126 C   0  0  0  0  0  0  0  0  0  0  0  0
   -7.1308   -6.0299   -0.6341 C   0  0  0  0  0  0  0  0  0  0  0  0
   -8.4921   -6.2527   -0.8887 C   0  0  0  0  0  0  0  0  0  0  0  0
   -8.9189   -7.4713   -1.4152 C   0  0  0  0  0  0  0  0  0  0  0  0
   -7.9919   -8.4747   -1.7088 C   0  0  0  0  0  0  0  0  0  0  0  0
   -6.6303   -8.2694   -1.4710 C   0  0  0  0  0  0  0  0  0  0  0  0
   -6.1821   -7.0476   -0.9287 C   0  0  0  0  0  0  0  0  0  0  0  0
   -2.9390   -5.5567    0.0718 C   0  0  0  0  0  0  0  0  0  0  0  0
   -2.2568   -4.8820    1.0336 C   0  0  0  0  0  0  0  0  0  0  0  0
   -0.9348   -5.2845    1.4524 C   0  0  0  0  0  0  0  0  0  0  0  0
    0.1243   -5.6006    1.7925 N   0  0  0  0  0  0  0  0  0  0  0  0
   -2.8427   -3.8057    1.7892 C   0  0  0  0  0  0  0  0  0  0  0  0
   -3.3023   -2.9339    2.3986 N   0  0  0  0  0  0  0  0  0  0  0  0
   -0.2130   -5.9415   -1.4252 C   0  0  0  0  0  0  0  0  0  0  0  0
    1.1699   -6.1896   -1.5298 C   0  0  0  0  0  0  0  0  0  0  0  0
    1.8249   -7.5295   -1.3487 C   0  0  0  0  0  0  0  0  0  0  0  0
    2.0007   -8.2271   -2.6923 C   0  0  0  0  0  0  0  0  0  0  0  0
    1.8698   -5.0158   -1.8216 C   0  0  0  0  0  0  0  0  0  0  0  0
    3.5294   -4.6402   -1.9229 S   0  0  0  0  0  0  0  0  0  0  0  0
    3.1758   -2.9917   -2.1384 C   0  0  0  0  0  0  0  0  0  0  0  0
    3.8322   -1.8113   -1.9536 C   0  0  0  0  0  0  0  0  0  0  0  0
    5.1705   -1.5853   -1.6120 C   0  0  0  0  0  0  0  0  0  0  0  0
    5.5511   -0.2916   -1.1663 C   0  0  0  0  0  0  0  0  0  0  0  0
    6.8444   -0.1173   -0.8014 N   0  0  0  0  0  0  0  0  0  0  0  0
    7.4152   -1.6488   -1.0629 S   0  0  0  0  0  0  0  0  0  0  0  0
    6.1331   -2.5413   -1.6139 N   0  0  0  0  0  0  0  0  0  0  0  0
    4.5875    0.7123   -1.1242 C   0  0  0  0  0  0  0  0  0  0  0  0
    4.6723    2.0023   -0.6907 C   0  0  0  0  0  0  0  0  0  0  0  0
    5.7363    3.0046    0.1742 S   0  0  0  0  0  0  0  0  0  0  0  0
    4.5203    4.1956    0.3360 C   0  0  0  0  0  0  0  0  0  0  0  0
    4.4077    5.3437    1.1290 C   0  0  0  0  0  0  0  0  0  0  0  0
    5.5327    5.9045    1.9594 C   0  0  0  0  0  0  0  0  0  0  0  0
    5.9910    7.2545    1.4176 C   0  0  0  0  0  0  0  0  0  0  0  0
    3.0878    5.8428    1.1135 C   0  0  0  0  0  0  0  0  0  0  0  0
    2.0988    4.8032    0.1866 S   0  0  0  0  0  0  0  0  0  0  0  0
    3.3529    3.7976   -0.2640 C   0  0  0  0  0  0  0  0  0  0  0  0
    3.4498    2.5456   -0.8458 C   0  0  0  0  0  0  0  0  0  0  0  0
    2.5472    1.6978   -1.3947 N   0  0  0  0  0  0  0  0  0  0  0  0
    3.2444    0.5128   -1.5070 C   0  0  0  0  0  0  0  0  0  0  0  0
    2.8333   -0.8163   -1.8591 C   0  0  0  0  0  0  0  0  0  0  0  0
    1.5840   -1.4046   -1.8986 N   0  0  0  0  0  0  0  0  0  0  0  0
    1.8487   -2.7248   -2.0943 C   0  0  0  0  0  0  0  0  0  0  0  0
    1.0973   -3.8865   -1.9243 C   0  0  0  0  0  0  0  0  0  0  0  0
   -0.5151   -4.2837   -1.7016 S   0  0  0  0  0  0  0  0  0  0  0  0
    0.2895   -0.8953   -1.4254 C   0  0  0  0  0  0  0  0  0  0  0  0
    0.3240   -0.5517    0.0610 C   0  0  0  0  0  0  0  0  0  0  0  0
    1.3279    2.1707   -2.0656 C   0  0  0  0  0  0  0  0  0  0  0  0
    1.3043    1.7851   -3.5465 C   0  0  0  0  0  0  0  0  0  0  0  0
    2.5690    6.8784    2.0311 C   0  0  0  0  0  0  0  0  0  0  0  0
    1.5582    7.7247    1.7508 C   0  0  0  0  0  0  0  0  0  0  0  0
    0.8087    7.8106    0.4921 C   0  0  0  0  0  0  0  0  0  0  0  0
    1.2289    7.4964   -0.6529 O   0  0  0  0  0  0  0  0  0  0  0  0
   -0.4636    8.4446    0.7650 C   0  0  0  0  0  0  0  0  0  0  0  0
   -1.5595    8.5813   -0.0859 C   0  0  0  0  0  0  0  0  0  0  0  0
   -2.7428    9.1242    0.4333 C   0  0  0  0  0  0  0  0  0  0  0  0
   -3.8277    9.2641   -0.3653 F   0  0  0  0  0  0  0  0  0  0  0  0
   -2.8199    9.4872    1.7910 C   0  0  0  0  0  0  0  0  0  0  0  0
   -3.9818    9.9742    2.2946 F   0  0  0  0  0  0  0  0  0  0  0  0
   -1.7032    9.3404    2.6286 C   0  0  0  0  0  0  0  0  0  0  0  0
   -0.5082    8.8336    2.0926 C   0  0  0  0  0  0  0  0  0  0  0  0
    0.8029    8.5528    2.7387 C   0  0  0  0  0  0  0  0  0  0  0  0
    1.2912    9.1431    3.8597 C   0  0  0  0  0  0  0  0  0  0  0  0
    0.5209   10.0847    4.6295 C   0  0  0  0  0  0  0  0  0  0  0  0
   -0.0821   10.8575    5.2448 N   0  0  0  0  0  0  0  0  0  0  0  0
    2.6729    9.0305    4.2476 C   0  0  0  0  0  0  0  0  0  0  0  0
    3.7854    8.9603    4.5600 N   0  0  0  0  0  0  0  0  0  0  0  0
   -1.0767   -7.9296   -1.7141 H   0  0  0  0  0  0  0  0  0  0  0  0
   -5.0520   -3.5798    0.5008 H   0  0  0  0  0  0  0  0  0  0  0  0
   -7.4216   -4.0103    0.0933 H   0  0  0  0  0  0  0  0  0  0  0  0
   -9.2226   -5.4810   -0.6806 H   0  0  0  0  0  0  0  0  0  0  0  0
   -9.9721   -7.6395   -1.5984 H   0  0  0  0  0  0  0  0  0  0  0  0
   -8.3341   -9.4148   -2.1225 H   0  0  0  0  0  0  0  0  0  0  0  0
   -5.9493   -9.0741   -1.7094 H   0  0  0  0  0  0  0  0  0  0  0  0
    1.2173   -8.1673   -0.6696 H   0  0  0  0  0  0  0  0  0  0  0  0
    2.8221   -7.3989   -0.8777 H   0  0  0  0  0  0  0  0  0  0  0  0
    1.0140   -8.4085   -3.1630 H   0  0  0  0  0  0  0  0  0  0  0  0
    2.6197   -7.5999   -3.3717 H   0  0  0  0  0  0  0  0  0  0  0  0
    2.5033   -9.2071   -2.5438 H   0  0  0  0  0  0  0  0  0  0  0  0
    5.2013    6.0153    3.0144 H   0  0  0  0  0  0  0  0  0  0  0  0
    6.3998    5.2100    1.9591 H   0  0  0  0  0  0  0  0  0  0  0  0
    6.8449    7.6237    2.0243 H   0  0  0  0  0  0  0  0  0  0  0  0
    5.1677    7.9986    1.4735 H   0  0  0  0  0  0  0  0  0  0  0  0
    6.3276    7.1537    0.3622 H   0  0  0  0  0  0  0  0  0  0  0  0
   -0.0575   -0.0712   -2.0523 H   0  0  0  0  0  0  0  0  0  0  0  0
   -0.5066   -1.6430   -1.5731 H   0  0  0  0  0  0  0  0  0  0  0  0
    1.0631    0.2460    0.2704 H   0  0  0  0  0  0  0  0  0  0  0  0
   -0.6793   -0.1977    0.3836 H   0  0  0  0  0  0  0  0  0  0  0  0
    0.6000   -1.4549    0.6485 H   0  0  0  0  0  0  0  0  0  0  0  0
    0.4259    1.8699   -1.5090 H   0  0  0  0  0  0  0  0  0  0  0  0
    1.2946    3.2811   -2.0457 H   0  0  0  0  0  0  0  0  0  0  0  0
    1.3588    0.6900   -3.6880 H   0  0  0  0  0  0  0  0  0  0  0  0
    0.3664    2.1526   -4.0131 H   0  0  0  0  0  0  0  0  0  0  0  0
    2.1689    2.2448   -4.0713 H   0  0  0  0  0  0  0  0  0  0  0  0
    2.9846    6.8588    3.0231 H   0  0  0  0  0  0  0  0  0  0  0  0
   -1.5059    8.2653   -1.1199 H   0  0  0  0  0  0  0  0  0  0  0  0
   -1.8065    9.5713    3.6757 H   0  0  0  0  0  0  0  0  0  0  0  0
  1  2  2  3
  2  3  1  0
  3  4  2  0
  3  5  1  0
  5  6  2  0
  6  7  1  0
  7  8  2  0
  8  9  1  0
  9 10  2  0
 10 11  1  0
 11 12  2  0
 12 13  1  0
 13 14  2  0
  6 15  1  0
 15 16  2  3
 16 17  1  0
 17 18  3  0
 16 19  1  0
 19 20  3  0
  1 21  1  0
 21 22  2  0
 22 23  1  0
 23 24  1  0
 22 25  1  0
 25 26  1  0
 26 27  1  0
 27 28  1  0
 28 29  1  0
 29 30  1  0
 30 31  2  0
 31 32  1  0
 32 33  1  0
 30 34  1  0
 34 35  1  0
 35 36  1  0
 36 37  1  0
 37 38  1  0
 38 39  1  0
 39 40  1  0
 38 41  2  0
 41 42  1  0
 42 43  1  0
 43 44  1  0
 44 45  1  0
 45 46  1  0
 46 47  1  0
 47 48  1  0
 48 49  1  0
 49 50  1  0
 50 51  1  0
 48 52  1  0
 52 53  1  0
 45 54  1  0
 54 55  1  0
 41 56  1  0
 56 57  2  3
 57 58  1  0
 58 59  2  0
 58 60  1  0
 60 61  2  0
 61 62  1  0
 62 63  1  0
 62 64  2  0
 64 65  1  0
 64 66  1  0
 66 67  2  0
 67 68  1  0
 68 69  2  3
 69 70  1  0
 70 71  3  0
 69 72  1  0
 72 73  3  0
 15  2  1  0
 51 21  1  0
 68 57  1  0
 14  5  1  0
 50 25  2  0
 67 60  1  0
 14  9  1  0
 49 27  2  0
 47 28  2  0
 33 29  2  0
 46 34  2  0
 44 35  2  0
 43 37  2  0
  1 74  1  0
  7 75  1  0
  8 76  1  0
 10 77  1  0
 11 78  1  0
 12 79  1  0
 13 80  1  0
 23 81  1  0
 23 82  1  0
 24 83  1  0
 24 84  1  0
 24 85  1  0
 39 86  1  0
 39 87  1  0
 40 88  1  0
 40 89  1  0
 40 90  1  0
 52 91  1  0
 52 92  1  0
 53 93  1  0
 53 94  1  0
 53 95  1  0
 54 96  1  0
 54 97  1  0
 55 98  1  0
 55 99  1  0
 55100  1  0
 56101  1  0
 61102  1  0
 66103  1  0
M  END

