
     RDKit          3D

147163  0  0  0  0  0  0  0  0999 V2000
    5.2335    1.2763    4.6726 C   0  0  0  0  0  0  0  0  0  0  0  0
    5.8205    0.8609    5.8143 C   0  0  0  0  0  0  0  0  0  0  0  0
    6.5736   -0.3896    6.0071 C   0  0  0  0  0  0  0  0  0  0  0  0
    7.0070   -1.1305    5.0826 O   0  0  0  0  0  0  0  0  0  0  0  0
    6.8178   -0.5824    7.4374 C   0  0  0  0  0  0  0  0  0  0  0  0
    6.2943    0.5095    8.1132 C   0  0  0  0  0  0  0  0  0  0  0  0
    6.1906    0.4938    9.5096 C   0  0  0  0  0  0  0  0  0  0  0  0
    6.7359   -0.5734   10.2282 C   0  0  0  0  0  0  0  0  0  0  0  0
    7.3559   -1.6445    9.5574 C   0  0  0  0  0  0  0  0  0  0  0  0
    7.9199   -2.7001   10.2927 C   0  0  0  0  0  0  0  0  0  0  0  0
    8.5298   -3.7617    9.6290 C   0  0  0  0  0  0  0  0  0  0  0  0
    8.5829   -3.7851    8.2355 C   0  0  0  0  0  0  0  0  0  0  0  0
    8.0218   -2.7484    7.4879 C   0  0  0  0  0  0  0  0  0  0  0  0
    7.3985   -1.6652    8.1348 C   0  0  0  0  0  0  0  0  0  0  0  0
    5.7791    1.5246    7.1545 C   0  0  0  0  0  0  0  0  0  0  0  0
    5.5734    2.8428    7.4319 C   0  0  0  0  0  0  0  0  0  0  0  0
    5.9399    3.4114    8.7035 C   0  0  0  0  0  0  0  0  0  0  0  0
    6.2559    3.8846    9.7110 N   0  0  0  0  0  0  0  0  0  0  0  0
    5.1436    3.8042    6.4516 C   0  0  0  0  0  0  0  0  0  0  0  0
    4.7885    4.5873    5.6786 N   0  0  0  0  0  0  0  0  0  0  0  0
    5.1093    0.4922    3.4315 C   0  0  0  0  0  0  0  0  0  0  0  0
    4.6617   -0.8367    3.3640 C   0  0  0  0  0  0  0  0  0  0  0  0
    4.2781   -1.1668    2.0676 C   0  0  0  0  0  0  0  0  0  0  0  0
    3.3118   -2.4214    1.4622 S   0  0  0  0  0  0  0  0  0  0  0  0
    3.1258   -1.6371   -0.0350 C   0  0  0  0  0  0  0  0  0  0  0  0
    2.1118   -1.6859   -1.0562 C   0  0  0  0  0  0  0  0  0  0  0  0
    1.0582   -2.5934   -1.2131 C   0  0  0  0  0  0  0  0  0  0  0  0
    0.0748   -2.2783   -2.1686 C   0  0  0  0  0  0  0  0  0  0  0  0
   -1.3087   -2.9209   -2.3295 C   0  0  0  0  0  0  0  0  0  0  0  0
   -1.1358   -4.3324   -2.9143 C   0  0  0  0  0  0  0  0  0  0  0  0
   -0.6863   -5.3779   -2.0804 C   0  0  0  0  0  0  0  0  0  0  0  0
   -0.4679   -6.6578   -2.5899 C   0  0  0  0  0  0  0  0  0  0  0  0
   -0.6941   -6.9316   -3.9471 C   0  0  0  0  0  0  0  0  0  0  0  0
   -0.4846   -8.3255   -4.4829 C   0  0  0  0  0  0  0  0  0  0  0  0
   -1.6391   -9.2449   -4.0948 C   0  0  0  0  0  0  0  0  0  0  0  0
   -1.1431   -5.9046   -4.7879 C   0  0  0  0  0  0  0  0  0  0  0  0
   -1.3525   -4.6182   -4.2819 C   0  0  0  0  0  0  0  0  0  0  0  0
   -2.1296   -2.8805   -1.0293 C   0  0  0  0  0  0  0  0  0  0  0  0
   -1.9844   -1.8152   -0.1152 C   0  0  0  0  0  0  0  0  0  0  0  0
   -2.8024   -1.7172    1.0103 C   0  0  0  0  0  0  0  0  0  0  0  0
   -3.8036   -2.6688    1.2445 C   0  0  0  0  0  0  0  0  0  0  0  0
   -4.6853   -2.5390    2.4495 C   0  0  0  0  0  0  0  0  0  0  0  0
   -3.9815   -3.7167    0.3301 C   0  0  0  0  0  0  0  0  0  0  0  0
   -3.1657   -3.8115   -0.8010 C   0  0  0  0  0  0  0  0  0  0  0  0
   -1.9114   -1.9389   -3.3129 C   0  0  0  0  0  0  0  0  0  0  0  0
   -1.0269   -0.9650   -3.6844 C   0  0  0  0  0  0  0  0  0  0  0  0
    0.1957   -1.1183   -2.9477 C   0  0  0  0  0  0  0  0  0  0  0  0
    1.2117   -0.1811   -2.7427 C   0  0  0  0  0  0  0  0  0  0  0  0
    2.1644   -0.4744   -1.7553 C   0  0  0  0  0  0  0  0  0  0  0  0
    3.1399    0.5083   -1.1127 C   0  0  0  0  0  0  0  0  0  0  0  0
    4.2745    0.9628   -2.0423 C   0  0  0  0  0  0  0  0  0  0  0  0
    5.0304    2.1066   -1.7208 C   0  0  0  0  0  0  0  0  0  0  0  0
    6.0588    2.5468   -2.5548 C   0  0  0  0  0  0  0  0  0  0  0  0
    6.4056    1.8125   -3.6982 C   0  0  0  0  0  0  0  0  0  0  0  0
    7.4681    2.3212   -4.6450 C   0  0  0  0  0  0  0  0  0  0  0  0
    8.8289    2.4856   -3.9662 C   0  0  0  0  0  0  0  0  0  0  0  0
    5.7077    0.6287   -3.9882 C   0  0  0  0  0  0  0  0  0  0  0  0
    4.6557    0.2082   -3.1699 C   0  0  0  0  0  0  0  0  0  0  0  0
    2.2941    1.6558   -0.5218 C   0  0  0  0  0  0  0  0  0  0  0  0
    1.6617    1.5364    0.7352 C   0  0  0  0  0  0  0  0  0  0  0  0
    0.8683    2.5665    1.2447 C   0  0  0  0  0  0  0  0  0  0  0  0
    0.6105    3.7131    0.4757 C   0  0  0  0  0  0  0  0  0  0  0  0
   -0.2133    4.8544    1.0289 C   0  0  0  0  0  0  0  0  0  0  0  0
   -1.5356    4.3971    1.6474 C   0  0  0  0  0  0  0  0  0  0  0  0
    1.1857    3.8155   -0.8004 C   0  0  0  0  0  0  0  0  0  0  0  0
    2.0018    2.7961   -1.2987 C   0  0  0  0  0  0  0  0  0  0  0  0
    3.7280   -0.4056   -0.0517 C   0  0  0  0  0  0  0  0  0  0  0  0
    4.3924   -0.1574    1.1488 C   0  0  0  0  0  0  0  0  0  0  0  0
    4.9431    1.2305    1.9047 S   0  0  0  0  0  0  0  0  0  0  0  0
   -1.7759    0.3495   -4.4470 S   0  0  0  0  0  0  0  0  0  0  0  0
   -3.2862   -0.4076   -4.3510 C   0  0  0  0  0  0  0  0  0  0  0  0
   -4.5718    0.0544   -4.5946 C   0  0  0  0  0  0  0  0  0  0  0  0
   -5.5207   -0.8465   -4.0964 C   0  0  0  0  0  0  0  0  0  0  0  0
   -4.7502   -2.1771   -3.3505 S   0  0  0  0  0  0  0  0  0  0  0  0
   -3.2056   -1.6080   -3.6997 C   0  0  0  0  0  0  0  0  0  0  0  0
   -6.9577   -0.5518   -4.0532 C   0  0  0  0  0  0  0  0  0  0  0  0
   -7.4724    0.2832   -3.1340 C   0  0  0  0  0  0  0  0  0  0  0  0
   -6.7167    0.9014   -2.0410 C   0  0  0  0  0  0  0  0  0  0  0  0
   -5.7418    0.3682   -1.4443 O   0  0  0  0  0  0  0  0  0  0  0  0
   -7.3193    2.1929   -1.7254 C   0  0  0  0  0  0  0  0  0  0  0  0
   -8.4227    2.3705   -2.5490 C   0  0  0  0  0  0  0  0  0  0  0  0
   -9.0616    3.6185   -2.6184 C   0  0  0  0  0  0  0  0  0  0  0  0
   -8.6240    4.6557   -1.7829 C   0  0  0  0  0  0  0  0  0  0  0  0
   -7.5523    4.4585   -0.8883 C   0  0  0  0  0  0  0  0  0  0  0  0
   -7.1371    5.4964   -0.0390 C   0  0  0  0  0  0  0  0  0  0  0  0
   -6.0702    5.3018    0.8465 C   0  0  0  0  0  0  0  0  0  0  0  0
   -5.4138    4.0666    0.8939 C   0  0  0  0  0  0  0  0  0  0  0  0
   -5.8066    3.0280    0.0487 C   0  0  0  0  0  0  0  0  0  0  0  0
   -6.8754    3.2083   -0.8540 C   0  0  0  0  0  0  0  0  0  0  0  0
   -8.6724    1.1364   -3.3424 C   0  0  0  0  0  0  0  0  0  0  0  0
   -9.8479    0.7340   -3.8821 C   0  0  0  0  0  0  0  0  0  0  0  0
  -10.0522   -0.6173   -4.3376 C   0  0  0  0  0  0  0  0  0  0  0  0
  -10.2273   -1.7026   -4.7016 N   0  0  0  0  0  0  0  0  0  0  0  0
  -10.9853    1.6119   -3.9743 C   0  0  0  0  0  0  0  0  0  0  0  0
  -11.9002    2.3205   -4.0813 N   0  0  0  0  0  0  0  0  0  0  0  0
    4.7270    2.2209    4.6311 H   0  0  0  0  0  0  0  0  0  0  0  0
    5.6697    1.2689   10.0514 H   0  0  0  0  0  0  0  0  0  0  0  0
    6.6711   -0.5661   11.3110 H   0  0  0  0  0  0  0  0  0  0  0  0
    7.8884   -2.6998   11.3768 H   0  0  0  0  0  0  0  0  0  0  0  0
    8.9796   -4.5634   10.2004 H   0  0  0  0  0  0  0  0  0  0  0  0
    9.0790   -4.6066    7.7323 H   0  0  0  0  0  0  0  0  0  0  0  0
    8.1020   -2.8011    6.4137 H   0  0  0  0  0  0  0  0  0  0  0  0
    4.4751   -1.4761    4.2186 H   0  0  0  0  0  0  0  0  0  0  0  0
    0.9609   -3.4429   -0.5530 H   0  0  0  0  0  0  0  0  0  0  0  0
   -0.5180   -5.2012   -1.0267 H   0  0  0  0  0  0  0  0  0  0  0  0
   -0.1327   -7.4401   -1.9248 H   0  0  0  0  0  0  0  0  0  0  0  0
   -0.4011   -8.3094   -5.5947 H   0  0  0  0  0  0  0  0  0  0  0  0
    0.4642   -8.7444   -4.0840 H   0  0  0  0  0  0  0  0  0  0  0  0
   -2.5942   -8.8599   -4.5150 H   0  0  0  0  0  0  0  0  0  0  0  0
   -1.7263   -9.3055   -2.9915 H   0  0  0  0  0  0  0  0  0  0  0  0
   -1.4635  -10.2659   -4.4942 H   0  0  0  0  0  0  0  0  0  0  0  0
   -1.3254   -6.0987   -5.8366 H   0  0  0  0  0  0  0  0  0  0  0  0
   -1.6795   -3.8539   -4.9734 H   0  0  0  0  0  0  0  0  0  0  0  0
   -1.2490   -1.0389   -0.2763 H   0  0  0  0  0  0  0  0  0  0  0  0
   -2.6724   -0.8867    1.6927 H   0  0  0  0  0  0  0  0  0  0  0  0
   -5.4036   -3.3830    2.5251 H   0  0  0  0  0  0  0  0  0  0  0  0
   -5.2645   -1.5908    2.3862 H   0  0  0  0  0  0  0  0  0  0  0  0
   -4.0663   -2.5206    3.3690 H   0  0  0  0  0  0  0  0  0  0  0  0
   -4.7703   -4.4429    0.4748 H   0  0  0  0  0  0  0  0  0  0  0  0
   -3.3670   -4.6013   -1.5148 H   0  0  0  0  0  0  0  0  0  0  0  0
    1.2011    0.7735   -3.2526 H   0  0  0  0  0  0  0  0  0  0  0  0
    4.8043    2.6950   -0.8386 H   0  0  0  0  0  0  0  0  0  0  0  0
    6.5757    3.4639   -2.3100 H   0  0  0  0  0  0  0  0  0  0  0  0
    7.5880    1.6342   -5.5088 H   0  0  0  0  0  0  0  0  0  0  0  0
    7.1416    3.3063   -5.0556 H   0  0  0  0  0  0  0  0  0  0  0  0
    9.5875    2.7588   -4.7282 H   0  0  0  0  0  0  0  0  0  0  0  0
    9.1430    1.5424   -3.4638 H   0  0  0  0  0  0  0  0  0  0  0  0
    8.7881    3.3096   -3.2194 H   0  0  0  0  0  0  0  0  0  0  0  0
    5.9593    0.0471   -4.8645 H   0  0  0  0  0  0  0  0  0  0  0  0
    4.1409   -0.7052   -3.4241 H   0  0  0  0  0  0  0  0  0  0  0  0
    1.7788    0.6472    1.3394 H   0  0  0  0  0  0  0  0  0  0  0  0
    0.4518    2.4623    2.2414 H   0  0  0  0  0  0  0  0  0  0  0  0
   -0.4532    5.5821    0.2192 H   0  0  0  0  0  0  0  0  0  0  0  0
    0.3811    5.3991    1.7994 H   0  0  0  0  0  0  0  0  0  0  0  0
   -2.1701    5.2800    1.8627 H   0  0  0  0  0  0  0  0  0  0  0  0
   -2.0841    3.7334    0.9457 H   0  0  0  0  0  0  0  0  0  0  0  0
   -1.3612    3.8608    2.6087 H   0  0  0  0  0  0  0  0  0  0  0  0
    0.9972    4.6858   -1.4196 H   0  0  0  0  0  0  0  0  0  0  0  0
    2.4028    2.8979   -2.2983 H   0  0  0  0  0  0  0  0  0  0  0  0
   -4.8059    1.0195   -5.0246 H   0  0  0  0  0  0  0  0  0  0  0  0
   -7.5186   -0.7762   -4.9489 H   0  0  0  0  0  0  0  0  0  0  0  0
   -9.8501    3.8128   -3.3260 H   0  0  0  0  0  0  0  0  0  0  0  0
   -9.1295    5.6132   -1.8309 H   0  0  0  0  0  0  0  0  0  0  0  0
   -7.6362    6.4567   -0.0507 H   0  0  0  0  0  0  0  0  0  0  0  0
   -5.7587    6.0984    1.5089 H   0  0  0  0  0  0  0  0  0  0  0  0
   -4.6046    3.9130    1.5989 H   0  0  0  0  0  0  0  0  0  0  0  0
   -5.2793    2.0870    0.1316 H   0  0  0  0  0  0  0  0  0  0  0  0
  1  2  2  3
  2  3  1  0
  3  4  2  0
  3  5  1  0
  5  6  2  0
  6  7  1  0
  7  8  2  0
  8  9  1  0
  9 10  2  0
 10 11  1  0
 11 12  2  0
 12 13  1  0
 13 14  2  0
  6 15  1  0
 15 16  2  3
 16 17  1  0
 17 18  3  0
 16 19  1  0
 19 20  3  0
  1 21  1  0
 21 22  2  0
 22 23  1  0
 23 24  1  0
 24 25  1  0
 25 26  1  0
 26 27  2  0
 27 28  1  0
 28 29  1  0
 29 30  1  0
 30 31  2  0
 31 32  1  0
 32 33  2  0
 33 34  1  0
 34 35  1  0
 33 36  1  0
 36 37  2  0
 29 38  1  0
 38 39  2  0
 39 40  1  0
 40 41  2  0
 41 42  1  0
 41 43  1  0
 43 44  2  0
 29 45  1  0
 45 46  2  0
 46 47  1  0
 47 48  1  0
 48 49  2  0
 49 50  1  0
 50 51  1  0
 51 52  2  0
 52 53  1  0
 53 54  2  0
 54 55  1  0
 55 56  1  0
 54 57  1  0
 57 58  2  0
 50 59  1  0
 59 60  2  0
 60 61  1  0
 61 62  2  0
 62 63  1  0
 63 64  1  0
 62 65  1  0
 65 66  2  0
 50 67  1  0
 67 68  1  0
 68 69  1  0
 46 70  1  0
 70 71  1  0
 71 72  1  0
 72 73  2  0
 73 74  1  0
 74 75  1  0
 73 76  1  0
 76 77  2  3
 77 78  1  0
 78 79  2  0
 78 80  1  0
 80 81  2  0
 81 82  1  0
 82 83  2  0
 83 84  1  0
 84 85  2  0
 85 86  1  0
 86 87  2  0
 87 88  1  0
 88 89  2  0
 81 90  1  0
 90 91  2  3
 91 92  1  0
 92 93  3  0
 91 94  1  0
 94 95  3  0
 15  2  1  0
 69 21  1  0
 75 71  2  0
 90 77  1  0
 14  5  1  0
 68 23  2  0
 89 80  1  0
 14  9  1  0
 67 25  2  0
 89 84  1  0
 49 26  1  0
 58 51  1  0
 66 59  1  0
 47 28  2  0
 37 30  1  0
 44 38  1  0
 75 45  1  0
  1 96  1  0
  7 97  1  0
  8 98  1  0
 10 99  1  0
 11100  1  0
 12101  1  0
 13102  1  0
 22103  1  0
 27104  1  0
 31105  1  0
 32106  1  0
 34107  1  0
 34108  1  0
 35109  1  0
 35110  1  0
 35111  1  0
 36112  1  0
 37113  1  0
 39114  1  0
 40115  1  0
 42116  1  0
 42117  1  0
 42118  1  0
 43119  1  0
 44120  1  0
 48121  1  0
 52122  1  0
 53123  1  0
 55124  1  0
 55125  1  0
 56126  1  0
 56127  1  0
 56128  1  0
 57129  1  0
 58130  1  0
 60131  1  0
 61132  1  0
 63133  1  0
 63134  1  0
 64135  1  0
 64136  1  0
 64137  1  0
 65138  1  0
 66139  1  0
 72140  1  0
 76141  1  0
 82142  1  0
 83143  1  0
 85144  1  0
 86145  1  0
 87146  1  0
 88147  1  0
M  END

