
     RDKit          3D

 85 96  0  0  0  0  0  0  0  0999 V2000
   -5.7637    1.5368    4.8181 C   0  0  0  0  0  0  0  0  0  0  0  0
   -5.5032    2.9578    4.4906 C   0  0  0  0  0  0  0  0  0  0  0  0
   -5.0995    3.6859    3.6688 C   0  0  0  0  0  0  0  0  0  0  0  0
   -5.0076    3.4557    2.2733 O   0  0  0  0  0  0  0  0  0  0  0  0
   -4.6011    5.0601    4.0493 C   0  0  0  0  0  0  0  0  0  0  0  0
   -4.2806    6.0759    3.1913 C   0  0  0  0  0  0  0  0  0  0  0  0
   -4.0911    7.3275    4.0200 C   0  0  0  0  0  0  0  0  0  0  0  0
   -3.7318    8.8622    2.9162 Br  0  0  0  0  0  0  0  0  0  0  0  0
   -4.2283    7.2424    5.2041 C   0  0  0  0  0  0  0  0  0  0  0  0
   -3.9196    8.9570    6.2843 Br  0  0  0  0  0  0  0  0  0  0  0  0
   -4.5521    6.2229    6.2107 C   0  0  0  0  0  0  0  0  0  0  0  0
   -4.7402    5.0569    5.2654 C   0  0  0  0  0  0  0  0  0  0  0  0
   -5.3748    3.7367    5.8904 C   0  0  0  0  0  0  0  0  0  0  0  0
   -6.0084    3.5896    6.8846 C   0  0  0  0  0  0  0  0  0  0  0  0
   -7.1587    2.7768    7.2390 C   0  0  0  0  0  0  0  0  0  0  0  0
   -8.0953    2.0958    7.5243 N   0  0  0  0  0  0  0  0  0  0  0  0
   -5.4718    4.0785    8.2658 C   0  0  0  0  0  0  0  0  0  0  0  0
   -5.0127    4.4826    9.3889 N   0  0  0  0  0  0  0  0  0  0  0  0
   -5.3132    0.8732    3.6480 C   0  0  0  0  0  0  0  0  0  0  0  0
   -5.6862    0.4633    2.3798 C   0  0  0  0  0  0  0  0  0  0  0  0
   -4.7342   -0.1331    1.7221 C   0  0  0  0  0  0  0  0  0  0  0  0
   -5.0562   -0.9570    0.0465 S   0  0  0  0  0  0  0  0  0  0  0  0
   -3.4331   -1.5646   -0.1323 C   0  0  0  0  0  0  0  0  0  0  0  0
   -2.5711   -2.1736   -0.9099 C   0  0  0  0  0  0  0  0  0  0  0  0
   -2.7379   -2.6602   -2.5978 C   0  0  0  0  0  0  0  0  0  0  0  0
   -1.6998   -2.7598   -2.5635 C   0  0  0  0  0  0  0  0  0  0  0  0
   -1.7852   -2.1142   -4.1976 N   0  0  0  0  0  0  0  0  0  0  0  0
   -3.5091   -1.9286   -4.3280 S   0  0  0  0  0  0  0  0  0  0  0  0
   -3.9894   -2.5570   -2.5941 N   0  0  0  0  0  0  0  0  0  0  0  0
   -0.3666   -2.8532   -2.3330 C   0  0  0  0  0  0  0  0  0  0  0  0
    0.8149   -3.1390   -2.8390 C   0  0  0  0  0  0  0  0  0  0  0  0
    1.7955   -3.0497   -1.9248 C   0  0  0  0  0  0  0  0  0  0  0  0
    1.1059   -2.6594   -0.6902 N   0  0  0  0  0  0  0  0  0  0  0  0
    1.7472   -2.5904    0.5555 C   0  0  0  0  0  0  0  0  0  0  0  0
    1.7984   -3.9085    1.3094 C   0  0  0  0  0  0  0  0  0  0  0  0
   -0.1621   -2.5339   -0.9540 C   0  0  0  0  0  0  0  0  0  0  0  0
   -1.3729   -2.1680   -0.3136 C   0  0  0  0  0  0  0  0  0  0  0  0
   -1.4708   -1.5400    0.8697 N   0  0  0  0  0  0  0  0  0  0  0  0
   -2.8076   -1.1232    1.0504 C   0  0  0  0  0  0  0  0  0  0  0  0
   -3.6718   -0.4786    1.7228 C   0  0  0  0  0  0  0  0  0  0  0  0
   -3.4505    0.2729    3.6641 Se  0  0  0  0  0  2  0  0  0  0  0  0
   -0.5037   -1.1481    1.8095 C   0  0  0  0  0  0  0  0  0  0  0  0
   -0.4211   -2.0631    2.9541 C   0  0  0  0  0  0  0  0  0  0  0  0
    3.0172   -3.3099   -2.3029 C   0  0  0  0  0  0  0  0  0  0  0  0
    3.2458   -3.6267   -3.5890 C   0  0  0  0  0  0  0  0  0  0  0  0
    1.6682   -3.5939   -4.2639 S   0  0  0  0  0  0  0  0  0  0  0  0
    4.5261   -3.6824   -4.0639 C   0  0  0  0  0  0  0  0  0  0  0  0
    5.6312   -3.4800   -3.5721 C   0  0  0  0  0  0  0  0  0  0  0  0
    4.9687   -3.0769   -1.7254 Se  0  0  0  0  0  2  0  0  0  0  0  0
    7.0702   -3.1775   -3.8609 C   0  0  0  0  0  0  0  0  0  0  0  0
    7.1726   -2.1589   -4.6992 C   0  0  0  0  0  0  0  0  0  0  0  0
    6.1581   -1.3853   -5.3440 C   0  0  0  0  0  0  0  0  0  0  0  0
    4.8960   -1.8486   -5.4918 O   0  0  0  0  0  0  0  0  0  0  0  0
    6.4763   -0.1669   -5.8575 C   0  0  0  0  0  0  0  0  0  0  0  0
    5.7230    0.8523   -6.5310 C   0  0  0  0  0  0  0  0  0  0  0  0
    6.2382    1.9655   -6.9327 C   0  0  0  0  0  0  0  0  0  0  0  0
    5.5274    2.9504   -7.5600 F   0  0  0  0  0  0  0  0  0  0  0  0
    7.5816    2.1402   -6.6601 C   0  0  0  0  0  0  0  0  0  0  0  0
    8.0585    3.3442   -7.0971 F   0  0  0  0  0  0  0  0  0  0  0  0
    8.3735    1.2727   -6.0271 C   0  0  0  0  0  0  0  0  0  0  0  0
    7.8159   -0.0153   -5.5789 C   0  0  0  0  0  0  0  0  0  0  0  0
    8.3760   -1.1256   -4.8764 C   0  0  0  0  0  0  0  0  0  0  0  0
    9.5482   -1.3653   -4.4696 C   0  0  0  0  0  0  0  0  0  0  0  0
   10.6748   -0.4463   -4.6147 C   0  0  0  0  0  0  0  0  0  0  0  0
   11.5275    0.2681   -4.7137 N   0  0  0  0  0  0  0  0  0  0  0  0
    9.9468   -2.5017   -3.6501 C   0  0  0  0  0  0  0  0  0  0  0  0
   10.2933   -3.4388   -2.9802 N   0  0  0  0  0  0  0  0  0  0  0  0
   -6.1459    1.2152    5.6638 H   0  0  0  0  0  0  0  0  0  0  0  0
   -4.1466    6.1618    2.2192 H   0  0  0  0  0  0  0  0  0  0  0  0
   -4.6590    6.2398    7.1328 H   0  0  0  0  0  0  0  0  0  0  0  0
   -6.7446    0.7281    2.1656 H   0  0  0  0  0  0  0  0  0  0  0  0
    2.8903   -2.4923    0.2448 H   0  0  0  0  0  0  0  0  0  0  0  0
    1.7593   -1.7317    1.1596 H   0  0  0  0  0  0  0  0  0  0  0  0
    2.3051   -3.7973    2.2656 H   0  0  0  0  0  0  0  0  0  0  0  0
    0.8055   -4.2878    1.3564 H   0  0  0  0  0  0  0  0  0  0  0  0
    2.3788   -4.6466    0.7171 H   0  0  0  0  0  0  0  0  0  0  0  0
   -0.9590   -0.1679    2.3526 H   0  0  0  0  0  0  0  0  0  0  0  0
    0.3628   -0.6109    1.4416 H   0  0  0  0  0  0  0  0  0  0  0  0
    0.5487   -1.9326    3.5250 H   0  0  0  0  0  0  0  0  0  0  0  0
   -0.5704   -3.0949    2.7718 H   0  0  0  0  0  0  0  0  0  0  0  0
   -1.2000   -1.7581    3.7322 H   0  0  0  0  0  0  0  0  0  0  0  0
    4.5975   -4.1268   -5.2025 H   0  0  0  0  0  0  0  0  0  0  0  0
    7.8349   -3.6977   -3.4344 H   0  0  0  0  0  0  0  0  0  0  0  0
    4.6515    0.5680   -6.6969 H   0  0  0  0  0  0  0  0  0  0  0  0
    9.4354    1.3725   -5.8105 H   0  0  0  0  0  0  0  0  0  0  0  0
  1  2  2  3
  2  3  1  0
  3  4  2  0
  3  5  1  0
  5  6  2  0
  6  7  1  0
  7  8  1  0
  7  9  2  0
  9 10  1  0
  9 11  1  0
 11 12  2  0
 12 13  1  0
 13 14  2  3
 14 15  1  0
 15 16  3  0
 14 17  1  0
 17 18  3  0
  1 19  1  0
 19 20  2  0
 20 21  1  0
 21 22  1  0
 22 23  1  0
 23 24  1  0
 24 25  1  0
 25 26  1  0
 26 27  2  0
 27 28  1  0
 28 29  1  0
 26 30  1  0
 30 31  1  0
 31 32  2  0
 32 33  1  0
 33 34  1  0
 34 35  1  0
 33 36  1  0
 36 37  1  0
 37 38  1  0
 38 39  1  0
 39 40  1  0
 40 41  1  0
 38 42  1  0
 42 43  1  0
 32 44  1  0
 44 45  2  0
 45 46  1  0
 45 47  1  0
 47 48  2  0
 48 49  1  0
 48 50  1  0
 50 51  2  3
 51 52  1  0
 52 53  2  0
 52 54  1  0
 54 55  2  0
 55 56  1  0
 56 57  1  0
 56 58  2  0
 58 59  1  0
 58 60  1  0
 60 61  2  0
 61 62  1  0
 62 63  2  3
 63 64  1  0
 64 65  3  0
 63 66  1  0
 66 67  3  0
 13  2  1  0
 41 19  1  0
 49 44  1  0
 62 51  1  0
 12  5  1  0
 40 21  2  0
 61 54  1  0
 39 23  2  0
 37 24  2  0
 29 25  2  0
 36 30  2  0
 46 31  1  0
  1 68  1  0
  6 69  1  0
 11 70  1  0
 20 71  1  0
 34 72  1  0
 34 73  1  0
 35 74  1  0
 35 75  1  0
 35 76  1  0
 42 77  1  0
 42 78  1  0
 43 79  1  0
 43 80  1  0
 43 81  1  0
 47 82  1  0
 50 83  1  0
 55 84  1  0
 60 85  1  0
M  END

