
     RDKit          3D

104118  0  0  0  0  0  0  0  0999 V2000
   -6.1217    0.5916    3.3486 C   0  0  0  0  0  0  0  0  0  0  0  0
   -6.2514    1.9182    3.1414 C   0  0  0  0  0  0  0  0  0  0  0  0
   -6.2937    2.6030    1.8431 C   0  0  0  0  0  0  0  0  0  0  0  0
   -6.6430    2.1036    0.7417 O   0  0  0  0  0  0  0  0  0  0  0  0
   -5.9719    3.9979    2.0570 C   0  0  0  0  0  0  0  0  0  0  0  0
   -5.7543    4.9893    1.1026 C   0  0  0  0  0  0  0  0  0  0  0  0
   -5.3579    6.2635    1.5353 C   0  0  0  0  0  0  0  0  0  0  0  0
   -5.0491    7.6160    0.2220 Br  0  0  0  0  0  0  0  0  0  0  0  0
   -5.1625    6.5138    2.9132 C   0  0  0  0  0  0  0  0  0  0  0  0
   -4.5609    8.2209    3.5423 Br  0  0  0  0  0  0  0  0  0  0  0  0
   -5.3841    5.4923    3.8536 C   0  0  0  0  0  0  0  0  0  0  0  0
   -5.8286    4.2382    3.4106 C   0  0  0  0  0  0  0  0  0  0  0  0
   -6.1344    2.9955    4.1726 C   0  0  0  0  0  0  0  0  0  0  0  0
   -6.4878    2.9168    5.4813 C   0  0  0  0  0  0  0  0  0  0  0  0
   -6.5104    4.0677    6.3434 C   0  0  0  0  0  0  0  0  0  0  0  0
   -6.5407    4.9906    7.0421 N   0  0  0  0  0  0  0  0  0  0  0  0
   -7.0324    1.7188    6.0637 C   0  0  0  0  0  0  0  0  0  0  0  0
   -7.4738    0.7587    6.5404 N   0  0  0  0  0  0  0  0  0  0  0  0
   -5.9515   -0.4302    2.2925 C   0  0  0  0  0  0  0  0  0  0  0  0
   -6.3225   -1.7857    2.4218 C   0  0  0  0  0  0  0  0  0  0  0  0
   -7.0795   -2.3551    3.5912 C   0  0  0  0  0  0  0  0  0  0  0  0
   -6.1279   -2.8634    4.6700 C   0  0  0  0  0  0  0  0  0  0  0  0
   -5.7688   -2.5626    1.3975 C   0  0  0  0  0  0  0  0  0  0  0  0
   -5.0101   -1.8733    0.4858 C   0  0  0  0  0  0  0  0  0  0  0  0
   -4.9060   -0.2695    0.9538 S   0  0  0  0  0  0  0  0  0  0  0  0
   -4.3233   -2.6984   -0.4025 C   0  0  0  0  0  0  0  0  0  0  0  0
   -4.5447   -4.0147   -0.1331 C   0  0  0  0  0  0  0  0  0  0  0  0
   -5.5649   -4.2410    1.2064 S   0  0  0  0  0  0  0  0  0  0  0  0
   -3.4954   -4.7123   -0.6645 C   0  0  0  0  0  0  0  0  0  0  0  0
   -2.9914   -5.9737   -0.3049 C   0  0  0  0  0  0  0  0  0  0  0  0
   -3.6663   -6.8754    0.4502 N   0  0  0  0  0  0  0  0  0  0  0  0
   -2.5152   -8.0618    0.5697 S   0  0  0  0  0  0  0  0  0  0  0  0
   -1.1849   -7.5179   -0.2548 N   0  0  0  0  0  0  0  0  0  0  0  0
   -1.6551   -6.3158   -0.6724 C   0  0  0  0  0  0  0  0  0  0  0  0
   -0.9154   -5.3987   -1.4244 C   0  0  0  0  0  0  0  0  0  0  0  0
    0.3724   -5.4104   -1.8905 C   0  0  0  0  0  0  0  0  0  0  0  0
    1.8086   -6.3161   -1.7678 S   0  0  0  0  0  0  0  0  0  0  0  0
    2.6518   -5.1419   -2.6831 C   0  0  0  0  0  0  0  0  0  0  0  0
    3.9970   -4.9496   -2.9837 C   0  0  0  0  0  0  0  0  0  0  0  0
    4.1906   -3.6986   -3.5884 C   0  0  0  0  0  0  0  0  0  0  0  0
    2.6968   -2.8858   -3.7875 S   0  0  0  0  0  0  0  0  0  0  0  0
    1.8273   -4.1161   -3.0644 C   0  0  0  0  0  0  0  0  0  0  0  0
    0.5385   -4.2705   -2.5998 C   0  0  0  0  0  0  0  0  0  0  0  0
   -0.5704   -3.5002   -2.6531 N   0  0  0  0  0  0  0  0  0  0  0  0
   -0.9017   -2.6094   -3.7727 C   0  0  0  0  0  0  0  0  0  0  0  0
   -0.8800   -3.3641   -5.1003 C   0  0  0  0  0  0  0  0  0  0  0  0
   -1.4495   -4.1694   -1.8448 C   0  0  0  0  0  0  0  0  0  0  0  0
   -2.7186   -3.7662   -1.3562 C   0  0  0  0  0  0  0  0  0  0  0  0
   -3.2083   -2.4981   -1.1519 N   0  0  0  0  0  0  0  0  0  0  0  0
   -2.4833   -1.2219   -1.2294 C   0  0  0  0  0  0  0  0  0  0  0  0
   -3.2010   -0.2363   -2.1513 C   0  0  0  0  0  0  0  0  0  0  0  0
    5.4993   -3.1544   -3.9868 C   0  0  0  0  0  0  0  0  0  0  0  0
    5.9051   -1.9032   -3.6802 C   0  0  0  0  0  0  0  0  0  0  0  0
    5.3301   -1.0722   -2.6107 C   0  0  0  0  0  0  0  0  0  0  0  0
    4.3652   -1.3752   -1.8583 O   0  0  0  0  0  0  0  0  0  0  0  0
    6.1547    0.0962   -2.4333 C   0  0  0  0  0  0  0  0  0  0  0  0
    5.9457    1.1381   -1.5018 C   0  0  0  0  0  0  0  0  0  0  0  0
    6.9023    2.1321   -1.5486 C   0  0  0  0  0  0  0  0  0  0  0  0
    8.0155    2.1020   -2.4452 C   0  0  0  0  0  0  0  0  0  0  0  0
    8.2373    1.0738   -3.3478 C   0  0  0  0  0  0  0  0  0  0  0  0
    7.2514    0.0426   -3.3322 C   0  0  0  0  0  0  0  0  0  0  0  0
    7.1232   -1.1826   -4.1829 C   0  0  0  0  0  0  0  0  0  0  0  0
    7.8421   -1.4778   -5.3003 C   0  0  0  0  0  0  0  0  0  0  0  0
    8.9666   -0.6949   -5.7395 C   0  0  0  0  0  0  0  0  0  0  0  0
    9.8724   -0.0774   -6.1127 N   0  0  0  0  0  0  0  0  0  0  0  0
    7.4935   -2.5551   -6.1920 C   0  0  0  0  0  0  0  0  0  0  0  0
    7.2247   -3.4190   -6.9173 N   0  0  0  0  0  0  0  0  0  0  0  0
    8.4912    3.4283   -1.9248 C   0  0  0  0  0  0  0  0  0  0  0  0
    8.2722    4.6851   -2.8214 C   0  0  0  0  0  0  0  0  0  0  0  0
    7.0389    4.5016   -3.6754 C   0  0  0  0  0  0  0  0  0  0  0  0
    5.9958    4.5248   -2.8443 C   0  0  0  0  0  0  0  0  0  0  0  0
    6.5532    4.7247   -1.4522 C   0  0  0  0  0  0  0  0  0  0  0  0
    7.7074    5.6496   -1.7920 C   0  0  0  0  0  0  0  0  0  0  0  0
    7.3476    3.4579   -1.0084 C   0  0  0  0  0  0  0  0  0  0  0  0
   -6.0269    0.2201    4.3536 H   0  0  0  0  0  0  0  0  0  0  0  0
   -5.8690    4.7703    0.0478 H   0  0  0  0  0  0  0  0  0  0  0  0
   -5.1702    5.6858    4.8925 H   0  0  0  0  0  0  0  0  0  0  0  0
   -7.7248   -3.1930    3.2506 H   0  0  0  0  0  0  0  0  0  0  0  0
   -7.7488   -1.5796    4.0264 H   0  0  0  0  0  0  0  0  0  0  0  0
   -6.7108   -3.1042    5.5826 H   0  0  0  0  0  0  0  0  0  0  0  0
   -5.3723   -2.0901    4.9203 H   0  0  0  0  0  0  0  0  0  0  0  0
   -5.6102   -3.7805    4.3254 H   0  0  0  0  0  0  0  0  0  0  0  0
    4.7921   -5.6334   -2.7131 H   0  0  0  0  0  0  0  0  0  0  0  0
   -0.1834   -1.7639   -3.8127 H   0  0  0  0  0  0  0  0  0  0  0  0
   -1.9231   -2.2162   -3.6530 H   0  0  0  0  0  0  0  0  0  0  0  0
   -1.1782   -2.6816   -5.9262 H   0  0  0  0  0  0  0  0  0  0  0  0
    0.1389   -3.7519   -5.3115 H   0  0  0  0  0  0  0  0  0  0  0  0
   -1.5950   -4.2152   -5.0562 H   0  0  0  0  0  0  0  0  0  0  0  0
   -1.4412   -1.3650   -1.5601 H   0  0  0  0  0  0  0  0  0  0  0  0
   -2.3946   -0.7834   -0.2183 H   0  0  0  0  0  0  0  0  0  0  0  0
   -4.1609    0.0850   -1.7079 H   0  0  0  0  0  0  0  0  0  0  0  0
   -2.5680    0.6617   -2.3116 H   0  0  0  0  0  0  0  0  0  0  0  0
   -3.4307   -0.6953   -3.1346 H   0  0  0  0  0  0  0  0  0  0  0  0
    6.1435   -3.8286   -4.5292 H   0  0  0  0  0  0  0  0  0  0  0  0
    5.0988    1.1676   -0.8291 H   0  0  0  0  0  0  0  0  0  0  0  0
    9.1021    1.0987   -3.9875 H   0  0  0  0  0  0  0  0  0  0  0  0
    9.4747    3.3855   -1.4067 H   0  0  0  0  0  0  0  0  0  0  0  0
    9.1716    5.0361   -3.3685 H   0  0  0  0  0  0  0  0  0  0  0  0
    6.9859    4.4428   -4.7584 H   0  0  0  0  0  0  0  0  0  0  0  0
    4.9499    4.4898   -3.1359 H   0  0  0  0  0  0  0  0  0  0  0  0
    5.8290    5.1164   -0.7063 H   0  0  0  0  0  0  0  0  0  0  0  0
    7.3806    6.6228   -2.2339 H   0  0  0  0  0  0  0  0  0  0  0  0
    8.3931    5.8378   -0.9311 H   0  0  0  0  0  0  0  0  0  0  0  0
    7.6334    3.4280    0.0657 H   0  0  0  0  0  0  0  0  0  0  0  0
  1  2  2  3
  2  3  1  0
  3  4  2  0
  3  5  1  0
  5  6  2  0
  6  7  1  0
  7  8  1  0
  7  9  2  0
  9 10  1  0
  9 11  1  0
 11 12  2  0
 12 13  1  0
 13 14  2  3
 14 15  1  0
 15 16  3  0
 14 17  1  0
 17 18  3  0
  1 19  1  0
 19 20  2  0
 20 21  1  0
 21 22  1  0
 20 23  1  0
 23 24  2  0
 24 25  1  0
 24 26  1  0
 26 27  2  0
 27 28  1  0
 27 29  1  0
 29 30  1  0
 30 31  2  0
 31 32  1  0
 32 33  1  0
 33 34  2  0
 34 35  1  0
 35 36  1  0
 36 37  1  0
 37 38  1  0
 38 39  1  0
 39 40  2  0
 40 41  1  0
 41 42  1  0
 42 43  1  0
 43 44  1  0
 44 45  1  0
 45 46  1  0
 44 47  1  0
 47 48  1  0
 48 49  1  0
 49 50  1  0
 50 51  1  0
 40 52  1  0
 52 53  2  3
 53 54  1  0
 54 55  2  0
 54 56  1  0
 56 57  2  0
 57 58  1  0
 58 59  2  0
 59 60  1  0
 60 61  2  0
 61 62  1  0
 62 63  2  3
 63 64  1  0
 64 65  3  0
 63 66  1  0
 66 67  3  0
 59 68  1  0
 68 69  1  0
 69 70  1  0
 70 71  2  0
 71 72  1  0
 72 73  1  0
 72 74  1  0
 13  2  1  0
 25 19  1  0
 49 26  1  0
 62 53  1  0
 74 68  1  0
 12  5  1  0
 28 23  1  0
 48 29  2  0
 61 56  1  0
 73 69  1  0
 34 30  1  0
 47 35  2  0
 74 58  1  0
 43 36  2  0
 42 38  2  0
  1 75  1  0
  6 76  1  0
 11 77  1  0
 21 78  1  0
 21 79  1  0
 22 80  1  0
 22 81  1  0
 22 82  1  0
 39 83  1  0
 45 84  1  0
 45 85  1  0
 46 86  1  0
 46 87  1  0
 46 88  1  0
 50 89  1  0
 50 90  1  0
 51 91  1  0
 51 92  1  0
 51 93  1  0
 52 94  1  0
 57 95  1  0
 60 96  1  0
 68 97  1  0
 69 98  1  0
 70 99  1  0
 71100  1  0
 72101  1  0
 73102  1  0
 73103  1  0
 74104  1  0
M  END

