
     RDKit          3D

 85 96  0  0  0  0  0  0  0  0999 V2000
   -5.9021   -2.1443   -3.4065 C   0  0  0  0  0  0  0  0  0  0  0  0
   -6.1020   -1.1571   -4.1857 C   0  0  0  0  0  0  0  0  0  0  0  0
   -5.7545    0.2235   -3.9313 C   0  0  0  0  0  0  0  0  0  0  0  0
   -5.2652    0.7529   -2.9125 O   0  0  0  0  0  0  0  0  0  0  0  0
   -6.0806    1.0259   -5.1408 C   0  0  0  0  0  0  0  0  0  0  0  0
   -5.9264    2.3717   -5.3651 C   0  0  0  0  0  0  0  0  0  0  0  0
   -6.2992    2.9275   -6.6040 C   0  0  0  0  0  0  0  0  0  0  0  0
   -6.0878    4.8030   -6.8726 Br  0  0  0  0  0  0  0  0  0  0  0  0
   -6.8037    2.1092   -7.5387 C   0  0  0  0  0  0  0  0  0  0  0  0
   -7.3522    2.8396   -9.2460 Br  0  0  0  0  0  0  0  0  0  0  0  0
   -6.9536    0.7560   -7.2848 C   0  0  0  0  0  0  0  0  0  0  0  0
   -6.5913    0.1928   -6.0850 C   0  0  0  0  0  0  0  0  0  0  0  0
   -6.6521   -1.1986   -5.5933 C   0  0  0  0  0  0  0  0  0  0  0  0
   -7.1302   -2.2343   -6.2303 C   0  0  0  0  0  0  0  0  0  0  0  0
   -7.2152   -3.4963   -5.7038 C   0  0  0  0  0  0  0  0  0  0  0  0
   -7.2797   -4.7059   -5.1897 N   0  0  0  0  0  0  0  0  0  0  0  0
   -7.6113   -2.0984   -7.6271 C   0  0  0  0  0  0  0  0  0  0  0  0
   -8.0056   -2.0009   -8.7307 N   0  0  0  0  0  0  0  0  0  0  0  0
   -5.3200   -2.2724   -2.1104 C   0  0  0  0  0  0  0  0  0  0  0  0
   -5.1914   -3.2739   -1.3044 C   0  0  0  0  0  0  0  0  0  0  0  0
   -4.4449   -3.3127   -0.1957 C   0  0  0  0  0  0  0  0  0  0  0  0
   -3.9015   -4.5944    0.8980 S   0  0  0  0  0  0  0  0  0  0  0  0
   -2.7685   -3.6971    1.8098 C   0  0  0  0  0  0  0  0  0  0  0  0
   -1.7320   -3.7259    2.7152 C   0  0  0  0  0  0  0  0  0  0  0  0
   -1.0085   -4.8265    3.3640 C   0  0  0  0  0  0  0  0  0  0  0  0
   -0.0107   -4.7110    3.8415 C   0  0  0  0  0  0  0  0  0  0  0  0
    0.3865   -5.7785    4.6555 N   0  0  0  0  0  0  0  0  0  0  0  0
   -0.9311   -6.8320    4.5397 S   0  0  0  0  0  0  0  0  0  0  0  0
   -1.9767   -5.9371    3.4665 N   0  0  0  0  0  0  0  0  0  0  0  0
    0.7022   -3.4491    3.8633 C   0  0  0  0  0  0  0  0  0  0  0  0
    2.0088   -3.0888    3.9944 C   0  0  0  0  0  0  0  0  0  0  0  0
    2.2375   -1.8319    3.6261 C   0  0  0  0  0  0  0  0  0  0  0  0
    0.9942   -1.2888    3.2008 N   0  0  0  0  0  0  0  0  0  0  0  0
    0.8871    0.0373    2.6692 C   0  0  0  0  0  0  0  0  0  0  0  0
    0.6312    1.0699    3.7064 C   0  0  0  0  0  0  0  0  0  0  0  0
    0.1122   -2.2942    3.3436 C   0  0  0  0  0  0  0  0  0  0  0  0
   -1.1662   -2.4737    2.7488 C   0  0  0  0  0  0  0  0  0  0  0  0
   -1.8619   -1.7282    1.9050 N   0  0  0  0  0  0  0  0  0  0  0  0
   -2.8506   -2.4166    1.2558 C   0  0  0  0  0  0  0  0  0  0  0  0
   -3.7364   -2.3049    0.2286 C   0  0  0  0  0  0  0  0  0  0  0  0
   -4.1517   -0.9873   -1.1500 Se  0  0  0  0  0  2  0  0  0  0  0  0
   -2.0014   -0.2535    2.0249 C   0  0  0  0  0  0  0  0  0  0  0  0
   -3.5262   -0.0376    2.4973 C   0  0  0  0  0  0  0  0  0  0  0  0
    3.5382   -1.4848    3.4183 C   0  0  0  0  0  0  0  0  0  0  0  0
    4.5408   -2.3235    3.5121 C   0  0  0  0  0  0  0  0  0  0  0  0
    3.6364   -3.7508    3.9927 S   0  0  0  0  0  0  0  0  0  0  0  0
    5.8440   -1.8836    3.2066 C   0  0  0  0  0  0  0  0  0  0  0  0
    6.1611   -0.7031    2.8808 C   0  0  0  0  0  0  0  0  0  0  0  0
    4.4190    0.1820    2.9303 Se  0  0  0  0  0  2  0  0  0  0  0  0
    7.3560   -0.1677    2.2104 C   0  0  0  0  0  0  0  0  0  0  0  0
    7.3999    0.8876    1.4445 C   0  0  0  0  0  0  0  0  0  0  0  0
    6.3251    1.8024    1.0715 C   0  0  0  0  0  0  0  0  0  0  0  0
    5.1492    1.8436    1.5047 O   0  0  0  0  0  0  0  0  0  0  0  0
    6.7833    2.7701    0.0405 C   0  0  0  0  0  0  0  0  0  0  0  0
    6.0476    3.8003   -0.4950 C   0  0  0  0  0  0  0  0  0  0  0  0
    6.6928    4.6873   -1.4139 C   0  0  0  0  0  0  0  0  0  0  0  0
    5.7846    6.0009   -2.0946 Cl  0  0  0  0  0  0  0  0  0  0  0  0
    7.9805    4.4308   -1.6875 C   0  0  0  0  0  0  0  0  0  0  0  0
    8.7979    5.5087   -2.8257 Cl  0  0  0  0  0  0  0  0  0  0  0  0
    8.6988    3.3723   -1.1248 C   0  0  0  0  0  0  0  0  0  0  0  0
    8.0629    2.4909   -0.2343 C   0  0  0  0  0  0  0  0  0  0  0  0
    8.5341    1.3350    0.5807 C   0  0  0  0  0  0  0  0  0  0  0  0
    9.7464    0.9092    0.5727 C   0  0  0  0  0  0  0  0  0  0  0  0
   10.5392    0.0710    1.1730 C   0  0  0  0  0  0  0  0  0  0  0  0
   11.3291   -0.7354    1.7677 N   0  0  0  0  0  0  0  0  0  0  0  0
   10.4259    1.1949   -0.8409 C   0  0  0  0  0  0  0  0  0  0  0  0
   10.9459    1.4265   -1.9020 N   0  0  0  0  0  0  0  0  0  0  0  0
   -6.1885   -3.1472   -3.8441 H   0  0  0  0  0  0  0  0  0  0  0  0
   -5.5449    3.0723   -4.6656 H   0  0  0  0  0  0  0  0  0  0  0  0
   -7.3544    0.2013   -8.0867 H   0  0  0  0  0  0  0  0  0  0  0  0
   -5.8160   -4.2447   -1.5956 H   0  0  0  0  0  0  0  0  0  0  0  0
    1.9383    0.3470    2.2827 H   0  0  0  0  0  0  0  0  0  0  0  0
    0.3731    0.1288    1.7007 H   0  0  0  0  0  0  0  0  0  0  0  0
   -0.0207    1.9105    3.3439 H   0  0  0  0  0  0  0  0  0  0  0  0
    0.0771    0.6416    4.5886 H   0  0  0  0  0  0  0  0  0  0  0  0
    1.5249    1.5837    4.1134 H   0  0  0  0  0  0  0  0  0  0  0  0
   -1.5428    0.0815    2.9302 H   0  0  0  0  0  0  0  0  0  0  0  0
   -1.9103    0.2265    1.1025 H   0  0  0  0  0  0  0  0  0  0  0  0
   -3.9930    0.4928    1.6957 H   0  0  0  0  0  0  0  0  0  0  0  0
   -3.9324   -1.0297    2.7556 H   0  0  0  0  0  0  0  0  0  0  0  0
   -3.5009    0.5618    3.4239 H   0  0  0  0  0  0  0  0  0  0  0  0
    6.6629   -2.6957    3.2846 H   0  0  0  0  0  0  0  0  0  0  0  0
    8.2580   -0.7189    2.3712 H   0  0  0  0  0  0  0  0  0  0  0  0
    5.0203    4.0009   -0.2735 H   0  0  0  0  0  0  0  0  0  0  0  0
    9.6941    3.3256   -1.3693 H   0  0  0  0  0  0  0  0  0  0  0  0
  1  2  2  3
  2  3  1  0
  3  4  2  0
  3  5  1  0
  5  6  2  0
  6  7  1  0
  7  8  1  0
  7  9  2  0
  9 10  1  0
  9 11  1  0
 11 12  2  0
 12 13  1  0
 13 14  2  3
 14 15  1  0
 15 16  3  0
 14 17  1  0
 17 18  3  0
  1 19  1  0
 19 20  2  0
 20 21  1  0
 21 22  1  0
 22 23  1  0
 23 24  1  0
 24 25  1  0
 25 26  1  0
 26 27  2  0
 27 28  1  0
 28 29  1  0
 26 30  1  0
 30 31  1  0
 31 32  2  0
 32 33  1  0
 33 34  1  0
 34 35  1  0
 33 36  1  0
 36 37  1  0
 37 38  1  0
 38 39  1  0
 39 40  1  0
 40 41  1  0
 38 42  1  0
 42 43  1  0
 32 44  1  0
 44 45  2  0
 45 46  1  0
 45 47  1  0
 47 48  2  0
 48 49  1  0
 48 50  1  0
 50 51  2  3
 51 52  1  0
 52 53  2  0
 52 54  1  0
 54 55  2  0
 55 56  1  0
 56 57  1  0
 56 58  2  0
 58 59  1  0
 58 60  1  0
 60 61  2  0
 61 62  1  0
 62 63  2  3
 63 64  1  0
 64 65  3  0
 63 66  1  0
 66 67  3  0
 13  2  1  0
 41 19  1  0
 49 44  1  0
 62 51  1  0
 12  5  1  0
 40 21  2  0
 61 54  1  0
 39 23  2  0
 37 24  2  0
 29 25  2  0
 36 30  2  0
 46 31  1  0
  1 68  1  0
  6 69  1  0
 11 70  1  0
 20 71  1  0
 34 72  1  0
 34 73  1  0
 35 74  1  0
 35 75  1  0
 35 76  1  0
 42 77  1  0
 42 78  1  0
 43 79  1  0
 43 80  1  0
 43 81  1  0
 47 82  1  0
 50 83  1  0
 55 84  1  0
 60 85  1  0
M  END

