
     RDKit          3D

100111  0  0  0  0  0  0  0  0999 V2000
    3.0896    2.7131   -5.4573 C   0  0  0  0  0  0  0  0  0  0  0  0
    1.9360    2.1587   -5.8902 C   0  0  0  0  0  0  0  0  0  0  0  0
    0.9368    1.4287   -5.1042 C   0  0  0  0  0  0  0  0  0  0  0  0
    0.7745    1.4863   -3.8616 O   0  0  0  0  0  0  0  0  0  0  0  0
    0.0266    0.7749   -6.0295 C   0  0  0  0  0  0  0  0  0  0  0  0
   -1.1090    0.0275   -5.7185 C   0  0  0  0  0  0  0  0  0  0  0  0
   -1.9581   -0.3756   -6.7570 C   0  0  0  0  0  0  0  0  0  0  0  0
   -3.5215   -1.3713   -6.3077 Br  0  0  0  0  0  0  0  0  0  0  0  0
   -1.6504   -0.0189   -8.0842 C   0  0  0  0  0  0  0  0  0  0  0  0
   -2.8255   -0.4527   -9.5269 Br  0  0  0  0  0  0  0  0  0  0  0  0
   -0.4934    0.7215   -8.3730 C   0  0  0  0  0  0  0  0  0  0  0  0
    0.3610    1.0877   -7.3313 C   0  0  0  0  0  0  0  0  0  0  0  0
    1.5490    1.9862   -7.3189 C   0  0  0  0  0  0  0  0  0  0  0  0
    1.9396    2.7824   -8.3341 C   0  0  0  0  0  0  0  0  0  0  0  0
    1.7927    2.3869   -9.7073 C   0  0  0  0  0  0  0  0  0  0  0  0
    1.6504    2.0627  -10.8108 N   0  0  0  0  0  0  0  0  0  0  0  0
    1.9364    4.1976   -8.0883 C   0  0  0  0  0  0  0  0  0  0  0  0
    1.7751    5.3381   -7.9367 N   0  0  0  0  0  0  0  0  0  0  0  0
    3.5765    2.5926   -4.0660 C   0  0  0  0  0  0  0  0  0  0  0  0
    4.0719    3.6523   -3.2796 C   0  0  0  0  0  0  0  0  0  0  0  0
    4.1808    5.0844   -3.7428 C   0  0  0  0  0  0  0  0  0  0  0  0
    2.8124    5.7351   -3.8849 C   0  0  0  0  0  0  0  0  0  0  0  0
    4.3182    3.2209   -1.9705 C   0  0  0  0  0  0  0  0  0  0  0  0
    4.6115    4.0404   -0.5083 S   0  0  0  0  0  0  0  0  0  0  0  0
    4.4204    2.6110    0.4001 C   0  0  0  0  0  0  0  0  0  0  0  0
    3.9514    2.3420    1.6541 C   0  0  0  0  0  0  0  0  0  0  0  0
    3.8091    3.1970    2.7517 C   0  0  0  0  0  0  0  0  0  0  0  0
    3.0920    2.7409    3.8909 C   0  0  0  0  0  0  0  0  0  0  0  0
    2.9814    3.5974    4.9324 N   0  0  0  0  0  0  0  0  0  0  0  0
    3.7967    4.8983    4.3086 S   0  0  0  0  0  0  0  0  0  0  0  0
    4.2877    4.4665    2.7912 N   0  0  0  0  0  0  0  0  0  0  0  0
    2.5620    1.4478    3.8737 C   0  0  0  0  0  0  0  0  0  0  0  0
    1.8941    0.7575    4.8372 C   0  0  0  0  0  0  0  0  0  0  0  0
    1.0854    1.0569    6.3023 S   0  0  0  0  0  0  0  0  0  0  0  0
    0.4505   -0.5267    6.3015 C   0  0  0  0  0  0  0  0  0  0  0  0
   -0.5911   -1.1235    7.0208 C   0  0  0  0  0  0  0  0  0  0  0  0
   -1.2599   -0.5025    8.2124 C   0  0  0  0  0  0  0  0  0  0  0  0
   -2.2583    0.5745    7.7967 C   0  0  0  0  0  0  0  0  0  0  0  0
   -1.0107   -2.3173    6.4030 C   0  0  0  0  0  0  0  0  0  0  0  0
   -0.0256   -2.6241    5.0516 S   0  0  0  0  0  0  0  0  0  0  0  0
    0.8530   -1.2187    5.1874 C   0  0  0  0  0  0  0  0  0  0  0  0
    1.6568   -0.4696    4.3409 C   0  0  0  0  0  0  0  0  0  0  0  0
    2.1315   -0.6436    3.0750 N   0  0  0  0  0  0  0  0  0  0  0  0
    2.6771    0.5824    2.7624 C   0  0  0  0  0  0  0  0  0  0  0  0
    3.3438    1.0717    1.5918 C   0  0  0  0  0  0  0  0  0  0  0  0
    3.3648    0.6097    0.3015 N   0  0  0  0  0  0  0  0  0  0  0  0
    4.0755    1.5506   -0.3794 C   0  0  0  0  0  0  0  0  0  0  0  0
    4.0585    1.8972   -1.7334 C   0  0  0  0  0  0  0  0  0  0  0  0
    3.5520    1.1588   -3.1542 S   0  0  0  0  0  0  0  0  0  0  0  0
    2.3819   -0.2498   -0.3668 C   0  0  0  0  0  0  0  0  0  0  0  0
    3.0675   -1.4418   -1.0633 C   0  0  0  0  0  0  0  0  0  0  0  0
    2.2753   -1.9538    2.4187 C   0  0  0  0  0  0  0  0  0  0  0  0
    0.9224   -2.4553    1.8659 C   0  0  0  0  0  0  0  0  0  0  0  0
   -2.3461   -2.9330    6.5344 C   0  0  0  0  0  0  0  0  0  0  0  0
   -3.2372   -2.8037    5.5356 C   0  0  0  0  0  0  0  0  0  0  0  0
   -3.1007   -1.8395    4.4347 C   0  0  0  0  0  0  0  0  0  0  0  0
   -2.8079   -0.6292    4.5323 O   0  0  0  0  0  0  0  0  0  0  0  0
   -3.4019   -2.5244    3.2043 C   0  0  0  0  0  0  0  0  0  0  0  0
   -3.3116   -2.0443    1.8996 C   0  0  0  0  0  0  0  0  0  0  0  0
   -3.6134   -2.9140    0.8345 C   0  0  0  0  0  0  0  0  0  0  0  0
   -3.6121   -2.4462   -0.5968 C   0  0  0  0  0  0  0  0  0  0  0  0
   -4.8869   -2.5732   -1.1228 F   0  0  0  0  0  0  0  0  0  0  0  0
   -2.7346   -3.2185   -1.3366 F   0  0  0  0  0  0  0  0  0  0  0  0
   -3.2403   -1.1165   -0.7023 F   0  0  0  0  0  0  0  0  0  0  0  0
   -3.9455   -4.2610    1.1161 C   0  0  0  0  0  0  0  0  0  0  0  0
   -4.0567   -4.7106    2.4442 C   0  0  0  0  0  0  0  0  0  0  0  0
   -3.8288   -3.8020    3.4848 C   0  0  0  0  0  0  0  0  0  0  0  0
   -3.9502   -3.9761    4.9545 C   0  0  0  0  0  0  0  0  0  0  0  0
   -4.9092   -4.6843    5.5725 C   0  0  0  0  0  0  0  0  0  0  0  0
   -5.2086   -4.5038    6.9697 C   0  0  0  0  0  0  0  0  0  0  0  0
   -5.4787   -4.3664    8.0935 N   0  0  0  0  0  0  0  0  0  0  0  0
   -5.8078   -5.5390    4.8445 C   0  0  0  0  0  0  0  0  0  0  0  0
   -6.5441   -6.2107    4.2514 N   0  0  0  0  0  0  0  0  0  0  0  0
    3.7294    3.2331   -6.1639 H   0  0  0  0  0  0  0  0  0  0  0  0
   -1.3485   -0.2114   -4.6862 H   0  0  0  0  0  0  0  0  0  0  0  0
   -0.3086    1.0199   -9.3862 H   0  0  0  0  0  0  0  0  0  0  0  0
    4.8023    5.6703   -3.0316 H   0  0  0  0  0  0  0  0  0  0  0  0
    4.6816    5.0972   -4.7328 H   0  0  0  0  0  0  0  0  0  0  0  0
    2.1952    5.2071   -4.6581 H   0  0  0  0  0  0  0  0  0  0  0  0
    2.9438    6.7887   -4.2084 H   0  0  0  0  0  0  0  0  0  0  0  0
    2.2722    5.7237   -2.9166 H   0  0  0  0  0  0  0  0  0  0  0  0
   -0.4887   -0.0538    8.8698 H   0  0  0  0  0  0  0  0  0  0  0  0
   -1.7966   -1.2879    8.7789 H   0  0  0  0  0  0  0  0  0  0  0  0
   -2.7143    1.0187    8.7029 H   0  0  0  0  0  0  0  0  0  0  0  0
   -3.0594    0.1451    7.1554 H   0  0  0  0  0  0  0  0  0  0  0  0
   -1.7326    1.3805    7.2402 H   0  0  0  0  0  0  0  0  0  0  0  0
    1.8177    0.3427   -1.1185 H   0  0  0  0  0  0  0  0  0  0  0  0
    1.5881   -0.5602    0.3232 H   0  0  0  0  0  0  0  0  0  0  0  0
    2.7404   -2.4010   -0.6283 H   0  0  0  0  0  0  0  0  0  0  0  0
    2.7969   -1.4618   -2.1368 H   0  0  0  0  0  0  0  0  0  0  0  0
    4.1689   -1.3649   -0.9825 H   0  0  0  0  0  0  0  0  0  0  0  0
    3.0520   -1.9001    1.6345 H   0  0  0  0  0  0  0  0  0  0  0  0
    2.6627   -2.6923    3.1585 H   0  0  0  0  0  0  0  0  0  0  0  0
    0.5285   -3.2799    2.4824 H   0  0  0  0  0  0  0  0  0  0  0  0
    0.1574   -1.6439    1.8248 H   0  0  0  0  0  0  0  0  0  0  0  0
    1.0578   -2.8724    0.8420 H   0  0  0  0  0  0  0  0  0  0  0  0
   -2.4218   -3.7760    7.2155 H   0  0  0  0  0  0  0  0  0  0  0  0
   -3.0726   -0.9983    1.7297 H   0  0  0  0  0  0  0  0  0  0  0  0
   -4.1752   -4.9512    0.3105 H   0  0  0  0  0  0  0  0  0  0  0  0
   -4.3041   -5.7419    2.6600 H   0  0  0  0  0  0  0  0  0  0  0  0
  1  2  2  3
  2  3  1  0
  3  4  2  0
  3  5  1  0
  5  6  2  0
  6  7  1  0
  7  8  1  0
  7  9  2  0
  9 10  1  0
  9 11  1  0
 11 12  2  0
 12 13  1  0
 13 14  2  3
 14 15  1  0
 15 16  3  0
 14 17  1  0
 17 18  3  0
  1 19  1  0
 19 20  2  0
 20 21  1  0
 21 22  1  0
 20 23  1  0
 23 24  1  0
 24 25  1  0
 25 26  1  0
 26 27  1  0
 27 28  1  0
 28 29  2  0
 29 30  1  0
 30 31  1  0
 28 32  1  0
 32 33  1  0
 33 34  1  0
 34 35  1  0
 35 36  1  0
 36 37  1  0
 37 38  1  0
 36 39  2  0
 39 40  1  0
 40 41  1  0
 41 42  1  0
 42 43  1  0
 43 44  1  0
 44 45  1  0
 45 46  1  0
 46 47  1  0
 47 48  1  0
 48 49  1  0
 46 50  1  0
 50 51  1  0
 43 52  1  0
 52 53  1  0
 39 54  1  0
 54 55  2  3
 55 56  1  0
 56 57  2  0
 56 58  1  0
 58 59  2  0
 59 60  1  0
 60 61  1  0
 61 62  1  0
 61 63  1  0
 61 64  1  0
 60 65  2  0
 65 66  1  0
 66 67  2  0
 67 68  1  0
 68 69  2  3
 69 70  1  0
 70 71  3  0
 69 72  1  0
 72 73  3  0
 13  2  1  0
 49 19  1  0
 68 55  1  0
 12  5  1  0
 48 23  2  0
 67 58  1  0
 47 25  2  0
 45 26  2  0
 31 27  2  0
 44 32  2  0
 42 33  2  0
 41 35  2  0
  1 74  1  0
  6 75  1  0
 11 76  1  0
 21 77  1  0
 21 78  1  0
 22 79  1  0
 22 80  1  0
 22 81  1  0
 37 82  1  0
 37 83  1  0
 38 84  1  0
 38 85  1  0
 38 86  1  0
 50 87  1  0
 50 88  1  0
 51 89  1  0
 51 90  1  0
 51 91  1  0
 52 92  1  0
 52 93  1  0
 53 94  1  0
 53 95  1  0
 53 96  1  0
 54 97  1  0
 59 98  1  0
 65 99  1  0
 66100  1  0
M  END

