
     RDKit          3D

 97108  0  0  0  0  0  0  0  0999 V2000
    7.5862    0.5758    0.6503 C   0  0  0  0  0  0  0  0  0  0  0  0
    7.3606    1.0908    1.8754 C   0  0  0  0  0  0  0  0  0  0  0  0
    8.3393    0.9964    2.9578 C   0  0  0  0  0  0  0  0  0  0  0  0
    9.5721    0.7788    2.8235 O   0  0  0  0  0  0  0  0  0  0  0  0
    7.6248    1.0709    4.2205 C   0  0  0  0  0  0  0  0  0  0  0  0
    8.1053    0.8257    5.5054 C   0  0  0  0  0  0  0  0  0  0  0  0
    7.1940    0.7928    6.5697 C   0  0  0  0  0  0  0  0  0  0  0  0
    7.8558    0.4759    8.3363 Br  0  0  0  0  0  0  0  0  0  0  0  0
    5.8135    0.9769    6.3219 C   0  0  0  0  0  0  0  0  0  0  0  0
    4.5302    0.9195    7.7316 Br  0  0  0  0  0  0  0  0  0  0  0  0
    5.3531    1.2076    5.0165 C   0  0  0  0  0  0  0  0  0  0  0  0
    6.2817    1.2892    3.9732 C   0  0  0  0  0  0  0  0  0  0  0  0
    6.0686    1.4830    2.5129 C   0  0  0  0  0  0  0  0  0  0  0  0
    5.0864    2.2301    1.9479 C   0  0  0  0  0  0  0  0  0  0  0  0
    5.1796    2.7262    0.5939 C   0  0  0  0  0  0  0  0  0  0  0  0
    5.2368    3.1359   -0.4879 N   0  0  0  0  0  0  0  0  0  0  0  0
    3.9485    2.7085    2.6983 C   0  0  0  0  0  0  0  0  0  0  0  0
    3.0328    3.1069    3.2887 N   0  0  0  0  0  0  0  0  0  0  0  0
    6.5253    0.0969   -0.2575 C   0  0  0  0  0  0  0  0  0  0  0  0
    6.5852    0.0855   -1.6652 C   0  0  0  0  0  0  0  0  0  0  0  0
    7.7180    0.6362   -2.4879 C   0  0  0  0  0  0  0  0  0  0  0  0
    7.6676    2.1581   -2.5452 C   0  0  0  0  0  0  0  0  0  0  0  0
    5.3970   -0.4138   -2.2052 C   0  0  0  0  0  0  0  0  0  0  0  0
    4.7281   -0.3582   -3.7654 S   0  0  0  0  0  0  0  0  0  0  0  0
    3.2448   -0.9653   -3.2023 C   0  0  0  0  0  0  0  0  0  0  0  0
    1.9394   -0.8171   -3.5908 C   0  0  0  0  0  0  0  0  0  0  0  0
    1.4086   -0.2358   -4.7538 C   0  0  0  0  0  0  0  0  0  0  0  0
    0.0349    0.1465   -4.7680 C   0  0  0  0  0  0  0  0  0  0  0  0
   -0.4328    0.7509   -5.8867 N   0  0  0  0  0  0  0  0  0  0  0  0
    0.9544    0.7511   -6.7918 S   0  0  0  0  0  0  0  0  0  0  0  0
    2.1334    0.0518   -5.8597 N   0  0  0  0  0  0  0  0  0  0  0  0
   -0.7370   -0.1022   -3.6316 C   0  0  0  0  0  0  0  0  0  0  0  0
   -2.0515    0.1369   -3.3514 C   0  0  0  0  0  0  0  0  0  0  0  0
   -3.4298    0.8480   -4.0418 S   0  0  0  0  0  0  0  0  0  0  0  0
   -4.3637    0.4306   -2.6703 C   0  0  0  0  0  0  0  0  0  0  0  0
   -5.6682    0.7112   -2.2670 C   0  0  0  0  0  0  0  0  0  0  0  0
   -6.6710    1.4352   -3.1277 C   0  0  0  0  0  0  0  0  0  0  0  0
   -7.4161    0.4522   -4.0209 C   0  0  0  0  0  0  0  0  0  0  0  0
   -5.9163    0.1916   -0.9767 C   0  0  0  0  0  0  0  0  0  0  0  0
   -4.4933   -0.5304   -0.3566 S   0  0  0  0  0  0  0  0  0  0  0  0
   -3.6119   -0.2444   -1.7458 C   0  0  0  0  0  0  0  0  0  0  0  0
   -2.2936   -0.3949   -2.1325 C   0  0  0  0  0  0  0  0  0  0  0  0
   -1.2153   -1.0075   -1.5866 N   0  0  0  0  0  0  0  0  0  0  0  0
   -0.2226   -0.7481   -2.4950 C   0  0  0  0  0  0  0  0  0  0  0  0
    1.1695   -1.0188   -2.4330 C   0  0  0  0  0  0  0  0  0  0  0  0
    1.9815   -1.1582   -1.3343 N   0  0  0  0  0  0  0  0  0  0  0  0
    3.2367   -1.1478   -1.8527 C   0  0  0  0  0  0  0  0  0  0  0  0
    4.4640   -0.8255   -1.2875 C   0  0  0  0  0  0  0  0  0  0  0  0
    5.0449   -0.5791    0.2572 S   0  0  0  0  0  0  0  0  0  0  0  0
    1.6571   -0.8761    0.0750 C   0  0  0  0  0  0  0  0  0  0  0  0
    1.9285   -2.0963    0.9567 C   0  0  0  0  0  0  0  0  0  0  0  0
   -1.3042   -2.1665   -0.6897 C   0  0  0  0  0  0  0  0  0  0  0  0
   -2.0375   -3.3224   -1.3644 C   0  0  0  0  0  0  0  0  0  0  0  0
   -7.1006    0.5030   -0.1597 C   0  0  0  0  0  0  0  0  0  0  0  0
   -7.7015   -0.3642    0.6771 C   0  0  0  0  0  0  0  0  0  0  0  0
   -7.3213   -1.7688    0.8918 C   0  0  0  0  0  0  0  0  0  0  0  0
   -6.7091   -2.5189    0.0846 O   0  0  0  0  0  0  0  0  0  0  0  0
   -7.8688   -2.1897    2.1628 C   0  0  0  0  0  0  0  0  0  0  0  0
   -7.6638   -3.3952    2.8351 C   0  0  0  0  0  0  0  0  0  0  0  0
   -8.2138   -3.5491    4.1191 C   0  0  0  0  0  0  0  0  0  0  0  0
   -8.0307   -4.7132    4.7931 F   0  0  0  0  0  0  0  0  0  0  0  0
   -8.9332   -2.4963    4.7114 C   0  0  0  0  0  0  0  0  0  0  0  0
   -9.4281   -2.6413    5.9635 F   0  0  0  0  0  0  0  0  0  0  0  0
   -9.1317   -1.2927    4.0114 C   0  0  0  0  0  0  0  0  0  0  0  0
   -8.6132   -1.1596    2.7097 C   0  0  0  0  0  0  0  0  0  0  0  0
   -8.6654   -0.0125    1.7645 C   0  0  0  0  0  0  0  0  0  0  0  0
   -9.5576    1.0106    1.7715 C   0  0  0  0  0  0  0  0  0  0  0  0
   -9.7282    1.8934    0.6458 C   0  0  0  0  0  0  0  0  0  0  0  0
   -9.8741    2.5999   -0.2582 N   0  0  0  0  0  0  0  0  0  0  0  0
  -10.4949    1.2146    2.8415 C   0  0  0  0  0  0  0  0  0  0  0  0
  -11.2515    1.4003    3.6967 N   0  0  0  0  0  0  0  0  0  0  0  0
    8.6056    0.3481    0.3692 H   0  0  0  0  0  0  0  0  0  0  0  0
    9.1571    0.6390    5.6735 H   0  0  0  0  0  0  0  0  0  0  0  0
    4.2923    1.2935    4.8319 H   0  0  0  0  0  0  0  0  0  0  0  0
    7.6701    0.2286   -3.5221 H   0  0  0  0  0  0  0  0  0  0  0  0
    8.6860    0.3087   -2.0559 H   0  0  0  0  0  0  0  0  0  0  0  0
    6.6952    2.4937   -2.9706 H   0  0  0  0  0  0  0  0  0  0  0  0
    7.8069    2.5796   -1.5287 H   0  0  0  0  0  0  0  0  0  0  0  0
    8.4921    2.5316   -3.1880 H   0  0  0  0  0  0  0  0  0  0  0  0
   -7.4040    1.9779   -2.4947 H   0  0  0  0  0  0  0  0  0  0  0  0
   -6.1563    2.1899   -3.7618 H   0  0  0  0  0  0  0  0  0  0  0  0
   -8.1311    1.0052   -4.6643 H   0  0  0  0  0  0  0  0  0  0  0  0
   -7.9812   -0.2734   -3.3955 H   0  0  0  0  0  0  0  0  0  0  0  0
   -6.7040   -0.1042   -4.6687 H   0  0  0  0  0  0  0  0  0  0  0  0
    0.6082   -0.5437    0.1922 H   0  0  0  0  0  0  0  0  0  0  0  0
    2.2612   -0.0180    0.4313 H   0  0  0  0  0  0  0  0  0  0  0  0
    1.2908   -2.0511    1.8648 H   0  0  0  0  0  0  0  0  0  0  0  0
    1.7180   -3.0429    0.4153 H   0  0  0  0  0  0  0  0  0  0  0  0
    2.9845   -2.1236    1.2843 H   0  0  0  0  0  0  0  0  0  0  0  0
   -0.3061   -2.5458   -0.4298 H   0  0  0  0  0  0  0  0  0  0  0  0
   -1.8264   -1.8826    0.2452 H   0  0  0  0  0  0  0  0  0  0  0  0
   -1.5040   -3.6288   -2.2940 H   0  0  0  0  0  0  0  0  0  0  0  0
   -3.0749   -3.0283   -1.6208 H   0  0  0  0  0  0  0  0  0  0  0  0
   -2.0840   -4.1912   -0.6745 H   0  0  0  0  0  0  0  0  0  0  0  0
   -7.3932    1.5388   -0.1623 H   0  0  0  0  0  0  0  0  0  0  0  0
   -7.0819   -4.1909    2.3866 H   0  0  0  0  0  0  0  0  0  0  0  0
   -9.6602   -0.4952    4.5097 H   0  0  0  0  0  0  0  0  0  0  0  0
  1  2  2  3
  2  3  1  0
  3  4  2  0
  3  5  1  0
  5  6  2  0
  6  7  1  0
  7  8  1  0
  7  9  2  0
  9 10  1  0
  9 11  1  0
 11 12  2  0
 12 13  1  0
 13 14  2  3
 14 15  1  0
 15 16  3  0
 14 17  1  0
 17 18  3  0
  1 19  1  0
 19 20  2  0
 20 21  1  0
 21 22  1  0
 20 23  1  0
 23 24  1  0
 24 25  1  0
 25 26  1  0
 26 27  1  0
 27 28  1  0
 28 29  2  0
 29 30  1  0
 30 31  1  0
 28 32  1  0
 32 33  1  0
 33 34  1  0
 34 35  1  0
 35 36  1  0
 36 37  1  0
 37 38  1  0
 36 39  2  0
 39 40  1  0
 40 41  1  0
 41 42  1  0
 42 43  1  0
 43 44  1  0
 44 45  1  0
 45 46  1  0
 46 47  1  0
 47 48  1  0
 48 49  1  0
 46 50  1  0
 50 51  1  0
 43 52  1  0
 52 53  1  0
 39 54  1  0
 54 55  2  3
 55 56  1  0
 56 57  2  0
 56 58  1  0
 58 59  2  0
 59 60  1  0
 60 61  1  0
 60 62  2  0
 62 63  1  0
 62 64  1  0
 64 65  2  0
 65 66  1  0
 66 67  2  3
 67 68  1  0
 68 69  3  0
 67 70  1  0
 70 71  3  0
 13  2  1  0
 49 19  1  0
 66 55  1  0
 12  5  1  0
 48 23  2  0
 65 58  1  0
 47 25  2  0
 45 26  2  0
 31 27  2  0
 44 32  2  0
 42 33  2  0
 41 35  2  0
  1 72  1  0
  6 73  1  0
 11 74  1  0
 21 75  1  0
 21 76  1  0
 22 77  1  0
 22 78  1  0
 22 79  1  0
 37 80  1  0
 37 81  1  0
 38 82  1  0
 38 83  1  0
 38 84  1  0
 50 85  1  0
 50 86  1  0
 51 87  1  0
 51 88  1  0
 51 89  1  0
 52 90  1  0
 52 91  1  0
 53 92  1  0
 53 93  1  0
 53 94  1  0
 54 95  1  0
 59 96  1  0
 64 97  1  0
M  END

