
     RDKit          3D

 86 95  0  0  0  0  0  0  0  0999 V2000
   -1.3512   -3.3886   -5.5974 C   0  0  0  0  0  0  0  0  0  0  0  0
   -2.5228   -3.6024   -6.2286 C   0  0  0  0  0  0  0  0  0  0  0  0
   -3.7805   -2.8886   -5.9740 C   0  0  0  0  0  0  0  0  0  0  0  0
   -3.9137   -1.7948   -5.3631 O   0  0  0  0  0  0  0  0  0  0  0  0
   -4.8565   -3.6200   -6.6027 C   0  0  0  0  0  0  0  0  0  0  0  0
   -6.2238   -3.3602   -6.5348 C   0  0  0  0  0  0  0  0  0  0  0  0
   -7.1092   -4.2435   -7.1689 C   0  0  0  0  0  0  0  0  0  0  0  0
   -8.8351   -3.9190   -7.0833 Cl  0  0  0  0  0  0  0  0  0  0  0  0
   -6.6082   -5.3816   -7.8407 C   0  0  0  0  0  0  0  0  0  0  0  0
   -7.7847   -6.6348   -8.6866 Br  0  0  0  0  0  0  0  0  0  0  0  0
   -5.2231   -5.6206   -7.8909 C   0  0  0  0  0  0  0  0  0  0  0  0
   -4.3439   -4.7066   -7.2864 C   0  0  0  0  0  0  0  0  0  0  0  0
   -2.8528   -4.6963   -7.1992 C   0  0  0  0  0  0  0  0  0  0  0  0
   -1.9897   -5.3764   -8.0014 C   0  0  0  0  0  0  0  0  0  0  0  0
   -0.5734   -5.1184   -8.0190 C   0  0  0  0  0  0  0  0  0  0  0  0
    0.5672   -4.9181   -8.0461 N   0  0  0  0  0  0  0  0  0  0  0  0
   -2.4333   -6.3161   -8.9982 C   0  0  0  0  0  0  0  0  0  0  0  0
   -2.7708   -7.0734   -9.8063 N   0  0  0  0  0  0  0  0  0  0  0  0
   -1.1562   -2.3811   -4.5443 C   0  0  0  0  0  0  0  0  0  0  0  0
   -2.0173   -2.3395   -3.0650 S   0  0  0  0  0  0  0  0  0  0  0  0
   -1.0609   -1.1075   -2.4597 C   0  0  0  0  0  0  0  0  0  0  0  0
   -0.7435   -0.5917   -1.2407 C   0  0  0  0  0  0  0  0  0  0  0  0
   -1.2098   -0.8730    0.0429 C   0  0  0  0  0  0  0  0  0  0  0  0
   -2.2613   -1.5969    0.4508 N   0  0  0  0  0  0  0  0  0  0  0  0
   -2.2232   -1.5148    1.7821 N   0  0  0  0  0  0  0  0  0  0  0  0
   -3.1797   -2.1859    2.6534 C   0  0  0  0  0  0  0  0  0  0  0  0
   -2.5595   -3.4461    3.2446 C   0  0  0  0  0  0  0  0  0  0  0  0
   -1.1982   -0.7946    2.2408 N   0  0  0  0  0  0  0  0  0  0  0  0
   -0.5511   -0.3984    1.1359 C   0  0  0  0  0  0  0  0  0  0  0  0
    0.5954    0.3806    0.9873 C   0  0  0  0  0  0  0  0  0  0  0  0
    1.2850    1.1578    1.8661 C   0  0  0  0  0  0  0  0  0  0  0  0
    1.1267    1.6672    3.4508 S   0  0  0  0  0  0  0  0  0  0  0  0
    2.1903    2.9905    3.2144 C   0  0  0  0  0  0  0  0  0  0  0  0
    2.5720    3.0707    1.8660 C   0  0  0  0  0  0  0  0  0  0  0  0
    2.0600    1.9916    1.1431 C   0  0  0  0  0  0  0  0  0  0  0  0
    1.9452    1.7857   -0.1962 N   0  0  0  0  0  0  0  0  0  0  0  0
    2.1805    2.8464   -1.1855 C   0  0  0  0  0  0  0  0  0  0  0  0
    0.9347    3.7125   -1.3573 C   0  0  0  0  0  0  0  0  0  0  0  0
    1.0743    0.7270   -0.2903 C   0  0  0  0  0  0  0  0  0  0  0  0
    0.4369    0.1510   -1.4342 C   0  0  0  0  0  0  0  0  0  0  0  0
    0.8938   -0.0141   -2.7183 N   0  0  0  0  0  0  0  0  0  0  0  0
   -0.0689   -0.7710   -3.3109 C   0  0  0  0  0  0  0  0  0  0  0  0
   -0.0623   -1.5042   -4.4983 C   0  0  0  0  0  0  0  0  0  0  0  0
    2.2823    0.0438   -3.1920 C   0  0  0  0  0  0  0  0  0  0  0  0
    2.4085    0.9617   -4.4091 C   0  0  0  0  0  0  0  0  0  0  0  0
    2.4835    4.0338    4.2115 C   0  0  0  0  0  0  0  0  0  0  0  0
    2.5705    3.8258    5.5377 C   0  0  0  0  0  0  0  0  0  0  0  0
    2.3333    4.8824    6.5211 C   0  0  0  0  0  0  0  0  0  0  0  0
    2.3193    6.1206    6.2920 O   0  0  0  0  0  0  0  0  0  0  0  0
    2.0171    4.2558    7.7887 C   0  0  0  0  0  0  0  0  0  0  0  0
    1.5961    4.8598    8.9738 C   0  0  0  0  0  0  0  0  0  0  0  0
    1.2556    4.0372   10.0571 C   0  0  0  0  0  0  0  0  0  0  0  0
    0.8412    4.5953   11.2219 F   0  0  0  0  0  0  0  0  0  0  0  0
    1.3223    2.6363    9.9318 C   0  0  0  0  0  0  0  0  0  0  0  0
    0.9637    1.8477   10.9755 F   0  0  0  0  0  0  0  0  0  0  0  0
    1.7440    2.0480    8.7264 C   0  0  0  0  0  0  0  0  0  0  0  0
    2.1147    2.8797    7.6584 C   0  0  0  0  0  0  0  0  0  0  0  0
    2.6089    2.5410    6.2966 C   0  0  0  0  0  0  0  0  0  0  0  0
    3.3513    1.4526    5.9731 C   0  0  0  0  0  0  0  0  0  0  0  0
    4.2082    1.4363    4.8125 C   0  0  0  0  0  0  0  0  0  0  0  0
    4.9005    1.4220    3.8858 N   0  0  0  0  0  0  0  0  0  0  0  0
    3.4711    0.3122    6.8424 C   0  0  0  0  0  0  0  0  0  0  0  0
    3.5760   -0.6116    7.5313 N   0  0  0  0  0  0  0  0  0  0  0  0
   -0.4879   -3.9917   -5.8138 H   0  0  0  0  0  0  0  0  0  0  0  0
   -6.5928   -2.4994   -5.9918 H   0  0  0  0  0  0  0  0  0  0  0  0
   -4.8739   -6.5200   -8.3673 H   0  0  0  0  0  0  0  0  0  0  0  0
   -4.0917   -2.4587    2.0774 H   0  0  0  0  0  0  0  0  0  0  0  0
   -3.4794   -1.4983    3.4747 H   0  0  0  0  0  0  0  0  0  0  0  0
   -2.2506   -4.1387    2.4315 H   0  0  0  0  0  0  0  0  0  0  0  0
   -3.3035   -3.9589    3.8904 H   0  0  0  0  0  0  0  0  0  0  0  0
   -1.6714   -3.1813    3.8583 H   0  0  0  0  0  0  0  0  0  0  0  0
    3.1419    3.8867    1.4431 H   0  0  0  0  0  0  0  0  0  0  0  0
    2.4727    2.4402   -2.1568 H   0  0  0  0  0  0  0  0  0  0  0  0
    3.0287    3.4861   -0.8640 H   0  0  0  0  0  0  0  0  0  0  0  0
    1.1469    4.5324   -2.0763 H   0  0  0  0  0  0  0  0  0  0  0  0
    0.0953    3.1005   -1.7515 H   0  0  0  0  0  0  0  0  0  0  0  0
    0.6373    4.1545   -0.3820 H   0  0  0  0  0  0  0  0  0  0  0  0
    0.7089   -1.4591   -5.2538 H   0  0  0  0  0  0  0  0  0  0  0  0
    2.6199   -0.9770   -3.4762 H   0  0  0  0  0  0  0  0  0  0  0  0
    2.9671    0.3616   -2.3824 H   0  0  0  0  0  0  0  0  0  0  0  0
    2.0053    0.4641   -5.3139 H   0  0  0  0  0  0  0  0  0  0  0  0
    1.8489    1.9086   -4.2548 H   0  0  0  0  0  0  0  0  0  0  0  0
    3.4792    1.1982   -4.5876 H   0  0  0  0  0  0  0  0  0  0  0  0
    2.5110    5.0525    3.8456 H   0  0  0  0  0  0  0  0  0  0  0  0
    1.5211    5.9372    9.0534 H   0  0  0  0  0  0  0  0  0  0  0  0
    1.7418    0.9732    8.6385 H   0  0  0  0  0  0  0  0  0  0  0  0
  1  2  2  3
  2  3  1  0
  3  4  2  0
  3  5  1  0
  5  6  2  0
  6  7  1  0
  7  8  1  0
  7  9  2  0
  9 10  1  0
  9 11  1  0
 11 12  2  0
 12 13  1  0
 13 14  2  3
 14 15  1  0
 15 16  3  0
 14 17  1  0
 17 18  3  0
  1 19  1  0
 19 20  1  0
 20 21  1  0
 21 22  1  0
 22 23  1  0
 23 24  2  0
 24 25  1  0
 25 26  1  0
 26 27  1  0
 25 28  1  0
 28 29  2  0
 29 30  1  0
 30 31  1  0
 31 32  1  0
 32 33  1  0
 33 34  2  0
 34 35  1  0
 35 36  1  0
 36 37  1  0
 37 38  1  0
 36 39  1  0
 39 40  1  0
 40 41  1  0
 41 42  1  0
 42 43  1  0
 41 44  1  0
 44 45  1  0
 33 46  1  0
 46 47  2  3
 47 48  1  0
 48 49  2  0
 48 50  1  0
 50 51  2  0
 51 52  1  0
 52 53  1  0
 52 54  2  0
 54 55  1  0
 54 56  1  0
 56 57  2  0
 57 58  1  0
 58 59  2  3
 59 60  1  0
 60 61  3  0
 59 62  1  0
 62 63  3  0
 13  2  1  0
 43 19  2  0
 58 47  1  0
 12  5  1  0
 42 21  2  0
 57 50  1  0
 40 22  2  0
 29 23  1  0
 39 30  2  0
 35 31  2  0
  1 64  1  0
  6 65  1  0
 11 66  1  0
 26 67  1  0
 26 68  1  0
 27 69  1  0
 27 70  1  0
 27 71  1  0
 34 72  1  0
 37 73  1  0
 37 74  1  0
 38 75  1  0
 38 76  1  0
 38 77  1  0
 43 78  1  0
 44 79  1  0
 44 80  1  0
 45 81  1  0
 45 82  1  0
 45 83  1  0
 46 84  1  0
 51 85  1  0
 56 86  1  0
M  END

