
     RDKit          3D

117130  0  0  0  0  0  0  0  0999 V2000
   -0.7629    0.2756    7.9285 C   0  0  0  0  0  0  0  0  0  0  0  0
   -1.2043   -0.9973    7.9607 C   0  0  0  0  0  0  0  0  0  0  0  0
   -1.1799   -1.9259    6.8219 C   0  0  0  0  0  0  0  0  0  0  0  0
   -0.5810   -1.7564    5.7264 O   0  0  0  0  0  0  0  0  0  0  0  0
   -1.9614   -3.0899    7.1633 C   0  0  0  0  0  0  0  0  0  0  0  0
   -2.2190   -4.2059    6.3684 C   0  0  0  0  0  0  0  0  0  0  0  0
   -2.9788   -5.2537    6.9049 C   0  0  0  0  0  0  0  0  0  0  0  0
   -3.3034   -6.6631    5.9072 Cl  0  0  0  0  0  0  0  0  0  0  0  0
   -3.4550   -5.1692    8.2310 C   0  0  0  0  0  0  0  0  0  0  0  0
   -4.4671   -6.5941    9.0177 Br  0  0  0  0  0  0  0  0  0  0  0  0
   -3.1811   -4.0313    9.0104 C   0  0  0  0  0  0  0  0  0  0  0  0
   -2.4392   -2.9738    8.4568 C   0  0  0  0  0  0  0  0  0  0  0  0
   -1.9705   -1.6835    9.0528 C   0  0  0  0  0  0  0  0  0  0  0  0
   -2.1476   -1.2599   10.3340 C   0  0  0  0  0  0  0  0  0  0  0  0
   -1.4175   -0.1553   10.8985 C   0  0  0  0  0  0  0  0  0  0  0  0
   -0.8336    0.7279   11.3664 N   0  0  0  0  0  0  0  0  0  0  0  0
   -3.0662   -1.8941   11.2446 C   0  0  0  0  0  0  0  0  0  0  0  0
   -3.8047   -2.3861   11.9896 N   0  0  0  0  0  0  0  0  0  0  0  0
   -0.1080    0.8596    6.7528 C   0  0  0  0  0  0  0  0  0  0  0  0
    1.2755    0.9677    6.5607 C   0  0  0  0  0  0  0  0  0  0  0  0
    2.2913    0.4675    7.5070 C   0  0  0  0  0  0  0  0  0  0  0  0
    2.4133   -0.9191    7.6882 C   0  0  0  0  0  0  0  0  0  0  0  0
    3.3225   -1.4355    8.6107 C   0  0  0  0  0  0  0  0  0  0  0  0
    4.1180   -0.5728    9.3648 C   0  0  0  0  0  0  0  0  0  0  0  0
    4.0094    0.8092    9.1935 C   0  0  0  0  0  0  0  0  0  0  0  0
    3.1090    1.3474    8.2568 C   0  0  0  0  0  0  0  0  0  0  0  0
    2.9818    2.8501    8.1491 C   0  0  0  0  0  0  0  0  0  0  0  0
    1.8423    3.3658    9.0235 C   0  0  0  0  0  0  0  0  0  0  0  0
    1.5595    1.4789    5.2947 C   0  0  0  0  0  0  0  0  0  0  0  0
    2.9784    1.4843    4.3626 S   0  0  0  0  0  0  0  0  0  0  0  0
    2.1228    1.9892    2.9850 C   0  0  0  0  0  0  0  0  0  0  0  0
    2.2842    1.7863    1.6424 C   0  0  0  0  0  0  0  0  0  0  0  0
    3.3422    1.1739    0.9526 C   0  0  0  0  0  0  0  0  0  0  0  0
    3.1171    0.6946   -0.3722 C   0  0  0  0  0  0  0  0  0  0  0  0
    4.1520    0.0762   -0.9903 N   0  0  0  0  0  0  0  0  0  0  0  0
    5.2886    0.1688    0.2110 S   0  0  0  0  0  0  0  0  0  0  0  0
    4.5688    0.9450    1.4847 N   0  0  0  0  0  0  0  0  0  0  0  0
    1.8598    0.8892   -0.9488 C   0  0  0  0  0  0  0  0  0  0  0  0
    1.3766    0.6283   -2.2001 C   0  0  0  0  0  0  0  0  0  0  0  0
    1.9030   -0.0088   -3.6830 S   0  0  0  0  0  0  0  0  0  0  0  0
    0.4566    0.5027   -4.4381 C   0  0  0  0  0  0  0  0  0  0  0  0
   -0.0307    0.4291   -5.7431 C   0  0  0  0  0  0  0  0  0  0  0  0
    0.6733   -0.2249   -6.8643 C   0  0  0  0  0  0  0  0  0  0  0  0
    1.8562    0.3144   -7.4309 C   0  0  0  0  0  0  0  0  0  0  0  0
    2.4364    1.6390   -6.9849 C   0  0  0  0  0  0  0  0  0  0  0  0
    1.6931    2.8085   -7.6202 C   0  0  0  0  0  0  0  0  0  0  0  0
    2.4543   -0.3479   -8.5185 C   0  0  0  0  0  0  0  0  0  0  0  0
    1.8965   -1.5165   -9.0358 C   0  0  0  0  0  0  0  0  0  0  0  0
    0.7272   -2.0370   -8.4832 C   0  0  0  0  0  0  0  0  0  0  0  0
    0.1178   -1.3948   -7.4047 C   0  0  0  0  0  0  0  0  0  0  0  0
   -1.3079    1.0143   -5.8371 C   0  0  0  0  0  0  0  0  0  0  0  0
   -1.7540    1.6834   -4.3262 S   0  0  0  0  0  0  0  0  0  0  0  0
   -0.3676    1.1526   -3.5576 C   0  0  0  0  0  0  0  0  0  0  0  0
    0.1542    1.2048   -2.2781 C   0  0  0  0  0  0  0  0  0  0  0  0
   -0.2079    1.8442   -1.1393 N   0  0  0  0  0  0  0  0  0  0  0  0
    0.8279    1.5684   -0.2847 C   0  0  0  0  0  0  0  0  0  0  0  0
    1.0026    1.9181    1.0788 C   0  0  0  0  0  0  0  0  0  0  0  0
    0.0550    2.0560    2.0630 N   0  0  0  0  0  0  0  0  0  0  0  0
    0.7829    2.1061    3.2109 C   0  0  0  0  0  0  0  0  0  0  0  0
    0.4613    1.7945    4.5316 C   0  0  0  0  0  0  0  0  0  0  0  0
   -0.9380    1.4059    5.3720 S   0  0  0  0  0  0  0  0  0  0  0  0
   -1.3695    1.6962    1.9926 C   0  0  0  0  0  0  0  0  0  0  0  0
   -2.2571    2.8663    2.4254 C   0  0  0  0  0  0  0  0  0  0  0  0
   -1.1100    3.0014   -1.0938 C   0  0  0  0  0  0  0  0  0  0  0  0
   -0.5200    4.1868   -1.8558 C   0  0  0  0  0  0  0  0  0  0  0  0
   -2.0491    1.2178   -7.0954 C   0  0  0  0  0  0  0  0  0  0  0  0
   -3.3907    1.1608   -7.2086 C   0  0  0  0  0  0  0  0  0  0  0  0
   -4.2987    0.4812   -6.2737 C   0  0  0  0  0  0  0  0  0  0  0  0
   -3.9860   -0.0641   -5.1822 O   0  0  0  0  0  0  0  0  0  0  0  0
   -5.5965    0.3688   -6.8995 C   0  0  0  0  0  0  0  0  0  0  0  0
   -6.7437   -0.2411   -6.3912 C   0  0  0  0  0  0  0  0  0  0  0  0
   -7.8897   -0.2851   -7.1969 C   0  0  0  0  0  0  0  0  0  0  0  0
   -9.0212   -0.8654   -6.7258 F   0  0  0  0  0  0  0  0  0  0  0  0
   -7.8603    0.2509   -8.4948 C   0  0  0  0  0  0  0  0  0  0  0  0
   -8.9672    0.1854   -9.2777 F   0  0  0  0  0  0  0  0  0  0  0  0
   -6.6927    0.8530   -8.9920 C   0  0  0  0  0  0  0  0  0  0  0  0
   -5.5566    0.9286   -8.1657 C   0  0  0  0  0  0  0  0  0  0  0  0
   -4.2079    1.5190   -8.4104 C   0  0  0  0  0  0  0  0  0  0  0  0
   -3.8664    2.4009   -9.3892 C   0  0  0  0  0  0  0  0  0  0  0  0
   -2.6196    3.1242   -9.3766 C   0  0  0  0  0  0  0  0  0  0  0  0
   -1.6229    3.7134   -9.3732 N   0  0  0  0  0  0  0  0  0  0  0  0
   -4.7658    2.7774  -10.4487 C   0  0  0  0  0  0  0  0  0  0  0  0
   -5.4760    3.0956  -11.3060 N   0  0  0  0  0  0  0  0  0  0  0  0
   -0.9005    0.9485    8.7534 H   0  0  0  0  0  0  0  0  0  0  0  0
   -1.8332   -4.2618    5.3586 H   0  0  0  0  0  0  0  0  0  0  0  0
   -3.5468   -4.0138   10.0202 H   0  0  0  0  0  0  0  0  0  0  0  0
    1.7989   -1.6025    7.1164 H   0  0  0  0  0  0  0  0  0  0  0  0
    3.4049   -2.5055    8.7457 H   0  0  0  0  0  0  0  0  0  0  0  0
    4.8176   -0.9744   10.0872 H   0  0  0  0  0  0  0  0  0  0  0  0
    4.6271    1.4602    9.7980 H   0  0  0  0  0  0  0  0  0  0  0  0
    3.9284    3.3398    8.4688 H   0  0  0  0  0  0  0  0  0  0  0  0
    2.8119    3.1579    7.0987 H   0  0  0  0  0  0  0  0  0  0  0  0
    2.0005    3.0670   10.0806 H   0  0  0  0  0  0  0  0  0  0  0  0
    0.8689    2.9639    8.6728 H   0  0  0  0  0  0  0  0  0  0  0  0
    1.8035    4.4738    8.9666 H   0  0  0  0  0  0  0  0  0  0  0  0
    3.5119    1.7029   -7.2639 H   0  0  0  0  0  0  0  0  0  0  0  0
    2.4007    1.7414   -5.8832 H   0  0  0  0  0  0  0  0  0  0  0  0
    2.1713    3.7619   -7.3150 H   0  0  0  0  0  0  0  0  0  0  0  0
    1.7249    2.7307   -8.7278 H   0  0  0  0  0  0  0  0  0  0  0  0
    0.6357    2.8231   -7.2849 H   0  0  0  0  0  0  0  0  0  0  0  0
    3.3465    0.0535   -8.9832 H   0  0  0  0  0  0  0  0  0  0  0  0
    2.3633   -2.0125   -9.8759 H   0  0  0  0  0  0  0  0  0  0  0  0
    0.2877   -2.9346   -8.8966 H   0  0  0  0  0  0  0  0  0  0  0  0
   -0.7957   -1.8060   -6.9919 H   0  0  0  0  0  0  0  0  0  0  0  0
   -1.6494    1.3723    0.9714 H   0  0  0  0  0  0  0  0  0  0  0  0
   -1.5683    0.8157    2.6395 H   0  0  0  0  0  0  0  0  0  0  0  0
   -3.2883    2.7140    2.0434 H   0  0  0  0  0  0  0  0  0  0  0  0
   -2.3071    2.9376    3.5282 H   0  0  0  0  0  0  0  0  0  0  0  0
   -1.8689    3.8312    2.0454 H   0  0  0  0  0  0  0  0  0  0  0  0
   -2.0980    2.7292   -1.5213 H   0  0  0  0  0  0  0  0  0  0  0  0
   -1.2637    3.3382   -0.0598 H   0  0  0  0  0  0  0  0  0  0  0  0
   -0.3725    3.9371   -2.9274 H   0  0  0  0  0  0  0  0  0  0  0  0
   -1.2104    5.0517   -1.7901 H   0  0  0  0  0  0  0  0  0  0  0  0
    0.4576    4.4766   -1.4164 H   0  0  0  0  0  0  0  0  0  0  0  0
   -1.4457    1.4044   -7.9687 H   0  0  0  0  0  0  0  0  0  0  0  0
   -6.7505   -0.6702   -5.3994 H   0  0  0  0  0  0  0  0  0  0  0  0
   -6.6997    1.2194  -10.0021 H   0  0  0  0  0  0  0  0  0  0  0  0
  1  2  2  3
  2  3  1  0
  3  4  2  0
  3  5  1  0
  5  6  2  0
  6  7  1  0
  7  8  1  0
  7  9  2  0
  9 10  1  0
  9 11  1  0
 11 12  2  0
 12 13  1  0
 13 14  2  3
 14 15  1  0
 15 16  3  0
 14 17  1  0
 17 18  3  0
  1 19  1  0
 19 20  2  0
 20 21  1  0
 21 22  2  0
 22 23  1  0
 23 24  2  0
 24 25  1  0
 25 26  2  0
 26 27  1  0
 27 28  1  0
 20 29  1  0
 29 30  1  0
 30 31  1  0
 31 32  1  0
 32 33  1  0
 33 34  1  0
 34 35  2  0
 35 36  1  0
 36 37  1  0
 34 38  1  0
 38 39  1  0
 39 40  1  0
 40 41  1  0
 41 42  1  0
 42 43  1  0
 43 44  2  0
 44 45  1  0
 45 46  1  0
 44 47  1  0
 47 48  2  0
 48 49  1  0
 49 50  2  0
 42 51  2  0
 51 52  1  0
 52 53  1  0
 53 54  1  0
 54 55  1  0
 55 56  1  0
 56 57  1  0
 57 58  1  0
 58 59  1  0
 59 60  1  0
 60 61  1  0
 58 62  1  0
 62 63  1  0
 55 64  1  0
 64 65  1  0
 51 66  1  0
 66 67  2  3
 67 68  1  0
 68 69  2  0
 68 70  1  0
 70 71  2  0
 71 72  1  0
 72 73  1  0
 72 74  2  0
 74 75  1  0
 74 76  1  0
 76 77  2  0
 77 78  1  0
 78 79  2  3
 79 80  1  0
 80 81  3  0
 79 82  1  0
 82 83  3  0
 13  2  1  0
 61 19  1  0
 78 67  1  0
 12  5  1  0
 26 21  1  0
 60 29  2  0
 77 70  1  0
 59 31  2  0
 57 32  2  0
 37 33  2  0
 56 38  2  0
 54 39  2  0
 53 41  2  0
 50 43  1  0
  1 84  1  0
  6 85  1  0
 11 86  1  0
 22 87  1  0
 23 88  1  0
 24 89  1  0
 25 90  1  0
 27 91  1  0
 27 92  1  0
 28 93  1  0
 28 94  1  0
 28 95  1  0
 45 96  1  0
 45 97  1  0
 46 98  1  0
 46 99  1  0
 46100  1  0
 47101  1  0
 48102  1  0
 49103  1  0
 50104  1  0
 62105  1  0
 62106  1  0
 63107  1  0
 63108  1  0
 63109  1  0
 64110  1  0
 64111  1  0
 65112  1  0
 65113  1  0
 65114  1  0
 66115  1  0
 71116  1  0
 76117  1  0
M  END

