
     RDKit          3D

108121  0  0  0  0  0  0  0  0999 V2000
   -1.7972    2.6492   -7.4757 C   0  0  0  0  0  0  0  0  0  0  0  0
   -2.4406    1.9953   -8.4616 C   0  0  0  0  0  0  0  0  0  0  0  0
   -2.1248    2.2142   -9.8730 C   0  0  0  0  0  0  0  0  0  0  0  0
   -1.5012    3.2003  -10.3499 O   0  0  0  0  0  0  0  0  0  0  0  0
   -2.5527    1.0494  -10.6190 C   0  0  0  0  0  0  0  0  0  0  0  0
   -2.3202    0.7479  -11.9596 C   0  0  0  0  0  0  0  0  0  0  0  0
   -2.7364   -0.4989  -12.4502 C   0  0  0  0  0  0  0  0  0  0  0  0
   -2.4444   -0.8831  -14.1409 Cl  0  0  0  0  0  0  0  0  0  0  0  0
   -3.3542   -1.4294  -11.5821 C   0  0  0  0  0  0  0  0  0  0  0  0
   -3.8972   -3.1594  -12.2005 Br  0  0  0  0  0  0  0  0  0  0  0  0
   -3.5680   -1.1027  -10.2310 C   0  0  0  0  0  0  0  0  0  0  0  0
   -3.1799    0.1611   -9.7637 C   0  0  0  0  0  0  0  0  0  0  0  0
   -3.2843    0.7640   -8.4069 C   0  0  0  0  0  0  0  0  0  0  0  0
   -4.2484    0.4937   -7.4916 C   0  0  0  0  0  0  0  0  0  0  0  0
   -5.1098   -0.6537   -7.5919 C   0  0  0  0  0  0  0  0  0  0  0  0
   -5.8089   -1.5752   -7.6557 N   0  0  0  0  0  0  0  0  0  0  0  0
   -4.5669    1.4084   -6.4243 C   0  0  0  0  0  0  0  0  0  0  0  0
   -4.8344    2.1325   -5.5628 N   0  0  0  0  0  0  0  0  0  0  0  0
   -1.6299    2.1700   -6.0844 C   0  0  0  0  0  0  0  0  0  0  0  0
   -1.5971    0.8235   -5.6952 C   0  0  0  0  0  0  0  0  0  0  0  0
   -1.4187    0.8767   -4.3332 C   0  0  0  0  0  0  0  0  0  0  0  0
   -1.3630    2.1566   -3.9524 C   0  0  0  0  0  0  0  0  0  0  0  0
   -1.4782    2.9974   -5.0048 N   0  0  0  0  0  0  0  0  0  0  0  0
   -1.5722    4.4600   -5.0040 C   0  0  0  0  0  0  0  0  0  0  0  0
   -3.0251    4.9090   -4.8863 C   0  0  0  0  0  0  0  0  0  0  0  0
   -1.6502    2.1959   -2.5992 C   0  0  0  0  0  0  0  0  0  0  0  0
   -1.9178    3.2346   -1.6871 C   0  0  0  0  0  0  0  0  0  0  0  0
   -2.3231    2.8985   -0.3594 C   0  0  0  0  0  0  0  0  0  0  0  0
   -2.5393    3.9252    0.5012 N   0  0  0  0  0  0  0  0  0  0  0  0
   -2.2092    5.2038   -0.4943 S   0  0  0  0  0  0  0  0  0  0  0  0
   -1.7953    4.5554   -1.9580 N   0  0  0  0  0  0  0  0  0  0  0  0
   -2.4297    1.5522   -0.0027 C   0  0  0  0  0  0  0  0  0  0  0  0
   -2.5241    0.9774    1.2327 C   0  0  0  0  0  0  0  0  0  0  0  0
   -2.3309    1.5320    2.8263 S   0  0  0  0  0  0  0  0  0  0  0  0
   -1.8819   -0.0241    3.3487 C   0  0  0  0  0  0  0  0  0  0  0  0
   -1.3953   -0.5160    4.5621 C   0  0  0  0  0  0  0  0  0  0  0  0
   -1.2457    0.3179    5.8051 C   0  0  0  0  0  0  0  0  0  0  0  0
    0.1198    0.9971    5.8410 C   0  0  0  0  0  0  0  0  0  0  0  0
   -0.9446   -1.8430    4.4222 C   0  0  0  0  0  0  0  0  0  0  0  0
   -1.1894   -2.3620    2.8191 S   0  0  0  0  0  0  0  0  0  0  0  0
   -1.8408   -0.9092    2.3022 C   0  0  0  0  0  0  0  0  0  0  0  0
   -2.2075   -0.3379    1.0873 C   0  0  0  0  0  0  0  0  0  0  0  0
   -1.9265   -0.6657   -0.2019 N   0  0  0  0  0  0  0  0  0  0  0  0
   -2.1182    0.5113   -0.8882 C   0  0  0  0  0  0  0  0  0  0  0  0
   -1.7985    0.8387   -2.2347 C   0  0  0  0  0  0  0  0  0  0  0  0
   -1.7351    0.0210   -3.3350 N   0  0  0  0  0  0  0  0  0  0  0  0
   -2.5045   -1.2101   -3.5536 C   0  0  0  0  0  0  0  0  0  0  0  0
   -1.6476   -2.3087   -4.1853 C   0  0  0  0  0  0  0  0  0  0  0  0
   -1.0827   -1.7999   -0.5984 C   0  0  0  0  0  0  0  0  0  0  0  0
   -1.8633   -3.1176   -0.5841 C   0  0  0  0  0  0  0  0  0  0  0  0
   -0.4035   -2.6630    5.5211 C   0  0  0  0  0  0  0  0  0  0  0  0
    0.9155   -2.7957    5.7470 C   0  0  0  0  0  0  0  0  0  0  0  0
    1.4636   -2.7639    7.1043 C   0  0  0  0  0  0  0  0  0  0  0  0
    0.8605   -3.1114    8.1551 O   0  0  0  0  0  0  0  0  0  0  0  0
    2.7727   -2.1435    7.0532 C   0  0  0  0  0  0  0  0  0  0  0  0
    3.5913   -1.7668    8.1428 C   0  0  0  0  0  0  0  0  0  0  0  0
    4.7419   -1.0941    7.7707 C   0  0  0  0  0  0  0  0  0  0  0  0
    5.0657   -0.7903    6.4087 C   0  0  0  0  0  0  0  0  0  0  0  0
    4.2638   -1.1476    5.3378 C   0  0  0  0  0  0  0  0  0  0  0  0
    3.0922   -1.8649    5.6996 C   0  0  0  0  0  0  0  0  0  0  0  0
    2.0255   -2.4200    4.8304 C   0  0  0  0  0  0  0  0  0  0  0  0
    2.2356   -2.9765    3.6145 C   0  0  0  0  0  0  0  0  0  0  0  0
    1.4188   -4.0670    3.1464 C   0  0  0  0  0  0  0  0  0  0  0  0
    0.7753   -4.9534    2.7709 N   0  0  0  0  0  0  0  0  0  0  0  0
    3.4129   -2.7016    2.8322 C   0  0  0  0  0  0  0  0  0  0  0  0
    4.3571   -2.4919    2.1966 N   0  0  0  0  0  0  0  0  0  0  0  0
    6.3154   -0.0846    6.8445 C   0  0  0  0  0  0  0  0  0  0  0  0
    6.3214    1.4738    6.8081 C   0  0  0  0  0  0  0  0  0  0  0  0
    4.9261    2.0028    7.0479 C   0  0  0  0  0  0  0  0  0  0  0  0
    4.6250    1.7210    8.3157 C   0  0  0  0  0  0  0  0  0  0  0  0
    5.8257    1.0098    8.8969 C   0  0  0  0  0  0  0  0  0  0  0  0
    6.9240    1.7631    8.1701 C   0  0  0  0  0  0  0  0  0  0  0  0
    5.9839   -0.3949    8.2391 C   0  0  0  0  0  0  0  0  0  0  0  0
   -1.2312    3.5302   -7.7478 H   0  0  0  0  0  0  0  0  0  0  0  0
   -1.8144    1.4562  -12.6038 H   0  0  0  0  0  0  0  0  0  0  0  0
   -3.9905   -1.8446   -9.5730 H   0  0  0  0  0  0  0  0  0  0  0  0
   -1.7549   -0.0505   -6.3087 H   0  0  0  0  0  0  0  0  0  0  0  0
   -0.9514    4.8830   -4.1925 H   0  0  0  0  0  0  0  0  0  0  0  0
   -1.1428    4.8748   -5.9387 H   0  0  0  0  0  0  0  0  0  0  0  0
   -3.5161    4.4277   -4.0155 H   0  0  0  0  0  0  0  0  0  0  0  0
   -3.5801    4.6357   -5.8078 H   0  0  0  0  0  0  0  0  0  0  0  0
   -3.0651    6.0118   -4.7610 H   0  0  0  0  0  0  0  0  0  0  0  0
   -1.3658   -0.3169    6.7092 H   0  0  0  0  0  0  0  0  0  0  0  0
   -2.0412    1.0939    5.8339 H   0  0  0  0  0  0  0  0  0  0  0  0
    0.2587    1.6355    4.9416 H   0  0  0  0  0  0  0  0  0  0  0  0
    0.1929    1.6355    6.7466 H   0  0  0  0  0  0  0  0  0  0  0  0
    0.9290    0.2382    5.8780 H   0  0  0  0  0  0  0  0  0  0  0  0
   -3.3663   -0.9966   -4.2245 H   0  0  0  0  0  0  0  0  0  0  0  0
   -2.9463   -1.5631   -2.6086 H   0  0  0  0  0  0  0  0  0  0  0  0
   -2.1827   -3.2804   -4.1199 H   0  0  0  0  0  0  0  0  0  0  0  0
   -0.6701   -2.4073   -3.6722 H   0  0  0  0  0  0  0  0  0  0  0  0
   -1.4584   -2.0890   -5.2553 H   0  0  0  0  0  0  0  0  0  0  0  0
   -0.6439   -1.6237   -1.5941 H   0  0  0  0  0  0  0  0  0  0  0  0
   -0.2126   -1.8815    0.0893 H   0  0  0  0  0  0  0  0  0  0  0  0
   -1.3538   -3.8586   -1.2359 H   0  0  0  0  0  0  0  0  0  0  0  0
   -1.9090   -3.5379    0.4376 H   0  0  0  0  0  0  0  0  0  0  0  0
   -2.9045   -2.9838   -0.9365 H   0  0  0  0  0  0  0  0  0  0  0  0
   -1.0764   -2.8205    6.3549 H   0  0  0  0  0  0  0  0  0  0  0  0
    3.3340   -1.9591    9.1753 H   0  0  0  0  0  0  0  0  0  0  0  0
    4.5103   -0.8578    4.3284 H   0  0  0  0  0  0  0  0  0  0  0  0
    7.2536   -0.5678    6.4897 H   0  0  0  0  0  0  0  0  0  0  0  0
    6.8544    1.9247    5.9455 H   0  0  0  0  0  0  0  0  0  0  0  0
    4.3101    2.5699    6.3591 H   0  0  0  0  0  0  0  0  0  0  0  0
    3.7215    2.0191    8.8362 H   0  0  0  0  0  0  0  0  0  0  0  0
    5.8896    1.0238   10.0054 H   0  0  0  0  0  0  0  0  0  0  0  0
    7.9376    1.3189    8.3131 H   0  0  0  0  0  0  0  0  0  0  0  0
    6.9562    2.8504    8.4200 H   0  0  0  0  0  0  0  0  0  0  0  0
    6.7195   -1.0662    8.7344 H   0  0  0  0  0  0  0  0  0  0  0  0
  1  2  2  3
  2  3  1  0
  3  4  2  0
  3  5  1  0
  5  6  2  0
  6  7  1  0
  7  8  1  0
  7  9  2  0
  9 10  1  0
  9 11  1  0
 11 12  2  0
 12 13  1  0
 13 14  2  3
 14 15  1  0
 15 16  3  0
 14 17  1  0
 17 18  3  0
  1 19  1  0
 19 20  2  0
 20 21  1  0
 21 22  2  0
 22 23  1  0
 23 24  1  0
 24 25  1  0
 22 26  1  0
 26 27  1  0
 27 28  1  0
 28 29  2  0
 29 30  1  0
 30 31  1  0
 28 32  1  0
 32 33  1  0
 33 34  1  0
 34 35  1  0
 35 36  1  0
 36 37  1  0
 37 38  1  0
 36 39  2  0
 39 40  1  0
 40 41  1  0
 41 42  1  0
 42 43  1  0
 43 44  1  0
 44 45  1  0
 45 46  1  0
 46 47  1  0
 47 48  1  0
 43 49  1  0
 49 50  1  0
 39 51  1  0
 51 52  2  3
 52 53  1  0
 53 54  2  0
 53 55  1  0
 55 56  2  0
 56 57  1  0
 57 58  2  0
 58 59  1  0
 59 60  2  0
 60 61  1  0
 61 62  2  3
 62 63  1  0
 63 64  3  0
 62 65  1  0
 65 66  3  0
 58 67  1  0
 67 68  1  0
 68 69  1  0
 69 70  2  0
 70 71  1  0
 71 72  1  0
 71 73  1  0
 13  2  1  0
 23 19  1  0
 45 26  2  0
 61 52  1  0
 73 67  1  0
 12  5  1  0
 46 21  1  0
 60 55  1  0
 72 68  1  0
 31 27  2  0
 44 32  2  0
 73 57  1  0
 42 33  2  0
 41 35  2  0
  1 74  1  0
  6 75  1  0
 11 76  1  0
 20 77  1  0
 24 78  1  0
 24 79  1  0
 25 80  1  0
 25 81  1  0
 25 82  1  0
 37 83  1  0
 37 84  1  0
 38 85  1  0
 38 86  1  0
 38 87  1  0
 47 88  1  0
 47 89  1  0
 48 90  1  0
 48 91  1  0
 48 92  1  0
 49 93  1  0
 49 94  1  0
 50 95  1  0
 50 96  1  0
 50 97  1  0
 51 98  1  0
 56 99  1  0
 59100  1  0
 67101  1  0
 68102  1  0
 69103  1  0
 70104  1  0
 71105  1  0
 72106  1  0
 72107  1  0
 73108  1  0
M  END

