
     RDKit          3D

 91103  0  0  0  0  0  0  0  0999 V2000
    3.2600    3.8005   -6.0123 C   0  0  0  0  0  0  0  0  0  0  0  0
    3.4698    2.6003   -6.7172 C   0  0  0  0  0  0  0  0  0  0  0  0
    4.7567    2.3319   -7.2345 C   0  0  0  0  0  0  0  0  0  0  0  0
    5.8213    2.9911   -7.2316 O   0  0  0  0  0  0  0  0  0  0  0  0
    4.6401    1.0265   -7.8533 C   0  0  0  0  0  0  0  0  0  0  0  0
    5.6166    0.2112   -8.3911 C   0  0  0  0  0  0  0  0  0  0  0  0
    5.3500   -1.0850   -8.7869 C   0  0  0  0  0  0  0  0  0  0  0  0
    6.6320   -2.1267   -9.4584 Cl  0  0  0  0  0  0  0  0  0  0  0  0
    4.1022   -1.5279   -8.6329 C   0  0  0  0  0  0  0  0  0  0  0  0
    3.6617   -3.3159   -9.1561 Br  0  0  0  0  0  0  0  0  0  0  0  0
    3.0894   -0.6676   -8.0723 C   0  0  0  0  0  0  0  0  0  0  0  0
    3.3768    0.5722   -7.7059 C   0  0  0  0  0  0  0  0  0  0  0  0
    2.4612    1.7039   -6.8777 C   0  0  0  0  0  0  0  0  0  0  0  0
    1.4082    1.0161   -6.5224 C   0  0  0  0  0  0  0  0  0  0  0  0
    0.7473    0.1223   -7.4199 C   0  0  0  0  0  0  0  0  0  0  0  0
    0.2202   -0.6047   -8.1692 N   0  0  0  0  0  0  0  0  0  0  0  0
    0.9253    1.0751   -5.1800 C   0  0  0  0  0  0  0  0  0  0  0  0
    0.5075    1.1263   -4.0526 N   0  0  0  0  0  0  0  0  0  0  0  0
    2.0123    4.1337   -5.4704 C   0  0  0  0  0  0  0  0  0  0  0  0
    0.7124    4.3319   -5.4738 C   0  0  0  0  0  0  0  0  0  0  0  0
   -0.1025    4.6106   -4.3999 C   0  0  0  0  0  0  0  0  0  0  0  0
   -1.8955    4.6747   -4.1294 S   0  0  0  0  0  0  0  0  0  0  0  0
   -1.8649    4.8246   -2.3963 C   0  0  0  0  0  0  0  0  0  0  0  0
   -2.5545    4.7272   -1.1801 C   0  0  0  0  0  0  0  0  0  0  0  0
   -3.8730    4.5051   -0.8722 C   0  0  0  0  0  0  0  0  0  0  0  0
   -4.1727    4.1202    0.4260 C   0  0  0  0  0  0  0  0  0  0  0  0
   -5.4851    3.9485    0.6488 N   0  0  0  0  0  0  0  0  0  0  0  0
   -6.2313    4.3182   -0.8354 S   0  0  0  0  0  0  0  0  0  0  0  0
   -4.8956    4.6578   -1.7026 N   0  0  0  0  0  0  0  0  0  0  0  0
   -3.1516    3.9511    1.3938 C   0  0  0  0  0  0  0  0  0  0  0  0
   -3.1369    3.0879    2.4908 C   0  0  0  0  0  0  0  0  0  0  0  0
   -1.8730    2.8187    2.8613 C   0  0  0  0  0  0  0  0  0  0  0  0
   -1.0260    3.5391    1.9920 N   0  0  0  0  0  0  0  0  0  0  0  0
    0.3855    3.3383    2.0652 C   0  0  0  0  0  0  0  0  0  0  0  0
    0.7917    2.2318    1.0952 C   0  0  0  0  0  0  0  0  0  0  0  0
   -1.8377    4.2091    1.1134 C   0  0  0  0  0  0  0  0  0  0  0  0
   -1.5476    4.6428   -0.2164 C   0  0  0  0  0  0  0  0  0  0  0  0
   -0.3888    4.7500   -0.7987 N   0  0  0  0  0  0  0  0  0  0  0  0
   -0.5303    4.8419   -2.1739 C   0  0  0  0  0  0  0  0  0  0  0  0
    0.2224    4.7337   -3.2132 C   0  0  0  0  0  0  0  0  0  0  0  0
    2.2548    4.4233   -3.4401 Se  0  0  0  0  0  2  0  0  0  0  0  0
    0.8163    5.2951   -0.1616 C   0  0  0  0  0  0  0  0  0  0  0  0
    0.8973    6.8061   -0.7232 C   0  0  0  0  0  0  0  0  0  0  0  0
   -1.7061    1.8241    3.7753 C   0  0  0  0  0  0  0  0  0  0  0  0
   -2.8502    1.1675    4.2720 C   0  0  0  0  0  0  0  0  0  0  0  0
   -4.0849    2.0036    3.4388 S   0  0  0  0  0  0  0  0  0  0  0  0
   -2.2536    0.2246    4.9940 C   0  0  0  0  0  0  0  0  0  0  0  0
   -1.7018   -0.5338    5.5751 C   0  0  0  0  0  0  0  0  0  0  0  0
   -0.1786    0.8380    4.5465 Se  0  0  0  0  0  2  0  0  0  0  0  0
   -0.7236   -1.4121    6.3009 C   0  0  0  0  0  0  0  0  0  0  0  0
   -0.4267   -2.5610    5.6563 C   0  0  0  0  0  0  0  0  0  0  0  0
   -0.9863   -2.9546    4.3850 C   0  0  0  0  0  0  0  0  0  0  0  0
   -1.8726   -2.3666    3.6505 O   0  0  0  0  0  0  0  0  0  0  0  0
   -0.3895   -4.2360    3.9590 C   0  0  0  0  0  0  0  0  0  0  0  0
   -0.5494   -4.9922    2.8578 C   0  0  0  0  0  0  0  0  0  0  0  0
    0.1510   -6.1499    2.6328 C   0  0  0  0  0  0  0  0  0  0  0  0
    0.0289   -6.9377    1.5050 C   0  0  0  0  0  0  0  0  0  0  0  0
    0.7565   -8.0736    1.3334 C   0  0  0  0  0  0  0  0  0  0  0  0
    1.6424   -8.4795    2.2691 C   0  0  0  0  0  0  0  0  0  0  0  0
    2.3667   -9.6144    2.0756 F   0  0  0  0  0  0  0  0  0  0  0  0
    1.7839   -7.7016    3.4163 C   0  0  0  0  0  0  0  0  0  0  0  0
    1.0478   -6.5341    3.6018 C   0  0  0  0  0  0  0  0  0  0  0  0
    1.1971   -5.7406    4.7431 C   0  0  0  0  0  0  0  0  0  0  0  0
    0.5173   -4.5701    4.9953 C   0  0  0  0  0  0  0  0  0  0  0  0
    0.5376   -3.5675    6.0570 C   0  0  0  0  0  0  0  0  0  0  0  0
    1.3576   -3.4705    7.0816 C   0  0  0  0  0  0  0  0  0  0  0  0
    1.4615   -2.4105    7.8930 C   0  0  0  0  0  0  0  0  0  0  0  0
    1.5557   -1.4174    8.6781 N   0  0  0  0  0  0  0  0  0  0  0  0
    2.1717   -4.6592    7.4485 C   0  0  0  0  0  0  0  0  0  0  0  0
    2.8214   -5.6242    7.7400 N   0  0  0  0  0  0  0  0  0  0  0  0
    4.1377    4.4150   -5.9611 H   0  0  0  0  0  0  0  0  0  0  0  0
    6.5871    0.5617   -8.4747 H   0  0  0  0  0  0  0  0  0  0  0  0
    2.1871   -1.2445   -7.9730 H   0  0  0  0  0  0  0  0  0  0  0  0
    0.2534    4.2544   -6.5252 H   0  0  0  0  0  0  0  0  0  0  0  0
    0.6478    2.8734    3.0966 H   0  0  0  0  0  0  0  0  0  0  0  0
    1.1294    4.1074    2.0175 H   0  0  0  0  0  0  0  0  0  0  0  0
    0.7783    2.5189    0.0565 H   0  0  0  0  0  0  0  0  0  0  0  0
    1.8167    1.8788    1.3456 H   0  0  0  0  0  0  0  0  0  0  0  0
    0.0452    1.3865    1.2238 H   0  0  0  0  0  0  0  0  0  0  0  0
    0.8100    5.4291    0.8894 H   0  0  0  0  0  0  0  0  0  0  0  0
    1.6775    4.9258   -0.6042 H   0  0  0  0  0  0  0  0  0  0  0  0
   -0.1399    7.1127   -0.9020 H   0  0  0  0  0  0  0  0  0  0  0  0
    1.3925    6.8069   -1.6835 H   0  0  0  0  0  0  0  0  0  0  0  0
    1.4381    7.4248    0.0407 H   0  0  0  0  0  0  0  0  0  0  0  0
   -3.5400   -0.3040    5.4482 H   0  0  0  0  0  0  0  0  0  0  0  0
   -0.4129   -1.0664    7.1997 H   0  0  0  0  0  0  0  0  0  0  0  0
   -1.2701   -4.6749    2.0922 H   0  0  0  0  0  0  0  0  0  0  0  0
   -0.6970   -6.5856    0.7825 H   0  0  0  0  0  0  0  0  0  0  0  0
    0.6620   -8.6843    0.4238 H   0  0  0  0  0  0  0  0  0  0  0  0
    2.4852   -7.9848    4.2072 H   0  0  0  0  0  0  0  0  0  0  0  0
    1.9388   -6.0871    5.4805 H   0  0  0  0  0  0  0  0  0  0  0  0
  1  2  2  3
  2  3  1  0
  3  4  2  0
  3  5  1  0
  5  6  2  0
  6  7  1  0
  7  8  1  0
  7  9  2  0
  9 10  1  0
  9 11  1  0
 11 12  2  0
 12 13  1  0
 13 14  2  3
 14 15  1  0
 15 16  3  0
 14 17  1  0
 17 18  3  0
  1 19  1  0
 19 20  2  0
 20 21  1  0
 21 22  1  0
 22 23  1  0
 23 24  1  0
 24 25  1  0
 25 26  1  0
 26 27  2  0
 27 28  1  0
 28 29  1  0
 26 30  1  0
 30 31  1  0
 31 32  2  0
 32 33  1  0
 33 34  1  0
 34 35  1  0
 33 36  1  0
 36 37  1  0
 37 38  1  0
 38 39  1  0
 39 40  1  0
 40 41  1  0
 38 42  1  0
 42 43  1  0
 32 44  1  0
 44 45  2  0
 45 46  1  0
 45 47  1  0
 47 48  2  0
 48 49  1  0
 48 50  1  0
 50 51  2  3
 51 52  1  0
 52 53  2  0
 52 54  1  0
 54 55  2  0
 55 56  1  0
 56 57  2  0
 57 58  1  0
 58 59  2  0
 59 60  1  0
 59 61  1  0
 61 62  2  0
 62 63  1  0
 63 64  2  0
 64 65  1  0
 65 66  2  3
 66 67  1  0
 67 68  3  0
 66 69  1  0
 69 70  3  0
 13  2  1  0
 41 19  1  0
 49 44  1  0
 65 51  1  0
 12  5  1  0
 40 21  2  0
 64 54  1  0
 39 23  2  0
 62 56  1  0
 37 24  2  0
 29 25  2  0
 36 30  2  0
 46 31  1  0
  1 71  1  0
  6 72  1  0
 11 73  1  0
 20 74  1  0
 34 75  1  0
 34 76  1  0
 35 77  1  0
 35 78  1  0
 35 79  1  0
 42 80  1  0
 42 81  1  0
 43 82  1  0
 43 83  1  0
 43 84  1  0
 47 85  1  0
 50 86  1  0
 55 87  1  0
 57 88  1  0
 58 89  1  0
 61 90  1  0
 63 91  1  0
M  END

