
     RDKit          3D

115125  0  0  0  0  0  0  0  0999 V2000
    4.7358    5.8473    4.2858 C   0  0  0  0  0  0  0  0  0  0  0  0
    4.0452    6.9341    3.8969 C   0  0  0  0  0  0  0  0  0  0  0  0
    4.0221    8.1802    4.6606 C   0  0  0  0  0  0  0  0  0  0  0  0
    4.8584    8.5264    5.5386 O   0  0  0  0  0  0  0  0  0  0  0  0
    2.8026    8.8921    4.3220 C   0  0  0  0  0  0  0  0  0  0  0  0
    2.2859   10.0472    4.9032 C   0  0  0  0  0  0  0  0  0  0  0  0
    1.0299   10.5075    4.4820 C   0  0  0  0  0  0  0  0  0  0  0  0
    0.3701   11.9542    5.2263 Cl  0  0  0  0  0  0  0  0  0  0  0  0
    0.3076    9.7920    3.4981 C   0  0  0  0  0  0  0  0  0  0  0  0
   -1.4293   10.3605    2.9282 Br  0  0  0  0  0  0  0  0  0  0  0  0
    0.8490    8.6268    2.9319 C   0  0  0  0  0  0  0  0  0  0  0  0
    2.1171    8.1933    3.3435 C   0  0  0  0  0  0  0  0  0  0  0  0
    2.9189    7.0152    2.9209 C   0  0  0  0  0  0  0  0  0  0  0  0
    2.8868    6.4237    1.7007 C   0  0  0  0  0  0  0  0  0  0  0  0
    4.0256    5.7059    1.1859 C   0  0  0  0  0  0  0  0  0  0  0  0
    4.9430    5.1412    0.7637 N   0  0  0  0  0  0  0  0  0  0  0  0
    1.7883    6.5828    0.7853 C   0  0  0  0  0  0  0  0  0  0  0  0
    0.9039    6.6892    0.0443 N   0  0  0  0  0  0  0  0  0  0  0  0
    4.3312    4.4728    3.9517 C   0  0  0  0  0  0  0  0  0  0  0  0
    2.7237    3.9084    3.9624 S   0  0  0  0  0  0  0  0  0  0  0  0
    3.1624    2.3884    3.4160 C   0  0  0  0  0  0  0  0  0  0  0  0
    2.4588    1.3298    2.7524 C   0  0  0  0  0  0  0  0  0  0  0  0
    3.4094    0.5712    2.0710 C   0  0  0  0  0  0  0  0  0  0  0  0
    4.8274    1.0994    2.2997 C   0  0  0  0  0  0  0  0  0  0  0  0
    4.4966    2.3112    3.1580 C   0  0  0  0  0  0  0  0  0  0  0  0
    5.1991    3.4707    3.5033 C   0  0  0  0  0  0  0  0  0  0  0  0
    5.4363    1.5085    0.9257 C   0  0  0  0  0  0  0  0  0  0  0  0
    6.9419    1.7869    0.9264 C   0  0  0  0  0  0  0  0  0  0  0  0
    5.6965    0.0654    3.0661 C   0  0  0  0  0  0  0  0  0  0  0  0
    5.0660   -0.4519    4.3635 C   0  0  0  0  0  0  0  0  0  0  0  0
    2.9974   -0.4406    1.1913 C   0  0  0  0  0  0  0  0  0  0  0  0
    1.6170   -0.6435    1.0449 C   0  0  0  0  0  0  0  0  0  0  0  0
    0.9267   -1.4518    0.0736 C   0  0  0  0  0  0  0  0  0  0  0  0
   -0.4461   -1.2936    0.2513 C   0  0  0  0  0  0  0  0  0  0  0  0
   -0.7531   -0.2935    1.3589 C   0  0  0  0  0  0  0  0  0  0  0  0
   -1.5189   -1.0255    2.4971 C   0  0  0  0  0  0  0  0  0  0  0  0
   -1.9318   -0.1460    3.6799 C   0  0  0  0  0  0  0  0  0  0  0  0
   -1.4496    0.9918    0.8131 C   0  0  0  0  0  0  0  0  0  0  0  0
   -2.8491    0.7987    0.2220 C   0  0  0  0  0  0  0  0  0  0  0  0
    0.6697    0.0669    1.7803 C   0  0  0  0  0  0  0  0  0  0  0  0
    1.0826    1.1107    2.6309 C   0  0  0  0  0  0  0  0  0  0  0  0
   -1.3509   -1.9919   -0.5673 C   0  0  0  0  0  0  0  0  0  0  0  0
   -0.8111   -2.7364   -1.6191 C   0  0  0  0  0  0  0  0  0  0  0  0
   -1.4730   -3.3541   -2.7300 C   0  0  0  0  0  0  0  0  0  0  0  0
   -0.5679   -3.7644   -3.6484 C   0  0  0  0  0  0  0  0  0  0  0  0
    0.8571   -3.4809   -3.2118 C   0  0  0  0  0  0  0  0  0  0  0  0
    0.5606   -2.8046   -1.8707 C   0  0  0  0  0  0  0  0  0  0  0  0
    1.4623   -2.1626   -1.0084 C   0  0  0  0  0  0  0  0  0  0  0  0
    1.6084   -4.8325   -3.0286 C   0  0  0  0  0  0  0  0  0  0  0  0
    3.0795   -4.7236   -2.6201 C   0  0  0  0  0  0  0  0  0  0  0  0
    1.5483   -2.4674   -4.1673 C   0  0  0  0  0  0  0  0  0  0  0  0
    1.7482   -2.9742   -5.5976 C   0  0  0  0  0  0  0  0  0  0  0  0
   -1.1000   -4.6222   -4.6141 C   0  0  0  0  0  0  0  0  0  0  0  0
   -2.4660   -4.8733   -4.4113 C   0  0  0  0  0  0  0  0  0  0  0  0
   -2.9540   -4.0871   -2.9779 S   0  0  0  0  0  0  0  0  0  0  0  0
   -3.2031   -5.8893   -5.2014 C   0  0  0  0  0  0  0  0  0  0  0  0
   -4.5157   -6.2007   -5.1456 C   0  0  0  0  0  0  0  0  0  0  0  0
   -5.5494   -5.6356   -4.2666 C   0  0  0  0  0  0  0  0  0  0  0  0
   -5.6338   -4.4412   -3.8787 O   0  0  0  0  0  0  0  0  0  0  0  0
   -6.5823   -6.6382   -4.0819 C   0  0  0  0  0  0  0  0  0  0  0  0
   -7.6667   -6.6263   -3.1972 C   0  0  0  0  0  0  0  0  0  0  0  0
   -7.9172   -5.5504   -2.4127 F   0  0  0  0  0  0  0  0  0  0  0  0
   -8.4812   -7.7670   -3.1242 C   0  0  0  0  0  0  0  0  0  0  0  0
   -8.1944   -8.8939   -3.9135 C   0  0  0  0  0  0  0  0  0  0  0  0
   -7.1029   -8.8846   -4.8004 C   0  0  0  0  0  0  0  0  0  0  0  0
   -6.3165   -7.7252   -4.8952 C   0  0  0  0  0  0  0  0  0  0  0  0
   -5.1152   -7.4412   -5.7209 C   0  0  0  0  0  0  0  0  0  0  0  0
   -4.8066   -8.0085   -6.9149 C   0  0  0  0  0  0  0  0  0  0  0  0
   -3.8287   -7.4273   -7.8029 C   0  0  0  0  0  0  0  0  0  0  0  0
   -3.0519   -6.9553   -8.5200 N   0  0  0  0  0  0  0  0  0  0  0  0
   -5.5622   -9.1077   -7.4639 C   0  0  0  0  0  0  0  0  0  0  0  0
   -6.1669   -9.9861   -7.9207 N   0  0  0  0  0  0  0  0  0  0  0  0
    5.5401    5.9605    4.9995 H   0  0  0  0  0  0  0  0  0  0  0  0
    2.8362   10.5661    5.6785 H   0  0  0  0  0  0  0  0  0  0  0  0
    0.2650    8.0708    2.2144 H   0  0  0  0  0  0  0  0  0  0  0  0
    6.2546    3.6243    3.3533 H   0  0  0  0  0  0  0  0  0  0  0  0
    4.9063    2.4063    0.5387 H   0  0  0  0  0  0  0  0  0  0  0  0
    5.2695    0.7003    0.1824 H   0  0  0  0  0  0  0  0  0  0  0  0
    7.2262    2.5214    1.6996 H   0  0  0  0  0  0  0  0  0  0  0  0
    7.2425    2.1929   -0.0634 H   0  0  0  0  0  0  0  0  0  0  0  0
    7.5087    0.8439    1.0946 H   0  0  0  0  0  0  0  0  0  0  0  0
    6.6741    0.5217    3.3277 H   0  0  0  0  0  0  0  0  0  0  0  0
    5.8961   -0.8045    2.4039 H   0  0  0  0  0  0  0  0  0  0  0  0
    4.1160   -0.9857    4.1548 H   0  0  0  0  0  0  0  0  0  0  0  0
    4.8736    0.3854    5.0684 H   0  0  0  0  0  0  0  0  0  0  0  0
    5.7596   -1.1669    4.8557 H   0  0  0  0  0  0  0  0  0  0  0  0
    3.7114   -1.0061    0.6092 H   0  0  0  0  0  0  0  0  0  0  0  0
   -2.4355   -1.5028    2.0905 H   0  0  0  0  0  0  0  0  0  0  0  0
   -0.8860   -1.8537    2.8912 H   0  0  0  0  0  0  0  0  0  0  0  0
   -2.4583   -0.7763    4.4309 H   0  0  0  0  0  0  0  0  0  0  0  0
   -2.6348    0.6506    3.3597 H   0  0  0  0  0  0  0  0  0  0  0  0
   -1.0515    0.3015    4.1777 H   0  0  0  0  0  0  0  0  0  0  0  0
   -0.8081    1.4454    0.0248 H   0  0  0  0  0  0  0  0  0  0  0  0
   -1.5229    1.7465    1.6243 H   0  0  0  0  0  0  0  0  0  0  0  0
   -3.4904    0.1813    0.8773 H   0  0  0  0  0  0  0  0  0  0  0  0
   -3.3335    1.7926    0.1056 H   0  0  0  0  0  0  0  0  0  0  0  0
   -2.7887    0.3472   -0.7889 H   0  0  0  0  0  0  0  0  0  0  0  0
    0.3764    1.7655    3.1240 H   0  0  0  0  0  0  0  0  0  0  0  0
   -2.4229   -1.9191   -0.4335 H   0  0  0  0  0  0  0  0  0  0  0  0
    2.5241   -2.1490   -1.2108 H   0  0  0  0  0  0  0  0  0  0  0  0
    1.5644   -5.4146   -3.9749 H   0  0  0  0  0  0  0  0  0  0  0  0
    1.0812   -5.4432   -2.2621 H   0  0  0  0  0  0  0  0  0  0  0  0
    3.1813   -4.2673   -1.6173 H   0  0  0  0  0  0  0  0  0  0  0  0
    3.6615   -4.1486   -3.3676 H   0  0  0  0  0  0  0  0  0  0  0  0
    3.5177   -5.7444   -2.5650 H   0  0  0  0  0  0  0  0  0  0  0  0
    2.5369   -2.1729   -3.7532 H   0  0  0  0  0  0  0  0  0  0  0  0
    0.9395   -1.5365   -4.2161 H   0  0  0  0  0  0  0  0  0  0  0  0
    2.3328   -2.2240   -6.1708 H   0  0  0  0  0  0  0  0  0  0  0  0
    0.7692   -3.1051   -6.0977 H   0  0  0  0  0  0  0  0  0  0  0  0
    2.3104   -3.9280   -5.6087 H   0  0  0  0  0  0  0  0  0  0  0  0
   -0.5020   -5.1045   -5.3748 H   0  0  0  0  0  0  0  0  0  0  0  0
   -2.5661   -6.5103   -5.8095 H   0  0  0  0  0  0  0  0  0  0  0  0
   -9.3222   -7.7872   -2.4420 H   0  0  0  0  0  0  0  0  0  0  0  0
   -8.8118   -9.7799   -3.8264 H   0  0  0  0  0  0  0  0  0  0  0  0
   -6.8722   -9.7809   -5.3526 H   0  0  0  0  0  0  0  0  0  0  0  0
  1  2  2  3
  2  3  1  0
  3  4  2  0
  3  5  1  0
  5  6  2  0
  6  7  1  0
  7  8  1  0
  7  9  2  0
  9 10  1  0
  9 11  1  0
 11 12  2  0
 12 13  1  0
 13 14  2  3
 14 15  1  0
 15 16  3  0
 14 17  1  0
 17 18  3  0
  1 19  1  0
 19 20  1  0
 20 21  1  0
 21 22  1  0
 22 23  2  0
 23 24  1  0
 24 25  1  0
 25 26  1  0
 24 27  1  0
 27 28  1  0
 24 29  1  0
 29 30  1  0
 23 31  1  0
 31 32  2  0
 32 33  1  0
 33 34  2  0
 34 35  1  0
 35 36  1  0
 36 37  1  0
 35 38  1  0
 38 39  1  0
 35 40  1  0
 40 41  2  0
 34 42  1  0
 42 43  2  0
 43 44  1  0
 44 45  2  0
 45 46  1  0
 46 47  1  0
 47 48  2  0
 46 49  1  0
 49 50  1  0
 46 51  1  0
 51 52  1  0
 45 53  1  0
 53 54  2  0
 54 55  1  0
 54 56  1  0
 56 57  2  3
 57 58  1  0
 58 59  2  0
 58 60  1  0
 60 61  2  0
 61 62  1  0
 61 63  1  0
 63 64  2  0
 64 65  1  0
 65 66  2  0
 66 67  1  0
 67 68  2  3
 68 69  1  0
 69 70  3  0
 68 71  1  0
 71 72  3  0
 13  2  1  0
 26 19  2  0
 40 32  1  0
 47 43  1  0
 67 57  1  0
 12  5  1  0
 25 21  2  0
 48 33  1  0
 66 60  1  0
 41 22  1  0
 55 44  1  0
  1 73  1  0
  6 74  1  0
 11 75  1  0
 26 76  1  0
 27 77  1  0
 27 78  1  0
 28 79  1  0
 28 80  1  0
 28 81  1  0
 29 82  1  0
 29 83  1  0
 30 84  1  0
 30 85  1  0
 30 86  1  0
 31 87  1  0
 36 88  1  0
 36 89  1  0
 37 90  1  0
 37 91  1  0
 37 92  1  0
 38 93  1  0
 38 94  1  0
 39 95  1  0
 39 96  1  0
 39 97  1  0
 41 98  1  0
 42 99  1  0
 48100  1  0
 49101  1  0
 49102  1  0
 50103  1  0
 50104  1  0
 50105  1  0
 51106  1  0
 51107  1  0
 52108  1  0
 52109  1  0
 52110  1  0
 53111  1  0
 56112  1  0
 63113  1  0
 64114  1  0
 65115  1  0
M  END

