
     RDKit          3D

138151  0  0  0  0  0  0  0  0999 V2000
    4.3274   -1.8271   -3.9845 C   0  0  0  0  0  0  0  0  0  0  0  0
    4.0180   -1.8693   -5.2988 C   0  0  0  0  0  0  0  0  0  0  0  0
    2.6915   -1.6356   -5.8837 C   0  0  0  0  0  0  0  0  0  0  0  0
    1.7726   -0.9379   -5.3860 O   0  0  0  0  0  0  0  0  0  0  0  0
    2.6714   -2.2140   -7.2084 C   0  0  0  0  0  0  0  0  0  0  0  0
    1.5802   -2.3785   -8.0635 C   0  0  0  0  0  0  0  0  0  0  0  0
    1.7664   -3.0840   -9.2604 C   0  0  0  0  0  0  0  0  0  0  0  0
    0.3892   -3.2941  -10.3366 Cl  0  0  0  0  0  0  0  0  0  0  0  0
    3.0288   -3.6392   -9.5653 C   0  0  0  0  0  0  0  0  0  0  0  0
    3.2946   -4.6891  -11.1430 Br  0  0  0  0  0  0  0  0  0  0  0  0
    4.1090   -3.4580   -8.6858 C   0  0  0  0  0  0  0  0  0  0  0  0
    3.9265   -2.7009   -7.5174 C   0  0  0  0  0  0  0  0  0  0  0  0
    4.8748   -2.3782   -6.4146 C   0  0  0  0  0  0  0  0  0  0  0  0
    6.2269   -2.3155   -6.5111 C   0  0  0  0  0  0  0  0  0  0  0  0
    7.0539   -1.7674   -5.4678 C   0  0  0  0  0  0  0  0  0  0  0  0
    7.7297   -1.3289   -4.6354 N   0  0  0  0  0  0  0  0  0  0  0  0
    6.9227   -2.6442   -7.7266 C   0  0  0  0  0  0  0  0  0  0  0  0
    7.4932   -2.9036   -8.7010 N   0  0  0  0  0  0  0  0  0  0  0  0
    3.3335   -1.6685   -2.9086 C   0  0  0  0  0  0  0  0  0  0  0  0
    3.5538   -0.9659   -1.8030 O   0  0  0  0  0  0  0  0  0  0  0  0
    2.4610   -1.0802   -1.0902 C   0  0  0  0  0  0  0  0  0  0  0  0
    1.9483   -0.5656    0.1526 C   0  0  0  0  0  0  0  0  0  0  0  0
    0.6181   -1.0140    0.2369 C   0  0  0  0  0  0  0  0  0  0  0  0
    0.2891   -2.0167   -0.8707 C   0  0  0  0  0  0  0  0  0  0  0  0
   -0.9935   -1.5891   -1.5896 C   0  0  0  0  0  0  0  0  0  0  0  0
   -0.9678   -0.6972   -2.6788 C   0  0  0  0  0  0  0  0  0  0  0  0
   -2.1592   -0.2634   -3.2711 C   0  0  0  0  0  0  0  0  0  0  0  0
   -3.3990   -0.6671   -2.7646 C   0  0  0  0  0  0  0  0  0  0  0  0
   -4.6743   -0.1645   -3.3811 C   0  0  0  0  0  0  0  0  0  0  0  0
   -5.4653   -1.3148   -4.0084 C   0  0  0  0  0  0  0  0  0  0  0  0
   -3.4383   -1.5329   -1.6624 C   0  0  0  0  0  0  0  0  0  0  0  0
   -2.2468   -1.9873   -1.0801 C   0  0  0  0  0  0  0  0  0  0  0  0
    0.2746   -3.4755   -0.3954 C   0  0  0  0  0  0  0  0  0  0  0  0
    0.8369   -3.8632    0.8430 C   0  0  0  0  0  0  0  0  0  0  0  0
    1.0029   -5.2132    1.1613 C   0  0  0  0  0  0  0  0  0  0  0  0
    0.5976   -6.2094    0.2630 C   0  0  0  0  0  0  0  0  0  0  0  0
    0.8643   -7.6599    0.5696 C   0  0  0  0  0  0  0  0  0  0  0  0
    2.1882   -8.1047   -0.0517 C   0  0  0  0  0  0  0  0  0  0  0  0
    0.0186   -5.8393   -0.9616 C   0  0  0  0  0  0  0  0  0  0  0  0
   -0.1268   -4.4891   -1.2908 C   0  0  0  0  0  0  0  0  0  0  0  0
    1.5426   -1.8407   -1.6865 C   0  0  0  0  0  0  0  0  0  0  0  0
    2.0721   -2.2774   -2.8711 C   0  0  0  0  0  0  0  0  0  0  0  0
   -0.2461   -0.4824    1.2054 C   0  0  0  0  0  0  0  0  0  0  0  0
    0.3120    0.4165    2.1179 C   0  0  0  0  0  0  0  0  0  0  0  0
   -0.3109    1.2673    3.0941 C   0  0  0  0  0  0  0  0  0  0  0  0
    0.6142    1.9590    3.7627 C   0  0  0  0  0  0  0  0  0  0  0  0
    2.0216    1.6420    3.3277 C   0  0  0  0  0  0  0  0  0  0  0  0
    1.6791    0.7302    2.1398 C   0  0  0  0  0  0  0  0  0  0  0  0
    2.5264    0.2789    1.1110 C   0  0  0  0  0  0  0  0  0  0  0  0
    2.7976    2.8782    2.8589 C   0  0  0  0  0  0  0  0  0  0  0  0
    4.2026    2.9340    2.9713 C   0  0  0  0  0  0  0  0  0  0  0  0
    4.9047    4.0711    2.5658 C   0  0  0  0  0  0  0  0  0  0  0  0
    4.2251    5.1661    2.0114 C   0  0  0  0  0  0  0  0  0  0  0  0
    4.9780    6.3939    1.5703 C   0  0  0  0  0  0  0  0  0  0  0  0
    5.3990    6.2710    0.1084 C   0  0  0  0  0  0  0  0  0  0  0  0
    2.8407    5.0820    1.8138 C   0  0  0  0  0  0  0  0  0  0  0  0
    2.1349    3.9515    2.2284 C   0  0  0  0  0  0  0  0  0  0  0  0
    2.6665    0.8942    4.5047 C   0  0  0  0  0  0  0  0  0  0  0  0
    2.7506   -0.5185    4.5441 C   0  0  0  0  0  0  0  0  0  0  0  0
    3.0935   -1.1850    5.7258 C   0  0  0  0  0  0  0  0  0  0  0  0
    3.3636   -0.4623    6.8943 C   0  0  0  0  0  0  0  0  0  0  0  0
    3.5589   -1.1874    8.2011 C   0  0  0  0  0  0  0  0  0  0  0  0
    2.2128   -1.4672    8.8679 C   0  0  0  0  0  0  0  0  0  0  0  0
    3.3141    0.9400    6.8610 C   0  0  0  0  0  0  0  0  0  0  0  0
    2.9715    1.6087    5.6823 C   0  0  0  0  0  0  0  0  0  0  0  0
   -0.0496    2.8862    4.5259 C   0  0  0  0  0  0  0  0  0  0  0  0
   -1.3958    2.6761    4.2081 C   0  0  0  0  0  0  0  0  0  0  0  0
   -1.5292    1.6751    3.3472 O   0  0  0  0  0  0  0  0  0  0  0  0
   -2.4917    3.5092    4.7360 C   0  0  0  0  0  0  0  0  0  0  0  0
   -3.5258    3.9793    4.0101 C   0  0  0  0  0  0  0  0  0  0  0  0
   -3.8873    3.5957    2.6353 C   0  0  0  0  0  0  0  0  0  0  0  0
   -3.1723    2.9721    1.8105 O   0  0  0  0  0  0  0  0  0  0  0  0
   -5.2252    4.0860    2.3649 C   0  0  0  0  0  0  0  0  0  0  0  0
   -5.9930    3.9006    1.2138 C   0  0  0  0  0  0  0  0  0  0  0  0
   -7.2777    4.4640    1.1624 C   0  0  0  0  0  0  0  0  0  0  0  0
   -8.0723    4.3200    0.0167 C   0  0  0  0  0  0  0  0  0  0  0  0
   -9.3508    4.8812   -0.0281 C   0  0  0  0  0  0  0  0  0  0  0  0
  -10.1188    4.7297   -1.1390 F   0  0  0  0  0  0  0  0  0  0  0  0
   -9.8546    5.5765    1.0756 C   0  0  0  0  0  0  0  0  0  0  0  0
  -11.0965    6.1202    1.0274 F   0  0  0  0  0  0  0  0  0  0  0  0
   -9.0723    5.7273    2.2268 C   0  0  0  0  0  0  0  0  0  0  0  0
   -7.7813    5.1799    2.2836 C   0  0  0  0  0  0  0  0  0  0  0  0
   -6.9897    5.3323    3.4382 C   0  0  0  0  0  0  0  0  0  0  0  0
   -5.6887    4.8041    3.4516 C   0  0  0  0  0  0  0  0  0  0  0  0
   -4.6195    4.8874    4.4889 C   0  0  0  0  0  0  0  0  0  0  0  0
   -4.5253    5.8183    5.4792 C   0  0  0  0  0  0  0  0  0  0  0  0
   -5.5811    6.7509    5.7748 C   0  0  0  0  0  0  0  0  0  0  0  0
   -6.4211    7.5076    6.0263 N   0  0  0  0  0  0  0  0  0  0  0  0
   -3.3083    6.0536    6.2153 C   0  0  0  0  0  0  0  0  0  0  0  0
   -2.3351    6.2589    6.8099 N   0  0  0  0  0  0  0  0  0  0  0  0
    5.3318   -2.0182   -3.6500 H   0  0  0  0  0  0  0  0  0  0  0  0
    0.6104   -1.9796   -7.8023 H   0  0  0  0  0  0  0  0  0  0  0  0
    5.0505   -3.9384   -8.9046 H   0  0  0  0  0  0  0  0  0  0  0  0
   -0.0342   -0.3187   -3.0775 H   0  0  0  0  0  0  0  0  0  0  0  0
   -2.0983    0.4166   -4.1112 H   0  0  0  0  0  0  0  0  0  0  0  0
   -5.2951    0.3436   -2.6141 H   0  0  0  0  0  0  0  0  0  0  0  0
   -4.4553    0.5728   -4.1858 H   0  0  0  0  0  0  0  0  0  0  0  0
   -6.2935   -0.9273   -4.6420 H   0  0  0  0  0  0  0  0  0  0  0  0
   -4.7989   -1.9255   -4.6569 H   0  0  0  0  0  0  0  0  0  0  0  0
   -5.9007   -1.9737   -3.2249 H   0  0  0  0  0  0  0  0  0  0  0  0
   -4.3833   -1.8399   -1.2402 H   0  0  0  0  0  0  0  0  0  0  0  0
   -2.3076   -2.6369   -0.2141 H   0  0  0  0  0  0  0  0  0  0  0  0
    1.1961   -3.1270    1.5522 H   0  0  0  0  0  0  0  0  0  0  0  0
    1.4731   -5.4736    2.1000 H   0  0  0  0  0  0  0  0  0  0  0  0
    0.0418   -8.2932    0.1693 H   0  0  0  0  0  0  0  0  0  0  0  0
    0.9056   -7.8281    1.6679 H   0  0  0  0  0  0  0  0  0  0  0  0
    3.0333   -7.5544    0.4123 H   0  0  0  0  0  0  0  0  0  0  0  0
    2.3344   -9.1898    0.1250 H   0  0  0  0  0  0  0  0  0  0  0  0
    2.1791   -7.9242   -1.1499 H   0  0  0  0  0  0  0  0  0  0  0  0
   -0.2589   -6.5994   -1.6825 H   0  0  0  0  0  0  0  0  0  0  0  0
   -0.5009   -4.2311   -2.2731 H   0  0  0  0  0  0  0  0  0  0  0  0
    1.6217   -2.9496   -3.5903 H   0  0  0  0  0  0  0  0  0  0  0  0
   -1.2982   -0.7247    1.2370 H   0  0  0  0  0  0  0  0  0  0  0  0
    3.5641    0.5852    1.0557 H   0  0  0  0  0  0  0  0  0  0  0  0
    4.7593    2.1030    3.3866 H   0  0  0  0  0  0  0  0  0  0  0  0
    5.9821    4.0997    2.6915 H   0  0  0  0  0  0  0  0  0  0  0  0
    4.3366    7.2878    1.6928 H   0  0  0  0  0  0  0  0  0  0  0  0
    5.8830    6.5380    2.2012 H   0  0  0  0  0  0  0  0  0  0  0  0
    4.5046    6.1512   -0.5365 H   0  0  0  0  0  0  0  0  0  0  0  0
    6.0622    5.3910   -0.0266 H   0  0  0  0  0  0  0  0  0  0  0  0
    5.9444    7.1841   -0.1995 H   0  0  0  0  0  0  0  0  0  0  0  0
    2.3025    5.8997    1.3510 H   0  0  0  0  0  0  0  0  0  0  0  0
    1.0688    3.9156    2.0519 H   0  0  0  0  0  0  0  0  0  0  0  0
    2.5037   -1.1215    3.6812 H   0  0  0  0  0  0  0  0  0  0  0  0
    3.1026   -2.2683    5.7350 H   0  0  0  0  0  0  0  0  0  0  0  0
    4.1908   -0.5772    8.8886 H   0  0  0  0  0  0  0  0  0  0  0  0
    4.0926   -2.1503    8.0277 H   0  0  0  0  0  0  0  0  0  0  0  0
    1.5890   -2.1102    8.2091 H   0  0  0  0  0  0  0  0  0  0  0  0
    1.6765   -0.5131    9.0685 H   0  0  0  0  0  0  0  0  0  0  0  0
    2.3749   -1.9992    9.8320 H   0  0  0  0  0  0  0  0  0  0  0  0
    3.4973    1.5139    7.7603 H   0  0  0  0  0  0  0  0  0  0  0  0
    2.8786    2.6884    5.7043 H   0  0  0  0  0  0  0  0  0  0  0  0
    0.3740    3.6686    5.1424 H   0  0  0  0  0  0  0  0  0  0  0  0
   -2.3794    3.7938    5.7663 H   0  0  0  0  0  0  0  0  0  0  0  0
   -5.5911    3.3413    0.3779 H   0  0  0  0  0  0  0  0  0  0  0  0
   -7.7062    3.7768   -0.8463 H   0  0  0  0  0  0  0  0  0  0  0  0
   -9.4800    6.2702    3.0732 H   0  0  0  0  0  0  0  0  0  0  0  0
   -7.4009    5.8329    4.2983 H   0  0  0  0  0  0  0  0  0  0  0  0
  1  2  2  3
  2  3  1  0
  3  4  2  0
  3  5  1  0
  5  6  2  0
  6  7  1  0
  7  8  1  0
  7  9  2  0
  9 10  1  0
  9 11  1  0
 11 12  2  0
 12 13  1  0
 13 14  2  3
 14 15  1  0
 15 16  3  0
 14 17  1  0
 17 18  3  0
  1 19  1  0
 19 20  1  0
 20 21  1  0
 21 22  1  0
 22 23  2  0
 23 24  1  0
 24 25  1  0
 25 26  2  0
 26 27  1  0
 27 28  2  0
 28 29  1  0
 29 30  1  0
 28 31  1  0
 31 32  2  0
 24 33  1  0
 33 34  2  0
 34 35  1  0
 35 36  2  0
 36 37  1  0
 37 38  1  0
 36 39  1  0
 39 40  2  0
 24 41  1  0
 41 42  1  0
 23 43  1  0
 43 44  2  0
 44 45  1  0
 45 46  2  0
 46 47  1  0
 47 48  1  0
 48 49  2  0
 47 50  1  0
 50 51  2  0
 51 52  1  0
 52 53  2  0
 53 54  1  0
 54 55  1  0
 53 56  1  0
 56 57  2  0
 47 58  1  0
 58 59  2  0
 59 60  1  0
 60 61  2  0
 61 62  1  0
 62 63  1  0
 61 64  1  0
 64 65  2  0
 46 66  1  0
 66 67  2  0
 67 68  1  0
 67 69  1  0
 69 70  2  3
 70 71  1  0
 71 72  2  0
 71 73  1  0
 73 74  2  0
 74 75  1  0
 75 76  2  0
 76 77  1  0
 77 78  1  0
 77 79  2  0
 79 80  1  0
 79 81  1  0
 81 82  2  0
 82 83  1  0
 83 84  2  0
 84 85  1  0
 85 86  2  3
 86 87  1  0
 87 88  3  0
 86 89  1  0
 89 90  3  0
 13  2  1  0
 42 19  2  0
 48 44  1  0
 57 50  1  0
 65 58  1  0
 85 70  1  0
 12  5  1  0
 41 21  2  0
 68 45  1  0
 84 73  1  0
 49 22  1  0
 82 75  1  0
 32 25  1  0
 40 33  1  0
  1 91  1  0
  6 92  1  0
 11 93  1  0
 26 94  1  0
 27 95  1  0
 29 96  1  0
 29 97  1  0
 30 98  1  0
 30 99  1  0
 30100  1  0
 31101  1  0
 32102  1  0
 34103  1  0
 35104  1  0
 37105  1  0
 37106  1  0
 38107  1  0
 38108  1  0
 38109  1  0
 39110  1  0
 40111  1  0
 42112  1  0
 43113  1  0
 49114  1  0
 51115  1  0
 52116  1  0
 54117  1  0
 54118  1  0
 55119  1  0
 55120  1  0
 55121  1  0
 56122  1  0
 57123  1  0
 59124  1  0
 60125  1  0
 62126  1  0
 62127  1  0
 63128  1  0
 63129  1  0
 63130  1  0
 64131  1  0
 65132  1  0
 66133  1  0
 69134  1  0
 74135  1  0
 76136  1  0
 81137  1  0
 83138  1  0
M  END

