
     RDKit          3D

 99109  0  0  0  0  0  0  0  0999 V2000
    6.2442    0.3202   -3.4877 C   0  0  0  0  0  0  0  0  0  0  0  0
    6.5859   -0.9703   -3.6772 C   0  0  0  0  0  0  0  0  0  0  0  0
    5.6625   -2.1088   -3.7659 C   0  0  0  0  0  0  0  0  0  0  0  0
    4.4448   -2.0658   -4.0856 O   0  0  0  0  0  0  0  0  0  0  0  0
    6.4139   -3.3206   -3.5185 C   0  0  0  0  0  0  0  0  0  0  0  0
    5.9281   -4.6174   -3.3622 C   0  0  0  0  0  0  0  0  0  0  0  0
    6.8302   -5.6371   -3.0269 C   0  0  0  0  0  0  0  0  0  0  0  0
    6.2183   -7.2718   -2.8233 Cl  0  0  0  0  0  0  0  0  0  0  0  0
    8.1988   -5.3349   -2.8334 C   0  0  0  0  0  0  0  0  0  0  0  0
    9.4577   -6.6921   -2.3329 Br  0  0  0  0  0  0  0  0  0  0  0  0
    8.6608   -4.0149   -2.9914 C   0  0  0  0  0  0  0  0  0  0  0  0
    7.7541   -3.0123   -3.3680 C   0  0  0  0  0  0  0  0  0  0  0  0
    7.9607   -1.5542   -3.5953 C   0  0  0  0  0  0  0  0  0  0  0  0
    9.1275   -0.9418   -3.9230 C   0  0  0  0  0  0  0  0  0  0  0  0
   10.3914   -1.6302   -3.9333 C   0  0  0  0  0  0  0  0  0  0  0  0
   11.4169   -2.1670   -3.9489 N   0  0  0  0  0  0  0  0  0  0  0  0
    9.1709    0.4071   -4.4229 C   0  0  0  0  0  0  0  0  0  0  0  0
    9.2150    1.4895   -4.8325 N   0  0  0  0  0  0  0  0  0  0  0  0
    4.8563    0.8022   -3.3416 C   0  0  0  0  0  0  0  0  0  0  0  0
    4.3332    1.9556   -3.9619 C   0  0  0  0  0  0  0  0  0  0  0  0
    5.0554    2.7861   -4.9880 C   0  0  0  0  0  0  0  0  0  0  0  0
    4.8631    2.1996   -6.3803 C   0  0  0  0  0  0  0  0  0  0  0  0
    3.0228    2.1920   -3.5429 C   0  0  0  0  0  0  0  0  0  0  0  0
    1.8952    3.4357   -3.8539 S   0  0  0  0  0  0  0  0  0  0  0  0
    0.7840    2.7337   -2.7762 C   0  0  0  0  0  0  0  0  0  0  0  0
   -0.3073    3.1312   -2.0550 C   0  0  0  0  0  0  0  0  0  0  0  0
   -0.9746    4.3646   -1.9907 C   0  0  0  0  0  0  0  0  0  0  0  0
   -1.9004    4.5902   -0.9233 C   0  0  0  0  0  0  0  0  0  0  0  0
   -2.5086    5.8010   -0.8759 N   0  0  0  0  0  0  0  0  0  0  0  0
   -1.8002    6.5100   -2.1958 S   0  0  0  0  0  0  0  0  0  0  0  0
   -0.7623    5.3931   -2.8472 N   0  0  0  0  0  0  0  0  0  0  0  0
   -2.1269    3.5576   -0.0062 C   0  0  0  0  0  0  0  0  0  0  0  0
   -3.0024    3.4239    1.0335 C   0  0  0  0  0  0  0  0  0  0  0  0
   -4.2189    4.3027    1.8304 S   0  0  0  0  0  0  0  0  0  0  0  0
   -4.6296    2.9263    2.7584 C   0  0  0  0  0  0  0  0  0  0  0  0
   -5.5328    2.6957    3.7961 C   0  0  0  0  0  0  0  0  0  0  0  0
   -6.4242    3.7515    4.3833 C   0  0  0  0  0  0  0  0  0  0  0  0
   -5.7595    4.4062    5.5886 C   0  0  0  0  0  0  0  0  0  0  0  0
   -5.3974    1.3820    4.2886 C   0  0  0  0  0  0  0  0  0  0  0  0
   -4.2305    0.5246    3.3782 S   0  0  0  0  0  0  0  0  0  0  0  0
   -3.8637    1.8422    2.4167 C   0  0  0  0  0  0  0  0  0  0  0  0
   -2.9248    2.1362    1.4491 C   0  0  0  0  0  0  0  0  0  0  0  0
   -2.0520    1.3886    0.7330 N   0  0  0  0  0  0  0  0  0  0  0  0
   -1.4936    2.3106   -0.1111 C   0  0  0  0  0  0  0  0  0  0  0  0
   -0.4862    2.1364   -1.0797 C   0  0  0  0  0  0  0  0  0  0  0  0
    0.5477    1.2363   -1.0895 N   0  0  0  0  0  0  0  0  0  0  0  0
    1.2670    1.6114   -2.1780 C   0  0  0  0  0  0  0  0  0  0  0  0
    2.5512    1.3110   -2.6048 C   0  0  0  0  0  0  0  0  0  0  0  0
    3.7252    0.1803   -2.2190 S   0  0  0  0  0  0  0  0  0  0  0  0
    1.1344    0.5604    0.0803 C   0  0  0  0  0  0  0  0  0  0  0  0
    2.0524    1.5047    0.8527 C   0  0  0  0  0  0  0  0  0  0  0  0
   -2.2162   -0.0518    0.4741 C   0  0  0  0  0  0  0  0  0  0  0  0
   -3.5326   -0.3317   -0.2481 C   0  0  0  0  0  0  0  0  0  0  0  0
   -6.1444    0.8128    5.4248 C   0  0  0  0  0  0  0  0  0  0  0  0
   -5.5666    0.1549    6.4564 C   0  0  0  0  0  0  0  0  0  0  0  0
   -4.0957    0.1057    6.6358 C   0  0  0  0  0  0  0  0  0  0  0  0
   -3.3693    1.0654    6.2565 O   0  0  0  0  0  0  0  0  0  0  0  0
   -3.5084   -1.0216    7.3059 N   0  0  0  0  0  0  0  0  0  0  0  0
   -2.0674   -1.2773    7.2002 C   0  0  0  0  0  0  0  0  0  0  0  0
   -1.7571   -2.0383    5.9162 C   0  0  0  0  0  0  0  0  0  0  0  0
   -4.3839   -1.9608    7.9588 C   0  0  0  0  0  0  0  0  0  0  0  0
   -3.9201   -3.0364    8.4302 O   0  0  0  0  0  0  0  0  0  0  0  0
   -5.8296   -1.6576    8.1037 C   0  0  0  0  0  0  0  0  0  0  0  0
   -6.3902   -0.6141    7.4415 C   0  0  0  0  0  0  0  0  0  0  0  0
   -7.8502   -0.2593    7.6409 C   0  0  0  0  0  0  0  0  0  0  0  0
   -6.6113   -2.5037    8.9786 C   0  0  0  0  0  0  0  0  0  0  0  0
   -7.2368   -3.1844    9.6756 N   0  0  0  0  0  0  0  0  0  0  0  0
    7.0077    1.0688   -3.3576 H   0  0  0  0  0  0  0  0  0  0  0  0
    4.8718   -4.8285   -3.4777 H   0  0  0  0  0  0  0  0  0  0  0  0
    9.6963   -3.7973   -2.7868 H   0  0  0  0  0  0  0  0  0  0  0  0
    6.1385    2.8288   -4.7511 H   0  0  0  0  0  0  0  0  0  0  0  0
    4.6690    3.8280   -4.9735 H   0  0  0  0  0  0  0  0  0  0  0  0
    3.7842    2.1873   -6.6433 H   0  0  0  0  0  0  0  0  0  0  0  0
    5.2608    1.1644   -6.4223 H   0  0  0  0  0  0  0  0  0  0  0  0
    5.4041    2.8193   -7.1233 H   0  0  0  0  0  0  0  0  0  0  0  0
   -6.6479    4.5305    3.6216 H   0  0  0  0  0  0  0  0  0  0  0  0
   -7.3913    3.3042    4.6923 H   0  0  0  0  0  0  0  0  0  0  0  0
   -4.7951    4.8736    5.2952 H   0  0  0  0  0  0  0  0  0  0  0  0
   -6.4286    5.1916    5.9955 H   0  0  0  0  0  0  0  0  0  0  0  0
   -5.5717    3.6529    6.3805 H   0  0  0  0  0  0  0  0  0  0  0  0
    0.3657    0.2116    0.7861 H   0  0  0  0  0  0  0  0  0  0  0  0
    1.7030   -0.3318   -0.2489 H   0  0  0  0  0  0  0  0  0  0  0  0
    2.8191    1.9489    0.1866 H   0  0  0  0  0  0  0  0  0  0  0  0
    2.5650    0.9450    1.6627 H   0  0  0  0  0  0  0  0  0  0  0  0
    1.4525    2.3181    1.3134 H   0  0  0  0  0  0  0  0  0  0  0  0
   -1.4178   -0.4333   -0.1888 H   0  0  0  0  0  0  0  0  0  0  0  0
   -2.1810   -0.6150    1.4307 H   0  0  0  0  0  0  0  0  0  0  0  0
   -3.6196   -1.4188   -0.4571 H   0  0  0  0  0  0  0  0  0  0  0  0
   -3.5564    0.2169   -1.2143 H   0  0  0  0  0  0  0  0  0  0  0  0
   -4.4028   -0.0164    0.3640 H   0  0  0  0  0  0  0  0  0  0  0  0
   -7.2219    0.8807    5.3502 H   0  0  0  0  0  0  0  0  0  0  0  0
   -1.7113   -1.8647    8.0731 H   0  0  0  0  0  0  0  0  0  0  0  0
   -1.5041   -0.3186    7.2075 H   0  0  0  0  0  0  0  0  0  0  0  0
   -0.6681   -2.2412    5.8560 H   0  0  0  0  0  0  0  0  0  0  0  0
   -2.0615   -1.4408    5.0318 H   0  0  0  0  0  0  0  0  0  0  0  0
   -2.3015   -3.0058    5.9058 H   0  0  0  0  0  0  0  0  0  0  0  0
   -8.4740   -0.8115    6.9094 H   0  0  0  0  0  0  0  0  0  0  0  0
   -8.2019   -0.4951    8.6674 H   0  0  0  0  0  0  0  0  0  0  0  0
   -8.0067    0.8304    7.5071 H   0  0  0  0  0  0  0  0  0  0  0  0
  1  2  2  3
  2  3  1  0
  3  4  2  0
  3  5  1  0
  5  6  2  0
  6  7  1  0
  7  8  1  0
  7  9  2  0
  9 10  1  0
  9 11  1  0
 11 12  2  0
 12 13  1  0
 13 14  2  3
 14 15  1  0
 15 16  3  0
 14 17  1  0
 17 18  3  0
  1 19  1  0
 19 20  2  0
 20 21  1  0
 21 22  1  0
 20 23  1  0
 23 24  1  0
 24 25  1  0
 25 26  1  0
 26 27  1  0
 27 28  1  0
 28 29  2  0
 29 30  1  0
 30 31  1  0
 28 32  1  0
 32 33  1  0
 33 34  1  0
 34 35  1  0
 35 36  1  0
 36 37  1  0
 37 38  1  0
 36 39  2  0
 39 40  1  0
 40 41  1  0
 41 42  1  0
 42 43  1  0
 43 44  1  0
 44 45  1  0
 45 46  1  0
 46 47  1  0
 47 48  1  0
 48 49  1  0
 46 50  1  0
 50 51  1  0
 43 52  1  0
 52 53  1  0
 39 54  1  0
 54 55  2  3
 55 56  1  0
 56 57  2  0
 56 58  1  0
 58 59  1  0
 59 60  1  0
 58 61  1  0
 61 62  2  0
 61 63  1  0
 63 64  2  0
 64 65  1  0
 63 66  1  0
 66 67  3  0
 13  2  1  0
 49 19  1  0
 64 55  1  0
 12  5  1  0
 48 23  2  0
 47 25  2  0
 45 26  2  0
 31 27  2  0
 44 32  2  0
 42 33  2  0
 41 35  2  0
  1 68  1  0
  6 69  1  0
 11 70  1  0
 21 71  1  0
 21 72  1  0
 22 73  1  0
 22 74  1  0
 22 75  1  0
 37 76  1  0
 37 77  1  0
 38 78  1  0
 38 79  1  0
 38 80  1  0
 50 81  1  0
 50 82  1  0
 51 83  1  0
 51 84  1  0
 51 85  1  0
 52 86  1  0
 52 87  1  0
 53 88  1  0
 53 89  1  0
 53 90  1  0
 54 91  1  0
 59 92  1  0
 59 93  1  0
 60 94  1  0
 60 95  1  0
 60 96  1  0
 65 97  1  0
 65 98  1  0
 65 99  1  0
M  END

