
     RDKit          3D

103115  0  0  0  0  0  0  0  0999 V2000
   -2.9041    1.9881    6.6889 C   0  0  0  0  0  0  0  0  0  0  0  0
   -3.2989    0.8558    7.3052 C   0  0  0  0  0  0  0  0  0  0  0  0
   -3.8456   -0.3461    6.6610 C   0  0  0  0  0  0  0  0  0  0  0  0
   -4.3841   -0.4079    5.5247 O   0  0  0  0  0  0  0  0  0  0  0  0
   -3.7386   -1.4473    7.5908 C   0  0  0  0  0  0  0  0  0  0  0  0
   -4.0263   -2.7955    7.3768 C   0  0  0  0  0  0  0  0  0  0  0  0
   -3.7836   -3.7052    8.4198 C   0  0  0  0  0  0  0  0  0  0  0  0
   -4.1432   -5.4045    8.1623 Cl  0  0  0  0  0  0  0  0  0  0  0  0
   -3.2372   -3.2526    9.6443 C   0  0  0  0  0  0  0  0  0  0  0  0
   -2.8525   -4.4672   11.0764 Br  0  0  0  0  0  0  0  0  0  0  0  0
   -2.9648   -1.8919    9.8345 C   0  0  0  0  0  0  0  0  0  0  0  0
   -3.2476   -0.9839    8.7966 C   0  0  0  0  0  0  0  0  0  0  0  0
   -3.0769    0.4944    8.7381 C   0  0  0  0  0  0  0  0  0  0  0  0
   -3.0068    1.3485    9.7921 C   0  0  0  0  0  0  0  0  0  0  0  0
   -3.1527    2.7751    9.6429 C   0  0  0  0  0  0  0  0  0  0  0  0
   -3.2611    3.9227    9.5401 N   0  0  0  0  0  0  0  0  0  0  0  0
   -2.9273    0.8954   11.1574 C   0  0  0  0  0  0  0  0  0  0  0  0
   -2.8611    0.5500   12.2618 N   0  0  0  0  0  0  0  0  0  0  0  0
   -2.9706    2.2256    5.2337 C   0  0  0  0  0  0  0  0  0  0  0  0
   -3.3261    3.4573    4.6419 C   0  0  0  0  0  0  0  0  0  0  0  0
   -3.7760    4.6775    5.3968 C   0  0  0  0  0  0  0  0  0  0  0  0
   -2.5795    5.5452    5.7819 C   0  0  0  0  0  0  0  0  0  0  0  0
   -3.1191    3.4263    3.2624 C   0  0  0  0  0  0  0  0  0  0  0  0
   -3.2255    4.5996    2.0254 S   0  0  0  0  0  0  0  0  0  0  0  0
   -2.6956    3.4722    0.8701 C   0  0  0  0  0  0  0  0  0  0  0  0
   -2.1738    3.4780   -0.3927 C   0  0  0  0  0  0  0  0  0  0  0  0
   -1.9094    4.5248   -1.2936 C   0  0  0  0  0  0  0  0  0  0  0  0
   -1.1288    4.2441   -2.4625 C   0  0  0  0  0  0  0  0  0  0  0  0
   -0.9005    5.2760   -3.3122 N   0  0  0  0  0  0  0  0  0  0  0  0
   -1.6967    6.4811   -2.4978 S   0  0  0  0  0  0  0  0  0  0  0  0
   -2.3241    5.8034   -1.1215 N   0  0  0  0  0  0  0  0  0  0  0  0
   -0.6908    2.9304   -2.6795 C   0  0  0  0  0  0  0  0  0  0  0  0
   -0.0660    2.3280   -3.7378 C   0  0  0  0  0  0  0  0  0  0  0  0
    0.5463    2.7038   -5.2788 S   0  0  0  0  0  0  0  0  0  0  0  0
    0.7962    1.0463   -5.6080 C   0  0  0  0  0  0  0  0  0  0  0  0
    1.3667    0.3411   -6.6675 C   0  0  0  0  0  0  0  0  0  0  0  0
    1.9711    0.9856   -7.8811 C   0  0  0  0  0  0  0  0  0  0  0  0
    3.4866    1.0931   -7.7503 C   0  0  0  0  0  0  0  0  0  0  0  0
    1.3958   -1.0382   -6.3810 C   0  0  0  0  0  0  0  0  0  0  0  0
    0.6670   -1.3533   -4.8685 S   0  0  0  0  0  0  0  0  0  0  0  0
    0.3681    0.2619   -4.5691 C   0  0  0  0  0  0  0  0  0  0  0  0
   -0.1051    0.9940   -3.5030 C   0  0  0  0  0  0  0  0  0  0  0  0
   -0.7294    0.6652   -2.3477 N   0  0  0  0  0  0  0  0  0  0  0  0
   -1.0052    1.8859   -1.7971 C   0  0  0  0  0  0  0  0  0  0  0  0
   -1.6641    2.1848   -0.5837 C   0  0  0  0  0  0  0  0  0  0  0  0
   -1.7201    1.4509    0.5721 N   0  0  0  0  0  0  0  0  0  0  0  0
   -2.4107    2.2594    1.4125 C   0  0  0  0  0  0  0  0  0  0  0  0
   -2.6369    2.2366    2.7788 C   0  0  0  0  0  0  0  0  0  0  0  0
   -2.3667    1.1615    4.0367 S   0  0  0  0  0  0  0  0  0  0  0  0
   -0.7357    0.4510    1.0286 C   0  0  0  0  0  0  0  0  0  0  0  0
    0.5163    1.1299    1.5882 C   0  0  0  0  0  0  0  0  0  0  0  0
   -1.4921   -0.5813   -2.1513 C   0  0  0  0  0  0  0  0  0  0  0  0
   -2.6070   -0.7136   -3.1900 C   0  0  0  0  0  0  0  0  0  0  0  0
    2.0593   -2.0735   -7.1888 C   0  0  0  0  0  0  0  0  0  0  0  0
    3.0947   -2.7935   -6.7113 C   0  0  0  0  0  0  0  0  0  0  0  0
    3.7055   -2.6262   -5.3871 C   0  0  0  0  0  0  0  0  0  0  0  0
    3.7054   -1.5803   -4.6851 O   0  0  0  0  0  0  0  0  0  0  0  0
    4.3804   -3.8500   -5.0430 C   0  0  0  0  0  0  0  0  0  0  0  0
    4.9189   -4.2037   -3.8097 C   0  0  0  0  0  0  0  0  0  0  0  0
    5.4356   -5.5009   -3.6484 C   0  0  0  0  0  0  0  0  0  0  0  0
    5.9784   -5.9062   -2.4182 C   0  0  0  0  0  0  0  0  0  0  0  0
    6.4555   -7.2089   -2.2557 C   0  0  0  0  0  0  0  0  0  0  0  0
    6.4078   -8.1172   -3.3195 C   0  0  0  0  0  0  0  0  0  0  0  0
    6.8768   -9.3796   -3.1518 F   0  0  0  0  0  0  0  0  0  0  0  0
    5.8713   -7.7252   -4.5541 C   0  0  0  0  0  0  0  0  0  0  0  0
    5.3805   -6.4262   -4.7336 C   0  0  0  0  0  0  0  0  0  0  0  0
    4.8185   -6.0348   -5.9687 C   0  0  0  0  0  0  0  0  0  0  0  0
    4.3362   -4.7259   -6.1152 C   0  0  0  0  0  0  0  0  0  0  0  0
    3.6438   -4.0694   -7.2656 C   0  0  0  0  0  0  0  0  0  0  0  0
    3.6832   -4.4388   -8.5705 C   0  0  0  0  0  0  0  0  0  0  0  0
    3.1950   -3.5859   -9.6237 C   0  0  0  0  0  0  0  0  0  0  0  0
    2.7990   -2.9021  -10.4696 N   0  0  0  0  0  0  0  0  0  0  0  0
    4.3138   -5.6549   -9.0076 C   0  0  0  0  0  0  0  0  0  0  0  0
    4.8157   -6.6383   -9.3606 N   0  0  0  0  0  0  0  0  0  0  0  0
   -2.4555    2.7814    7.2620 H   0  0  0  0  0  0  0  0  0  0  0  0
   -4.4191   -3.1275    6.4201 H   0  0  0  0  0  0  0  0  0  0  0  0
   -2.5125   -1.5731   10.7624 H   0  0  0  0  0  0  0  0  0  0  0  0
   -4.3221    4.3687    6.3162 H   0  0  0  0  0  0  0  0  0  0  0  0
   -4.4758    5.2735    4.7656 H   0  0  0  0  0  0  0  0  0  0  0  0
   -2.0371    5.8787    4.8704 H   0  0  0  0  0  0  0  0  0  0  0  0
   -2.9298    6.4462    6.3278 H   0  0  0  0  0  0  0  0  0  0  0  0
   -1.8773    4.9801    6.4315 H   0  0  0  0  0  0  0  0  0  0  0  0
    1.5446    2.0022   -8.0247 H   0  0  0  0  0  0  0  0  0  0  0  0
    1.7239    0.3854   -8.7770 H   0  0  0  0  0  0  0  0  0  0  0  0
    3.8867    1.6664   -8.6130 H   0  0  0  0  0  0  0  0  0  0  0  0
    3.7595    1.6228   -6.8160 H   0  0  0  0  0  0  0  0  0  0  0  0
    3.9456    0.0827   -7.7473 H   0  0  0  0  0  0  0  0  0  0  0  0
   -1.1947   -0.2035    1.8008 H   0  0  0  0  0  0  0  0  0  0  0  0
   -0.3990   -0.2036    0.2096 H   0  0  0  0  0  0  0  0  0  0  0  0
    1.1068    1.5651    0.7574 H   0  0  0  0  0  0  0  0  0  0  0  0
    1.1514    0.3747    2.1001 H   0  0  0  0  0  0  0  0  0  0  0  0
    0.2526    1.9333    2.3055 H   0  0  0  0  0  0  0  0  0  0  0  0
   -1.9903   -0.5962   -1.1613 H   0  0  0  0  0  0  0  0  0  0  0  0
   -0.8089   -1.4529   -2.2152 H   0  0  0  0  0  0  0  0  0  0  0  0
   -3.1735   -1.6503   -3.0016 H   0  0  0  0  0  0  0  0  0  0  0  0
   -2.1908   -0.7596   -4.2201 H   0  0  0  0  0  0  0  0  0  0  0  0
   -3.2962    0.1587   -3.1022 H   0  0  0  0  0  0  0  0  0  0  0  0
    1.6079   -2.2923   -8.1431 H   0  0  0  0  0  0  0  0  0  0  0  0
    4.9160   -3.4893   -2.9924 H   0  0  0  0  0  0  0  0  0  0  0  0
    6.0250   -5.2175   -1.5792 H   0  0  0  0  0  0  0  0  0  0  0  0
    6.8605   -7.5131   -1.3026 H   0  0  0  0  0  0  0  0  0  0  0  0
    5.8296   -8.4410   -5.3639 H   0  0  0  0  0  0  0  0  0  0  0  0
    4.7317   -6.7565   -6.7673 H   0  0  0  0  0  0  0  0  0  0  0  0
  1  2  2  3
  2  3  1  0
  3  4  2  0
  3  5  1  0
  5  6  2  0
  6  7  1  0
  7  8  1  0
  7  9  2  0
  9 10  1  0
  9 11  1  0
 11 12  2  0
 12 13  1  0
 13 14  2  3
 14 15  1  0
 15 16  3  0
 14 17  1  0
 17 18  3  0
  1 19  1  0
 19 20  2  0
 20 21  1  0
 21 22  1  0
 20 23  1  0
 23 24  1  0
 24 25  1  0
 25 26  1  0
 26 27  1  0
 27 28  1  0
 28 29  2  0
 29 30  1  0
 30 31  1  0
 28 32  1  0
 32 33  1  0
 33 34  1  0
 34 35  1  0
 35 36  1  0
 36 37  1  0
 37 38  1  0
 36 39  2  0
 39 40  1  0
 40 41  1  0
 41 42  1  0
 42 43  1  0
 43 44  1  0
 44 45  1  0
 45 46  1  0
 46 47  1  0
 47 48  1  0
 48 49  1  0
 46 50  1  0
 50 51  1  0
 43 52  1  0
 52 53  1  0
 39 54  1  0
 54 55  2  3
 55 56  1  0
 56 57  2  0
 56 58  1  0
 58 59  2  0
 59 60  1  0
 60 61  2  0
 61 62  1  0
 62 63  2  0
 63 64  1  0
 63 65  1  0
 65 66  2  0
 66 67  1  0
 67 68  2  0
 68 69  1  0
 69 70  2  3
 70 71  1  0
 71 72  3  0
 70 73  1  0
 73 74  3  0
 13  2  1  0
 49 19  1  0
 69 55  1  0
 12  5  1  0
 48 23  2  0
 68 58  1  0
 47 25  2  0
 66 60  1  0
 45 26  2  0
 31 27  2  0
 44 32  2  0
 42 33  2  0
 41 35  2  0
  1 75  1  0
  6 76  1  0
 11 77  1  0
 21 78  1  0
 21 79  1  0
 22 80  1  0
 22 81  1  0
 22 82  1  0
 37 83  1  0
 37 84  1  0
 38 85  1  0
 38 86  1  0
 38 87  1  0
 50 88  1  0
 50 89  1  0
 51 90  1  0
 51 91  1  0
 51 92  1  0
 52 93  1  0
 52 94  1  0
 53 95  1  0
 53 96  1  0
 53 97  1  0
 54 98  1  0
 59 99  1  0
 61100  1  0
 62101  1  0
 65102  1  0
 67103  1  0
M  END

