
     RDKit          3D

 97108  0  0  0  0  0  0  0  0999 V2000
    0.1795   -7.1976   -0.6085 C   0  0  0  0  0  0  0  0  0  0  0  0
    1.5226   -7.2789   -0.5770 C   0  0  0  0  0  0  0  0  0  0  0  0
    2.4246   -6.3055    0.0566 C   0  0  0  0  0  0  0  0  0  0  0  0
    2.0939   -5.3772    0.8470 O   0  0  0  0  0  0  0  0  0  0  0  0
    3.7701   -6.5737   -0.3917 C   0  0  0  0  0  0  0  0  0  0  0  0
    4.9174   -5.8247   -0.1442 C   0  0  0  0  0  0  0  0  0  0  0  0
    6.1180   -6.2231   -0.7463 C   0  0  0  0  0  0  0  0  0  0  0  0
    7.5739   -5.3146   -0.3895 Cl  0  0  0  0  0  0  0  0  0  0  0  0
    6.1420   -7.3353   -1.6199 C   0  0  0  0  0  0  0  0  0  0  0  0
    7.7452   -7.8653   -2.5261 Br  0  0  0  0  0  0  0  0  0  0  0  0
    4.9631   -8.0650   -1.8622 C   0  0  0  0  0  0  0  0  0  0  0  0
    3.7776   -7.6910   -1.2091 C   0  0  0  0  0  0  0  0  0  0  0  0
    2.3975   -8.2603   -1.2919 C   0  0  0  0  0  0  0  0  0  0  0  0
    2.0596   -9.5088   -1.7107 C   0  0  0  0  0  0  0  0  0  0  0  0
    0.7354  -10.0553   -1.5265 C   0  0  0  0  0  0  0  0  0  0  0  0
   -0.3195  -10.5129   -1.3829 N   0  0  0  0  0  0  0  0  0  0  0  0
    3.0305  -10.4415   -2.2275 C   0  0  0  0  0  0  0  0  0  0  0  0
    3.7994  -11.2010   -2.6428 N   0  0  0  0  0  0  0  0  0  0  0  0
   -0.5615   -6.1123    0.0397 C   0  0  0  0  0  0  0  0  0  0  0  0
   -1.2482   -6.2095    1.2611 C   0  0  0  0  0  0  0  0  0  0  0  0
   -1.3526   -7.4502    2.1023 C   0  0  0  0  0  0  0  0  0  0  0  0
   -2.6203   -8.2185    1.7616 C   0  0  0  0  0  0  0  0  0  0  0  0
   -1.8420   -4.9933    1.5861 C   0  0  0  0  0  0  0  0  0  0  0  0
   -2.6787   -4.4323    2.9618 S   0  0  0  0  0  0  0  0  0  0  0  0
   -2.7690   -2.8694    2.2944 C   0  0  0  0  0  0  0  0  0  0  0  0
   -2.9372   -1.5913    2.7568 C   0  0  0  0  0  0  0  0  0  0  0  0
   -3.1800   -1.1031    4.0486 C   0  0  0  0  0  0  0  0  0  0  0  0
   -2.9827    0.2908    4.3091 C   0  0  0  0  0  0  0  0  0  0  0  0
   -3.2063    0.7204    5.5728 N   0  0  0  0  0  0  0  0  0  0  0  0
   -3.6379   -0.7190    6.2739 S   0  0  0  0  0  0  0  0  0  0  0  0
   -3.5501   -1.8772    5.0969 N   0  0  0  0  0  0  0  0  0  0  0  0
   -2.5785    1.1171    3.2552 C   0  0  0  0  0  0  0  0  0  0  0  0
   -2.4024    2.4656    3.1520 C   0  0  0  0  0  0  0  0  0  0  0  0
   -2.4123    3.8525    4.1241 S   0  0  0  0  0  0  0  0  0  0  0  0
   -2.1477    4.8375    2.7500 C   0  0  0  0  0  0  0  0  0  0  0  0
   -1.9082    6.2005    2.5703 C   0  0  0  0  0  0  0  0  0  0  0  0
   -1.8198    7.2053    3.6833 C   0  0  0  0  0  0  0  0  0  0  0  0
   -0.3677    7.4287    4.0920 C   0  0  0  0  0  0  0  0  0  0  0  0
   -1.6217    6.4790    1.2216 C   0  0  0  0  0  0  0  0  0  0  0  0
   -1.7365    5.0620    0.2753 S   0  0  0  0  0  0  0  0  0  0  0  0
   -2.1104    4.0999    1.5959 C   0  0  0  0  0  0  0  0  0  0  0  0
   -2.2258    2.7461    1.8388 C   0  0  0  0  0  0  0  0  0  0  0  0
   -2.2731    1.6504    1.0477 N   0  0  0  0  0  0  0  0  0  0  0  0
   -2.3943    0.6312    1.9548 C   0  0  0  0  0  0  0  0  0  0  0  0
   -2.4725   -0.7583    1.7246 C   0  0  0  0  0  0  0  0  0  0  0  0
   -1.8870   -1.4886    0.7236 N   0  0  0  0  0  0  0  0  0  0  0  0
   -2.1579   -2.7699    1.0821 C   0  0  0  0  0  0  0  0  0  0  0  0
   -1.6193   -3.9854    0.6787 C   0  0  0  0  0  0  0  0  0  0  0  0
   -0.6869   -4.5367   -0.6006 S   0  0  0  0  0  0  0  0  0  0  0  0
   -0.6763   -1.0968   -0.0245 C   0  0  0  0  0  0  0  0  0  0  0  0
    0.5849   -1.3756    0.7952 C   0  0  0  0  0  0  0  0  0  0  0  0
   -2.7657    1.6706   -0.3370 C   0  0  0  0  0  0  0  0  0  0  0  0
   -4.2828    1.8431   -0.3726 C   0  0  0  0  0  0  0  0  0  0  0  0
   -1.2085    7.7896    0.7014 C   0  0  0  0  0  0  0  0  0  0  0  0
    0.0082    8.0315    0.1750 C   0  0  0  0  0  0  0  0  0  0  0  0
    1.0759    7.0416   -0.0004 C   0  0  0  0  0  0  0  0  0  0  0  0
    1.1839    5.9406    0.6045 O   0  0  0  0  0  0  0  0  0  0  0  0
    2.0409    7.5672   -0.9349 C   0  0  0  0  0  0  0  0  0  0  0  0
    3.1555    6.9257   -1.4738 C   0  0  0  0  0  0  0  0  0  0  0  0
    3.9483    7.6306   -2.3999 C   0  0  0  0  0  0  0  0  0  0  0  0
    5.0582    7.0477   -2.9259 F   0  0  0  0  0  0  0  0  0  0  0  0
    3.5792    8.9258   -2.8002 C   0  0  0  0  0  0  0  0  0  0  0  0
    4.3156    9.5736   -3.7309 F   0  0  0  0  0  0  0  0  0  0  0  0
    2.4494    9.5512   -2.2469 C   0  0  0  0  0  0  0  0  0  0  0  0
    1.6908    8.8647   -1.2842 C   0  0  0  0  0  0  0  0  0  0  0  0
    0.4577    9.2680   -0.5412 C   0  0  0  0  0  0  0  0  0  0  0  0
   -0.0283   10.5249   -0.3812 C   0  0  0  0  0  0  0  0  0  0  0  0
   -1.0154   10.8428    0.6179 C   0  0  0  0  0  0  0  0  0  0  0  0
   -1.8064   11.1067    1.4196 N   0  0  0  0  0  0  0  0  0  0  0  0
    0.4924   11.6625   -1.0928 C   0  0  0  0  0  0  0  0  0  0  0  0
    0.8961   12.5820   -1.6729 N   0  0  0  0  0  0  0  0  0  0  0  0
   -0.4239   -7.8773   -1.1877 H   0  0  0  0  0  0  0  0  0  0  0  0
    4.8775   -4.9498    0.4981 H   0  0  0  0  0  0  0  0  0  0  0  0
    4.9954   -8.8778   -2.5666 H   0  0  0  0  0  0  0  0  0  0  0  0
   -0.4689   -8.1043    1.9441 H   0  0  0  0  0  0  0  0  0  0  0  0
   -1.3663   -7.1728    3.1762 H   0  0  0  0  0  0  0  0  0  0  0  0
   -2.6513   -8.4573    0.6792 H   0  0  0  0  0  0  0  0  0  0  0  0
   -3.5152   -7.6173    2.0273 H   0  0  0  0  0  0  0  0  0  0  0  0
   -2.6460   -9.1682    2.3331 H   0  0  0  0  0  0  0  0  0  0  0  0
   -2.2664    8.1711    3.3530 H   0  0  0  0  0  0  0  0  0  0  0  0
   -2.3973    6.8455    4.5588 H   0  0  0  0  0  0  0  0  0  0  0  0
   -0.3177    8.1484    4.9330 H   0  0  0  0  0  0  0  0  0  0  0  0
    0.1029    6.4765    4.4183 H   0  0  0  0  0  0  0  0  0  0  0  0
    0.2133    7.8476    3.2462 H   0  0  0  0  0  0  0  0  0  0  0  0
   -0.6250   -1.6573   -0.9901 H   0  0  0  0  0  0  0  0  0  0  0  0
   -0.6641   -0.0143   -0.2554 H   0  0  0  0  0  0  0  0  0  0  0  0
    0.7067   -2.4632    0.9701 H   0  0  0  0  0  0  0  0  0  0  0  0
    0.5179   -0.8632    1.7738 H   0  0  0  0  0  0  0  0  0  0  0  0
    1.4810   -0.9998    0.2433 H   0  0  0  0  0  0  0  0  0  0  0  0
   -2.5406    0.7337   -0.8606 H   0  0  0  0  0  0  0  0  0  0  0  0
   -2.2840    2.4934   -0.9041 H   0  0  0  0  0  0  0  0  0  0  0  0
   -4.6048    2.7736    0.1421 H   0  0  0  0  0  0  0  0  0  0  0  0
   -4.6228    1.8766   -1.4250 H   0  0  0  0  0  0  0  0  0  0  0  0
   -4.7562    0.9710    0.1244 H   0  0  0  0  0  0  0  0  0  0  0  0
   -1.9692    8.5483    0.7211 H   0  0  0  0  0  0  0  0  0  0  0  0
    3.4284    5.9180   -1.1809 H   0  0  0  0  0  0  0  0  0  0  0  0
    2.1916   10.5405   -2.5881 H   0  0  0  0  0  0  0  0  0  0  0  0
  1  2  2  3
  2  3  1  0
  3  4  2  0
  3  5  1  0
  5  6  2  0
  6  7  1  0
  7  8  1  0
  7  9  2  0
  9 10  1  0
  9 11  1  0
 11 12  2  0
 12 13  1  0
 13 14  2  3
 14 15  1  0
 15 16  3  0
 14 17  1  0
 17 18  3  0
  1 19  1  0
 19 20  2  0
 20 21  1  0
 21 22  1  0
 20 23  1  0
 23 24  1  0
 24 25  1  0
 25 26  1  0
 26 27  1  0
 27 28  1  0
 28 29  2  0
 29 30  1  0
 30 31  1  0
 28 32  1  0
 32 33  1  0
 33 34  1  0
 34 35  1  0
 35 36  1  0
 36 37  1  0
 37 38  1  0
 36 39  2  0
 39 40  1  0
 40 41  1  0
 41 42  1  0
 42 43  1  0
 43 44  1  0
 44 45  1  0
 45 46  1  0
 46 47  1  0
 47 48  1  0
 48 49  1  0
 46 50  1  0
 50 51  1  0
 43 52  1  0
 52 53  1  0
 39 54  1  0
 54 55  2  3
 55 56  1  0
 56 57  2  0
 56 58  1  0
 58 59  2  0
 59 60  1  0
 60 61  1  0
 60 62  2  0
 62 63  1  0
 62 64  1  0
 64 65  2  0
 65 66  1  0
 66 67  2  3
 67 68  1  0
 68 69  3  0
 67 70  1  0
 70 71  3  0
 13  2  1  0
 49 19  1  0
 66 55  1  0
 12  5  1  0
 48 23  2  0
 65 58  1  0
 47 25  2  0
 45 26  2  0
 31 27  2  0
 44 32  2  0
 42 33  2  0
 41 35  2  0
  1 72  1  0
  6 73  1  0
 11 74  1  0
 21 75  1  0
 21 76  1  0
 22 77  1  0
 22 78  1  0
 22 79  1  0
 37 80  1  0
 37 81  1  0
 38 82  1  0
 38 83  1  0
 38 84  1  0
 50 85  1  0
 50 86  1  0
 51 87  1  0
 51 88  1  0
 51 89  1  0
 52 90  1  0
 52 91  1  0
 53 92  1  0
 53 93  1  0
 53 94  1  0
 54 95  1  0
 59 96  1  0
 64 97  1  0
M  END

