
     RDKit          3D

100111  0  0  0  0  0  0  0  0999 V2000
   -1.9318   -7.0833   -3.1514 C   0  0  0  0  0  0  0  0  0  0  0  0
   -2.3854   -7.5881   -1.9891 C   0  0  0  0  0  0  0  0  0  0  0  0
   -1.8958   -7.2124   -0.6550 C   0  0  0  0  0  0  0  0  0  0  0  0
   -1.2127   -6.1952   -0.3615 O   0  0  0  0  0  0  0  0  0  0  0  0
   -2.2437   -8.2664    0.2690 C   0  0  0  0  0  0  0  0  0  0  0  0
   -1.8918   -8.3760    1.6151 C   0  0  0  0  0  0  0  0  0  0  0  0
   -2.2621   -9.5321    2.3161 C   0  0  0  0  0  0  0  0  0  0  0  0
   -1.8114   -9.6786    4.0124 Cl  0  0  0  0  0  0  0  0  0  0  0  0
   -2.9646  -10.5620    1.6536 C   0  0  0  0  0  0  0  0  0  0  0  0
   -3.4578  -12.1738    2.5602 Br  0  0  0  0  0  0  0  0  0  0  0  0
   -3.3040  -10.4275    0.2952 C   0  0  0  0  0  0  0  0  0  0  0  0
   -2.9468   -9.2565   -0.3928 C   0  0  0  0  0  0  0  0  0  0  0  0
   -3.1619   -8.8523   -1.8158 C   0  0  0  0  0  0  0  0  0  0  0  0
   -4.0363   -9.3957   -2.7033 C   0  0  0  0  0  0  0  0  0  0  0  0
   -4.7545  -10.6166   -2.4433 C   0  0  0  0  0  0  0  0  0  0  0  0
   -5.3260  -11.6081   -2.2537 N   0  0  0  0  0  0  0  0  0  0  0  0
   -4.3690   -8.7454   -3.9485 C   0  0  0  0  0  0  0  0  0  0  0  0
   -4.6309   -8.2228   -4.9480 N   0  0  0  0  0  0  0  0  0  0  0  0
   -1.0428   -5.9148   -3.2291 C   0  0  0  0  0  0  0  0  0  0  0  0
    0.3150   -5.9551   -3.6001 C   0  0  0  0  0  0  0  0  0  0  0  0
    1.0908   -7.2098   -3.8948 C   0  0  0  0  0  0  0  0  0  0  0  0
    1.5557   -7.8742   -2.6043 C   0  0  0  0  0  0  0  0  0  0  0  0
    0.8958   -4.6943   -3.4747 C   0  0  0  0  0  0  0  0  0  0  0  0
    2.5128   -4.1436   -3.5497 S   0  0  0  0  0  0  0  0  0  0  0  0
    2.0325   -2.6078   -3.0175 C   0  0  0  0  0  0  0  0  0  0  0  0
    2.5832   -1.4206   -2.6400 C   0  0  0  0  0  0  0  0  0  0  0  0
    3.8992   -0.9615   -2.7144 C   0  0  0  0  0  0  0  0  0  0  0  0
    4.1932    0.3462   -2.2459 C   0  0  0  0  0  0  0  0  0  0  0  0
    5.4883    0.7468   -2.3105 N   0  0  0  0  0  0  0  0  0  0  0  0
    6.1658   -0.6037   -2.9882 S   0  0  0  0  0  0  0  0  0  0  0  0
    4.9337   -1.6900   -3.2012 N   0  0  0  0  0  0  0  0  0  0  0  0
    3.1599    1.1103   -1.6930 C   0  0  0  0  0  0  0  0  0  0  0  0
    3.2305    2.2511   -0.9536 C   0  0  0  0  0  0  0  0  0  0  0  0
    4.4577    3.1983   -0.2618 S   0  0  0  0  0  0  0  0  0  0  0  0
    3.3508    3.8693    0.8479 C   0  0  0  0  0  0  0  0  0  0  0  0
    3.4950    4.7362    1.9324 C   0  0  0  0  0  0  0  0  0  0  0  0
    4.7897    5.4077    2.2977 C   0  0  0  0  0  0  0  0  0  0  0  0
    4.8685    6.7976    1.6794 C   0  0  0  0  0  0  0  0  0  0  0  0
    2.2724    4.9010    2.6115 C   0  0  0  0  0  0  0  0  0  0  0  0
    1.0934    3.8836    1.9161 S   0  0  0  0  0  0  0  0  0  0  0  0
    2.0992    3.3271    0.6960 C   0  0  0  0  0  0  0  0  0  0  0  0
    2.0333    2.3955   -0.3358 C   0  0  0  0  0  0  0  0  0  0  0  0
    1.1448    1.4203   -0.6661 N   0  0  0  0  0  0  0  0  0  0  0  0
    1.8371    0.6341   -1.5671 C   0  0  0  0  0  0  0  0  0  0  0  0
    1.5226   -0.6393   -2.1402 C   0  0  0  0  0  0  0  0  0  0  0  0
    0.3271   -1.3118   -2.3026 N   0  0  0  0  0  0  0  0  0  0  0  0
    0.7042   -2.5157   -2.7940 C   0  0  0  0  0  0  0  0  0  0  0  0
    0.0419   -3.7049   -3.0559 C   0  0  0  0  0  0  0  0  0  0  0  0
   -1.4895   -4.3301   -2.7797 S   0  0  0  0  0  0  0  0  0  0  0  0
   -1.0487   -0.8084   -2.3932 C   0  0  0  0  0  0  0  0  0  0  0  0
   -1.1429    0.4557   -3.2512 C   0  0  0  0  0  0  0  0  0  0  0  0
   -0.0768    1.1311    0.0945 C   0  0  0  0  0  0  0  0  0  0  0  0
    0.0813   -0.1137    0.9652 C   0  0  0  0  0  0  0  0  0  0  0  0
    2.0915    5.6415    3.8740 C   0  0  0  0  0  0  0  0  0  0  0  0
    1.0167    6.4052    4.1610 C   0  0  0  0  0  0  0  0  0  0  0  0
   -0.1239    6.6754    3.2784 C   0  0  0  0  0  0  0  0  0  0  0  0
   -0.1312    6.5968    2.0216 O   0  0  0  0  0  0  0  0  0  0  0  0
   -1.2258    7.1478    4.0843 C   0  0  0  0  0  0  0  0  0  0  0  0
   -2.5320    7.4371    3.6757 C   0  0  0  0  0  0  0  0  0  0  0  0
   -3.4700    7.8460    4.6446 C   0  0  0  0  0  0  0  0  0  0  0  0
   -4.8823    8.2001    4.2522 C   0  0  0  0  0  0  0  0  0  0  0  0
   -5.2259    7.6262    3.0390 F   0  0  0  0  0  0  0  0  0  0  0  0
   -5.7693    7.7473    5.2096 F   0  0  0  0  0  0  0  0  0  0  0  0
   -4.9983    9.5711    4.1466 F   0  0  0  0  0  0  0  0  0  0  0  0
   -3.0562    7.9666    5.9911 C   0  0  0  0  0  0  0  0  0  0  0  0
   -1.7361    7.6901    6.3724 C   0  0  0  0  0  0  0  0  0  0  0  0
   -0.8117    7.2885    5.3953 C   0  0  0  0  0  0  0  0  0  0  0  0
    0.6417    6.9560    5.4992 C   0  0  0  0  0  0  0  0  0  0  0  0
    1.4878    7.3037    6.5047 C   0  0  0  0  0  0  0  0  0  0  0  0
    2.9205    7.2616    6.3574 C   0  0  0  0  0  0  0  0  0  0  0  0
    4.0724    7.2426    6.2464 N   0  0  0  0  0  0  0  0  0  0  0  0
    1.0345    7.8973    7.7383 C   0  0  0  0  0  0  0  0  0  0  0  0
    0.6957    8.3690    8.7390 N   0  0  0  0  0  0  0  0  0  0  0  0
   -2.0927   -7.6198   -4.0737 H   0  0  0  0  0  0  0  0  0  0  0  0
   -1.3359   -7.5867    2.1056 H   0  0  0  0  0  0  0  0  0  0  0  0
   -3.8026  -11.2466   -0.1884 H   0  0  0  0  0  0  0  0  0  0  0  0
    0.4587   -7.9238   -4.4651 H   0  0  0  0  0  0  0  0  0  0  0  0
    1.9770   -6.9623   -4.5163 H   0  0  0  0  0  0  0  0  0  0  0  0
    0.6850   -8.1471   -1.9760 H   0  0  0  0  0  0  0  0  0  0  0  0
    2.2191   -7.1880   -2.0370 H   0  0  0  0  0  0  0  0  0  0  0  0
    2.1232   -8.7981   -2.8417 H   0  0  0  0  0  0  0  0  0  0  0  0
    4.8880    5.4849    3.4018 H   0  0  0  0  0  0  0  0  0  0  0  0
    5.6486    4.8017    1.9329 H   0  0  0  0  0  0  0  0  0  0  0  0
    4.8167    6.7285    0.5722 H   0  0  0  0  0  0  0  0  0  0  0  0
    4.0370    7.4338    2.0492 H   0  0  0  0  0  0  0  0  0  0  0  0
    5.8331    7.2715    1.9575 H   0  0  0  0  0  0  0  0  0  0  0  0
   -1.6866   -1.5564   -2.9068 H   0  0  0  0  0  0  0  0  0  0  0  0
   -1.5034   -0.7172   -1.3916 H   0  0  0  0  0  0  0  0  0  0  0  0
   -2.2078    0.7697   -3.3199 H   0  0  0  0  0  0  0  0  0  0  0  0
   -0.5549    1.2959   -2.8315 H   0  0  0  0  0  0  0  0  0  0  0  0
   -0.7690    0.2376   -4.2741 H   0  0  0  0  0  0  0  0  0  0  0  0
   -0.3243    1.9719    0.7641 H   0  0  0  0  0  0  0  0  0  0  0  0
   -0.9482    1.0954   -0.5670 H   0  0  0  0  0  0  0  0  0  0  0  0
    0.2545   -1.0177    0.3516 H   0  0  0  0  0  0  0  0  0  0  0  0
    0.9391    0.0147    1.6584 H   0  0  0  0  0  0  0  0  0  0  0  0
   -0.8397   -0.2674    1.5639 H   0  0  0  0  0  0  0  0  0  0  0  0
    2.8408    5.4617    4.6229 H   0  0  0  0  0  0  0  0  0  0  0  0
   -2.8009    7.3274    2.6337 H   0  0  0  0  0  0  0  0  0  0  0  0
   -3.7633    8.2919    6.7430 H   0  0  0  0  0  0  0  0  0  0  0  0
   -1.4801    7.7626    7.4133 H   0  0  0  0  0  0  0  0  0  0  0  0
  1  2  2  3
  2  3  1  0
  3  4  2  0
  3  5  1  0
  5  6  2  0
  6  7  1  0
  7  8  1  0
  7  9  2  0
  9 10  1  0
  9 11  1  0
 11 12  2  0
 12 13  1  0
 13 14  2  3
 14 15  1  0
 15 16  3  0
 14 17  1  0
 17 18  3  0
  1 19  1  0
 19 20  2  0
 20 21  1  0
 21 22  1  0
 20 23  1  0
 23 24  1  0
 24 25  1  0
 25 26  1  0
 26 27  1  0
 27 28  1  0
 28 29  2  0
 29 30  1  0
 30 31  1  0
 28 32  1  0
 32 33  1  0
 33 34  1  0
 34 35  1  0
 35 36  1  0
 36 37  1  0
 37 38  1  0
 36 39  2  0
 39 40  1  0
 40 41  1  0
 41 42  1  0
 42 43  1  0
 43 44  1  0
 44 45  1  0
 45 46  1  0
 46 47  1  0
 47 48  1  0
 48 49  1  0
 46 50  1  0
 50 51  1  0
 43 52  1  0
 52 53  1  0
 39 54  1  0
 54 55  2  3
 55 56  1  0
 56 57  2  0
 56 58  1  0
 58 59  2  0
 59 60  1  0
 60 61  1  0
 61 62  1  0
 61 63  1  0
 61 64  1  0
 60 65  2  0
 65 66  1  0
 66 67  2  0
 67 68  1  0
 68 69  2  3
 69 70  1  0
 70 71  3  0
 69 72  1  0
 72 73  3  0
 13  2  1  0
 49 19  1  0
 68 55  1  0
 12  5  1  0
 48 23  2  0
 67 58  1  0
 47 25  2  0
 45 26  2  0
 31 27  2  0
 44 32  2  0
 42 33  2  0
 41 35  2  0
  1 74  1  0
  6 75  1  0
 11 76  1  0
 21 77  1  0
 21 78  1  0
 22 79  1  0
 22 80  1  0
 22 81  1  0
 37 82  1  0
 37 83  1  0
 38 84  1  0
 38 85  1  0
 38 86  1  0
 50 87  1  0
 50 88  1  0
 51 89  1  0
 51 90  1  0
 51 91  1  0
 52 92  1  0
 52 93  1  0
 53 94  1  0
 53 95  1  0
 53 96  1  0
 54 97  1  0
 59 98  1  0
 65 99  1  0
 66100  1  0
M  END

