
     RDKit          3D

100111  0  0  0  0  0  0  0  0999 V2000
    4.8849   -1.6160    4.4851 C   0  0  0  0  0  0  0  0  0  0  0  0
    3.9249   -1.1594    5.3147 C   0  0  0  0  0  0  0  0  0  0  0  0
    2.5696   -0.7393    4.9320 C   0  0  0  0  0  0  0  0  0  0  0  0
    1.9426   -1.0826    3.8954 O   0  0  0  0  0  0  0  0  0  0  0  0
    2.0330    0.0792    5.9994 C   0  0  0  0  0  0  0  0  0  0  0  0
    0.8423    0.8035    6.0202 C   0  0  0  0  0  0  0  0  0  0  0  0
    0.5800    1.6269    7.1273 C   0  0  0  0  0  0  0  0  0  0  0  0
   -0.9179    2.5347    7.1572 Cl  0  0  0  0  0  0  0  0  0  0  0  0
    1.5286    1.7442    8.1666 C   0  0  0  0  0  0  0  0  0  0  0  0
    1.2503    2.9471    9.6283 Br  0  0  0  0  0  0  0  0  0  0  0  0
    2.7140    0.9940    8.1223 C   0  0  0  0  0  0  0  0  0  0  0  0
    2.9363    0.1245    7.0435 C   0  0  0  0  0  0  0  0  0  0  0  0
    4.0974   -0.7609    6.7449 C   0  0  0  0  0  0  0  0  0  0  0  0
    4.9370   -1.3145    7.6558 C   0  0  0  0  0  0  0  0  0  0  0  0
    5.8351   -2.3821    7.3174 C   0  0  0  0  0  0  0  0  0  0  0  0
    6.5487   -3.2519    7.0474 N   0  0  0  0  0  0  0  0  0  0  0  0
    4.8779   -0.9861    9.0574 C   0  0  0  0  0  0  0  0  0  0  0  0
    4.8301   -0.7283   10.1838 N   0  0  0  0  0  0  0  0  0  0  0  0
    4.7026   -1.7858    3.0367 C   0  0  0  0  0  0  0  0  0  0  0  0
    4.9844   -2.9551    2.3044 C   0  0  0  0  0  0  0  0  0  0  0  0
    5.3873   -4.2691    2.9121 C   0  0  0  0  0  0  0  0  0  0  0  0
    4.1604   -5.0321    3.3997 C   0  0  0  0  0  0  0  0  0  0  0  0
    4.7264   -2.7653    0.9441 C   0  0  0  0  0  0  0  0  0  0  0  0
    4.6704   -3.8194   -0.4024 S   0  0  0  0  0  0  0  0  0  0  0  0
    4.0678   -2.5616   -1.3792 C   0  0  0  0  0  0  0  0  0  0  0  0
    3.5929   -2.3438   -2.6456 C   0  0  0  0  0  0  0  0  0  0  0  0
    3.5164   -3.1612   -3.7751 C   0  0  0  0  0  0  0  0  0  0  0  0
    2.8988   -2.6434   -4.9527 C   0  0  0  0  0  0  0  0  0  0  0  0
    2.8175   -3.4806   -6.0181 N   0  0  0  0  0  0  0  0  0  0  0  0
    3.5603   -4.8192   -5.3853 S   0  0  0  0  0  0  0  0  0  0  0  0
    3.9763   -4.4344   -3.8279 N   0  0  0  0  0  0  0  0  0  0  0  0
    2.3474   -1.3500   -4.9217 C   0  0  0  0  0  0  0  0  0  0  0  0
    1.3929   -0.7991   -5.7363 C   0  0  0  0  0  0  0  0  0  0  0  0
    0.3480   -1.4621   -6.9044 S   0  0  0  0  0  0  0  0  0  0  0  0
   -0.8946   -0.3759   -6.4962 C   0  0  0  0  0  0  0  0  0  0  0  0
   -2.2551   -0.3310   -6.8189 C   0  0  0  0  0  0  0  0  0  0  0  0
   -2.8819   -1.1492   -7.9146 C   0  0  0  0  0  0  0  0  0  0  0  0
   -3.1287   -2.5867   -7.4682 C   0  0  0  0  0  0  0  0  0  0  0  0
   -2.9534    0.4916   -5.9133 C   0  0  0  0  0  0  0  0  0  0  0  0
   -1.8444    1.2032   -4.8372 S   0  0  0  0  0  0  0  0  0  0  0  0
   -0.5067    0.4262   -5.4583 C   0  0  0  0  0  0  0  0  0  0  0  0
    0.7922    0.1953   -5.0132 C   0  0  0  0  0  0  0  0  0  0  0  0
    1.3514    0.3675   -3.7843 N   0  0  0  0  0  0  0  0  0  0  0  0
    2.3625   -0.5625   -3.7536 C   0  0  0  0  0  0  0  0  0  0  0  0
    3.1009   -1.0279   -2.6373 C   0  0  0  0  0  0  0  0  0  0  0  0
    3.3787   -0.4083   -1.4487 N   0  0  0  0  0  0  0  0  0  0  0  0
    3.9139   -1.4001   -0.7014 C   0  0  0  0  0  0  0  0  0  0  0  0
    4.2980   -1.5038    0.6197 C   0  0  0  0  0  0  0  0  0  0  0  0
    4.1972   -0.5415    1.9871 S   0  0  0  0  0  0  0  0  0  0  0  0
    3.6023    1.0251   -1.2107 C   0  0  0  0  0  0  0  0  0  0  0  0
    5.0925    1.3650   -1.1950 C   0  0  0  0  0  0  0  0  0  0  0  0
    0.6379    0.9540   -2.6399 C   0  0  0  0  0  0  0  0  0  0  0  0
    0.5666    2.4773   -2.7561 C   0  0  0  0  0  0  0  0  0  0  0  0
   -4.4089    0.7370   -5.8981 C   0  0  0  0  0  0  0  0  0  0  0  0
   -5.1006    1.0531   -4.7867 C   0  0  0  0  0  0  0  0  0  0  0  0
   -6.2735    1.9231   -4.8245 C   0  0  0  0  0  0  0  0  0  0  0  0
   -6.9621    2.1985   -5.8470 O   0  0  0  0  0  0  0  0  0  0  0  0
   -6.4154    2.5418   -3.5210 C   0  0  0  0  0  0  0  0  0  0  0  0
   -7.2545    3.5928   -3.1466 C   0  0  0  0  0  0  0  0  0  0  0  0
   -7.1297    4.1252   -1.8448 C   0  0  0  0  0  0  0  0  0  0  0  0
   -8.0127    5.2473   -1.3822 C   0  0  0  0  0  0  0  0  0  0  0  0
   -6.1369    3.6216   -0.9741 C   0  0  0  0  0  0  0  0  0  0  0  0
   -5.9799    4.1533    0.2685 F   0  0  0  0  0  0  0  0  0  0  0  0
   -5.2904    2.5811   -1.3843 C   0  0  0  0  0  0  0  0  0  0  0  0
   -5.4578    2.0304   -2.6649 C   0  0  0  0  0  0  0  0  0  0  0  0
   -4.6901    0.9643   -3.3553 C   0  0  0  0  0  0  0  0  0  0  0  0
   -4.0555   -0.0762   -2.7591 C   0  0  0  0  0  0  0  0  0  0  0  0
   -3.6392   -1.2443   -3.4942 C   0  0  0  0  0  0  0  0  0  0  0  0
   -3.3031   -2.1836   -4.0741 N   0  0  0  0  0  0  0  0  0  0  0  0
   -3.8541   -0.1438   -1.3362 C   0  0  0  0  0  0  0  0  0  0  0  0
   -3.6899   -0.2223   -0.1957 N   0  0  0  0  0  0  0  0  0  0  0  0
    5.8685   -1.8478    4.8572 H   0  0  0  0  0  0  0  0  0  0  0  0
    0.1575    0.7418    5.1854 H   0  0  0  0  0  0  0  0  0  0  0  0
    3.4446    1.1332    8.8974 H   0  0  0  0  0  0  0  0  0  0  0  0
    6.0850   -4.0990    3.7627 H   0  0  0  0  0  0  0  0  0  0  0  0
    5.9232   -4.8835    2.1596 H   0  0  0  0  0  0  0  0  0  0  0  0
    4.4736   -6.0175    3.8029 H   0  0  0  0  0  0  0  0  0  0  0  0
    3.4527   -5.2028    2.5563 H   0  0  0  0  0  0  0  0  0  0  0  0
    3.6522   -4.4559    4.2036 H   0  0  0  0  0  0  0  0  0  0  0  0
   -2.1955   -1.1548   -8.8013 H   0  0  0  0  0  0  0  0  0  0  0  0
   -3.8451   -0.6952   -8.2311 H   0  0  0  0  0  0  0  0  0  0  0  0
   -2.1699   -3.0749   -7.1705 H   0  0  0  0  0  0  0  0  0  0  0  0
   -3.8387   -2.6142   -6.6121 H   0  0  0  0  0  0  0  0  0  0  0  0
   -3.5763   -3.1633   -8.3104 H   0  0  0  0  0  0  0  0  0  0  0  0
    3.1379    1.3271   -0.2449 H   0  0  0  0  0  0  0  0  0  0  0  0
    3.1691    1.6143   -2.0295 H   0  0  0  0  0  0  0  0  0  0  0  0
    5.6155    0.8125   -0.3903 H   0  0  0  0  0  0  0  0  0  0  0  0
    5.2194    2.4542   -1.0149 H   0  0  0  0  0  0  0  0  0  0  0  0
    5.5443    1.1131   -2.1751 H   0  0  0  0  0  0  0  0  0  0  0  0
   -0.3886    0.5378   -2.5860 H   0  0  0  0  0  0  0  0  0  0  0  0
    1.0944    0.6749   -1.6757 H   0  0  0  0  0  0  0  0  0  0  0  0
    0.1630    2.7905   -3.7391 H   0  0  0  0  0  0  0  0  0  0  0  0
   -0.0916    2.8817   -1.9587 H   0  0  0  0  0  0  0  0  0  0  0  0
    1.5716    2.9382   -2.6570 H   0  0  0  0  0  0  0  0  0  0  0  0
   -4.8938    0.8596   -6.8617 H   0  0  0  0  0  0  0  0  0  0  0  0
   -7.9709    3.9993   -3.8529 H   0  0  0  0  0  0  0  0  0  0  0  0
   -8.6029    4.9100   -0.5033 H   0  0  0  0  0  0  0  0  0  0  0  0
   -7.3925    6.1288   -1.0954 H   0  0  0  0  0  0  0  0  0  0  0  0
   -8.7189    5.5692   -2.1790 H   0  0  0  0  0  0  0  0  0  0  0  0
   -4.5104    2.2493   -0.7184 H   0  0  0  0  0  0  0  0  0  0  0  0
  1  2  2  3
  2  3  1  0
  3  4  2  0
  3  5  1  0
  5  6  2  0
  6  7  1  0
  7  8  1  0
  7  9  2  0
  9 10  1  0
  9 11  1  0
 11 12  2  0
 12 13  1  0
 13 14  2  3
 14 15  1  0
 15 16  3  0
 14 17  1  0
 17 18  3  0
  1 19  1  0
 19 20  2  0
 20 21  1  0
 21 22  1  0
 20 23  1  0
 23 24  1  0
 24 25  1  0
 25 26  1  0
 26 27  1  0
 27 28  1  0
 28 29  2  0
 29 30  1  0
 30 31  1  0
 28 32  1  0
 32 33  1  0
 33 34  1  0
 34 35  1  0
 35 36  1  0
 36 37  1  0
 37 38  1  0
 36 39  2  0
 39 40  1  0
 40 41  1  0
 41 42  1  0
 42 43  1  0
 43 44  1  0
 44 45  1  0
 45 46  1  0
 46 47  1  0
 47 48  1  0
 48 49  1  0
 46 50  1  0
 50 51  1  0
 43 52  1  0
 52 53  1  0
 39 54  1  0
 54 55  2  3
 55 56  1  0
 56 57  2  0
 56 58  1  0
 58 59  2  0
 59 60  1  0
 60 61  1  0
 60 62  2  0
 62 63  1  0
 62 64  1  0
 64 65  2  0
 65 66  1  0
 66 67  2  3
 67 68  1  0
 68 69  3  0
 67 70  1  0
 70 71  3  0
 13  2  1  0
 49 19  1  0
 66 55  1  0
 12  5  1  0
 48 23  2  0
 65 58  1  0
 47 25  2  0
 45 26  2  0
 31 27  2  0
 44 32  2  0
 42 33  2  0
 41 35  2  0
  1 72  1  0
  6 73  1  0
 11 74  1  0
 21 75  1  0
 21 76  1  0
 22 77  1  0
 22 78  1  0
 22 79  1  0
 37 80  1  0
 37 81  1  0
 38 82  1  0
 38 83  1  0
 38 84  1  0
 50 85  1  0
 50 86  1  0
 51 87  1  0
 51 88  1  0
 51 89  1  0
 52 90  1  0
 52 91  1  0
 53 92  1  0
 53 93  1  0
 53 94  1  0
 54 95  1  0
 59 96  1  0
 61 97  1  0
 61 98  1  0
 61 99  1  0
 64100  1  0
M  END

