
     RDKit          3D

142156  0  0  0  0  0  0  0  0999 V2000
   -1.7453    4.6158    1.3576 C   0  0  0  0  0  0  0  0  0  0  0  0
   -1.2290    5.8477    1.5102 C   0  0  0  0  0  0  0  0  0  0  0  0
   -0.4368    6.3036    2.6597 C   0  0  0  0  0  0  0  0  0  0  0  0
    0.0764    5.5808    3.5545 O   0  0  0  0  0  0  0  0  0  0  0  0
   -0.4644    7.7501    2.6823 C   0  0  0  0  0  0  0  0  0  0  0  0
    0.0378    8.6039    3.6632 C   0  0  0  0  0  0  0  0  0  0  0  0
   -0.2190    9.9794    3.5558 C   0  0  0  0  0  0  0  0  0  0  0  0
    0.4016   11.0546    4.7999 Cl  0  0  0  0  0  0  0  0  0  0  0  0
   -0.9986   10.4694    2.4843 C   0  0  0  0  0  0  0  0  0  0  0  0
   -1.4423   12.3285    2.3449 Br  0  0  0  0  0  0  0  0  0  0  0  0
   -1.4951    9.5871    1.5097 C   0  0  0  0  0  0  0  0  0  0  0  0
   -1.1947    8.2191    1.6061 C   0  0  0  0  0  0  0  0  0  0  0  0
   -1.6257    7.0753    0.7563 C   0  0  0  0  0  0  0  0  0  0  0  0
   -2.0476    7.1334   -0.5337 C   0  0  0  0  0  0  0  0  0  0  0  0
   -2.2089    8.3795   -1.2398 C   0  0  0  0  0  0  0  0  0  0  0  0
   -2.3391    9.3728   -1.8204 N   0  0  0  0  0  0  0  0  0  0  0  0
   -2.2497    5.9541   -1.3347 C   0  0  0  0  0  0  0  0  0  0  0  0
   -2.4185    5.0139   -1.9868 N   0  0  0  0  0  0  0  0  0  0  0  0
   -1.2987    3.4285    2.1010 C   0  0  0  0  0  0  0  0  0  0  0  0
    0.3066    2.8729    2.1536 S   0  0  0  0  0  0  0  0  0  0  0  0
   -0.0920    1.3519    2.7470 C   0  0  0  0  0  0  0  0  0  0  0  0
    0.4936    0.0629    2.4681 C   0  0  0  0  0  0  0  0  0  0  0  0
   -0.5461   -0.8671    2.3966 C   0  0  0  0  0  0  0  0  0  0  0  0
   -1.8970   -0.2259    2.7012 C   0  0  0  0  0  0  0  0  0  0  0  0
   -2.4812   -0.6453    4.0576 C   0  0  0  0  0  0  0  0  0  0  0  0
   -2.0261   -1.7849    4.7564 C   0  0  0  0  0  0  0  0  0  0  0  0
   -2.6062   -2.1534    5.9728 C   0  0  0  0  0  0  0  0  0  0  0  0
   -3.6528   -1.3991    6.5195 C   0  0  0  0  0  0  0  0  0  0  0  0
   -4.3023   -1.8186    7.8114 C   0  0  0  0  0  0  0  0  0  0  0  0
   -5.4828   -2.7497    7.5452 C   0  0  0  0  0  0  0  0  0  0  0  0
   -4.1316   -0.2843    5.8196 C   0  0  0  0  0  0  0  0  0  0  0  0
   -3.5566    0.0846    4.6035 C   0  0  0  0  0  0  0  0  0  0  0  0
   -2.8505   -0.4578    1.5175 C   0  0  0  0  0  0  0  0  0  0  0  0
   -2.5372    0.0767    0.2485 C   0  0  0  0  0  0  0  0  0  0  0  0
   -3.3426   -0.1859   -0.8598 C   0  0  0  0  0  0  0  0  0  0  0  0
   -4.4762   -0.9991   -0.7346 C   0  0  0  0  0  0  0  0  0  0  0  0
   -5.2999   -1.3455   -1.9461 C   0  0  0  0  0  0  0  0  0  0  0  0
   -4.7940   -2.6350   -2.5889 C   0  0  0  0  0  0  0  0  0  0  0  0
   -4.7805   -1.5635    0.5109 C   0  0  0  0  0  0  0  0  0  0  0  0
   -3.9735   -1.3061    1.6214 C   0  0  0  0  0  0  0  0  0  0  0  0
   -1.4529    1.2223    2.7944 C   0  0  0  0  0  0  0  0  0  0  0  0
   -2.1525    2.3814    2.4399 C   0  0  0  0  0  0  0  0  0  0  0  0
   -0.3446   -2.1040    1.7639 C   0  0  0  0  0  0  0  0  0  0  0  0
    0.9164   -2.3486    1.2130 C   0  0  0  0  0  0  0  0  0  0  0  0
    1.2596   -3.3175    0.2094 C   0  0  0  0  0  0  0  0  0  0  0  0
    2.4777   -3.0003   -0.3691 C   0  0  0  0  0  0  0  0  0  0  0  0
    3.0994   -1.7849    0.3269 C   0  0  0  0  0  0  0  0  0  0  0  0
    1.9570   -1.4242    1.2834 C   0  0  0  0  0  0  0  0  0  0  0  0
    1.7638   -0.1970    1.9455 C   0  0  0  0  0  0  0  0  0  0  0  0
    4.3421   -2.2659    1.1021 C   0  0  0  0  0  0  0  0  0  0  0  0
    4.1936   -2.9775    2.3148 C   0  0  0  0  0  0  0  0  0  0  0  0
    5.2995   -3.5061    2.9830 C   0  0  0  0  0  0  0  0  0  0  0  0
    6.5847   -3.3751    2.4420 C   0  0  0  0  0  0  0  0  0  0  0  0
    7.7792   -3.9486    3.1568 C   0  0  0  0  0  0  0  0  0  0  0  0
    8.5024   -2.8709    3.9578 C   0  0  0  0  0  0  0  0  0  0  0  0
    6.7491   -2.6869    1.2344 C   0  0  0  0  0  0  0  0  0  0  0  0
    5.6443   -2.1502    0.5688 C   0  0  0  0  0  0  0  0  0  0  0  0
    3.2984   -0.5580   -0.5818 C   0  0  0  0  0  0  0  0  0  0  0  0
    4.1790    0.4789   -0.2021 C   0  0  0  0  0  0  0  0  0  0  0  0
    4.2441    1.6709   -0.9250 C   0  0  0  0  0  0  0  0  0  0  0  0
    3.4090    1.8763   -2.0299 C   0  0  0  0  0  0  0  0  0  0  0  0
    3.4112    3.2016   -2.7417 C   0  0  0  0  0  0  0  0  0  0  0  0
    2.5398    4.2120   -1.9994 C   0  0  0  0  0  0  0  0  0  0  0  0
    2.5030    0.8733   -2.3979 C   0  0  0  0  0  0  0  0  0  0  0  0
    2.4356   -0.3214   -1.6750 C   0  0  0  0  0  0  0  0  0  0  0  0
    2.5968   -3.6274   -1.6282 C   0  0  0  0  0  0  0  0  0  0  0  0
    1.4696   -4.3443   -1.9548 C   0  0  0  0  0  0  0  0  0  0  0  0
    0.2415   -4.2129   -0.8129 S   0  0  0  0  0  0  0  0  0  0  0  0
    1.4858   -4.5059   -3.3096 C   0  0  0  0  0  0  0  0  0  0  0  0
    0.3301   -4.5974   -4.5126 S   0  0  0  0  0  0  0  0  0  0  0  0
    1.3810   -3.9664   -5.7091 C   0  0  0  0  0  0  0  0  0  0  0  0
    2.5959   -3.5811   -5.1179 C   0  0  0  0  0  0  0  0  0  0  0  0
    2.6134   -3.9005   -3.7587 C   0  0  0  0  0  0  0  0  0  0  0  0
    3.3332   -3.3465   -2.7466 N   0  0  0  0  0  0  0  0  0  0  0  0
    4.6491   -2.7198   -2.8708 C   0  0  0  0  0  0  0  0  0  0  0  0
    5.7416   -3.7212   -2.5147 C   0  0  0  0  0  0  0  0  0  0  0  0
    0.9346   -3.4885   -7.0296 C   0  0  0  0  0  0  0  0  0  0  0  0
    0.0427   -4.1273   -7.8093 C   0  0  0  0  0  0  0  0  0  0  0  0
   -0.2802   -5.5689   -7.7432 C   0  0  0  0  0  0  0  0  0  0  0  0
    0.1471   -6.4055   -6.9038 O   0  0  0  0  0  0  0  0  0  0  0  0
   -1.0481   -5.8942   -8.9228 C   0  0  0  0  0  0  0  0  0  0  0  0
   -1.2258   -4.7750   -9.6976 C   0  0  0  0  0  0  0  0  0  0  0  0
   -1.9190   -5.0017  -10.8839 C   0  0  0  0  0  0  0  0  0  0  0  0
   -2.2832   -6.6585  -10.9061 S   0  0  0  0  0  0  0  0  0  0  0  0
   -1.5676   -7.0676   -9.4342 C   0  0  0  0  0  0  0  0  0  0  0  0
   -1.4899   -8.6696   -8.7312 Cl  0  0  0  0  0  0  0  0  0  0  0  0
   -0.6123   -3.5927   -9.0524 C   0  0  0  0  0  0  0  0  0  0  0  0
   -0.7924   -2.2996   -9.4153 C   0  0  0  0  0  0  0  0  0  0  0  0
   -0.3672   -1.1973   -8.5922 C   0  0  0  0  0  0  0  0  0  0  0  0
   -0.0320   -0.3053   -7.9339 N   0  0  0  0  0  0  0  0  0  0  0  0
   -1.5118   -1.9355  -10.6091 C   0  0  0  0  0  0  0  0  0  0  0  0
   -2.0904   -1.6279  -11.5647 N   0  0  0  0  0  0  0  0  0  0  0  0
   -2.5736    4.4648    0.6814 H   0  0  0  0  0  0  0  0  0  0  0  0
    0.5980    8.2084    4.5000 H   0  0  0  0  0  0  0  0  0  0  0  0
   -2.1387    9.9750    0.7389 H   0  0  0  0  0  0  0  0  0  0  0  0
   -1.2264   -2.4011    4.3695 H   0  0  0  0  0  0  0  0  0  0  0  0
   -2.2411   -3.0348    6.4883 H   0  0  0  0  0  0  0  0  0  0  0  0
   -3.5637   -2.3357    8.4627 H   0  0  0  0  0  0  0  0  0  0  0  0
   -4.6602   -0.9228    8.3634 H   0  0  0  0  0  0  0  0  0  0  0  0
   -6.2237   -2.2581    6.8803 H   0  0  0  0  0  0  0  0  0  0  0  0
   -5.1274   -3.6879    7.0682 H   0  0  0  0  0  0  0  0  0  0  0  0
   -5.9789   -3.0041    8.5049 H   0  0  0  0  0  0  0  0  0  0  0  0
   -4.9576    0.2951    6.2142 H   0  0  0  0  0  0  0  0  0  0  0  0
   -3.9621    0.9422    4.0821 H   0  0  0  0  0  0  0  0  0  0  0  0
   -1.6511    0.6840    0.1101 H   0  0  0  0  0  0  0  0  0  0  0  0
   -3.0715    0.2312   -1.8221 H   0  0  0  0  0  0  0  0  0  0  0  0
   -5.2529   -0.5219   -2.6910 H   0  0  0  0  0  0  0  0  0  0  0  0
   -6.3663   -1.4720   -1.6575 H   0  0  0  0  0  0  0  0  0  0  0  0
   -5.3915   -2.8552   -3.4986 H   0  0  0  0  0  0  0  0  0  0  0  0
   -4.8939   -3.4852   -1.8827 H   0  0  0  0  0  0  0  0  0  0  0  0
   -3.7273   -2.5253   -2.8839 H   0  0  0  0  0  0  0  0  0  0  0  0
   -5.6337   -2.2226    0.6193 H   0  0  0  0  0  0  0  0  0  0  0  0
   -4.2292   -1.7909    2.5547 H   0  0  0  0  0  0  0  0  0  0  0  0
   -3.2208    2.4078    2.2708 H   0  0  0  0  0  0  0  0  0  0  0  0
   -1.1700   -2.7821    1.5875 H   0  0  0  0  0  0  0  0  0  0  0  0
    2.5153    0.5806    1.9247 H   0  0  0  0  0  0  0  0  0  0  0  0
    3.2182   -3.1428    2.7513 H   0  0  0  0  0  0  0  0  0  0  0  0
    5.1489   -4.0353    3.9177 H   0  0  0  0  0  0  0  0  0  0  0  0
    8.4812   -4.3924    2.4204 H   0  0  0  0  0  0  0  0  0  0  0  0
    7.4650   -4.7639    3.8463 H   0  0  0  0  0  0  0  0  0  0  0  0
    8.8924   -2.0824    3.2797 H   0  0  0  0  0  0  0  0  0  0  0  0
    9.3587   -3.3239    4.5019 H   0  0  0  0  0  0  0  0  0  0  0  0
    7.8157   -2.4110    4.6986 H   0  0  0  0  0  0  0  0  0  0  0  0
    7.7349   -2.5704    0.8021 H   0  0  0  0  0  0  0  0  0  0  0  0
    5.8277   -1.6338   -0.3572 H   0  0  0  0  0  0  0  0  0  0  0  0
    4.7864    0.3916    0.6890 H   0  0  0  0  0  0  0  0  0  0  0  0
    4.9194    2.4522   -0.5980 H   0  0  0  0  0  0  0  0  0  0  0  0
    4.4493    3.5930   -2.8104 H   0  0  0  0  0  0  0  0  0  0  0  0
    3.0317    3.0838   -3.7799 H   0  0  0  0  0  0  0  0  0  0  0  0
    2.9426    4.3952   -0.9801 H   0  0  0  0  0  0  0  0  0  0  0  0
    2.5293    5.1747   -2.5539 H   0  0  0  0  0  0  0  0  0  0  0  0
    1.4959    3.8373   -1.9176 H   0  0  0  0  0  0  0  0  0  0  0  0
    1.8193    1.0282   -3.2229 H   0  0  0  0  0  0  0  0  0  0  0  0
    1.6765   -1.0395   -1.9534 H   0  0  0  0  0  0  0  0  0  0  0  0
    3.3417   -2.9774   -5.6173 H   0  0  0  0  0  0  0  0  0  0  0  0
    4.8133   -2.3682   -3.9120 H   0  0  0  0  0  0  0  0  0  0  0  0
    4.7225   -1.8291   -2.2346 H   0  0  0  0  0  0  0  0  0  0  0  0
    6.7330   -3.2244   -2.5581 H   0  0  0  0  0  0  0  0  0  0  0  0
    5.7281   -4.5663   -3.2355 H   0  0  0  0  0  0  0  0  0  0  0  0
    5.5797   -4.1175   -1.4914 H   0  0  0  0  0  0  0  0  0  0  0  0
    1.3512   -2.5480   -7.3512 H   0  0  0  0  0  0  0  0  0  0  0  0
   -2.1689   -4.2913  -11.6554 H   0  0  0  0  0  0  0  0  0  0  0  0
  1  2  2  3
  2  3  1  0
  3  4  2  0
  3  5  1  0
  5  6  2  0
  6  7  1  0
  7  8  1  0
  7  9  2  0
  9 10  1  0
  9 11  1  0
 11 12  2  0
 12 13  1  0
 13 14  2  3
 14 15  1  0
 15 16  3  0
 14 17  1  0
 17 18  3  0
  1 19  1  0
 19 20  1  0
 20 21  1  0
 21 22  1  0
 22 23  2  0
 23 24  1  0
 24 25  1  0
 25 26  2  0
 26 27  1  0
 27 28  2  0
 28 29  1  0
 29 30  1  0
 28 31  1  0
 31 32  2  0
 24 33  1  0
 33 34  2  0
 34 35  1  0
 35 36  2  0
 36 37  1  0
 37 38  1  0
 36 39  1  0
 39 40  2  0
 24 41  1  0
 41 42  1  0
 23 43  1  0
 43 44  2  0
 44 45  1  0
 45 46  2  0
 46 47  1  0
 47 48  1  0
 48 49  2  0
 47 50  1  0
 50 51  2  0
 51 52  1  0
 52 53  2  0
 53 54  1  0
 54 55  1  0
 53 56  1  0
 56 57  2  0
 47 58  1  0
 58 59  2  0
 59 60  1  0
 60 61  2  0
 61 62  1  0
 62 63  1  0
 61 64  1  0
 64 65  2  0
 46 66  1  0
 66 67  2  0
 67 68  1  0
 67 69  1  0
 69 70  1  0
 70 71  1  0
 71 72  2  0
 72 73  1  0
 73 74  1  0
 74 75  1  0
 75 76  1  0
 71 77  1  0
 77 78  2  3
 78 79  1  0
 79 80  2  0
 79 81  1  0
 81 82  1  0
 82 83  2  0
 83 84  1  0
 84 85  1  0
 85 86  1  0
 82 87  1  0
 87 88  2  3
 88 89  1  0
 89 90  3  0
 88 91  1  0
 91 92  3  0
 13  2  1  0
 42 19  2  0
 48 44  1  0
 57 50  1  0
 65 58  1  0
 74 66  1  0
 87 78  1  0
 12  5  1  0
 41 21  2  0
 68 45  1  0
 73 69  2  0
 85 81  2  0
 49 22  1  0
 32 25  1  0
 40 33  1  0
  1 93  1  0
  6 94  1  0
 11 95  1  0
 26 96  1  0
 27 97  1  0
 29 98  1  0
 29 99  1  0
 30100  1  0
 30101  1  0
 30102  1  0
 31103  1  0
 32104  1  0
 34105  1  0
 35106  1  0
 37107  1  0
 37108  1  0
 38109  1  0
 38110  1  0
 38111  1  0
 39112  1  0
 40113  1  0
 42114  1  0
 43115  1  0
 49116  1  0
 51117  1  0
 52118  1  0
 54119  1  0
 54120  1  0
 55121  1  0
 55122  1  0
 55123  1  0
 56124  1  0
 57125  1  0
 59126  1  0
 60127  1  0
 62128  1  0
 62129  1  0
 63130  1  0
 63131  1  0
 63132  1  0
 64133  1  0
 65134  1  0
 72135  1  0
 75136  1  0
 75137  1  0
 76138  1  0
 76139  1  0
 76140  1  0
 77141  1  0
 83142  1  0
M  END

