
     RDKit          3D

142156  0  0  0  0  0  0  0  0999 V2000
   -4.3694   -3.2510    5.5103 C   0  0  0  0  0  0  0  0  0  0  0  0
   -5.2452   -2.2693    5.2107 C   0  0  0  0  0  0  0  0  0  0  0  0
   -5.2281   -1.4478    3.9886 C   0  0  0  0  0  0  0  0  0  0  0  0
   -4.2573   -1.2882    3.2016 O   0  0  0  0  0  0  0  0  0  0  0  0
   -6.5322   -0.8436    3.8331 C   0  0  0  0  0  0  0  0  0  0  0  0
   -6.9929   -0.0622    2.7748 C   0  0  0  0  0  0  0  0  0  0  0  0
   -8.3226    0.3795    2.7973 C   0  0  0  0  0  0  0  0  0  0  0  0
   -8.9092    1.3653    1.4630 Cl  0  0  0  0  0  0  0  0  0  0  0  0
   -9.1734    0.0070    3.8667 C   0  0  0  0  0  0  0  0  0  0  0  0
  -11.0081    0.5558    3.9099 Br  0  0  0  0  0  0  0  0  0  0  0  0
   -8.6797   -0.7792    4.9228 C   0  0  0  0  0  0  0  0  0  0  0  0
   -7.3346   -1.1823    4.9083 C   0  0  0  0  0  0  0  0  0  0  0  0
   -6.5467   -1.9831    5.8898 C   0  0  0  0  0  0  0  0  0  0  0  0
   -6.8314   -2.1725    7.2020 C   0  0  0  0  0  0  0  0  0  0  0  0
   -5.8429   -2.6536    8.1330 C   0  0  0  0  0  0  0  0  0  0  0  0
   -5.0409   -3.0242    8.8773 N   0  0  0  0  0  0  0  0  0  0  0  0
   -8.0884   -1.7857    7.7904 C   0  0  0  0  0  0  0  0  0  0  0  0
   -9.0939   -1.4764    8.2745 N   0  0  0  0  0  0  0  0  0  0  0  0
   -3.2578   -3.6044    4.6185 C   0  0  0  0  0  0  0  0  0  0  0  0
   -3.4329   -4.1002    3.3231 C   0  0  0  0  0  0  0  0  0  0  0  0
   -2.2549   -4.0142    2.5963 C   0  0  0  0  0  0  0  0  0  0  0  0
   -2.0183   -3.9256    0.9287 S   0  0  0  0  0  0  0  0  0  0  0  0
   -0.4527   -3.3147    1.1258 C   0  0  0  0  0  0  0  0  0  0  0  0
    0.3259   -2.4297    0.3071 C   0  0  0  0  0  0  0  0  0  0  0  0
    0.0416   -1.9775   -0.9826 C   0  0  0  0  0  0  0  0  0  0  0  0
    0.8421   -0.9437   -1.4874 C   0  0  0  0  0  0  0  0  0  0  0  0
    0.6007   -0.0930   -2.7337 C   0  0  0  0  0  0  0  0  0  0  0  0
   -0.5592    0.8751   -2.4123 C   0  0  0  0  0  0  0  0  0  0  0  0
   -0.3600    2.2581   -2.1844 C   0  0  0  0  0  0  0  0  0  0  0  0
   -1.4152    3.0827   -1.7898 C   0  0  0  0  0  0  0  0  0  0  0  0
   -2.6973    2.5455   -1.5750 C   0  0  0  0  0  0  0  0  0  0  0  0
   -3.7806    3.3194   -1.1251 O   0  0  0  0  0  0  0  0  0  0  0  0
   -3.7296    4.7100   -0.8012 C   0  0  0  0  0  0  0  0  0  0  0  0
   -3.0812    4.9317    0.5626 C   0  0  0  0  0  0  0  0  0  0  0  0
   -2.9113    1.1855   -1.8186 C   0  0  0  0  0  0  0  0  0  0  0  0
   -1.8640    0.3633   -2.2435 C   0  0  0  0  0  0  0  0  0  0  0  0
    0.3599   -0.8875   -4.0188 C   0  0  0  0  0  0  0  0  0  0  0  0
    0.7806   -2.2265   -4.1593 C   0  0  0  0  0  0  0  0  0  0  0  0
    0.4706   -2.9560   -5.3160 C   0  0  0  0  0  0  0  0  0  0  0  0
   -0.2309   -2.3475   -6.3716 C   0  0  0  0  0  0  0  0  0  0  0  0
   -0.6217   -3.0399   -7.5303 O   0  0  0  0  0  0  0  0  0  0  0  0
   -0.4418   -4.4372   -7.7702 C   0  0  0  0  0  0  0  0  0  0  0  0
    0.9624   -4.7147   -8.2960 C   0  0  0  0  0  0  0  0  0  0  0  0
   -0.5746   -0.9982   -6.2701 C   0  0  0  0  0  0  0  0  0  0  0  0
   -0.2774   -0.2728   -5.1139 C   0  0  0  0  0  0  0  0  0  0  0  0
    1.9350    0.6066   -2.7603 C   0  0  0  0  0  0  0  0  0  0  0  0
    2.6190    0.4747   -1.5849 C   0  0  0  0  0  0  0  0  0  0  0  0
    1.9302   -0.4684   -0.7445 C   0  0  0  0  0  0  0  0  0  0  0  0
    2.1328   -0.8232    0.5960 C   0  0  0  0  0  0  0  0  0  0  0  0
    1.2660   -1.7978    1.1303 C   0  0  0  0  0  0  0  0  0  0  0  0
    1.0232   -2.1286    2.6034 C   0  0  0  0  0  0  0  0  0  0  0  0
    2.1971   -2.8422    3.2873 C   0  0  0  0  0  0  0  0  0  0  0  0
    2.0998   -3.1771    4.6541 C   0  0  0  0  0  0  0  0  0  0  0  0
    3.1813   -3.7478    5.3313 C   0  0  0  0  0  0  0  0  0  0  0  0
    4.3782   -4.0252    4.6531 C   0  0  0  0  0  0  0  0  0  0  0  0
    5.5064   -4.5591    5.2950 O   0  0  0  0  0  0  0  0  0  0  0  0
    5.6987   -4.6396    6.7082 C   0  0  0  0  0  0  0  0  0  0  0  0
    5.9388   -3.2511    7.2993 C   0  0  0  0  0  0  0  0  0  0  0  0
    4.4637   -3.7561    3.2848 C   0  0  0  0  0  0  0  0  0  0  0  0
    3.3878   -3.1780    2.6041 C   0  0  0  0  0  0  0  0  0  0  0  0
    0.5770   -0.8377    3.3095 C   0  0  0  0  0  0  0  0  0  0  0  0
    1.4520   -0.1124    4.1475 C   0  0  0  0  0  0  0  0  0  0  0  0
    1.0356    1.0705    4.7652 C   0  0  0  0  0  0  0  0  0  0  0  0
   -0.2365    1.5918    4.5232 C   0  0  0  0  0  0  0  0  0  0  0  0
   -0.6186    2.7601    5.1965 O   0  0  0  0  0  0  0  0  0  0  0  0
   -1.8652    3.4277    5.0110 C   0  0  0  0  0  0  0  0  0  0  0  0
   -1.9779    4.5766    5.9987 C   0  0  0  0  0  0  0  0  0  0  0  0
   -1.0859    0.9253    3.6224 C   0  0  0  0  0  0  0  0  0  0  0  0
   -0.6799   -0.2673    3.0173 C   0  0  0  0  0  0  0  0  0  0  0  0
   -0.1236   -3.1157    2.4449 C   0  0  0  0  0  0  0  0  0  0  0  0
   -1.1737   -3.5082    3.2760 C   0  0  0  0  0  0  0  0  0  0  0  0
   -1.6520   -3.0776    4.8296 S   0  0  0  0  0  0  0  0  0  0  0  0
    4.0212    1.4419   -1.5359 S   0  0  0  0  0  0  0  0  0  0  0  0
    3.6986    2.0485   -3.0940 C   0  0  0  0  0  0  0  0  0  0  0  0
    4.3055    2.9965   -3.9111 C   0  0  0  0  0  0  0  0  0  0  0  0
    3.5496    3.1930   -5.0802 C   0  0  0  0  0  0  0  0  0  0  0  0
    2.1878    2.1622   -5.0947 S   0  0  0  0  0  0  0  0  0  0  0  0
    2.5548    1.5053   -3.6056 C   0  0  0  0  0  0  0  0  0  0  0  0
    3.9414    4.0590   -6.2032 C   0  0  0  0  0  0  0  0  0  0  0  0
    3.0530    4.6501   -7.0202 C   0  0  0  0  0  0  0  0  0  0  0  0
    3.2891    4.8130   -8.4534 C   0  0  0  0  0  0  0  0  0  0  0  0
    4.4105    4.7822   -9.0274 O   0  0  0  0  0  0  0  0  0  0  0  0
    1.9965    4.8515   -9.1190 C   0  0  0  0  0  0  0  0  0  0  0  0
    1.7206    4.7530  -10.4823 C   0  0  0  0  0  0  0  0  0  0  0  0
    0.3838    4.6252  -10.8892 C   0  0  0  0  0  0  0  0  0  0  0  0
    0.0902    4.4855  -12.2037 F   0  0  0  0  0  0  0  0  0  0  0  0
   -0.6443    4.5655   -9.9319 C   0  0  0  0  0  0  0  0  0  0  0  0
   -1.9280    4.3857  -10.3274 F   0  0  0  0  0  0  0  0  0  0  0  0
   -0.3461    4.6530   -8.5651 C   0  0  0  0  0  0  0  0  0  0  0  0
    0.9899    4.8125   -8.1687 C   0  0  0  0  0  0  0  0  0  0  0  0
    1.5872    4.8288   -6.8108 C   0  0  0  0  0  0  0  0  0  0  0  0
    0.9980    5.2730   -5.6758 C   0  0  0  0  0  0  0  0  0  0  0  0
   -0.4062    5.5930   -5.6111 C   0  0  0  0  0  0  0  0  0  0  0  0
   -1.5366    5.8508   -5.5502 N   0  0  0  0  0  0  0  0  0  0  0  0
    1.7627    5.5859   -4.4935 C   0  0  0  0  0  0  0  0  0  0  0  0
    2.3699    5.8411   -3.5432 N   0  0  0  0  0  0  0  0  0  0  0  0
   -4.5334   -3.8990    6.3566 H   0  0  0  0  0  0  0  0  0  0  0  0
   -6.3370    0.1868    1.9500 H   0  0  0  0  0  0  0  0  0  0  0  0
   -9.3582   -1.0839    5.7004 H   0  0  0  0  0  0  0  0  0  0  0  0
   -4.3953   -4.3459    2.8901 H   0  0  0  0  0  0  0  0  0  0  0  0
   -0.7907   -2.3800   -1.5446 H   0  0  0  0  0  0  0  0  0  0  0  0
    0.6094    2.7219   -2.2837 H   0  0  0  0  0  0  0  0  0  0  0  0
   -1.2145    4.1358   -1.6364 H   0  0  0  0  0  0  0  0  0  0  0  0
   -4.7703    5.0901   -0.7542 H   0  0  0  0  0  0  0  0  0  0  0  0
   -3.2064    5.2874   -1.5960 H   0  0  0  0  0  0  0  0  0  0  0  0
   -2.0016    4.6693    0.5376 H   0  0  0  0  0  0  0  0  0  0  0  0
   -3.1738    5.9983    0.8537 H   0  0  0  0  0  0  0  0  0  0  0  0
   -3.5729    4.2932    1.3305 H   0  0  0  0  0  0  0  0  0  0  0  0
   -3.8955    0.7577   -1.6662 H   0  0  0  0  0  0  0  0  0  0  0  0
   -2.0705   -0.6805   -2.4280 H   0  0  0  0  0  0  0  0  0  0  0  0
    1.3363   -2.7189   -3.3731 H   0  0  0  0  0  0  0  0  0  0  0  0
    0.7814   -3.9899   -5.3683 H   0  0  0  0  0  0  0  0  0  0  0  0
   -1.1749   -4.7540   -8.5423 H   0  0  0  0  0  0  0  0  0  0  0  0
   -0.6485   -5.0296   -6.8522 H   0  0  0  0  0  0  0  0  0  0  0  0
    1.0481   -5.7862   -8.5712 H   0  0  0  0  0  0  0  0  0  0  0  0
    1.1597   -4.0957   -9.1951 H   0  0  0  0  0  0  0  0  0  0  0  0
    1.7258   -4.4812   -7.5241 H   0  0  0  0  0  0  0  0  0  0  0  0
   -1.0965   -0.5127   -7.0866 H   0  0  0  0  0  0  0  0  0  0  0  0
   -0.5747    0.7700   -5.0711 H   0  0  0  0  0  0  0  0  0  0  0  0
    2.8759   -0.3262    1.2048 H   0  0  0  0  0  0  0  0  0  0  0  0
    1.1999   -2.9526    5.2085 H   0  0  0  0  0  0  0  0  0  0  0  0
    3.0675   -3.9636    6.3826 H   0  0  0  0  0  0  0  0  0  0  0  0
    6.5971   -5.2636    6.9055 H   0  0  0  0  0  0  0  0  0  0  0  0
    4.8371   -5.1347    7.1997 H   0  0  0  0  0  0  0  0  0  0  0  0
    5.0562   -2.6009    7.1414 H   0  0  0  0  0  0  0  0  0  0  0  0
    6.8201   -2.7801    6.8125 H   0  0  0  0  0  0  0  0  0  0  0  0
    6.1308   -3.3307    8.3884 H   0  0  0  0  0  0  0  0  0  0  0  0
    5.3788   -3.9829    2.7468 H   0  0  0  0  0  0  0  0  0  0  0  0
    3.5082   -2.9870    1.5483 H   0  0  0  0  0  0  0  0  0  0  0  0
    2.4597   -0.4585    4.3402 H   0  0  0  0  0  0  0  0  0  0  0  0
    1.7160    1.5981    5.4246 H   0  0  0  0  0  0  0  0  0  0  0  0
   -2.7091    2.7249    5.1785 H   0  0  0  0  0  0  0  0  0  0  0  0
   -1.9149    3.8296    3.9741 H   0  0  0  0  0  0  0  0  0  0  0  0
   -1.9823    4.1820    7.0385 H   0  0  0  0  0  0  0  0  0  0  0  0
   -2.9237    5.1327    5.8211 H   0  0  0  0  0  0  0  0  0  0  0  0
   -1.1188    5.2734    5.8724 H   0  0  0  0  0  0  0  0  0  0  0  0
   -2.0628    1.3180    3.3847 H   0  0  0  0  0  0  0  0  0  0  0  0
   -1.3607   -0.7465    2.3234 H   0  0  0  0  0  0  0  0  0  0  0  0
    5.2153    3.5351   -3.6648 H   0  0  0  0  0  0  0  0  0  0  0  0
    4.9856    4.0316   -6.4908 H   0  0  0  0  0  0  0  0  0  0  0  0
    2.5190    4.7295  -11.2091 H   0  0  0  0  0  0  0  0  0  0  0  0
   -1.1436    4.5382   -7.8490 H   0  0  0  0  0  0  0  0  0  0  0  0
  1  2  2  3
  2  3  1  0
  3  4  2  0
  3  5  1  0
  5  6  2  0
  6  7  1  0
  7  8  1  0
  7  9  2  0
  9 10  1  0
  9 11  1  0
 11 12  2  0
 12 13  1  0
 13 14  2  3
 14 15  1  0
 15 16  3  0
 14 17  1  0
 17 18  3  0
  1 19  1  0
 19 20  2  0
 20 21  1  0
 21 22  1  0
 22 23  1  0
 23 24  1  0
 24 25  2  0
 25 26  1  0
 26 27  1  0
 27 28  1  0
 28 29  2  0
 29 30  1  0
 30 31  2  0
 31 32  1  0
 32 33  1  0
 33 34  1  0
 31 35  1  0
 35 36  2  0
 27 37  1  0
 37 38  2  0
 38 39  1  0
 39 40  2  0
 40 41  1  0
 41 42  1  0
 42 43  1  0
 40 44  1  0
 44 45  2  0
 27 46  1  0
 46 47  2  0
 47 48  1  0
 48 49  1  0
 49 50  2  0
 50 51  1  0
 51 52  1  0
 52 53  2  0
 53 54  1  0
 54 55  2  0
 55 56  1  0
 56 57  1  0
 57 58  1  0
 55 59  1  0
 59 60  2  0
 51 61  1  0
 61 62  2  0
 62 63  1  0
 63 64  2  0
 64 65  1  0
 65 66  1  0
 66 67  1  0
 64 68  1  0
 68 69  2  0
 51 70  1  0
 70 71  1  0
 71 72  1  0
 47 73  1  0
 73 74  1  0
 74 75  1  0
 75 76  2  0
 76 77  1  0
 77 78  1  0
 76 79  1  0
 79 80  2  3
 80 81  1  0
 81 82  2  0
 81 83  1  0
 83 84  2  0
 84 85  1  0
 85 86  1  0
 85 87  2  0
 87 88  1  0
 87 89  1  0
 89 90  2  0
 90 91  1  0
 91 92  2  3
 92 93  1  0
 93 94  3  0
 92 95  1  0
 95 96  3  0
 13  2  1  0
 72 19  1  0
 78 74  2  0
 91 80  1  0
 12  5  1  0
 71 21  2  0
 90 83  1  0
 70 23  2  0
 50 24  1  0
 60 52  1  0
 69 61  1  0
 48 26  2  0
 36 28  1  0
 45 37  1  0
 78 46  1  0
  1 97  1  0
  6 98  1  0
 11 99  1  0
 20100  1  0
 25101  1  0
 29102  1  0
 30103  1  0
 33104  1  0
 33105  1  0
 34106  1  0
 34107  1  0
 34108  1  0
 35109  1  0
 36110  1  0
 38111  1  0
 39112  1  0
 42113  1  0
 42114  1  0
 43115  1  0
 43116  1  0
 43117  1  0
 44118  1  0
 45119  1  0
 49120  1  0
 53121  1  0
 54122  1  0
 57123  1  0
 57124  1  0
 58125  1  0
 58126  1  0
 58127  1  0
 59128  1  0
 60129  1  0
 62130  1  0
 63131  1  0
 66132  1  0
 66133  1  0
 67134  1  0
 67135  1  0
 67136  1  0
 68137  1  0
 69138  1  0
 75139  1  0
 79140  1  0
 84141  1  0
 89142  1  0
M  END

