
     RDKit          3D

154170  0  0  0  0  0  0  0  0999 V2000
    4.7199   -3.8121    5.0358 C   0  0  0  0  0  0  0  0  0  0  0  0
    5.5623   -4.8660    5.0236 C   0  0  0  0  0  0  0  0  0  0  0  0
    5.2098   -6.2932    4.9612 C   0  0  0  0  0  0  0  0  0  0  0  0
    4.1350   -6.8103    5.3528 O   0  0  0  0  0  0  0  0  0  0  0  0
    6.3781   -7.0220    4.5128 C   0  0  0  0  0  0  0  0  0  0  0  0
    6.4852   -8.3740    4.1904 C   0  0  0  0  0  0  0  0  0  0  0  0
    7.7087   -8.8543    3.6935 C   0  0  0  0  0  0  0  0  0  0  0  0
    7.8577  -10.5612    3.3148 Cl  0  0  0  0  0  0  0  0  0  0  0  0
    8.7906   -7.9645    3.5059 C   0  0  0  0  0  0  0  0  0  0  0  0
   10.4622   -8.5760    2.7987 Br  0  0  0  0  0  0  0  0  0  0  0  0
    8.6524   -6.6024    3.8269 C   0  0  0  0  0  0  0  0  0  0  0  0
    7.4419   -6.1469    4.3684 C   0  0  0  0  0  0  0  0  0  0  0  0
    7.0397   -4.7900    4.8183 C   0  0  0  0  0  0  0  0  0  0  0  0
    7.8685   -3.7797    5.1949 C   0  0  0  0  0  0  0  0  0  0  0  0
    7.4007   -2.6216    5.9082 C   0  0  0  0  0  0  0  0  0  0  0  0
    7.0296   -1.6901    6.4835 N   0  0  0  0  0  0  0  0  0  0  0  0
    9.2964   -3.8503    5.0430 C   0  0  0  0  0  0  0  0  0  0  0  0
   10.4444   -3.8932    4.9273 N   0  0  0  0  0  0  0  0  0  0  0  0
    3.2474   -3.8254    5.0077 C   0  0  0  0  0  0  0  0  0  0  0  0
    2.3939   -2.4072    5.4308 S   0  0  0  0  0  0  0  0  0  0  0  0
    0.9716   -2.9173    4.7228 C   0  0  0  0  0  0  0  0  0  0  0  0
   -0.0368   -2.2760    4.0823 C   0  0  0  0  0  0  0  0  0  0  0  0
   -0.5343   -0.6760    3.8750 S   0  0  0  0  0  0  0  0  0  0  0  0
   -1.4832   -1.1620    2.5509 C   0  0  0  0  0  0  0  0  0  0  0  0
   -2.2300   -0.4496    1.5586 C   0  0  0  0  0  0  0  0  0  0  0  0
   -2.4010    0.9261    1.4001 C   0  0  0  0  0  0  0  0  0  0  0  0
   -2.8570    1.3753    0.1528 C   0  0  0  0  0  0  0  0  0  0  0  0
   -2.9384    2.8216   -0.3202 C   0  0  0  0  0  0  0  0  0  0  0  0
   -1.6497    3.5487    0.0937 C   0  0  0  0  0  0  0  0  0  0  0  0
   -1.6351    4.4775    1.1551 C   0  0  0  0  0  0  0  0  0  0  0  0
   -0.4375    5.0626    1.5781 C   0  0  0  0  0  0  0  0  0  0  0  0
    0.7730    4.7356    0.9503 C   0  0  0  0  0  0  0  0  0  0  0  0
    2.0497    5.4018    1.3870 C   0  0  0  0  0  0  0  0  0  0  0  0
    2.1625    6.8025    0.7920 C   0  0  0  0  0  0  0  0  0  0  0  0
    0.7791    3.7888   -0.0814 C   0  0  0  0  0  0  0  0  0  0  0  0
   -0.4124    3.1817   -0.4846 C   0  0  0  0  0  0  0  0  0  0  0  0
   -4.2415    3.5230    0.1010 C   0  0  0  0  0  0  0  0  0  0  0  0
   -4.4728    4.8522   -0.2999 C   0  0  0  0  0  0  0  0  0  0  0  0
   -5.7072    5.4717   -0.0779 C   0  0  0  0  0  0  0  0  0  0  0  0
   -6.7505    4.7725    0.5514 C   0  0  0  0  0  0  0  0  0  0  0  0
   -8.1026    5.4084    0.7451 C   0  0  0  0  0  0  0  0  0  0  0  0
   -8.2801    5.9392    2.1641 C   0  0  0  0  0  0  0  0  0  0  0  0
   -6.5238    3.4558    0.9845 C   0  0  0  0  0  0  0  0  0  0  0  0
   -5.2855    2.8425    0.7637 C   0  0  0  0  0  0  0  0  0  0  0  0
   -3.0293    2.5668   -1.8135 C   0  0  0  0  0  0  0  0  0  0  0  0
   -3.1642    1.2203   -2.1138 C   0  0  0  0  0  0  0  0  0  0  0  0
   -3.0814    0.4682   -0.8791 C   0  0  0  0  0  0  0  0  0  0  0  0
   -2.9614   -0.9150   -0.7051 C   0  0  0  0  0  0  0  0  0  0  0  0
   -2.5622   -1.3724    0.5686 C   0  0  0  0  0  0  0  0  0  0  0  0
   -2.2402   -2.8106    0.9977 C   0  0  0  0  0  0  0  0  0  0  0  0
   -3.5673   -3.4503    1.4686 C   0  0  0  0  0  0  0  0  0  0  0  0
   -3.7171   -4.0181    2.7604 C   0  0  0  0  0  0  0  0  0  0  0  0
   -4.9706   -4.3734    3.2518 C   0  0  0  0  0  0  0  0  0  0  0  0
   -6.1177   -4.1943    2.4652 C   0  0  0  0  0  0  0  0  0  0  0  0
   -7.4750   -4.5051    3.0370 C   0  0  0  0  0  0  0  0  0  0  0  0
   -7.8262   -5.9832    2.8543 C   0  0  0  0  0  0  0  0  0  0  0  0
   -5.9801   -3.7402    1.1456 C   0  0  0  0  0  0  0  0  0  0  0  0
   -4.7186   -3.3802    0.6537 C   0  0  0  0  0  0  0  0  0  0  0  0
   -1.5348   -3.5667   -0.1386 C   0  0  0  0  0  0  0  0  0  0  0  0
   -0.4877   -2.9510   -0.8541 C   0  0  0  0  0  0  0  0  0  0  0  0
    0.0984   -3.5845   -1.9508 C   0  0  0  0  0  0  0  0  0  0  0  0
   -0.3279   -4.8636   -2.3405 C   0  0  0  0  0  0  0  0  0  0  0  0
    0.3438   -5.5591   -3.4902 C   0  0  0  0  0  0  0  0  0  0  0  0
    1.5234   -6.3953   -3.0078 C   0  0  0  0  0  0  0  0  0  0  0  0
   -1.3426   -5.5026   -1.6190 C   0  0  0  0  0  0  0  0  0  0  0  0
   -1.9536   -4.8584   -0.5371 C   0  0  0  0  0  0  0  0  0  0  0  0
   -1.3396   -2.4826    2.1906 C   0  0  0  0  0  0  0  0  0  0  0  0
   -0.4850   -3.1284    3.1073 C   0  0  0  0  0  0  0  0  0  0  0  0
    0.2121   -4.3001    3.1128 N   0  0  0  0  0  0  0  0  0  0  0  0
    1.1322   -4.1197    4.1032 C   0  0  0  0  0  0  0  0  0  0  0  0
    2.4128   -4.6680    4.2377 C   0  0  0  0  0  0  0  0  0  0  0  0
    0.1798   -5.3951    2.1424 C   0  0  0  0  0  0  0  0  0  0  0  0
    1.2282   -5.1892    1.0496 C   0  0  0  0  0  0  0  0  0  0  0  0
   -2.5115    0.8707   -3.6473 S   0  0  0  0  0  0  0  0  0  0  0  0
   -2.1784    2.4993   -3.9677 C   0  0  0  0  0  0  0  0  0  0  0  0
   -1.3710    3.1140   -4.9209 C   0  0  0  0  0  0  0  0  0  0  0  0
   -1.0892    4.4420   -4.5566 C   0  0  0  0  0  0  0  0  0  0  0  0
   -1.8139    4.8008   -3.0588 S   0  0  0  0  0  0  0  0  0  0  0  0
   -2.5120    3.2825   -2.8934 C   0  0  0  0  0  0  0  0  0  0  0  0
   -0.1353    5.3240   -5.2231 C   0  0  0  0  0  0  0  0  0  0  0  0
    1.2002    5.1785   -5.1184 C   0  0  0  0  0  0  0  0  0  0  0  0
    1.8892    4.0594   -4.4525 C   0  0  0  0  0  0  0  0  0  0  0  0
    1.3697    3.2026   -3.6864 O   0  0  0  0  0  0  0  0  0  0  0  0
    3.2905    4.0932   -4.8317 C   0  0  0  0  0  0  0  0  0  0  0  0
    4.2865    3.1614   -4.5248 C   0  0  0  0  0  0  0  0  0  0  0  0
    5.5611    3.3409   -5.0795 C   0  0  0  0  0  0  0  0  0  0  0  0
    6.5919    2.4343   -4.7972 C   0  0  0  0  0  0  0  0  0  0  0  0
    7.8545    2.6027   -5.3813 C   0  0  0  0  0  0  0  0  0  0  0  0
    8.8432    1.7197   -5.1126 F   0  0  0  0  0  0  0  0  0  0  0  0
    8.0981    3.6760   -6.2426 C   0  0  0  0  0  0  0  0  0  0  0  0
    9.3257    3.8358   -6.8022 F   0  0  0  0  0  0  0  0  0  0  0  0
    7.0768    4.5879   -6.5340 C   0  0  0  0  0  0  0  0  0  0  0  0
    5.8079    4.4345   -5.9574 C   0  0  0  0  0  0  0  0  0  0  0  0
    4.7810    5.3548   -6.2419 C   0  0  0  0  0  0  0  0  0  0  0  0
    3.5227    5.1922   -5.6409 C   0  0  0  0  0  0  0  0  0  0  0  0
    2.2729    5.9967   -5.7764 C   0  0  0  0  0  0  0  0  0  0  0  0
    2.1851    7.2949   -6.1785 C   0  0  0  0  0  0  0  0  0  0  0  0
    3.3359    8.0631   -6.5677 C   0  0  0  0  0  0  0  0  0  0  0  0
    4.2497    8.7044   -6.8736 N   0  0  0  0  0  0  0  0  0  0  0  0
    0.9652    8.0567   -6.0746 C   0  0  0  0  0  0  0  0  0  0  0  0
   -0.0109    8.6721   -5.9885 N   0  0  0  0  0  0  0  0  0  0  0  0
    5.1331   -2.8233    4.9722 H   0  0  0  0  0  0  0  0  0  0  0  0
    5.6427   -9.0434    4.3168 H   0  0  0  0  0  0  0  0  0  0  0  0
    9.4723   -5.9380    3.6164 H   0  0  0  0  0  0  0  0  0  0  0  0
   -2.0943    1.6175    2.1769 H   0  0  0  0  0  0  0  0  0  0  0  0
   -2.5366    4.7379    1.6879 H   0  0  0  0  0  0  0  0  0  0  0  0
   -0.4538    5.7870    2.3851 H   0  0  0  0  0  0  0  0  0  0  0  0
    2.9389    4.8064    1.0662 H   0  0  0  0  0  0  0  0  0  0  0  0
    2.0801    5.4720    2.4960 H   0  0  0  0  0  0  0  0  0  0  0  0
    2.2187    6.7465   -0.3163 H   0  0  0  0  0  0  0  0  0  0  0  0
    3.0816    7.2990    1.1767 H   0  0  0  0  0  0  0  0  0  0  0  0
    1.2801    7.4137    1.0878 H   0  0  0  0  0  0  0  0  0  0  0  0
    1.7072    3.5110   -0.5634 H   0  0  0  0  0  0  0  0  0  0  0  0
   -0.3696    2.4182   -1.2450 H   0  0  0  0  0  0  0  0  0  0  0  0
   -3.6983    5.4088   -0.8113 H   0  0  0  0  0  0  0  0  0  0  0  0
   -5.8580    6.4908   -0.4096 H   0  0  0  0  0  0  0  0  0  0  0  0
   -8.9027    4.6630    0.5381 H   0  0  0  0  0  0  0  0  0  0  0  0
   -8.2544    6.2390    0.0267 H   0  0  0  0  0  0  0  0  0  0  0  0
   -9.3119    6.3422    2.2769 H   0  0  0  0  0  0  0  0  0  0  0  0
   -8.1438    5.1177    2.9038 H   0  0  0  0  0  0  0  0  0  0  0  0
   -7.5543    6.7565    2.3761 H   0  0  0  0  0  0  0  0  0  0  0  0
   -7.3187    2.8981    1.4666 H   0  0  0  0  0  0  0  0  0  0  0  0
   -5.1809    1.8138    1.0905 H   0  0  0  0  0  0  0  0  0  0  0  0
   -3.1155   -1.5928   -1.5323 H   0  0  0  0  0  0  0  0  0  0  0  0
   -2.8662   -4.1641    3.4082 H   0  0  0  0  0  0  0  0  0  0  0  0
   -5.0418   -4.7735    4.2549 H   0  0  0  0  0  0  0  0  0  0  0  0
   -7.4925   -4.2579    4.1227 H   0  0  0  0  0  0  0  0  0  0  0  0
   -8.2545   -3.8796    2.5513 H   0  0  0  0  0  0  0  0  0  0  0  0
   -8.0474   -6.1899    1.7836 H   0  0  0  0  0  0  0  0  0  0  0  0
   -8.7202   -6.2207    3.4581 H   0  0  0  0  0  0  0  0  0  0  0  0
   -6.9894   -6.6172    3.1879 H   0  0  0  0  0  0  0  0  0  0  0  0
   -6.8452   -3.6365    0.5107 H   0  0  0  0  0  0  0  0  0  0  0  0
   -4.6572   -3.0096   -0.3583 H   0  0  0  0  0  0  0  0  0  0  0  0
   -0.1332   -1.9705   -0.5626 H   0  0  0  0  0  0  0  0  0  0  0  0
    0.8968   -3.0783   -2.4930 H   0  0  0  0  0  0  0  0  0  0  0  0
   -0.3889   -6.2165   -4.0097 H   0  0  0  0  0  0  0  0  0  0  0  0
    0.7078   -4.8112   -4.2283 H   0  0  0  0  0  0  0  0  0  0  0  0
    1.1738   -7.2152   -2.3398 H   0  0  0  0  0  0  0  0  0  0  0  0
    2.2612   -5.7636   -2.4629 H   0  0  0  0  0  0  0  0  0  0  0  0
    2.0413   -6.8540   -3.8834 H   0  0  0  0  0  0  0  0  0  0  0  0
   -1.6622   -6.5034   -1.8889 H   0  0  0  0  0  0  0  0  0  0  0  0
   -2.7240   -5.3876   -0.0011 H   0  0  0  0  0  0  0  0  0  0  0  0
    2.7617   -5.5177    3.6655 H   0  0  0  0  0  0  0  0  0  0  0  0
   -0.8347   -5.4707    1.7155 H   0  0  0  0  0  0  0  0  0  0  0  0
    0.3830   -6.3601    2.6633 H   0  0  0  0  0  0  0  0  0  0  0  0
    2.2360   -5.4724    1.4095 H   0  0  0  0  0  0  0  0  0  0  0  0
    1.2595   -4.1242    0.7402 H   0  0  0  0  0  0  0  0  0  0  0  0
    0.9822   -5.8232    0.1725 H   0  0  0  0  0  0  0  0  0  0  0  0
   -0.9281    2.6070   -5.7736 H   0  0  0  0  0  0  0  0  0  0  0  0
   -0.5689    6.0976   -5.8339 H   0  0  0  0  0  0  0  0  0  0  0  0
    4.0588    2.3247   -3.8811 H   0  0  0  0  0  0  0  0  0  0  0  0
    6.4246    1.5925   -4.1361 H   0  0  0  0  0  0  0  0  0  0  0  0
    7.2822    5.4127   -7.2034 H   0  0  0  0  0  0  0  0  0  0  0  0
    4.9652    6.1552   -6.9451 H   0  0  0  0  0  0  0  0  0  0  0  0
  1  2  2  3
  2  3  1  0
  3  4  2  0
  3  5  1  0
  5  6  2  0
  6  7  1  0
  7  8  1  0
  7  9  2  0
  9 10  1  0
  9 11  1  0
 11 12  2  0
 12 13  1  0
 13 14  2  3
 14 15  1  0
 15 16  3  0
 14 17  1  0
 17 18  3  0
  1 19  1  0
 19 20  1  0
 20 21  1  0
 21 22  1  0
 22 23  1  0
 23 24  1  0
 24 25  1  0
 25 26  2  0
 26 27  1  0
 27 28  1  0
 28 29  1  0
 29 30  2  0
 30 31  1  0
 31 32  2  0
 32 33  1  0
 33 34  1  0
 32 35  1  0
 35 36  2  0
 28 37  1  0
 37 38  2  0
 38 39  1  0
 39 40  2  0
 40 41  1  0
 41 42  1  0
 40 43  1  0
 43 44  2  0
 28 45  1  0
 45 46  2  0
 46 47  1  0
 47 48  1  0
 48 49  2  0
 49 50  1  0
 50 51  1  0
 51 52  2  0
 52 53  1  0
 53 54  2  0
 54 55  1  0
 55 56  1  0
 54 57  1  0
 57 58  2  0
 50 59  1  0
 59 60  2  0
 60 61  1  0
 61 62  2  0
 62 63  1  0
 63 64  1  0
 62 65  1  0
 65 66  2  0
 50 67  1  0
 67 68  1  0
 68 69  1  0
 69 70  1  0
 70 71  1  0
 69 72  1  0
 72 73  1  0
 46 74  1  0
 74 75  1  0
 75 76  1  0
 76 77  2  0
 77 78  1  0
 78 79  1  0
 77 80  1  0
 80 81  2  3
 81 82  1  0
 82 83  2  0
 82 84  1  0
 84 85  2  0
 85 86  1  0
 86 87  2  0
 87 88  1  0
 88 89  1  0
 88 90  2  0
 90 91  1  0
 90 92  1  0
 92 93  2  0
 93 94  1  0
 94 95  2  0
 95 96  1  0
 96 97  2  3
 97 98  1  0
 98 99  3  0
 97100  1  0
100101  3  0
 13  2  1  0
 71 19  2  0
 79 75  2  0
 96 81  1  0
 12  5  1  0
 70 21  2  0
 95 84  1  0
 68 22  2  0
 93 86  1  0
 67 24  2  0
 49 25  1  0
 58 51  1  0
 66 59  1  0
 47 27  2  0
 36 29  1  0
 44 37  1  0
 79 45  1  0
  1102  1  0
  6103  1  0
 11104  1  0
 26105  1  0
 30106  1  0
 31107  1  0
 33108  1  0
 33109  1  0
 34110  1  0
 34111  1  0
 34112  1  0
 35113  1  0
 36114  1  0
 38115  1  0
 39116  1  0
 41117  1  0
 41118  1  0
 42119  1  0
 42120  1  0
 42121  1  0
 43122  1  0
 44123  1  0
 48124  1  0
 52125  1  0
 53126  1  0
 55127  1  0
 55128  1  0
 56129  1  0
 56130  1  0
 56131  1  0
 57132  1  0
 58133  1  0
 60134  1  0
 61135  1  0
 63136  1  0
 63137  1  0
 64138  1  0
 64139  1  0
 64140  1  0
 65141  1  0
 66142  1  0
 71143  1  0
 72144  1  0
 72145  1  0
 73146  1  0
 73147  1  0
 73148  1  0
 76149  1  0
 80150  1  0
 85151  1  0
 87152  1  0
 92153  1  0
 94154  1  0
M  END

