
     RDKit          3D

156171  0  0  0  0  0  0  0  0999 V2000
    4.1068   -1.9219    7.5734 C   0  0  0  0  0  0  0  0  0  0  0  0
    3.2474   -2.0454    8.5389 C   0  0  0  0  0  0  0  0  0  0  0  0
    1.8559   -2.5955    8.3930 C   0  0  0  0  0  0  0  0  0  0  0  0
    1.4135   -3.0900    7.3252 O   0  0  0  0  0  0  0  0  0  0  0  0
    1.0748   -2.2664    9.5079 C   0  0  0  0  0  0  0  0  0  0  0  0
   -0.2223   -2.7077    9.7654 C   0  0  0  0  0  0  0  0  0  0  0  0
   -0.7831   -2.4573   11.0348 C   0  0  0  0  0  0  0  0  0  0  0  0
   -2.4465   -2.8330   11.3080 Cl  0  0  0  0  0  0  0  0  0  0  0  0
    0.0732   -1.8399   12.0204 C   0  0  0  0  0  0  0  0  0  0  0  0
   -0.6055   -1.5304   13.8119 Br  0  0  0  0  0  0  0  0  0  0  0  0
    1.3098   -1.4100   11.7321 C   0  0  0  0  0  0  0  0  0  0  0  0
    1.8149   -1.4917   10.4007 C   0  0  0  0  0  0  0  0  0  0  0  0
    3.1949   -1.2175    9.8490 C   0  0  0  0  0  0  0  0  0  0  0  0
    4.2843   -1.1648   10.6663 C   0  0  0  0  0  0  0  0  0  0  0  0
    5.5958   -1.0322   10.1269 C   0  0  0  0  0  0  0  0  0  0  0  0
    6.6869   -0.9181    9.7481 N   0  0  0  0  0  0  0  0  0  0  0  0
    4.3237   -0.6518   12.0134 C   0  0  0  0  0  0  0  0  0  0  0  0
    4.5110   -0.2329   13.0965 N   0  0  0  0  0  0  0  0  0  0  0  0
    3.7979   -1.7642    6.1178 C   0  0  0  0  0  0  0  0  0  0  0  0
    3.8782   -0.2970    5.2974 S   0  0  0  0  0  0  0  0  0  0  0  0
    3.0335   -0.9134    3.9639 C   0  0  0  0  0  0  0  0  0  0  0  0
    2.5090   -0.5464    2.6395 C   0  0  0  0  0  0  0  0  0  0  0  0
    2.1128   -1.7109    1.9867 C   0  0  0  0  0  0  0  0  0  0  0  0
    2.8568   -2.8731    2.6593 C   0  0  0  0  0  0  0  0  0  0  0  0
    2.9210   -2.2450    4.0644 C   0  0  0  0  0  0  0  0  0  0  0  0
    3.2719   -2.7877    5.3030 C   0  0  0  0  0  0  0  0  0  0  0  0
    4.3183   -2.9717    2.2276 C   0  0  0  0  0  0  0  0  0  0  0  0
    5.1654   -3.8398    2.9386 C   0  0  0  0  0  0  0  0  0  0  0  0
    6.4588   -4.0990    2.4966 C   0  0  0  0  0  0  0  0  0  0  0  0
    6.9102   -3.5029    1.3224 C   0  0  0  0  0  0  0  0  0  0  0  0
    8.2721   -3.8155    0.8170 C   0  0  0  0  0  0  0  0  0  0  0  0
    8.1902   -4.9874   -0.1511 C   0  0  0  0  0  0  0  0  0  0  0  0
    6.0845   -2.6562    0.5496 C   0  0  0  0  0  0  0  0  0  0  0  0
    4.7996   -2.3900    1.0074 C   0  0  0  0  0  0  0  0  0  0  0  0
    2.2764   -4.2809    2.3844 C   0  0  0  0  0  0  0  0  0  0  0  0
    2.5759   -4.8483    1.0976 C   0  0  0  0  0  0  0  0  0  0  0  0
    2.2082   -6.1192    0.7602 C   0  0  0  0  0  0  0  0  0  0  0  0
    1.4273   -6.8678    1.6575 C   0  0  0  0  0  0  0  0  0  0  0  0
    0.9025   -8.1592    1.1438 C   0  0  0  0  0  0  0  0  0  0  0  0
    1.9738   -9.2500    1.2797 C   0  0  0  0  0  0  0  0  0  0  0  0
    1.1219   -6.3544    2.9450 C   0  0  0  0  0  0  0  0  0  0  0  0
    1.5594   -5.0554    3.3063 C   0  0  0  0  0  0  0  0  0  0  0  0
    1.4883   -1.5018    0.7058 C   0  0  0  0  0  0  0  0  0  0  0  0
    0.5968   -2.3600   -0.0434 C   0  0  0  0  0  0  0  0  0  0  0  0
   -0.2718   -3.3997    0.5928 C   0  0  0  0  0  0  0  0  0  0  0  0
   -1.4306   -2.7381    1.3392 C   0  0  0  0  0  0  0  0  0  0  0  0
    0.0027   -1.8760   -1.2477 C   0  0  0  0  0  0  0  0  0  0  0  0
    0.0868   -0.5199   -1.5571 C   0  0  0  0  0  0  0  0  0  0  0  0
   -0.7883    0.0787   -2.5150 C   0  0  0  0  0  0  0  0  0  0  0  0
   -1.9975   -0.6786   -3.4848 S   0  0  0  0  0  0  0  0  0  0  0  0
   -2.6729    0.7288   -4.1032 C   0  0  0  0  0  0  0  0  0  0  0  0
   -3.3557    1.0989   -5.3937 C   0  0  0  0  0  0  0  0  0  0  0  0
   -3.1576    2.4561   -5.5307 C   0  0  0  0  0  0  0  0  0  0  0  0
   -2.1184    3.0046   -4.5953 C   0  0  0  0  0  0  0  0  0  0  0  0
   -2.7728    4.0870   -3.6974 C   0  0  0  0  0  0  0  0  0  0  0  0
   -2.1715    5.2921   -3.3384 C   0  0  0  0  0  0  0  0  0  0  0  0
   -2.8076    6.1151   -2.3727 C   0  0  0  0  0  0  0  0  0  0  0  0
   -4.0543    5.7244   -1.8000 C   0  0  0  0  0  0  0  0  0  0  0  0
   -4.7840    6.5751   -0.8098 C   0  0  0  0  0  0  0  0  0  0  0  0
   -5.4160    7.7705   -1.5195 C   0  0  0  0  0  0  0  0  0  0  0  0
   -4.6778    4.5427   -2.1790 C   0  0  0  0  0  0  0  0  0  0  0  0
   -4.0019    3.7057   -3.0415 C   0  0  0  0  0  0  0  0  0  0  0  0
   -0.9367    3.2549   -5.5671 C   0  0  0  0  0  0  0  0  0  0  0  0
   -0.3339    2.0861   -6.1393 C   0  0  0  0  0  0  0  0  0  0  0  0
    0.6715    2.1655   -7.0618 C   0  0  0  0  0  0  0  0  0  0  0  0
    1.0860    3.4200   -7.5236 C   0  0  0  0  0  0  0  0  0  0  0  0
    2.3139    3.4228   -8.3686 C   0  0  0  0  0  0  0  0  0  0  0  0
    3.5602    3.4240   -7.4610 C   0  0  0  0  0  0  0  0  0  0  0  0
    0.4322    4.6111   -7.0825 C   0  0  0  0  0  0  0  0  0  0  0  0
   -0.6105    4.5104   -6.1341 C   0  0  0  0  0  0  0  0  0  0  0  0
   -1.8488    1.7996   -3.7080 C   0  0  0  0  0  0  0  0  0  0  0  0
   -0.7943    1.4418   -2.7579 C   0  0  0  0  0  0  0  0  0  0  0  0
    0.1972    2.2807   -2.0785 C   0  0  0  0  0  0  0  0  0  0  0  0
    0.4309    3.7615   -2.3108 C   0  0  0  0  0  0  0  0  0  0  0  0
    1.8969    4.2419   -2.0731 C   0  0  0  0  0  0  0  0  0  0  0  0
    0.9585    1.6931   -1.0311 C   0  0  0  0  0  0  0  0  0  0  0  0
    0.9043    0.3370   -0.7419 C   0  0  0  0  0  0  0  0  0  0  0  0
    1.6251   -0.1718    0.3609 C   0  0  0  0  0  0  0  0  0  0  0  0
    2.4984    0.7261    1.5492 S   0  0  0  0  0  0  0  0  0  0  0  0
   -4.1493    3.1443   -6.3276 C   0  0  0  0  0  0  0  0  0  0  0  0
   -5.2344    2.3421   -6.6862 C   0  0  0  0  0  0  0  0  0  0  0  0
   -4.8458    0.7815   -6.1477 S   0  0  0  0  0  0  0  0  0  0  0  0
   -6.5600    2.9809   -6.6754 C   0  0  0  0  0  0  0  0  0  0  0  0
   -7.6479    2.7494   -5.9127 C   0  0  0  0  0  0  0  0  0  0  0  0
   -8.3934    3.8112   -5.1571 C   0  0  0  0  0  0  0  0  0  0  0  0
   -8.6060    4.9861   -5.5701 O   0  0  0  0  0  0  0  0  0  0  0  0
   -8.8569    3.1867   -3.8896 C   0  0  0  0  0  0  0  0  0  0  0  0
   -8.4246    1.8701   -3.8696 C   0  0  0  0  0  0  0  0  0  0  0  0
   -8.6311    1.0347   -2.7761 C   0  0  0  0  0  0  0  0  0  0  0  0
   -9.3515    1.5127   -1.7009 C   0  0  0  0  0  0  0  0  0  0  0  0
   -9.5830    0.6559   -0.6748 F   0  0  0  0  0  0  0  0  0  0  0  0
   -9.8398    2.8476   -1.6988 C   0  0  0  0  0  0  0  0  0  0  0  0
  -10.4926    3.3059   -0.6097 F   0  0  0  0  0  0  0  0  0  0  0  0
   -9.5947    3.7114   -2.8119 C   0  0  0  0  0  0  0  0  0  0  0  0
  -10.0420    5.0080   -2.7891 F   0  0  0  0  0  0  0  0  0  0  0  0
   -7.8206    1.5579   -5.1731 C   0  0  0  0  0  0  0  0  0  0  0  0
   -8.0583    0.3316   -5.7576 C   0  0  0  0  0  0  0  0  0  0  0  0
   -7.7386   -0.9203   -5.0780 C   0  0  0  0  0  0  0  0  0  0  0  0
   -7.2941   -1.8559   -4.4814 N   0  0  0  0  0  0  0  0  0  0  0  0
   -8.2425    0.2399   -7.1655 C   0  0  0  0  0  0  0  0  0  0  0  0
   -8.4178    0.2294   -8.3280 N   0  0  0  0  0  0  0  0  0  0  0  0
    5.0280   -1.3698    7.7176 H   0  0  0  0  0  0  0  0  0  0  0  0
   -0.8149   -3.1536    8.9534 H   0  0  0  0  0  0  0  0  0  0  0  0
    1.9873   -1.0276   12.5205 H   0  0  0  0  0  0  0  0  0  0  0  0
    3.1444   -3.7907    5.5991 H   0  0  0  0  0  0  0  0  0  0  0  0
    4.8840   -4.4179    3.8251 H   0  0  0  0  0  0  0  0  0  0  0  0
    7.0584   -4.7910    3.1221 H   0  0  0  0  0  0  0  0  0  0  0  0
    8.8998   -4.0571    1.6941 H   0  0  0  0  0  0  0  0  0  0  0  0
    8.6875   -2.9085    0.3627 H   0  0  0  0  0  0  0  0  0  0  0  0
    7.8067   -4.6454   -1.1404 H   0  0  0  0  0  0  0  0  0  0  0  0
    7.5570   -5.8027    0.2669 H   0  0  0  0  0  0  0  0  0  0  0  0
    9.2086   -5.3955   -0.2579 H   0  0  0  0  0  0  0  0  0  0  0  0
    6.3643   -2.2122   -0.3995 H   0  0  0  0  0  0  0  0  0  0  0  0
    4.1969   -1.8174    0.3187 H   0  0  0  0  0  0  0  0  0  0  0  0
    3.0814   -4.3208    0.2996 H   0  0  0  0  0  0  0  0  0  0  0  0
    2.5179   -6.4689   -0.2335 H   0  0  0  0  0  0  0  0  0  0  0  0
   -0.0362   -8.4282    1.6693 H   0  0  0  0  0  0  0  0  0  0  0  0
    0.6354   -8.0118    0.0726 H   0  0  0  0  0  0  0  0  0  0  0  0
    2.2546   -9.6168    0.2711 H   0  0  0  0  0  0  0  0  0  0  0  0
    1.5490  -10.0687    1.8821 H   0  0  0  0  0  0  0  0  0  0  0  0
    2.8955   -8.8879    1.8102 H   0  0  0  0  0  0  0  0  0  0  0  0
    0.5054   -6.9277    3.6600 H   0  0  0  0  0  0  0  0  0  0  0  0
    1.2827   -4.6713    4.2607 H   0  0  0  0  0  0  0  0  0  0  0  0
    0.2461   -4.0297    1.2790 H   0  0  0  0  0  0  0  0  0  0  0  0
   -0.6240   -4.1542   -0.1605 H   0  0  0  0  0  0  0  0  0  0  0  0
   -2.0295   -3.5280    1.8611 H   0  0  0  0  0  0  0  0  0  0  0  0
   -1.0734   -1.9785    2.0848 H   0  0  0  0  0  0  0  0  0  0  0  0
   -2.1282   -2.2487    0.6172 H   0  0  0  0  0  0  0  0  0  0  0  0
   -0.8160   -2.4336   -1.7302 H   0  0  0  0  0  0  0  0  0  0  0  0
   -1.2002    5.6002   -3.6912 H   0  0  0  0  0  0  0  0  0  0  0  0
   -2.3205    7.0413   -2.0684 H   0  0  0  0  0  0  0  0  0  0  0  0
   -4.0629    6.9087   -0.0363 H   0  0  0  0  0  0  0  0  0  0  0  0
   -5.5639    5.9483   -0.2961 H   0  0  0  0  0  0  0  0  0  0  0  0
   -4.7372    8.6471   -1.4505 H   0  0  0  0  0  0  0  0  0  0  0  0
   -5.6073    7.5925   -2.6096 H   0  0  0  0  0  0  0  0  0  0  0  0
   -6.3727    7.9977   -1.0271 H   0  0  0  0  0  0  0  0  0  0  0  0
   -5.6687    4.2119   -1.8167 H   0  0  0  0  0  0  0  0  0  0  0  0
   -4.5099    2.7637   -3.1620 H   0  0  0  0  0  0  0  0  0  0  0  0
   -0.5986    1.0470   -5.9498 H   0  0  0  0  0  0  0  0  0  0  0  0
    1.1652    1.2124   -7.3074 H   0  0  0  0  0  0  0  0  0  0  0  0
    2.3019    2.4871   -8.9908 H   0  0  0  0  0  0  0  0  0  0  0  0
    2.2537    4.3061   -9.0361 H   0  0  0  0  0  0  0  0  0  0  0  0
    4.1684    2.5067   -7.6518 H   0  0  0  0  0  0  0  0  0  0  0  0
    4.1538    4.3307   -7.6911 H   0  0  0  0  0  0  0  0  0  0  0  0
    3.3420    3.4387   -6.3517 H   0  0  0  0  0  0  0  0  0  0  0  0
    0.7563    5.6036   -7.4231 H   0  0  0  0  0  0  0  0  0  0  0  0
   -1.1697    5.4039   -5.8836 H   0  0  0  0  0  0  0  0  0  0  0  0
   -0.2491    4.3408   -1.6385 H   0  0  0  0  0  0  0  0  0  0  0  0
    0.1808    3.9878   -3.3544 H   0  0  0  0  0  0  0  0  0  0  0  0
    2.1409    5.2242   -2.5733 H   0  0  0  0  0  0  0  0  0  0  0  0
    2.5840    3.4288   -2.4296 H   0  0  0  0  0  0  0  0  0  0  0  0
    2.0998    4.3470   -0.9756 H   0  0  0  0  0  0  0  0  0  0  0  0
    1.6225    2.2823   -0.3898 H   0  0  0  0  0  0  0  0  0  0  0  0
   -4.3442    4.2085   -6.1070 H   0  0  0  0  0  0  0  0  0  0  0  0
   -6.7791    3.5709   -7.5332 H   0  0  0  0  0  0  0  0  0  0  0  0
   -8.2801    0.0047   -2.7969 H   0  0  0  0  0  0  0  0  0  0  0  0
  1  2  2  3
  2  3  1  0
  3  4  2  0
  3  5  1  0
  5  6  2  0
  6  7  1  0
  7  8  1  0
  7  9  2  0
  9 10  1  0
  9 11  1  0
 11 12  2  0
 12 13  1  0
 13 14  2  3
 14 15  1  0
 15 16  3  0
 14 17  1  0
 17 18  3  0
  1 19  1  0
 19 20  1  0
 20 21  1  0
 21 22  1  0
 22 23  2  0
 23 24  1  0
 24 25  1  0
 25 26  1  0
 24 27  1  0
 27 28  2  0
 28 29  1  0
 29 30  2  0
 30 31  1  0
 31 32  1  0
 30 33  1  0
 33 34  2  0
 24 35  1  0
 35 36  2  0
 36 37  1  0
 37 38  2  0
 38 39  1  0
 39 40  1  0
 38 41  1  0
 41 42  2  0
 23 43  1  0
 43 44  2  0
 44 45  1  0
 45 46  1  0
 44 47  1  0
 47 48  2  0
 48 49  1  0
 49 50  1  0
 50 51  1  0
 51 52  1  0
 52 53  2  0
 53 54  1  0
 54 55  1  0
 55 56  2  0
 56 57  1  0
 57 58  2  0
 58 59  1  0
 59 60  1  0
 58 61  1  0
 61 62  2  0
 54 63  1  0
 63 64  2  0
 64 65  1  0
 65 66  2  0
 66 67  1  0
 67 68  1  0
 66 69  1  0
 69 70  2  0
 54 71  1  0
 71 72  1  0
 72 73  1  0
 73 74  1  0
 74 75  1  0
 73 76  2  0
 76 77  1  0
 77 78  2  0
 78 79  1  0
 53 80  1  0
 80 81  2  0
 81 82  1  0
 81 83  1  0
 83 84  2  3
 84 85  1  0
 85 86  2  0
 85 87  1  0
 87 88  2  0
 88 89  1  0
 89 90  2  0
 90 91  1  0
 90 92  1  0
 92 93  1  0
 92 94  2  0
 94 95  1  0
 88 96  1  0
 96 97  2  3
 97 98  1  0
 98 99  3  0
 97100  1  0
100101  3  0
 13  2  1  0
 26 19  2  0
 34 27  1  0
 42 35  1  0
 78 43  1  0
 96 84  1  0
 12  5  1  0
 25 21  2  0
 77 48  1  0
 94 87  1  0
 79 22  1  0
 72 49  2  0
 71 51  2  0
 82 52  1  0
 62 55  1  0
 70 63  1  0
  1102  1  0
  6103  1  0
 11104  1  0
 26105  1  0
 28106  1  0
 29107  1  0
 31108  1  0
 31109  1  0
 32110  1  0
 32111  1  0
 32112  1  0
 33113  1  0
 34114  1  0
 36115  1  0
 37116  1  0
 39117  1  0
 39118  1  0
 40119  1  0
 40120  1  0
 40121  1  0
 41122  1  0
 42123  1  0
 45124  1  0
 45125  1  0
 46126  1  0
 46127  1  0
 46128  1  0
 47129  1  0
 56130  1  0
 57131  1  0
 59132  1  0
 59133  1  0
 60134  1  0
 60135  1  0
 60136  1  0
 61137  1  0
 62138  1  0
 64139  1  0
 65140  1  0
 67141  1  0
 67142  1  0
 68143  1  0
 68144  1  0
 68145  1  0
 69146  1  0
 70147  1  0
 74148  1  0
 74149  1  0
 75150  1  0
 75151  1  0
 75152  1  0
 76153  1  0
 80154  1  0
 83155  1  0
 89156  1  0
M  END

