
     RDKit          3D

112123  0  0  0  0  0  0  0  0999 V2000
    8.1064    2.9330   -3.0258 C   0  0  0  0  0  0  0  0  0  0  0  0
    7.7128    4.2019   -3.2320 C   0  0  0  0  0  0  0  0  0  0  0  0
    6.3887    4.7535   -2.9146 C   0  0  0  0  0  0  0  0  0  0  0  0
    5.5641    4.2911   -2.0803 O   0  0  0  0  0  0  0  0  0  0  0  0
    6.2082    5.9694   -3.6758 C   0  0  0  0  0  0  0  0  0  0  0  0
    5.0581    6.7482   -3.7989 C   0  0  0  0  0  0  0  0  0  0  0  0
    5.0732    7.8346   -4.6860 C   0  0  0  0  0  0  0  0  0  0  0  0
    3.6206    8.8100   -4.8544 Cl  0  0  0  0  0  0  0  0  0  0  0  0
    6.2329    8.1082   -5.4463 C   0  0  0  0  0  0  0  0  0  0  0  0
    6.2815    9.5563   -6.7015 Br  0  0  0  0  0  0  0  0  0  0  0  0
    7.3792    7.3059   -5.3025 C   0  0  0  0  0  0  0  0  0  0  0  0
    7.3638    6.2452   -4.3838 C   0  0  0  0  0  0  0  0  0  0  0  0
    8.4117    5.2409   -4.0446 C   0  0  0  0  0  0  0  0  0  0  0  0
    9.7518    5.3837   -4.2033 C   0  0  0  0  0  0  0  0  0  0  0  0
   10.6967    4.4915   -3.5799 C   0  0  0  0  0  0  0  0  0  0  0  0
   11.4622    3.7846   -3.0761 N   0  0  0  0  0  0  0  0  0  0  0  0
   10.3329    6.5223   -4.8626 C   0  0  0  0  0  0  0  0  0  0  0  0
   10.8160    7.4360   -5.3836 N   0  0  0  0  0  0  0  0  0  0  0  0
    7.2437    1.9246   -2.3974 C   0  0  0  0  0  0  0  0  0  0  0  0
    7.4530    1.3397   -1.1357 C   0  0  0  0  0  0  0  0  0  0  0  0
    8.5626    1.7106   -0.1940 C   0  0  0  0  0  0  0  0  0  0  0  0
    8.1754    2.9330    0.6319 C   0  0  0  0  0  0  0  0  0  0  0  0
    6.3840    0.5060   -0.7994 C   0  0  0  0  0  0  0  0  0  0  0  0
    5.4077    0.4105   -1.7582 C   0  0  0  0  0  0  0  0  0  0  0  0
    5.7777    1.3756   -3.0751 S   0  0  0  0  0  0  0  0  0  0  0  0
    4.3002   -0.2950   -1.3204 C   0  0  0  0  0  0  0  0  0  0  0  0
    4.4407   -0.7365   -0.0517 C   0  0  0  0  0  0  0  0  0  0  0  0
    5.9304   -0.2999    0.6405 S   0  0  0  0  0  0  0  0  0  0  0  0
    3.2708   -1.3509    0.2906 C   0  0  0  0  0  0  0  0  0  0  0  0
    2.9038   -2.0486    1.4479 C   0  0  0  0  0  0  0  0  0  0  0  0
    3.7421   -2.1736    2.5066 N   0  0  0  0  0  0  0  0  0  0  0  0
    3.3688   -2.8476    3.6280 C   0  0  0  0  0  0  0  0  0  0  0  0
    4.3289   -2.9285    4.7778 C   0  0  0  0  0  0  0  0  0  0  0  0
    2.0784   -3.4288    3.6878 C   0  0  0  0  0  0  0  0  0  0  0  0
    1.5994   -4.1688    4.9011 C   0  0  0  0  0  0  0  0  0  0  0  0
    1.2417   -3.3025    2.6205 N   0  0  0  0  0  0  0  0  0  0  0  0
    1.6232   -2.6365    1.5022 C   0  0  0  0  0  0  0  0  0  0  0  0
    0.7550   -2.4484    0.4159 C   0  0  0  0  0  0  0  0  0  0  0  0
   -0.5728   -2.7375    0.2850 C   0  0  0  0  0  0  0  0  0  0  0  0
   -1.8265   -3.4573    1.1771 S   0  0  0  0  0  0  0  0  0  0  0  0
   -2.9805   -2.9162    0.0359 C   0  0  0  0  0  0  0  0  0  0  0  0
   -4.3663   -3.0530   -0.0830 C   0  0  0  0  0  0  0  0  0  0  0  0
   -5.2126   -3.8960    0.8340 C   0  0  0  0  0  0  0  0  0  0  0  0
   -5.1968   -5.3533    0.3876 C   0  0  0  0  0  0  0  0  0  0  0  0
   -4.8246   -2.4054   -1.2481 C   0  0  0  0  0  0  0  0  0  0  0  0
   -3.5286   -1.6932   -2.0813 S   0  0  0  0  0  0  0  0  0  0  0  0
   -2.3879   -2.1894   -0.9626 C   0  0  0  0  0  0  0  0  0  0  0  0
   -1.0133   -2.0947   -0.8189 C   0  0  0  0  0  0  0  0  0  0  0  0
   -0.0485   -1.3710   -1.4392 N   0  0  0  0  0  0  0  0  0  0  0  0
   -0.3281   -0.2085   -2.2923 C   0  0  0  0  0  0  0  0  0  0  0  0
    0.0640    1.1044   -1.6129 C   0  0  0  0  0  0  0  0  0  0  0  0
    1.0838   -1.6664   -0.7093 C   0  0  0  0  0  0  0  0  0  0  0  0
    2.4191   -1.1875   -0.8192 C   0  0  0  0  0  0  0  0  0  0  0  0
    3.0937   -0.5871   -1.8601 N   0  0  0  0  0  0  0  0  0  0  0  0
    2.8068   -0.5454   -3.3006 C   0  0  0  0  0  0  0  0  0  0  0  0
    2.3954   -1.9160   -3.8420 C   0  0  0  0  0  0  0  0  0  0  0  0
   -6.2006   -2.3506   -1.7548 C   0  0  0  0  0  0  0  0  0  0  0  0
   -7.1542   -1.5679   -1.2311 C   0  0  0  0  0  0  0  0  0  0  0  0
   -8.6300   -1.2989   -1.9623 S   0  0  0  0  0  0  0  0  0  0  0  0
   -9.1942   -0.1936   -0.8125 C   0  0  0  0  0  0  0  0  0  0  0  0
  -10.3954    0.4343   -0.9527 C   0  0  0  0  0  0  0  0  0  0  0  0
  -11.1788    0.2153   -2.1453 C   0  0  0  0  0  0  0  0  0  0  0  0
  -11.7735    0.0496   -3.1197 N   0  0  0  0  0  0  0  0  0  0  0  0
  -10.9005    1.4662   -0.0887 C   0  0  0  0  0  0  0  0  0  0  0  0
  -11.3154    2.3089    0.5905 N   0  0  0  0  0  0  0  0  0  0  0  0
   -8.2473   -0.0426    0.1800 N   0  0  0  0  0  0  0  0  0  0  0  0
   -8.3868    0.6347    1.4846 C   0  0  0  0  0  0  0  0  0  0  0  0
   -8.7684   -0.3671    2.5432 C   0  0  0  0  0  0  0  0  0  0  0  0
   -7.8165   -0.8114    3.4749 C   0  0  0  0  0  0  0  0  0  0  0  0
   -8.1460   -1.8107    4.3955 C   0  0  0  0  0  0  0  0  0  0  0  0
   -9.4187   -2.3863    4.3801 C   0  0  0  0  0  0  0  0  0  0  0  0
  -10.3711   -1.9512    3.4580 C   0  0  0  0  0  0  0  0  0  0  0  0
  -10.0505   -0.9443    2.5421 C   0  0  0  0  0  0  0  0  0  0  0  0
   -7.1172   -0.7811   -0.0783 C   0  0  0  0  0  0  0  0  0  0  0  0
   -6.1144   -0.7481    0.6868 O   0  0  0  0  0  0  0  0  0  0  0  0
    9.0582    2.5814   -3.3815 H   0  0  0  0  0  0  0  0  0  0  0  0
    4.1635    6.5033   -3.2363 H   0  0  0  0  0  0  0  0  0  0  0  0
    8.2316    7.4996   -5.9322 H   0  0  0  0  0  0  0  0  0  0  0  0
    8.7777    0.8567    0.4864 H   0  0  0  0  0  0  0  0  0  0  0  0
    9.4888    1.9307   -0.7686 H   0  0  0  0  0  0  0  0  0  0  0  0
    7.9905    3.8050   -0.0319 H   0  0  0  0  0  0  0  0  0  0  0  0
    7.2560    2.7233    1.2216 H   0  0  0  0  0  0  0  0  0  0  0  0
    8.9985    3.1833    1.3328 H   0  0  0  0  0  0  0  0  0  0  0  0
    4.4988   -3.9873    5.0657 H   0  0  0  0  0  0  0  0  0  0  0  0
    5.3069   -2.4801    4.5023 H   0  0  0  0  0  0  0  0  0  0  0  0
    3.9203   -2.3670    5.6437 H   0  0  0  0  0  0  0  0  0  0  0  0
    1.6255   -3.5005    5.7888 H   0  0  0  0  0  0  0  0  0  0  0  0
    0.5544   -4.5194    4.7560 H   0  0  0  0  0  0  0  0  0  0  0  0
    2.2431   -5.0555    5.0837 H   0  0  0  0  0  0  0  0  0  0  0  0
   -6.2580   -3.5251    0.8405 H   0  0  0  0  0  0  0  0  0  0  0  0
   -4.8211   -3.8274    1.8730 H   0  0  0  0  0  0  0  0  0  0  0  0
   -5.5793   -5.4389   -0.6511 H   0  0  0  0  0  0  0  0  0  0  0  0
   -5.8477   -5.9559    1.0521 H   0  0  0  0  0  0  0  0  0  0  0  0
   -4.1636   -5.7615    0.4278 H   0  0  0  0  0  0  0  0  0  0  0  0
    0.1133   -0.3310   -3.2895 H   0  0  0  0  0  0  0  0  0  0  0  0
   -1.4101   -0.1338   -2.5024 H   0  0  0  0  0  0  0  0  0  0  0  0
   -0.2881    1.9643   -2.2173 H   0  0  0  0  0  0  0  0  0  0  0  0
   -0.4066    1.1605   -0.6107 H   0  0  0  0  0  0  0  0  0  0  0  0
    1.1610    1.1880   -1.4978 H   0  0  0  0  0  0  0  0  0  0  0  0
    2.0938    0.2613   -3.5403 H   0  0  0  0  0  0  0  0  0  0  0  0
    3.7240   -0.2702   -3.8583 H   0  0  0  0  0  0  0  0  0  0  0  0
    1.4680   -2.2889   -3.3654 H   0  0  0  0  0  0  0  0  0  0  0  0
    3.2104   -2.6491   -3.6626 H   0  0  0  0  0  0  0  0  0  0  0  0
    2.2201   -1.8400   -4.9355 H   0  0  0  0  0  0  0  0  0  0  0  0
   -6.3798   -2.8031   -2.7259 H   0  0  0  0  0  0  0  0  0  0  0  0
   -7.4260    1.1230    1.7534 H   0  0  0  0  0  0  0  0  0  0  0  0
   -9.0888    1.4730    1.4807 H   0  0  0  0  0  0  0  0  0  0  0  0
   -6.8172   -0.3914    3.4854 H   0  0  0  0  0  0  0  0  0  0  0  0
   -7.4074   -2.1530    5.1081 H   0  0  0  0  0  0  0  0  0  0  0  0
   -9.6646   -3.1659    5.0894 H   0  0  0  0  0  0  0  0  0  0  0  0
  -11.3551   -2.4067    3.4347 H   0  0  0  0  0  0  0  0  0  0  0  0
  -10.7925   -0.6318    1.8202 H   0  0  0  0  0  0  0  0  0  0  0  0
  1  2  2  3
  2  3  1  0
  3  4  2  0
  3  5  1  0
  5  6  2  0
  6  7  1  0
  7  8  1  0
  7  9  2  0
  9 10  1  0
  9 11  1  0
 11 12  2  0
 12 13  1  0
 13 14  2  3
 14 15  1  0
 15 16  3  0
 14 17  1  0
 17 18  3  0
  1 19  1  0
 19 20  2  0
 20 21  1  0
 21 22  1  0
 20 23  1  0
 23 24  2  0
 24 25  1  0
 24 26  1  0
 26 27  2  0
 27 28  1  0
 27 29  1  0
 29 30  2  0
 30 31  1  0
 31 32  2  0
 32 33  1  0
 32 34  1  0
 34 35  1  0
 34 36  2  0
 36 37  1  0
 37 38  2  0
 38 39  1  0
 39 40  1  0
 40 41  1  0
 41 42  1  0
 42 43  1  0
 43 44  1  0
 42 45  2  0
 45 46  1  0
 46 47  1  0
 47 48  1  0
 48 49  1  0
 49 50  1  0
 50 51  1  0
 49 52  1  0
 52 53  2  0
 53 54  1  0
 54 55  1  0
 55 56  1  0
 45 57  1  0
 57 58  2  3
 58 59  1  0
 59 60  1  0
 60 61  2  3
 61 62  1  0
 62 63  3  0
 61 64  1  0
 64 65  3  0
 60 66  1  0
 66 67  1  0
 67 68  1  0
 68 69  2  0
 69 70  1  0
 70 71  2  0
 71 72  1  0
 72 73  2  0
 66 74  1  0
 74 75  2  0
 13  2  1  0
 25 19  1  0
 54 26  1  0
 74 58  1  0
 12  5  1  0
 28 23  1  0
 53 29  1  0
 73 68  1  0
 37 30  1  0
 52 38  1  0
 48 39  2  0
 47 41  2  0
  1 76  1  0
  6 77  1  0
 11 78  1  0
 21 79  1  0
 21 80  1  0
 22 81  1  0
 22 82  1  0
 22 83  1  0
 33 84  1  0
 33 85  1  0
 33 86  1  0
 35 87  1  0
 35 88  1  0
 35 89  1  0
 43 90  1  0
 43 91  1  0
 44 92  1  0
 44 93  1  0
 44 94  1  0
 50 95  1  0
 50 96  1  0
 51 97  1  0
 51 98  1  0
 51 99  1  0
 55100  1  0
 55101  1  0
 56102  1  0
 56103  1  0
 56104  1  0
 57105  1  0
 67106  1  0
 67107  1  0
 69108  1  0
 70109  1  0
 71110  1  0
 72111  1  0
 73112  1  0
M  END

