
     RDKit          3D

106117  0  0  0  0  0  0  0  0999 V2000
   -3.0709   -5.6961   -4.9156 C   0  0  0  0  0  0  0  0  0  0  0  0
   -3.2742   -6.8365   -4.2246 C   0  0  0  0  0  0  0  0  0  0  0  0
   -3.4166   -6.9694   -2.7702 C   0  0  0  0  0  0  0  0  0  0  0  0
   -3.8225   -6.0838   -1.9715 O   0  0  0  0  0  0  0  0  0  0  0  0
   -3.1256   -8.3411   -2.4093 C   0  0  0  0  0  0  0  0  0  0  0  0
   -2.9937   -8.8880   -1.1357 C   0  0  0  0  0  0  0  0  0  0  0  0
   -2.6101  -10.2328   -1.0190 C   0  0  0  0  0  0  0  0  0  0  0  0
   -2.4422  -10.9280    0.5871 Cl  0  0  0  0  0  0  0  0  0  0  0  0
   -2.3591  -11.0001   -2.1783 C   0  0  0  0  0  0  0  0  0  0  0  0
   -1.8035  -12.8300   -2.0645 Br  0  0  0  0  0  0  0  0  0  0  0  0
   -2.4929  -10.4196   -3.4530 C   0  0  0  0  0  0  0  0  0  0  0  0
   -2.9062   -9.0834   -3.5567 C   0  0  0  0  0  0  0  0  0  0  0  0
   -3.1300   -8.2271   -4.7546 C   0  0  0  0  0  0  0  0  0  0  0  0
   -3.3997   -8.6517   -6.0161 C   0  0  0  0  0  0  0  0  0  0  0  0
   -3.3518  -10.0410   -6.3925 C   0  0  0  0  0  0  0  0  0  0  0  0
   -3.3204  -11.1542   -6.7124 N   0  0  0  0  0  0  0  0  0  0  0  0
   -3.9106   -7.7646   -7.0319 C   0  0  0  0  0  0  0  0  0  0  0  0
   -4.3256   -7.0597   -7.8527 N   0  0  0  0  0  0  0  0  0  0  0  0
   -2.9687   -4.3469   -4.3241 C   0  0  0  0  0  0  0  0  0  0  0  0
   -3.3957   -3.1590   -4.9530 C   0  0  0  0  0  0  0  0  0  0  0  0
   -4.1884   -3.0952   -6.2301 C   0  0  0  0  0  0  0  0  0  0  0  0
   -5.6468   -3.4580   -5.9775 C   0  0  0  0  0  0  0  0  0  0  0  0
   -3.0054   -2.0343   -4.2204 C   0  0  0  0  0  0  0  0  0  0  0  0
   -2.2668   -2.2986   -3.0946 C   0  0  0  0  0  0  0  0  0  0  0  0
   -2.0419   -3.9533   -2.9447 S   0  0  0  0  0  0  0  0  0  0  0  0
   -1.8390   -1.1433   -2.4464 C   0  0  0  0  0  0  0  0  0  0  0  0
   -2.2349   -0.0267   -3.0994 C   0  0  0  0  0  0  0  0  0  0  0  0
   -3.1224   -0.3571   -4.5079 S   0  0  0  0  0  0  0  0  0  0  0  0
   -1.5729    1.0285   -2.5427 C   0  0  0  0  0  0  0  0  0  0  0  0
   -1.4092    2.3358   -3.0208 C   0  0  0  0  0  0  0  0  0  0  0  0
   -2.0841    2.7949   -4.1049 N   0  0  0  0  0  0  0  0  0  0  0  0
   -1.8948    4.0574   -4.5781 C   0  0  0  0  0  0  0  0  0  0  0  0
   -2.6680    4.5043   -5.7824 C   0  0  0  0  0  0  0  0  0  0  0  0
   -0.9540    4.8982   -3.9355 C   0  0  0  0  0  0  0  0  0  0  0  0
   -0.6679    6.2858   -4.4242 C   0  0  0  0  0  0  0  0  0  0  0  0
   -0.2723    4.4290   -2.8544 N   0  0  0  0  0  0  0  0  0  0  0  0
   -0.4741    3.1719   -2.3840 C   0  0  0  0  0  0  0  0  0  0  0  0
    0.2223    2.6719   -1.2776 C   0  0  0  0  0  0  0  0  0  0  0  0
    1.0961    3.2891   -0.4341 C   0  0  0  0  0  0  0  0  0  0  0  0
    1.8386    4.8020   -0.2288 S   0  0  0  0  0  0  0  0  0  0  0  0
    2.5426    4.2761    1.2338 C   0  0  0  0  0  0  0  0  0  0  0  0
    3.4061    4.8766    2.1512 C   0  0  0  0  0  0  0  0  0  0  0  0
    3.9259    6.2819    2.0217 C   0  0  0  0  0  0  0  0  0  0  0  0
    3.0643    7.2490    2.8246 C   0  0  0  0  0  0  0  0  0  0  0  0
    3.6717    4.0105    3.2286 C   0  0  0  0  0  0  0  0  0  0  0  0
    2.9002    2.5072    2.9675 S   0  0  0  0  0  0  0  0  0  0  0  0
    2.1738    2.9898    1.5379 C   0  0  0  0  0  0  0  0  0  0  0  0
    1.3534    2.4268    0.5717 C   0  0  0  0  0  0  0  0  0  0  0  0
    0.6868    1.2508    0.4526 N   0  0  0  0  0  0  0  0  0  0  0  0
    0.4635    0.3198    1.5682 C   0  0  0  0  0  0  0  0  0  0  0  0
   -1.0208    0.1985    1.9180 C   0  0  0  0  0  0  0  0  0  0  0  0
    0.0310    1.3774   -0.7554 C   0  0  0  0  0  0  0  0  0  0  0  0
   -0.8259    0.4916   -1.4740 C   0  0  0  0  0  0  0  0  0  0  0  0
   -0.9475   -0.8841   -1.4524 N   0  0  0  0  0  0  0  0  0  0  0  0
   -0.0940   -1.9017   -0.8236 C   0  0  0  0  0  0  0  0  0  0  0  0
    1.3664   -1.7462   -1.2427 C   0  0  0  0  0  0  0  0  0  0  0  0
    4.6254    4.2861    4.3167 C   0  0  0  0  0  0  0  0  0  0  0  0
    4.3517    4.1170    5.6249 C   0  0  0  0  0  0  0  0  0  0  0  0
    3.0936    3.6093    6.1881 C   0  0  0  0  0  0  0  0  0  0  0  0
    1.9729    3.5753    5.6145 O   0  0  0  0  0  0  0  0  0  0  0  0
    3.3376    3.2136    7.5586 C   0  0  0  0  0  0  0  0  0  0  0  0
    2.4653    2.5714    8.4373 C   0  0  0  0  0  0  0  0  0  0  0  0
    2.9434    2.1991    9.7012 C   0  0  0  0  0  0  0  0  0  0  0  0
    2.1208    1.5632   10.5735 F   0  0  0  0  0  0  0  0  0  0  0  0
    4.2807    2.4592   10.0548 C   0  0  0  0  0  0  0  0  0  0  0  0
    4.7436    2.0745   11.2705 F   0  0  0  0  0  0  0  0  0  0  0  0
    5.1418    3.1095    9.1542 C   0  0  0  0  0  0  0  0  0  0  0  0
    4.6463    3.5066    7.9006 C   0  0  0  0  0  0  0  0  0  0  0  0
    5.3174    4.2042    6.7652 C   0  0  0  0  0  0  0  0  0  0  0  0
    6.4420    4.9634    6.8317 C   0  0  0  0  0  0  0  0  0  0  0  0
    6.8432    5.8435    5.7625 C   0  0  0  0  0  0  0  0  0  0  0  0
    7.1644    6.5592    4.9122 N   0  0  0  0  0  0  0  0  0  0  0  0
    7.2383    5.0678    8.0257 C   0  0  0  0  0  0  0  0  0  0  0  0
    7.8924    5.1628    8.9763 N   0  0  0  0  0  0  0  0  0  0  0  0
   -2.8927   -5.7432   -5.9768 H   0  0  0  0  0  0  0  0  0  0  0  0
   -3.1657   -8.2830   -0.2557 H   0  0  0  0  0  0  0  0  0  0  0  0
   -2.2406  -11.0053   -4.3220 H   0  0  0  0  0  0  0  0  0  0  0  0
   -3.7555   -3.7910   -6.9776 H   0  0  0  0  0  0  0  0  0  0  0  0
   -4.1404   -2.0755   -6.6668 H   0  0  0  0  0  0  0  0  0  0  0  0
   -6.0967   -2.7636   -5.2382 H   0  0  0  0  0  0  0  0  0  0  0  0
   -5.7207   -4.4967   -5.5932 H   0  0  0  0  0  0  0  0  0  0  0  0
   -6.2242   -3.3903   -6.9231 H   0  0  0  0  0  0  0  0  0  0  0  0
   -1.9705    4.7202   -6.6189 H   0  0  0  0  0  0  0  0  0  0  0  0
   -3.2477    5.4185   -5.5379 H   0  0  0  0  0  0  0  0  0  0  0  0
   -3.3817    3.7136   -6.1046 H   0  0  0  0  0  0  0  0  0  0  0  0
   -0.2579    6.2501   -5.4546 H   0  0  0  0  0  0  0  0  0  0  0  0
   -1.5953    6.8931   -4.4187 H   0  0  0  0  0  0  0  0  0  0  0  0
    0.0806    6.7765   -3.7697 H   0  0  0  0  0  0  0  0  0  0  0  0
    4.9767    6.3315    2.3812 H   0  0  0  0  0  0  0  0  0  0  0  0
    3.9250    6.5912    0.9520 H   0  0  0  0  0  0  0  0  0  0  0  0
    3.1038    6.9929    3.9067 H   0  0  0  0  0  0  0  0  0  0  0  0
    3.4462    8.2842    2.6854 H   0  0  0  0  0  0  0  0  0  0  0  0
    2.0081    7.2058    2.4775 H   0  0  0  0  0  0  0  0  0  0  0  0
    0.9580    0.6918    2.4862 H   0  0  0  0  0  0  0  0  0  0  0  0
    0.9592   -0.6451    1.3818 H   0  0  0  0  0  0  0  0  0  0  0  0
   -1.1475   -0.5154    2.7602 H   0  0  0  0  0  0  0  0  0  0  0  0
   -1.6225   -0.1652    1.0625 H   0  0  0  0  0  0  0  0  0  0  0  0
   -1.4132    1.1890    2.2346 H   0  0  0  0  0  0  0  0  0  0  0  0
   -0.4049   -2.9156   -1.1307 H   0  0  0  0  0  0  0  0  0  0  0  0
   -0.2408   -1.9238    0.2670 H   0  0  0  0  0  0  0  0  0  0  0  0
    1.7849   -0.7843   -0.8906 H   0  0  0  0  0  0  0  0  0  0  0  0
    1.4485   -1.7806   -2.3505 H   0  0  0  0  0  0  0  0  0  0  0  0
    1.9675   -2.5744   -0.8115 H   0  0  0  0  0  0  0  0  0  0  0  0
    5.6096    4.5871    3.9981 H   0  0  0  0  0  0  0  0  0  0  0  0
    1.4463    2.3530    8.1449 H   0  0  0  0  0  0  0  0  0  0  0  0
    6.1704    3.2539    9.4380 H   0  0  0  0  0  0  0  0  0  0  0  0
  1  2  2  3
  2  3  1  0
  3  4  2  0
  3  5  1  0
  5  6  2  0
  6  7  1  0
  7  8  1  0
  7  9  2  0
  9 10  1  0
  9 11  1  0
 11 12  2  0
 12 13  1  0
 13 14  2  3
 14 15  1  0
 15 16  3  0
 14 17  1  0
 17 18  3  0
  1 19  1  0
 19 20  2  0
 20 21  1  0
 21 22  1  0
 20 23  1  0
 23 24  2  0
 24 25  1  0
 24 26  1  0
 26 27  2  0
 27 28  1  0
 27 29  1  0
 29 30  2  0
 30 31  1  0
 31 32  2  0
 32 33  1  0
 32 34  1  0
 34 35  1  0
 34 36  2  0
 36 37  1  0
 37 38  2  0
 38 39  1  0
 39 40  1  0
 40 41  1  0
 41 42  1  0
 42 43  1  0
 43 44  1  0
 42 45  2  0
 45 46  1  0
 46 47  1  0
 47 48  1  0
 48 49  1  0
 49 50  1  0
 50 51  1  0
 49 52  1  0
 52 53  2  0
 53 54  1  0
 54 55  1  0
 55 56  1  0
 45 57  1  0
 57 58  2  3
 58 59  1  0
 59 60  2  0
 59 61  1  0
 61 62  2  0
 62 63  1  0
 63 64  1  0
 63 65  2  0
 65 66  1  0
 65 67  1  0
 67 68  2  0
 68 69  1  0
 69 70  2  3
 70 71  1  0
 71 72  3  0
 70 73  1  0
 73 74  3  0
 13  2  1  0
 25 19  1  0
 54 26  1  0
 69 58  1  0
 12  5  1  0
 28 23  1  0
 53 29  1  0
 68 61  1  0
 37 30  1  0
 52 38  1  0
 48 39  2  0
 47 41  2  0
  1 75  1  0
  6 76  1  0
 11 77  1  0
 21 78  1  0
 21 79  1  0
 22 80  1  0
 22 81  1  0
 22 82  1  0
 33 83  1  0
 33 84  1  0
 33 85  1  0
 35 86  1  0
 35 87  1  0
 35 88  1  0
 43 89  1  0
 43 90  1  0
 44 91  1  0
 44 92  1  0
 44 93  1  0
 50 94  1  0
 50 95  1  0
 51 96  1  0
 51 97  1  0
 51 98  1  0
 55 99  1  0
 55100  1  0
 56101  1  0
 56102  1  0
 56103  1  0
 57104  1  0
 62105  1  0
 67106  1  0
M  END

