
     RDKit          3D

113127  0  0  0  0  0  0  0  0999 V2000
    5.6571   -6.0376   -2.0016 C   0  0  0  0  0  0  0  0  0  0  0  0
    5.9668   -5.3778   -3.1303 C   0  0  0  0  0  0  0  0  0  0  0  0
    5.2498   -4.2481   -3.7439 C   0  0  0  0  0  0  0  0  0  0  0  0
    4.3822   -3.5148   -3.1858 O   0  0  0  0  0  0  0  0  0  0  0  0
    5.7425   -4.0825   -5.0929 C   0  0  0  0  0  0  0  0  0  0  0  0
    5.3628   -3.1495   -6.0547 C   0  0  0  0  0  0  0  0  0  0  0  0
    5.9667   -3.2092   -7.3175 C   0  0  0  0  0  0  0  0  0  0  0  0
    5.5022   -2.0231   -8.5323 Cl  0  0  0  0  0  0  0  0  0  0  0  0
    6.9417   -4.2073   -7.5936 C   0  0  0  0  0  0  0  0  0  0  0  0
    7.7850   -4.3218   -9.3108 Br  0  0  0  0  0  0  0  0  0  0  0  0
    7.3209   -5.1190   -6.5936 C   0  0  0  0  0  0  0  0  0  0  0  0
    6.7050   -5.0389   -5.3452 C   0  0  0  0  0  0  0  0  0  0  0  0
    6.8846   -5.9128   -4.1647 C   0  0  0  0  0  0  0  0  0  0  0  0
    8.0235   -6.5507   -3.8883 C   0  0  0  0  0  0  0  0  0  0  0  0
    8.3089   -7.7649   -4.6022 C   0  0  0  0  0  0  0  0  0  0  0  0
    8.5191   -8.7596   -5.1631 N   0  0  0  0  0  0  0  0  0  0  0  0
    9.1439   -5.8213   -3.3619 C   0  0  0  0  0  0  0  0  0  0  0  0
   10.0789   -5.2487   -2.9776 N   0  0  0  0  0  0  0  0  0  0  0  0
    4.3804   -5.8263   -1.3057 C   0  0  0  0  0  0  0  0  0  0  0  0
    3.2437   -6.6354   -1.4938 C   0  0  0  0  0  0  0  0  0  0  0  0
    3.1923   -7.8700   -2.3537 C   0  0  0  0  0  0  0  0  0  0  0  0
    3.3422   -9.1308   -1.5115 C   0  0  0  0  0  0  0  0  0  0  0  0
    2.1413   -6.0882   -0.8486 C   0  0  0  0  0  0  0  0  0  0  0  0
    0.4760   -6.4680   -0.8864 S   0  0  0  0  0  0  0  0  0  0  0  0
    0.1247   -5.0376   -0.0470 C   0  0  0  0  0  0  0  0  0  0  0  0
   -0.9598   -4.3115    0.3489 C   0  0  0  0  0  0  0  0  0  0  0  0
   -2.3301   -4.5972    0.3273 C   0  0  0  0  0  0  0  0  0  0  0  0
   -3.2267   -3.6163    0.8109 C   0  0  0  0  0  0  0  0  0  0  0  0
   -4.5640   -3.8655    0.7847 N   0  0  0  0  0  0  0  0  0  0  0  0
   -5.0464   -5.0436    0.3109 C   0  0  0  0  0  0  0  0  0  0  0  0
   -4.1553   -6.0174   -0.1605 C   0  0  0  0  0  0  0  0  0  0  0  0
   -2.8192   -5.7736   -0.1438 N   0  0  0  0  0  0  0  0  0  0  0  0
   -2.7066   -2.3831    1.2396 C   0  0  0  0  0  0  0  0  0  0  0  0
   -3.3413   -1.1939    1.4478 C   0  0  0  0  0  0  0  0  0  0  0  0
   -4.9198   -0.5890    1.2515 S   0  0  0  0  0  0  0  0  0  0  0  0
   -4.3268    1.0068    1.1730 C   0  0  0  0  0  0  0  0  0  0  0  0
   -4.9290    2.2517    0.9799 C   0  0  0  0  0  0  0  0  0  0  0  0
   -6.4068    2.4485    0.7980 C   0  0  0  0  0  0  0  0  0  0  0  0
   -6.8052    2.2404   -0.6647 C   0  0  0  0  0  0  0  0  0  0  0  0
   -3.9504    3.2669    0.9205 C   0  0  0  0  0  0  0  0  0  0  0  0
   -2.3902    2.5840    1.0306 S   0  0  0  0  0  0  0  0  0  0  0  0
   -2.9570    1.0315    1.2392 C   0  0  0  0  0  0  0  0  0  0  0  0
   -2.3931   -0.2223    1.4110 C   0  0  0  0  0  0  0  0  0  0  0  0
   -1.1438   -0.7062    1.2004 N   0  0  0  0  0  0  0  0  0  0  0  0
   -1.3378   -2.0677    1.1719 C   0  0  0  0  0  0  0  0  0  0  0  0
   -0.4347   -3.0961    0.8199 C   0  0  0  0  0  0  0  0  0  0  0  0
    0.9365   -3.1147    0.8181 N   0  0  0  0  0  0  0  0  0  0  0  0
    1.2229   -4.3048    0.2416 C   0  0  0  0  0  0  0  0  0  0  0  0
    2.3875   -4.9035   -0.1973 C   0  0  0  0  0  0  0  0  0  0  0  0
    3.9919   -4.4527   -0.3639 S   0  0  0  0  0  0  0  0  0  0  0  0
    1.8643   -2.3456    1.6599 C   0  0  0  0  0  0  0  0  0  0  0  0
    2.4002   -3.1932    2.8117 C   0  0  0  0  0  0  0  0  0  0  0  0
   -0.0700    0.0555    0.5445 C   0  0  0  0  0  0  0  0  0  0  0  0
    0.6519    0.9776    1.5366 C   0  0  0  0  0  0  0  0  0  0  0  0
   -4.1794    4.7124    0.7687 C   0  0  0  0  0  0  0  0  0  0  0  0
   -3.5259    5.6103    1.5365 C   0  0  0  0  0  0  0  0  0  0  0  0
   -2.9643    5.3075    2.8596 C   0  0  0  0  0  0  0  0  0  0  0  0
   -3.0511    4.2152    3.4767 O   0  0  0  0  0  0  0  0  0  0  0  0
   -2.3506    6.4931    3.3932 C   0  0  0  0  0  0  0  0  0  0  0  0
   -1.5969    6.5797    4.5812 C   0  0  0  0  0  0  0  0  0  0  0  0
   -1.0031    7.8065    4.7755 C   0  0  0  0  0  0  0  0  0  0  0  0
   -1.1309    8.8962    3.8560 C   0  0  0  0  0  0  0  0  0  0  0  0
   -1.8786    8.8227    2.6911 C   0  0  0  0  0  0  0  0  0  0  0  0
   -2.5175    7.5637    2.4731 C   0  0  0  0  0  0  0  0  0  0  0  0
   -3.2959    7.0736    1.2884 C   0  0  0  0  0  0  0  0  0  0  0  0
   -3.5882    7.7774    0.1609 C   0  0  0  0  0  0  0  0  0  0  0  0
   -3.4604    9.2089    0.0803 C   0  0  0  0  0  0  0  0  0  0  0  0
   -3.3712   10.3586   -0.0039 N   0  0  0  0  0  0  0  0  0  0  0  0
   -4.0396    7.1556   -1.0575 C   0  0  0  0  0  0  0  0  0  0  0  0
   -4.3923    6.6587   -2.0469 N   0  0  0  0  0  0  0  0  0  0  0  0
   -0.2335    9.7434    4.7085 C   0  0  0  0  0  0  0  0  0  0  0  0
   -0.9238   10.8587    5.5489 C   0  0  0  0  0  0  0  0  0  0  0  0
    0.0865   11.2736    6.5944 C   0  0  0  0  0  0  0  0  0  0  0  0
    0.1936   10.2514    7.4530 C   0  0  0  0  0  0  0  0  0  0  0  0
   -0.7511    9.1825    6.9589 C   0  0  0  0  0  0  0  0  0  0  0  0
   -1.8705   10.0826    6.4485 C   0  0  0  0  0  0  0  0  0  0  0  0
   -0.1118    8.6275    5.6540 C   0  0  0  0  0  0  0  0  0  0  0  0
    6.1832   -6.9612   -1.7804 H   0  0  0  0  0  0  0  0  0  0  0  0
    4.6197   -2.3933   -5.8271 H   0  0  0  0  0  0  0  0  0  0  0  0
    8.0711   -5.8702   -6.7921 H   0  0  0  0  0  0  0  0  0  0  0  0
    3.9947   -7.8403   -3.1255 H   0  0  0  0  0  0  0  0  0  0  0  0
    2.2202   -7.9090   -2.8969 H   0  0  0  0  0  0  0  0  0  0  0  0
    2.4448   -9.2684   -0.8718 H   0  0  0  0  0  0  0  0  0  0  0  0
    4.2510   -9.0725   -0.8794 H   0  0  0  0  0  0  0  0  0  0  0  0
    3.4325  -10.0106   -2.1832 H   0  0  0  0  0  0  0  0  0  0  0  0
   -6.1137   -5.2281    0.2990 H   0  0  0  0  0  0  0  0  0  0  0  0
   -4.5225   -6.9615   -0.5385 H   0  0  0  0  0  0  0  0  0  0  0  0
   -6.7046    3.4692    1.1248 H   0  0  0  0  0  0  0  0  0  0  0  0
   -6.9547    1.7174    1.4308 H   0  0  0  0  0  0  0  0  0  0  0  0
   -6.3391    1.3159   -1.0690 H   0  0  0  0  0  0  0  0  0  0  0  0
   -7.9051    2.1436   -0.7390 H   0  0  0  0  0  0  0  0  0  0  0  0
   -6.4758    3.1087   -1.2746 H   0  0  0  0  0  0  0  0  0  0  0  0
    1.3418   -1.4984    2.1247 H   0  0  0  0  0  0  0  0  0  0  0  0
    2.7052   -1.9621    1.0434 H   0  0  0  0  0  0  0  0  0  0  0  0
    1.5505   -3.6082    3.3991 H   0  0  0  0  0  0  0  0  0  0  0  0
    3.0177   -2.5624    3.4799 H   0  0  0  0  0  0  0  0  0  0  0  0
    3.0296   -4.0236    2.4346 H   0  0  0  0  0  0  0  0  0  0  0  0
   -0.4950    0.6611   -0.2855 H   0  0  0  0  0  0  0  0  0  0  0  0
    0.6542   -0.6239    0.0559 H   0  0  0  0  0  0  0  0  0  0  0  0
    1.7399    0.9827    1.3138 H   0  0  0  0  0  0  0  0  0  0  0  0
    0.5075    0.6446    2.5865 H   0  0  0  0  0  0  0  0  0  0  0  0
    0.2935    2.0193    1.4427 H   0  0  0  0  0  0  0  0  0  0  0  0
   -4.8110    5.0160   -0.0500 H   0  0  0  0  0  0  0  0  0  0  0  0
   -1.4538    5.7468    5.2573 H   0  0  0  0  0  0  0  0  0  0  0  0
   -1.9055    9.6569    2.0135 H   0  0  0  0  0  0  0  0  0  0  0  0
    0.7216   10.0321    4.2099 H   0  0  0  0  0  0  0  0  0  0  0  0
   -1.3787   11.6889    4.9658 H   0  0  0  0  0  0  0  0  0  0  0  0
    0.5697   12.2420    6.6914 H   0  0  0  0  0  0  0  0  0  0  0  0
    0.7760   10.2506    8.3655 H   0  0  0  0  0  0  0  0  0  0  0  0
   -1.0422    8.4235    7.7125 H   0  0  0  0  0  0  0  0  0  0  0  0
   -2.3392   10.7062    7.2480 H   0  0  0  0  0  0  0  0  0  0  0  0
   -2.6795    9.5442    5.9070 H   0  0  0  0  0  0  0  0  0  0  0  0
    0.9161    8.2145    5.7538 H   0  0  0  0  0  0  0  0  0  0  0  0
  1  2  2  3
  2  3  1  0
  3  4  2  0
  3  5  1  0
  5  6  2  0
  6  7  1  0
  7  8  1  0
  7  9  2  0
  9 10  1  0
  9 11  1  0
 11 12  2  0
 12 13  1  0
 13 14  2  3
 14 15  1  0
 15 16  3  0
 14 17  1  0
 17 18  3  0
  1 19  1  0
 19 20  2  0
 20 21  1  0
 21 22  1  0
 20 23  1  0
 23 24  1  0
 24 25  1  0
 25 26  1  0
 26 27  2  0
 27 28  1  0
 28 29  1  0
 29 30  2  0
 30 31  1  0
 31 32  2  0
 28 33  2  0
 33 34  1  0
 34 35  1  0
 35 36  1  0
 36 37  1  0
 37 38  1  0
 38 39  1  0
 37 40  2  0
 40 41  1  0
 41 42  1  0
 42 43  1  0
 43 44  1  0
 44 45  1  0
 45 46  2  0
 46 47  1  0
 47 48  1  0
 48 49  1  0
 49 50  1  0
 47 51  1  0
 51 52  1  0
 44 53  1  0
 53 54  1  0
 40 55  1  0
 55 56  2  3
 56 57  1  0
 57 58  2  0
 57 59  1  0
 59 60  2  0
 60 61  1  0
 61 62  2  0
 62 63  1  0
 63 64  2  0
 64 65  1  0
 65 66  2  3
 66 67  1  0
 67 68  3  0
 66 69  1  0
 69 70  3  0
 62 71  1  0
 71 72  1  0
 72 73  1  0
 73 74  2  0
 74 75  1  0
 75 76  1  0
 75 77  1  0
 13  2  1  0
 50 19  1  0
 65 56  1  0
 77 71  1  0
 12  5  1  0
 49 23  2  0
 64 59  1  0
 76 72  1  0
 48 25  2  0
 77 61  1  0
 46 26  1  0
 32 27  1  0
 45 33  1  0
 43 34  2  0
 42 36  2  0
  1 78  1  0
  6 79  1  0
 11 80  1  0
 21 81  1  0
 21 82  1  0
 22 83  1  0
 22 84  1  0
 22 85  1  0
 30 86  1  0
 31 87  1  0
 38 88  1  0
 38 89  1  0
 39 90  1  0
 39 91  1  0
 39 92  1  0
 51 93  1  0
 51 94  1  0
 52 95  1  0
 52 96  1  0
 52 97  1  0
 53 98  1  0
 53 99  1  0
 54100  1  0
 54101  1  0
 54102  1  0
 55103  1  0
 60104  1  0
 63105  1  0
 71106  1  0
 72107  1  0
 73108  1  0
 74109  1  0
 75110  1  0
 76111  1  0
 76112  1  0
 77113  1  0
M  END

