
     RDKit          3D

162178  0  0  0  0  0  0  0  0999 V2000
   -2.7850   -4.6478   -8.1710 C   0  0  0  0  0  0  0  0  0  0  0  0
   -3.2848   -5.8874   -8.3385 C   0  0  0  0  0  0  0  0  0  0  0  0
   -4.3017   -6.5154   -7.4802 C   0  0  0  0  0  0  0  0  0  0  0  0
   -5.1415   -5.9090   -6.7597 O   0  0  0  0  0  0  0  0  0  0  0  0
   -4.2486   -7.9458   -7.6782 C   0  0  0  0  0  0  0  0  0  0  0  0
   -5.0004   -8.9330   -7.0446 C   0  0  0  0  0  0  0  0  0  0  0  0
   -4.7096  -10.2782   -7.3189 C   0  0  0  0  0  0  0  0  0  0  0  0
   -5.6423  -11.5336   -6.5114 Cl  0  0  0  0  0  0  0  0  0  0  0  0
   -3.6676  -10.6061   -8.2131 C   0  0  0  0  0  0  0  0  0  0  0  0
   -3.1743  -12.4295   -8.5481 Br  0  0  0  0  0  0  0  0  0  0  0  0
   -2.9497   -9.5899   -8.8677 C   0  0  0  0  0  0  0  0  0  0  0  0
   -3.2833   -8.2459   -8.6270 C   0  0  0  0  0  0  0  0  0  0  0  0
   -2.7231   -6.9818   -9.1888 C   0  0  0  0  0  0  0  0  0  0  0  0
   -1.9889   -6.8536  -10.3259 C   0  0  0  0  0  0  0  0  0  0  0  0
   -1.5230   -7.9879  -11.0819 C   0  0  0  0  0  0  0  0  0  0  0  0
   -1.1348   -8.8897  -11.6970 N   0  0  0  0  0  0  0  0  0  0  0  0
   -1.7129   -5.5761  -10.9306 C   0  0  0  0  0  0  0  0  0  0  0  0
   -1.4874   -4.5518  -11.4217 N   0  0  0  0  0  0  0  0  0  0  0  0
   -2.9807   -3.8742   -6.9377 C   0  0  0  0  0  0  0  0  0  0  0  0
   -2.6827   -4.5307   -5.3857 S   0  0  0  0  0  0  0  0  0  0  0  0
   -2.6885   -3.0357   -4.6479 C   0  0  0  0  0  0  0  0  0  0  0  0
   -2.0519   -2.5045   -3.5727 C   0  0  0  0  0  0  0  0  0  0  0  0
   -1.0447   -3.0912   -2.3497 S   0  0  0  0  0  0  0  0  0  0  0  0
   -0.4215   -1.5266   -2.1365 C   0  0  0  0  0  0  0  0  0  0  0  0
    0.3438   -0.8983   -1.1068 C   0  0  0  0  0  0  0  0  0  0  0  0
    0.9773   -1.4736   -0.0066 C   0  0  0  0  0  0  0  0  0  0  0  0
    1.5813   -0.6017    0.9150 C   0  0  0  0  0  0  0  0  0  0  0  0
    2.2421   -0.9693    2.2469 C   0  0  0  0  0  0  0  0  0  0  0  0
    1.2707   -1.8192    3.0839 C   0  0  0  0  0  0  0  0  0  0  0  0
    1.6544   -3.0216    3.7151 C   0  0  0  0  0  0  0  0  0  0  0  0
    0.7159   -3.7916    4.4093 C   0  0  0  0  0  0  0  0  0  0  0  0
   -0.6129   -3.3772    4.4966 C   0  0  0  0  0  0  0  0  0  0  0  0
   -1.0108   -2.1663    3.9092 C   0  0  0  0  0  0  0  0  0  0  0  0
   -2.3300   -1.6937    3.9711 O   0  0  0  0  0  0  0  0  0  0  0  0
   -3.4154   -2.4035    4.5612 C   0  0  0  0  0  0  0  0  0  0  0  0
   -4.6870   -1.5771    4.4318 C   0  0  0  0  0  0  0  0  0  0  0  0
   -0.0684   -1.3925    3.2244 C   0  0  0  0  0  0  0  0  0  0  0  0
    3.5955   -1.6274    1.9088 C   0  0  0  0  0  0  0  0  0  0  0  0
    4.8183   -0.9237    2.0072 C   0  0  0  0  0  0  0  0  0  0  0  0
    6.0192   -1.5171    1.6104 C   0  0  0  0  0  0  0  0  0  0  0  0
    6.0259   -2.8064    1.0767 C   0  0  0  0  0  0  0  0  0  0  0  0
    4.8322   -3.5113    0.9199 C   0  0  0  0  0  0  0  0  0  0  0  0
    4.8912   -4.7884    0.3389 O   0  0  0  0  0  0  0  0  0  0  0  0
    3.7769   -5.6509    0.1024 C   0  0  0  0  0  0  0  0  0  0  0  0
    3.3516   -6.3522    1.3898 C   0  0  0  0  0  0  0  0  0  0  0  0
    3.6236   -2.9152    1.3268 C   0  0  0  0  0  0  0  0  0  0  0  0
    2.3775    0.4356    2.8297 C   0  0  0  0  0  0  0  0  0  0  0  0
    2.0051    1.3975    1.9168 C   0  0  0  0  0  0  0  0  0  0  0  0
    1.4893    0.7811    0.7297 C   0  0  0  0  0  0  0  0  0  0  0  0
    0.8186    1.3588   -0.3554 C   0  0  0  0  0  0  0  0  0  0  0  0
    0.2499    0.4801   -1.2960 C   0  0  0  0  0  0  0  0  0  0  0  0
   -0.6039    0.8278   -2.5202 C   0  0  0  0  0  0  0  0  0  0  0  0
   -1.9181    1.5119   -2.1073 C   0  0  0  0  0  0  0  0  0  0  0  0
   -2.5485    2.4710   -2.9242 C   0  0  0  0  0  0  0  0  0  0  0  0
   -3.7772    3.0221   -2.5611 C   0  0  0  0  0  0  0  0  0  0  0  0
   -4.4242    2.6018   -1.3965 C   0  0  0  0  0  0  0  0  0  0  0  0
   -3.8511    1.5998   -0.5983 C   0  0  0  0  0  0  0  0  0  0  0  0
   -4.4710    1.0958    0.5560 O   0  0  0  0  0  0  0  0  0  0  0  0
   -5.7732    1.4457    1.0226 C   0  0  0  0  0  0  0  0  0  0  0  0
   -6.8529    0.7546    0.1975 C   0  0  0  0  0  0  0  0  0  0  0  0
   -2.6103    1.0651   -0.9594 C   0  0  0  0  0  0  0  0  0  0  0  0
    0.2910    1.6261   -3.4796 C   0  0  0  0  0  0  0  0  0  0  0  0
    1.0528    0.9821   -4.4787 C   0  0  0  0  0  0  0  0  0  0  0  0
    1.9296    1.7112   -5.2867 C   0  0  0  0  0  0  0  0  0  0  0  0
    2.0959    3.0832   -5.0881 C   0  0  0  0  0  0  0  0  0  0  0  0
    1.3852    3.7443   -4.0822 C   0  0  0  0  0  0  0  0  0  0  0  0
    1.5956    5.1242   -3.9183 O   0  0  0  0  0  0  0  0  0  0  0  0
    0.8111    5.9910   -3.0978 C   0  0  0  0  0  0  0  0  0  0  0  0
   -0.5497    6.2504   -3.7339 C   0  0  0  0  0  0  0  0  0  0  0  0
    0.5007    3.0076   -3.2689 C   0  0  0  0  0  0  0  0  0  0  0  0
   -0.9374   -0.5828   -2.9912 C   0  0  0  0  0  0  0  0  0  0  0  0
   -1.8852   -1.1714   -3.8394 C   0  0  0  0  0  0  0  0  0  0  0  0
   -2.3674   -0.8421   -5.0740 N   0  0  0  0  0  0  0  0  0  0  0  0
   -2.8320   -2.0302   -5.5522 C   0  0  0  0  0  0  0  0  0  0  0  0
   -2.9788   -2.4679   -6.8727 C   0  0  0  0  0  0  0  0  0  0  0  0
   -2.1133    0.3649   -5.8605 C   0  0  0  0  0  0  0  0  0  0  0  0
   -3.4249    1.0115   -6.2831 C   0  0  0  0  0  0  0  0  0  0  0  0
    2.1375    3.0050    2.4651 S   0  0  0  0  0  0  0  0  0  0  0  0
    2.7238    2.4205    3.9367 C   0  0  0  0  0  0  0  0  0  0  0  0
    3.1208    2.8994    5.1487 C   0  0  0  0  0  0  0  0  0  0  0  0
    3.3733    4.3266    5.9776 S   0  0  0  0  0  0  0  0  0  0  0  0
    3.8371    3.4945    7.4093 C   0  0  0  0  0  0  0  0  0  0  0  0
    3.8174    2.1038    7.2047 C   0  0  0  0  0  0  0  0  0  0  0  0
    3.3954    1.8156    5.9125 C   0  0  0  0  0  0  0  0  0  0  0  0
    3.1909    0.6441    5.2577 N   0  0  0  0  0  0  0  0  0  0  0  0
    3.2675   -0.6917    5.8432 C   0  0  0  0  0  0  0  0  0  0  0  0
    4.6518   -1.2924    5.6483 C   0  0  0  0  0  0  0  0  0  0  0  0
    2.7817    1.0542    4.0199 C   0  0  0  0  0  0  0  0  0  0  0  0
    4.4073    4.1209    8.6164 C   0  0  0  0  0  0  0  0  0  0  0  0
    3.8710    5.1763    9.2577 C   0  0  0  0  0  0  0  0  0  0  0  0
    2.6249    5.8660    8.9061 C   0  0  0  0  0  0  0  0  0  0  0  0
    1.6797    5.3997    8.2169 O   0  0  0  0  0  0  0  0  0  0  0  0
    2.6175    7.1555    9.5685 C   0  0  0  0  0  0  0  0  0  0  0  0
    1.6993    8.1999    9.4270 C   0  0  0  0  0  0  0  0  0  0  0  0
    0.6049    8.0661    8.6374 F   0  0  0  0  0  0  0  0  0  0  0  0
    1.9408    9.3994   10.1077 C   0  0  0  0  0  0  0  0  0  0  0  0
    3.0941    9.5421   10.8997 C   0  0  0  0  0  0  0  0  0  0  0  0
    4.0060    8.4807   11.0291 C   0  0  0  0  0  0  0  0  0  0  0  0
    3.7388    7.2669   10.3726 C   0  0  0  0  0  0  0  0  0  0  0  0
    4.5134    5.9939   10.3348 C   0  0  0  0  0  0  0  0  0  0  0  0
    5.4373    5.5841   11.2439 C   0  0  0  0  0  0  0  0  0  0  0  0
    5.9396    4.2373   11.2825 C   0  0  0  0  0  0  0  0  0  0  0  0
    6.3516    3.1567   11.3306 N   0  0  0  0  0  0  0  0  0  0  0  0
    5.8887    6.4219   12.3245 C   0  0  0  0  0  0  0  0  0  0  0  0
    6.2643    7.0826   13.1976 N   0  0  0  0  0  0  0  0  0  0  0  0
   -2.0327   -4.2565   -8.8373 H   0  0  0  0  0  0  0  0  0  0  0  0
   -5.7750   -8.6688   -6.3350 H   0  0  0  0  0  0  0  0  0  0  0  0
   -2.1361   -9.8743   -9.5164 H   0  0  0  0  0  0  0  0  0  0  0  0
    0.9497   -2.5417    0.1455 H   0  0  0  0  0  0  0  0  0  0  0  0
    2.6798   -3.3636    3.7062 H   0  0  0  0  0  0  0  0  0  0  0  0
    1.0265   -4.7126    4.8851 H   0  0  0  0  0  0  0  0  0  0  0  0
   -1.3154   -3.9955    5.0353 H   0  0  0  0  0  0  0  0  0  0  0  0
   -3.5519   -3.3766    4.0412 H   0  0  0  0  0  0  0  0  0  0  0  0
   -3.2039   -2.5838    5.6371 H   0  0  0  0  0  0  0  0  0  0  0  0
   -4.5538   -0.6044    4.9490 H   0  0  0  0  0  0  0  0  0  0  0  0
   -5.5323   -2.1191    4.8975 H   0  0  0  0  0  0  0  0  0  0  0  0
   -4.9139   -1.3954    3.3606 H   0  0  0  0  0  0  0  0  0  0  0  0
   -0.3924   -0.4626    2.7764 H   0  0  0  0  0  0  0  0  0  0  0  0
    4.8657    0.0848    2.3954 H   0  0  0  0  0  0  0  0  0  0  0  0
    6.9501   -0.9724    1.7107 H   0  0  0  0  0  0  0  0  0  0  0  0
    6.9638   -3.2522    0.7713 H   0  0  0  0  0  0  0  0  0  0  0  0
    4.0848   -6.4300   -0.6272 H   0  0  0  0  0  0  0  0  0  0  0  0
    2.9280   -5.0951   -0.3477 H   0  0  0  0  0  0  0  0  0  0  0  0
    2.5522   -7.0900    1.1678 H   0  0  0  0  0  0  0  0  0  0  0  0
    2.9669   -5.6200    2.1297 H   0  0  0  0  0  0  0  0  0  0  0  0
    4.2198   -6.8838    1.8299 H   0  0  0  0  0  0  0  0  0  0  0  0
    2.6978   -3.4538    1.2029 H   0  0  0  0  0  0  0  0  0  0  0  0
    0.7045    2.4300   -0.4380 H   0  0  0  0  0  0  0  0  0  0  0  0
   -2.0974    2.8053   -3.8480 H   0  0  0  0  0  0  0  0  0  0  0  0
   -4.2381    3.7677   -3.1959 H   0  0  0  0  0  0  0  0  0  0  0  0
   -5.3736    3.0468   -1.1502 H   0  0  0  0  0  0  0  0  0  0  0  0
   -5.8682    1.1117    2.0779 H   0  0  0  0  0  0  0  0  0  0  0  0
   -5.9134    2.5483    1.0092 H   0  0  0  0  0  0  0  0  0  0  0  0
   -6.7634   -0.3482    0.2999 H   0  0  0  0  0  0  0  0  0  0  0  0
   -6.7646    1.0286   -0.8750 H   0  0  0  0  0  0  0  0  0  0  0  0
   -7.8470    1.0720    0.5668 H   0  0  0  0  0  0  0  0  0  0  0  0
   -2.1982    0.2745   -0.3460 H   0  0  0  0  0  0  0  0  0  0  0  0
    0.9782   -0.0845   -4.6388 H   0  0  0  0  0  0  0  0  0  0  0  0
    2.4914    1.2086   -6.0657 H   0  0  0  0  0  0  0  0  0  0  0  0
    2.7867    3.6341   -5.7115 H   0  0  0  0  0  0  0  0  0  0  0  0
    1.3398    6.9624   -3.0016 H   0  0  0  0  0  0  0  0  0  0  0  0
    0.6982    5.5816   -2.0702 H   0  0  0  0  0  0  0  0  0  0  0  0
   -1.1397    6.9449   -3.0974 H   0  0  0  0  0  0  0  0  0  0  0  0
   -1.1184    5.3011   -3.8475 H   0  0  0  0  0  0  0  0  0  0  0  0
   -0.4137    6.7091   -4.7386 H   0  0  0  0  0  0  0  0  0  0  0  0
   -0.0266    3.5028   -2.4677 H   0  0  0  0  0  0  0  0  0  0  0  0
   -2.9498   -1.8220   -7.7395 H   0  0  0  0  0  0  0  0  0  0  0  0
   -1.5460    1.0970   -5.2713 H   0  0  0  0  0  0  0  0  0  0  0  0
   -1.4952    0.1192   -6.7514 H   0  0  0  0  0  0  0  0  0  0  0  0
   -3.9475    0.3738   -7.0314 H   0  0  0  0  0  0  0  0  0  0  0  0
   -3.2224    1.9976   -6.7512 H   0  0  0  0  0  0  0  0  0  0  0  0
   -4.0876    1.1547   -5.4025 H   0  0  0  0  0  0  0  0  0  0  0  0
    4.1076    1.3694    7.9468 H   0  0  0  0  0  0  0  0  0  0  0  0
    3.0528   -0.6314    6.9312 H   0  0  0  0  0  0  0  0  0  0  0  0
    2.4917   -1.3409    5.4153 H   0  0  0  0  0  0  0  0  0  0  0  0
    4.8206   -1.5366    4.5821 H   0  0  0  0  0  0  0  0  0  0  0  0
    4.7378   -2.2295    6.2389 H   0  0  0  0  0  0  0  0  0  0  0  0
    5.4302   -0.5806    5.9901 H   0  0  0  0  0  0  0  0  0  0  0  0
    5.3510    3.7099    8.9274 H   0  0  0  0  0  0  0  0  0  0  0  0
    1.2514   10.2286   10.0072 H   0  0  0  0  0  0  0  0  0  0  0  0
    3.2891   10.4821   11.4000 H   0  0  0  0  0  0  0  0  0  0  0  0
    4.9070    8.6411   11.5945 H   0  0  0  0  0  0  0  0  0  0  0  0
  1  2  2  3
  2  3  1  0
  3  4  2  0
  3  5  1  0
  5  6  2  0
  6  7  1  0
  7  8  1  0
  7  9  2  0
  9 10  1  0
  9 11  1  0
 11 12  2  0
 12 13  1  0
 13 14  2  3
 14 15  1  0
 15 16  3  0
 14 17  1  0
 17 18  3  0
  1 19  1  0
 19 20  1  0
 20 21  1  0
 21 22  1  0
 22 23  1  0
 23 24  1  0
 24 25  1  0
 25 26  2  0
 26 27  1  0
 27 28  1  0
 28 29  1  0
 29 30  2  0
 30 31  1  0
 31 32  2  0
 32 33  1  0
 33 34  1  0
 34 35  1  0
 35 36  1  0
 33 37  2  0
 28 38  1  0
 38 39  2  0
 39 40  1  0
 40 41  2  0
 41 42  1  0
 42 43  1  0
 43 44  1  0
 44 45  1  0
 42 46  2  0
 28 47  1  0
 47 48  2  0
 48 49  1  0
 49 50  1  0
 50 51  2  0
 51 52  1  0
 52 53  1  0
 53 54  2  0
 54 55  1  0
 55 56  2  0
 56 57  1  0
 57 58  1  0
 58 59  1  0
 59 60  1  0
 57 61  2  0
 52 62  1  0
 62 63  2  0
 63 64  1  0
 64 65  2  0
 65 66  1  0
 66 67  1  0
 67 68  1  0
 68 69  1  0
 66 70  2  0
 52 71  1  0
 71 72  1  0
 72 73  1  0
 73 74  1  0
 74 75  1  0
 73 76  1  0
 76 77  1  0
 48 78  1  0
 78 79  1  0
 79 80  1  0
 80 81  1  0
 81 82  1  0
 82 83  2  0
 83 84  1  0
 84 85  1  0
 85 86  1  0
 86 87  1  0
 85 88  1  0
 82 89  1  0
 89 90  2  3
 90 91  1  0
 91 92  2  0
 91 93  1  0
 93 94  2  0
 94 95  1  0
 94 96  1  0
 96 97  2  0
 97 98  1  0
 98 99  2  0
 99100  1  0
100101  2  3
101102  1  0
102103  3  0
101104  1  0
104105  3  0
 13  2  1  0
 75 19  2  0
 88 79  2  0
100 90  1  0
 12  5  1  0
 74 21  2  0
 84 80  2  0
 99 93  1  0
 72 22  2  0
 71 24  2  0
 51 25  1  0
 61 53  1  0
 70 62  1  0
 49 27  2  0
 37 29  1  0
 46 38  1  0
 88 47  1  0
  1106  1  0
  6107  1  0
 11108  1  0
 26109  1  0
 30110  1  0
 31111  1  0
 32112  1  0
 35113  1  0
 35114  1  0
 36115  1  0
 36116  1  0
 36117  1  0
 37118  1  0
 39119  1  0
 40120  1  0
 41121  1  0
 44122  1  0
 44123  1  0
 45124  1  0
 45125  1  0
 45126  1  0
 46127  1  0
 50128  1  0
 54129  1  0
 55130  1  0
 56131  1  0
 59132  1  0
 59133  1  0
 60134  1  0
 60135  1  0
 60136  1  0
 61137  1  0
 63138  1  0
 64139  1  0
 65140  1  0
 68141  1  0
 68142  1  0
 69143  1  0
 69144  1  0
 69145  1  0
 70146  1  0
 75147  1  0
 76148  1  0
 76149  1  0
 77150  1  0
 77151  1  0
 77152  1  0
 83153  1  0
 86154  1  0
 86155  1  0
 87156  1  0
 87157  1  0
 87158  1  0
 89159  1  0
 96160  1  0
 97161  1  0
 98162  1  0
M  END

