
     RDKit          3D

118133  0  0  0  0  0  0  0  0999 V2000
   -4.2558    6.6078   12.8147 N   0  0  0  0  0  0  0  0  0  0  0  0
   -3.4018    6.1006   12.2199 C   0  0  0  0  0  0  0  0  0  0  0  0
   -2.3463    5.4687   11.4780 C   0  0  0  0  0  0  0  0  0  0  0  0
   -1.0589    5.2430   11.9391 C   0  0  0  0  0  0  0  0  0  0  0  0
   -0.2433    4.6005   10.9970 C   0  0  0  0  0  0  0  0  0  0  0  0
   -0.8893    4.3388    9.7881 C   0  0  0  0  0  0  0  0  0  0  0  0
   -2.4779    4.8947    9.9080 S   0  0  0  0  0  0  0  0  0  0  0  0
   -0.3333    3.6701    8.5959 C   0  0  0  0  0  0  0  0  0  0  0  0
    1.0261    3.4505    8.2789 C   0  0  0  0  0  0  0  0  0  0  0  0
    2.1911    3.9537    9.0327 C   0  0  0  0  0  0  0  0  0  0  0  0
    2.4260    5.3377    9.0599 C   0  0  0  0  0  0  0  0  0  0  0  0
    3.5406    5.8506    9.7260 C   0  0  0  0  0  0  0  0  0  0  0  0
    4.4256    4.9913   10.3783 C   0  0  0  0  0  0  0  0  0  0  0  0
    4.2042    3.6109   10.3613 C   0  0  0  0  0  0  0  0  0  0  0  0
    3.0941    3.0745    9.6832 C   0  0  0  0  0  0  0  0  0  0  0  0
    2.8547    1.5809    9.7480 C   0  0  0  0  0  0  0  0  0  0  0  0
    1.8536    1.2411   10.8464 C   0  0  0  0  0  0  0  0  0  0  0  0
    1.1556    2.8283    7.0362 C   0  0  0  0  0  0  0  0  0  0  0  0
    2.4942    2.5876    6.0146 S   0  0  0  0  0  0  0  0  0  0  0  0
    1.4836    2.0302    4.7721 C   0  0  0  0  0  0  0  0  0  0  0  0
    1.5560    2.0123    3.4120 C   0  0  0  0  0  0  0  0  0  0  0  0
    2.6219    2.3225    2.5615 C   0  0  0  0  0  0  0  0  0  0  0  0
    2.3582    2.5153    1.1740 C   0  0  0  0  0  0  0  0  0  0  0  0
    3.4190    2.8079    0.3825 N   0  0  0  0  0  0  0  0  0  0  0  0
    4.6250    2.8261    1.5215 S   0  0  0  0  0  0  0  0  0  0  0  0
    3.9062    2.4736    2.9713 N   0  0  0  0  0  0  0  0  0  0  0  0
    1.0425    2.3827    0.7119 C   0  0  0  0  0  0  0  0  0  0  0  0
    0.5750    2.2446   -0.5617 C   0  0  0  0  0  0  0  0  0  0  0  0
    1.3310    1.8757   -2.0347 S   0  0  0  0  0  0  0  0  0  0  0  0
   -0.0492    1.0637   -2.5961 C   0  0  0  0  0  0  0  0  0  0  0  0
   -0.2270    0.1740   -3.6583 C   0  0  0  0  0  0  0  0  0  0  0  0
    0.8349   -0.0779   -4.6578 C   0  0  0  0  0  0  0  0  0  0  0  0
    1.5756   -1.2897   -4.7130 C   0  0  0  0  0  0  0  0  0  0  0  0
    1.4507   -2.3777   -3.6640 C   0  0  0  0  0  0  0  0  0  0  0  0
    2.6017   -2.3074   -2.6646 C   0  0  0  0  0  0  0  0  0  0  0  0
    2.5276   -1.4592   -5.7371 C   0  0  0  0  0  0  0  0  0  0  0  0
    2.7600   -0.4510   -6.6745 C   0  0  0  0  0  0  0  0  0  0  0  0
    2.0616    0.7512   -6.5912 C   0  0  0  0  0  0  0  0  0  0  0  0
    1.1165    0.9428   -5.5818 C   0  0  0  0  0  0  0  0  0  0  0  0
   -1.4536   -0.5299   -3.5374 C   0  0  0  0  0  0  0  0  0  0  0  0
   -2.1975   -0.0807   -2.0767 S   0  0  0  0  0  0  0  0  0  0  0  0
   -1.0340    1.0450   -1.6422 C   0  0  0  0  0  0  0  0  0  0  0  0
   -0.6812    1.7132   -0.4670 C   0  0  0  0  0  0  0  0  0  0  0  0
   -1.0692    1.5344    0.8227 N   0  0  0  0  0  0  0  0  0  0  0  0
   -0.0168    2.0208    1.5593 C   0  0  0  0  0  0  0  0  0  0  0  0
    0.2299    1.9286    2.9578 C   0  0  0  0  0  0  0  0  0  0  0  0
   -0.6479    2.0095    4.0136 N   0  0  0  0  0  0  0  0  0  0  0  0
    0.1642    2.0608    5.1021 C   0  0  0  0  0  0  0  0  0  0  0  0
   -0.0217    2.5405    6.3955 C   0  0  0  0  0  0  0  0  0  0  0  0
   -1.3032    3.0944    7.3169 S   0  0  0  0  0  0  0  0  0  0  0  0
   -2.0264    2.5141    3.9887 C   0  0  0  0  0  0  0  0  0  0  0  0
   -3.0009    1.5386    4.6565 C   0  0  0  0  0  0  0  0  0  0  0  0
   -2.0554    0.5414    1.2679 C   0  0  0  0  0  0  0  0  0  0  0  0
   -3.4873    1.0321    1.0452 C   0  0  0  0  0  0  0  0  0  0  0  0
   -1.8341   -1.7725   -4.2330 C   0  0  0  0  0  0  0  0  0  0  0  0
   -1.5653   -2.0505   -5.5200 C   0  0  0  0  0  0  0  0  0  0  0  0
   -1.4197   -1.0498   -6.5822 C   0  0  0  0  0  0  0  0  0  0  0  0
   -1.6396    0.1833   -6.4678 O   0  0  0  0  0  0  0  0  0  0  0  0
   -1.1701   -1.7317   -7.8324 C   0  0  0  0  0  0  0  0  0  0  0  0
   -0.8375   -1.1390   -9.0743 C   0  0  0  0  0  0  0  0  0  0  0  0
   -0.5184   -2.0527  -10.0613 C   0  0  0  0  0  0  0  0  0  0  0  0
   -0.5138   -3.4695   -9.8450 C   0  0  0  0  0  0  0  0  0  0  0  0
   -0.8381   -4.0523   -8.6319 C   0  0  0  0  0  0  0  0  0  0  0  0
   -1.2119   -3.1324   -7.6109 C   0  0  0  0  0  0  0  0  0  0  0  0
   -1.5090   -3.3966   -6.1747 C   0  0  0  0  0  0  0  0  0  0  0  0
   -1.6133   -4.6151   -5.5796 C   0  0  0  0  0  0  0  0  0  0  0  0
   -1.8502   -5.8230   -6.3297 C   0  0  0  0  0  0  0  0  0  0  0  0
   -2.0535   -6.8036   -6.9139 N   0  0  0  0  0  0  0  0  0  0  0  0
   -1.5070   -4.8011   -4.1558 C   0  0  0  0  0  0  0  0  0  0  0  0
   -1.4108   -4.9596   -3.0144 N   0  0  0  0  0  0  0  0  0  0  0  0
   -0.0832   -3.7002  -11.2603 C   0  0  0  0  0  0  0  0  0  0  0  0
   -1.1772   -4.2273  -12.2371 C   0  0  0  0  0  0  0  0  0  0  0  0
   -0.6303   -4.0080  -13.6263 C   0  0  0  0  0  0  0  0  0  0  0  0
   -0.6354   -2.6846  -13.8313 C   0  0  0  0  0  0  0  0  0  0  0  0
   -1.1875   -2.0569  -12.5720 C   0  0  0  0  0  0  0  0  0  0  0  0
   -2.2171   -3.1161  -12.2185 C   0  0  0  0  0  0  0  0  0  0  0  0
   -0.0913   -2.2513  -11.4842 C   0  0  0  0  0  0  0  0  0  0  0  0
   -0.7197    5.5131   12.9316 H   0  0  0  0  0  0  0  0  0  0  0  0
    0.7756    4.3212   11.2201 H   0  0  0  0  0  0  0  0  0  0  0  0
    1.7476    6.0161    8.5567 H   0  0  0  0  0  0  0  0  0  0  0  0
    3.7145    6.9176    9.7437 H   0  0  0  0  0  0  0  0  0  0  0  0
    5.2829    5.3912   10.9015 H   0  0  0  0  0  0  0  0  0  0  0  0
    4.8968    2.9618   10.8842 H   0  0  0  0  0  0  0  0  0  0  0  0
    3.8112    1.0479    9.9588 H   0  0  0  0  0  0  0  0  0  0  0  0
    2.4882    1.1928    8.7750 H   0  0  0  0  0  0  0  0  0  0  0  0
    1.7729    0.1387   10.9510 H   0  0  0  0  0  0  0  0  0  0  0  0
    0.8509    1.6492   10.5994 H   0  0  0  0  0  0  0  0  0  0  0  0
    2.1876    1.6655   11.8184 H   0  0  0  0  0  0  0  0  0  0  0  0
    0.5056   -2.3059   -3.0966 H   0  0  0  0  0  0  0  0  0  0  0  0
    1.4564   -3.3719   -4.1626 H   0  0  0  0  0  0  0  0  0  0  0  0
    2.6270   -1.3057   -2.1794 H   0  0  0  0  0  0  0  0  0  0  0  0
    3.5695   -2.5025   -3.1726 H   0  0  0  0  0  0  0  0  0  0  0  0
    2.4492   -3.0724   -1.8749 H   0  0  0  0  0  0  0  0  0  0  0  0
    3.1017   -2.3764   -5.7968 H   0  0  0  0  0  0  0  0  0  0  0  0
    3.4965   -0.5973   -7.4519 H   0  0  0  0  0  0  0  0  0  0  0  0
    2.2481    1.5420   -7.3096 H   0  0  0  0  0  0  0  0  0  0  0  0
    0.5716    1.8801   -5.5407 H   0  0  0  0  0  0  0  0  0  0  0  0
   -2.3451    2.7209    2.9541 H   0  0  0  0  0  0  0  0  0  0  0  0
   -2.0738    3.4920    4.5159 H   0  0  0  0  0  0  0  0  0  0  0  0
   -3.0085    0.5536    4.1529 H   0  0  0  0  0  0  0  0  0  0  0  0
   -4.0312    1.9547    4.6157 H   0  0  0  0  0  0  0  0  0  0  0  0
   -2.7316    1.3662    5.7164 H   0  0  0  0  0  0  0  0  0  0  0  0
   -1.8905    0.2912    2.3263 H   0  0  0  0  0  0  0  0  0  0  0  0
   -1.9034   -0.4178    0.7288 H   0  0  0  0  0  0  0  0  0  0  0  0
   -3.8135    0.8430    0.0018 H   0  0  0  0  0  0  0  0  0  0  0  0
   -3.5818    2.1228    1.2300 H   0  0  0  0  0  0  0  0  0  0  0  0
   -4.1809    0.4921    1.7280 H   0  0  0  0  0  0  0  0  0  0  0  0
   -2.2771   -2.5220   -3.5979 H   0  0  0  0  0  0  0  0  0  0  0  0
   -0.7964   -0.0681   -9.2331 H   0  0  0  0  0  0  0  0  0  0  0  0
   -0.7544   -5.1179   -8.4982 H   0  0  0  0  0  0  0  0  0  0  0  0
    0.9187   -4.1743  -11.3517 H   0  0  0  0  0  0  0  0  0  0  0  0
   -1.5577   -5.2496  -12.0344 H   0  0  0  0  0  0  0  0  0  0  0  0
   -0.3695   -4.7623  -14.3578 H   0  0  0  0  0  0  0  0  0  0  0  0
   -0.3847   -2.1869  -14.7611 H   0  0  0  0  0  0  0  0  0  0  0  0
   -1.5745   -1.0252  -12.6920 H   0  0  0  0  0  0  0  0  0  0  0  0
   -2.7077   -2.9627  -11.2320 H   0  0  0  0  0  0  0  0  0  0  0  0
   -3.0080   -3.2340  -12.9956 H   0  0  0  0  0  0  0  0  0  0  0  0
    0.9055   -1.8146  -11.7140 H   0  0  0  0  0  0  0  0  0  0  0  0
  1  2  3  0
  2  3  1  0
  3  4  2  0
  4  5  1  0
  5  6  2  0
  6  7  1  0
  6  8  1  0
  8  9  2  0
  9 10  1  0
 10 11  2  0
 11 12  1  0
 12 13  2  0
 13 14  1  0
 14 15  2  0
 15 16  1  0
 16 17  1  0
  9 18  1  0
 18 19  1  0
 19 20  1  0
 20 21  1  0
 21 22  1  0
 22 23  1  0
 23 24  2  0
 24 25  1  0
 25 26  1  0
 23 27  1  0
 27 28  1  0
 28 29  1  0
 29 30  1  0
 30 31  1  0
 31 32  1  0
 32 33  2  0
 33 34  1  0
 34 35  1  0
 33 36  1  0
 36 37  2  0
 37 38  1  0
 38 39  2  0
 31 40  2  0
 40 41  1  0
 41 42  1  0
 42 43  1  0
 43 44  1  0
 44 45  1  0
 45 46  1  0
 46 47  1  0
 47 48  1  0
 48 49  1  0
 49 50  1  0
 47 51  1  0
 51 52  1  0
 44 53  1  0
 53 54  1  0
 40 55  1  0
 55 56  2  3
 56 57  1  0
 57 58  2  0
 57 59  1  0
 59 60  2  0
 60 61  1  0
 61 62  2  0
 62 63  1  0
 63 64  2  0
 64 65  1  0
 65 66  2  3
 66 67  1  0
 67 68  3  0
 66 69  1  0
 69 70  3  0
 62 71  1  0
 71 72  1  0
 72 73  1  0
 73 74  2  0
 74 75  1  0
 75 76  1  0
 75 77  1  0
  7  3  1  0
 50  8  1  0
 65 56  1  0
 77 71  1  0
 15 10  1  0
 49 18  2  0
 64 59  1  0
 76 72  1  0
 48 20  2  0
 77 61  1  0
 46 21  2  0
 26 22  2  0
 45 27  2  0
 43 28  2  0
 42 30  2  0
 39 32  1  0
  4 78  1  0
  5 79  1  0
 11 80  1  0
 12 81  1  0
 13 82  1  0
 14 83  1  0
 16 84  1  0
 16 85  1  0
 17 86  1  0
 17 87  1  0
 17 88  1  0
 34 89  1  0
 34 90  1  0
 35 91  1  0
 35 92  1  0
 35 93  1  0
 36 94  1  0
 37 95  1  0
 38 96  1  0
 39 97  1  0
 51 98  1  0
 51 99  1  0
 52100  1  0
 52101  1  0
 52102  1  0
 53103  1  0
 53104  1  0
 54105  1  0
 54106  1  0
 54107  1  0
 55108  1  0
 60109  1  0
 63110  1  0
 71111  1  0
 72112  1  0
 73113  1  0
 74114  1  0
 75115  1  0
 76116  1  0
 76117  1  0
 77118  1  0
M  END

