
     RDKit          3D

118133  0  0  0  0  0  0  0  0999 V2000
   11.1971   -4.8768   -5.4064 N   0  0  0  0  0  0  0  0  0  0  0  0
   10.1552   -5.1509   -4.9831 C   0  0  0  0  0  0  0  0  0  0  0  0
    8.8602   -5.4904   -4.4631 C   0  0  0  0  0  0  0  0  0  0  0  0
    8.2168   -6.7062   -4.6335 C   0  0  0  0  0  0  0  0  0  0  0  0
    6.9459   -6.7426   -4.0466 C   0  0  0  0  0  0  0  0  0  0  0  0
    6.5832   -5.5418   -3.4362 C   0  0  0  0  0  0  0  0  0  0  0  0
    7.8573   -4.4449   -3.6101 S   0  0  0  0  0  0  0  0  0  0  0  0
    5.3263   -5.2640   -2.7117 C   0  0  0  0  0  0  0  0  0  0  0  0
    4.0697   -5.8953   -2.8966 C   0  0  0  0  0  0  0  0  0  0  0  0
    3.6970   -6.7418   -4.0584 C   0  0  0  0  0  0  0  0  0  0  0  0
    2.9392   -7.9149   -3.8853 C   0  0  0  0  0  0  0  0  0  0  0  0
    2.6563   -8.7435   -4.9741 C   0  0  0  0  0  0  0  0  0  0  0  0
    3.1168   -8.4105   -6.2591 C   0  0  0  0  0  0  0  0  0  0  0  0
    2.8323   -9.3069   -7.4335 C   0  0  0  0  0  0  0  0  0  0  0  0
    1.6576   -8.7765   -8.2528 C   0  0  0  0  0  0  0  0  0  0  0  0
    3.8346   -7.2169   -6.4417 C   0  0  0  0  0  0  0  0  0  0  0  0
    4.1016   -6.3809   -5.3573 C   0  0  0  0  0  0  0  0  0  0  0  0
    3.1717   -5.5092   -1.8901 C   0  0  0  0  0  0  0  0  0  0  0  0
    1.5537   -5.9089   -1.5140 S   0  0  0  0  0  0  0  0  0  0  0  0
    1.5924   -4.9081   -0.1400 C   0  0  0  0  0  0  0  0  0  0  0  0
    0.7129   -4.3402    0.7349 C   0  0  0  0  0  0  0  0  0  0  0  0
   -0.6839   -4.4372    0.8247 C   0  0  0  0  0  0  0  0  0  0  0  0
   -1.3827   -3.5071    1.6511 C   0  0  0  0  0  0  0  0  0  0  0  0
   -2.7338   -3.6017    1.6814 N   0  0  0  0  0  0  0  0  0  0  0  0
   -2.9432   -4.8765    0.6435 S   0  0  0  0  0  0  0  0  0  0  0  0
   -1.4315   -5.3305    0.1359 N   0  0  0  0  0  0  0  0  0  0  0  0
   -0.6422   -2.5729    2.3789 C   0  0  0  0  0  0  0  0  0  0  0  0
   -1.0127   -1.5591    3.2124 C   0  0  0  0  0  0  0  0  0  0  0  0
   -2.3989   -0.6629    3.5878 S   0  0  0  0  0  0  0  0  0  0  0  0
   -1.4485    0.5431    4.3461 C   0  0  0  0  0  0  0  0  0  0  0  0
   -1.7161    1.8714    4.6871 C   0  0  0  0  0  0  0  0  0  0  0  0
   -3.0542    2.5021    4.6635 C   0  0  0  0  0  0  0  0  0  0  0  0
   -3.4750    3.2941    5.7437 C   0  0  0  0  0  0  0  0  0  0  0  0
   -4.7087    3.9509    5.7004 C   0  0  0  0  0  0  0  0  0  0  0  0
   -5.5305    3.8374    4.5694 C   0  0  0  0  0  0  0  0  0  0  0  0
   -6.8176    4.6100    4.4848 C   0  0  0  0  0  0  0  0  0  0  0  0
   -6.5501    6.0535    4.0644 C   0  0  0  0  0  0  0  0  0  0  0  0
   -5.1058    3.0555    3.4836 C   0  0  0  0  0  0  0  0  0  0  0  0
   -3.8815    2.3860    3.5359 C   0  0  0  0  0  0  0  0  0  0  0  0
   -0.5153    2.5905    4.8662 C   0  0  0  0  0  0  0  0  0  0  0  0
    0.8264    1.5701    4.6317 S   0  0  0  0  0  0  0  0  0  0  0  0
   -0.1133    0.2245    4.3057 C   0  0  0  0  0  0  0  0  0  0  0  0
    0.1216   -0.9675    3.6473 C   0  0  0  0  0  0  0  0  0  0  0  0
    1.2459   -1.5616    3.1805 N   0  0  0  0  0  0  0  0  0  0  0  0
    0.7597   -2.5133    2.3260 C   0  0  0  0  0  0  0  0  0  0  0  0
    1.4460   -3.3498    1.4135 C   0  0  0  0  0  0  0  0  0  0  0  0
    2.7069   -3.2227    0.8831 N   0  0  0  0  0  0  0  0  0  0  0  0
    2.7660   -4.2444   -0.0099 C   0  0  0  0  0  0  0  0  0  0  0  0
    3.6689   -4.5863   -1.0052 C   0  0  0  0  0  0  0  0  0  0  0  0
    5.2662   -4.2213   -1.3662 S   0  0  0  0  0  0  0  0  0  0  0  0
    3.4825   -1.9776    0.7195 C   0  0  0  0  0  0  0  0  0  0  0  0
    2.8914   -1.1151   -0.3953 C   0  0  0  0  0  0  0  0  0  0  0  0
    2.5129   -1.6150    3.9285 C   0  0  0  0  0  0  0  0  0  0  0  0
    2.2880   -2.0447    5.3808 C   0  0  0  0  0  0  0  0  0  0  0  0
   -0.4072    4.0563    4.8068 C   0  0  0  0  0  0  0  0  0  0  0  0
   -0.7554    4.7631    3.7093 C   0  0  0  0  0  0  0  0  0  0  0  0
   -1.0301    4.1856    2.3813 C   0  0  0  0  0  0  0  0  0  0  0  0
   -1.1167    2.9647    2.0906 O   0  0  0  0  0  0  0  0  0  0  0  0
   -1.0567    5.2445    1.4058 C   0  0  0  0  0  0  0  0  0  0  0  0
   -1.2140    5.0950    0.0093 C   0  0  0  0  0  0  0  0  0  0  0  0
   -1.0775    6.2725   -0.6951 C   0  0  0  0  0  0  0  0  0  0  0  0
   -0.7950    7.5298   -0.0726 C   0  0  0  0  0  0  0  0  0  0  0  0
   -0.6467    7.6826    1.2981 C   0  0  0  0  0  0  0  0  0  0  0  0
   -0.8048    6.4820    2.0507 C   0  0  0  0  0  0  0  0  0  0  0  0
   -0.7021    6.2503    3.5258 C   0  0  0  0  0  0  0  0  0  0  0  0
   -0.7856    7.1888    4.5035 C   0  0  0  0  0  0  0  0  0  0  0  0
   -0.9608    6.8414    5.8900 C   0  0  0  0  0  0  0  0  0  0  0  0
   -1.1036    6.5685    7.0062 N   0  0  0  0  0  0  0  0  0  0  0  0
   -0.8248    8.6005    4.2273 C   0  0  0  0  0  0  0  0  0  0  0  0
   -0.8586    9.7395    4.0270 N   0  0  0  0  0  0  0  0  0  0  0  0
   -0.7731    8.2032   -1.4142 C   0  0  0  0  0  0  0  0  0  0  0  0
   -2.0064    9.0828   -1.7693 C   0  0  0  0  0  0  0  0  0  0  0  0
   -1.9432    9.3005   -3.2647 C   0  0  0  0  0  0  0  0  0  0  0  0
   -2.2309    8.1260   -3.8334 C   0  0  0  0  0  0  0  0  0  0  0  0
   -2.4730    7.1510   -2.7065 C   0  0  0  0  0  0  0  0  0  0  0  0
   -3.1588    8.0914   -1.7299 C   0  0  0  0  0  0  0  0  0  0  0  0
   -1.0806    6.9168   -2.0472 C   0  0  0  0  0  0  0  0  0  0  0  0
    8.6372   -7.5344   -5.1900 H   0  0  0  0  0  0  0  0  0  0  0  0
    6.3175   -7.6211   -4.0787 H   0  0  0  0  0  0  0  0  0  0  0  0
    2.6188   -8.2192   -2.8999 H   0  0  0  0  0  0  0  0  0  0  0  0
    2.0831   -9.6492   -4.8172 H   0  0  0  0  0  0  0  0  0  0  0  0
    3.7287   -9.3631   -8.0852 H   0  0  0  0  0  0  0  0  0  0  0  0
    2.6062  -10.3409   -7.0956 H   0  0  0  0  0  0  0  0  0  0  0  0
    0.7353   -8.7730   -7.6360 H   0  0  0  0  0  0  0  0  0  0  0  0
    1.4934   -9.4329   -9.1337 H   0  0  0  0  0  0  0  0  0  0  0  0
    1.8669   -7.7446   -8.6110 H   0  0  0  0  0  0  0  0  0  0  0  0
    4.1724   -6.9293   -7.4288 H   0  0  0  0  0  0  0  0  0  0  0  0
    4.6559   -5.4645   -5.5262 H   0  0  0  0  0  0  0  0  0  0  0  0
   -2.8413    3.4090    6.6147 H   0  0  0  0  0  0  0  0  0  0  0  0
   -5.0117    4.5673    6.5369 H   0  0  0  0  0  0  0  0  0  0  0  0
   -7.5061    4.1413    3.7485 H   0  0  0  0  0  0  0  0  0  0  0  0
   -7.3353    4.6047    5.4665 H   0  0  0  0  0  0  0  0  0  0  0  0
   -5.9080    6.5638    4.8140 H   0  0  0  0  0  0  0  0  0  0  0  0
   -6.0534    6.0777    3.0702 H   0  0  0  0  0  0  0  0  0  0  0  0
   -7.5163    6.6032    3.9923 H   0  0  0  0  0  0  0  0  0  0  0  0
   -5.7083    2.9856    2.5893 H   0  0  0  0  0  0  0  0  0  0  0  0
   -3.5640    1.8160    2.6747 H   0  0  0  0  0  0  0  0  0  0  0  0
    4.5369   -2.2169    0.4740 H   0  0  0  0  0  0  0  0  0  0  0  0
    3.5054   -1.3710    1.6279 H   0  0  0  0  0  0  0  0  0  0  0  0
    1.8544   -0.8137   -0.1394 H   0  0  0  0  0  0  0  0  0  0  0  0
    2.8862   -1.6673   -1.3568 H   0  0  0  0  0  0  0  0  0  0  0  0
    3.5003   -0.1924   -0.5173 H   0  0  0  0  0  0  0  0  0  0  0  0
    3.0049   -0.6181    3.9089 H   0  0  0  0  0  0  0  0  0  0  0  0
    3.1956   -2.3728    3.4903 H   0  0  0  0  0  0  0  0  0  0  0  0
    1.7273   -3.0067    5.4116 H   0  0  0  0  0  0  0  0  0  0  0  0
    1.7219   -1.2678    5.9362 H   0  0  0  0  0  0  0  0  0  0  0  0
    3.2695   -2.1923    5.8818 H   0  0  0  0  0  0  0  0  0  0  0  0
    0.0502    4.5404    5.6517 H   0  0  0  0  0  0  0  0  0  0  0  0
   -1.3967    4.1399   -0.4694 H   0  0  0  0  0  0  0  0  0  0  0  0
   -0.3968    8.6418    1.7187 H   0  0  0  0  0  0  0  0  0  0  0  0
    0.2208    8.6305   -1.6830 H   0  0  0  0  0  0  0  0  0  0  0  0
   -2.1346   10.0038   -1.1655 H   0  0  0  0  0  0  0  0  0  0  0  0
   -1.7905   10.2378   -3.7885 H   0  0  0  0  0  0  0  0  0  0  0  0
   -2.3512    7.9428   -4.8965 H   0  0  0  0  0  0  0  0  0  0  0  0
   -3.0369    6.2348   -2.9795 H   0  0  0  0  0  0  0  0  0  0  0  0
   -3.3504    7.6513   -0.7272 H   0  0  0  0  0  0  0  0  0  0  0  0
   -4.1124    8.5154   -2.1205 H   0  0  0  0  0  0  0  0  0  0  0  0
   -0.2873    6.5305   -2.7226 H   0  0  0  0  0  0  0  0  0  0  0  0
  1  2  3  0
  2  3  1  0
  3  4  2  0
  4  5  1  0
  5  6  2  0
  6  7  1  0
  6  8  1  0
  8  9  2  0
  9 10  1  0
 10 11  2  0
 11 12  1  0
 12 13  2  0
 13 14  1  0
 14 15  1  0
 13 16  1  0
 16 17  2  0
  9 18  1  0
 18 19  1  0
 19 20  1  0
 20 21  1  0
 21 22  1  0
 22 23  1  0
 23 24  2  0
 24 25  1  0
 25 26  1  0
 23 27  1  0
 27 28  1  0
 28 29  1  0
 29 30  1  0
 30 31  1  0
 31 32  1  0
 32 33  2  0
 33 34  1  0
 34 35  2  0
 35 36  1  0
 36 37  1  0
 35 38  1  0
 38 39  2  0
 31 40  2  0
 40 41  1  0
 41 42  1  0
 42 43  1  0
 43 44  1  0
 44 45  1  0
 45 46  1  0
 46 47  1  0
 47 48  1  0
 48 49  1  0
 49 50  1  0
 47 51  1  0
 51 52  1  0
 44 53  1  0
 53 54  1  0
 40 55  1  0
 55 56  2  3
 56 57  1  0
 57 58  2  0
 57 59  1  0
 59 60  2  0
 60 61  1  0
 61 62  2  0
 62 63  1  0
 63 64  2  0
 64 65  1  0
 65 66  2  3
 66 67  1  0
 67 68  3  0
 66 69  1  0
 69 70  3  0
 62 71  1  0
 71 72  1  0
 72 73  1  0
 73 74  2  0
 74 75  1  0
 75 76  1  0
 75 77  1  0
  7  3  1  0
 50  8  1  0
 65 56  1  0
 77 71  1  0
 17 10  1  0
 49 18  2  0
 64 59  1  0
 76 72  1  0
 48 20  2  0
 77 61  1  0
 46 21  2  0
 26 22  2  0
 45 27  2  0
 43 28  2  0
 42 30  2  0
 39 32  1  0
  4 78  1  0
  5 79  1  0
 11 80  1  0
 12 81  1  0
 14 82  1  0
 14 83  1  0
 15 84  1  0
 15 85  1  0
 15 86  1  0
 16 87  1  0
 17 88  1  0
 33 89  1  0
 34 90  1  0
 36 91  1  0
 36 92  1  0
 37 93  1  0
 37 94  1  0
 37 95  1  0
 38 96  1  0
 39 97  1  0
 51 98  1  0
 51 99  1  0
 52100  1  0
 52101  1  0
 52102  1  0
 53103  1  0
 53104  1  0
 54105  1  0
 54106  1  0
 54107  1  0
 55108  1  0
 60109  1  0
 63110  1  0
 71111  1  0
 72112  1  0
 73113  1  0
 74114  1  0
 75115  1  0
 76116  1  0
 76117  1  0
 77118  1  0
M  END

