
     RDKit          3D

 98111  0  0  0  0  0  0  0  0999 V2000
   -7.3138   11.0289   -2.4541 N   0  0  0  0  0  0  0  0  0  0  0  0
   -6.3634   10.4887   -2.0721 C   0  0  0  0  0  0  0  0  0  0  0  0
   -5.1704    9.8203   -1.5912 C   0  0  0  0  0  0  0  0  0  0  0  0
   -4.4153    9.7448   -0.5390 C   0  0  0  0  0  0  0  0  0  0  0  0
   -3.4494    9.0994   -0.2661 C   0  0  0  0  0  0  0  0  0  0  0  0
   -3.0529    8.1804   -1.3641 C   0  0  0  0  0  0  0  0  0  0  0  0
   -4.2603    8.5654   -2.5221 S   0  0  0  0  0  0  0  0  0  0  0  0
   -1.8749    7.3440   -1.3243 C   0  0  0  0  0  0  0  0  0  0  0  0
   -0.6251    7.6253   -0.6102 C   0  0  0  0  0  0  0  0  0  0  0  0
   -0.3906    8.8058    0.1876 C   0  0  0  0  0  0  0  0  0  0  0  0
   -0.5051    8.6200    1.6938 C   0  0  0  0  0  0  0  0  0  0  0  0
    0.1975    6.6053   -0.8803 C   0  0  0  0  0  0  0  0  0  0  0  0
    1.8104    6.3058   -0.1271 S   0  0  0  0  0  0  0  0  0  0  0  0
    2.2005    4.8153   -0.7804 C   0  0  0  0  0  0  0  0  0  0  0  0
    3.0206    3.7044   -0.8456 C   0  0  0  0  0  0  0  0  0  0  0  0
    4.2039    3.4487   -0.0668 C   0  0  0  0  0  0  0  0  0  0  0  0
    4.6760    2.2377   -0.1861 C   0  0  0  0  0  0  0  0  0  0  0  0
    5.6921    1.9122    0.7539 N   0  0  0  0  0  0  0  0  0  0  0  0
    5.7580    3.7304    1.7488 Se  0  0  0  0  0  2  0  0  0  0  0  0
    4.5663    4.3380    0.7786 N   0  0  0  0  0  0  0  0  0  0  0  0
    3.9958    1.3240   -1.0347 C   0  0  0  0  0  0  0  0  0  0  0  0
    4.1663   -0.0880   -0.9468 C   0  0  0  0  0  0  0  0  0  0  0  0
    4.9191   -1.3486   -0.2499 S   0  0  0  0  0  0  0  0  0  0  0  0
    4.2805   -2.7759   -0.5133 C   0  0  0  0  0  0  0  0  0  0  0  0
    3.6586   -3.9713   -0.7627 C   0  0  0  0  0  0  0  0  0  0  0  0
    4.8976   -5.0760   -0.2579 C   0  0  0  0  0  0  0  0  0  0  0  0
    5.9321   -4.9077   -1.3030 C   0  0  0  0  0  0  0  0  0  0  0  0
    2.8333   -4.6104   -1.2440 C   0  0  0  0  0  0  0  0  0  0  0  0
    2.0847   -3.2077   -2.0685 S   0  0  0  0  0  0  0  0  0  0  0  0
    3.1240   -2.0126   -1.5040 C   0  0  0  0  0  0  0  0  0  0  0  0
    3.2412   -0.6837   -1.5472 C   0  0  0  0  0  0  0  0  0  0  0  0
    2.3614    0.3897   -2.1712 N   0  0  0  0  0  0  0  0  0  0  0  0
    2.9715    1.5057   -1.7209 C   0  0  0  0  0  0  0  0  0  0  0  0
    2.3176    2.8190   -1.7109 C   0  0  0  0  0  0  0  0  0  0  0  0
    1.2609    3.2985   -2.1209 N   0  0  0  0  0  0  0  0  0  0  0  0
    0.9542    4.5647   -1.6665 C   0  0  0  0  0  0  0  0  0  0  0  0
    0.1873    5.6175   -1.4870 C   0  0  0  0  0  0  0  0  0  0  0  0
   -1.5541    5.8903   -2.0834 S   0  0  0  0  0  0  0  0  0  0  0  0
    0.1900    2.7216   -2.9769 C   0  0  0  0  0  0  0  0  0  0  0  0
   -1.0057    2.2226   -2.2069 C   0  0  0  0  0  0  0  0  0  0  0  0
    1.3957    0.1090   -3.1246 C   0  0  0  0  0  0  0  0  0  0  0  0
    1.8455    0.3494   -4.5983 C   0  0  0  0  0  0  0  0  0  0  0  0
    1.9600   -5.8509   -1.2718 C   0  0  0  0  0  0  0  0  0  0  0  0
    1.4525   -6.2253   -0.0674 C   0  0  0  0  0  0  0  0  0  0  0  0
    1.7003   -5.6618    1.2107 C   0  0  0  0  0  0  0  0  0  0  0  0
    2.7369   -4.9346    1.5790 O   0  0  0  0  0  0  0  0  0  0  0  0
    0.6947   -5.9684    2.1807 C   0  0  0  0  0  0  0  0  0  0  0  0
    0.5240   -5.6071    3.4930 C   0  0  0  0  0  0  0  0  0  0  0  0
   -0.5642   -5.9922    4.2123 C   0  0  0  0  0  0  0  0  0  0  0  0
   -1.5388   -6.7780    3.5906 C   0  0  0  0  0  0  0  0  0  0  0  0
   -1.3230   -7.1234    2.2515 C   0  0  0  0  0  0  0  0  0  0  0  0
   -0.2653   -6.7643    1.5260 C   0  0  0  0  0  0  0  0  0  0  0  0
    0.1642   -6.9721    0.0994 C   0  0  0  0  0  0  0  0  0  0  0  0
   -0.4109   -7.7255   -0.7144 C   0  0  0  0  0  0  0  0  0  0  0  0
   -1.7204   -8.4303   -0.4717 C   0  0  0  0  0  0  0  0  0  0  0  0
   -2.6892   -8.9739   -0.2906 N   0  0  0  0  0  0  0  0  0  0  0  0
    0.2739   -8.3293   -1.9252 C   0  0  0  0  0  0  0  0  0  0  0  0
    0.8267   -8.7992   -2.8891 N   0  0  0  0  0  0  0  0  0  0  0  0
   -2.3886   -6.7663    4.8159 C   0  0  0  0  0  0  0  0  0  0  0  0
   -3.5147   -5.7358    4.7097 C   0  0  0  0  0  0  0  0  0  0  0  0
   -3.0053   -4.6659    3.8261 C   0  0  0  0  0  0  0  0  0  0  0  0
   -2.1037   -3.9760    4.5140 C   0  0  0  0  0  0  0  0  0  0  0  0
   -1.8906   -4.6394    5.8168 C   0  0  0  0  0  0  0  0  0  0  0  0
   -3.3639   -5.0378    6.0546 C   0  0  0  0  0  0  0  0  0  0  0  0
   -1.2954   -5.9822    5.5108 C   0  0  0  0  0  0  0  0  0  0  0  0
   -4.8382   10.5444    0.3245 H   0  0  0  0  0  0  0  0  0  0  0  0
   -2.8374    8.9810    0.6545 H   0  0  0  0  0  0  0  0  0  0  0  0
    0.6568    9.2124    0.0147 H   0  0  0  0  0  0  0  0  0  0  0  0
   -1.0324    9.6503   -0.1909 H   0  0  0  0  0  0  0  0  0  0  0  0
    0.5373    8.6146    2.1550 H   0  0  0  0  0  0  0  0  0  0  0  0
   -0.8428    7.5337    1.8962 H   0  0  0  0  0  0  0  0  0  0  0  0
   -1.1661    9.3401    2.1872 H   0  0  0  0  0  0  0  0  0  0  0  0
    4.4122   -5.9683   -0.1303 H   0  0  0  0  0  0  0  0  0  0  0  0
    5.1464   -4.5867    0.6665 H   0  0  0  0  0  0  0  0  0  0  0  0
    6.8811   -5.2516   -0.9164 H   0  0  0  0  0  0  0  0  0  0  0  0
    5.6619   -5.5103   -2.1730 H   0  0  0  0  0  0  0  0  0  0  0  0
    5.9382   -3.8114   -1.5573 H   0  0  0  0  0  0  0  0  0  0  0  0
    0.4490    2.3068   -3.8897 H   0  0  0  0  0  0  0  0  0  0  0  0
   -0.2946    3.7306   -3.4364 H   0  0  0  0  0  0  0  0  0  0  0  0
   -0.7399    1.4779   -1.4481 H   0  0  0  0  0  0  0  0  0  0  0  0
   -1.8136    1.9184   -2.8843 H   0  0  0  0  0  0  0  0  0  0  0  0
   -1.5036    3.0314   -1.5936 H   0  0  0  0  0  0  0  0  0  0  0  0
    1.3795   -1.0963   -3.2243 H   0  0  0  0  0  0  0  0  0  0  0  0
    0.3576    0.3025   -3.0214 H   0  0  0  0  0  0  0  0  0  0  0  0
    0.9470    0.3969   -5.2567 H   0  0  0  0  0  0  0  0  0  0  0  0
    2.5910   -0.4194   -4.8597 H   0  0  0  0  0  0  0  0  0  0  0  0
    2.3879    1.3378   -4.6242 H   0  0  0  0  0  0  0  0  0  0  0  0
    1.8040   -6.3861   -2.1682 H   0  0  0  0  0  0  0  0  0  0  0  0
    1.2771   -4.9913    3.9892 H   0  0  0  0  0  0  0  0  0  0  0  0
   -2.1767   -7.6906    1.8249 H   0  0  0  0  0  0  0  0  0  0  0  0
   -2.6646   -7.7575    5.2131 H   0  0  0  0  0  0  0  0  0  0  0  0
   -4.4742   -6.1454    4.4722 H   0  0  0  0  0  0  0  0  0  0  0  0
   -3.3259   -4.4663    2.8089 H   0  0  0  0  0  0  0  0  0  0  0  0
   -1.5733   -3.0597    4.2453 H   0  0  0  0  0  0  0  0  0  0  0  0
   -1.4696   -4.0814    6.6068 H   0  0  0  0  0  0  0  0  0  0  0  0
   -3.4193   -5.7444    6.8991 H   0  0  0  0  0  0  0  0  0  0  0  0
   -4.0320   -4.1539    6.1582 H   0  0  0  0  0  0  0  0  0  0  0  0
   -0.8519   -6.5156    6.3647 H   0  0  0  0  0  0  0  0  0  0  0  0
  1  2  3  0
  2  3  1  0
  3  4  2  0
  4  5  1  0
  5  6  2  0
  6  7  1  0
  6  8  1  0
  8  9  2  0
  9 10  1  0
 10 11  1  0
  9 12  1  0
 12 13  1  0
 13 14  1  0
 14 15  1  0
 15 16  1  0
 16 17  1  0
 17 18  2  0
 18 19  1  0
 19 20  1  0
 17 21  1  0
 21 22  1  0
 22 23  1  0
 23 24  1  0
 24 25  1  0
 25 26  1  0
 26 27  1  0
 25 28  2  0
 28 29  1  0
 29 30  1  0
 30 31  1  0
 31 32  1  0
 32 33  1  0
 33 34  1  0
 34 35  1  0
 35 36  1  0
 36 37  1  0
 37 38  1  0
 35 39  1  0
 39 40  1  0
 32 41  1  0
 41 42  1  0
 28 43  1  0
 43 44  2  3
 44 45  1  0
 45 46  2  0
 45 47  1  0
 47 48  2  0
 48 49  1  0
 49 50  2  0
 50 51  1  0
 51 52  2  0
 52 53  1  0
 53 54  2  3
 54 55  1  0
 55 56  3  0
 54 57  1  0
 57 58  3  0
 50 59  1  0
 59 60  1  0
 60 61  1  0
 61 62  2  0
 62 63  1  0
 63 64  1  0
 63 65  1  0
  7  3  1  0
 38  8  1  0
 53 44  1  0
 65 59  1  0
 37 12  2  0
 52 47  1  0
 64 60  1  0
 36 14  2  0
 65 49  1  0
 34 15  2  0
 20 16  2  0
 33 21  2  0
 31 22  2  0
 30 24  2  0
  4 66  1  0
  5 67  1  0
 10 68  1  0
 10 69  1  0
 11 70  1  0
 11 71  1  0
 11 72  1  0
 26 73  1  0
 26 74  1  0
 27 75  1  0
 27 76  1  0
 27 77  1  0
 39 78  1  0
 39 79  1  0
 40 80  1  0
 40 81  1  0
 40 82  1  0
 41 83  1  0
 41 84  1  0
 42 85  1  0
 42 86  1  0
 42 87  1  0
 43 88  1  0
 48 89  1  0
 51 90  1  0
 59 91  1  0
 60 92  1  0
 61 93  1  0
 62 94  1  0
 63 95  1  0
 64 96  1  0
 64 97  1  0
 65 98  1  0
M  END

