
     RDKit          3D

 86 95  0  0  0  0  0  0  0  0999 V2000
   -0.2189  -12.8748    8.2890 N   0  0  0  0  0  0  0  0  0  0  0  0
   -0.5189  -11.8143    7.9370 C   0  0  0  0  0  0  0  0  0  0  0  0
   -0.8940  -10.5011    7.5003 C   0  0  0  0  0  0  0  0  0  0  0  0
   -2.0420   -9.8228    7.8774 C   0  0  0  0  0  0  0  0  0  0  0  0
   -2.1337   -8.5448    7.3099 C   0  0  0  0  0  0  0  0  0  0  0  0
   -1.0574   -8.2305    6.4809 C   0  0  0  0  0  0  0  0  0  0  0  0
    0.0079   -9.5343    6.4638 S   0  0  0  0  0  0  0  0  0  0  0  0
   -0.8713   -6.9687    5.7482 C   0  0  0  0  0  0  0  0  0  0  0  0
   -1.9808   -5.6581    5.7843 S   0  0  0  0  0  0  0  0  0  0  0  0
   -1.0200   -4.7375    4.7754 C   0  0  0  0  0  0  0  0  0  0  0  0
   -1.0528   -3.5850    4.0599 C   0  0  0  0  0  0  0  0  0  0  0  0
   -2.1534   -2.3931    3.6939 S   0  0  0  0  0  0  0  0  0  0  0  0
   -1.1415   -1.7212    2.4886 C   0  0  0  0  0  0  0  0  0  0  0  0
   -1.4450   -0.6119    1.6645 C   0  0  0  0  0  0  0  0  0  0  0  0
   -2.6078    0.1346    1.8745 O   0  0  0  0  0  0  0  0  0  0  0  0
   -2.9229    0.7870    3.1095 C   0  0  0  0  0  0  0  0  0  0  0  0
   -4.3493    1.3115    3.0692 C   0  0  0  0  0  0  0  0  0  0  0  0
   -0.5562   -0.3379    0.5923 C   0  0  0  0  0  0  0  0  0  0  0  0
    0.6471   -1.0869    0.4810 C   0  0  0  0  0  0  0  0  0  0  0  0
    0.9986   -2.1050    1.3803 C   0  0  0  0  0  0  0  0  0  0  0  0
    2.2635   -2.6859    1.3305 O   0  0  0  0  0  0  0  0  0  0  0  0
    3.4566   -1.9652    1.6448 C   0  0  0  0  0  0  0  0  0  0  0  0
    3.4682   -1.5498    3.1131 C   0  0  0  0  0  0  0  0  0  0  0  0
    0.0443   -2.4867    2.3407 C   0  0  0  0  0  0  0  0  0  0  0  0
    0.0544   -3.5661    3.2612 C   0  0  0  0  0  0  0  0  0  0  0  0
    0.7989   -4.7098    3.4380 N   0  0  0  0  0  0  0  0  0  0  0  0
    0.0933   -5.3914    4.3835 C   0  0  0  0  0  0  0  0  0  0  0  0
    0.2189   -6.6807    4.9043 C   0  0  0  0  0  0  0  0  0  0  0  0
    1.9057   -5.2675    2.6568 C   0  0  0  0  0  0  0  0  0  0  0  0
    1.4318   -5.7172    1.2761 C   0  0  0  0  0  0  0  0  0  0  0  0
    1.5612   -0.6420   -0.8927 S   0  0  0  0  0  0  0  0  0  0  0  0
    0.4225    0.4815   -1.3528 C   0  0  0  0  0  0  0  0  0  0  0  0
    0.3015    1.4695   -2.2758 C   0  0  0  0  0  0  0  0  0  0  0  0
    1.1950    2.2422   -3.4579 S   0  0  0  0  0  0  0  0  0  0  0  0
    0.0355    3.4979   -3.6054 C   0  0  0  0  0  0  0  0  0  0  0  0
   -0.9966    3.3330   -2.6651 C   0  0  0  0  0  0  0  0  0  0  0  0
   -0.8144    2.1495   -1.9529 C   0  0  0  0  0  0  0  0  0  0  0  0
   -1.4467    1.6367   -0.8587 N   0  0  0  0  0  0  0  0  0  0  0  0
   -2.5453    2.3064   -0.1674 C   0  0  0  0  0  0  0  0  0  0  0  0
   -1.9970    3.2561    0.8917 C   0  0  0  0  0  0  0  0  0  0  0  0
   -0.6366    0.5860   -0.4901 C   0  0  0  0  0  0  0  0  0  0  0  0
    0.2215    4.7141   -4.4110 C   0  0  0  0  0  0  0  0  0  0  0  0
    0.5797    4.7112   -5.7084 C   0  0  0  0  0  0  0  0  0  0  0  0
    0.4552    3.5612   -6.6144 C   0  0  0  0  0  0  0  0  0  0  0  0
    0.1634    2.3788   -6.2925 O   0  0  0  0  0  0  0  0  0  0  0  0
    0.5755    4.0361   -7.9726 C   0  0  0  0  0  0  0  0  0  0  0  0
    0.4537    3.3057   -9.1574 C   0  0  0  0  0  0  0  0  0  0  0  0
    0.2122    1.9725   -9.1361 F   0  0  0  0  0  0  0  0  0  0  0  0
    0.5606    3.9840  -10.3770 C   0  0  0  0  0  0  0  0  0  0  0  0
    0.7767    5.3718  -10.3955 C   0  0  0  0  0  0  0  0  0  0  0  0
    0.8740    6.0955   -9.1968 C   0  0  0  0  0  0  0  0  0  0  0  0
    0.7764    5.4096   -7.9723 C   0  0  0  0  0  0  0  0  0  0  0  0
    0.8535    5.9049   -6.5676 C   0  0  0  0  0  0  0  0  0  0  0  0
    1.2688    7.1296   -6.1471 C   0  0  0  0  0  0  0  0  0  0  0  0
    1.4974    8.2331   -7.0412 C   0  0  0  0  0  0  0  0  0  0  0  0
    1.6850    9.1337   -7.7414 N   0  0  0  0  0  0  0  0  0  0  0  0
    1.5877    7.4006   -4.7696 C   0  0  0  0  0  0  0  0  0  0  0  0
    1.8494    7.6229   -3.6643 N   0  0  0  0  0  0  0  0  0  0  0  0
   -2.7884  -10.2371    8.5449 H   0  0  0  0  0  0  0  0  0  0  0  0
   -2.9589   -7.8717    7.5049 H   0  0  0  0  0  0  0  0  0  0  0  0
   -2.8386    0.1011    3.9693 H   0  0  0  0  0  0  0  0  0  0  0  0
   -2.2199    1.6262    3.2828 H   0  0  0  0  0  0  0  0  0  0  0  0
   -4.5684    1.8649    4.0087 H   0  0  0  0  0  0  0  0  0  0  0  0
   -4.4887    2.0040    2.2162 H   0  0  0  0  0  0  0  0  0  0  0  0
   -5.0583    0.4621    2.9610 H   0  0  0  0  0  0  0  0  0  0  0  0
    3.5566   -1.0678    1.0043 H   0  0  0  0  0  0  0  0  0  0  0  0
    4.3282   -2.6239    1.4474 H   0  0  0  0  0  0  0  0  0  0  0  0
    3.3686   -2.4448    3.7653 H   0  0  0  0  0  0  0  0  0  0  0  0
    4.4288   -1.0389    3.3463 H   0  0  0  0  0  0  0  0  0  0  0  0
    2.6279   -0.8539    3.3314 H   0  0  0  0  0  0  0  0  0  0  0  0
    1.0277   -7.3652    4.6824 H   0  0  0  0  0  0  0  0  0  0  0  0
    2.7440   -4.5558    2.6038 H   0  0  0  0  0  0  0  0  0  0  0  0
    2.3272   -6.1509    3.1786 H   0  0  0  0  0  0  0  0  0  0  0  0
    0.6834   -6.5317    1.3854 H   0  0  0  0  0  0  0  0  0  0  0  0
    2.2944   -6.1041    0.6907 H   0  0  0  0  0  0  0  0  0  0  0  0
    0.9697   -4.8753    0.7212 H   0  0  0  0  0  0  0  0  0  0  0  0
   -1.7852    4.0540   -2.4827 H   0  0  0  0  0  0  0  0  0  0  0  0
   -3.1364    2.9050   -0.8933 H   0  0  0  0  0  0  0  0  0  0  0  0
   -3.2672    1.5739    0.2248 H   0  0  0  0  0  0  0  0  0  0  0  0
   -1.4837    4.1095    0.3963 H   0  0  0  0  0  0  0  0  0  0  0  0
   -1.2604    2.7298    1.5319 H   0  0  0  0  0  0  0  0  0  0  0  0
   -2.8263    3.6532    1.5162 H   0  0  0  0  0  0  0  0  0  0  0  0
   -0.0028    5.6472   -3.9149 H   0  0  0  0  0  0  0  0  0  0  0  0
    0.4684    3.4405  -11.3090 H   0  0  0  0  0  0  0  0  0  0  0  0
    0.8500    5.8932  -11.3445 H   0  0  0  0  0  0  0  0  0  0  0  0
    1.0032    7.1612   -9.2586 H   0  0  0  0  0  0  0  0  0  0  0  0
  1  2  3  0
  2  3  1  0
  3  4  2  0
  4  5  1  0
  5  6  2  0
  6  7  1  0
  6  8  1  0
  8  9  1  0
  9 10  1  0
 10 11  1  0
 11 12  1  0
 12 13  1  0
 13 14  2  0
 14 15  1  0
 15 16  1  0
 16 17  1  0
 14 18  1  0
 18 19  2  0
 19 20  1  0
 20 21  1  0
 21 22  1  0
 22 23  1  0
 20 24  2  0
 24 25  1  0
 25 26  1  0
 26 27  1  0
 27 28  1  0
 26 29  1  0
 29 30  1  0
 19 31  1  0
 31 32  1  0
 32 33  1  0
 33 34  1  0
 34 35  1  0
 35 36  2  0
 36 37  1  0
 37 38  1  0
 38 39  1  0
 39 40  1  0
 38 41  1  0
 35 42  1  0
 42 43  2  3
 43 44  1  0
 44 45  2  0
 44 46  1  0
 46 47  2  0
 47 48  1  0
 47 49  1  0
 49 50  2  0
 50 51  1  0
 51 52  2  0
 52 53  1  0
 53 54  2  3
 54 55  1  0
 55 56  3  0
 54 57  1  0
 57 58  3  0
  7  3  1  0
 28  8  2  0
 41 32  2  0
 53 43  1  0
 27 10  2  0
 37 33  2  0
 52 46  1  0
 25 11  2  0
 24 13  1  0
 41 18  1  0
  4 59  1  0
  5 60  1  0
 16 61  1  0
 16 62  1  0
 17 63  1  0
 17 64  1  0
 17 65  1  0
 22 66  1  0
 22 67  1  0
 23 68  1  0
 23 69  1  0
 23 70  1  0
 28 71  1  0
 29 72  1  0
 29 73  1  0
 30 74  1  0
 30 75  1  0
 30 76  1  0
 36 77  1  0
 39 78  1  0
 39 79  1  0
 40 80  1  0
 40 81  1  0
 40 82  1  0
 42 83  1  0
 49 84  1  0
 50 85  1  0
 51 86  1  0
M  END

