
     RDKit          3D

 93101  0  0  0  0  0  0  0  0999 V2000
    8.6397   -8.2065    6.3371 N   0  0  0  0  0  0  0  0  0  0  0  0
    7.6816   -7.7245    5.8994 C   0  0  0  0  0  0  0  0  0  0  0  0
    6.5020   -7.1220    5.3487 C   0  0  0  0  0  0  0  0  0  0  0  0
    5.6621   -7.7031    4.4124 C   0  0  0  0  0  0  0  0  0  0  0  0
    4.6293   -6.8542    3.9957 C   0  0  0  0  0  0  0  0  0  0  0  0
    4.6632   -5.6026    4.6025 C   0  0  0  0  0  0  0  0  0  0  0  0
    5.9747   -5.5575    5.6646 S   0  0  0  0  0  0  0  0  0  0  0  0
    3.7696   -4.4739    4.2918 C   0  0  0  0  0  0  0  0  0  0  0  0
    2.5793   -4.4654    3.0933 S   0  0  0  0  0  0  0  0  0  0  0  0
    2.1481   -2.8521    3.3018 C   0  0  0  0  0  0  0  0  0  0  0  0
    1.2031   -2.0608    2.5155 C   0  0  0  0  0  0  0  0  0  0  0  0
    1.1296   -0.6783    2.7934 C   0  0  0  0  0  0  0  0  0  0  0  0
    1.8967   -0.1157    3.8233 O   0  0  0  0  0  0  0  0  0  0  0  0
    2.8038   -0.8296    4.6890 C   0  0  0  0  0  0  0  0  0  0  0  0
    2.2771   -0.7314    6.1387 C   0  0  0  0  0  0  0  0  0  0  0  0
    0.8841   -1.3477    6.3231 C   0  0  0  0  0  0  0  0  0  0  0  0
    4.1756   -0.1220    4.5957 C   0  0  0  0  0  0  0  0  0  0  0  0
    4.7799   -0.1600    3.1908 C   0  0  0  0  0  0  0  0  0  0  0  0
    2.9339   -2.2937    4.2943 C   0  0  0  0  0  0  0  0  0  0  0  0
    3.8389   -3.2080    4.8629 C   0  0  0  0  0  0  0  0  0  0  0  0
    0.2990    0.1475    2.0240 C   0  0  0  0  0  0  0  0  0  0  0  0
   -0.4260   -0.4283    0.9802 C   0  0  0  0  0  0  0  0  0  0  0  0
   -1.2929    0.2018    0.0158 C   0  0  0  0  0  0  0  0  0  0  0  0
   -1.7322   -0.7580   -0.8810 C   0  0  0  0  0  0  0  0  0  0  0  0
   -1.1853   -2.1381   -0.5399 C   0  0  0  0  0  0  0  0  0  0  0  0
   -0.3447   -1.7781    0.6809 C   0  0  0  0  0  0  0  0  0  0  0  0
    0.4342   -2.6239    1.4782 C   0  0  0  0  0  0  0  0  0  0  0  0
   -0.2996   -2.6366   -1.7242 C   0  0  0  0  0  0  0  0  0  0  0  0
    0.3172   -4.0313   -1.5765 C   0  0  0  0  0  0  0  0  0  0  0  0
   -2.3193   -3.1137   -0.1125 C   0  0  0  0  0  0  0  0  0  0  0  0
   -3.3018   -3.5073   -1.2196 C   0  0  0  0  0  0  0  0  0  0  0  0
   -2.4478   -0.3707   -2.0263 C   0  0  0  0  0  0  0  0  0  0  0  0
   -2.7087    0.9977   -2.2356 C   0  0  0  0  0  0  0  0  0  0  0  0
   -3.3498    1.4943   -3.4499 C   0  0  0  0  0  0  0  0  0  0  0  0
   -3.4501    2.8443   -3.7343 C   0  0  0  0  0  0  0  0  0  0  0  0
   -2.9075    3.9069   -2.7829 C   0  0  0  0  0  0  0  0  0  0  0  0
   -2.5098    3.3247   -1.5239 O   0  0  0  0  0  0  0  0  0  0  0  0
   -2.2727    1.9583   -1.3015 C   0  0  0  0  0  0  0  0  0  0  0  0
   -1.5755    1.5595   -0.1555 C   0  0  0  0  0  0  0  0  0  0  0  0
   -4.0401    4.9370   -2.5042 C   0  0  0  0  0  0  0  0  0  0  0  0
   -3.7026    5.9498   -1.4001 C   0  0  0  0  0  0  0  0  0  0  0  0
   -1.6684    4.6027   -3.4124 C   0  0  0  0  0  0  0  0  0  0  0  0
   -0.5484    3.6295   -3.8096 C   0  0  0  0  0  0  0  0  0  0  0  0
   -3.9420    3.0915   -5.0269 C   0  0  0  0  0  0  0  0  0  0  0  0
   -4.2322    1.9296   -5.7382 C   0  0  0  0  0  0  0  0  0  0  0  0
   -3.8719    0.5985   -4.7725 S   0  0  0  0  0  0  0  0  0  0  0  0
   -4.6747    1.8556   -7.1394 C   0  0  0  0  0  0  0  0  0  0  0  0
   -4.6254    2.8925   -8.0758 C   0  0  0  0  0  0  0  0  0  0  0  0
   -5.0454    2.5039   -9.3521 C   0  0  0  0  0  0  0  0  0  0  0  0
   -5.4125    1.1654   -9.4176 C   0  0  0  0  0  0  0  0  0  0  0  0
   -5.8614    0.4830  -10.5946 C   0  0  0  0  0  0  0  0  0  0  0  0
   -6.2277   -0.0659  -11.5432 N   0  0  0  0  0  0  0  0  0  0  0  0
   -5.2275    0.4573   -7.9048 S   0  0  0  0  0  0  0  0  0  0  0  0
    5.7996   -8.7023    4.0232 H   0  0  0  0  0  0  0  0  0  0  0  0
    3.8968   -7.1384    3.2513 H   0  0  0  0  0  0  0  0  0  0  0  0
    2.2232    0.3377    6.4336 H   0  0  0  0  0  0  0  0  0  0  0  0
    2.9835   -1.2333    6.8376 H   0  0  0  0  0  0  0  0  0  0  0  0
    0.5401   -1.1728    7.3586 H   0  0  0  0  0  0  0  0  0  0  0  0
    0.1515   -0.8887    5.6261 H   0  0  0  0  0  0  0  0  0  0  0  0
    0.9152   -2.4390    6.1399 H   0  0  0  0  0  0  0  0  0  0  0  0
    4.8969   -0.5728    5.3095 H   0  0  0  0  0  0  0  0  0  0  0  0
    4.0543    0.9448    4.8829 H   0  0  0  0  0  0  0  0  0  0  0  0
    5.7141    0.4397    3.1728 H   0  0  0  0  0  0  0  0  0  0  0  0
    4.0769    0.2722    2.4509 H   0  0  0  0  0  0  0  0  0  0  0  0
    5.0273   -1.2023    2.8986 H   0  0  0  0  0  0  0  0  0  0  0  0
    4.5393   -2.9434    5.6390 H   0  0  0  0  0  0  0  0  0  0  0  0
    0.2414    1.2096    2.2191 H   0  0  0  0  0  0  0  0  0  0  0  0
    0.4429   -3.6944    1.3053 H   0  0  0  0  0  0  0  0  0  0  0  0
   -0.8913   -2.6398   -2.6639 H   0  0  0  0  0  0  0  0  0  0  0  0
    0.5330   -1.9175   -1.8932 H   0  0  0  0  0  0  0  0  0  0  0  0
    0.8227   -4.2893   -2.5233 H   0  0  0  0  0  0  0  0  0  0  0  0
   -0.4459   -4.8072   -1.3780 H   0  0  0  0  0  0  0  0  0  0  0  0
    1.0886   -4.0420   -0.7927 H   0  0  0  0  0  0  0  0  0  0  0  0
   -2.9114   -2.6595    0.7121 H   0  0  0  0  0  0  0  0  0  0  0  0
   -1.8714   -4.0442    0.2899 H   0  0  0  0  0  0  0  0  0  0  0  0
   -3.9311   -2.6422   -1.5111 H   0  0  0  0  0  0  0  0  0  0  0  0
   -2.7694   -3.9021   -2.1067 H   0  0  0  0  0  0  0  0  0  0  0  0
   -3.9788   -4.3062   -0.8520 H   0  0  0  0  0  0  0  0  0  0  0  0
   -2.7459   -1.1080   -2.7618 H   0  0  0  0  0  0  0  0  0  0  0  0
   -1.2105    2.2976    0.5464 H   0  0  0  0  0  0  0  0  0  0  0  0
   -4.2835    5.4944   -3.4348 H   0  0  0  0  0  0  0  0  0  0  0  0
   -4.9626    4.3942   -2.1892 H   0  0  0  0  0  0  0  0  0  0  0  0
   -3.5009    5.4339   -0.4386 H   0  0  0  0  0  0  0  0  0  0  0  0
   -2.8255    6.5631   -1.6736 H   0  0  0  0  0  0  0  0  0  0  0  0
   -4.5618    6.6344   -1.2638 H   0  0  0  0  0  0  0  0  0  0  0  0
   -1.9649    5.1878   -4.3096 H   0  0  0  0  0  0  0  0  0  0  0  0
   -1.2352    5.3130   -2.6774 H   0  0  0  0  0  0  0  0  0  0  0  0
   -0.2081    3.0414   -2.9295 H   0  0  0  0  0  0  0  0  0  0  0  0
   -0.8885    2.9444   -4.6164 H   0  0  0  0  0  0  0  0  0  0  0  0
    0.3239    4.2115   -4.1998 H   0  0  0  0  0  0  0  0  0  0  0  0
   -4.0482    4.0846   -5.4401 H   0  0  0  0  0  0  0  0  0  0  0  0
   -4.2672    3.8952   -7.8548 H   0  0  0  0  0  0  0  0  0  0  0  0
   -5.0691    3.1764  -10.2048 H   0  0  0  0  0  0  0  0  0  0  0  0
  1  2  3  0
  2  3  1  0
  3  4  2  0
  4  5  1  0
  5  6  2  0
  6  7  1  0
  6  8  1  0
  8  9  1  0
  9 10  1  0
 10 11  1  0
 11 12  2  0
 12 13  1  0
 13 14  1  0
 14 15  1  0
 15 16  1  0
 14 17  1  0
 17 18  1  0
 14 19  1  0
 19 20  1  0
 12 21  1  0
 21 22  2  0
 22 23  1  0
 23 24  2  0
 24 25  1  0
 25 26  1  0
 26 27  2  0
 25 28  1  0
 28 29  1  0
 25 30  1  0
 30 31  1  0
 24 32  1  0
 32 33  2  0
 33 34  1  0
 34 35  2  0
 35 36  1  0
 36 37  1  0
 37 38  1  0
 38 39  2  0
 36 40  1  0
 40 41  1  0
 36 42  1  0
 42 43  1  0
 35 44  1  0
 44 45  2  0
 45 46  1  0
 45 47  1  0
 47 48  2  0
 48 49  1  0
 49 50  2  0
 50 51  1  0
 51 52  3  0
 50 53  1  0
  7  3  1  0
 20  8  2  0
 26 22  1  0
 38 33  1  0
 53 47  1  0
 19 10  2  0
 39 23  1  0
 27 11  1  0
 46 34  1  0
  4 54  1  0
  5 55  1  0
 15 56  1  0
 15 57  1  0
 16 58  1  0
 16 59  1  0
 16 60  1  0
 17 61  1  0
 17 62  1  0
 18 63  1  0
 18 64  1  0
 18 65  1  0
 20 66  1  0
 21 67  1  0
 27 68  1  0
 28 69  1  0
 28 70  1  0
 29 71  1  0
 29 72  1  0
 29 73  1  0
 30 74  1  0
 30 75  1  0
 31 76  1  0
 31 77  1  0
 31 78  1  0
 32 79  1  0
 39 80  1  0
 40 81  1  0
 40 82  1  0
 41 83  1  0
 41 84  1  0
 41 85  1  0
 42 86  1  0
 42 87  1  0
 43 88  1  0
 43 89  1  0
 43 90  1  0
 44 91  1  0
 48 92  1  0
 49 93  1  0
M  END

