
     RDKit          3D

149163  0  0  0  0  0  0  0  0999 V2000
   -4.5699  -13.7170    5.1306 N   0  0  0  0  0  0  0  0  0  0  0  0
   -3.9134  -12.7659    5.0831 C   0  0  0  0  0  0  0  0  0  0  0  0
   -3.1065  -11.5801    5.0281 C   0  0  0  0  0  0  0  0  0  0  0  0
   -1.8378  -11.4338    5.5802 C   0  0  0  0  0  0  0  0  0  0  0  0
   -1.2826  -10.1707    5.3493 C   0  0  0  0  0  0  0  0  0  0  0  0
   -2.1326   -9.3237    4.6374 C   0  0  0  0  0  0  0  0  0  0  0  0
   -3.5629  -10.1445    4.2719 S   0  0  0  0  0  0  0  0  0  0  0  0
   -1.7796   -7.9929    4.1518 C   0  0  0  0  0  0  0  0  0  0  0  0
   -0.5651   -7.6719    3.5401 C   0  0  0  0  0  0  0  0  0  0  0  0
   -0.5927   -6.3766    3.0094 C   0  0  0  0  0  0  0  0  0  0  0  0
    0.2282   -5.7173    1.9093 C   0  0  0  0  0  0  0  0  0  0  0  0
    0.6202   -6.7061    0.8004 C   0  0  0  0  0  0  0  0  0  0  0  0
    1.9132   -6.7060    0.2289 C   0  0  0  0  0  0  0  0  0  0  0  0
    2.2534   -7.6078   -0.7808 C   0  0  0  0  0  0  0  0  0  0  0  0
    1.3107   -8.5227   -1.2600 C   0  0  0  0  0  0  0  0  0  0  0  0
    1.6766   -9.4668   -2.3701 C   0  0  0  0  0  0  0  0  0  0  0  0
    1.4868   -8.7999   -3.7300 C   0  0  0  0  0  0  0  0  0  0  0  0
    0.0067   -8.5009   -0.7429 C   0  0  0  0  0  0  0  0  0  0  0  0
   -0.3316   -7.6028    0.2760 C   0  0  0  0  0  0  0  0  0  0  0  0
    1.4187   -5.0586    2.6384 C   0  0  0  0  0  0  0  0  0  0  0  0
    1.4344   -3.6878    2.9733 C   0  0  0  0  0  0  0  0  0  0  0  0
    2.4749   -3.1432    3.7348 C   0  0  0  0  0  0  0  0  0  0  0  0
    3.5165   -3.9519    4.1974 C   0  0  0  0  0  0  0  0  0  0  0  0
    4.6112   -3.3654    5.0456 C   0  0  0  0  0  0  0  0  0  0  0  0
    4.1407   -3.1899    6.4877 C   0  0  0  0  0  0  0  0  0  0  0  0
    3.4826   -5.3273    3.9208 C   0  0  0  0  0  0  0  0  0  0  0  0
    2.4452   -5.8724    3.1627 C   0  0  0  0  0  0  0  0  0  0  0  0
   -0.8311   -4.7210    1.4093 C   0  0  0  0  0  0  0  0  0  0  0  0
   -1.8797   -4.6655    2.2929 C   0  0  0  0  0  0  0  0  0  0  0  0
   -1.7380   -5.6840    3.2860 C   0  0  0  0  0  0  0  0  0  0  0  0
   -2.8672   -6.6991    3.9981 S   0  0  0  0  0  0  0  0  0  0  0  0
   -2.6007   -3.1560    2.3089 S   0  0  0  0  0  0  0  0  0  0  0  0
   -1.6701   -2.6063    0.9930 C   0  0  0  0  0  0  0  0  0  0  0  0
   -1.6821   -1.3379    0.4063 C   0  0  0  0  0  0  0  0  0  0  0  0
   -0.9428   -1.1535   -0.7910 C   0  0  0  0  0  0  0  0  0  0  0  0
   -0.1433   -2.1990   -1.3013 C   0  0  0  0  0  0  0  0  0  0  0  0
   -0.0404   -3.4313   -0.6158 C   0  0  0  0  0  0  0  0  0  0  0  0
    0.6925   -4.5100   -1.1290 O   0  0  0  0  0  0  0  0  0  0  0  0
    1.2498   -4.5801   -2.4435 C   0  0  0  0  0  0  0  0  0  0  0  0
    2.6599   -3.9904   -2.4639 C   0  0  0  0  0  0  0  0  0  0  0  0
   -0.7824   -3.6005    0.5628 C   0  0  0  0  0  0  0  0  0  0  0  0
   -1.0229    0.0946   -1.4183 C   0  0  0  0  0  0  0  0  0  0  0  0
   -1.6213    1.1941   -0.7900 C   0  0  0  0  0  0  0  0  0  0  0  0
   -2.2411    1.0516    0.4619 C   0  0  0  0  0  0  0  0  0  0  0  0
   -2.3291   -0.2431    1.0178 C   0  0  0  0  0  0  0  0  0  0  0  0
   -2.7571    2.1847    1.1113 O   0  0  0  0  0  0  0  0  0  0  0  0
   -3.3844    2.2067    2.3928 C   0  0  0  0  0  0  0  0  0  0  0  0
   -4.8534    1.8226    2.2654 C   0  0  0  0  0  0  0  0  0  0  0  0
   -1.4694    2.3763   -1.5419 C   0  0  0  0  0  0  0  0  0  0  0  0
   -0.8547    2.1539   -2.7482 C   0  0  0  0  0  0  0  0  0  0  0  0
   -0.3006    0.5751   -2.8775 S   0  0  0  0  0  0  0  0  0  0  0  0
   -0.3218    3.3889   -3.2375 C   0  0  0  0  0  0  0  0  0  0  0  0
    1.0480    3.7351   -4.1305 S   0  0  0  0  0  0  0  0  0  0  0  0
    1.2732    5.2660   -3.4284 C   0  0  0  0  0  0  0  0  0  0  0  0
    0.3471    5.4349   -2.3971 C   0  0  0  0  0  0  0  0  0  0  0  0
   -0.5550    4.3664   -2.3144 C   0  0  0  0  0  0  0  0  0  0  0  0
   -1.3394    3.8430   -1.1160 C   0  0  0  0  0  0  0  0  0  0  0  0
   -2.6854    4.5792   -1.0190 C   0  0  0  0  0  0  0  0  0  0  0  0
   -3.9171    3.8918   -0.9758 C   0  0  0  0  0  0  0  0  0  0  0  0
   -5.1011    4.5663   -0.6740 C   0  0  0  0  0  0  0  0  0  0  0  0
   -5.0918    5.9488   -0.4418 C   0  0  0  0  0  0  0  0  0  0  0  0
   -6.3281    6.6451    0.0510 C   0  0  0  0  0  0  0  0  0  0  0  0
   -6.3932    6.5826    1.5730 C   0  0  0  0  0  0  0  0  0  0  0  0
   -3.8909    6.6571   -0.5727 C   0  0  0  0  0  0  0  0  0  0  0  0
   -2.7053    5.9807   -0.8675 C   0  0  0  0  0  0  0  0  0  0  0  0
   -0.4734    3.9283    0.1567 C   0  0  0  0  0  0  0  0  0  0  0  0
    0.8222    3.3610    0.1588 C   0  0  0  0  0  0  0  0  0  0  0  0
    1.6164    3.3793    1.3059 C   0  0  0  0  0  0  0  0  0  0  0  0
    1.1354    3.9543    2.4893 C   0  0  0  0  0  0  0  0  0  0  0  0
    2.0100    4.0165    3.7136 C   0  0  0  0  0  0  0  0  0  0  0  0
    2.8813    5.2694    3.6946 C   0  0  0  0  0  0  0  0  0  0  0  0
   -0.1402    4.5280    2.5032 C   0  0  0  0  0  0  0  0  0  0  0  0
   -0.9383    4.5098    1.3582 C   0  0  0  0  0  0  0  0  0  0  0  0
    2.5012    6.0646   -3.5643 C   0  0  0  0  0  0  0  0  0  0  0  0
    3.1446    6.2535   -4.7317 C   0  0  0  0  0  0  0  0  0  0  0  0
    2.5673    5.9921   -6.0556 C   0  0  0  0  0  0  0  0  0  0  0  0
    1.3529    5.7868   -6.3091 O   0  0  0  0  0  0  0  0  0  0  0  0
    3.5903    6.1862   -7.0511 C   0  0  0  0  0  0  0  0  0  0  0  0
    3.4954    5.9388   -8.4201 C   0  0  0  0  0  0  0  0  0  0  0  0
    4.6338    6.1307   -9.2233 C   0  0  0  0  0  0  0  0  0  0  0  0
    4.6063    5.7959  -10.6939 C   0  0  0  0  0  0  0  0  0  0  0  0
    5.3388    6.7283  -11.4134 F   0  0  0  0  0  0  0  0  0  0  0  0
    5.1575    4.5417  -10.8828 F   0  0  0  0  0  0  0  0  0  0  0  0
    3.3107    5.7935  -11.1830 F   0  0  0  0  0  0  0  0  0  0  0  0
    5.8457    6.5316   -8.6183 C   0  0  0  0  0  0  0  0  0  0  0  0
    5.9154    6.7683   -7.2370 C   0  0  0  0  0  0  0  0  0  0  0  0
    4.7606    6.6091   -6.4481 C   0  0  0  0  0  0  0  0  0  0  0  0
    4.5526    6.7350   -4.9680 C   0  0  0  0  0  0  0  0  0  0  0  0
    5.4555    7.1892   -4.0526 C   0  0  0  0  0  0  0  0  0  0  0  0
    6.7562    7.6845   -4.4168 C   0  0  0  0  0  0  0  0  0  0  0  0
    7.8071    8.0861   -4.6944 N   0  0  0  0  0  0  0  0  0  0  0  0
    5.1943    7.2542   -2.6397 C   0  0  0  0  0  0  0  0  0  0  0  0
    5.0020    7.3074   -1.4977 N   0  0  0  0  0  0  0  0  0  0  0  0
   -1.3197  -12.2235    6.1099 H   0  0  0  0  0  0  0  0  0  0  0  0
   -0.2890   -9.8877    5.6843 H   0  0  0  0  0  0  0  0  0  0  0  0
    0.2355   -8.3775    3.3773 H   0  0  0  0  0  0  0  0  0  0  0  0
    2.6601   -5.9838    0.5239 H   0  0  0  0  0  0  0  0  0  0  0  0
    3.2503   -7.5763   -1.2025 H   0  0  0  0  0  0  0  0  0  0  0  0
    1.0568  -10.3876   -2.3181 H   0  0  0  0  0  0  0  0  0  0  0  0
    2.7403   -9.7770   -2.2641 H   0  0  0  0  0  0  0  0  0  0  0  0
    0.4303   -8.4871   -3.8610 H   0  0  0  0  0  0  0  0  0  0  0  0
    1.7518   -9.5144   -4.5348 H   0  0  0  0  0  0  0  0  0  0  0  0
    2.1462   -7.9083   -3.8140 H   0  0  0  0  0  0  0  0  0  0  0  0
   -0.7460   -9.1805   -1.1206 H   0  0  0  0  0  0  0  0  0  0  0  0
   -1.3459   -7.6054    0.6564 H   0  0  0  0  0  0  0  0  0  0  0  0
    0.6321   -3.0253    2.6870 H   0  0  0  0  0  0  0  0  0  0  0  0
    2.4543   -2.0867    3.9745 H   0  0  0  0  0  0  0  0  0  0  0  0
    5.5102   -4.0188    5.0277 H   0  0  0  0  0  0  0  0  0  0  0  0
    4.9143   -2.3763    4.6331 H   0  0  0  0  0  0  0  0  0  0  0  0
    3.3035   -2.4618    6.5306 H   0  0  0  0  0  0  0  0  0  0  0  0
    4.9825   -2.7972    7.1031 H   0  0  0  0  0  0  0  0  0  0  0  0
    3.8120   -4.1619    6.9094 H   0  0  0  0  0  0  0  0  0  0  0  0
    4.2577   -5.9775    4.3111 H   0  0  0  0  0  0  0  0  0  0  0  0
    2.4306   -6.9448    3.0040 H   0  0  0  0  0  0  0  0  0  0  0  0
    0.4145   -2.0421   -2.2120 H   0  0  0  0  0  0  0  0  0  0  0  0
    1.3084   -5.6466   -2.7460 H   0  0  0  0  0  0  0  0  0  0  0  0
    0.5943   -4.0753   -3.1835 H   0  0  0  0  0  0  0  0  0  0  0  0
    3.3542   -4.6997   -1.9705 H   0  0  0  0  0  0  0  0  0  0  0  0
    2.9833   -3.8395   -3.5146 H   0  0  0  0  0  0  0  0  0  0  0  0
    2.6902   -3.0259   -1.9175 H   0  0  0  0  0  0  0  0  0  0  0  0
   -2.8414   -0.3943    1.9554 H   0  0  0  0  0  0  0  0  0  0  0  0
   -2.8552    1.5488    3.1151 H   0  0  0  0  0  0  0  0  0  0  0  0
   -3.3281    3.2407    2.7934 H   0  0  0  0  0  0  0  0  0  0  0  0
   -5.3622    2.5270    1.5702 H   0  0  0  0  0  0  0  0  0  0  0  0
   -5.3397    1.8871    3.2630 H   0  0  0  0  0  0  0  0  0  0  0  0
   -4.9558    0.7869    1.8825 H   0  0  0  0  0  0  0  0  0  0  0  0
    0.4237    6.2169   -1.6532 H   0  0  0  0  0  0  0  0  0  0  0  0
   -3.9788    2.8225   -1.1334 H   0  0  0  0  0  0  0  0  0  0  0  0
   -6.0239    4.0050   -0.5793 H   0  0  0  0  0  0  0  0  0  0  0  0
   -6.3265    7.7104   -0.2706 H   0  0  0  0  0  0  0  0  0  0  0  0
   -7.2376    6.1692   -0.3756 H   0  0  0  0  0  0  0  0  0  0  0  0
   -6.4407    5.5236    1.9147 H   0  0  0  0  0  0  0  0  0  0  0  0
   -5.5064    7.0757    2.0237 H   0  0  0  0  0  0  0  0  0  0  0  0
   -7.3072    7.1054    1.9308 H   0  0  0  0  0  0  0  0  0  0  0  0
   -3.8615    7.7238   -0.3982 H   0  0  0  0  0  0  0  0  0  0  0  0
   -1.7871    6.5470   -0.8985 H   0  0  0  0  0  0  0  0  0  0  0  0
    1.2194    2.8973   -0.7381 H   0  0  0  0  0  0  0  0  0  0  0  0
    2.6057    2.9404    1.2741 H   0  0  0  0  0  0  0  0  0  0  0  0
    1.3790    4.0237    4.6309 H   0  0  0  0  0  0  0  0  0  0  0  0
    2.6589    3.1141    3.7688 H   0  0  0  0  0  0  0  0  0  0  0  0
    3.5892    5.2303    2.8384 H   0  0  0  0  0  0  0  0  0  0  0  0
    3.4649    5.3270    4.6367 H   0  0  0  0  0  0  0  0  0  0  0  0
    2.2502    6.1797    3.6119 H   0  0  0  0  0  0  0  0  0  0  0  0
   -0.5212    4.9874    3.4061 H   0  0  0  0  0  0  0  0  0  0  0  0
   -1.9260    4.9402    1.4311 H   0  0  0  0  0  0  0  0  0  0  0  0
    2.9031    6.4200   -2.6385 H   0  0  0  0  0  0  0  0  0  0  0  0
    2.5628    5.5784   -8.8396 H   0  0  0  0  0  0  0  0  0  0  0  0
    6.7420    6.6341   -9.2130 H   0  0  0  0  0  0  0  0  0  0  0  0
    6.8680    7.0334   -6.8237 H   0  0  0  0  0  0  0  0  0  0  0  0
  1  2  3  0
  2  3  1  0
  3  4  2  0
  4  5  1  0
  5  6  2  0
  6  7  1  0
  6  8  1  0
  8  9  2  0
  9 10  1  0
 10 11  1  0
 11 12  1  0
 12 13  2  0
 13 14  1  0
 14 15  2  0
 15 16  1  0
 16 17  1  0
 15 18  1  0
 18 19  2  0
 11 20  1  0
 20 21  2  0
 21 22  1  0
 22 23  2  0
 23 24  1  0
 24 25  1  0
 23 26  1  0
 26 27  2  0
 11 28  1  0
 28 29  2  0
 29 30  1  0
 30 31  1  0
 29 32  1  0
 32 33  1  0
 33 34  2  0
 34 35  1  0
 35 36  2  0
 36 37  1  0
 37 38  1  0
 38 39  1  0
 39 40  1  0
 37 41  2  0
 35 42  1  0
 42 43  2  0
 43 44  1  0
 44 45  2  0
 44 46  1  0
 46 47  1  0
 47 48  1  0
 43 49  1  0
 49 50  2  0
 50 51  1  0
 50 52  1  0
 52 53  1  0
 53 54  1  0
 54 55  2  0
 55 56  1  0
 56 57  1  0
 57 58  1  0
 58 59  2  0
 59 60  1  0
 60 61  2  0
 61 62  1  0
 62 63  1  0
 61 64  1  0
 64 65  2  0
 57 66  1  0
 66 67  2  0
 67 68  1  0
 68 69  2  0
 69 70  1  0
 70 71  1  0
 69 72  1  0
 72 73  2  0
 54 74  1  0
 74 75  2  3
 75 76  1  0
 76 77  2  0
 76 78  1  0
 78 79  2  0
 79 80  1  0
 80 81  1  0
 81 82  1  0
 81 83  1  0
 81 84  1  0
 80 85  2  0
 85 86  1  0
 86 87  2  0
 87 88  1  0
 88 89  2  3
 89 90  1  0
 90 91  3  0
 89 92  1  0
 92 93  3  0
  7  3  1  0
 31  8  1  0
 41 33  1  0
 51 42  1  0
 56 52  2  0
 65 58  1  0
 73 66  1  0
 88 75  1  0
 30 10  2  0
 45 34  1  0
 57 49  1  0
 87 78  1  0
 19 12  1  0
 27 20  1  0
 41 28  1  0
  4 94  1  0
  5 95  1  0
  9 96  1  0
 13 97  1  0
 14 98  1  0
 16 99  1  0
 16100  1  0
 17101  1  0
 17102  1  0
 17103  1  0
 18104  1  0
 19105  1  0
 21106  1  0
 22107  1  0
 24108  1  0
 24109  1  0
 25110  1  0
 25111  1  0
 25112  1  0
 26113  1  0
 27114  1  0
 36115  1  0
 39116  1  0
 39117  1  0
 40118  1  0
 40119  1  0
 40120  1  0
 45121  1  0
 47122  1  0
 47123  1  0
 48124  1  0
 48125  1  0
 48126  1  0
 55127  1  0
 59128  1  0
 60129  1  0
 62130  1  0
 62131  1  0
 63132  1  0
 63133  1  0
 63134  1  0
 64135  1  0
 65136  1  0
 67137  1  0
 68138  1  0
 70139  1  0
 70140  1  0
 71141  1  0
 71142  1  0
 71143  1  0
 72144  1  0
 73145  1  0
 74146  1  0
 79147  1  0
 85148  1  0
 86149  1  0
M  END

