
     RDKit          3D

132144  0  0  0  0  0  0  0  0999 V2000
    0.1105    7.7050   10.5687 N   0  0  0  0  0  0  0  0  0  0  0  0
    0.0148    6.6731   10.0560 C   0  0  0  0  0  0  0  0  0  0  0  0
   -0.1012    5.3911    9.4208 C   0  0  0  0  0  0  0  0  0  0  0  0
    0.1001    4.1662   10.0350 C   0  0  0  0  0  0  0  0  0  0  0  0
   -0.0762    3.0829    9.1650 C   0  0  0  0  0  0  0  0  0  0  0  0
   -0.4140    3.4666    7.8706 C   0  0  0  0  0  0  0  0  0  0  0  0
   -0.5000    5.1507    7.8062 S   0  0  0  0  0  0  0  0  0  0  0  0
   -0.6363    2.5649    6.7307 C   0  0  0  0  0  0  0  0  0  0  0  0
   -0.5567    1.1673    6.7806 C   0  0  0  0  0  0  0  0  0  0  0  0
   -0.7550    0.6031    5.5191 C   0  0  0  0  0  0  0  0  0  0  0  0
   -0.5384   -0.7908    4.9822 C   0  0  0  0  0  0  0  0  0  0  0  0
    0.9300   -1.1623    5.2582 C   0  0  0  0  0  0  0  0  0  0  0  0
    1.9645   -0.8205    4.3554 C   0  0  0  0  0  0  0  0  0  0  0  0
    3.2999   -1.0885    4.6552 C   0  0  0  0  0  0  0  0  0  0  0  0
    3.6466   -1.6885    5.8723 C   0  0  0  0  0  0  0  0  0  0  0  0
    5.0932   -1.9329    6.2095 C   0  0  0  0  0  0  0  0  0  0  0  0
    5.7062   -0.7089    6.8813 C   0  0  0  0  0  0  0  0  0  0  0  0
    2.6394   -1.9812    6.8028 C   0  0  0  0  0  0  0  0  0  0  0  0
    1.2995   -1.7133    6.5042 C   0  0  0  0  0  0  0  0  0  0  0  0
   -1.5456   -1.8269    5.5071 C   0  0  0  0  0  0  0  0  0  0  0  0
   -1.3036   -3.2040    5.3111 C   0  0  0  0  0  0  0  0  0  0  0  0
   -2.2224   -4.1646    5.7440 C   0  0  0  0  0  0  0  0  0  0  0  0
   -3.4131   -3.7742    6.3725 C   0  0  0  0  0  0  0  0  0  0  0  0
   -4.4209   -4.8106    6.8009 C   0  0  0  0  0  0  0  0  0  0  0  0
   -5.2933   -5.2410    5.6261 C   0  0  0  0  0  0  0  0  0  0  0  0
   -3.6856   -2.4077    6.5351 C   0  0  0  0  0  0  0  0  0  0  0  0
   -2.7688   -1.4431    6.1011 C   0  0  0  0  0  0  0  0  0  0  0  0
   -0.8074   -0.5129    3.5003 C   0  0  0  0  0  0  0  0  0  0  0  0
   -0.9662    0.8474    3.2369 C   0  0  0  0  0  0  0  0  0  0  0  0
   -0.9628    1.5037    4.5295 C   0  0  0  0  0  0  0  0  0  0  0  0
   -0.9092    3.0709    5.1286 S   0  0  0  0  0  0  0  0  0  0  0  0
   -0.8943    1.3572    1.9283 C   0  0  0  0  0  0  0  0  0  0  0  0
   -0.8551    2.7448    1.6586 C   0  0  0  0  0  0  0  0  0  0  0  0
   -0.5630    3.2109    0.3694 C   0  0  0  0  0  0  0  0  0  0  0  0
   -0.3609    2.2909   -0.6608 C   0  0  0  0  0  0  0  0  0  0  0  0
    0.2105    2.5725   -2.0544 C   0  0  0  0  0  0  0  0  0  0  0  0
    1.7204    2.8905   -2.0261 C   0  0  0  0  0  0  0  0  0  0  0  0
    2.5046    2.7146   -0.8612 C   0  0  0  0  0  0  0  0  0  0  0  0
    3.8910    2.8629   -0.8969 C   0  0  0  0  0  0  0  0  0  0  0  0
    4.5454    3.1637   -2.0976 C   0  0  0  0  0  0  0  0  0  0  0  0
    6.0517    3.2261   -2.1361 C   0  0  0  0  0  0  0  0  0  0  0  0
    6.6523    1.8234   -2.1901 C   0  0  0  0  0  0  0  0  0  0  0  0
    3.7845    3.3446   -3.2607 C   0  0  0  0  0  0  0  0  0  0  0  0
    2.3912    3.2048   -3.2282 C   0  0  0  0  0  0  0  0  0  0  0  0
   -0.6324    3.6413   -2.7667 C   0  0  0  0  0  0  0  0  0  0  0  0
   -1.8031    3.3030   -3.4775 C   0  0  0  0  0  0  0  0  0  0  0  0
   -2.5723    4.2877   -4.1034 C   0  0  0  0  0  0  0  0  0  0  0  0
   -2.2210    5.6398   -3.9901 C   0  0  0  0  0  0  0  0  0  0  0  0
   -3.0231    6.7007   -4.6985 C   0  0  0  0  0  0  0  0  0  0  0  0
   -2.3755    7.0709   -6.0287 C   0  0  0  0  0  0  0  0  0  0  0  0
   -1.0889    5.9932   -3.2442 C   0  0  0  0  0  0  0  0  0  0  0  0
   -0.3096    5.0077   -2.6278 C   0  0  0  0  0  0  0  0  0  0  0  0
    0.0668    1.1845   -2.6333 C   0  0  0  0  0  0  0  0  0  0  0  0
    0.1606    0.6678   -3.9288 C   0  0  0  0  0  0  0  0  0  0  0  0
   -0.1060   -0.7064   -3.9430 C   0  0  0  0  0  0  0  0  0  0  0  0
   -0.5314   -1.2361   -2.3793 S   0  0  0  0  0  0  0  0  0  0  0  0
   -0.2721    0.2731   -1.6897 C   0  0  0  0  0  0  0  0  0  0  0  0
   -0.5401    0.9305   -0.4305 C   0  0  0  0  0  0  0  0  0  0  0  0
   -0.7540    0.4198    0.8587 C   0  0  0  0  0  0  0  0  0  0  0  0
   -0.7102   -0.9651    1.1327 C   0  0  0  0  0  0  0  0  0  0  0  0
   -0.7129   -1.4305    2.4512 C   0  0  0  0  0  0  0  0  0  0  0  0
   -0.3158   -1.4923   -5.1663 C   0  0  0  0  0  0  0  0  0  0  0  0
    0.2870   -2.6743   -5.4090 C   0  0  0  0  0  0  0  0  0  0  0  0
    1.3229   -3.2881   -4.5710 C   0  0  0  0  0  0  0  0  0  0  0  0
    1.9576   -2.7322   -3.6345 O   0  0  0  0  0  0  0  0  0  0  0  0
    1.5104   -4.6563   -5.0002 C   0  0  0  0  0  0  0  0  0  0  0  0
    2.3345   -5.6252   -4.4280 C   0  0  0  0  0  0  0  0  0  0  0  0
    2.2801   -6.9397   -4.9305 C   0  0  0  0  0  0  0  0  0  0  0  0
    3.1115   -7.9937   -4.3264 C   0  0  0  0  0  0  0  0  0  0  0  0
    4.2951   -7.7306   -3.9738 O   0  0  0  0  0  0  0  0  0  0  0  0
    2.5925   -9.2838   -4.1802 O   0  0  0  0  0  0  0  0  0  0  0  0
    3.3125  -10.3469   -3.5678 C   0  0  0  0  0  0  0  0  0  0  0  0
    1.3821   -7.2456   -5.9724 C   0  0  0  0  0  0  0  0  0  0  0  0
    0.6002   -6.2433   -6.5698 C   0  0  0  0  0  0  0  0  0  0  0  0
    0.6715   -4.9310   -6.0662 C   0  0  0  0  0  0  0  0  0  0  0  0
   -0.0641   -3.6895   -6.4623 C   0  0  0  0  0  0  0  0  0  0  0  0
   -0.8473   -3.5108   -7.5586 C   0  0  0  0  0  0  0  0  0  0  0  0
   -1.2707   -2.2093   -7.9974 C   0  0  0  0  0  0  0  0  0  0  0  0
   -1.5825   -1.1612   -8.3850 N   0  0  0  0  0  0  0  0  0  0  0  0
   -1.1705   -4.5693   -8.4838 C   0  0  0  0  0  0  0  0  0  0  0  0
   -1.3802   -5.4111   -9.2454 N   0  0  0  0  0  0  0  0  0  0  0  0
    0.3707    4.0509   11.0761 H   0  0  0  0  0  0  0  0  0  0  0  0
    0.0491    2.0575    9.4785 H   0  0  0  0  0  0  0  0  0  0  0  0
   -0.3269    0.5960    7.6655 H   0  0  0  0  0  0  0  0  0  0  0  0
    1.7543   -0.3229    3.4167 H   0  0  0  0  0  0  0  0  0  0  0  0
    4.0667   -0.8055    3.9447 H   0  0  0  0  0  0  0  0  0  0  0  0
    5.6647   -2.1738    5.2875 H   0  0  0  0  0  0  0  0  0  0  0  0
    5.1840   -2.8094    6.8908 H   0  0  0  0  0  0  0  0  0  0  0  0
    5.6071    0.1851    6.2255 H   0  0  0  0  0  0  0  0  0  0  0  0
    5.1978   -0.5060    7.8487 H   0  0  0  0  0  0  0  0  0  0  0  0
    6.7847   -0.8873    7.0768 H   0  0  0  0  0  0  0  0  0  0  0  0
    2.8924   -2.4065    7.7679 H   0  0  0  0  0  0  0  0  0  0  0  0
    0.5495   -1.9198    7.2551 H   0  0  0  0  0  0  0  0  0  0  0  0
   -0.4000   -3.5405    4.8194 H   0  0  0  0  0  0  0  0  0  0  0  0
   -2.0047   -5.2133    5.5837 H   0  0  0  0  0  0  0  0  0  0  0  0
   -5.0711   -4.4077    7.6095 H   0  0  0  0  0  0  0  0  0  0  0  0
   -3.8978   -5.6993    7.2135 H   0  0  0  0  0  0  0  0  0  0  0  0
   -6.0476   -5.9800    5.9746 H   0  0  0  0  0  0  0  0  0  0  0  0
   -4.6718   -5.7166    4.8374 H   0  0  0  0  0  0  0  0  0  0  0  0
   -5.8244   -4.3648    5.1937 H   0  0  0  0  0  0  0  0  0  0  0  0
   -4.6156   -2.0855    6.9916 H   0  0  0  0  0  0  0  0  0  0  0  0
   -3.0260   -0.4001    6.2318 H   0  0  0  0  0  0  0  0  0  0  0  0
   -0.9785    3.4776    2.4432 H   0  0  0  0  0  0  0  0  0  0  0  0
   -0.4410    4.2713    0.1900 H   0  0  0  0  0  0  0  0  0  0  0  0
    2.0610    2.4482    0.0889 H   0  0  0  0  0  0  0  0  0  0  0  0
    4.4616    2.7134    0.0129 H   0  0  0  0  0  0  0  0  0  0  0  0
    6.4327    3.7560   -1.2348 H   0  0  0  0  0  0  0  0  0  0  0  0
    6.3903    3.7995   -3.0255 H   0  0  0  0  0  0  0  0  0  0  0  0
    6.3471    1.3098   -3.1240 H   0  0  0  0  0  0  0  0  0  0  0  0
    6.3220    1.2233   -1.3154 H   0  0  0  0  0  0  0  0  0  0  0  0
    7.7618    1.8931   -2.1706 H   0  0  0  0  0  0  0  0  0  0  0  0
    4.2706    3.5590   -4.2045 H   0  0  0  0  0  0  0  0  0  0  0  0
    1.8429    3.3130   -4.1543 H   0  0  0  0  0  0  0  0  0  0  0  0
   -2.1284    2.2754   -3.5622 H   0  0  0  0  0  0  0  0  0  0  0  0
   -3.4502    3.9984   -4.6704 H   0  0  0  0  0  0  0  0  0  0  0  0
   -4.0588    6.3459   -4.8870 H   0  0  0  0  0  0  0  0  0  0  0  0
   -3.0956    7.6102   -4.0616 H   0  0  0  0  0  0  0  0  0  0  0  0
   -2.9807    7.8486   -6.5371 H   0  0  0  0  0  0  0  0  0  0  0  0
   -1.3518    7.4710   -5.8630 H   0  0  0  0  0  0  0  0  0  0  0  0
   -2.3149    6.1765   -6.6896 H   0  0  0  0  0  0  0  0  0  0  0  0
   -0.8055    7.0332   -3.1392 H   0  0  0  0  0  0  0  0  0  0  0  0
    0.5489    5.3156   -2.0400 H   0  0  0  0  0  0  0  0  0  0  0  0
    0.3784    1.2610   -4.8078 H   0  0  0  0  0  0  0  0  0  0  0  0
   -0.5876   -1.6877    0.3411 H   0  0  0  0  0  0  0  0  0  0  0  0
   -0.5709   -2.4856    2.6481 H   0  0  0  0  0  0  0  0  0  0  0  0
   -1.0708   -1.0982   -5.8206 H   0  0  0  0  0  0  0  0  0  0  0  0
    2.9797   -5.3736   -3.5963 H   0  0  0  0  0  0  0  0  0  0  0  0
    2.6076  -11.1771   -3.3401 H   0  0  0  0  0  0  0  0  0  0  0  0
    3.7834  -10.0097   -2.6151 H   0  0  0  0  0  0  0  0  0  0  0  0
    4.1030  -10.7192   -4.2583 H   0  0  0  0  0  0  0  0  0  0  0  0
    1.3057   -8.2586   -6.3483 H   0  0  0  0  0  0  0  0  0  0  0  0
   -0.0698   -6.5258   -7.3574 H   0  0  0  0  0  0  0  0  0  0  0  0
  1  2  3  0
  2  3  1  0
  3  4  2  0
  4  5  1  0
  5  6  2  0
  6  7  1  0
  6  8  1  0
  8  9  2  0
  9 10  1  0
 10 11  1  0
 11 12  1  0
 12 13  2  0
 13 14  1  0
 14 15  2  0
 15 16  1  0
 16 17  1  0
 15 18  1  0
 18 19  2  0
 11 20  1  0
 20 21  2  0
 21 22  1  0
 22 23  2  0
 23 24  1  0
 24 25  1  0
 23 26  1  0
 26 27  2  0
 11 28  1  0
 28 29  2  0
 29 30  1  0
 30 31  1  0
 29 32  1  0
 32 33  2  0
 33 34  1  0
 34 35  2  0
 35 36  1  0
 36 37  1  0
 37 38  2  0
 38 39  1  0
 39 40  2  0
 40 41  1  0
 41 42  1  0
 40 43  1  0
 43 44  2  0
 36 45  1  0
 45 46  2  0
 46 47  1  0
 47 48  2  0
 48 49  1  0
 49 50  1  0
 48 51  1  0
 51 52  2  0
 36 53  1  0
 53 54  1  0
 54 55  2  0
 55 56  1  0
 56 57  1  0
 57 58  1  0
 58 59  2  0
 59 60  1  0
 60 61  2  0
 55 62  1  0
 62 63  2  3
 63 64  1  0
 64 65  2  0
 64 66  1  0
 66 67  2  0
 67 68  1  0
 68 69  1  0
 69 70  2  0
 69 71  1  0
 71 72  1  0
 68 73  2  0
 73 74  1  0
 74 75  2  0
 75 76  1  0
 76 77  2  3
 77 78  1  0
 78 79  3  0
 77 80  1  0
 80 81  3  0
  7  3  1  0
 31  8  1  0
 59 32  1  0
 76 63  1  0
 30 10  2  0
 58 35  1  0
 75 66  1  0
 19 12  1  0
 27 20  1  0
 61 28  1  0
 44 37  1  0
 52 45  1  0
 57 53  2  0
  4 82  1  0
  5 83  1  0
  9 84  1  0
 13 85  1  0
 14 86  1  0
 16 87  1  0
 16 88  1  0
 17 89  1  0
 17 90  1  0
 17 91  1  0
 18 92  1  0
 19 93  1  0
 21 94  1  0
 22 95  1  0
 24 96  1  0
 24 97  1  0
 25 98  1  0
 25 99  1  0
 25100  1  0
 26101  1  0
 27102  1  0
 33103  1  0
 34104  1  0
 38105  1  0
 39106  1  0
 41107  1  0
 41108  1  0
 42109  1  0
 42110  1  0
 42111  1  0
 43112  1  0
 44113  1  0
 46114  1  0
 47115  1  0
 49116  1  0
 49117  1  0
 50118  1  0
 50119  1  0
 50120  1  0
 51121  1  0
 52122  1  0
 54123  1  0
 60124  1  0
 61125  1  0
 62126  1  0
 67127  1  0
 72128  1  0
 72129  1  0
 72130  1  0
 73131  1  0
 74132  1  0
M  END

