
     RDKit          3D

113126  0  0  0  0  0  0  0  0999 V2000
    0.1216   -6.5593   -4.3597 C   0  0  0  0  0  0  0  0  0  0  0  0
   -0.1767   -7.1599   -3.2017 C   0  0  0  0  0  0  0  0  0  0  0  0
   -0.0346   -6.6321   -1.8337 C   0  0  0  0  0  0  0  0  0  0  0  0
    0.4482   -5.5154   -1.5045 O   0  0  0  0  0  0  0  0  0  0  0  0
   -0.4789   -7.6697   -0.9070 C   0  0  0  0  0  0  0  0  0  0  0  0
   -0.5328   -7.6466    0.4850 C   0  0  0  0  0  0  0  0  0  0  0  0
   -1.0136   -8.7867    1.1511 C   0  0  0  0  0  0  0  0  0  0  0  0
   -1.4289   -9.9198    0.4221 C   0  0  0  0  0  0  0  0  0  0  0  0
   -1.3580   -9.9263   -0.9813 C   0  0  0  0  0  0  0  0  0  0  0  0
   -0.8710   -8.7864   -1.6224 C   0  0  0  0  0  0  0  0  0  0  0  0
   -0.6944   -8.5266   -3.0477 C   0  0  0  0  0  0  0  0  0  0  0  0
   -0.9481   -9.3361   -3.9793 O   0  0  0  0  0  0  0  0  0  0  0  0
    0.5399   -5.1557   -4.4339 C   0  0  0  0  0  0  0  0  0  0  0  0
    1.8401   -4.7059   -4.7083 C   0  0  0  0  0  0  0  0  0  0  0  0
    3.0134   -5.5990   -4.7572 C   0  0  0  0  0  0  0  0  0  0  0  0
    3.7582   -5.7734   -3.5789 C   0  0  0  0  0  0  0  0  0  0  0  0
    4.8308   -6.6629   -3.5410 C   0  0  0  0  0  0  0  0  0  0  0  0
    5.1726   -7.3851   -4.6842 C   0  0  0  0  0  0  0  0  0  0  0  0
    4.4485   -7.2168   -5.8678 C   0  0  0  0  0  0  0  0  0  0  0  0
    3.3549   -6.3337   -5.9185 C   0  0  0  0  0  0  0  0  0  0  0  0
    2.6353   -6.1328   -7.2316 C   0  0  0  0  0  0  0  0  0  0  0  0
    3.2513   -4.9735   -8.0062 C   0  0  0  0  0  0  0  0  0  0  0  0
    1.9155   -3.3168   -4.5879 C   0  0  0  0  0  0  0  0  0  0  0  0
    3.2218   -2.2320   -4.5490 S   0  0  0  0  0  0  0  0  0  0  0  0
    2.2025   -0.9531   -4.0897 C   0  0  0  0  0  0  0  0  0  0  0  0
    2.3922    0.1791   -3.3579 C   0  0  0  0  0  0  0  0  0  0  0  0
    3.5924    0.7840   -2.9682 C   0  0  0  0  0  0  0  0  0  0  0  0
    3.5597    1.7711   -1.9500 C   0  0  0  0  0  0  0  0  0  0  0  0
    4.7452    2.3159   -1.5785 N   0  0  0  0  0  0  0  0  0  0  0  0
    5.7625    1.4764   -2.5770 S   0  0  0  0  0  0  0  0  0  0  0  0
    4.8110    0.4565   -3.4677 N   0  0  0  0  0  0  0  0  0  0  0  0
    2.3284    2.1107   -1.3885 C   0  0  0  0  0  0  0  0  0  0  0  0
    2.0118    3.0442   -0.4523 C   0  0  0  0  0  0  0  0  0  0  0  0
    2.7955    4.1701    0.5394 S   0  0  0  0  0  0  0  0  0  0  0  0
    1.2933    4.6561    1.1802 C   0  0  0  0  0  0  0  0  0  0  0  0
    0.9549    5.4646    2.2615 C   0  0  0  0  0  0  0  0  0  0  0  0
    1.9368    6.2387    3.0427 C   0  0  0  0  0  0  0  0  0  0  0  0
    2.2758    7.5741    2.7019 C   0  0  0  0  0  0  0  0  0  0  0  0
    1.6037    8.3143    1.5647 C   0  0  0  0  0  0  0  0  0  0  0  0
    0.4762    9.2033    2.0815 C   0  0  0  0  0  0  0  0  0  0  0  0
    3.2482    8.2442    3.4650 C   0  0  0  0  0  0  0  0  0  0  0  0
    3.8901    7.6010    4.5270 C   0  0  0  0  0  0  0  0  0  0  0  0
    3.5563    6.2899    4.8545 C   0  0  0  0  0  0  0  0  0  0  0  0
    2.5826    5.6098    4.1184 C   0  0  0  0  0  0  0  0  0  0  0  0
   -0.4065    5.3387    2.5797 C   0  0  0  0  0  0  0  0  0  0  0  0
   -1.1743    4.3355    1.4250 S   0  0  0  0  0  0  0  0  0  0  0  0
    0.2431    3.9824    0.6068 C   0  0  0  0  0  0  0  0  0  0  0  0
    0.6676    3.0440   -0.3225 C   0  0  0  0  0  0  0  0  0  0  0  0
    0.0555    2.1489   -1.1419 N   0  0  0  0  0  0  0  0  0  0  0  0
    1.1085    1.5274   -1.7849 C   0  0  0  0  0  0  0  0  0  0  0  0
    1.1502    0.4762   -2.7577 C   0  0  0  0  0  0  0  0  0  0  0  0
    0.2404   -0.5210   -3.0483 N   0  0  0  0  0  0  0  0  0  0  0  0
    0.9172   -1.3509   -3.8888 C   0  0  0  0  0  0  0  0  0  0  0  0
    0.7509   -2.7016   -4.1983 C   0  0  0  0  0  0  0  0  0  0  0  0
   -0.4595   -3.8471   -4.0094 S   0  0  0  0  0  0  0  0  0  0  0  0
   -0.8854   -0.9797   -2.2297 C   0  0  0  0  0  0  0  0  0  0  0  0
   -0.4056   -1.5761   -0.9126 C   0  0  0  0  0  0  0  0  0  0  0  0
   -1.3283    2.3099   -1.6087 C   0  0  0  0  0  0  0  0  0  0  0  0
   -2.3354    1.7278   -0.6059 C   0  0  0  0  0  0  0  0  0  0  0  0
   -1.0368    5.9260    3.7800 C   0  0  0  0  0  0  0  0  0  0  0  0
   -2.0558    5.3853    4.4741 C   0  0  0  0  0  0  0  0  0  0  0  0
   -2.9011    6.1818    5.3604 C   0  0  0  0  0  0  0  0  0  0  0  0
   -2.6181    7.3151    5.8354 O   0  0  0  0  0  0  0  0  0  0  0  0
   -4.1532    5.4764    5.5424 C   0  0  0  0  0  0  0  0  0  0  0  0
   -5.2949    5.8981    6.2241 C   0  0  0  0  0  0  0  0  0  0  0  0
   -6.4210    5.0623    6.2204 C   0  0  0  0  0  0  0  0  0  0  0  0
   -7.8774    5.5510    7.0682 Cl  0  0  0  0  0  0  0  0  0  0  0  0
   -6.3918    3.8423    5.5199 C   0  0  0  0  0  0  0  0  0  0  0  0
   -5.2370    3.4415    4.8319 C   0  0  0  0  0  0  0  0  0  0  0  0
   -4.1011    4.2655    4.8718 C   0  0  0  0  0  0  0  0  0  0  0  0
   -2.7393    4.0679    4.3031 C   0  0  0  0  0  0  0  0  0  0  0  0
   -2.1308    2.8671    4.1354 C   0  0  0  0  0  0  0  0  0  0  0  0
   -0.6957    2.7303    4.1574 C   0  0  0  0  0  0  0  0  0  0  0  0
    0.4547    2.6023    4.1729 N   0  0  0  0  0  0  0  0  0  0  0  0
   -2.8639    1.6316    4.0393 C   0  0  0  0  0  0  0  0  0  0  0  0
   -3.4304    0.6242    3.9467 N   0  0  0  0  0  0  0  0  0  0  0  0
    0.0418   -7.1168   -5.2864 H   0  0  0  0  0  0  0  0  0  0  0  0
   -0.2152   -6.7743    1.0386 H   0  0  0  0  0  0  0  0  0  0  0  0
   -1.0608   -8.7950    2.2306 H   0  0  0  0  0  0  0  0  0  0  0  0
   -1.7998  -10.7887    0.9484 H   0  0  0  0  0  0  0  0  0  0  0  0
   -1.6790  -10.7894   -1.5474 H   0  0  0  0  0  0  0  0  0  0  0  0
    3.4910   -5.2284   -2.6803 H   0  0  0  0  0  0  0  0  0  0  0  0
    5.3909   -6.7925   -2.6212 H   0  0  0  0  0  0  0  0  0  0  0  0
    6.0039   -8.0753   -4.6563 H   0  0  0  0  0  0  0  0  0  0  0  0
    4.7404   -7.7827   -6.7457 H   0  0  0  0  0  0  0  0  0  0  0  0
    1.5549   -5.9366   -7.0669 H   0  0  0  0  0  0  0  0  0  0  0  0
    2.7043   -7.0543   -7.8520 H   0  0  0  0  0  0  0  0  0  0  0  0
    3.1307   -4.0250   -7.4447 H   0  0  0  0  0  0  0  0  0  0  0  0
    4.3296   -5.1617   -8.1869 H   0  0  0  0  0  0  0  0  0  0  0  0
    2.7473   -4.8711   -8.9883 H   0  0  0  0  0  0  0  0  0  0  0  0
    1.2003    7.6182    0.8005 H   0  0  0  0  0  0  0  0  0  0  0  0
    2.3515    8.9486    1.0437 H   0  0  0  0  0  0  0  0  0  0  0  0
    0.8607    9.9170    2.8436 H   0  0  0  0  0  0  0  0  0  0  0  0
    0.0518    9.7911    1.2388 H   0  0  0  0  0  0  0  0  0  0  0  0
   -0.3329    8.5859    2.5236 H   0  0  0  0  0  0  0  0  0  0  0  0
    3.5203    9.2641    3.2280 H   0  0  0  0  0  0  0  0  0  0  0  0
    4.6459    8.1245    5.0965 H   0  0  0  0  0  0  0  0  0  0  0  0
    4.0573    5.7920    5.6779 H   0  0  0  0  0  0  0  0  0  0  0  0
    2.3472    4.5855    4.3719 H   0  0  0  0  0  0  0  0  0  0  0  0
   -1.4830   -1.7344   -2.7723 H   0  0  0  0  0  0  0  0  0  0  0  0
   -1.6044   -0.1891   -2.0573 H   0  0  0  0  0  0  0  0  0  0  0  0
    0.2195   -0.8437   -0.3579 H   0  0  0  0  0  0  0  0  0  0  0  0
   -1.2791   -1.8510   -0.2828 H   0  0  0  0  0  0  0  0  0  0  0  0
    0.1923   -2.4975   -1.1043 H   0  0  0  0  0  0  0  0  0  0  0  0
   -1.4463    1.8664   -2.6168 H   0  0  0  0  0  0  0  0  0  0  0  0
   -1.5447    3.3950   -1.7445 H   0  0  0  0  0  0  0  0  0  0  0  0
   -1.9000    0.8644   -0.0557 H   0  0  0  0  0  0  0  0  0  0  0  0
   -2.6553    2.4880    0.1312 H   0  0  0  0  0  0  0  0  0  0  0  0
   -3.2476    1.3969   -1.1467 H   0  0  0  0  0  0  0  0  0  0  0  0
   -0.6636    6.8920    4.0991 H   0  0  0  0  0  0  0  0  0  0  0  0
   -5.3154    6.8530    6.7408 H   0  0  0  0  0  0  0  0  0  0  0  0
   -7.2722    3.2131    5.4990 H   0  0  0  0  0  0  0  0  0  0  0  0
   -5.2613    2.5222    4.2714 H   0  0  0  0  0  0  0  0  0  0  0  0
  1  2  2  3
  2  3  1  0
  3  4  2  0
  3  5  1  0
  5  6  2  0
  6  7  1  0
  7  8  2  0
  8  9  1  0
  9 10  2  0
 10 11  1  0
 11 12  2  0
  1 13  1  0
 13 14  2  0
 14 15  1  0
 15 16  2  0
 16 17  1  0
 17 18  2  0
 18 19  1  0
 19 20  2  0
 20 21  1  0
 21 22  1  0
 14 23  1  0
 23 24  1  0
 24 25  1  0
 25 26  1  0
 26 27  1  0
 27 28  1  0
 28 29  2  0
 29 30  1  0
 30 31  1  0
 28 32  1  0
 32 33  1  0
 33 34  1  0
 34 35  1  0
 35 36  1  0
 36 37  1  0
 37 38  2  0
 38 39  1  0
 39 40  1  0
 38 41  1  0
 41 42  2  0
 42 43  1  0
 43 44  2  0
 36 45  2  0
 45 46  1  0
 46 47  1  0
 47 48  1  0
 48 49  1  0
 49 50  1  0
 50 51  1  0
 51 52  1  0
 52 53  1  0
 53 54  1  0
 54 55  1  0
 52 56  1  0
 56 57  1  0
 49 58  1  0
 58 59  1  0
 45 60  1  0
 60 61  2  3
 61 62  1  0
 62 63  2  0
 62 64  1  0
 64 65  2  0
 65 66  1  0
 66 67  1  0
 66 68  2  0
 68 69  1  0
 69 70  2  0
 70 71  1  0
 71 72  2  3
 72 73  1  0
 73 74  3  0
 72 75  1  0
 75 76  3  0
 11  2  1  0
 55 13  1  0
 71 61  1  0
 10  5  1  0
 20 15  1  0
 54 23  2  0
 70 64  1  0
 53 25  2  0
 51 26  2  0
 31 27  2  0
 50 32  2  0
 48 33  2  0
 47 35  2  0
 44 37  1  0
  1 77  1  0
  6 78  1  0
  7 79  1  0
  8 80  1  0
  9 81  1  0
 16 82  1  0
 17 83  1  0
 18 84  1  0
 19 85  1  0
 21 86  1  0
 21 87  1  0
 22 88  1  0
 22 89  1  0
 22 90  1  0
 39 91  1  0
 39 92  1  0
 40 93  1  0
 40 94  1  0
 40 95  1  0
 41 96  1  0
 42 97  1  0
 43 98  1  0
 44 99  1  0
 56100  1  0
 56101  1  0
 57102  1  0
 57103  1  0
 57104  1  0
 58105  1  0
 58106  1  0
 59107  1  0
 59108  1  0
 59109  1  0
 60110  1  0
 65111  1  0
 68112  1  0
 69113  1  0
M  END

