
     RDKit          3D

113126  0  0  0  0  0  0  0  0999 V2000
    4.1341   -7.4618    1.3934 C   0  0  0  0  0  0  0  0  0  0  0  0
    4.9564   -7.2585    2.4300 C   0  0  0  0  0  0  0  0  0  0  0  0
    5.5800   -8.3041    3.2494 C   0  0  0  0  0  0  0  0  0  0  0  0
    5.4083   -9.5451    3.1231 O   0  0  0  0  0  0  0  0  0  0  0  0
    6.4346   -7.6582    4.2414 C   0  0  0  0  0  0  0  0  0  0  0  0
    7.2300   -8.2279    5.2346 C   0  0  0  0  0  0  0  0  0  0  0  0
    7.9729   -7.3708    6.0649 C   0  0  0  0  0  0  0  0  0  0  0  0
    7.9126   -5.9742    5.8850 C   0  0  0  0  0  0  0  0  0  0  0  0
    7.1070   -5.4208    4.8753 C   0  0  0  0  0  0  0  0  0  0  0  0
    6.3747   -6.2886    4.0660 C   0  0  0  0  0  0  0  0  0  0  0  0
    5.4818   -5.9847    2.9530 C   0  0  0  0  0  0  0  0  0  0  0  0
    5.2743   -4.8362    2.4828 O   0  0  0  0  0  0  0  0  0  0  0  0
    3.5248   -6.3570    0.6391 C   0  0  0  0  0  0  0  0  0  0  0  0
    3.8008   -6.0410   -0.7010 C   0  0  0  0  0  0  0  0  0  0  0  0
    4.6980   -6.8131   -1.5777 C   0  0  0  0  0  0  0  0  0  0  0  0
    5.9859   -6.3149   -1.8265 C   0  0  0  0  0  0  0  0  0  0  0  0
    6.8739   -7.0246   -2.6361 C   0  0  0  0  0  0  0  0  0  0  0  0
    6.4819   -8.2347   -3.2100 C   0  0  0  0  0  0  0  0  0  0  0  0
    5.1980   -8.7359   -2.9821 C   0  0  0  0  0  0  0  0  0  0  0  0
    4.2934   -8.0412   -2.1597 C   0  0  0  0  0  0  0  0  0  0  0  0
    2.8904   -8.5839   -1.9957 C   0  0  0  0  0  0  0  0  0  0  0  0
    1.9445   -7.9597   -3.0156 C   0  0  0  0  0  0  0  0  0  0  0  0
    3.1494   -4.8702   -1.0788 C   0  0  0  0  0  0  0  0  0  0  0  0
    3.1027   -3.9500   -2.5190 S   0  0  0  0  0  0  0  0  0  0  0  0
    2.0534   -2.8297   -1.7908 C   0  0  0  0  0  0  0  0  0  0  0  0
    1.2571   -1.7761   -2.1403 C   0  0  0  0  0  0  0  0  0  0  0  0
    1.0379   -1.1413   -3.3666 C   0  0  0  0  0  0  0  0  0  0  0  0
    0.0362   -0.1284   -3.4423 C   0  0  0  0  0  0  0  0  0  0  0  0
   -0.1409    0.4709   -4.6444 N   0  0  0  0  0  0  0  0  0  0  0  0
    0.9873   -0.3533   -5.5372 S   0  0  0  0  0  0  0  0  0  0  0  0
    1.7119   -1.4293   -4.5077 N   0  0  0  0  0  0  0  0  0  0  0  0
   -0.6810    0.1979   -2.2834 C   0  0  0  0  0  0  0  0  0  0  0  0
   -1.5131    1.2445   -2.0121 C   0  0  0  0  0  0  0  0  0  0  0  0
   -2.0091    2.6776   -2.7802 S   0  0  0  0  0  0  0  0  0  0  0  0
   -2.5297    3.3198   -1.2877 C   0  0  0  0  0  0  0  0  0  0  0  0
   -3.0985    4.5348   -0.9091 C   0  0  0  0  0  0  0  0  0  0  0  0
   -3.4171    5.6233   -1.8475 C   0  0  0  0  0  0  0  0  0  0  0  0
   -2.4513    6.5944   -2.2078 C   0  0  0  0  0  0  0  0  0  0  0  0
   -1.0372    6.5608   -1.6697 C   0  0  0  0  0  0  0  0  0  0  0  0
   -0.9135    7.4075   -0.4068 C   0  0  0  0  0  0  0  0  0  0  0  0
   -2.8317    7.6568   -3.0476 C   0  0  0  0  0  0  0  0  0  0  0  0
   -4.1364    7.7424   -3.5393 C   0  0  0  0  0  0  0  0  0  0  0  0
   -5.0795    6.7738   -3.1952 C   0  0  0  0  0  0  0  0  0  0  0  0
   -4.7226    5.7190   -2.3524 C   0  0  0  0  0  0  0  0  0  0  0  0
   -3.3047    4.5968    0.4808 C   0  0  0  0  0  0  0  0  0  0  0  0
   -2.7890    3.1304    1.1898 S   0  0  0  0  0  0  0  0  0  0  0  0
   -2.2791    2.4572   -0.2534 C   0  0  0  0  0  0  0  0  0  0  0  0
   -1.6961    1.2709   -0.6674 C   0  0  0  0  0  0  0  0  0  0  0  0
   -1.0099    0.2953   -0.0180 N   0  0  0  0  0  0  0  0  0  0  0  0
   -0.4334   -0.4161   -1.0433 C   0  0  0  0  0  0  0  0  0  0  0  0
    0.4998   -1.4832   -0.9935 C   0  0  0  0  0  0  0  0  0  0  0  0
    0.7357   -2.4021   -0.0013 N   0  0  0  0  0  0  0  0  0  0  0  0
    1.7362   -3.1581   -0.5147 C   0  0  0  0  0  0  0  0  0  0  0  0
    2.3519   -4.3262   -0.1064 C   0  0  0  0  0  0  0  0  0  0  0  0
    2.4267   -5.2287    1.3030 S   0  0  0  0  0  0  0  0  0  0  0  0
   -0.2299   -2.9022    0.9858 C   0  0  0  0  0  0  0  0  0  0  0  0
   -1.0760   -4.0287    0.3958 C   0  0  0  0  0  0  0  0  0  0  0  0
   -0.5028    0.4292    1.3569 C   0  0  0  0  0  0  0  0  0  0  0  0
   -1.5951    0.1438    2.3954 C   0  0  0  0  0  0  0  0  0  0  0  0
   -4.0763    5.6584    1.1611 C   0  0  0  0  0  0  0  0  0  0  0  0
   -3.9544    6.0067    2.4562 C   0  0  0  0  0  0  0  0  0  0  0  0
   -2.7797    5.7735    3.3119 C   0  0  0  0  0  0  0  0  0  0  0  0
   -1.7351    5.1435    3.0017 O   0  0  0  0  0  0  0  0  0  0  0  0
   -2.9361    6.5537    4.5201 C   0  0  0  0  0  0  0  0  0  0  0  0
   -2.0432    6.6669    5.5863 C   0  0  0  0  0  0  0  0  0  0  0  0
   -2.3574    7.5484    6.6292 C   0  0  0  0  0  0  0  0  0  0  0  0
   -3.5278    8.3217    6.5734 C   0  0  0  0  0  0  0  0  0  0  0  0
   -3.9583    9.6831    8.1256 I   0  0  0  0  0  0  0  0  0  0  0  0
   -4.4106    8.1989    5.4860 C   0  0  0  0  0  0  0  0  0  0  0  0
   -4.1121    7.2798    4.4636 C   0  0  0  0  0  0  0  0  0  0  0  0
   -4.8566    6.9276    3.2198 C   0  0  0  0  0  0  0  0  0  0  0  0
   -6.1690    7.1763    2.9604 C   0  0  0  0  0  0  0  0  0  0  0  0
   -7.0029    7.9593    3.8343 C   0  0  0  0  0  0  0  0  0  0  0  0
   -7.6924    8.5816    4.5263 N   0  0  0  0  0  0  0  0  0  0  0  0
   -6.8751    6.5580    1.8654 C   0  0  0  0  0  0  0  0  0  0  0  0
   -7.4519    6.0654    0.9903 N   0  0  0  0  0  0  0  0  0  0  0  0
    3.9353   -8.4745    1.0681 H   0  0  0  0  0  0  0  0  0  0  0  0
    7.2764   -9.3016    5.3622 H   0  0  0  0  0  0  0  0  0  0  0  0
    8.5955   -7.7867    6.8457 H   0  0  0  0  0  0  0  0  0  0  0  0
    8.4904   -5.3226    6.5279 H   0  0  0  0  0  0  0  0  0  0  0  0
    7.0578   -4.3483    4.7312 H   0  0  0  0  0  0  0  0  0  0  0  0
    6.3036   -5.3773   -1.3846 H   0  0  0  0  0  0  0  0  0  0  0  0
    7.8678   -6.6363   -2.8195 H   0  0  0  0  0  0  0  0  0  0  0  0
    7.1715   -8.7818   -3.8392 H   0  0  0  0  0  0  0  0  0  0  0  0
    4.9075   -9.6668   -3.4543 H   0  0  0  0  0  0  0  0  0  0  0  0
    2.5048   -8.3914   -0.9744 H   0  0  0  0  0  0  0  0  0  0  0  0
    2.8875   -9.6857   -2.1320 H   0  0  0  0  0  0  0  0  0  0  0  0
    2.3002   -8.1673   -4.0471 H   0  0  0  0  0  0  0  0  0  0  0  0
    0.9295   -8.3911   -2.8948 H   0  0  0  0  0  0  0  0  0  0  0  0
    1.8806   -6.8626   -2.8655 H   0  0  0  0  0  0  0  0  0  0  0  0
   -0.3323    6.9515   -2.4359 H   0  0  0  0  0  0  0  0  0  0  0  0
   -0.7156    5.5216   -1.4481 H   0  0  0  0  0  0  0  0  0  0  0  0
   -1.6198    7.0517    0.3722 H   0  0  0  0  0  0  0  0  0  0  0  0
   -1.1276    8.4726   -0.6372 H   0  0  0  0  0  0  0  0  0  0  0  0
    0.1200    7.3309   -0.0094 H   0  0  0  0  0  0  0  0  0  0  0  0
   -2.1156    8.4239   -3.3168 H   0  0  0  0  0  0  0  0  0  0  0  0
   -4.4169    8.5654   -4.1834 H   0  0  0  0  0  0  0  0  0  0  0  0
   -6.0902    6.8434   -3.5768 H   0  0  0  0  0  0  0  0  0  0  0  0
   -5.4678    4.9828   -2.0818 H   0  0  0  0  0  0  0  0  0  0  0  0
   -0.9284   -2.1177    1.2950 H   0  0  0  0  0  0  0  0  0  0  0  0
    0.3050   -3.2624    1.8884 H   0  0  0  0  0  0  0  0  0  0  0  0
   -1.7999   -4.3865    1.1596 H   0  0  0  0  0  0  0  0  0  0  0  0
   -0.4411   -4.8825    0.0838 H   0  0  0  0  0  0  0  0  0  0  0  0
   -1.6406   -3.6558   -0.4845 H   0  0  0  0  0  0  0  0  0  0  0  0
   -0.1089    1.4600    1.5068 H   0  0  0  0  0  0  0  0  0  0  0  0
    0.3648   -0.2431    1.5231 H   0  0  0  0  0  0  0  0  0  0  0  0
   -1.9168    1.0803    2.8927 H   0  0  0  0  0  0  0  0  0  0  0  0
   -2.4809   -0.3382    1.9297 H   0  0  0  0  0  0  0  0  0  0  0  0
   -1.1959   -0.5290    3.1841 H   0  0  0  0  0  0  0  0  0  0  0  0
   -4.7948    6.1731    0.5446 H   0  0  0  0  0  0  0  0  0  0  0  0
   -1.1270    6.0916    5.6093 H   0  0  0  0  0  0  0  0  0  0  0  0
   -1.6824    7.6480    7.4693 H   0  0  0  0  0  0  0  0  0  0  0  0
   -5.2739    8.8393    5.4493 H   0  0  0  0  0  0  0  0  0  0  0  0
  1  2  2  3
  2  3  1  0
  3  4  2  0
  3  5  1  0
  5  6  2  0
  6  7  1  0
  7  8  2  0
  8  9  1  0
  9 10  2  0
 10 11  1  0
 11 12  2  0
  1 13  1  0
 13 14  2  0
 14 15  1  0
 15 16  2  0
 16 17  1  0
 17 18  2  0
 18 19  1  0
 19 20  2  0
 20 21  1  0
 21 22  1  0
 14 23  1  0
 23 24  1  0
 24 25  1  0
 25 26  1  0
 26 27  1  0
 27 28  1  0
 28 29  2  0
 29 30  1  0
 30 31  1  0
 28 32  1  0
 32 33  1  0
 33 34  1  0
 34 35  1  0
 35 36  1  0
 36 37  1  0
 37 38  2  0
 38 39  1  0
 39 40  1  0
 38 41  1  0
 41 42  2  0
 42 43  1  0
 43 44  2  0
 36 45  2  0
 45 46  1  0
 46 47  1  0
 47 48  1  0
 48 49  1  0
 49 50  1  0
 50 51  1  0
 51 52  1  0
 52 53  1  0
 53 54  1  0
 54 55  1  0
 52 56  1  0
 56 57  1  0
 49 58  1  0
 58 59  1  0
 45 60  1  0
 60 61  2  3
 61 62  1  0
 62 63  2  0
 62 64  1  0
 64 65  2  0
 65 66  1  0
 66 67  2  0
 67 68  1  0
 67 69  1  0
 69 70  2  0
 70 71  1  0
 71 72  2  3
 72 73  1  0
 73 74  3  0
 72 75  1  0
 75 76  3  0
 11  2  1  0
 55 13  1  0
 71 61  1  0
 10  5  1  0
 20 15  1  0
 54 23  2  0
 70 64  1  0
 53 25  2  0
 51 26  2  0
 31 27  2  0
 50 32  2  0
 48 33  2  0
 47 35  2  0
 44 37  1  0
  1 77  1  0
  6 78  1  0
  7 79  1  0
  8 80  1  0
  9 81  1  0
 16 82  1  0
 17 83  1  0
 18 84  1  0
 19 85  1  0
 21 86  1  0
 21 87  1  0
 22 88  1  0
 22 89  1  0
 22 90  1  0
 39 91  1  0
 39 92  1  0
 40 93  1  0
 40 94  1  0
 40 95  1  0
 41 96  1  0
 42 97  1  0
 43 98  1  0
 44 99  1  0
 56100  1  0
 56101  1  0
 57102  1  0
 57103  1  0
 57104  1  0
 58105  1  0
 58106  1  0
 59107  1  0
 59108  1  0
 59109  1  0
 60110  1  0
 65111  1  0
 66112  1  0
 69113  1  0
M  END

