
     RDKit          3D

100114  0  0  0  0  0  0  0  0999 V2000
   -0.9944   -4.3734    6.6041 C   0  0  0  0  0  0  0  0  0  0  0  0
   -0.1691   -5.4177    6.7363 C   0  0  0  0  0  0  0  0  0  0  0  0
   -0.5756   -6.7810    7.0895 C   0  0  0  0  0  0  0  0  0  0  0  0
   -1.7582   -7.1858    7.2616 O   0  0  0  0  0  0  0  0  0  0  0  0
    0.6276   -7.5957    7.2179 C   0  0  0  0  0  0  0  0  0  0  0  0
    0.7526   -8.9456    7.5429 C   0  0  0  0  0  0  0  0  0  0  0  0
    2.0460   -9.4877    7.6415 C   0  0  0  0  0  0  0  0  0  0  0  0
    3.1802   -8.6823    7.4054 C   0  0  0  0  0  0  0  0  0  0  0  0
    3.0316   -7.3230    7.0751 C   0  0  0  0  0  0  0  0  0  0  0  0
    1.7379   -6.8085    6.9782 C   0  0  0  0  0  0  0  0  0  0  0  0
    1.3027   -5.4453    6.6818 C   0  0  0  0  0  0  0  0  0  0  0  0
    2.0647   -4.4628    6.4932 O   0  0  0  0  0  0  0  0  0  0  0  0
   -0.5433   -3.0309    6.2141 C   0  0  0  0  0  0  0  0  0  0  0  0
   -0.9169   -1.8355    6.8533 C   0  0  0  0  0  0  0  0  0  0  0  0
   -1.7926   -1.7525    8.0728 C   0  0  0  0  0  0  0  0  0  0  0  0
   -3.2551   -1.5559    7.6765 C   0  0  0  0  0  0  0  0  0  0  0  0
   -0.4990   -0.7267    6.1149 C   0  0  0  0  0  0  0  0  0  0  0  0
    0.1604   -1.0220    4.9485 C   0  0  0  0  0  0  0  0  0  0  0  0
    0.2531   -2.6810    4.7481 S   0  0  0  0  0  0  0  0  0  0  0  0
    0.4083    0.1087    4.1830 C   0  0  0  0  0  0  0  0  0  0  0  0
    0.0077    1.2396    4.8071 C   0  0  0  0  0  0  0  0  0  0  0  0
   -0.7377    0.9547    6.3027 S   0  0  0  0  0  0  0  0  0  0  0  0
    0.3334    2.2833    3.9934 C   0  0  0  0  0  0  0  0  0  0  0  0
    0.2627    3.6611    4.1881 C   0  0  0  0  0  0  0  0  0  0  0  0
   -0.2269    4.2490    5.3069 N   0  0  0  0  0  0  0  0  0  0  0  0
   -0.0804    5.8415    4.8717 S   0  0  0  0  0  0  0  0  0  0  0  0
    0.5739    5.8545    3.3502 N   0  0  0  0  0  0  0  0  0  0  0  0
    0.7132    4.5203    3.1448 C   0  0  0  0  0  0  0  0  0  0  0  0
    1.1892    3.9497    1.9551 C   0  0  0  0  0  0  0  0  0  0  0  0
    1.3302    4.5222    0.7208 C   0  0  0  0  0  0  0  0  0  0  0  0
    0.8668    6.0121    0.0476 S   0  0  0  0  0  0  0  0  0  0  0  0
    0.7161    5.3191   -1.4965 C   0  0  0  0  0  0  0  0  0  0  0  0
    0.1179    5.7862   -2.6658 C   0  0  0  0  0  0  0  0  0  0  0  0
   -0.0959    4.7479   -3.5828 C   0  0  0  0  0  0  0  0  0  0  0  0
    0.3926    3.2717   -2.8735 S   0  0  0  0  0  0  0  0  0  0  0  0
    0.9539    3.9681   -1.4574 C   0  0  0  0  0  0  0  0  0  0  0  0
    1.3145    3.5099   -0.1897 C   0  0  0  0  0  0  0  0  0  0  0  0
    1.2255    2.2849    0.3935 N   0  0  0  0  0  0  0  0  0  0  0  0
    0.7112    1.0971   -0.2945 C   0  0  0  0  0  0  0  0  0  0  0  0
   -0.8049    0.9937   -0.1494 C   0  0  0  0  0  0  0  0  0  0  0  0
    1.2043    2.5560    1.7430 C   0  0  0  0  0  0  0  0  0  0  0  0
    0.8697    1.7036    2.8328 C   0  0  0  0  0  0  0  0  0  0  0  0
    0.9865    0.3413    2.9762 N   0  0  0  0  0  0  0  0  0  0  0  0
    2.0278   -0.5168    2.3938 C   0  0  0  0  0  0  0  0  0  0  0  0
    1.4336   -1.7525    1.7061 C   0  0  0  0  0  0  0  0  0  0  0  0
   -1.0100    4.8739   -4.7348 C   0  0  0  0  0  0  0  0  0  0  0  0
   -1.0161    4.0685   -5.8159 C   0  0  0  0  0  0  0  0  0  0  0  0
   -0.0502    3.0019   -6.1122 C   0  0  0  0  0  0  0  0  0  0  0  0
    1.1495    2.9502   -5.7249 O   0  0  0  0  0  0  0  0  0  0  0  0
   -0.6686    2.0591   -7.0181 C   0  0  0  0  0  0  0  0  0  0  0  0
   -0.1279    0.8338   -7.4702 C   0  0  0  0  0  0  0  0  0  0  0  0
   -0.9776    0.1186   -8.2894 C   0  0  0  0  0  0  0  0  0  0  0  0
   -2.2892    0.5734   -8.6464 C   0  0  0  0  0  0  0  0  0  0  0  0
   -2.8233    1.7763   -8.2146 C   0  0  0  0  0  0  0  0  0  0  0  0
   -1.9588    2.5370   -7.3759 C   0  0  0  0  0  0  0  0  0  0  0  0
   -2.1689    3.8757   -6.7508 C   0  0  0  0  0  0  0  0  0  0  0  0
   -3.1027    4.7997   -7.0942 C   0  0  0  0  0  0  0  0  0  0  0  0
   -2.9454    6.1915   -6.7540 C   0  0  0  0  0  0  0  0  0  0  0  0
   -2.7816    7.3115   -6.5109 N   0  0  0  0  0  0  0  0  0  0  0  0
   -4.2304    4.4928   -7.9295 C   0  0  0  0  0  0  0  0  0  0  0  0
   -5.1458    4.2588   -8.5922 N   0  0  0  0  0  0  0  0  0  0  0  0
   -2.5102   -0.6602   -9.4655 C   0  0  0  0  0  0  0  0  0  0  0  0
   -2.4341   -0.4859  -11.0100 C   0  0  0  0  0  0  0  0  0  0  0  0
   -2.2926   -1.8772  -11.5754 C   0  0  0  0  0  0  0  0  0  0  0  0
   -1.0660   -2.3001  -11.2424 C   0  0  0  0  0  0  0  0  0  0  0  0
   -0.4218   -1.1762  -10.4689 C   0  0  0  0  0  0  0  0  0  0  0  0
   -1.0114   -0.0028  -11.2330 C   0  0  0  0  0  0  0  0  0  0  0  0
   -1.1667   -1.1222   -9.1038 C   0  0  0  0  0  0  0  0  0  0  0  0
   -2.0479   -4.5099    6.8153 H   0  0  0  0  0  0  0  0  0  0  0  0
   -0.1181   -9.5574    7.7272 H   0  0  0  0  0  0  0  0  0  0  0  0
    2.1735  -10.5320    7.8955 H   0  0  0  0  0  0  0  0  0  0  0  0
    4.1753   -9.1048    7.4874 H   0  0  0  0  0  0  0  0  0  0  0  0
    3.8953   -6.6905    6.8967 H   0  0  0  0  0  0  0  0  0  0  0  0
   -1.6982   -2.6800    8.6775 H   0  0  0  0  0  0  0  0  0  0  0  0
   -1.4678   -0.9011    8.7099 H   0  0  0  0  0  0  0  0  0  0  0  0
   -3.5687   -2.3254    6.9426 H   0  0  0  0  0  0  0  0  0  0  0  0
   -3.9033   -1.6356    8.5751 H   0  0  0  0  0  0  0  0  0  0  0  0
   -3.3959   -0.5529    7.2275 H   0  0  0  0  0  0  0  0  0  0  0  0
   -0.2523    6.7945   -2.7913 H   0  0  0  0  0  0  0  0  0  0  0  0
    1.1918    0.1906    0.0684 H   0  0  0  0  0  0  0  0  0  0  0  0
    0.9827    1.1252   -1.3662 H   0  0  0  0  0  0  0  0  0  0  0  0
   -1.1696    0.1223   -0.7270 H   0  0  0  0  0  0  0  0  0  0  0  0
   -1.2882    1.9197   -0.5313 H   0  0  0  0  0  0  0  0  0  0  0  0
   -1.0877    0.8433    0.9122 H   0  0  0  0  0  0  0  0  0  0  0  0
    2.6567    0.0610    1.6841 H   0  0  0  0  0  0  0  0  0  0  0  0
    2.7242   -0.8496    3.1937 H   0  0  0  0  0  0  0  0  0  0  0  0
    1.9718   -1.9463    0.7533 H   0  0  0  0  0  0  0  0  0  0  0  0
    0.3533   -1.6134    1.4777 H   0  0  0  0  0  0  0  0  0  0  0  0
    1.5633   -2.6542    2.3386 H   0  0  0  0  0  0  0  0  0  0  0  0
   -1.8122    5.5823   -4.5911 H   0  0  0  0  0  0  0  0  0  0  0  0
    0.8546    0.4780   -7.1866 H   0  0  0  0  0  0  0  0  0  0  0  0
   -3.8242    2.0563   -8.4942 H   0  0  0  0  0  0  0  0  0  0  0  0
   -3.3341   -1.3049   -9.0897 H   0  0  0  0  0  0  0  0  0  0  0  0
   -3.2358    0.1356  -11.4624 H   0  0  0  0  0  0  0  0  0  0  0  0
   -2.9985   -2.4040  -12.2089 H   0  0  0  0  0  0  0  0  0  0  0  0
   -0.6095   -3.2349  -11.5519 H   0  0  0  0  0  0  0  0  0  0  0  0
    0.6860   -1.2102  -10.4158 H   0  0  0  0  0  0  0  0  0  0  0  0
   -0.7899    0.9899  -10.7808 H   0  0  0  0  0  0  0  0  0  0  0  0
   -0.7177    0.0175  -12.3110 H   0  0  0  0  0  0  0  0  0  0  0  0
   -1.1419   -2.0552   -8.4989 H   0  0  0  0  0  0  0  0  0  0  0  0
  1  2  2  3
  2  3  1  0
  3  4  2  0
  3  5  1  0
  5  6  2  0
  6  7  1  0
  7  8  2  0
  8  9  1  0
  9 10  2  0
 10 11  1  0
 11 12  2  0
  1 13  1  0
 13 14  2  0
 14 15  1  0
 15 16  1  0
 14 17  1  0
 17 18  2  0
 18 19  1  0
 18 20  1  0
 20 21  2  0
 21 22  1  0
 21 23  1  0
 23 24  1  0
 24 25  2  0
 25 26  1  0
 26 27  1  0
 27 28  2  0
 28 29  1  0
 29 30  1  0
 30 31  1  0
 31 32  1  0
 32 33  1  0
 33 34  2  0
 34 35  1  0
 35 36  1  0
 36 37  1  0
 37 38  1  0
 38 39  1  0
 39 40  1  0
 38 41  1  0
 41 42  1  0
 42 43  1  0
 43 44  1  0
 44 45  1  0
 34 46  1  0
 46 47  2  3
 47 48  1  0
 48 49  2  0
 48 50  1  0
 50 51  2  0
 51 52  1  0
 52 53  2  0
 53 54  1  0
 54 55  2  0
 55 56  1  0
 56 57  2  3
 57 58  1  0
 58 59  3  0
 57 60  1  0
 60 61  3  0
 53 62  1  0
 62 63  1  0
 63 64  1  0
 64 65  2  0
 65 66  1  0
 66 67  1  0
 66 68  1  0
 11  2  1  0
 19 13  1  0
 43 20  1  0
 56 47  1  0
 68 62  1  0
 10  5  1  0
 22 17  1  0
 42 23  2  0
 55 50  1  0
 67 63  1  0
 28 24  1  0
 41 29  2  0
 68 52  1  0
 37 30  2  0
 36 32  2  0
  1 69  1  0
  6 70  1  0
  7 71  1  0
  8 72  1  0
  9 73  1  0
 15 74  1  0
 15 75  1  0
 16 76  1  0
 16 77  1  0
 16 78  1  0
 33 79  1  0
 39 80  1  0
 39 81  1  0
 40 82  1  0
 40 83  1  0
 40 84  1  0
 44 85  1  0
 44 86  1  0
 45 87  1  0
 45 88  1  0
 45 89  1  0
 46 90  1  0
 51 91  1  0
 54 92  1  0
 62 93  1  0
 63 94  1  0
 64 95  1  0
 65 96  1  0
 66 97  1  0
 67 98  1  0
 67 99  1  0
 68100  1  0
M  END

