
     RDKit          3D

 94104  0  0  0  0  0  0  0  0999 V2000
    8.2441   -2.0595   -1.0464 C   0  0  0  0  0  0  0  0  0  0  0  0
    8.8759   -1.7044    0.0817 C   0  0  0  0  0  0  0  0  0  0  0  0
    8.3119   -1.2101    1.3500 C   0  0  0  0  0  0  0  0  0  0  0  0
    7.0967   -0.9882    1.5967 O   0  0  0  0  0  0  0  0  0  0  0  0
    9.4200   -0.8937    2.2449 C   0  0  0  0  0  0  0  0  0  0  0  0
    9.3919   -0.3809    3.5418 C   0  0  0  0  0  0  0  0  0  0  0  0
   10.6161   -0.1252    4.1815 C   0  0  0  0  0  0  0  0  0  0  0  0
   11.8359   -0.3833    3.5195 C   0  0  0  0  0  0  0  0  0  0  0  0
   11.8399   -0.8930    2.2101 C   0  0  0  0  0  0  0  0  0  0  0  0
   10.6141   -1.1406    1.5939 C   0  0  0  0  0  0  0  0  0  0  0  0
   10.3308   -1.6313    0.2496 C   0  0  0  0  0  0  0  0  0  0  0  0
   11.1937   -1.9407   -0.6166 O   0  0  0  0  0  0  0  0  0  0  0  0
    6.7851   -2.1651   -1.1831 C   0  0  0  0  0  0  0  0  0  0  0  0
    5.9301   -1.5554   -2.5348 S   0  0  0  0  0  0  0  0  0  0  0  0
    4.4859   -2.1772   -1.9737 C   0  0  0  0  0  0  0  0  0  0  0  0
    3.1529   -2.0833   -2.2004 C   0  0  0  0  0  0  0  0  0  0  0  0
    2.1333   -1.2061   -3.1875 S   0  0  0  0  0  0  0  0  0  0  0  0
    0.7661   -1.6508   -2.2687 C   0  0  0  0  0  0  0  0  0  0  0  0
   -0.5561   -1.2323   -2.5002 C   0  0  0  0  0  0  0  0  0  0  0  0
   -0.9308   -0.5895   -3.6864 O   0  0  0  0  0  0  0  0  0  0  0  0
   -0.7515   -1.1664   -4.9841 C   0  0  0  0  0  0  0  0  0  0  0  0
   -1.6234   -2.4110   -5.1470 C   0  0  0  0  0  0  0  0  0  0  0  0
   -1.5121   -1.5556   -1.5212 C   0  0  0  0  0  0  0  0  0  0  0  0
   -1.1906   -2.4794   -0.5007 C   0  0  0  0  0  0  0  0  0  0  0  0
    0.1094   -2.9780   -0.3221 C   0  0  0  0  0  0  0  0  0  0  0  0
    0.3686   -3.9577    0.6335 O   0  0  0  0  0  0  0  0  0  0  0  0
   -0.1518   -5.2831    0.5362 C   0  0  0  0  0  0  0  0  0  0  0  0
    0.4851   -6.0296   -0.6320 C   0  0  0  0  0  0  0  0  0  0  0  0
    1.1206   -2.4729   -1.1664 C   0  0  0  0  0  0  0  0  0  0  0  0
    2.5187   -2.6835   -1.1497 C   0  0  0  0  0  0  0  0  0  0  0  0
    3.4295   -3.1549   -0.2348 N   0  0  0  0  0  0  0  0  0  0  0  0
    4.6243   -2.8123   -0.7907 C   0  0  0  0  0  0  0  0  0  0  0  0
    5.9255   -2.8411   -0.3002 C   0  0  0  0  0  0  0  0  0  0  0  0
    3.2509   -3.6411    1.1362 C   0  0  0  0  0  0  0  0  0  0  0  0
    2.8315   -2.5063    2.0635 C   0  0  0  0  0  0  0  0  0  0  0  0
   -2.5548   -2.8284    0.4649 S   0  0  0  0  0  0  0  0  0  0  0  0
   -3.5416   -1.8359   -0.4500 C   0  0  0  0  0  0  0  0  0  0  0  0
   -4.7366   -1.2075   -0.2988 C   0  0  0  0  0  0  0  0  0  0  0  0
   -5.9627   -1.0827    0.8318 S   0  0  0  0  0  0  0  0  0  0  0  0
   -6.5413    0.3710    0.1399 C   0  0  0  0  0  0  0  0  0  0  0  0
   -5.7500    0.7589   -0.9549 C   0  0  0  0  0  0  0  0  0  0  0  0
   -4.7315   -0.1658   -1.1622 C   0  0  0  0  0  0  0  0  0  0  0  0
   -3.5724   -0.0848   -1.8700 N   0  0  0  0  0  0  0  0  0  0  0  0
   -3.1184    1.0977   -2.6044 C   0  0  0  0  0  0  0  0  0  0  0  0
   -3.6324    1.0593   -4.0369 C   0  0  0  0  0  0  0  0  0  0  0  0
   -2.8624   -1.1690   -1.4293 C   0  0  0  0  0  0  0  0  0  0  0  0
   -7.7254    1.0870    0.6348 C   0  0  0  0  0  0  0  0  0  0  0  0
   -7.7224    2.3814    1.0167 C   0  0  0  0  0  0  0  0  0  0  0  0
   -6.5728    3.2977    0.9736 C   0  0  0  0  0  0  0  0  0  0  0  0
   -5.3603    2.9787    0.8705 O   0  0  0  0  0  0  0  0  0  0  0  0
   -7.0572    4.6467    1.1416 C   0  0  0  0  0  0  0  0  0  0  0  0
   -6.3340    5.8349    1.0602 C   0  0  0  0  0  0  0  0  0  0  0  0
   -7.0318    7.0462    1.1827 C   0  0  0  0  0  0  0  0  0  0  0  0
   -6.1656    8.5646    1.1029 Cl  0  0  0  0  0  0  0  0  0  0  0  0
   -8.4271    7.0461    1.3601 C   0  0  0  0  0  0  0  0  0  0  0  0
   -9.1344    5.8355    1.4404 C   0  0  0  0  0  0  0  0  0  0  0  0
   -8.4261    4.6239    1.3535 C   0  0  0  0  0  0  0  0  0  0  0  0
   -8.9050    3.2119    1.4182 C   0  0  0  0  0  0  0  0  0  0  0  0
  -10.0735    2.7783    1.9625 C   0  0  0  0  0  0  0  0  0  0  0  0
  -10.3353    1.3910    2.2378 C   0  0  0  0  0  0  0  0  0  0  0  0
  -10.5568    0.2798    2.4731 N   0  0  0  0  0  0  0  0  0  0  0  0
  -11.0839    3.6797    2.4515 C   0  0  0  0  0  0  0  0  0  0  0  0
  -11.9080    4.3849    2.8554 N   0  0  0  0  0  0  0  0  0  0  0  0
    8.8358   -2.2669   -1.9313 H   0  0  0  0  0  0  0  0  0  0  0  0
    8.4544   -0.1729    4.0439 H   0  0  0  0  0  0  0  0  0  0  0  0
   10.6228    0.2841    5.1841 H   0  0  0  0  0  0  0  0  0  0  0  0
   12.7737   -0.1822    4.0187 H   0  0  0  0  0  0  0  0  0  0  0  0
   12.7686   -1.0789    1.6892 H   0  0  0  0  0  0  0  0  0  0  0  0
   -1.0477   -0.4180   -5.7504 H   0  0  0  0  0  0  0  0  0  0  0  0
    0.3076   -1.4334   -5.1676 H   0  0  0  0  0  0  0  0  0  0  0  0
   -1.4133   -2.8954   -6.1228 H   0  0  0  0  0  0  0  0  0  0  0  0
   -1.4088   -3.1416   -4.3384 H   0  0  0  0  0  0  0  0  0  0  0  0
   -2.7013   -2.1324   -5.1094 H   0  0  0  0  0  0  0  0  0  0  0  0
    0.0826   -5.8214    1.4790 H   0  0  0  0  0  0  0  0  0  0  0  0
   -1.2543   -5.2694    0.4144 H   0  0  0  0  0  0  0  0  0  0  0  0
    1.5868   -6.0670   -0.4999 H   0  0  0  0  0  0  0  0  0  0  0  0
    0.0899   -7.0644   -0.6682 H   0  0  0  0  0  0  0  0  0  0  0  0
    0.2511   -5.5186   -1.5886 H   0  0  0  0  0  0  0  0  0  0  0  0
    6.2362   -3.3135    0.6213 H   0  0  0  0  0  0  0  0  0  0  0  0
    2.5383   -4.4819    1.1646 H   0  0  0  0  0  0  0  0  0  0  0  0
    4.2028   -4.0696    1.5129 H   0  0  0  0  0  0  0  0  0  0  0  0
    1.9017   -2.0186    1.7004 H   0  0  0  0  0  0  0  0  0  0  0  0
    3.6384   -1.7481    2.1119 H   0  0  0  0  0  0  0  0  0  0  0  0
    2.6531   -2.9068    3.0813 H   0  0  0  0  0  0  0  0  0  0  0  0
   -5.8852    1.6725   -1.5188 H   0  0  0  0  0  0  0  0  0  0  0  0
   -2.0144    1.1898   -2.5703 H   0  0  0  0  0  0  0  0  0  0  0  0
   -3.5048    2.0146   -2.1111 H   0  0  0  0  0  0  0  0  0  0  0  0
   -3.3638    0.0977   -4.5193 H   0  0  0  0  0  0  0  0  0  0  0  0
   -4.7365    1.1660   -4.0438 H   0  0  0  0  0  0  0  0  0  0  0  0
   -3.1836    1.8891   -4.6208 H   0  0  0  0  0  0  0  0  0  0  0  0
   -8.6322    0.5060    0.6638 H   0  0  0  0  0  0  0  0  0  0  0  0
   -5.2616    5.8184    0.9081 H   0  0  0  0  0  0  0  0  0  0  0  0
   -8.9595    7.9856    1.4354 H   0  0  0  0  0  0  0  0  0  0  0  0
  -10.2072    5.8707    1.5349 H   0  0  0  0  0  0  0  0  0  0  0  0
  1  2  2  3
  2  3  1  0
  3  4  2  0
  3  5  1  0
  5  6  2  0
  6  7  1  0
  7  8  2  0
  8  9  1  0
  9 10  2  0
 10 11  1  0
 11 12  2  0
  1 13  1  0
 13 14  1  0
 14 15  1  0
 15 16  1  0
 16 17  1  0
 17 18  1  0
 18 19  2  0
 19 20  1  0
 20 21  1  0
 21 22  1  0
 19 23  1  0
 23 24  2  0
 24 25  1  0
 25 26  1  0
 26 27  1  0
 27 28  1  0
 25 29  2  0
 29 30  1  0
 30 31  1  0
 31 32  1  0
 32 33  1  0
 31 34  1  0
 34 35  1  0
 24 36  1  0
 36 37  1  0
 37 38  1  0
 38 39  1  0
 39 40  1  0
 40 41  2  0
 41 42  1  0
 42 43  1  0
 43 44  1  0
 44 45  1  0
 43 46  1  0
 40 47  1  0
 47 48  2  3
 48 49  1  0
 49 50  2  0
 49 51  1  0
 51 52  2  0
 52 53  1  0
 53 54  1  0
 53 55  2  0
 55 56  1  0
 56 57  2  0
 57 58  1  0
 58 59  2  3
 59 60  1  0
 60 61  3  0
 59 62  1  0
 62 63  3  0
 11  2  1  0
 33 13  2  0
 46 37  2  0
 58 48  1  0
 10  5  1  0
 32 15  2  0
 42 38  2  0
 57 51  1  0
 30 16  2  0
 29 18  1  0
 46 23  1  0
  1 64  1  0
  6 65  1  0
  7 66  1  0
  8 67  1  0
  9 68  1  0
 21 69  1  0
 21 70  1  0
 22 71  1  0
 22 72  1  0
 22 73  1  0
 27 74  1  0
 27 75  1  0
 28 76  1  0
 28 77  1  0
 28 78  1  0
 33 79  1  0
 34 80  1  0
 34 81  1  0
 35 82  1  0
 35 83  1  0
 35 84  1  0
 41 85  1  0
 44 86  1  0
 44 87  1  0
 45 88  1  0
 45 89  1  0
 45 90  1  0
 47 91  1  0
 52 92  1  0
 55 93  1  0
 56 94  1  0
M  END

