
     RDKit          3D

151165  0  0  0  0  0  0  0  0999 V2000
    4.0990   -3.7612   -4.5543 C   0  0  0  0  0  0  0  0  0  0  0  0
    2.8549   -4.2903   -4.5898 C   0  0  0  0  0  0  0  0  0  0  0  0
    1.7364   -3.8927   -3.7233 C   0  0  0  0  0  0  0  0  0  0  0  0
    1.6841   -2.8818   -2.9748 O   0  0  0  0  0  0  0  0  0  0  0  0
    0.6971   -4.8922   -3.8257 C   0  0  0  0  0  0  0  0  0  0  0  0
   -0.4953   -4.9599   -3.1077 C   0  0  0  0  0  0  0  0  0  0  0  0
   -1.3413   -6.0657   -3.3083 C   0  0  0  0  0  0  0  0  0  0  0  0
   -2.6395   -6.1778   -2.5608 C   0  0  0  0  0  0  0  0  0  0  0  0
   -0.9791   -7.0605   -4.2382 C   0  0  0  0  0  0  0  0  0  0  0  0
    0.2299   -6.9729   -4.9465 C   0  0  0  0  0  0  0  0  0  0  0  0
    1.0701   -5.8636   -4.7393 C   0  0  0  0  0  0  0  0  0  0  0  0
    2.3939   -5.5081   -5.3344 C   0  0  0  0  0  0  0  0  0  0  0  0
    2.9699   -6.0661   -6.4344 C   0  0  0  0  0  0  0  0  0  0  0  0
    2.4310   -7.2201   -7.1003 C   0  0  0  0  0  0  0  0  0  0  0  0
    2.0119   -8.1516   -7.6527 N   0  0  0  0  0  0  0  0  0  0  0  0
    4.1197   -5.4935   -7.0851 C   0  0  0  0  0  0  0  0  0  0  0  0
    5.0408   -5.0404   -7.6240 N   0  0  0  0  0  0  0  0  0  0  0  0
    4.4455   -2.6192   -3.6995 C   0  0  0  0  0  0  0  0  0  0  0  0
    4.7020   -2.7514   -2.0353 S   0  0  0  0  0  0  0  0  0  0  0  0
    4.5886   -1.1035   -1.7488 C   0  0  0  0  0  0  0  0  0  0  0  0
    3.9510   -0.4246   -0.6514 C   0  0  0  0  0  0  0  0  0  0  0  0
    3.2305    0.6604   -1.1432 C   0  0  0  0  0  0  0  0  0  0  0  0
    3.5563    0.8631   -2.6312 C   0  0  0  0  0  0  0  0  0  0  0  0
    4.2754   -0.4486   -2.9080 C   0  0  0  0  0  0  0  0  0  0  0  0
    4.2038   -1.2851   -4.0301 C   0  0  0  0  0  0  0  0  0  0  0  0
    2.3250    0.9439   -3.5481 C   0  0  0  0  0  0  0  0  0  0  0  0
    2.3979    1.5969   -4.7949 C   0  0  0  0  0  0  0  0  0  0  0  0
    1.2725    1.7003   -5.6156 C   0  0  0  0  0  0  0  0  0  0  0  0
    0.0597    1.0998   -5.2363 C   0  0  0  0  0  0  0  0  0  0  0  0
   -1.1214    1.2197   -5.9871 O   0  0  0  0  0  0  0  0  0  0  0  0
   -1.2437    1.9228   -7.2244 C   0  0  0  0  0  0  0  0  0  0  0  0
   -0.7120    1.0751   -8.3700 C   0  0  0  0  0  0  0  0  0  0  0  0
    0.0155    0.3535   -4.0569 C   0  0  0  0  0  0  0  0  0  0  0  0
    1.1363    0.2547   -3.2320 C   0  0  0  0  0  0  0  0  0  0  0  0
    4.5147    2.0741   -2.7364 C   0  0  0  0  0  0  0  0  0  0  0  0
    5.9166    1.9249   -2.5981 C   0  0  0  0  0  0  0  0  0  0  0  0
    6.7559    3.0409   -2.5680 C   0  0  0  0  0  0  0  0  0  0  0  0
    6.2261    4.3414   -2.6447 C   0  0  0  0  0  0  0  0  0  0  0  0
    7.0211    5.4970   -2.5893 O   0  0  0  0  0  0  0  0  0  0  0  0
    8.3836    5.5524   -2.1709 C   0  0  0  0  0  0  0  0  0  0  0  0
    8.5037    5.2736   -0.6740 C   0  0  0  0  0  0  0  0  0  0  0  0
    4.8501    4.5023   -2.7879 C   0  0  0  0  0  0  0  0  0  0  0  0
    4.0050    3.3928   -2.8159 C   0  0  0  0  0  0  0  0  0  0  0  0
    2.2482    1.2729   -0.3186 C   0  0  0  0  0  0  0  0  0  0  0  0
    1.3366    2.2252   -0.8051 C   0  0  0  0  0  0  0  0  0  0  0  0
    0.2064    2.5838   -0.0573 C   0  0  0  0  0  0  0  0  0  0  0  0
   -0.8089    3.3649   -0.6532 C   0  0  0  0  0  0  0  0  0  0  0  0
   -2.0221    3.5809    0.0135 C   0  0  0  0  0  0  0  0  0  0  0  0
   -2.1828    3.0444    1.2873 C   0  0  0  0  0  0  0  0  0  0  0  0
   -3.3895    2.8841    2.0488 C   0  0  0  0  0  0  0  0  0  0  0  0
   -3.1717    2.0377    3.0808 C   0  0  0  0  0  0  0  0  0  0  0  0
   -1.7124    1.6661    3.2172 C   0  0  0  0  0  0  0  0  0  0  0  0
   -1.5294    0.1381    3.1605 C   0  0  0  0  0  0  0  0  0  0  0  0
   -0.8820   -0.5887    4.1827 C   0  0  0  0  0  0  0  0  0  0  0  0
   -0.5111   -1.9230    3.9805 C   0  0  0  0  0  0  0  0  0  0  0  0
   -0.7567   -2.5613    2.7569 C   0  0  0  0  0  0  0  0  0  0  0  0
   -0.2280   -3.8484    2.5631 O   0  0  0  0  0  0  0  0  0  0  0  0
   -0.1956   -4.5603    1.3262 C   0  0  0  0  0  0  0  0  0  0  0  0
   -1.4828   -5.3479    1.1214 C   0  0  0  0  0  0  0  0  0  0  0  0
   -1.4826   -1.8803    1.7671 C   0  0  0  0  0  0  0  0  0  0  0  0
   -1.8820   -0.5555    1.9777 C   0  0  0  0  0  0  0  0  0  0  0  0
   -1.1310    2.3589    4.4708 C   0  0  0  0  0  0  0  0  0  0  0  0
   -1.7615    2.2100    5.7250 C   0  0  0  0  0  0  0  0  0  0  0  0
   -1.2942    2.8886    6.8540 C   0  0  0  0  0  0  0  0  0  0  0  0
   -0.1956    3.7481    6.7645 C   0  0  0  0  0  0  0  0  0  0  0  0
    0.2138    4.4444    7.9198 O   0  0  0  0  0  0  0  0  0  0  0  0
    1.2200    5.4608    7.9512 C   0  0  0  0  0  0  0  0  0  0  0  0
    0.7091    6.7610    7.3316 C   0  0  0  0  0  0  0  0  0  0  0  0
    0.4567    3.8883    5.5288 C   0  0  0  0  0  0  0  0  0  0  0  0
    0.0066    3.1988    4.4050 C   0  0  0  0  0  0  0  0  0  0  0  0
   -1.1835    2.3129    1.9210 C   0  0  0  0  0  0  0  0  0  0  0  0
    0.0343    2.0631    1.2502 C   0  0  0  0  0  0  0  0  0  0  0  0
    1.0383    1.2531    1.8042 C   0  0  0  0  0  0  0  0  0  0  0  0
    2.0988    0.8001    1.0168 C   0  0  0  0  0  0  0  0  0  0  0  0
    2.9362   -0.2198    1.5117 C   0  0  0  0  0  0  0  0  0  0  0  0
    3.8367   -0.8660    0.6615 C   0  0  0  0  0  0  0  0  0  0  0  0
   -4.3424    1.5096    3.6375 C   0  0  0  0  0  0  0  0  0  0  0  0
   -5.4802    1.9906    2.9762 C   0  0  0  0  0  0  0  0  0  0  0  0
   -5.0254    3.0263    1.7055 S   0  0  0  0  0  0  0  0  0  0  0  0
   -6.8759    1.6990    3.3445 C   0  0  0  0  0  0  0  0  0  0  0  0
   -7.3712    0.4518    3.4747 C   0  0  0  0  0  0  0  0  0  0  0  0
   -6.7302   -0.7825    2.9908 C   0  0  0  0  0  0  0  0  0  0  0  0
   -5.5449   -0.9058    2.5791 O   0  0  0  0  0  0  0  0  0  0  0  0
   -7.7337   -1.8210    2.9416 C   0  0  0  0  0  0  0  0  0  0  0  0
   -7.6011   -3.1149    2.4306 C   0  0  0  0  0  0  0  0  0  0  0  0
   -8.7391   -3.9290    2.3756 C   0  0  0  0  0  0  0  0  0  0  0  0
   -8.6180   -5.5635    1.7578 Cl  0  0  0  0  0  0  0  0  0  0  0  0
   -9.9864   -3.4261    2.7900 C   0  0  0  0  0  0  0  0  0  0  0  0
  -10.1005   -2.1192    3.2897 C   0  0  0  0  0  0  0  0  0  0  0  0
   -8.9480   -1.3209    3.3860 C   0  0  0  0  0  0  0  0  0  0  0  0
   -8.7740    0.0886    3.8387 C   0  0  0  0  0  0  0  0  0  0  0  0
   -9.6333    0.8098    4.6095 C   0  0  0  0  0  0  0  0  0  0  0  0
   -9.2683    2.0769    5.1835 C   0  0  0  0  0  0  0  0  0  0  0  0
   -8.9824    3.0961    5.6526 N   0  0  0  0  0  0  0  0  0  0  0  0
  -10.9288    0.3132    4.9997 C   0  0  0  0  0  0  0  0  0  0  0  0
  -11.9698   -0.0716    5.3272 N   0  0  0  0  0  0  0  0  0  0  0  0
    4.9107   -4.2075   -5.0987 H   0  0  0  0  0  0  0  0  0  0  0  0
   -0.7551   -4.1770   -2.4029 H   0  0  0  0  0  0  0  0  0  0  0  0
   -3.4898   -6.0874   -3.2699 H   0  0  0  0  0  0  0  0  0  0  0  0
   -2.6904   -7.1639   -2.0568 H   0  0  0  0  0  0  0  0  0  0  0  0
   -2.7376   -5.3807   -1.7915 H   0  0  0  0  0  0  0  0  0  0  0  0
   -1.6252   -7.9126   -4.4026 H   0  0  0  0  0  0  0  0  0  0  0  0
    0.4834   -7.7760   -5.6180 H   0  0  0  0  0  0  0  0  0  0  0  0
    3.8204   -0.9722   -4.9921 H   0  0  0  0  0  0  0  0  0  0  0  0
    3.3157    2.0563   -5.1303 H   0  0  0  0  0  0  0  0  0  0  0  0
    1.3635    2.2517   -6.5409 H   0  0  0  0  0  0  0  0  0  0  0  0
   -0.7291    2.9070   -7.1743 H   0  0  0  0  0  0  0  0  0  0  0  0
   -2.3217    2.1212   -7.4030 H   0  0  0  0  0  0  0  0  0  0  0  0
   -1.2827    0.1232   -8.4341 H   0  0  0  0  0  0  0  0  0  0  0  0
   -0.8291    1.6290   -9.3250 H   0  0  0  0  0  0  0  0  0  0  0  0
    0.3618    0.8410   -8.2155 H   0  0  0  0  0  0  0  0  0  0  0  0
   -0.9011   -0.1461   -3.7660 H   0  0  0  0  0  0  0  0  0  0  0  0
    1.0645   -0.3326   -2.3298 H   0  0  0  0  0  0  0  0  0  0  0  0
    6.3740    0.9480   -2.5063 H   0  0  0  0  0  0  0  0  0  0  0  0
    7.8179    2.8809   -2.4772 H   0  0  0  0  0  0  0  0  0  0  0  0
    9.0129    4.8527   -2.7615 H   0  0  0  0  0  0  0  0  0  0  0  0
    8.7560    6.5807   -2.3625 H   0  0  0  0  0  0  0  0  0  0  0  0
    7.6462    5.7259   -0.1367 H   0  0  0  0  0  0  0  0  0  0  0  0
    8.4987    4.1830   -0.4827 H   0  0  0  0  0  0  0  0  0  0  0  0
    9.4481    5.7043   -0.2877 H   0  0  0  0  0  0  0  0  0  0  0  0
    4.4312    5.4988   -2.8624 H   0  0  0  0  0  0  0  0  0  0  0  0
    2.9570    3.5862   -2.9239 H   0  0  0  0  0  0  0  0  0  0  0  0
    1.4108    2.5949   -1.8121 H   0  0  0  0  0  0  0  0  0  0  0  0
   -0.6917    3.7396   -1.6630 H   0  0  0  0  0  0  0  0  0  0  0  0
   -2.8377    4.1067   -0.4721 H   0  0  0  0  0  0  0  0  0  0  0  0
   -0.5871   -0.1208    5.1122 H   0  0  0  0  0  0  0  0  0  0  0  0
    0.0348   -2.4517    4.7528 H   0  0  0  0  0  0  0  0  0  0  0  0
    0.6454   -5.2868    1.3667 H   0  0  0  0  0  0  0  0  0  0  0  0
   -0.0051   -3.8765    0.4750 H   0  0  0  0  0  0  0  0  0  0  0  0
   -1.6773   -6.0039    1.9970 H   0  0  0  0  0  0  0  0  0  0  0  0
   -2.3522   -4.6641    0.9805 H   0  0  0  0  0  0  0  0  0  0  0  0
   -1.3844   -5.9920    0.2189 H   0  0  0  0  0  0  0  0  0  0  0  0
   -1.7124   -2.3463    0.8189 H   0  0  0  0  0  0  0  0  0  0  0  0
   -2.4058   -0.0424    1.1802 H   0  0  0  0  0  0  0  0  0  0  0  0
   -2.6259    1.5705    5.8371 H   0  0  0  0  0  0  0  0  0  0  0  0
   -1.7970    2.7578    7.8024 H   0  0  0  0  0  0  0  0  0  0  0  0
    2.1457    5.1161    7.4420 H   0  0  0  0  0  0  0  0  0  0  0  0
    1.4877    5.6569    9.0120 H   0  0  0  0  0  0  0  0  0  0  0  0
    0.2987    6.5798    6.3181 H   0  0  0  0  0  0  0  0  0  0  0  0
    1.5426    7.4879    7.2524 H   0  0  0  0  0  0  0  0  0  0  0  0
   -0.0925    7.1944    7.9701 H   0  0  0  0  0  0  0  0  0  0  0  0
    1.3209    4.5291    5.4187 H   0  0  0  0  0  0  0  0  0  0  0  0
    0.5461    3.3694    3.4856 H   0  0  0  0  0  0  0  0  0  0  0  0
    0.9590    0.8988    2.8197 H   0  0  0  0  0  0  0  0  0  0  0  0
    2.8235   -0.5892    2.5267 H   0  0  0  0  0  0  0  0  0  0  0  0
    4.4001   -1.7229    1.0062 H   0  0  0  0  0  0  0  0  0  0  0  0
   -4.3667    0.7824    4.4388 H   0  0  0  0  0  0  0  0  0  0  0  0
   -7.5330    2.5509    3.4075 H   0  0  0  0  0  0  0  0  0  0  0  0
   -6.6412   -3.4721    2.0705 H   0  0  0  0  0  0  0  0  0  0  0  0
  -10.8765   -4.0432    2.7074 H   0  0  0  0  0  0  0  0  0  0  0  0
  -11.0800   -1.7551    3.5521 H   0  0  0  0  0  0  0  0  0  0  0  0
  1  2  2  3
  2  3  1  0
  3  4  2  0
  3  5  1  0
  5  6  2  0
  6  7  1  0
  7  8  1  0
  7  9  2  0
  9 10  1  0
 10 11  2  0
 11 12  1  0
 12 13  2  3
 13 14  1  0
 14 15  3  0
 13 16  1  0
 16 17  3  0
  1 18  1  0
 18 19  1  0
 19 20  1  0
 20 21  1  0
 21 22  2  0
 22 23  1  0
 23 24  1  0
 24 25  1  0
 23 26  1  0
 26 27  2  0
 27 28  1  0
 28 29  2  0
 29 30  1  0
 30 31  1  0
 31 32  1  0
 29 33  1  0
 33 34  2  0
 23 35  1  0
 35 36  2  0
 36 37  1  0
 37 38  2  0
 38 39  1  0
 39 40  1  0
 40 41  1  0
 38 42  1  0
 42 43  2  0
 22 44  1  0
 44 45  2  0
 45 46  1  0
 46 47  2  0
 47 48  1  0
 48 49  2  0
 49 50  1  0
 50 51  2  0
 51 52  1  0
 52 53  1  0
 53 54  2  0
 54 55  1  0
 55 56  2  0
 56 57  1  0
 57 58  1  0
 58 59  1  0
 56 60  1  0
 60 61  2  0
 52 62  1  0
 62 63  2  0
 63 64  1  0
 64 65  2  0
 65 66  1  0
 66 67  1  0
 67 68  1  0
 65 69  1  0
 69 70  2  0
 52 71  1  0
 71 72  2  0
 72 73  1  0
 73 74  2  0
 74 75  1  0
 75 76  2  0
 51 77  1  0
 77 78  2  0
 78 79  1  0
 78 80  1  0
 80 81  2  3
 81 82  1  0
 82 83  2  0
 82 84  1  0
 84 85  2  0
 85 86  1  0
 86 87  1  0
 86 88  2  0
 88 89  1  0
 89 90  2  0
 90 91  1  0
 91 92  2  3
 92 93  1  0
 93 94  3  0
 92 95  1  0
 95 96  3  0
 12  2  1  0
 25 18  2  0
 34 26  1  0
 43 35  1  0
 74 44  1  0
 91 81  1  0
 11  5  1  0
 24 20  2  0
 72 46  1  0
 90 84  1  0
 76 21  1  0
 71 49  1  0
 79 50  1  0
 61 53  1  0
 70 62  1  0
  1 97  1  0
  6 98  1  0
  8 99  1  0
  8100  1  0
  8101  1  0
  9102  1  0
 10103  1  0
 25104  1  0
 27105  1  0
 28106  1  0
 31107  1  0
 31108  1  0
 32109  1  0
 32110  1  0
 32111  1  0
 33112  1  0
 34113  1  0
 36114  1  0
 37115  1  0
 40116  1  0
 40117  1  0
 41118  1  0
 41119  1  0
 41120  1  0
 42121  1  0
 43122  1  0
 45123  1  0
 47124  1  0
 48125  1  0
 54126  1  0
 55127  1  0
 58128  1  0
 58129  1  0
 59130  1  0
 59131  1  0
 59132  1  0
 60133  1  0
 61134  1  0
 63135  1  0
 64136  1  0
 67137  1  0
 67138  1  0
 68139  1  0
 68140  1  0
 68141  1  0
 69142  1  0
 70143  1  0
 73144  1  0
 75145  1  0
 76146  1  0
 77147  1  0
 80148  1  0
 85149  1  0
 88150  1  0
 89151  1  0
M  END

