
     RDKit          3D

138152  0  0  0  0  0  0  0  0999 V2000
   -3.1399   -2.9412    7.0487 C   0  0  0  0  0  0  0  0  0  0  0  0
   -1.9653   -2.4712    7.5614 C   0  0  0  0  0  0  0  0  0  0  0  0
   -0.9812   -1.6001    6.9589 C   0  0  0  0  0  0  0  0  0  0  0  0
   -1.0363   -0.8807    5.9771 O   0  0  0  0  0  0  0  0  0  0  0  0
    0.2742   -1.7337    7.8084 C   0  0  0  0  0  0  0  0  0  0  0  0
    1.5037   -1.1134    7.6495 C   0  0  0  0  0  0  0  0  0  0  0  0
    2.5565   -1.3409    8.4972 C   0  0  0  0  0  0  0  0  0  0  0  0
    3.8384   -0.6091    8.3571 C   0  0  0  0  0  0  0  0  0  0  0  0
    2.3480   -2.2222    9.5226 C   0  0  0  0  0  0  0  0  0  0  0  0
    1.1289   -2.8387    9.6886 C   0  0  0  0  0  0  0  0  0  0  0  0
    0.0724   -2.5568    8.7780 C   0  0  0  0  0  0  0  0  0  0  0  0
   -1.3173   -3.1101    8.7674 C   0  0  0  0  0  0  0  0  0  0  0  0
   -1.9295   -3.7783    9.5921 C   0  0  0  0  0  0  0  0  0  0  0  0
   -2.0298   -4.5831   10.7602 C   0  0  0  0  0  0  0  0  0  0  0  0
   -2.1220   -5.2048   11.6887 N   0  0  0  0  0  0  0  0  0  0  0  0
   -3.5213   -3.2157    9.6543 C   0  0  0  0  0  0  0  0  0  0  0  0
   -4.6506   -2.8332    9.7040 N   0  0  0  0  0  0  0  0  0  0  0  0
   -3.3378   -2.4122    5.6615 C   0  0  0  0  0  0  0  0  0  0  0  0
   -3.2628   -3.2199    4.5695 C   0  0  0  0  0  0  0  0  0  0  0  0
   -3.1665   -2.5430    3.4186 C   0  0  0  0  0  0  0  0  0  0  0  0
   -2.0126   -3.1709    1.9316 S   0  0  0  0  0  0  0  0  0  0  0  0
   -2.1909   -1.6002    1.0641 C   0  0  0  0  0  0  0  0  0  0  0  0
   -1.7147   -0.9320   -0.0633 C   0  0  0  0  0  0  0  0  0  0  0  0
   -0.7533   -1.4032   -0.9743 C   0  0  0  0  0  0  0  0  0  0  0  0
   -0.3665   -0.4941   -1.9225 C   0  0  0  0  0  0  0  0  0  0  0  0
    0.7079   -0.7130   -2.9075 C   0  0  0  0  0  0  0  0  0  0  0  0
    1.8955   -1.1204   -2.0829 C   0  0  0  0  0  0  0  0  0  0  0  0
    2.0200   -2.4313   -1.7355 C   0  0  0  0  0  0  0  0  0  0  0  0
    3.0484   -2.8867   -0.9246 C   0  0  0  0  0  0  0  0  0  0  0  0
    4.0113   -1.9625   -0.4418 C   0  0  0  0  0  0  0  0  0  0  0  0
    5.0304   -2.5189    0.4672 C   0  0  0  0  0  0  0  0  0  0  0  0
    6.0805   -3.2655   -0.4273 C   0  0  0  0  0  0  0  0  0  0  0  0
    3.9092   -0.6219   -0.7861 C   0  0  0  0  0  0  0  0  0  0  0  0
    2.8421   -0.2467   -1.6024 C   0  0  0  0  0  0  0  0  0  0  0  0
    0.3923   -1.8575   -3.7904 C   0  0  0  0  0  0  0  0  0  0  0  0
    1.4099   -2.4921   -4.4708 C   0  0  0  0  0  0  0  0  0  0  0  0
    1.1001   -3.6144   -5.2582 C   0  0  0  0  0  0  0  0  0  0  0  0
   -0.2046   -4.1168   -5.4049 C   0  0  0  0  0  0  0  0  0  0  0  0
   -0.4503   -5.2791   -6.2152 C   0  0  0  0  0  0  0  0  0  0  0  0
   -0.2182   -6.5242   -5.3490 C   0  0  0  0  0  0  0  0  0  0  0  0
   -1.2111   -3.4325   -4.6810 C   0  0  0  0  0  0  0  0  0  0  0  0
   -0.9005   -2.3358   -3.9015 C   0  0  0  0  0  0  0  0  0  0  0  0
    0.8712    0.6053   -3.5186 C   0  0  0  0  0  0  0  0  0  0  0  0
   -0.0718    1.4610   -3.0457 C   0  0  0  0  0  0  0  0  0  0  0  0
   -0.8711    0.8018   -2.0271 C   0  0  0  0  0  0  0  0  0  0  0  0
   -1.7940    1.1621   -1.1013 C   0  0  0  0  0  0  0  0  0  0  0  0
   -2.2371    0.3002   -0.0915 C   0  0  0  0  0  0  0  0  0  0  0  0
   -3.1349    0.4592    1.0982 C   0  0  0  0  0  0  0  0  0  0  0  0
   -4.4371    0.9477    0.6889 C   0  0  0  0  0  0  0  0  0  0  0  0
   -5.4960    0.1560    0.3437 C   0  0  0  0  0  0  0  0  0  0  0  0
   -6.6833    0.7607   -0.0919 C   0  0  0  0  0  0  0  0  0  0  0  0
   -6.8542    2.1068   -0.1915 C   0  0  0  0  0  0  0  0  0  0  0  0
   -8.0602    2.8123   -0.6998 C   0  0  0  0  0  0  0  0  0  0  0  0
   -9.1034    2.8590    0.3667 C   0  0  0  0  0  0  0  0  0  0  0  0
   -5.7737    2.9535    0.1646 C   0  0  0  0  0  0  0  0  0  0  0  0
   -4.6232    2.2990    0.5827 C   0  0  0  0  0  0  0  0  0  0  0  0
   -2.5581    1.5585    1.9976 C   0  0  0  0  0  0  0  0  0  0  0  0
   -1.2959    2.1282    1.8129 C   0  0  0  0  0  0  0  0  0  0  0  0
   -0.8256    2.9925    2.8059 C   0  0  0  0  0  0  0  0  0  0  0  0
   -1.5382    3.2997    3.9312 C   0  0  0  0  0  0  0  0  0  0  0  0
   -1.0425    4.1942    5.0346 C   0  0  0  0  0  0  0  0  0  0  0  0
   -1.6806    5.5566    4.8941 C   0  0  0  0  0  0  0  0  0  0  0  0
   -2.8135    2.7475    4.1455 C   0  0  0  0  0  0  0  0  0  0  0  0
   -3.2637    1.8885    3.1386 C   0  0  0  0  0  0  0  0  0  0  0  0
   -3.0925   -0.7525    1.9400 C   0  0  0  0  0  0  0  0  0  0  0  0
   -3.1147   -1.7855    2.7564 C   0  0  0  0  0  0  0  0  0  0  0  0
   -3.3124   -0.7109    4.9652 Se  0  0  0  0  0  2  0  0  0  0  0  0
    0.3319    2.9108   -3.9170 S   0  0  0  0  0  0  0  0  0  0  0  0
    1.7421    2.2758   -4.8517 C   0  0  0  0  0  0  0  0  0  0  0  0
    2.6190    2.8986   -5.7112 C   0  0  0  0  0  0  0  0  0  0  0  0
    3.6651    2.2421   -6.2197 C   0  0  0  0  0  0  0  0  0  0  0  0
    3.3660    0.3942   -5.3611 Se  0  0  0  0  0  2  0  0  0  0  0  0
    1.6784    1.1723   -4.4050 C   0  0  0  0  0  0  0  0  0  0  0  0
    4.8169    2.1351   -6.9763 C   0  0  0  0  0  0  0  0  0  0  0  0
    5.2055    2.1766   -8.1587 C   0  0  0  0  0  0  0  0  0  0  0  0
    4.4214    2.4204   -9.4075 C   0  0  0  0  0  0  0  0  0  0  0  0
    3.2061    2.7080   -9.3630 O   0  0  0  0  0  0  0  0  0  0  0  0
    5.3142    2.2583  -10.5677 C   0  0  0  0  0  0  0  0  0  0  0  0
    6.5735    1.9442  -10.1476 C   0  0  0  0  0  0  0  0  0  0  0  0
    7.5331    1.7548  -11.1012 C   0  0  0  0  0  0  0  0  0  0  0  0
    6.6386    2.0021  -12.5726 S   0  0  0  0  0  0  0  0  0  0  0  0
    5.1124    2.3357  -11.9407 C   0  0  0  0  0  0  0  0  0  0  0  0
    3.5817    2.6970  -12.8033 Cl  0  0  0  0  0  0  0  0  0  0  0  0
    6.5345    1.8757   -8.6755 C   0  0  0  0  0  0  0  0  0  0  0  0
    7.5425    1.3223   -7.9349 C   0  0  0  0  0  0  0  0  0  0  0  0
    8.8182    1.0136   -8.3011 C   0  0  0  0  0  0  0  0  0  0  0  0
    9.9736    0.7435   -8.6304 N   0  0  0  0  0  0  0  0  0  0  0  0
    6.9434    0.3645   -6.8596 C   0  0  0  0  0  0  0  0  0  0  0  0
    6.4946   -0.3327   -6.0636 N   0  0  0  0  0  0  0  0  0  0  0  0
   -3.8077   -3.6015    7.4539 H   0  0  0  0  0  0  0  0  0  0  0  0
    1.7341   -0.4132    6.8571 H   0  0  0  0  0  0  0  0  0  0  0  0
    4.0725   -0.0572    9.2753 H   0  0  0  0  0  0  0  0  0  0  0  0
    3.6802    0.2497    7.5878 H   0  0  0  0  0  0  0  0  0  0  0  0
    4.6398   -1.1969    7.9019 H   0  0  0  0  0  0  0  0  0  0  0  0
    3.1797   -2.4072   10.1968 H   0  0  0  0  0  0  0  0  0  0  0  0
    0.9458   -3.5579   10.4771 H   0  0  0  0  0  0  0  0  0  0  0  0
   -3.3398   -4.3428    4.6859 H   0  0  0  0  0  0  0  0  0  0  0  0
   -0.3914   -2.4015   -0.8799 H   0  0  0  0  0  0  0  0  0  0  0  0
    1.3150   -3.1792   -2.0957 H   0  0  0  0  0  0  0  0  0  0  0  0
    3.1036   -3.9146   -0.6577 H   0  0  0  0  0  0  0  0  0  0  0  0
    5.5647   -1.6963    0.9908 H   0  0  0  0  0  0  0  0  0  0  0  0
    4.5900   -3.2468    1.1249 H   0  0  0  0  0  0  0  0  0  0  0  0
    5.8745   -4.3536   -0.3598 H   0  0  0  0  0  0  0  0  0  0  0  0
    5.9201   -2.9509   -1.4820 H   0  0  0  0  0  0  0  0  0  0  0  0
    7.0977   -2.9526   -0.1370 H   0  0  0  0  0  0  0  0  0  0  0  0
    4.6048    0.0785   -0.3900 H   0  0  0  0  0  0  0  0  0  0  0  0
    2.7968    0.7928   -1.8350 H   0  0  0  0  0  0  0  0  0  0  0  0
    2.4458   -2.2146   -4.3745 H   0  0  0  0  0  0  0  0  0  0  0  0
    1.9337   -4.0739   -5.7834 H   0  0  0  0  0  0  0  0  0  0  0  0
    0.2400   -5.4268   -7.0705 H   0  0  0  0  0  0  0  0  0  0  0  0
   -1.4817   -5.2755   -6.6462 H   0  0  0  0  0  0  0  0  0  0  0  0
   -0.3616   -6.3725   -4.2951 H   0  0  0  0  0  0  0  0  0  0  0  0
   -0.7833   -7.3561   -5.7422 H   0  0  0  0  0  0  0  0  0  0  0  0
    0.8828   -6.7693   -5.4481 H   0  0  0  0  0  0  0  0  0  0  0  0
   -2.2545   -3.7636   -4.7279 H   0  0  0  0  0  0  0  0  0  0  0  0
   -1.7374   -1.8198   -3.3487 H   0  0  0  0  0  0  0  0  0  0  0  0
   -2.1529    2.1797   -1.1827 H   0  0  0  0  0  0  0  0  0  0  0  0
   -5.3550   -0.8879    0.4292 H   0  0  0  0  0  0  0  0  0  0  0  0
   -7.5378    0.1127   -0.3464 H   0  0  0  0  0  0  0  0  0  0  0  0
   -8.4128    2.4388   -1.6499 H   0  0  0  0  0  0  0  0  0  0  0  0
   -7.7694    3.8752   -0.8746 H   0  0  0  0  0  0  0  0  0  0  0  0
   -9.8378    2.0425    0.1824 H   0  0  0  0  0  0  0  0  0  0  0  0
   -8.6948    2.7697    1.3634 H   0  0  0  0  0  0  0  0  0  0  0  0
   -9.6717    3.8620    0.3101 H   0  0  0  0  0  0  0  0  0  0  0  0
   -5.8065    3.9785    0.1172 H   0  0  0  0  0  0  0  0  0  0  0  0
   -3.8110    2.9857    0.8658 H   0  0  0  0  0  0  0  0  0  0  0  0
   -0.7388    1.8962    0.9442 H   0  0  0  0  0  0  0  0  0  0  0  0
    0.1674    3.4469    2.6446 H   0  0  0  0  0  0  0  0  0  0  0  0
   -1.4088    3.8405    6.0315 H   0  0  0  0  0  0  0  0  0  0  0  0
    0.0266    4.2000    4.9820 H   0  0  0  0  0  0  0  0  0  0  0  0
   -1.1308    6.2145    4.2074 H   0  0  0  0  0  0  0  0  0  0  0  0
   -2.7189    5.5063    4.5239 H   0  0  0  0  0  0  0  0  0  0  0  0
   -1.8148    6.0546    5.9160 H   0  0  0  0  0  0  0  0  0  0  0  0
   -3.3398    2.9859    5.0254 H   0  0  0  0  0  0  0  0  0  0  0  0
   -4.2787    1.4733    3.2581 H   0  0  0  0  0  0  0  0  0  0  0  0
    2.5155    3.9744   -6.0593 H   0  0  0  0  0  0  0  0  0  0  0  0
    5.7728    2.1363   -6.2516 H   0  0  0  0  0  0  0  0  0  0  0  0
    8.6136    1.5049  -11.0212 H   0  0  0  0  0  0  0  0  0  0  0  0
  1  2  2  3
  2  3  1  0
  3  4  2  0
  3  5  1  0
  5  6  2  0
  6  7  1  0
  7  8  1  0
  7  9  2  0
  9 10  1  0
 10 11  2  0
 11 12  1  0
 12 13  2  3
 13 14  1  0
 14 15  3  0
 13 16  1  0
 16 17  3  0
  1 18  1  0
 18 19  2  0
 19 20  1  0
 20 21  1  0
 21 22  1  0
 22 23  1  0
 23 24  2  0
 24 25  1  0
 25 26  1  0
 26 27  1  0
 27 28  2  0
 28 29  1  0
 29 30  2  0
 30 31  1  0
 31 32  1  0
 30 33  1  0
 33 34  2  0
 26 35  1  0
 35 36  2  0
 36 37  1  0
 37 38  2  0
 38 39  1  0
 39 40  1  0
 38 41  1  0
 41 42  2  0
 26 43  1  0
 43 44  2  0
 44 45  1  0
 45 46  1  0
 46 47  2  0
 47 48  1  0
 48 49  1  0
 49 50  2  0
 50 51  1  0
 51 52  2  0
 52 53  1  0
 53 54  1  0
 52 55  1  0
 55 56  2  0
 48 57  1  0
 57 58  2  0
 58 59  1  0
 59 60  2  0
 60 61  1  0
 61 62  1  0
 60 63  1  0
 63 64  2  0
 48 65  1  0
 65 66  1  0
 66 67  1  0
 44 68  1  0
 68 69  1  0
 69 70  1  0
 70 71  2  0
 71 72  1  0
 72 73  1  0
 71 74  1  0
 74 75  2  3
 75 76  1  0
 76 77  2  0
 76 78  1  0
 78 79  1  0
 79 80  2  0
 80 81  1  0
 81 82  1  0
 82 83  1  0
 79 84  1  0
 84 85  2  3
 85 86  1  0
 86 87  3  0
 85 88  1  0
 88 89  3  0
 12  2  1  0
 67 18  1  0
 73 69  2  0
 84 75  1  0
 11  5  1  0
 66 20  2  0
 82 78  2  0
 65 22  2  0
 47 23  1  0
 56 49  1  0
 64 57  1  0
 45 25  2  0
 34 27  1  0
 42 35  1  0
 73 43  1  0
  1 90  1  0
  6 91  1  0
  8 92  1  0
  8 93  1  0
  8 94  1  0
  9 95  1  0
 10 96  1  0
 19 97  1  0
 24 98  1  0
 28 99  1  0
 29100  1  0
 31101  1  0
 31102  1  0
 32103  1  0
 32104  1  0
 32105  1  0
 33106  1  0
 34107  1  0
 36108  1  0
 37109  1  0
 39110  1  0
 39111  1  0
 40112  1  0
 40113  1  0
 40114  1  0
 41115  1  0
 42116  1  0
 46117  1  0
 50118  1  0
 51119  1  0
 53120  1  0
 53121  1  0
 54122  1  0
 54123  1  0
 54124  1  0
 55125  1  0
 56126  1  0
 58127  1  0
 59128  1  0
 61129  1  0
 61130  1  0
 62131  1  0
 62132  1  0
 62133  1  0
 63134  1  0
 64135  1  0
 70136  1  0
 74137  1  0
 80138  1  0
M  END

