
     RDKit          3D

101115  0  0  0  0  0  0  0  0999 V2000
   -2.4891    8.6635    0.0360 C   0  0  0  0  0  0  0  0  0  0  0  0
   -2.0980    7.7202    1.0721 C   0  0  0  0  0  0  0  0  0  0  0  0
   -2.6540    7.4501    2.3533 C   0  0  0  0  0  0  0  0  0  0  0  0
   -3.6403    8.0097    2.8794 O   0  0  0  0  0  0  0  0  0  0  0  0
   -1.8554    6.3877    2.9406 C   0  0  0  0  0  0  0  0  0  0  0  0
   -1.9789    5.6641    4.1204 C   0  0  0  0  0  0  0  0  0  0  0  0
   -1.1302    4.6127    4.4708 C   0  0  0  0  0  0  0  0  0  0  0  0
   -1.2791    3.8601    5.7413 C   0  0  0  0  0  0  0  0  0  0  0  0
   -0.1289    4.2933    3.6003 C   0  0  0  0  0  0  0  0  0  0  0  0
    0.0126    5.0398    2.3619 C   0  0  0  0  0  0  0  0  0  0  0  0
   -0.8146    6.0178    2.0617 C   0  0  0  0  0  0  0  0  0  0  0  0
   -0.9876    6.9799    0.8081 C   0  0  0  0  0  0  0  0  0  0  0  0
    0.3641    7.1775    0.3971 C   0  0  0  0  0  0  0  0  0  0  0  0
    0.6022    8.5466    0.2872 C   0  0  0  0  0  0  0  0  0  0  0  0
    0.8496    9.8702    0.1791 N   0  0  0  0  0  0  0  0  0  0  0  0
    1.2351    6.2070    0.0685 C   0  0  0  0  0  0  0  0  0  0  0  0
    2.0258    5.3048   -0.2451 N   0  0  0  0  0  0  0  0  0  0  0  0
   -1.6079    8.4028   -1.1216 C   0  0  0  0  0  0  0  0  0  0  0  0
   -0.8899    8.0542   -2.0626 C   0  0  0  0  0  0  0  0  0  0  0  0
   -0.5211    6.9397   -2.6947 C   0  0  0  0  0  0  0  0  0  0  0  0
    0.7538    6.6656   -3.9205 S   0  0  0  0  0  0  0  0  0  0  0  0
    0.6349    4.9010   -3.9460 C   0  0  0  0  0  0  0  0  0  0  0  0
    1.2315    3.7586   -4.4323 C   0  0  0  0  0  0  0  0  0  0  0  0
    2.3728    3.5113   -5.1960 C   0  0  0  0  0  0  0  0  0  0  0  0
    2.8885    2.3032   -5.3074 C   0  0  0  0  0  0  0  0  0  0  0  0
    4.0344    2.1559   -6.0558 N   0  0  0  0  0  0  0  0  0  0  0  0
    4.3152    3.7262   -6.5849 S   0  0  0  0  0  0  0  0  0  0  0  0
    3.0477    4.5134   -5.8689 N   0  0  0  0  0  0  0  0  0  0  0  0
    2.2270    1.2253   -4.6460 C   0  0  0  0  0  0  0  0  0  0  0  0
    2.6197   -0.0956   -4.5037 C   0  0  0  0  0  0  0  0  0  0  0  0
    1.6509   -0.6994   -3.6708 C   0  0  0  0  0  0  0  0  0  0  0  0
    0.7441    0.2502   -3.3573 N   0  0  0  0  0  0  0  0  0  0  0  0
   -0.5215   -0.0594   -2.7550 C   0  0  0  0  0  0  0  0  0  0  0  0
   -1.6422   -0.2431   -3.7681 C   0  0  0  0  0  0  0  0  0  0  0  0
    1.0828    1.4416   -3.9165 C   0  0  0  0  0  0  0  0  0  0  0  0
    0.5441    2.7135   -3.7499 C   0  0  0  0  0  0  0  0  0  0  0  0
   -0.3697    3.2543   -2.9352 N   0  0  0  0  0  0  0  0  0  0  0  0
   -0.3112    4.6498   -3.0709 C   0  0  0  0  0  0  0  0  0  0  0  0
   -0.8430    5.7793   -2.4861 C   0  0  0  0  0  0  0  0  0  0  0  0
   -2.0813    5.9918   -1.0291 Se  0  0  0  0  0  2  0  0  0  0  0  0
   -1.1715    2.6705   -1.8846 C   0  0  0  0  0  0  0  0  0  0  0  0
   -2.6019    2.3701   -2.2143 C   0  0  0  0  0  0  0  0  0  0  0  0
    2.0710   -1.9873   -3.3403 C   0  0  0  0  0  0  0  0  0  0  0  0
    3.0693   -2.5544   -3.6596 C   0  0  0  0  0  0  0  0  0  0  0  0
    3.8565   -1.3055   -4.7002 S   0  0  0  0  0  0  0  0  0  0  0  0
    3.4682   -3.7952   -3.2284 C   0  0  0  0  0  0  0  0  0  0  0  0
    2.8425   -4.6304   -2.4019 C   0  0  0  0  0  0  0  0  0  0  0  0
    1.2747   -3.3046   -2.1916 Se  0  0  0  0  0  2  0  0  0  0  0  0
    2.9674   -5.5648   -1.3900 C   0  0  0  0  0  0  0  0  0  0  0  0
    1.9686   -5.8726   -0.5389 C   0  0  0  0  0  0  0  0  0  0  0  0
    0.6748   -5.4561   -0.4202 C   0  0  0  0  0  0  0  0  0  0  0  0
    0.0387   -4.7419   -1.3717 O   0  0  0  0  0  0  0  0  0  0  0  0
   -0.0948   -5.7716    0.7168 C   0  0  0  0  0  0  0  0  0  0  0  0
   -1.3431   -5.4718    1.1616 C   0  0  0  0  0  0  0  0  0  0  0  0
   -1.7517   -5.9194    2.4714 C   0  0  0  0  0  0  0  0  0  0  0  0
   -0.8577   -6.6002    3.1081 C   0  0  0  0  0  0  0  0  0  0  0  0
    0.4564   -7.0003    2.7601 C   0  0  0  0  0  0  0  0  0  0  0  0
    0.8568   -6.5527    1.4873 C   0  0  0  0  0  0  0  0  0  0  0  0
    2.1315   -6.6306    0.7520 C   0  0  0  0  0  0  0  0  0  0  0  0
    3.2807   -7.0438    1.3912 C   0  0  0  0  0  0  0  0  0  0  0  0
    4.5484   -6.7681    0.9163 C   0  0  0  0  0  0  0  0  0  0  0  0
    5.7754   -6.5243    0.4646 N   0  0  0  0  0  0  0  0  0  0  0  0
    3.0936   -7.7616    2.4860 C   0  0  0  0  0  0  0  0  0  0  0  0
    2.9057   -8.5404    3.6589 N   0  0  0  0  0  0  0  0  0  0  0  0
   -1.8066   -6.8921    4.2415 C   0  0  0  0  0  0  0  0  0  0  0  0
   -2.6977   -8.1203    4.1188 C   0  0  0  0  0  0  0  0  0  0  0  0
   -3.0592   -8.2813    2.6924 C   0  0  0  0  0  0  0  0  0  0  0  0
   -4.0862   -7.4311    2.4517 C   0  0  0  0  0  0  0  0  0  0  0  0
   -4.0376   -6.4142    3.5526 C   0  0  0  0  0  0  0  0  0  0  0  0
   -3.9810   -7.4682    4.6809 C   0  0  0  0  0  0  0  0  0  0  0  0
   -2.7181   -5.8304    3.6141 C   0  0  0  0  0  0  0  0  0  0  0  0
   -3.1860    9.3491    0.1422 H   0  0  0  0  0  0  0  0  0  0  0  0
   -2.7281    5.9056    4.8612 H   0  0  0  0  0  0  0  0  0  0  0  0
   -0.3167    3.4631    6.0918 H   0  0  0  0  0  0  0  0  0  0  0  0
   -2.0280    3.0106    5.6215 H   0  0  0  0  0  0  0  0  0  0  0  0
   -1.7621    4.5718    6.4758 H   0  0  0  0  0  0  0  0  0  0  0  0
    0.5897    3.5101    3.7804 H   0  0  0  0  0  0  0  0  0  0  0  0
    0.8332    4.7341    1.7794 H   0  0  0  0  0  0  0  0  0  0  0  0
   -0.3835    9.1014   -2.4415 H   0  0  0  0  0  0  0  0  0  0  0  0
   -0.7455    0.1885   -1.7281 H   0  0  0  0  0  0  0  0  0  0  0  0
   -0.4074   -1.2379   -2.4944 H   0  0  0  0  0  0  0  0  0  0  0  0
   -1.4441   -1.1991   -4.3374 H   0  0  0  0  0  0  0  0  0  0  0  0
   -2.5683   -0.4609   -3.2285 H   0  0  0  0  0  0  0  0  0  0  0  0
   -1.7750    0.6301   -4.4508 H   0  0  0  0  0  0  0  0  0  0  0  0
   -0.6399    1.9950   -1.2399 H   0  0  0  0  0  0  0  0  0  0  0  0
   -1.3022    3.4979   -1.0247 H   0  0  0  0  0  0  0  0  0  0  0  0
   -2.7529    2.4122   -3.3665 H   0  0  0  0  0  0  0  0  0  0  0  0
   -3.0027    1.4311   -1.8515 H   0  0  0  0  0  0  0  0  0  0  0  0
   -3.3637    3.1314   -1.7930 H   0  0  0  0  0  0  0  0  0  0  0  0
    4.4515   -4.2686   -3.5905 H   0  0  0  0  0  0  0  0  0  0  0  0
    3.8511   -6.1409   -1.3177 H   0  0  0  0  0  0  0  0  0  0  0  0
   -2.0201   -4.9015    0.5984 H   0  0  0  0  0  0  0  0  0  0  0  0
    0.9900   -7.5429    3.3929 H   0  0  0  0  0  0  0  0  0  0  0  0
   -1.3521   -6.7455    5.2001 H   0  0  0  0  0  0  0  0  0  0  0  0
   -2.4066   -9.0018    4.6549 H   0  0  0  0  0  0  0  0  0  0  0  0
   -2.5529   -8.9441    2.0178 H   0  0  0  0  0  0  0  0  0  0  0  0
   -4.7706   -7.5421    1.6144 H   0  0  0  0  0  0  0  0  0  0  0  0
   -4.9201   -5.7615    3.6635 H   0  0  0  0  0  0  0  0  0  0  0  0
   -3.7756   -6.9721    5.6734 H   0  0  0  0  0  0  0  0  0  0  0  0
   -4.8276   -8.1168    4.6634 H   0  0  0  0  0  0  0  0  0  0  0  0
   -2.6479   -4.8212    4.1209 H   0  0  0  0  0  0  0  0  0  0  0  0
  1  2  2  3
  2  3  1  0
  3  4  2  0
  3  5  1  0
  5  6  2  0
  6  7  1  0
  7  8  1  0
  7  9  2  0
  9 10  1  0
 10 11  2  0
 11 12  1  0
 12 13  2  3
 13 14  1  0
 14 15  3  0
 13 16  1  0
 16 17  3  0
  1 18  1  0
 18 19  2  0
 19 20  1  0
 20 21  1  0
 21 22  1  0
 22 23  1  0
 23 24  1  0
 24 25  1  0
 25 26  2  0
 26 27  1  0
 27 28  1  0
 25 29  1  0
 29 30  1  0
 30 31  2  0
 31 32  1  0
 32 33  1  0
 33 34  1  0
 32 35  1  0
 35 36  1  0
 36 37  1  0
 37 38  1  0
 38 39  1  0
 39 40  1  0
 37 41  1  0
 41 42  1  0
 31 43  1  0
 43 44  2  0
 44 45  1  0
 44 46  1  0
 46 47  2  0
 47 48  1  0
 47 49  1  0
 49 50  2  3
 50 51  1  0
 51 52  2  0
 51 53  1  0
 53 54  2  0
 54 55  1  0
 55 56  2  0
 56 57  1  0
 57 58  2  0
 58 59  1  0
 59 60  2  3
 60 61  1  0
 61 62  3  0
 60 63  1  0
 63 64  3  0
 56 65  1  0
 65 66  1  0
 66 67  1  0
 67 68  2  0
 68 69  1  0
 69 70  1  0
 69 71  1  0
 12  2  1  0
 40 18  1  0
 48 43  1  0
 59 50  1  0
 71 65  1  0
 11  5  1  0
 39 20  2  0
 58 53  1  0
 70 66  1  0
 38 22  2  0
 71 55  1  0
 36 23  2  0
 28 24  2  0
 35 29  2  0
 45 30  1  0
  1 72  1  0
  6 73  1  0
  8 74  1  0
  8 75  1  0
  8 76  1  0
  9 77  1  0
 10 78  1  0
 19 79  1  0
 33 80  1  0
 33 81  1  0
 34 82  1  0
 34 83  1  0
 34 84  1  0
 41 85  1  0
 41 86  1  0
 42 87  1  0
 42 88  1  0
 42 89  1  0
 46 90  1  0
 49 91  1  0
 54 92  1  0
 57 93  1  0
 65 94  1  0
 66 95  1  0
 67 96  1  0
 68 97  1  0
 69 98  1  0
 70 99  1  0
 70100  1  0
 71101  1  0
M  END

