
     RDKit          3D

107121  0  0  0  0  0  0  0  0999 V2000
   -3.6393   -7.3933    1.5208 C   0  0  0  0  0  0  0  0  0  0  0  0
   -3.6923   -7.3616    2.8636 C   0  0  0  0  0  0  0  0  0  0  0  0
   -3.1003   -8.4027    3.7043 C   0  0  0  0  0  0  0  0  0  0  0  0
   -2.7387   -9.5485    3.3246 O   0  0  0  0  0  0  0  0  0  0  0  0
   -2.9084   -7.8519    5.0314 C   0  0  0  0  0  0  0  0  0  0  0  0
   -2.2778   -8.4399    6.1316 C   0  0  0  0  0  0  0  0  0  0  0  0
   -2.1601   -7.6921    7.3183 C   0  0  0  0  0  0  0  0  0  0  0  0
   -1.4848   -8.2753    8.5218 C   0  0  0  0  0  0  0  0  0  0  0  0
   -2.6291   -6.3614    7.3542 C   0  0  0  0  0  0  0  0  0  0  0  0
   -3.2426   -5.7857    6.2313 C   0  0  0  0  0  0  0  0  0  0  0  0
   -3.4067   -6.5608    5.0722 C   0  0  0  0  0  0  0  0  0  0  0  0
   -4.0518   -6.2303    3.7718 C   0  0  0  0  0  0  0  0  0  0  0  0
   -5.0839   -5.3660    3.5999 C   0  0  0  0  0  0  0  0  0  0  0  0
   -5.4879   -4.4304    4.6156 C   0  0  0  0  0  0  0  0  0  0  0  0
   -5.8270   -3.6753    5.4242 N   0  0  0  0  0  0  0  0  0  0  0  0
   -5.9804   -5.4624    2.4773 C   0  0  0  0  0  0  0  0  0  0  0  0
   -6.7140   -5.5348    1.5854 N   0  0  0  0  0  0  0  0  0  0  0  0
   -3.7197   -6.2003    0.6647 C   0  0  0  0  0  0  0  0  0  0  0  0
   -4.4290   -6.1165   -0.5468 C   0  0  0  0  0  0  0  0  0  0  0  0
   -5.2802   -7.2098   -1.1302 C   0  0  0  0  0  0  0  0  0  0  0  0
   -4.4914   -8.0360   -2.1386 C   0  0  0  0  0  0  0  0  0  0  0  0
   -4.2443   -4.8703   -1.1432 C   0  0  0  0  0  0  0  0  0  0  0  0
   -3.4031   -4.0191   -0.4678 C   0  0  0  0  0  0  0  0  0  0  0  0
   -2.8534   -4.7519    0.9394 S   0  0  0  0  0  0  0  0  0  0  0  0
   -3.2610   -2.7921   -1.1089 C   0  0  0  0  0  0  0  0  0  0  0  0
   -3.9989   -2.7327   -2.2372 C   0  0  0  0  0  0  0  0  0  0  0  0
   -4.8505   -4.1623   -2.5710 S   0  0  0  0  0  0  0  0  0  0  0  0
   -3.7023   -1.5562   -2.8527 C   0  0  0  0  0  0  0  0  0  0  0  0
   -4.0729   -1.0880   -4.1138 C   0  0  0  0  0  0  0  0  0  0  0  0
   -4.9254   -1.7344   -4.9470 N   0  0  0  0  0  0  0  0  0  0  0  0
   -4.9117   -0.6857   -6.2302 S   0  0  0  0  0  0  0  0  0  0  0  0
   -3.8866    0.5486   -5.8150 N   0  0  0  0  0  0  0  0  0  0  0  0
   -3.5122    0.1293   -4.5810 C   0  0  0  0  0  0  0  0  0  0  0  0
   -2.6274    0.8186   -3.7517 C   0  0  0  0  0  0  0  0  0  0  0  0
   -2.0146    2.0184   -3.9319 C   0  0  0  0  0  0  0  0  0  0  0  0
   -1.9014    3.2377   -5.1091 S   0  0  0  0  0  0  0  0  0  0  0  0
   -0.8973    4.1491   -4.0748 C   0  0  0  0  0  0  0  0  0  0  0  0
   -0.1933    5.3328   -4.2573 C   0  0  0  0  0  0  0  0  0  0  0  0
    0.6226    5.6261   -3.1516 C   0  0  0  0  0  0  0  0  0  0  0  0
    0.4476    4.3792   -1.9867 S   0  0  0  0  0  0  0  0  0  0  0  0
   -0.6800    3.5175   -2.8772 C   0  0  0  0  0  0  0  0  0  0  0  0
   -1.3366    2.2951   -2.7990 C   0  0  0  0  0  0  0  0  0  0  0  0
   -1.4881    1.3429   -1.8414 N   0  0  0  0  0  0  0  0  0  0  0  0
   -1.2149    1.5853   -0.4201 C   0  0  0  0  0  0  0  0  0  0  0  0
   -2.5058    1.6324    0.3979 C   0  0  0  0  0  0  0  0  0  0  0  0
   -2.2637    0.3772   -2.4595 C   0  0  0  0  0  0  0  0  0  0  0  0
   -2.7803   -0.8903   -2.0136 C   0  0  0  0  0  0  0  0  0  0  0  0
   -2.4672   -1.7008   -0.9360 N   0  0  0  0  0  0  0  0  0  0  0  0
   -1.3236   -1.6753   -0.0178 C   0  0  0  0  0  0  0  0  0  0  0  0
   -0.0004   -1.7141   -0.7778 C   0  0  0  0  0  0  0  0  0  0  0  0
    1.5865    6.7528   -3.1803 C   0  0  0  0  0  0  0  0  0  0  0  0
    2.4294    7.1823   -2.2135 C   0  0  0  0  0  0  0  0  0  0  0  0
    2.6637    6.5973   -0.8845 C   0  0  0  0  0  0  0  0  0  0  0  0
    1.8091    6.0472   -0.1447 O   0  0  0  0  0  0  0  0  0  0  0  0
    4.0057    6.9425   -0.4614 C   0  0  0  0  0  0  0  0  0  0  0  0
    4.7068    6.4388    0.6603 C   0  0  0  0  0  0  0  0  0  0  0  0
    6.0166    6.8733    0.7438 C   0  0  0  0  0  0  0  0  0  0  0  0
    6.6123    7.7467   -0.2225 C   0  0  0  0  0  0  0  0  0  0  0  0
    5.9330    8.2410   -1.3230 C   0  0  0  0  0  0  0  0  0  0  0  0
    4.5751    7.8245   -1.4132 C   0  0  0  0  0  0  0  0  0  0  0  0
    3.5584    8.1339   -2.4505 C   0  0  0  0  0  0  0  0  0  0  0  0
    3.5462    9.2167   -3.2679 C   0  0  0  0  0  0  0  0  0  0  0  0
    2.3809    9.5921   -4.0251 C   0  0  0  0  0  0  0  0  0  0  0  0
    1.4616    9.8958   -4.6659 N   0  0  0  0  0  0  0  0  0  0  0  0
    4.6512   10.1327   -3.3619 C   0  0  0  0  0  0  0  0  0  0  0  0
    5.5345   10.8742   -3.4541 N   0  0  0  0  0  0  0  0  0  0  0  0
    7.9192    7.6939    0.5083 C   0  0  0  0  0  0  0  0  0  0  0  0
    9.0385    6.8195   -0.1291 C   0  0  0  0  0  0  0  0  0  0  0  0
   10.0700    6.6176    0.9544 C   0  0  0  0  0  0  0  0  0  0  0  0
    9.5148    5.8053    1.8619 C   0  0  0  0  0  0  0  0  0  0  0  0
    8.1267    5.4858    1.3584 C   0  0  0  0  0  0  0  0  0  0  0  0
    8.4294    5.4275   -0.1308 C   0  0  0  0  0  0  0  0  0  0  0  0
    7.3068    6.8023    1.5004 C   0  0  0  0  0  0  0  0  0  0  0  0
   -3.3915   -8.3254    1.0292 H   0  0  0  0  0  0  0  0  0  0  0  0
   -1.8931   -9.4498    6.0640 H   0  0  0  0  0  0  0  0  0  0  0  0
   -0.4834   -7.8114    8.6481 H   0  0  0  0  0  0  0  0  0  0  0  0
   -1.3668   -9.3751    8.4220 H   0  0  0  0  0  0  0  0  0  0  0  0
   -2.0955   -8.0755    9.4269 H   0  0  0  0  0  0  0  0  0  0  0  0
   -2.5037   -5.7668    8.2495 H   0  0  0  0  0  0  0  0  0  0  0  0
   -3.5565   -4.7542    6.2821 H   0  0  0  0  0  0  0  0  0  0  0  0
   -6.1666   -6.7664   -1.6338 H   0  0  0  0  0  0  0  0  0  0  0  0
   -5.6509   -7.8749   -0.3229 H   0  0  0  0  0  0  0  0  0  0  0  0
   -4.1383   -7.3900   -2.9726 H   0  0  0  0  0  0  0  0  0  0  0  0
   -5.1438   -8.8308   -2.5554 H   0  0  0  0  0  0  0  0  0  0  0  0
   -3.6154   -8.5134   -1.6499 H   0  0  0  0  0  0  0  0  0  0  0  0
   -0.2346    5.9223   -5.1638 H   0  0  0  0  0  0  0  0  0  0  0  0
   -0.7260    2.5695   -0.2853 H   0  0  0  0  0  0  0  0  0  0  0  0
   -0.4669    0.8793   -0.0327 H   0  0  0  0  0  0  0  0  0  0  0  0
   -3.1138    0.7150    0.2616 H   0  0  0  0  0  0  0  0  0  0  0  0
   -2.2590    1.7356    1.4747 H   0  0  0  0  0  0  0  0  0  0  0  0
   -3.1142    2.5088    0.0867 H   0  0  0  0  0  0  0  0  0  0  0  0
   -1.4071   -0.8382    0.6882 H   0  0  0  0  0  0  0  0  0  0  0  0
   -1.3365   -2.5551    0.6520 H   0  0  0  0  0  0  0  0  0  0  0  0
    0.0689   -0.8916   -1.5175 H   0  0  0  0  0  0  0  0  0  0  0  0
    0.8418   -1.6284   -0.0601 H   0  0  0  0  0  0  0  0  0  0  0  0
    0.0852   -2.6816   -1.3193 H   0  0  0  0  0  0  0  0  0  0  0  0
    1.6759    7.2034   -4.1539 H   0  0  0  0  0  0  0  0  0  0  0  0
    4.2761    5.7490    1.3723 H   0  0  0  0  0  0  0  0  0  0  0  0
    6.4376    8.8479   -2.0554 H   0  0  0  0  0  0  0  0  0  0  0  0
    8.2470    8.6801    0.9053 H   0  0  0  0  0  0  0  0  0  0  0  0
    9.4346    7.1780   -1.1036 H   0  0  0  0  0  0  0  0  0  0  0  0
   11.0957    6.9707    0.9598 H   0  0  0  0  0  0  0  0  0  0  0  0
   10.0114    5.3872    2.7331 H   0  0  0  0  0  0  0  0  0  0  0  0
    7.6588    4.5758    1.7915 H   0  0  0  0  0  0  0  0  0  0  0  0
    7.5309    5.3248   -0.7794 H   0  0  0  0  0  0  0  0  0  0  0  0
    9.1578    4.6251   -0.4057 H   0  0  0  0  0  0  0  0  0  0  0  0
    7.2489    7.2246    2.5284 H   0  0  0  0  0  0  0  0  0  0  0  0
  1  2  2  3
  2  3  1  0
  3  4  2  0
  3  5  1  0
  5  6  2  0
  6  7  1  0
  7  8  1  0
  7  9  2  0
  9 10  1  0
 10 11  2  0
 11 12  1  0
 12 13  2  3
 13 14  1  0
 14 15  3  0
 13 16  1  0
 16 17  3  0
  1 18  1  0
 18 19  2  0
 19 20  1  0
 20 21  1  0
 19 22  1  0
 22 23  2  0
 23 24  1  0
 23 25  1  0
 25 26  2  0
 26 27  1  0
 26 28  1  0
 28 29  1  0
 29 30  2  0
 30 31  1  0
 31 32  1  0
 32 33  2  0
 33 34  1  0
 34 35  1  0
 35 36  1  0
 36 37  1  0
 37 38  1  0
 38 39  2  0
 39 40  1  0
 40 41  1  0
 41 42  1  0
 42 43  1  0
 43 44  1  0
 44 45  1  0
 43 46  1  0
 46 47  1  0
 47 48  1  0
 48 49  1  0
 49 50  1  0
 39 51  1  0
 51 52  2  3
 52 53  1  0
 53 54  2  0
 53 55  1  0
 55 56  2  0
 56 57  1  0
 57 58  2  0
 58 59  1  0
 59 60  2  0
 60 61  1  0
 61 62  2  3
 62 63  1  0
 63 64  3  0
 62 65  1  0
 65 66  3  0
 58 67  1  0
 67 68  1  0
 68 69  1  0
 69 70  2  0
 70 71  1  0
 71 72  1  0
 71 73  1  0
 12  2  1  0
 24 18  1  0
 48 25  1  0
 61 52  1  0
 73 67  1  0
 11  5  1  0
 27 22  1  0
 47 28  2  0
 60 55  1  0
 72 68  1  0
 33 29  1  0
 46 34  2  0
 73 57  1  0
 42 35  2  0
 41 37  2  0
  1 74  1  0
  6 75  1  0
  8 76  1  0
  8 77  1  0
  8 78  1  0
  9 79  1  0
 10 80  1  0
 20 81  1  0
 20 82  1  0
 21 83  1  0
 21 84  1  0
 21 85  1  0
 38 86  1  0
 44 87  1  0
 44 88  1  0
 45 89  1  0
 45 90  1  0
 45 91  1  0
 49 92  1  0
 49 93  1  0
 50 94  1  0
 50 95  1  0
 50 96  1  0
 51 97  1  0
 56 98  1  0
 59 99  1  0
 67100  1  0
 68101  1  0
 69102  1  0
 70103  1  0
 71104  1  0
 72105  1  0
 72106  1  0
 73107  1  0
M  END

