
     RDKit          3D

120133  0  0  0  0  0  0  0  0999 V2000
   -3.5140    3.3270    5.0332 C   0  0  0  0  0  0  0  0  0  0  0  0
   -3.8091    4.5805    4.6406 C   0  0  0  0  0  0  0  0  0  0  0  0
   -4.5364    4.9593    3.4247 C   0  0  0  0  0  0  0  0  0  0  0  0
   -5.3728    4.2528    2.8006 O   0  0  0  0  0  0  0  0  0  0  0  0
   -4.2162    6.3344    3.1151 C   0  0  0  0  0  0  0  0  0  0  0  0
   -4.5422    7.0564    1.9673 C   0  0  0  0  0  0  0  0  0  0  0  0
   -4.0211    8.3532    1.8166 C   0  0  0  0  0  0  0  0  0  0  0  0
   -4.3506    9.1464    0.5873 C   0  0  0  0  0  0  0  0  0  0  0  0
   -3.1837    8.8898    2.8192 C   0  0  0  0  0  0  0  0  0  0  0  0
   -2.8717    8.1435    3.9674 C   0  0  0  0  0  0  0  0  0  0  0  0
   -3.4211    6.8609    4.1183 C   0  0  0  0  0  0  0  0  0  0  0  0
   -3.2362    5.8464    5.1942 C   0  0  0  0  0  0  0  0  0  0  0  0
   -2.8283    6.0783    6.4705 C   0  0  0  0  0  0  0  0  0  0  0  0
   -2.9026    5.0767    7.5024 C   0  0  0  0  0  0  0  0  0  0  0  0
   -2.9610    4.2798    8.3412 N   0  0  0  0  0  0  0  0  0  0  0  0
   -2.4240    7.3825    6.9273 C   0  0  0  0  0  0  0  0  0  0  0  0
   -2.1003    8.4250    7.3117 N   0  0  0  0  0  0  0  0  0  0  0  0
   -3.7912    2.1104    4.2428 C   0  0  0  0  0  0  0  0  0  0  0  0
   -3.9529    0.8226    4.7883 C   0  0  0  0  0  0  0  0  0  0  0  0
   -3.8972    0.5229    6.2302 C   0  0  0  0  0  0  0  0  0  0  0  0
   -5.1024    0.3302    6.9199 C   0  0  0  0  0  0  0  0  0  0  0  0
   -5.0978    0.0760    8.2925 C   0  0  0  0  0  0  0  0  0  0  0  0
   -3.8902    0.0114    8.9880 C   0  0  0  0  0  0  0  0  0  0  0  0
   -2.6819    0.1953    8.3134 C   0  0  0  0  0  0  0  0  0  0  0  0
   -2.6650    0.4550    6.9321 C   0  0  0  0  0  0  0  0  0  0  0  0
   -1.3254    0.6146    6.2421 C   0  0  0  0  0  0  0  0  0  0  0  0
   -0.6802   -0.7402    5.9659 C   0  0  0  0  0  0  0  0  0  0  0  0
   -3.9164   -0.1629    3.7999 C   0  0  0  0  0  0  0  0  0  0  0  0
   -3.7526   -1.8518    3.8773 S   0  0  0  0  0  0  0  0  0  0  0  0
   -3.3963   -1.9473    2.2187 C   0  0  0  0  0  0  0  0  0  0  0  0
   -2.5889   -2.7777    1.4887 C   0  0  0  0  0  0  0  0  0  0  0  0
   -1.9179   -3.9463    1.8915 C   0  0  0  0  0  0  0  0  0  0  0  0
   -0.7863   -4.3896    1.1395 C   0  0  0  0  0  0  0  0  0  0  0  0
   -0.1225   -5.4762    1.6017 N   0  0  0  0  0  0  0  0  0  0  0  0
   -1.0235   -5.7966    2.9545 S   0  0  0  0  0  0  0  0  0  0  0  0
   -2.2137   -4.6456    3.0149 N   0  0  0  0  0  0  0  0  0  0  0  0
   -0.4261   -3.6757   -0.0048 C   0  0  0  0  0  0  0  0  0  0  0  0
    0.6119   -3.7988   -0.8857 C   0  0  0  0  0  0  0  0  0  0  0  0
    2.0986   -4.6080   -1.0252 S   0  0  0  0  0  0  0  0  0  0  0  0
    2.5311   -3.6123   -2.3500 C   0  0  0  0  0  0  0  0  0  0  0  0
    3.7242   -3.4088   -3.0389 C   0  0  0  0  0  0  0  0  0  0  0  0
    4.9400   -4.2158   -2.8242 C   0  0  0  0  0  0  0  0  0  0  0  0
    5.3575   -5.1947   -3.7595 C   0  0  0  0  0  0  0  0  0  0  0  0
    4.5438   -5.5228   -4.9900 C   0  0  0  0  0  0  0  0  0  0  0  0
    3.4541   -6.5395   -4.6600 C   0  0  0  0  0  0  0  0  0  0  0  0
    6.5122   -5.9509   -3.4884 C   0  0  0  0  0  0  0  0  0  0  0  0
    7.2457   -5.7354   -2.3193 C   0  0  0  0  0  0  0  0  0  0  0  0
    6.8289   -4.7748   -1.3983 C   0  0  0  0  0  0  0  0  0  0  0  0
    5.6779   -4.0244   -1.6439 C   0  0  0  0  0  0  0  0  0  0  0  0
    3.6460   -2.2640   -3.8579 C   0  0  0  0  0  0  0  0  0  0  0  0
    2.0810   -1.5816   -3.7595 S   0  0  0  0  0  0  0  0  0  0  0  0
    1.5437   -2.7129   -2.6532 C   0  0  0  0  0  0  0  0  0  0  0  0
    0.4604   -2.8180   -1.8083 C   0  0  0  0  0  0  0  0  0  0  0  0
   -0.6271   -2.0450   -1.5979 N   0  0  0  0  0  0  0  0  0  0  0  0
   -1.1316   -2.5412   -0.4297 C   0  0  0  0  0  0  0  0  0  0  0  0
   -2.1444   -2.0107    0.3997 C   0  0  0  0  0  0  0  0  0  0  0  0
   -2.5143   -0.6967    0.5440 N   0  0  0  0  0  0  0  0  0  0  0  0
   -3.3329   -0.7129    1.6327 C   0  0  0  0  0  0  0  0  0  0  0  0
   -3.6572    0.2977    2.5365 C   0  0  0  0  0  0  0  0  0  0  0  0
   -3.4814    1.9630    2.5730 S   0  0  0  0  0  0  0  0  0  0  0  0
   -1.6876    0.4697    0.1815 C   0  0  0  0  0  0  0  0  0  0  0  0
   -0.4984    0.6143    1.1334 C   0  0  0  0  0  0  0  0  0  0  0  0
   -1.3652   -1.3395   -2.6564 C   0  0  0  0  0  0  0  0  0  0  0  0
   -1.8132   -2.3073   -3.7503 C   0  0  0  0  0  0  0  0  0  0  0  0
    4.7507   -1.7248   -4.6741 C   0  0  0  0  0  0  0  0  0  0  0  0
    4.9384   -0.4184   -4.9400 C   0  0  0  0  0  0  0  0  0  0  0  0
    5.6606    0.0508   -6.1213 C   0  0  0  0  0  0  0  0  0  0  0  0
    6.4255   -0.6482   -6.8383 O   0  0  0  0  0  0  0  0  0  0  0  0
    5.2651    1.4267   -6.3840 C   0  0  0  0  0  0  0  0  0  0  0  0
    4.3965    1.8372   -5.3839 C   0  0  0  0  0  0  0  0  0  0  0  0
    3.7708    3.0879   -5.4653 C   0  0  0  0  0  0  0  0  0  0  0  0
    4.0821    3.9357   -6.5375 C   0  0  0  0  0  0  0  0  0  0  0  0
    4.9935    3.5330   -7.5299 C   0  0  0  0  0  0  0  0  0  0  0  0
    5.3790    4.7446   -8.9632 Br  0  0  0  0  0  0  0  0  0  0  0  0
    5.5867    2.2542   -7.4688 C   0  0  0  0  0  0  0  0  0  0  0  0
    6.6888    1.7069   -8.7281 Cl  0  0  0  0  0  0  0  0  0  0  0  0
    4.2705    0.7774   -4.3507 C   0  0  0  0  0  0  0  0  0  0  0  0
    4.0484    0.9953   -3.0297 C   0  0  0  0  0  0  0  0  0  0  0  0
    4.4269    0.0355   -2.0249 C   0  0  0  0  0  0  0  0  0  0  0  0
    4.7291   -0.7153   -1.1985 N   0  0  0  0  0  0  0  0  0  0  0  0
    3.6132    2.2681   -2.5127 C   0  0  0  0  0  0  0  0  0  0  0  0
    3.2775    3.2817   -2.0693 N   0  0  0  0  0  0  0  0  0  0  0  0
   -2.9262    3.1659    5.9178 H   0  0  0  0  0  0  0  0  0  0  0  0
   -5.1645    6.6145    1.1980 H   0  0  0  0  0  0  0  0  0  0  0  0
   -3.7553   10.0823    0.5346 H   0  0  0  0  0  0  0  0  0  0  0  0
   -4.1292    8.5424   -0.3187 H   0  0  0  0  0  0  0  0  0  0  0  0
   -5.4294    9.4086    0.5925 H   0  0  0  0  0  0  0  0  0  0  0  0
   -2.7564    9.8785    2.7026 H   0  0  0  0  0  0  0  0  0  0  0  0
   -2.1832    8.5609    4.6819 H   0  0  0  0  0  0  0  0  0  0  0  0
   -6.0484    0.3813    6.3935 H   0  0  0  0  0  0  0  0  0  0  0  0
   -6.0335   -0.0701    8.8177 H   0  0  0  0  0  0  0  0  0  0  0  0
   -3.8908   -0.1835   10.0524 H   0  0  0  0  0  0  0  0  0  0  0  0
   -1.7551    0.1340    8.8688 H   0  0  0  0  0  0  0  0  0  0  0  0
   -1.4149    1.1701    5.2866 H   0  0  0  0  0  0  0  0  0  0  0  0
   -0.6460    1.2105    6.8885 H   0  0  0  0  0  0  0  0  0  0  0  0
   -1.3484   -1.3693    5.3447 H   0  0  0  0  0  0  0  0  0  0  0  0
    0.2726   -0.5941    5.4190 H   0  0  0  0  0  0  0  0  0  0  0  0
   -0.4675   -1.2692    6.9193 H   0  0  0  0  0  0  0  0  0  0  0  0
    5.2022   -5.9436   -5.7815 H   0  0  0  0  0  0  0  0  0  0  0  0
    4.0804   -4.6098   -5.4172 H   0  0  0  0  0  0  0  0  0  0  0  0
    2.7141   -6.1009   -3.9565 H   0  0  0  0  0  0  0  0  0  0  0  0
    2.9255   -6.8322   -5.5923 H   0  0  0  0  0  0  0  0  0  0  0  0
    3.8991   -7.4500   -4.2031 H   0  0  0  0  0  0  0  0  0  0  0  0
    6.8408   -6.7172   -4.1779 H   0  0  0  0  0  0  0  0  0  0  0  0
    8.1347   -6.3215   -2.1226 H   0  0  0  0  0  0  0  0  0  0  0  0
    7.3940   -4.6149   -0.4878 H   0  0  0  0  0  0  0  0  0  0  0  0
    5.3588   -3.2964   -0.9096 H   0  0  0  0  0  0  0  0  0  0  0  0
   -2.3017    1.3920    0.1869 H   0  0  0  0  0  0  0  0  0  0  0  0
   -1.2828    0.3998   -0.8351 H   0  0  0  0  0  0  0  0  0  0  0  0
   -0.8300    0.6391    2.1922 H   0  0  0  0  0  0  0  0  0  0  0  0
    0.2022   -0.2370    0.9961 H   0  0  0  0  0  0  0  0  0  0  0  0
    0.0425    1.5588    0.9105 H   0  0  0  0  0  0  0  0  0  0  0  0
   -0.7221   -0.5484   -3.0981 H   0  0  0  0  0  0  0  0  0  0  0  0
   -2.2845   -0.8739   -2.2484 H   0  0  0  0  0  0  0  0  0  0  0  0
   -0.9385   -2.7761   -4.2447 H   0  0  0  0  0  0  0  0  0  0  0  0
   -2.4573   -3.0974   -3.3116 H   0  0  0  0  0  0  0  0  0  0  0  0
   -2.3976   -1.7568   -4.5180 H   0  0  0  0  0  0  0  0  0  0  0  0
    5.3746   -2.4512   -5.1815 H   0  0  0  0  0  0  0  0  0  0  0  0
    3.0346    3.4058   -4.7450 H   0  0  0  0  0  0  0  0  0  0  0  0
    3.6105    4.9080   -6.5997 H   0  0  0  0  0  0  0  0  0  0  0  0
  1  2  2  3
  2  3  1  0
  3  4  2  0
  3  5  1  0
  5  6  2  0
  6  7  1  0
  7  8  1  0
  7  9  2  0
  9 10  1  0
 10 11  2  0
 11 12  1  0
 12 13  2  3
 13 14  1  0
 14 15  3  0
 13 16  1  0
 16 17  3  0
  1 18  1  0
 18 19  2  0
 19 20  1  0
 20 21  2  0
 21 22  1  0
 22 23  2  0
 23 24  1  0
 24 25  2  0
 25 26  1  0
 26 27  1  0
 19 28  1  0
 28 29  1  0
 29 30  1  0
 30 31  1  0
 31 32  1  0
 32 33  1  0
 33 34  2  0
 34 35  1  0
 35 36  1  0
 33 37  1  0
 37 38  1  0
 38 39  1  0
 39 40  1  0
 40 41  1  0
 41 42  1  0
 42 43  2  0
 43 44  1  0
 44 45  1  0
 43 46  1  0
 46 47  2  0
 47 48  1  0
 48 49  2  0
 41 50  2  0
 50 51  1  0
 51 52  1  0
 52 53  1  0
 53 54  1  0
 54 55  1  0
 55 56  1  0
 56 57  1  0
 57 58  1  0
 58 59  1  0
 59 60  1  0
 57 61  1  0
 61 62  1  0
 54 63  1  0
 63 64  1  0
 50 65  1  0
 65 66  2  3
 66 67  1  0
 67 68  2  0
 67 69  1  0
 69 70  2  0
 70 71  1  0
 71 72  2  0
 72 73  1  0
 73 74  1  0
 73 75  2  0
 75 76  1  0
 70 77  1  0
 77 78  2  3
 78 79  1  0
 79 80  3  0
 78 81  1  0
 81 82  3  0
 12  2  1  0
 60 18  1  0
 77 66  1  0
 11  5  1  0
 25 20  1  0
 59 28  2  0
 75 69  1  0
 58 30  2  0
 56 31  2  0
 36 32  2  0
 55 37  2  0
 53 38  2  0
 52 40  2  0
 49 42  1  0
  1 83  1  0
  6 84  1  0
  8 85  1  0
  8 86  1  0
  8 87  1  0
  9 88  1  0
 10 89  1  0
 21 90  1  0
 22 91  1  0
 23 92  1  0
 24 93  1  0
 26 94  1  0
 26 95  1  0
 27 96  1  0
 27 97  1  0
 27 98  1  0
 44 99  1  0
 44100  1  0
 45101  1  0
 45102  1  0
 45103  1  0
 46104  1  0
 47105  1  0
 48106  1  0
 49107  1  0
 61108  1  0
 61109  1  0
 62110  1  0
 62111  1  0
 62112  1  0
 63113  1  0
 63114  1  0
 64115  1  0
 64116  1  0
 64117  1  0
 65118  1  0
 71119  1  0
 72120  1  0
M  END

