
     RDKit          3D

 50 56  0  0  0  0  0  0  0  0999 V2000
   -2.1398    1.5357   -1.6660 C   0  0  0  0  0  0  0  0  0  0  0  0
   -1.9911    2.5077   -0.7490 C   0  0  0  0  0  0  0  0  0  0  0  0
   -3.1015    3.3499   -0.3063 C   0  0  0  0  0  0  0  0  0  0  0  0
   -4.2054    3.4945   -0.8965 O   0  0  0  0  0  0  0  0  0  0  0  0
   -2.7568    3.9067    0.9864 C   0  0  0  0  0  0  0  0  0  0  0  0
   -3.5610    4.6439    1.8549 C   0  0  0  0  0  0  0  0  0  0  0  0
   -3.0421    5.0017    3.1130 C   0  0  0  0  0  0  0  0  0  0  0  0
   -3.8915    5.7600    4.0886 C   0  0  0  0  0  0  0  0  0  0  0  0
   -1.7525    4.5646    3.4864 C   0  0  0  0  0  0  0  0  0  0  0  0
   -0.9642    3.8157    2.5979 C   0  0  0  0  0  0  0  0  0  0  0  0
   -1.4744    3.5133    1.3278 C   0  0  0  0  0  0  0  0  0  0  0  0
   -0.8694    2.7509    0.2039 C   0  0  0  0  0  0  0  0  0  0  0  0
    0.4521    2.7060   -0.0987 C   0  0  0  0  0  0  0  0  0  0  0  0
    0.9160    2.3869   -1.4259 C   0  0  0  0  0  0  0  0  0  0  0  0
    1.2950    2.1359   -2.4905 N   0  0  0  0  0  0  0  0  0  0  0  0
    1.4704    3.1344    0.8245 C   0  0  0  0  0  0  0  0  0  0  0  0
    2.2983    3.4772    1.5573 N   0  0  0  0  0  0  0  0  0  0  0  0
   -1.2857    0.3405   -1.7745 C   0  0  0  0  0  0  0  0  0  0  0  0
   -1.1010   -0.3856   -2.9520 C   0  0  0  0  0  0  0  0  0  0  0  0
   -0.3252   -1.5343   -2.7566 C   0  0  0  0  0  0  0  0  0  0  0  0
    0.0614   -2.4700   -3.7314 C   0  0  0  0  0  0  0  0  0  0  0  0
    0.8576   -3.6003   -3.3507 C   0  0  0  0  0  0  0  0  0  0  0  0
    1.1990   -4.4661   -4.3378 N   0  0  0  0  0  0  0  0  0  0  0  0
    0.4644   -3.7346   -5.6288 S   0  0  0  0  0  0  0  0  0  0  0  0
   -0.2746   -2.3741   -5.0422 N   0  0  0  0  0  0  0  0  0  0  0  0
    1.2390   -3.7592   -2.0073 C   0  0  0  0  0  0  0  0  0  0  0  0
    2.0086   -4.7965   -1.4668 C   0  0  0  0  0  0  0  0  0  0  0  0
    2.2048   -4.6540   -0.0892 C   0  0  0  0  0  0  0  0  0  0  0  0
    1.4255   -3.2478    0.4495 S   0  0  0  0  0  0  0  0  0  0  0  0
    0.8387   -2.8176   -1.0623 C   0  0  0  0  0  0  0  0  0  0  0  0
    0.0667   -1.7179   -1.4325 C   0  0  0  0  0  0  0  0  0  0  0  0
   -0.5386   -0.4734   -0.4844 S   0  0  0  0  0  0  0  0  0  0  0  0
    2.9665   -5.5721    0.7737 C   0  0  0  0  0  0  0  0  0  0  0  0
    3.6193   -6.7350    0.3684 C   0  0  0  0  0  0  0  0  0  0  0  0
    4.2623   -7.4042    1.4167 C   0  0  0  0  0  0  0  0  0  0  0  0
    4.1133   -6.7668    2.6394 C   0  0  0  0  0  0  0  0  0  0  0  0
    4.6597   -7.2173    3.8887 C   0  0  0  0  0  0  0  0  0  0  0  0
    5.1000   -7.5803    4.8954 N   0  0  0  0  0  0  0  0  0  0  0  0
    3.1906   -5.3793    2.4334 S   0  0  0  0  0  0  0  0  0  0  0  0
   -3.0204    1.5522   -2.2971 H   0  0  0  0  0  0  0  0  0  0  0  0
   -4.5681    4.9196    1.5671 H   0  0  0  0  0  0  0  0  0  0  0  0
   -3.2589    6.3856    4.7537 H   0  0  0  0  0  0  0  0  0  0  0  0
   -4.4712    5.0440    4.7078 H   0  0  0  0  0  0  0  0  0  0  0  0
   -4.5970    6.4314    3.5542 H   0  0  0  0  0  0  0  0  0  0  0  0
   -1.3636    4.7941    4.4708 H   0  0  0  0  0  0  0  0  0  0  0  0
   -0.0011    3.4576    2.9256 H   0  0  0  0  0  0  0  0  0  0  0  0
   -1.5124   -0.0906   -3.9091 H   0  0  0  0  0  0  0  0  0  0  0  0
    2.4043   -5.6140   -2.0547 H   0  0  0  0  0  0  0  0  0  0  0  0
    3.6354   -7.0958   -0.6510 H   0  0  0  0  0  0  0  0  0  0  0  0
    4.8174   -8.3237    1.2827 H   0  0  0  0  0  0  0  0  0  0  0  0
  1  2  2  3
  2  3  1  0
  3  4  2  0
  3  5  1  0
  5  6  2  0
  6  7  1  0
  7  8  1  0
  7  9  2  0
  9 10  1  0
 10 11  2  0
 11 12  1  0
 12 13  2  3
 13 14  1  0
 14 15  3  0
 13 16  1  0
 16 17  3  0
  1 18  1  0
 18 19  2  0
 19 20  1  0
 20 21  1  0
 21 22  1  0
 22 23  2  0
 23 24  1  0
 24 25  1  0
 22 26  1  0
 26 27  1  0
 27 28  2  0
 28 29  1  0
 29 30  1  0
 30 31  1  0
 31 32  1  0
 28 33  1  0
 33 34  2  0
 34 35  1  0
 35 36  2  0
 36 37  1  0
 37 38  3  0
 36 39  1  0
 12  2  1  0
 32 18  1  0
 39 33  1  0
 11  5  1  0
 31 20  2  0
 25 21  2  0
 30 26  2  0
  1 40  1  0
  6 41  1  0
  8 42  1  0
  8 43  1  0
  8 44  1  0
  9 45  1  0
 10 46  1  0
 19 47  1  0
 27 48  1  0
 34 49  1  0
 35 50  1  0
M  END

