
     RDKit          3D

 99109  0  0  0  0  0  0  0  0999 V2000
   -4.0559   -0.9407    5.4676 C   0  0  0  0  0  0  0  0  0  0  0  0
   -5.3416   -0.9292    5.0621 C   0  0  0  0  0  0  0  0  0  0  0  0
   -5.8228   -0.4267    3.7687 C   0  0  0  0  0  0  0  0  0  0  0  0
   -5.1868    0.3086    2.9669 O   0  0  0  0  0  0  0  0  0  0  0  0
   -7.1772   -0.8865    3.5757 C   0  0  0  0  0  0  0  0  0  0  0  0
   -8.0598   -0.6270    2.5251 C   0  0  0  0  0  0  0  0  0  0  0  0
   -9.3666   -1.1401    2.6084 C   0  0  0  0  0  0  0  0  0  0  0  0
  -10.3642   -0.7978    1.5392 C   0  0  0  0  0  0  0  0  0  0  0  0
   -9.7472   -1.9247    3.7251 C   0  0  0  0  0  0  0  0  0  0  0  0
   -8.8288   -2.1888    4.7587 C   0  0  0  0  0  0  0  0  0  0  0  0
   -7.5413   -1.6588    4.6629 C   0  0  0  0  0  0  0  0  0  0  0  0
   -6.4730   -1.6864    5.6791 C   0  0  0  0  0  0  0  0  0  0  0  0
   -6.2869   -2.7280    6.4996 C   0  0  0  0  0  0  0  0  0  0  0  0
   -5.6890   -2.5337    7.7932 C   0  0  0  0  0  0  0  0  0  0  0  0
   -5.2263   -2.3617    8.8402 N   0  0  0  0  0  0  0  0  0  0  0  0
   -6.4176   -4.0708    5.9933 C   0  0  0  0  0  0  0  0  0  0  0  0
   -6.4712   -5.1405    5.5626 N   0  0  0  0  0  0  0  0  0  0  0  0
   -2.9562   -0.8005    4.5005 C   0  0  0  0  0  0  0  0  0  0  0  0
   -2.6706   -1.7544    3.5229 C   0  0  0  0  0  0  0  0  0  0  0  0
   -1.6128   -1.3410    2.7325 C   0  0  0  0  0  0  0  0  0  0  0  0
   -0.8242   -2.0633    1.4470 S   0  0  0  0  0  0  0  0  0  0  0  0
    0.2326   -0.7441    1.2265 C   0  0  0  0  0  0  0  0  0  0  0  0
    1.2528   -0.6340    0.2670 C   0  0  0  0  0  0  0  0  0  0  0  0
    1.6305   -1.7781   -0.5608 C   0  0  0  0  0  0  0  0  0  0  0  0
    2.6984   -2.6236   -0.2989 C   0  0  0  0  0  0  0  0  0  0  0  0
    2.8598   -3.6192   -1.2667 C   0  0  0  0  0  0  0  0  0  0  0  0
    1.9350   -3.5317   -2.3005 C   0  0  0  0  0  0  0  0  0  0  0  0
    1.8473   -4.4535   -3.4751 C   0  0  0  0  0  0  0  0  0  0  0  0
    0.6566   -5.3926   -3.3164 C   0  0  0  0  0  0  0  0  0  0  0  0
    0.8994   -2.2384   -2.0010 S   0  0  0  0  0  0  0  0  0  0  0  0
    2.0105    0.5424    0.2679 C   0  0  0  0  0  0  0  0  0  0  0  0
    1.7847    1.5604    1.2124 C   0  0  0  0  0  0  0  0  0  0  0  0
    0.7816    1.4540    2.2005 C   0  0  0  0  0  0  0  0  0  0  0  0
    0.6375    2.4917    3.2382 C   0  0  0  0  0  0  0  0  0  0  0  0
   -0.4863    3.2787    3.4598 C   0  0  0  0  0  0  0  0  0  0  0  0
   -0.3193    4.1799    4.5151 C   0  0  0  0  0  0  0  0  0  0  0  0
    0.9336    4.1044    5.1111 C   0  0  0  0  0  0  0  0  0  0  0  0
    1.4194    4.9377    6.2554 C   0  0  0  0  0  0  0  0  0  0  0  0
    1.5566    4.0986    7.5238 C   0  0  0  0  0  0  0  0  0  0  0  0
    1.8416    2.9241    4.3294 S   0  0  0  0  0  0  0  0  0  0  0  0
   -0.0085    0.2698    2.1805 C   0  0  0  0  0  0  0  0  0  0  0  0
   -1.0739   -0.1155    3.0260 C   0  0  0  0  0  0  0  0  0  0  0  0
   -1.8892    0.5317    4.3534 S   0  0  0  0  0  0  0  0  0  0  0  0
    2.8512    2.8644    0.9278 S   0  0  0  0  0  0  0  0  0  0  0  0
    3.5687    2.1428   -0.4123 C   0  0  0  0  0  0  0  0  0  0  0  0
    4.5294    2.5409   -1.3430 C   0  0  0  0  0  0  0  0  0  0  0  0
    4.6734    1.5639   -2.3363 C   0  0  0  0  0  0  0  0  0  0  0  0
    3.6617    0.2354   -2.0212 S   0  0  0  0  0  0  0  0  0  0  0  0
    3.0099    0.9211   -0.6355 C   0  0  0  0  0  0  0  0  0  0  0  0
    5.6922    1.5619   -3.3814 C   0  0  0  0  0  0  0  0  0  0  0  0
    5.4262    1.3240   -4.6761 C   0  0  0  0  0  0  0  0  0  0  0  0
    6.4338    0.8035   -5.6134 C   0  0  0  0  0  0  0  0  0  0  0  0
    7.6459    0.5753   -5.3681 O   0  0  0  0  0  0  0  0  0  0  0  0
    5.7744    0.5145   -6.8757 C   0  0  0  0  0  0  0  0  0  0  0  0
    6.2565   -0.1534   -7.9999 C   0  0  0  0  0  0  0  0  0  0  0  0
    5.3685   -0.4220   -9.0682 C   0  0  0  0  0  0  0  0  0  0  0  0
    5.8172   -1.1688  -10.2536 C   0  0  0  0  0  0  0  0  0  0  0  0
    5.0596   -1.2726  -11.2584 O   0  0  0  0  0  0  0  0  0  0  0  0
    7.0811   -1.7780  -10.2546 O   0  0  0  0  0  0  0  0  0  0  0  0
    7.5956   -2.4239  -11.4188 C   0  0  0  0  0  0  0  0  0  0  0  0
    4.0178   -0.0200   -8.9598 C   0  0  0  0  0  0  0  0  0  0  0  0
    3.5588    0.6325   -7.8123 C   0  0  0  0  0  0  0  0  0  0  0  0
    4.4606    0.9126   -6.7868 C   0  0  0  0  0  0  0  0  0  0  0  0
    4.1487    1.4879   -5.4643 C   0  0  0  0  0  0  0  0  0  0  0  0
    3.2773    2.5070   -5.2729 C   0  0  0  0  0  0  0  0  0  0  0  0
    2.4007    2.5118   -4.1235 C   0  0  0  0  0  0  0  0  0  0  0  0
    1.6535    2.5137   -3.2385 N   0  0  0  0  0  0  0  0  0  0  0  0
    2.8206    3.3140   -6.3822 C   0  0  0  0  0  0  0  0  0  0  0  0
    2.5131    3.9764   -7.2805 N   0  0  0  0  0  0  0  0  0  0  0  0
   -3.7937   -1.3370    6.4370 H   0  0  0  0  0  0  0  0  0  0  0  0
   -7.7497   -0.0091    1.6926 H   0  0  0  0  0  0  0  0  0  0  0  0
  -11.2167   -1.5139    1.5438 H   0  0  0  0  0  0  0  0  0  0  0  0
   -9.8790   -0.8366    0.5417 H   0  0  0  0  0  0  0  0  0  0  0  0
  -10.7539    0.2270    1.7189 H   0  0  0  0  0  0  0  0  0  0  0  0
  -10.7524   -2.3104    3.8016 H   0  0  0  0  0  0  0  0  0  0  0  0
   -9.1236   -2.7768    5.6158 H   0  0  0  0  0  0  0  0  0  0  0  0
   -3.2028   -2.6903    3.3941 H   0  0  0  0  0  0  0  0  0  0  0  0
    3.3373   -2.5294    0.5713 H   0  0  0  0  0  0  0  0  0  0  0  0
    3.6308   -4.3809   -1.2105 H   0  0  0  0  0  0  0  0  0  0  0  0
    2.7769   -5.0534   -3.5632 H   0  0  0  0  0  0  0  0  0  0  0  0
    1.7247   -3.8609   -4.3977 H   0  0  0  0  0  0  0  0  0  0  0  0
   -0.2875   -4.8194   -3.3242 H   0  0  0  0  0  0  0  0  0  0  0  0
    0.6395   -6.1245   -4.1480 H   0  0  0  0  0  0  0  0  0  0  0  0
    0.7304   -5.9476   -2.3603 H   0  0  0  0  0  0  0  0  0  0  0  0
   -1.3966    3.2119    2.8817 H   0  0  0  0  0  0  0  0  0  0  0  0
   -1.0818    4.8701    4.8376 H   0  0  0  0  0  0  0  0  0  0  0  0
    2.4127    5.3788    5.9980 H   0  0  0  0  0  0  0  0  0  0  0  0
    0.7142    5.7744    6.4446 H   0  0  0  0  0  0  0  0  0  0  0  0
    1.9656    4.7427    8.3422 H   0  0  0  0  0  0  0  0  0  0  0  0
    2.2555    3.2424    7.3622 H   0  0  0  0  0  0  0  0  0  0  0  0
    0.5579    3.7121    7.8346 H   0  0  0  0  0  0  0  0  0  0  0  0
    5.0871    3.4666   -1.2904 H   0  0  0  0  0  0  0  0  0  0  0  0
    6.7257    1.4990   -3.0526 H   0  0  0  0  0  0  0  0  0  0  0  0
    7.2848   -0.4781   -8.0330 H   0  0  0  0  0  0  0  0  0  0  0  0
    8.6074   -2.8069  -11.1985 H   0  0  0  0  0  0  0  0  0  0  0  0
    6.9395   -3.2800  -11.7175 H   0  0  0  0  0  0  0  0  0  0  0  0
    7.6503   -1.6930  -12.2613 H   0  0  0  0  0  0  0  0  0  0  0  0
    3.3059   -0.2321   -9.7517 H   0  0  0  0  0  0  0  0  0  0  0  0
    2.5161    0.9021   -7.7295 H   0  0  0  0  0  0  0  0  0  0  0  0
  1  2  2  3
  2  3  1  0
  3  4  2  0
  3  5  1  0
  5  6  2  0
  6  7  1  0
  7  8  1  0
  7  9  2  0
  9 10  1  0
 10 11  2  0
 11 12  1  0
 12 13  2  3
 13 14  1  0
 14 15  3  0
 13 16  1  0
 16 17  3  0
  1 18  1  0
 18 19  2  0
 19 20  1  0
 20 21  1  0
 21 22  1  0
 22 23  2  0
 23 24  1  0
 24 25  2  0
 25 26  1  0
 26 27  2  0
 27 28  1  0
 28 29  1  0
 27 30  1  0
 23 31  1  0
 31 32  2  0
 32 33  1  0
 33 34  1  0
 34 35  2  0
 35 36  1  0
 36 37  2  0
 37 38  1  0
 38 39  1  0
 37 40  1  0
 33 41  2  0
 41 42  1  0
 42 43  1  0
 32 44  1  0
 44 45  1  0
 45 46  1  0
 46 47  2  0
 47 48  1  0
 48 49  1  0
 47 50  1  0
 50 51  2  3
 51 52  1  0
 52 53  2  0
 52 54  1  0
 54 55  2  0
 55 56  1  0
 56 57  1  0
 57 58  2  0
 57 59  1  0
 59 60  1  0
 56 61  2  0
 61 62  1  0
 62 63  2  0
 63 64  1  0
 64 65  2  3
 65 66  1  0
 66 67  3  0
 65 68  1  0
 68 69  3  0
 12  2  1  0
 43 18  1  0
 49 45  2  0
 64 51  1  0
 11  5  1  0
 42 20  2  0
 63 54  1  0
 41 22  1  0
 30 24  1  0
 49 31  1  0
 40 34  1  0
  1 70  1  0
  6 71  1  0
  8 72  1  0
  8 73  1  0
  8 74  1  0
  9 75  1  0
 10 76  1  0
 19 77  1  0
 25 78  1  0
 26 79  1  0
 28 80  1  0
 28 81  1  0
 29 82  1  0
 29 83  1  0
 29 84  1  0
 35 85  1  0
 36 86  1  0
 38 87  1  0
 38 88  1  0
 39 89  1  0
 39 90  1  0
 39 91  1  0
 46 92  1  0
 50 93  1  0
 55 94  1  0
 60 95  1  0
 60 96  1  0
 60 97  1  0
 61 98  1  0
 62 99  1  0
M  END

