
     RDKit          3D

100111  0  0  0  0  0  0  0  0999 V2000
    7.6971   -0.2436   -0.4715 C   0  0  0  0  0  0  0  0  0  0  0  0
    8.6283    0.0903   -1.3848 C   0  0  0  0  0  0  0  0  0  0  0  0
    8.5100    1.1996   -2.3373 C   0  0  0  0  0  0  0  0  0  0  0  0
    7.4871    1.9102   -2.5356 O   0  0  0  0  0  0  0  0  0  0  0  0
    9.7543    1.3206   -3.0629 C   0  0  0  0  0  0  0  0  0  0  0  0
   10.0622    2.2139   -4.0907 C   0  0  0  0  0  0  0  0  0  0  0  0
   11.3039    2.0944   -4.7375 C   0  0  0  0  0  0  0  0  0  0  0  0
   11.6899    3.0555   -5.8225 C   0  0  0  0  0  0  0  0  0  0  0  0
   12.2045    1.0894   -4.3331 C   0  0  0  0  0  0  0  0  0  0  0  0
   11.8698    0.2005   -3.3000 C   0  0  0  0  0  0  0  0  0  0  0  0
   10.6372    0.3405   -2.6425 C   0  0  0  0  0  0  0  0  0  0  0  0
   10.0018   -0.4922   -1.5725 C   0  0  0  0  0  0  0  0  0  0  0  0
   10.5717   -1.5346   -0.9053 C   0  0  0  0  0  0  0  0  0  0  0  0
   11.9735   -1.8511   -1.0056 C   0  0  0  0  0  0  0  0  0  0  0  0
   13.0973   -2.1228   -1.0699 N   0  0  0  0  0  0  0  0  0  0  0  0
    9.8353   -2.4266   -0.0519 C   0  0  0  0  0  0  0  0  0  0  0  0
    9.2623   -3.1674    0.6304 N   0  0  0  0  0  0  0  0  0  0  0  0
    6.4259    0.4718   -0.3060 C   0  0  0  0  0  0  0  0  0  0  0  0
    6.2336    1.6079    0.5085 C   0  0  0  0  0  0  0  0  0  0  0  0
    7.3287    2.3972    1.1732 C   0  0  0  0  0  0  0  0  0  0  0  0
    7.4821    3.7743    0.5327 C   0  0  0  0  0  0  0  0  0  0  0  0
    4.8719    1.8532    0.6954 C   0  0  0  0  0  0  0  0  0  0  0  0
    3.9911    2.9700    1.6467 S   0  0  0  0  0  0  0  0  0  0  0  0
    2.5318    2.2097    1.2259 C   0  0  0  0  0  0  0  0  0  0  0  0
    1.1839    2.3656    1.3840 C   0  0  0  0  0  0  0  0  0  0  0  0
    0.4273    3.3561    2.0159 C   0  0  0  0  0  0  0  0  0  0  0  0
   -0.9959    3.2847    1.9321 C   0  0  0  0  0  0  0  0  0  0  0  0
   -1.6975    4.2505    2.5746 N   0  0  0  0  0  0  0  0  0  0  0  0
   -0.4447    5.1473    3.1831 S   0  0  0  0  0  0  0  0  0  0  0  0
    0.9548    4.3962    2.7064 N   0  0  0  0  0  0  0  0  0  0  0  0
   -1.5798    2.2083    1.2503 C   0  0  0  0  0  0  0  0  0  0  0  0
   -2.8685    1.7602    1.2327 C   0  0  0  0  0  0  0  0  0  0  0  0
   -4.3357    2.1627    1.9843 S   0  0  0  0  0  0  0  0  0  0  0  0
   -4.9769    0.6263    1.6124 C   0  0  0  0  0  0  0  0  0  0  0  0
   -6.1844   -0.0046    1.9165 C   0  0  0  0  0  0  0  0  0  0  0  0
   -7.2891    0.6336    2.7133 C   0  0  0  0  0  0  0  0  0  0  0  0
   -7.1487    0.2969    4.1934 C   0  0  0  0  0  0  0  0  0  0  0  0
   -6.1589   -1.3475    1.4962 C   0  0  0  0  0  0  0  0  0  0  0  0
   -4.6483   -1.7207    0.8027 S   0  0  0  0  0  0  0  0  0  0  0  0
   -4.0498   -0.1657    0.9821 C   0  0  0  0  0  0  0  0  0  0  0  0
   -2.8470    0.4908    0.7513 C   0  0  0  0  0  0  0  0  0  0  0  0
   -1.5953    0.0709    0.4281 N   0  0  0  0  0  0  0  0  0  0  0  0
   -0.8153    1.1760    0.6779 C   0  0  0  0  0  0  0  0  0  0  0  0
    0.5966    1.3162    0.6574 C   0  0  0  0  0  0  0  0  0  0  0  0
    1.5476    0.6042   -0.0288 N   0  0  0  0  0  0  0  0  0  0  0  0
    2.7098    1.1578    0.3943 C   0  0  0  0  0  0  0  0  0  0  0  0
    4.0399    0.9601    0.0729 C   0  0  0  0  0  0  0  0  0  0  0  0
    4.9216   -0.2109   -0.7338 S   0  0  0  0  0  0  0  0  0  0  0  0
    1.3949   -0.0509   -1.3330 C   0  0  0  0  0  0  0  0  0  0  0  0
    1.6472    0.9359   -2.4729 C   0  0  0  0  0  0  0  0  0  0  0  0
   -1.1739   -1.3376    0.3992 C   0  0  0  0  0  0  0  0  0  0  0  0
   -1.6023   -2.0260   -0.9032 C   0  0  0  0  0  0  0  0  0  0  0  0
   -7.2227   -2.3408    1.6952 C   0  0  0  0  0  0  0  0  0  0  0  0
   -8.4235   -2.2673    1.0921 C   0  0  0  0  0  0  0  0  0  0  0  0
   -8.7651   -1.3681   -0.0176 C   0  0  0  0  0  0  0  0  0  0  0  0
   -8.0984   -0.3734   -0.4098 O   0  0  0  0  0  0  0  0  0  0  0  0
   -9.9642   -1.8660   -0.6558 C   0  0  0  0  0  0  0  0  0  0  0  0
  -10.5981   -1.3750   -1.7984 C   0  0  0  0  0  0  0  0  0  0  0  0
  -11.7097   -2.0685   -2.2939 C   0  0  0  0  0  0  0  0  0  0  0  0
  -12.3438   -1.6196   -3.4059 F   0  0  0  0  0  0  0  0  0  0  0  0
  -12.1545   -3.2416   -1.6552 C   0  0  0  0  0  0  0  0  0  0  0  0
  -13.2169   -3.9226   -2.1542 F   0  0  0  0  0  0  0  0  0  0  0  0
  -11.5028   -3.7177   -0.5046 C   0  0  0  0  0  0  0  0  0  0  0  0
  -10.4065   -3.0001    0.0053 C   0  0  0  0  0  0  0  0  0  0  0  0
   -9.5346   -3.2618    1.1870 C   0  0  0  0  0  0  0  0  0  0  0  0
   -9.8169   -4.0584    2.2500 C   0  0  0  0  0  0  0  0  0  0  0  0
   -9.0433   -4.0191    3.4645 C   0  0  0  0  0  0  0  0  0  0  0  0
   -8.4275   -3.9915    4.4448 N   0  0  0  0  0  0  0  0  0  0  0  0
  -10.9774   -4.9093    2.3001 C   0  0  0  0  0  0  0  0  0  0  0  0
  -11.9071   -5.5961    2.3609 N   0  0  0  0  0  0  0  0  0  0  0  0
    7.8481   -1.0412    0.2268 H   0  0  0  0  0  0  0  0  0  0  0  0
    9.3512    2.9751   -4.3872 H   0  0  0  0  0  0  0  0  0  0  0  0
   12.3589    2.5638   -6.5601 H   0  0  0  0  0  0  0  0  0  0  0  0
   10.7897    3.4156   -6.3625 H   0  0  0  0  0  0  0  0  0  0  0  0
   12.2166    3.9248   -5.3777 H   0  0  0  0  0  0  0  0  0  0  0  0
   13.1644    0.9895   -4.8263 H   0  0  0  0  0  0  0  0  0  0  0  0
   12.5696   -0.5797   -3.0655 H   0  0  0  0  0  0  0  0  0  0  0  0
    8.2968    1.8574    1.1021 H   0  0  0  0  0  0  0  0  0  0  0  0
    7.0908    2.5146    2.2525 H   0  0  0  0  0  0  0  0  0  0  0  0
    8.3203    4.3182    1.0213 H   0  0  0  0  0  0  0  0  0  0  0  0
    6.5546    4.3679    0.6684 H   0  0  0  0  0  0  0  0  0  0  0  0
    7.7064    3.6770   -0.5511 H   0  0  0  0  0  0  0  0  0  0  0  0
   -8.2778    0.2835    2.3513 H   0  0  0  0  0  0  0  0  0  0  0  0
   -7.2583    1.7366    2.5843 H   0  0  0  0  0  0  0  0  0  0  0  0
   -6.1569    0.6262    4.5724 H   0  0  0  0  0  0  0  0  0  0  0  0
   -7.9418    0.8188    4.7713 H   0  0  0  0  0  0  0  0  0  0  0  0
   -7.2571   -0.7972    4.3486 H   0  0  0  0  0  0  0  0  0  0  0  0
    2.0975   -0.9051   -1.4090 H   0  0  0  0  0  0  0  0  0  0  0  0
    0.3752   -0.4275   -1.4708 H   0  0  0  0  0  0  0  0  0  0  0  0
    0.9034    1.7582   -2.4307 H   0  0  0  0  0  0  0  0  0  0  0  0
    2.6679    1.3641   -2.4080 H   0  0  0  0  0  0  0  0  0  0  0  0
    1.5458    0.4115   -3.4461 H   0  0  0  0  0  0  0  0  0  0  0  0
   -0.0758   -1.4210    0.5306 H   0  0  0  0  0  0  0  0  0  0  0  0
   -1.6146   -1.8747    1.2682 H   0  0  0  0  0  0  0  0  0  0  0  0
   -1.8003   -1.2881   -1.7102 H   0  0  0  0  0  0  0  0  0  0  0  0
   -2.5166   -2.6300   -0.7430 H   0  0  0  0  0  0  0  0  0  0  0  0
   -0.7995   -2.7155   -1.2408 H   0  0  0  0  0  0  0  0  0  0  0  0
   -6.9578   -3.2144    2.2692 H   0  0  0  0  0  0  0  0  0  0  0  0
  -10.2304   -0.4889   -2.3045 H   0  0  0  0  0  0  0  0  0  0  0  0
  -11.8401   -4.6402   -0.0652 H   0  0  0  0  0  0  0  0  0  0  0  0
  1  2  2  3
  2  3  1  0
  3  4  2  0
  3  5  1  0
  5  6  2  0
  6  7  1  0
  7  8  1  0
  7  9  2  0
  9 10  1  0
 10 11  2  0
 11 12  1  0
 12 13  2  3
 13 14  1  0
 14 15  3  0
 13 16  1  0
 16 17  3  0
  1 18  1  0
 18 19  2  0
 19 20  1  0
 20 21  1  0
 19 22  1  0
 22 23  1  0
 23 24  1  0
 24 25  1  0
 25 26  1  0
 26 27  1  0
 27 28  2  0
 28 29  1  0
 29 30  1  0
 27 31  1  0
 31 32  1  0
 32 33  1  0
 33 34  1  0
 34 35  1  0
 35 36  1  0
 36 37  1  0
 35 38  2  0
 38 39  1  0
 39 40  1  0
 40 41  1  0
 41 42  1  0
 42 43  1  0
 43 44  1  0
 44 45  1  0
 45 46  1  0
 46 47  1  0
 47 48  1  0
 45 49  1  0
 49 50  1  0
 42 51  1  0
 51 52  1  0
 38 53  1  0
 53 54  2  3
 54 55  1  0
 55 56  2  0
 55 57  1  0
 57 58  2  0
 58 59  1  0
 59 60  1  0
 59 61  2  0
 61 62  1  0
 61 63  1  0
 63 64  2  0
 64 65  1  0
 65 66  2  3
 66 67  1  0
 67 68  3  0
 66 69  1  0
 69 70  3  0
 12  2  1  0
 48 18  1  0
 65 54  1  0
 11  5  1  0
 47 22  2  0
 64 57  1  0
 46 24  2  0
 44 25  2  0
 30 26  2  0
 43 31  2  0
 41 32  2  0
 40 34  2  0
  1 71  1  0
  6 72  1  0
  8 73  1  0
  8 74  1  0
  8 75  1  0
  9 76  1  0
 10 77  1  0
 20 78  1  0
 20 79  1  0
 21 80  1  0
 21 81  1  0
 21 82  1  0
 36 83  1  0
 36 84  1  0
 37 85  1  0
 37 86  1  0
 37 87  1  0
 49 88  1  0
 49 89  1  0
 50 90  1  0
 50 91  1  0
 50 92  1  0
 51 93  1  0
 51 94  1  0
 52 95  1  0
 52 96  1  0
 52 97  1  0
 53 98  1  0
 58 99  1  0
 63100  1  0
M  END

