
     RDKit          3D

103114  0  0  0  0  0  0  0  0999 V2000
   -3.2535   -5.0300   -3.5399 C   0  0  0  0  0  0  0  0  0  0  0  0
   -2.9213   -4.1264   -4.4845 C   0  0  0  0  0  0  0  0  0  0  0  0
   -3.0445   -4.4145   -5.9166 C   0  0  0  0  0  0  0  0  0  0  0  0
   -3.7210   -5.3439   -6.4289 O   0  0  0  0  0  0  0  0  0  0  0  0
   -2.2041   -3.4835   -6.6381 C   0  0  0  0  0  0  0  0  0  0  0  0
   -1.9581   -3.4237   -8.0109 C   0  0  0  0  0  0  0  0  0  0  0  0
   -1.0787   -2.4429   -8.5008 C   0  0  0  0  0  0  0  0  0  0  0  0
   -0.8276   -2.3367   -9.9753 C   0  0  0  0  0  0  0  0  0  0  0  0
   -0.4293   -1.5762   -7.5977 C   0  0  0  0  0  0  0  0  0  0  0  0
   -0.6573   -1.6786   -6.2145 C   0  0  0  0  0  0  0  0  0  0  0  0
   -1.5996   -2.6154   -5.7476 C   0  0  0  0  0  0  0  0  0  0  0  0
   -2.1277   -2.8575   -4.3795 C   0  0  0  0  0  0  0  0  0  0  0  0
   -2.2235   -1.9213   -3.3978 C   0  0  0  0  0  0  0  0  0  0  0  0
   -3.2053   -2.0088   -2.3443 C   0  0  0  0  0  0  0  0  0  0  0  0
   -3.9933   -2.0367   -1.4918 N   0  0  0  0  0  0  0  0  0  0  0  0
   -1.5316   -0.6608   -3.4585 C   0  0  0  0  0  0  0  0  0  0  0  0
   -0.9843    0.3582   -3.4886 N   0  0  0  0  0  0  0  0  0  0  0  0
   -2.8047   -5.0020   -2.1391 C   0  0  0  0  0  0  0  0  0  0  0  0
   -3.6246   -5.2682   -1.0218 C   0  0  0  0  0  0  0  0  0  0  0  0
   -5.0722   -5.6921   -1.0769 C   0  0  0  0  0  0  0  0  0  0  0  0
   -6.0073   -4.4963   -1.0946 C   0  0  0  0  0  0  0  0  0  0  0  0
   -2.9476   -4.9681    0.1601 C   0  0  0  0  0  0  0  0  0  0  0  0
   -3.5026   -4.5903    1.7327 S   0  0  0  0  0  0  0  0  0  0  0  0
   -1.9813   -3.9734    2.1509 C   0  0  0  0  0  0  0  0  0  0  0  0
   -1.4148   -3.2015    3.1202 C   0  0  0  0  0  0  0  0  0  0  0  0
   -1.9351   -2.7188    4.3207 C   0  0  0  0  0  0  0  0  0  0  0  0
   -1.1634   -1.7858    5.0701 C   0  0  0  0  0  0  0  0  0  0  0  0
   -1.7161   -1.3110    6.2126 N   0  0  0  0  0  0  0  0  0  0  0  0
   -3.1619   -2.1199    6.1788 S   0  0  0  0  0  0  0  0  0  0  0  0
   -3.1561   -3.0500    4.8079 N   0  0  0  0  0  0  0  0  0  0  0  0
    0.0744   -1.3627    4.5635 C   0  0  0  0  0  0  0  0  0  0  0  0
    0.8104   -0.2634    4.9091 C   0  0  0  0  0  0  0  0  0  0  0  0
    0.5058    1.1266    5.8440 S   0  0  0  0  0  0  0  0  0  0  0  0
    1.5846    2.0532    4.9077 C   0  0  0  0  0  0  0  0  0  0  0  0
    1.8687    3.4195    4.8518 C   0  0  0  0  0  0  0  0  0  0  0  0
    1.2402    4.4564    5.7406 C   0  0  0  0  0  0  0  0  0  0  0  0
   -0.0743    4.9604    5.1421 C   0  0  0  0  0  0  0  0  0  0  0  0
    2.6379    3.7145    3.7109 C   0  0  0  0  0  0  0  0  0  0  0  0
    2.9551    2.2945    2.8313 S   0  0  0  0  0  0  0  0  0  0  0  0
    2.1148    1.3021    3.8881 C   0  0  0  0  0  0  0  0  0  0  0  0
    1.6589   -0.0167    3.8770 C   0  0  0  0  0  0  0  0  0  0  0  0
    1.5478   -0.9308    2.8775 N   0  0  0  0  0  0  0  0  0  0  0  0
    0.5754   -1.8025    3.3182 C   0  0  0  0  0  0  0  0  0  0  0  0
   -0.1611   -2.8096    2.6108 C   0  0  0  0  0  0  0  0  0  0  0  0
    0.0709   -3.4155    1.3914 N   0  0  0  0  0  0  0  0  0  0  0  0
   -1.0897   -4.0584    1.1441 C   0  0  0  0  0  0  0  0  0  0  0  0
   -1.6362   -4.6037   -0.0055 C   0  0  0  0  0  0  0  0  0  0  0  0
   -1.2363   -4.5317   -1.6323 S   0  0  0  0  0  0  0  0  0  0  0  0
    1.3292   -3.9136    0.8141 C   0  0  0  0  0  0  0  0  0  0  0  0
    2.3412   -4.3178    1.8906 C   0  0  0  0  0  0  0  0  0  0  0  0
    2.0608   -0.7125    1.5205 C   0  0  0  0  0  0  0  0  0  0  0  0
    0.9919   -0.1166    0.6123 C   0  0  0  0  0  0  0  0  0  0  0  0
    3.0379    5.0524    3.2533 C   0  0  0  0  0  0  0  0  0  0  0  0
    2.4944    5.6370    2.1684 C   0  0  0  0  0  0  0  0  0  0  0  0
    1.4296    5.0530    1.3458 C   0  0  0  0  0  0  0  0  0  0  0  0
    0.6700    4.0977    1.6692 O   0  0  0  0  0  0  0  0  0  0  0  0
    1.3705    5.7689    0.0940 C   0  0  0  0  0  0  0  0  0  0  0  0
    0.5175    5.5334   -0.9873 C   0  0  0  0  0  0  0  0  0  0  0  0
    0.6249    6.3518   -2.1203 C   0  0  0  0  0  0  0  0  0  0  0  0
   -0.3044    6.1516   -3.2814 C   0  0  0  0  0  0  0  0  0  0  0  0
    1.5698    7.4023   -2.1354 C   0  0  0  0  0  0  0  0  0  0  0  0
    2.3999    7.6348   -1.0272 C   0  0  0  0  0  0  0  0  0  0  0  0
    2.2943    6.7990    0.1017 C   0  0  0  0  0  0  0  0  0  0  0  0
    2.9874    6.8413    1.4287 C   0  0  0  0  0  0  0  0  0  0  0  0
    3.7975    7.8256    1.9032 C   0  0  0  0  0  0  0  0  0  0  0  0
    4.1694    7.9233    3.2879 C   0  0  0  0  0  0  0  0  0  0  0  0
    4.4562    8.0126    4.4034 N   0  0  0  0  0  0  0  0  0  0  0  0
    4.3137    8.8823    1.0682 C   0  0  0  0  0  0  0  0  0  0  0  0
    4.7427    9.7339    0.4072 N   0  0  0  0  0  0  0  0  0  0  0  0
   -3.8290   -5.8910   -3.8425 H   0  0  0  0  0  0  0  0  0  0  0  0
   -2.4550   -4.1134   -8.6804 H   0  0  0  0  0  0  0  0  0  0  0  0
   -0.2181   -3.2047  -10.3100 H   0  0  0  0  0  0  0  0  0  0  0  0
   -1.8000   -2.3303  -10.5176 H   0  0  0  0  0  0  0  0  0  0  0  0
   -0.2835   -1.3998  -10.2196 H   0  0  0  0  0  0  0  0  0  0  0  0
    0.2637   -0.8233   -7.9614 H   0  0  0  0  0  0  0  0  0  0  0  0
   -0.1058   -1.0271   -5.5476 H   0  0  0  0  0  0  0  0  0  0  0  0
   -5.3034   -6.3155   -0.1927 H   0  0  0  0  0  0  0  0  0  0  0  0
   -5.2636   -6.3178   -1.9678 H   0  0  0  0  0  0  0  0  0  0  0  0
   -7.0628   -4.8457   -1.0800 H   0  0  0  0  0  0  0  0  0  0  0  0
   -5.8557   -3.9042   -2.0179 H   0  0  0  0  0  0  0  0  0  0  0  0
   -5.8401   -3.8542   -0.2074 H   0  0  0  0  0  0  0  0  0  0  0  0
    1.9396    5.3075    5.8704 H   0  0  0  0  0  0  0  0  0  0  0  0
    1.0450    4.0277    6.7453 H   0  0  0  0  0  0  0  0  0  0  0  0
    0.0879    5.3737    4.1231 H   0  0  0  0  0  0  0  0  0  0  0  0
   -0.8110    4.1247    5.0956 H   0  0  0  0  0  0  0  0  0  0  0  0
   -0.4922    5.7593    5.7816 H   0  0  0  0  0  0  0  0  0  0  0  0
    1.7355   -3.2186    0.0600 H   0  0  0  0  0  0  0  0  0  0  0  0
    1.1250   -4.8383    0.2309 H   0  0  0  0  0  0  0  0  0  0  0  0
    3.2083   -4.8268    1.4168 H   0  0  0  0  0  0  0  0  0  0  0  0
    1.8673   -5.0201    2.6046 H   0  0  0  0  0  0  0  0  0  0  0  0
    2.7074   -3.4389    2.4628 H   0  0  0  0  0  0  0  0  0  0  0  0
    2.9350   -0.0349    1.5436 H   0  0  0  0  0  0  0  0  0  0  0  0
    2.4851   -1.6212    1.1078 H   0  0  0  0  0  0  0  0  0  0  0  0
    0.0687   -0.7413    0.6152 H   0  0  0  0  0  0  0  0  0  0  0  0
    0.7381    0.9071    0.9582 H   0  0  0  0  0  0  0  0  0  0  0  0
    1.3813   -0.0592   -0.4306 H   0  0  0  0  0  0  0  0  0  0  0  0
    3.8707    5.4884    3.7665 H   0  0  0  0  0  0  0  0  0  0  0  0
   -0.2078    4.7324   -0.9490 H   0  0  0  0  0  0  0  0  0  0  0  0
   -0.7154    5.1205   -3.2908 H   0  0  0  0  0  0  0  0  0  0  0  0
   -1.1462    6.8719   -3.2105 H   0  0  0  0  0  0  0  0  0  0  0  0
    0.2425    6.3139   -4.2344 H   0  0  0  0  0  0  0  0  0  0  0  0
    1.6526    8.0452   -2.9976 H   0  0  0  0  0  0  0  0  0  0  0  0
    3.0980    8.4460   -1.0886 H   0  0  0  0  0  0  0  0  0  0  0  0
  1  2  2  3
  2  3  1  0
  3  4  2  0
  3  5  1  0
  5  6  2  0
  6  7  1  0
  7  8  1  0
  7  9  2  0
  9 10  1  0
 10 11  2  0
 11 12  1  0
 12 13  2  3
 13 14  1  0
 14 15  3  0
 13 16  1  0
 16 17  3  0
  1 18  1  0
 18 19  2  0
 19 20  1  0
 20 21  1  0
 19 22  1  0
 22 23  1  0
 23 24  1  0
 24 25  1  0
 25 26  1  0
 26 27  1  0
 27 28  2  0
 28 29  1  0
 29 30  1  0
 27 31  1  0
 31 32  1  0
 32 33  1  0
 33 34  1  0
 34 35  1  0
 35 36  1  0
 36 37  1  0
 35 38  2  0
 38 39  1  0
 39 40  1  0
 40 41  1  0
 41 42  1  0
 42 43  1  0
 43 44  1  0
 44 45  1  0
 45 46  1  0
 46 47  1  0
 47 48  1  0
 45 49  1  0
 49 50  1  0
 42 51  1  0
 51 52  1  0
 38 53  1  0
 53 54  2  3
 54 55  1  0
 55 56  2  0
 55 57  1  0
 57 58  2  0
 58 59  1  0
 59 60  1  0
 59 61  2  0
 61 62  1  0
 62 63  2  0
 63 64  1  0
 64 65  2  3
 65 66  1  0
 66 67  3  0
 65 68  1  0
 68 69  3  0
 12  2  1  0
 48 18  1  0
 64 54  1  0
 11  5  1  0
 47 22  2  0
 63 57  1  0
 46 24  2  0
 44 25  2  0
 30 26  2  0
 43 31  2  0
 41 32  2  0
 40 34  2  0
  1 70  1  0
  6 71  1  0
  8 72  1  0
  8 73  1  0
  8 74  1  0
  9 75  1  0
 10 76  1  0
 20 77  1  0
 20 78  1  0
 21 79  1  0
 21 80  1  0
 21 81  1  0
 36 82  1  0
 36 83  1  0
 37 84  1  0
 37 85  1  0
 37 86  1  0
 49 87  1  0
 49 88  1  0
 50 89  1  0
 50 90  1  0
 50 91  1  0
 51 92  1  0
 51 93  1  0
 52 94  1  0
 52 95  1  0
 52 96  1  0
 53 97  1  0
 58 98  1  0
 60 99  1  0
 60100  1  0
 60101  1  0
 61102  1  0
 62103  1  0
M  END

