
     RDKit          3D

106118  0  0  0  0  0  0  0  0999 V2000
   -7.1727   -1.0099   -0.5188 C   0  0  0  0  0  0  0  0  0  0  0  0
   -8.0912   -1.7465    0.1335 C   0  0  0  0  0  0  0  0  0  0  0  0
   -9.3243   -2.1697   -0.5338 C   0  0  0  0  0  0  0  0  0  0  0  0
   -9.5759   -2.0363   -1.7666 O   0  0  0  0  0  0  0  0  0  0  0  0
  -10.2301   -2.7116    0.4433 C   0  0  0  0  0  0  0  0  0  0  0  0
  -11.4848   -3.2765    0.2207 C   0  0  0  0  0  0  0  0  0  0  0  0
  -12.1566   -3.8786    1.3010 C   0  0  0  0  0  0  0  0  0  0  0  0
  -13.4861   -4.5392    1.0664 C   0  0  0  0  0  0  0  0  0  0  0  0
  -11.5470   -3.9090    2.5743 C   0  0  0  0  0  0  0  0  0  0  0  0
  -10.2740   -3.3337    2.7721 C   0  0  0  0  0  0  0  0  0  0  0  0
   -9.6208   -2.7065    1.6891 C   0  0  0  0  0  0  0  0  0  0  0  0
   -8.2335   -2.1462    1.5714 C   0  0  0  0  0  0  0  0  0  0  0  0
   -7.2660   -2.2151    2.5232 C   0  0  0  0  0  0  0  0  0  0  0  0
   -7.5759   -2.3426    3.9196 C   0  0  0  0  0  0  0  0  0  0  0  0
   -7.8048   -2.4296    5.0494 N   0  0  0  0  0  0  0  0  0  0  0  0
   -5.8618   -2.2283    2.2042 C   0  0  0  0  0  0  0  0  0  0  0  0
   -4.7254   -2.2447    1.9659 N   0  0  0  0  0  0  0  0  0  0  0  0
   -6.0464   -0.2435    0.0349 C   0  0  0  0  0  0  0  0  0  0  0  0
   -6.1006    0.8193    0.9685 C   0  0  0  0  0  0  0  0  0  0  0  0
   -7.3239    1.2950    1.7006 C   0  0  0  0  0  0  0  0  0  0  0  0
   -8.0872    2.3123    0.8656 C   0  0  0  0  0  0  0  0  0  0  0  0
   -4.8898    1.5216    0.9761 C   0  0  0  0  0  0  0  0  0  0  0  0
   -4.3181    2.8974    1.8188 S   0  0  0  0  0  0  0  0  0  0  0  0
   -2.8594    2.8588    0.9484 C   0  0  0  0  0  0  0  0  0  0  0  0
   -1.5966    3.3732    1.0523 C   0  0  0  0  0  0  0  0  0  0  0  0
   -1.0353    4.2278    2.0114 C   0  0  0  0  0  0  0  0  0  0  0  0
    0.3835    4.3546    2.0656 C   0  0  0  0  0  0  0  0  0  0  0  0
    0.8957    5.1309    3.0500 N   0  0  0  0  0  0  0  0  0  0  0  0
   -0.5109    5.6039    3.7935 S   0  0  0  0  0  0  0  0  0  0  0  0
   -1.7514    4.8972    2.9539 N   0  0  0  0  0  0  0  0  0  0  0  0
    1.1548    3.6679    1.1229 C   0  0  0  0  0  0  0  0  0  0  0  0
    2.5036    3.5914    0.9296 C   0  0  0  0  0  0  0  0  0  0  0  0
    3.9405    4.0812    1.6778 S   0  0  0  0  0  0  0  0  0  0  0  0
    4.8548    3.2407    0.4969 C   0  0  0  0  0  0  0  0  0  0  0  0
    6.2183    2.9488    0.3722 C   0  0  0  0  0  0  0  0  0  0  0  0
    7.2820    3.4791    1.2971 C   0  0  0  0  0  0  0  0  0  0  0  0
    7.9211    4.7455    0.7401 C   0  0  0  0  0  0  0  0  0  0  0  0
    6.4535    2.0774   -0.7043 C   0  0  0  0  0  0  0  0  0  0  0  0
    4.9702    1.6963   -1.4742 S   0  0  0  0  0  0  0  0  0  0  0  0
    4.0522    2.6431   -0.4425 C   0  0  0  0  0  0  0  0  0  0  0  0
    2.7097    2.8417   -0.1797 C   0  0  0  0  0  0  0  0  0  0  0  0
    1.5545    2.4257   -0.7516 N   0  0  0  0  0  0  0  0  0  0  0  0
    0.5874    2.8708    0.1144 C   0  0  0  0  0  0  0  0  0  0  0  0
   -0.8138    2.6334    0.1414 C   0  0  0  0  0  0  0  0  0  0  0  0
   -1.5554    1.6242   -0.4282 N   0  0  0  0  0  0  0  0  0  0  0  0
   -2.7968    1.8256    0.0759 C   0  0  0  0  0  0  0  0  0  0  0  0
   -3.9449    1.0519    0.1046 C   0  0  0  0  0  0  0  0  0  0  0  0
   -4.5329   -0.2547   -0.7466 S   0  0  0  0  0  0  0  0  0  0  0  0
   -1.0944    0.3305   -0.9517 C   0  0  0  0  0  0  0  0  0  0  0  0
   -1.5356    0.1226   -2.4079 C   0  0  0  0  0  0  0  0  0  0  0  0
    1.3885    2.0604   -2.1659 C   0  0  0  0  0  0  0  0  0  0  0  0
    1.9789    3.1212   -3.0989 C   0  0  0  0  0  0  0  0  0  0  0  0
    7.7755    1.5342   -1.0741 C   0  0  0  0  0  0  0  0  0  0  0  0
    8.0954    0.2288   -0.9940 C   0  0  0  0  0  0  0  0  0  0  0  0
    7.2355   -0.8297   -0.4390 C   0  0  0  0  0  0  0  0  0  0  0  0
    6.0048   -0.7511   -0.1667 O   0  0  0  0  0  0  0  0  0  0  0  0
    8.0639   -1.9768   -0.1476 C   0  0  0  0  0  0  0  0  0  0  0  0
    7.6727   -3.1687    0.4556 C   0  0  0  0  0  0  0  0  0  0  0  0
    8.6524   -4.1282    0.7518 C   0  0  0  0  0  0  0  0  0  0  0  0
    8.2868   -5.3494    1.3457 C   0  0  0  0  0  0  0  0  0  0  0  0
    9.2702   -6.2881    1.6659 C   0  0  0  0  0  0  0  0  0  0  0  0
   10.6227   -6.0202    1.3961 C   0  0  0  0  0  0  0  0  0  0  0  0
   11.5705   -6.9349    1.7202 F   0  0  0  0  0  0  0  0  0  0  0  0
   10.9992   -4.8137    0.7952 C   0  0  0  0  0  0  0  0  0  0  0  0
   10.0243   -3.8564    0.4643 C   0  0  0  0  0  0  0  0  0  0  0  0
   10.3872   -2.6420   -0.1539 C   0  0  0  0  0  0  0  0  0  0  0  0
    9.3812   -1.7119   -0.4802 C   0  0  0  0  0  0  0  0  0  0  0  0
    9.4706   -0.3596   -1.1113 C   0  0  0  0  0  0  0  0  0  0  0  0
   10.5157    0.1408   -1.8211 C   0  0  0  0  0  0  0  0  0  0  0  0
   11.7852   -0.5365   -1.9270 C   0  0  0  0  0  0  0  0  0  0  0  0
   12.8106   -1.0616   -2.0282 N   0  0  0  0  0  0  0  0  0  0  0  0
   10.3952    1.3272   -2.6259 C   0  0  0  0  0  0  0  0  0  0  0  0
   10.3106    2.2828   -3.2734 N   0  0  0  0  0  0  0  0  0  0  0  0
   -7.2869   -0.9016   -1.5908 H   0  0  0  0  0  0  0  0  0  0  0  0
  -11.9121   -3.2789   -0.7766 H   0  0  0  0  0  0  0  0  0  0  0  0
  -14.2110   -3.8016    0.6717 H   0  0  0  0  0  0  0  0  0  0  0  0
  -13.3683   -5.3582    0.3263 H   0  0  0  0  0  0  0  0  0  0  0  0
  -13.8940   -4.9692    1.9994 H   0  0  0  0  0  0  0  0  0  0  0  0
  -12.0420   -4.4043    3.4031 H   0  0  0  0  0  0  0  0  0  0  0  0
   -9.8322   -3.4285    3.7478 H   0  0  0  0  0  0  0  0  0  0  0  0
   -7.9959    0.4530    1.9400 H   0  0  0  0  0  0  0  0  0  0  0  0
   -7.0235    1.7603    2.6653 H   0  0  0  0  0  0  0  0  0  0  0  0
   -7.4499    3.1952    0.6419 H   0  0  0  0  0  0  0  0  0  0  0  0
   -8.9761    2.6650    1.4287 H   0  0  0  0  0  0  0  0  0  0  0  0
   -8.4321    1.8588   -0.0926 H   0  0  0  0  0  0  0  0  0  0  0  0
    8.0681    2.7087    1.4476 H   0  0  0  0  0  0  0  0  0  0  0  0
    6.8420    3.7109    2.2878 H   0  0  0  0  0  0  0  0  0  0  0  0
    7.1558    5.5246    0.5515 H   0  0  0  0  0  0  0  0  0  0  0  0
    8.6533    5.1353    1.4768 H   0  0  0  0  0  0  0  0  0  0  0  0
    8.4553    4.5301   -0.2058 H   0  0  0  0  0  0  0  0  0  0  0  0
   -1.5086   -0.4860   -0.3206 H   0  0  0  0  0  0  0  0  0  0  0  0
    0.0049    0.2307   -0.8527 H   0  0  0  0  0  0  0  0  0  0  0  0
   -2.1975   -0.7624   -2.4796 H   0  0  0  0  0  0  0  0  0  0  0  0
   -2.0850    1.0061   -2.7960 H   0  0  0  0  0  0  0  0  0  0  0  0
   -0.6583   -0.0605   -3.0493 H   0  0  0  0  0  0  0  0  0  0  0  0
    0.3186    2.0032   -2.4137 H   0  0  0  0  0  0  0  0  0  0  0  0
    1.8667    1.0800   -2.3565 H   0  0  0  0  0  0  0  0  0  0  0  0
    1.5869    4.1199   -2.8290 H   0  0  0  0  0  0  0  0  0  0  0  0
    1.6901    2.8809   -4.1550 H   0  0  0  0  0  0  0  0  0  0  0  0
    3.0848    3.1365   -3.0324 H   0  0  0  0  0  0  0  0  0  0  0  0
    8.5517    2.2646   -1.2197 H   0  0  0  0  0  0  0  0  0  0  0  0
    6.6329   -3.3234    0.7207 H   0  0  0  0  0  0  0  0  0  0  0  0
    7.2439   -5.5708    1.5529 H   0  0  0  0  0  0  0  0  0  0  0  0
    8.9903   -7.2322    2.1207 H   0  0  0  0  0  0  0  0  0  0  0  0
   12.0477   -4.6263    0.5867 H   0  0  0  0  0  0  0  0  0  0  0  0
   11.4297   -2.4322   -0.3179 H   0  0  0  0  0  0  0  0  0  0  0  0
  1  2  2  3
  2  3  1  0
  3  4  2  0
  3  5  1  0
  5  6  2  0
  6  7  1  0
  7  8  1  0
  7  9  2  0
  9 10  1  0
 10 11  2  0
 11 12  1  0
 12 13  2  3
 13 14  1  0
 14 15  3  0
 13 16  1  0
 16 17  3  0
  1 18  1  0
 18 19  2  0
 19 20  1  0
 20 21  1  0
 19 22  1  0
 22 23  1  0
 23 24  1  0
 24 25  1  0
 25 26  1  0
 26 27  1  0
 27 28  2  0
 28 29  1  0
 29 30  1  0
 27 31  1  0
 31 32  1  0
 32 33  1  0
 33 34  1  0
 34 35  1  0
 35 36  1  0
 36 37  1  0
 35 38  2  0
 38 39  1  0
 39 40  1  0
 40 41  1  0
 41 42  1  0
 42 43  1  0
 43 44  1  0
 44 45  1  0
 45 46  1  0
 46 47  1  0
 47 48  1  0
 45 49  1  0
 49 50  1  0
 42 51  1  0
 51 52  1  0
 38 53  1  0
 53 54  2  3
 54 55  1  0
 55 56  2  0
 55 57  1  0
 57 58  2  0
 58 59  1  0
 59 60  2  0
 60 61  1  0
 61 62  2  0
 62 63  1  0
 62 64  1  0
 64 65  2  0
 65 66  1  0
 66 67  2  0
 67 68  1  0
 68 69  2  3
 69 70  1  0
 70 71  3  0
 69 72  1  0
 72 73  3  0
 12  2  1  0
 48 18  1  0
 68 54  1  0
 11  5  1  0
 47 22  2  0
 67 57  1  0
 46 24  2  0
 65 59  1  0
 44 25  2  0
 30 26  2  0
 43 31  2  0
 41 32  2  0
 40 34  2  0
  1 74  1  0
  6 75  1  0
  8 76  1  0
  8 77  1  0
  8 78  1  0
  9 79  1  0
 10 80  1  0
 20 81  1  0
 20 82  1  0
 21 83  1  0
 21 84  1  0
 21 85  1  0
 36 86  1  0
 36 87  1  0
 37 88  1  0
 37 89  1  0
 37 90  1  0
 49 91  1  0
 49 92  1  0
 50 93  1  0
 50 94  1  0
 50 95  1  0
 51 96  1  0
 51 97  1  0
 52 98  1  0
 52 99  1  0
 52100  1  0
 53101  1  0
 58102  1  0
 60103  1  0
 61104  1  0
 64105  1  0
 66106  1  0
M  END

