
     RDKit          3D

100111  0  0  0  0  0  0  0  0999 V2000
    2.5231   -0.2180    5.7726 C   0  0  0  0  0  0  0  0  0  0  0  0
    3.3470    0.7754    6.1568 C   0  0  0  0  0  0  0  0  0  0  0  0
    4.5216    1.2411    5.4050 C   0  0  0  0  0  0  0  0  0  0  0  0
    4.8026    0.9727    4.2058 O   0  0  0  0  0  0  0  0  0  0  0  0
    5.3661    1.9947    6.3064 C   0  0  0  0  0  0  0  0  0  0  0  0
    6.6409    2.5022    6.0644 C   0  0  0  0  0  0  0  0  0  0  0  0
    7.3402    3.0978    7.1282 C   0  0  0  0  0  0  0  0  0  0  0  0
    8.7019    3.6837    6.8988 C   0  0  0  0  0  0  0  0  0  0  0  0
    6.7444    3.1643    8.4067 C   0  0  0  0  0  0  0  0  0  0  0  0
    5.4637    2.6368    8.6273 C   0  0  0  0  0  0  0  0  0  0  0  0
    4.7641    2.0742    7.5504 C   0  0  0  0  0  0  0  0  0  0  0  0
    3.4266    1.4196    7.5025 C   0  0  0  0  0  0  0  0  0  0  0  0
    2.4036    1.5953    8.3787 C   0  0  0  0  0  0  0  0  0  0  0  0
    2.5227    2.4249    9.5493 C   0  0  0  0  0  0  0  0  0  0  0  0
    2.6044    3.0960   10.4887 N   0  0  0  0  0  0  0  0  0  0  0  0
    1.0765    1.0965    8.1242 C   0  0  0  0  0  0  0  0  0  0  0  0
    0.0067    0.7010    7.9297 N   0  0  0  0  0  0  0  0  0  0  0  0
    2.5498   -0.7807    4.4180 C   0  0  0  0  0  0  0  0  0  0  0  0
    3.1262   -2.0076    4.0459 C   0  0  0  0  0  0  0  0  0  0  0  0
    3.7764   -2.9718    4.9961 C   0  0  0  0  0  0  0  0  0  0  0  0
    5.2621   -2.6662    5.1470 C   0  0  0  0  0  0  0  0  0  0  0  0
    3.0263   -2.1992    2.6653 C   0  0  0  0  0  0  0  0  0  0  0  0
    3.4858   -3.4589    1.6140 S   0  0  0  0  0  0  0  0  0  0  0  0
    2.8506   -2.6133    0.2818 C   0  0  0  0  0  0  0  0  0  0  0  0
    2.4228   -2.9120   -0.9803 C   0  0  0  0  0  0  0  0  0  0  0  0
    2.4348   -4.1324   -1.6698 C   0  0  0  0  0  0  0  0  0  0  0  0
    1.6271   -4.2680   -2.8369 C   0  0  0  0  0  0  0  0  0  0  0  0
    1.6293   -5.4786   -3.4510 N   0  0  0  0  0  0  0  0  0  0  0  0
    2.6662   -6.2970   -2.4521 S   0  0  0  0  0  0  0  0  0  0  0  0
    3.1291   -5.2284   -1.2723 N   0  0  0  0  0  0  0  0  0  0  0  0
    0.8748   -3.1685   -3.2600 C   0  0  0  0  0  0  0  0  0  0  0  0
    0.0604   -2.9904   -4.3372 C   0  0  0  0  0  0  0  0  0  0  0  0
   -0.5280   -3.8586   -5.6734 S   0  0  0  0  0  0  0  0  0  0  0  0
   -1.3342   -2.4649   -6.2429 C   0  0  0  0  0  0  0  0  0  0  0  0
   -2.2319   -2.2413   -7.2886 C   0  0  0  0  0  0  0  0  0  0  0  0
   -2.6410   -3.3045   -8.2714 C   0  0  0  0  0  0  0  0  0  0  0  0
   -3.8195   -4.1150   -7.7460 C   0  0  0  0  0  0  0  0  0  0  0  0
   -2.7698   -0.9413   -7.2165 C   0  0  0  0  0  0  0  0  0  0  0  0
   -2.0317   -0.0837   -5.9362 S   0  0  0  0  0  0  0  0  0  0  0  0
   -1.1150   -1.3842   -5.4288 C   0  0  0  0  0  0  0  0  0  0  0  0
   -0.3298   -1.6952   -4.3294 C   0  0  0  0  0  0  0  0  0  0  0  0
    0.1951   -0.9791   -3.3001 N   0  0  0  0  0  0  0  0  0  0  0  0
    0.8907   -1.9315   -2.5944 C   0  0  0  0  0  0  0  0  0  0  0  0
    1.6180   -1.8285   -1.3766 C   0  0  0  0  0  0  0  0  0  0  0  0
    1.4613   -0.9417   -0.3391 N   0  0  0  0  0  0  0  0  0  0  0  0
    2.2685   -1.4411    0.6306 C   0  0  0  0  0  0  0  0  0  0  0  0
    2.3674   -1.2031    1.9936 C   0  0  0  0  0  0  0  0  0  0  0  0
    1.8898    0.0013    3.0557 S   0  0  0  0  0  0  0  0  0  0  0  0
    0.2943   -0.0922   -0.0590 C   0  0  0  0  0  0  0  0  0  0  0  0
   -0.9440   -0.9400    0.2337 C   0  0  0  0  0  0  0  0  0  0  0  0
    0.5340    0.4495   -3.4044 C   0  0  0  0  0  0  0  0  0  0  0  0
   -0.6937    1.3492   -3.2106 C   0  0  0  0  0  0  0  0  0  0  0  0
   -3.8022   -0.3928   -8.1184 C   0  0  0  0  0  0  0  0  0  0  0  0
   -4.7323    0.5210   -7.7756 C   0  0  0  0  0  0  0  0  0  0  0  0
   -5.4201    1.3456   -8.7700 C   0  0  0  0  0  0  0  0  0  0  0  0
   -5.4695    1.1281  -10.0105 O   0  0  0  0  0  0  0  0  0  0  0  0
   -5.9815    2.4993   -8.0937 C   0  0  0  0  0  0  0  0  0  0  0  0
   -5.7208    2.4071   -6.7360 C   0  0  0  0  0  0  0  0  0  0  0  0
   -6.1452    3.4337   -5.8724 C   0  0  0  0  0  0  0  0  0  0  0  0
   -6.8720    4.5144   -6.4015 C   0  0  0  0  0  0  0  0  0  0  0  0
   -7.3168    5.4949   -5.5712 F   0  0  0  0  0  0  0  0  0  0  0  0
   -7.1485    4.5805   -7.7799 C   0  0  0  0  0  0  0  0  0  0  0  0
   -7.8549    5.6252   -8.2784 F   0  0  0  0  0  0  0  0  0  0  0  0
   -6.6806    3.5783   -8.6417 C   0  0  0  0  0  0  0  0  0  0  0  0
   -6.9278    3.6484   -9.9777 F   0  0  0  0  0  0  0  0  0  0  0  0
   -5.0631    1.1023   -6.4406 C   0  0  0  0  0  0  0  0  0  0  0  0
   -5.1899    0.4087   -5.2809 C   0  0  0  0  0  0  0  0  0  0  0  0
   -5.0837   -1.0268   -5.2388 C   0  0  0  0  0  0  0  0  0  0  0  0
   -5.0112   -2.1826   -5.1846 N   0  0  0  0  0  0  0  0  0  0  0  0
   -5.5610    1.0232   -4.0341 C   0  0  0  0  0  0  0  0  0  0  0  0
   -5.8575    1.5042   -3.0231 N   0  0  0  0  0  0  0  0  0  0  0  0
    1.8501   -0.6827    6.4764 H   0  0  0  0  0  0  0  0  0  0  0  0
    7.0871    2.4241    5.0782 H   0  0  0  0  0  0  0  0  0  0  0  0
    8.5976    4.6989    6.4618 H   0  0  0  0  0  0  0  0  0  0  0  0
    9.2728    3.7574    7.8487 H   0  0  0  0  0  0  0  0  0  0  0  0
    9.2856    3.0459    6.1999 H   0  0  0  0  0  0  0  0  0  0  0  0
    7.2815    3.6084    9.2355 H   0  0  0  0  0  0  0  0  0  0  0  0
    5.0658    2.6436    9.6262 H   0  0  0  0  0  0  0  0  0  0  0  0
    3.6547   -4.0105    4.6227 H   0  0  0  0  0  0  0  0  0  0  0  0
    3.2828   -2.9106    5.9908 H   0  0  0  0  0  0  0  0  0  0  0  0
    5.7850   -2.8087    4.1740 H   0  0  0  0  0  0  0  0  0  0  0  0
    5.4163   -1.6269    5.5122 H   0  0  0  0  0  0  0  0  0  0  0  0
    5.7050   -3.3683    5.8862 H   0  0  0  0  0  0  0  0  0  0  0  0
   -1.7853   -3.9873   -8.4623 H   0  0  0  0  0  0  0  0  0  0  0  0
   -2.9104   -2.8513   -9.2479 H   0  0  0  0  0  0  0  0  0  0  0  0
   -4.7049   -3.4601   -7.5994 H   0  0  0  0  0  0  0  0  0  0  0  0
   -4.0828   -4.9050   -8.4798 H   0  0  0  0  0  0  0  0  0  0  0  0
   -3.5498   -4.5999   -6.7805 H   0  0  0  0  0  0  0  0  0  0  0  0
    0.0799    0.5812   -0.8889 H   0  0  0  0  0  0  0  0  0  0  0  0
    0.4940    0.5769    0.7987 H   0  0  0  0  0  0  0  0  0  0  0  0
   -1.8022   -0.2803    0.4738 H   0  0  0  0  0  0  0  0  0  0  0  0
   -1.2053   -1.5563   -0.6537 H   0  0  0  0  0  0  0  0  0  0  0  0
   -0.7564   -1.6084    1.1039 H   0  0  0  0  0  0  0  0  0  0  0  0
    1.3317    0.7156   -2.6786 H   0  0  0  0  0  0  0  0  0  0  0  0
    0.9763    0.6479   -4.4063 H   0  0  0  0  0  0  0  0  0  0  0  0
   -0.4511    2.1798   -2.5164 H   0  0  0  0  0  0  0  0  0  0  0  0
   -0.9946    1.8098   -4.1724 H   0  0  0  0  0  0  0  0  0  0  0  0
   -1.5537    0.7790   -2.7964 H   0  0  0  0  0  0  0  0  0  0  0  0
   -3.7520   -0.6928   -9.1541 H   0  0  0  0  0  0  0  0  0  0  0  0
   -5.9209    3.4238   -4.8191 H   0  0  0  0  0  0  0  0  0  0  0  0
  1  2  2  3
  2  3  1  0
  3  4  2  0
  3  5  1  0
  5  6  2  0
  6  7  1  0
  7  8  1  0
  7  9  2  0
  9 10  1  0
 10 11  2  0
 11 12  1  0
 12 13  2  3
 13 14  1  0
 14 15  3  0
 13 16  1  0
 16 17  3  0
  1 18  1  0
 18 19  2  0
 19 20  1  0
 20 21  1  0
 19 22  1  0
 22 23  1  0
 23 24  1  0
 24 25  1  0
 25 26  1  0
 26 27  1  0
 27 28  2  0
 28 29  1  0
 29 30  1  0
 27 31  1  0
 31 32  1  0
 32 33  1  0
 33 34  1  0
 34 35  1  0
 35 36  1  0
 36 37  1  0
 35 38  2  0
 38 39  1  0
 39 40  1  0
 40 41  1  0
 41 42  1  0
 42 43  1  0
 43 44  1  0
 44 45  1  0
 45 46  1  0
 46 47  1  0
 47 48  1  0
 45 49  1  0
 49 50  1  0
 42 51  1  0
 51 52  1  0
 38 53  1  0
 53 54  2  3
 54 55  1  0
 55 56  2  0
 55 57  1  0
 57 58  2  0
 58 59  1  0
 59 60  2  0
 60 61  1  0
 60 62  1  0
 62 63  1  0
 62 64  2  0
 64 65  1  0
 58 66  1  0
 66 67  2  3
 67 68  1  0
 68 69  3  0
 67 70  1  0
 70 71  3  0
 12  2  1  0
 48 18  1  0
 66 54  1  0
 11  5  1  0
 47 22  2  0
 64 57  1  0
 46 24  2  0
 44 25  2  0
 30 26  2  0
 43 31  2  0
 41 32  2  0
 40 34  2  0
  1 72  1  0
  6 73  1  0
  8 74  1  0
  8 75  1  0
  8 76  1  0
  9 77  1  0
 10 78  1  0
 20 79  1  0
 20 80  1  0
 21 81  1  0
 21 82  1  0
 21 83  1  0
 36 84  1  0
 36 85  1  0
 37 86  1  0
 37 87  1  0
 37 88  1  0
 49 89  1  0
 49 90  1  0
 50 91  1  0
 50 92  1  0
 50 93  1  0
 51 94  1  0
 51 95  1  0
 52 96  1  0
 52 97  1  0
 52 98  1  0
 53 99  1  0
 59100  1  0
M  END

