
     RDKit          3D

144159  0  0  0  0  0  0  0  0999 V2000
   -1.0831   -3.4420    4.7935 C   0  0  0  0  0  0  0  0  0  0  0  0
   -0.1572   -3.5418    5.7698 C   0  0  0  0  0  0  0  0  0  0  0  0
    0.4009   -2.4152    6.5378 C   0  0  0  0  0  0  0  0  0  0  0  0
    0.1185   -1.1961    6.4030 O   0  0  0  0  0  0  0  0  0  0  0  0
    1.1905   -2.9570    7.6166 C   0  0  0  0  0  0  0  0  0  0  0  0
    1.8896   -2.2521    8.5981 C   0  0  0  0  0  0  0  0  0  0  0  0
    2.5505   -2.9755    9.6116 C   0  0  0  0  0  0  0  0  0  0  0  0
    3.3474   -2.2653   10.6553 C   0  0  0  0  0  0  0  0  0  0  0  0
    2.4562   -4.3829    9.6303 C   0  0  0  0  0  0  0  0  0  0  0  0
    1.7419   -5.0674    8.6311 C   0  0  0  0  0  0  0  0  0  0  0  0
    1.1361   -4.3365    7.5977 C   0  0  0  0  0  0  0  0  0  0  0  0
    0.3489   -4.7934    6.4181 C   0  0  0  0  0  0  0  0  0  0  0  0
    0.3747   -6.0370    5.8605 C   0  0  0  0  0  0  0  0  0  0  0  0
   -0.2343   -6.3283    4.5901 C   0  0  0  0  0  0  0  0  0  0  0  0
   -0.7262   -6.5949    3.5735 N   0  0  0  0  0  0  0  0  0  0  0  0
    1.0743   -7.1422    6.4545 C   0  0  0  0  0  0  0  0  0  0  0  0
    1.6555   -8.0366    6.9105 N   0  0  0  0  0  0  0  0  0  0  0  0
   -1.3133   -2.2305    3.9937 C   0  0  0  0  0  0  0  0  0  0  0  0
   -0.3363   -1.3000    3.6052 C   0  0  0  0  0  0  0  0  0  0  0  0
   -0.8548   -0.3881    2.6938 C   0  0  0  0  0  0  0  0  0  0  0  0
   -0.1372    0.8294    1.7589 S   0  0  0  0  0  0  0  0  0  0  0  0
   -1.5828    1.1116    0.9118 C   0  0  0  0  0  0  0  0  0  0  0  0
   -1.8150    1.5531   -0.4395 C   0  0  0  0  0  0  0  0  0  0  0  0
   -0.9941    2.3146   -1.2713 C   0  0  0  0  0  0  0  0  0  0  0  0
   -1.2814    2.2984   -2.6521 C   0  0  0  0  0  0  0  0  0  0  0  0
   -0.3680    2.7754   -3.7719 C   0  0  0  0  0  0  0  0  0  0  0  0
    0.7634    3.7424   -3.4158 C   0  0  0  0  0  0  0  0  0  0  0  0
    1.8675    3.8868   -4.2827 C   0  0  0  0  0  0  0  0  0  0  0  0
    2.8066    4.9091   -4.0984 C   0  0  0  0  0  0  0  0  0  0  0  0
    2.6427    5.8409   -3.0648 C   0  0  0  0  0  0  0  0  0  0  0  0
    3.6143    6.9774   -2.9057 C   0  0  0  0  0  0  0  0  0  0  0  0
    3.1147    8.2159   -3.6380 C   0  0  0  0  0  0  0  0  0  0  0  0
    1.4989    5.7696   -2.2571 C   0  0  0  0  0  0  0  0  0  0  0  0
    0.5508    4.7615   -2.4584 C   0  0  0  0  0  0  0  0  0  0  0  0
   -1.1990    3.4787   -4.8593 C   0  0  0  0  0  0  0  0  0  0  0  0
   -0.8621    3.3441   -6.2213 C   0  0  0  0  0  0  0  0  0  0  0  0
   -1.6428    3.9455   -7.2162 C   0  0  0  0  0  0  0  0  0  0  0  0
   -2.7587    4.7182   -6.8670 C   0  0  0  0  0  0  0  0  0  0  0  0
   -3.6116    5.3126   -7.9485 C   0  0  0  0  0  0  0  0  0  0  0  0
   -3.0859    4.8892   -5.5150 C   0  0  0  0  0  0  0  0  0  0  0  0
   -2.2997    4.2979   -4.5231 C   0  0  0  0  0  0  0  0  0  0  0  0
   -0.0227    1.3773   -4.2500 C   0  0  0  0  0  0  0  0  0  0  0  0
   -1.1472    0.5483   -4.1161 C   0  0  0  0  0  0  0  0  0  0  0  0
   -2.0279    1.2013   -3.1301 C   0  0  0  0  0  0  0  0  0  0  0  0
   -2.9349    0.5237   -2.2989 C   0  0  0  0  0  0  0  0  0  0  0  0
   -2.8778    0.8007   -0.9287 C   0  0  0  0  0  0  0  0  0  0  0  0
   -3.6615    0.1620    0.2167 C   0  0  0  0  0  0  0  0  0  0  0  0
   -4.2278   -1.2183   -0.1652 C   0  0  0  0  0  0  0  0  0  0  0  0
   -5.5042   -1.2978   -0.7617 C   0  0  0  0  0  0  0  0  0  0  0  0
   -6.0951   -2.5268   -1.0429 C   0  0  0  0  0  0  0  0  0  0  0  0
   -5.4299   -3.7201   -0.7300 C   0  0  0  0  0  0  0  0  0  0  0  0
   -6.1102   -5.0525   -0.9544 C   0  0  0  0  0  0  0  0  0  0  0  0
   -7.4094   -5.1727   -0.1485 C   0  0  0  0  0  0  0  0  0  0  0  0
   -4.1126   -3.6546   -0.2463 C   0  0  0  0  0  0  0  0  0  0  0  0
   -3.4996   -2.4153   -0.0004 C   0  0  0  0  0  0  0  0  0  0  0  0
   -4.7784    1.0905    0.7238 C   0  0  0  0  0  0  0  0  0  0  0  0
   -5.2519    2.1847   -0.0340 C   0  0  0  0  0  0  0  0  0  0  0  0
   -6.2213    3.0482    0.4826 C   0  0  0  0  0  0  0  0  0  0  0  0
   -6.7702    2.8180    1.7511 C   0  0  0  0  0  0  0  0  0  0  0  0
   -7.7842    3.7642    2.3209 C   0  0  0  0  0  0  0  0  0  0  0  0
   -7.1075    4.9515    2.9948 C   0  0  0  0  0  0  0  0  0  0  0  0
   -6.3406    1.7094    2.5000 C   0  0  0  0  0  0  0  0  0  0  0  0
   -5.3672    0.8479    1.9830 C   0  0  0  0  0  0  0  0  0  0  0  0
   -2.5613    0.2093    1.2614 C   0  0  0  0  0  0  0  0  0  0  0  0
   -2.1506   -0.6000    2.3209 C   0  0  0  0  0  0  0  0  0  0  0  0
   -2.7598   -1.9414    3.1285 S   0  0  0  0  0  0  0  0  0  0  0  0
   -0.6625   -1.0755   -3.9602 S   0  0  0  0  0  0  0  0  0  0  0  0
    0.9756   -0.7138   -3.9734 C   0  0  0  0  0  0  0  0  0  0  0  0
    2.0749   -1.4523   -3.5229 C   0  0  0  0  0  0  0  0  0  0  0  0
    3.1328   -0.6053   -3.1904 C   0  0  0  0  0  0  0  0  0  0  0  0
    2.6896    1.0026   -3.4930 S   0  0  0  0  0  0  0  0  0  0  0  0
    1.1603    0.6367   -4.0783 C   0  0  0  0  0  0  0  0  0  0  0  0
    4.4562   -1.0318   -2.7188 C   0  0  0  0  0  0  0  0  0  0  0  0
    5.0644   -0.5305   -1.6266 C   0  0  0  0  0  0  0  0  0  0  0  0
    4.3995    0.1089   -0.4780 C   0  0  0  0  0  0  0  0  0  0  0  0
    3.1767    0.4159   -0.4283 O   0  0  0  0  0  0  0  0  0  0  0  0
    5.3144    0.0773    0.6666 C   0  0  0  0  0  0  0  0  0  0  0  0
    6.4919   -0.5346    0.2562 C   0  0  0  0  0  0  0  0  0  0  0  0
    7.4556   -0.9149    1.1947 C   0  0  0  0  0  0  0  0  0  0  0  0
    7.2620   -0.5987    2.5412 C   0  0  0  0  0  0  0  0  0  0  0  0
    6.1073    0.0838    2.9610 C   0  0  0  0  0  0  0  0  0  0  0  0
    5.9348    0.4028    4.3158 C   0  0  0  0  0  0  0  0  0  0  0  0
    4.7857    1.0740    4.7336 C   0  0  0  0  0  0  0  0  0  0  0  0
    3.8038    1.4358    3.8139 C   0  0  0  0  0  0  0  0  0  0  0  0
    3.9560    1.1199    2.4583 C   0  0  0  0  0  0  0  0  0  0  0  0
    5.1044    0.4332    2.0179 C   0  0  0  0  0  0  0  0  0  0  0  0
    6.4561   -0.8194   -1.1987 C   0  0  0  0  0  0  0  0  0  0  0  0
    7.5286   -0.9704   -2.0143 C   0  0  0  0  0  0  0  0  0  0  0  0
    8.8768   -0.9319   -1.5252 C   0  0  0  0  0  0  0  0  0  0  0  0
    9.9666   -0.8982   -1.1340 N   0  0  0  0  0  0  0  0  0  0  0  0
    7.3986   -0.9974   -3.4521 C   0  0  0  0  0  0  0  0  0  0  0  0
    7.2794   -1.0261   -4.5995 N   0  0  0  0  0  0  0  0  0  0  0  0
   -1.7118   -4.2855    4.5823 H   0  0  0  0  0  0  0  0  0  0  0  0
    1.9068   -1.1713    8.5826 H   0  0  0  0  0  0  0  0  0  0  0  0
    3.3372   -1.1648   10.5047 H   0  0  0  0  0  0  0  0  0  0  0  0
    4.4022   -2.6147   10.6115 H   0  0  0  0  0  0  0  0  0  0  0  0
    2.9299   -2.4866   11.6563 H   0  0  0  0  0  0  0  0  0  0  0  0
    2.9440   -4.9534   10.4122 H   0  0  0  0  0  0  0  0  0  0  0  0
    1.6613   -6.1413    8.7040 H   0  0  0  0  0  0  0  0  0  0  0  0
    0.7086   -1.3335    3.8980 H   0  0  0  0  0  0  0  0  0  0  0  0
   -0.1184    2.8015   -0.8614 H   0  0  0  0  0  0  0  0  0  0  0  0
    1.9947    3.2208   -5.1265 H   0  0  0  0  0  0  0  0  0  0  0  0
    3.6506    4.9858   -4.7803 H   0  0  0  0  0  0  0  0  0  0  0  0
    4.6089    6.6924   -3.3026 H   0  0  0  0  0  0  0  0  0  0  0  0
    3.7452    7.2140   -1.8256 H   0  0  0  0  0  0  0  0  0  0  0  0
    3.8445    9.0434   -3.5211 H   0  0  0  0  0  0  0  0  0  0  0  0
    2.1383    8.5451   -3.2230 H   0  0  0  0  0  0  0  0  0  0  0  0
    2.9943    7.9993   -4.7244 H   0  0  0  0  0  0  0  0  0  0  0  0
    1.3191    6.5243   -1.5010 H   0  0  0  0  0  0  0  0  0  0  0  0
   -0.3733    4.8147   -1.9006 H   0  0  0  0  0  0  0  0  0  0  0  0
   -0.0013    2.7617   -6.5244 H   0  0  0  0  0  0  0  0  0  0  0  0
   -1.3737    3.8025   -8.2573 H   0  0  0  0  0  0  0  0  0  0  0  0
   -2.9757    5.7969   -8.7170 H   0  0  0  0  0  0  0  0  0  0  0  0
   -4.3096    6.0731   -7.5376 H   0  0  0  0  0  0  0  0  0  0  0  0
   -4.2083    4.5081   -8.4265 H   0  0  0  0  0  0  0  0  0  0  0  0
   -3.9441    5.4889   -5.2267 H   0  0  0  0  0  0  0  0  0  0  0  0
   -2.5687    4.4560   -3.4851 H   0  0  0  0  0  0  0  0  0  0  0  0
   -3.5161   -0.3021   -2.6821 H   0  0  0  0  0  0  0  0  0  0  0  0
   -6.0495   -0.3944   -1.0144 H   0  0  0  0  0  0  0  0  0  0  0  0
   -7.0795   -2.5501   -1.4872 H   0  0  0  0  0  0  0  0  0  0  0  0
   -5.4385   -5.8849   -0.6510 H   0  0  0  0  0  0  0  0  0  0  0  0
   -6.3407   -5.1760   -2.0306 H   0  0  0  0  0  0  0  0  0  0  0  0
   -7.8127   -6.1999   -0.2516 H   0  0  0  0  0  0  0  0  0  0  0  0
   -8.1757   -4.4627   -0.5328 H   0  0  0  0  0  0  0  0  0  0  0  0
   -7.2295   -4.9677    0.9283 H   0  0  0  0  0  0  0  0  0  0  0  0
   -3.5587   -4.5661   -0.0439 H   0  0  0  0  0  0  0  0  0  0  0  0
   -2.4723   -2.3980    0.3232 H   0  0  0  0  0  0  0  0  0  0  0  0
   -4.8657    2.3911   -1.0258 H   0  0  0  0  0  0  0  0  0  0  0  0
   -6.5374    3.9047   -0.1004 H   0  0  0  0  0  0  0  0  0  0  0  0
   -8.4309    3.2442    3.0625 H   0  0  0  0  0  0  0  0  0  0  0  0
   -8.4542    4.1311    1.5130 H   0  0  0  0  0  0  0  0  0  0  0  0
   -6.3676    4.6056    3.7464 H   0  0  0  0  0  0  0  0  0  0  0  0
   -6.5959    5.5854    2.2311 H   0  0  0  0  0  0  0  0  0  0  0  0
   -7.8718    5.5768    3.4988 H   0  0  0  0  0  0  0  0  0  0  0  0
   -6.7471    1.5133    3.4801 H   0  0  0  0  0  0  0  0  0  0  0  0
   -5.0502   -0.0015    2.5754 H   0  0  0  0  0  0  0  0  0  0  0  0
    2.0463   -2.5133   -3.3100 H   0  0  0  0  0  0  0  0  0  0  0  0
    4.9613   -1.7649   -3.3340 H   0  0  0  0  0  0  0  0  0  0  0  0
    8.3214   -1.4933    0.9135 H   0  0  0  0  0  0  0  0  0  0  0  0
    8.0120   -0.8977    3.2607 H   0  0  0  0  0  0  0  0  0  0  0  0
    6.6839    0.1266    5.0501 H   0  0  0  0  0  0  0  0  0  0  0  0
    4.6582    1.3128    5.7852 H   0  0  0  0  0  0  0  0  0  0  0  0
    2.9325    1.9807    4.1490 H   0  0  0  0  0  0  0  0  0  0  0  0
    3.1956    1.4473    1.7708 H   0  0  0  0  0  0  0  0  0  0  0  0
  1  2  2  3
  2  3  1  0
  3  4  2  0
  3  5  1  0
  5  6  2  0
  6  7  1  0
  7  8  1  0
  7  9  2  0
  9 10  1  0
 10 11  2  0
 11 12  1  0
 12 13  2  3
 13 14  1  0
 14 15  3  0
 13 16  1  0
 16 17  3  0
  1 18  1  0
 18 19  2  0
 19 20  1  0
 20 21  1  0
 21 22  1  0
 22 23  1  0
 23 24  2  0
 24 25  1  0
 25 26  1  0
 26 27  1  0
 27 28  2  0
 28 29  1  0
 29 30  2  0
 30 31  1  0
 31 32  1  0
 30 33  1  0
 33 34  2  0
 26 35  1  0
 35 36  2  0
 36 37  1  0
 37 38  2  0
 38 39  1  0
 38 40  1  0
 40 41  2  0
 26 42  1  0
 42 43  2  0
 43 44  1  0
 44 45  1  0
 45 46  2  0
 46 47  1  0
 47 48  1  0
 48 49  2  0
 49 50  1  0
 50 51  2  0
 51 52  1  0
 52 53  1  0
 51 54  1  0
 54 55  2  0
 47 56  1  0
 56 57  2  0
 57 58  1  0
 58 59  2  0
 59 60  1  0
 60 61  1  0
 59 62  1  0
 62 63  2  0
 47 64  1  0
 64 65  1  0
 65 66  1  0
 43 67  1  0
 67 68  1  0
 68 69  1  0
 69 70  2  0
 70 71  1  0
 71 72  1  0
 70 73  1  0
 73 74  2  3
 74 75  1  0
 75 76  2  0
 75 77  1  0
 77 78  2  0
 78 79  1  0
 79 80  2  0
 80 81  1  0
 81 82  2  0
 82 83  1  0
 83 84  2  0
 84 85  1  0
 85 86  2  0
 78 87  1  0
 87 88  2  3
 88 89  1  0
 89 90  3  0
 88 91  1  0
 91 92  3  0
 12  2  1  0
 66 18  1  0
 72 68  2  0
 87 74  1  0
 11  5  1  0
 65 20  2  0
 86 77  1  0
 64 22  2  0
 86 81  1  0
 46 23  1  0
 55 48  1  0
 63 56  1  0
 44 25  2  0
 34 27  1  0
 41 35  1  0
 72 42  1  0
  1 93  1  0
  6 94  1  0
  8 95  1  0
  8 96  1  0
  8 97  1  0
  9 98  1  0
 10 99  1  0
 19100  1  0
 24101  1  0
 28102  1  0
 29103  1  0
 31104  1  0
 31105  1  0
 32106  1  0
 32107  1  0
 32108  1  0
 33109  1  0
 34110  1  0
 36111  1  0
 37112  1  0
 39113  1  0
 39114  1  0
 39115  1  0
 40116  1  0
 41117  1  0
 45118  1  0
 49119  1  0
 50120  1  0
 52121  1  0
 52122  1  0
 53123  1  0
 53124  1  0
 53125  1  0
 54126  1  0
 55127  1  0
 57128  1  0
 58129  1  0
 60130  1  0
 60131  1  0
 61132  1  0
 61133  1  0
 61134  1  0
 62135  1  0
 63136  1  0
 69137  1  0
 73138  1  0
 79139  1  0
 80140  1  0
 82141  1  0
 83142  1  0
 84143  1  0
 85144  1  0
M  END

