
     RDKit          3D

159174  0  0  0  0  0  0  0  0999 V2000
    3.6344    2.3797    7.9003 C   0  0  0  0  0  0  0  0  0  0  0  0
    3.8610    1.0729    8.1374 C   0  0  0  0  0  0  0  0  0  0  0  0
    3.1943    0.3907    9.2492 C   0  0  0  0  0  0  0  0  0  0  0  0
    2.8670    0.9104   10.3488 O   0  0  0  0  0  0  0  0  0  0  0  0
    2.8603   -0.9539    8.8186 C   0  0  0  0  0  0  0  0  0  0  0  0
    2.0613   -1.9007    9.4571 C   0  0  0  0  0  0  0  0  0  0  0  0
    1.7920   -3.1113    8.7911 C   0  0  0  0  0  0  0  0  0  0  0  0
    0.9009   -4.1374    9.4238 C   0  0  0  0  0  0  0  0  0  0  0  0
    2.2933   -3.3198    7.4868 C   0  0  0  0  0  0  0  0  0  0  0  0
    3.0902   -2.3477    6.8610 C   0  0  0  0  0  0  0  0  0  0  0  0
    3.3784   -1.1657    7.5549 C   0  0  0  0  0  0  0  0  0  0  0  0
    4.1820    0.0120    7.1476 C   0  0  0  0  0  0  0  0  0  0  0  0
    5.3457   -0.0561    6.4607 C   0  0  0  0  0  0  0  0  0  0  0  0
    6.3781    0.9356    6.6465 C   0  0  0  0  0  0  0  0  0  0  0  0
    7.2081    1.7272    6.7968 N   0  0  0  0  0  0  0  0  0  0  0  0
    5.6883   -1.1838    5.6364 C   0  0  0  0  0  0  0  0  0  0  0  0
    5.9689   -2.0853    4.9688 N   0  0  0  0  0  0  0  0  0  0  0  0
    3.3987    2.9590    6.5613 C   0  0  0  0  0  0  0  0  0  0  0  0
    4.2805    2.6909    5.1298 S   0  0  0  0  0  0  0  0  0  0  0  0
    3.2437    3.5999    4.1883 C   0  0  0  0  0  0  0  0  0  0  0  0
    2.9388    3.6633    2.7974 C   0  0  0  0  0  0  0  0  0  0  0  0
    1.6674    4.1615    2.6189 C   0  0  0  0  0  0  0  0  0  0  0  0
    1.0051    4.4173    4.0020 C   0  0  0  0  0  0  0  0  0  0  0  0
    2.1757    4.0280    4.9001 C   0  0  0  0  0  0  0  0  0  0  0  0
    2.2573    3.7162    6.2626 C   0  0  0  0  0  0  0  0  0  0  0  0
    0.7003    5.9162    4.1941 C   0  0  0  0  0  0  0  0  0  0  0  0
   -0.6110    6.4215    4.3590 C   0  0  0  0  0  0  0  0  0  0  0  0
   -0.8413    7.7911    4.5051 C   0  0  0  0  0  0  0  0  0  0  0  0
    0.2255    8.6970    4.4820 C   0  0  0  0  0  0  0  0  0  0  0  0
   -0.0359   10.1765    4.5828 C   0  0  0  0  0  0  0  0  0  0  0  0
   -0.3818   10.7555    3.2129 C   0  0  0  0  0  0  0  0  0  0  0  0
    1.5265    8.2173    4.2909 C   0  0  0  0  0  0  0  0  0  0  0  0
    1.7600    6.8481    4.1468 C   0  0  0  0  0  0  0  0  0  0  0  0
   -0.1392    3.4309    4.3373 C   0  0  0  0  0  0  0  0  0  0  0  0
   -0.8814    3.5833    5.5313 C   0  0  0  0  0  0  0  0  0  0  0  0
   -1.8269    2.6338    5.9268 C   0  0  0  0  0  0  0  0  0  0  0  0
   -2.0400    1.4847    5.1576 C   0  0  0  0  0  0  0  0  0  0  0  0
   -3.0083    0.4292    5.6178 C   0  0  0  0  0  0  0  0  0  0  0  0
   -2.3147   -0.5702    6.5409 C   0  0  0  0  0  0  0  0  0  0  0  0
   -1.2727    1.2837    4.0063 C   0  0  0  0  0  0  0  0  0  0  0  0
   -0.3252    2.2295    3.6118 C   0  0  0  0  0  0  0  0  0  0  0  0
    1.1698    3.8782    1.3138 C   0  0  0  0  0  0  0  0  0  0  0  0
   -0.0657    4.2461    0.7304 C   0  0  0  0  0  0  0  0  0  0  0  0
   -0.9671    5.2565    1.4006 C   0  0  0  0  0  0  0  0  0  0  0  0
   -2.0127    5.9216    0.5022 C   0  0  0  0  0  0  0  0  0  0  0  0
   -0.4233    3.6505   -0.5018 C   0  0  0  0  0  0  0  0  0  0  0  0
    0.4310    2.7389   -1.1584 C   0  0  0  0  0  0  0  0  0  0  0  0
    0.0304    2.0508   -2.3129 C   0  0  0  0  0  0  0  0  0  0  0  0
   -1.4912    2.1353   -3.0591 S   0  0  0  0  0  0  0  0  0  0  0  0
   -1.1468    0.8946   -4.1221 C   0  0  0  0  0  0  0  0  0  0  0  0
   -1.9911   -0.0431   -4.7857 C   0  0  0  0  0  0  0  0  0  0  0  0
   -1.3158   -1.1986   -4.9708 C   0  0  0  0  0  0  0  0  0  0  0  0
    0.0903   -1.1517   -4.3948 C   0  0  0  0  0  0  0  0  0  0  0  0
    0.1230   -2.2171   -3.2741 C   0  0  0  0  0  0  0  0  0  0  0  0
    0.1599   -3.5908   -3.6084 C   0  0  0  0  0  0  0  0  0  0  0  0
    0.1138   -4.5796   -2.6217 C   0  0  0  0  0  0  0  0  0  0  0  0
   -0.0026   -4.2279   -1.2722 C   0  0  0  0  0  0  0  0  0  0  0  0
   -0.0953   -5.2917   -0.2121 C   0  0  0  0  0  0  0  0  0  0  0  0
   -1.5487   -5.6848    0.0303 C   0  0  0  0  0  0  0  0  0  0  0  0
   -0.1216   -2.8771   -0.9281 C   0  0  0  0  0  0  0  0  0  0  0  0
   -0.0814   -1.8893   -1.9131 C   0  0  0  0  0  0  0  0  0  0  0  0
    1.1071   -1.3412   -5.5391 C   0  0  0  0  0  0  0  0  0  0  0  0
    0.9606   -0.6021   -6.7335 C   0  0  0  0  0  0  0  0  0  0  0  0
    1.8390   -0.7799   -7.8058 C   0  0  0  0  0  0  0  0  0  0  0  0
    2.8954   -1.6948   -7.7118 C   0  0  0  0  0  0  0  0  0  0  0  0
    3.8479   -1.8848   -8.8625 C   0  0  0  0  0  0  0  0  0  0  0  0
    5.0419   -0.9438   -8.7377 C   0  0  0  0  0  0  0  0  0  0  0  0
    3.0888   -2.3940   -6.5153 C   0  0  0  0  0  0  0  0  0  0  0  0
    2.2095   -2.2225   -5.4445 C   0  0  0  0  0  0  0  0  0  0  0  0
    0.0813    0.3168   -3.8811 C   0  0  0  0  0  0  0  0  0  0  0  0
    0.8121    1.0294   -2.8877 C   0  0  0  0  0  0  0  0  0  0  0  0
    2.1103    0.7747   -2.3840 C   0  0  0  0  0  0  0  0  0  0  0  0
    3.0259   -0.2180   -3.0636 C   0  0  0  0  0  0  0  0  0  0  0  0
    4.5167   -0.0814   -2.7401 C   0  0  0  0  0  0  0  0  0  0  0  0
    2.5255    1.4792   -1.2299 C   0  0  0  0  0  0  0  0  0  0  0  0
    1.6949    2.4341   -0.6079 C   0  0  0  0  0  0  0  0  0  0  0  0
    2.0532    3.0435    0.6031 C   0  0  0  0  0  0  0  0  0  0  0  0
    3.4458    2.7228    1.5151 S   0  0  0  0  0  0  0  0  0  0  0  0
   -2.0853   -2.2020   -5.5578 C   0  0  0  0  0  0  0  0  0  0  0  0
   -3.4073   -1.7781   -5.7610 C   0  0  0  0  0  0  0  0  0  0  0  0
   -3.5910   -0.1564   -5.2696 S   0  0  0  0  0  0  0  0  0  0  0  0
   -4.4728   -2.5707   -6.3929 C   0  0  0  0  0  0  0  0  0  0  0  0
   -4.6802   -3.8813   -6.1530 C   0  0  0  0  0  0  0  0  0  0  0  0
   -4.1944   -4.6126   -4.9723 C   0  0  0  0  0  0  0  0  0  0  0  0
   -3.4875   -4.1477   -4.0416 O   0  0  0  0  0  0  0  0  0  0  0  0
   -4.8412   -5.9054   -4.9397 C   0  0  0  0  0  0  0  0  0  0  0  0
   -5.7015   -6.0299   -6.0165 C   0  0  0  0  0  0  0  0  0  0  0  0
   -6.4567   -7.2076   -6.1616 C   0  0  0  0  0  0  0  0  0  0  0  0
   -6.3188   -8.2349   -5.2150 C   0  0  0  0  0  0  0  0  0  0  0  0
   -7.0444   -9.3731   -5.3473 F   0  0  0  0  0  0  0  0  0  0  0  0
   -5.4364   -8.0901   -4.1302 C   0  0  0  0  0  0  0  0  0  0  0  0
   -5.3122   -9.0879   -3.2213 F   0  0  0  0  0  0  0  0  0  0  0  0
   -4.6930   -6.9133   -3.9839 C   0  0  0  0  0  0  0  0  0  0  0  0
   -3.8505   -6.7608   -2.9320 F   0  0  0  0  0  0  0  0  0  0  0  0
   -5.6344   -4.7970   -6.8596 C   0  0  0  0  0  0  0  0  0  0  0  0
   -6.1967   -4.6060   -8.0858 C   0  0  0  0  0  0  0  0  0  0  0  0
   -7.1292   -5.5299   -8.6741 C   0  0  0  0  0  0  0  0  0  0  0  0
   -7.8833   -6.2594   -9.1640 N   0  0  0  0  0  0  0  0  0  0  0  0
   -5.8517   -3.4942   -8.9339 C   0  0  0  0  0  0  0  0  0  0  0  0
   -5.5791   -2.6081   -9.6279 N   0  0  0  0  0  0  0  0  0  0  0  0
    3.2434    2.9674    8.7222 H   0  0  0  0  0  0  0  0  0  0  0  0
    1.6506   -1.6950   10.4368 H   0  0  0  0  0  0  0  0  0  0  0  0
    0.9120   -4.0433   10.5312 H   0  0  0  0  0  0  0  0  0  0  0  0
    1.2419   -5.1617    9.1607 H   0  0  0  0  0  0  0  0  0  0  0  0
   -0.1399   -3.9955    9.0624 H   0  0  0  0  0  0  0  0  0  0  0  0
    2.0553   -4.2296    6.9504 H   0  0  0  0  0  0  0  0  0  0  0  0
    3.4329   -2.5127    5.8490 H   0  0  0  0  0  0  0  0  0  0  0  0
    1.4802    3.9300    6.9815 H   0  0  0  0  0  0  0  0  0  0  0  0
   -1.4755    5.7765    4.3374 H   0  0  0  0  0  0  0  0  0  0  0  0
   -1.8583    8.1469    4.6166 H   0  0  0  0  0  0  0  0  0  0  0  0
    0.8578   10.6995    4.9867 H   0  0  0  0  0  0  0  0  0  0  0  0
   -0.8773   10.3677    5.2836 H   0  0  0  0  0  0  0  0  0  0  0  0
   -0.5267   11.8530    3.2997 H   0  0  0  0  0  0  0  0  0  0  0  0
   -1.3190   10.3012    2.8289 H   0  0  0  0  0  0  0  0  0  0  0  0
    0.4419   10.5620    2.4928 H   0  0  0  0  0  0  0  0  0  0  0  0
    2.3618    8.9052    4.2433 H   0  0  0  0  0  0  0  0  0  0  0  0
    2.7787    6.5160    3.9884 H   0  0  0  0  0  0  0  0  0  0  0  0
   -0.7105    4.4313    6.1819 H   0  0  0  0  0  0  0  0  0  0  0  0
   -2.3750    2.7826    6.8505 H   0  0  0  0  0  0  0  0  0  0  0  0
   -3.4291   -0.1124    4.7427 H   0  0  0  0  0  0  0  0  0  0  0  0
   -3.8579    0.8997    6.1580 H   0  0  0  0  0  0  0  0  0  0  0  0
   -3.0436   -1.3435    6.8632 H   0  0  0  0  0  0  0  0  0  0  0  0
   -1.9219   -0.0528    7.4414 H   0  0  0  0  0  0  0  0  0  0  0  0
   -1.4774   -1.0696    6.0096 H   0  0  0  0  0  0  0  0  0  0  0  0
   -1.3845    0.3744    3.4276 H   0  0  0  0  0  0  0  0  0  0  0  0
    0.2846    1.9748    2.7620 H   0  0  0  0  0  0  0  0  0  0  0  0
   -0.3258    6.0784    1.7731 H   0  0  0  0  0  0  0  0  0  0  0  0
   -1.4920    4.7630    2.2422 H   0  0  0  0  0  0  0  0  0  0  0  0
   -2.4907    6.7594    1.0548 H   0  0  0  0  0  0  0  0  0  0  0  0
   -1.5381    6.3321   -0.4153 H   0  0  0  0  0  0  0  0  0  0  0  0
   -2.8118    5.2004    0.2284 H   0  0  0  0  0  0  0  0  0  0  0  0
   -1.3800    3.8734   -0.9467 H   0  0  0  0  0  0  0  0  0  0  0  0
    0.2222   -3.9039   -4.6418 H   0  0  0  0  0  0  0  0  0  0  0  0
    0.1556   -5.6205   -2.9145 H   0  0  0  0  0  0  0  0  0  0  0  0
    0.3478   -4.9213    0.7373 H   0  0  0  0  0  0  0  0  0  0  0  0
    0.4825   -6.1901   -0.5186 H   0  0  0  0  0  0  0  0  0  0  0  0
   -1.5958   -6.4531    0.8303 H   0  0  0  0  0  0  0  0  0  0  0  0
   -1.9931   -6.1059   -0.8965 H   0  0  0  0  0  0  0  0  0  0  0  0
   -2.1400   -4.8004    0.3505 H   0  0  0  0  0  0  0  0  0  0  0  0
   -0.2692   -2.5882    0.1065 H   0  0  0  0  0  0  0  0  0  0  0  0
   -0.2484   -0.8764   -1.5884 H   0  0  0  0  0  0  0  0  0  0  0  0
    0.1524    0.1101   -6.8451 H   0  0  0  0  0  0  0  0  0  0  0  0
    1.6908   -0.2084   -8.7146 H   0  0  0  0  0  0  0  0  0  0  0  0
    4.2106   -2.9356   -8.8859 H   0  0  0  0  0  0  0  0  0  0  0  0
    3.3283   -1.6943   -9.8263 H   0  0  0  0  0  0  0  0  0  0  0  0
    5.7271   -1.0994   -9.5976 H   0  0  0  0  0  0  0  0  0  0  0  0
    5.5971   -1.1488   -7.7983 H   0  0  0  0  0  0  0  0  0  0  0  0
    4.7003    0.1129   -8.7402 H   0  0  0  0  0  0  0  0  0  0  0  0
    3.9241   -3.0764   -6.4106 H   0  0  0  0  0  0  0  0  0  0  0  0
    2.4200   -2.7742   -4.5409 H   0  0  0  0  0  0  0  0  0  0  0  0
    2.9400   -0.0555   -4.1544 H   0  0  0  0  0  0  0  0  0  0  0  0
    2.7042   -1.2445   -2.7970 H   0  0  0  0  0  0  0  0  0  0  0  0
    4.8539    0.9678   -2.8853 H   0  0  0  0  0  0  0  0  0  0  0  0
    4.7234   -0.4093   -1.6995 H   0  0  0  0  0  0  0  0  0  0  0  0
    5.1008   -0.7337   -3.4218 H   0  0  0  0  0  0  0  0  0  0  0  0
    3.4880    1.2699   -0.7907 H   0  0  0  0  0  0  0  0  0  0  0  0
   -1.7166   -3.1855   -5.8104 H   0  0  0  0  0  0  0  0  0  0  0  0
   -5.1214   -2.0282   -7.0583 H   0  0  0  0  0  0  0  0  0  0  0  0
   -7.1522   -7.3574   -6.9650 H   0  0  0  0  0  0  0  0  0  0  0  0
  1  2  2  3
  2  3  1  0
  3  4  2  0
  3  5  1  0
  5  6  2  0
  6  7  1  0
  7  8  1  0
  7  9  2  0
  9 10  1  0
 10 11  2  0
 11 12  1  0
 12 13  2  3
 13 14  1  0
 14 15  3  0
 13 16  1  0
 16 17  3  0
  1 18  1  0
 18 19  1  0
 19 20  1  0
 20 21  1  0
 21 22  2  0
 22 23  1  0
 23 24  1  0
 24 25  1  0
 23 26  1  0
 26 27  2  0
 27 28  1  0
 28 29  2  0
 29 30  1  0
 30 31  1  0
 29 32  1  0
 32 33  2  0
 23 34  1  0
 34 35  2  0
 35 36  1  0
 36 37  2  0
 37 38  1  0
 38 39  1  0
 37 40  1  0
 40 41  2  0
 22 42  1  0
 42 43  2  0
 43 44  1  0
 44 45  1  0
 43 46  1  0
 46 47  2  0
 47 48  1  0
 48 49  1  0
 49 50  1  0
 50 51  1  0
 51 52  2  0
 52 53  1  0
 53 54  1  0
 54 55  2  0
 55 56  1  0
 56 57  2  0
 57 58  1  0
 58 59  1  0
 57 60  1  0
 60 61  2  0
 53 62  1  0
 62 63  2  0
 63 64  1  0
 64 65  2  0
 65 66  1  0
 66 67  1  0
 65 68  1  0
 68 69  2  0
 53 70  1  0
 70 71  1  0
 71 72  1  0
 72 73  1  0
 73 74  1  0
 72 75  2  0
 75 76  1  0
 76 77  2  0
 77 78  1  0
 52 79  1  0
 79 80  2  0
 80 81  1  0
 80 82  1  0
 82 83  2  3
 83 84  1  0
 84 85  2  0
 84 86  1  0
 86 87  2  0
 87 88  1  0
 88 89  2  0
 89 90  1  0
 89 91  1  0
 91 92  1  0
 91 93  2  0
 93 94  1  0
 87 95  1  0
 95 96  2  3
 96 97  1  0
 97 98  3  0
 96 99  1  0
 99100  3  0
 12  2  1  0
 25 18  2  0
 33 26  1  0
 41 34  1  0
 77 42  1  0
 95 83  1  0
 11  5  1  0
 24 20  2  0
 76 47  1  0
 93 86  1  0
 78 21  1  0
 71 48  2  0
 70 50  2  0
 81 51  1  0
 61 54  1  0
 69 62  1  0
  1101  1  0
  6102  1  0
  8103  1  0
  8104  1  0
  8105  1  0
  9106  1  0
 10107  1  0
 25108  1  0
 27109  1  0
 28110  1  0
 30111  1  0
 30112  1  0
 31113  1  0
 31114  1  0
 31115  1  0
 32116  1  0
 33117  1  0
 35118  1  0
 36119  1  0
 38120  1  0
 38121  1  0
 39122  1  0
 39123  1  0
 39124  1  0
 40125  1  0
 41126  1  0
 44127  1  0
 44128  1  0
 45129  1  0
 45130  1  0
 45131  1  0
 46132  1  0
 55133  1  0
 56134  1  0
 58135  1  0
 58136  1  0
 59137  1  0
 59138  1  0
 59139  1  0
 60140  1  0
 61141  1  0
 63142  1  0
 64143  1  0
 66144  1  0
 66145  1  0
 67146  1  0
 67147  1  0
 67148  1  0
 68149  1  0
 69150  1  0
 73151  1  0
 73152  1  0
 74153  1  0
 74154  1  0
 74155  1  0
 75156  1  0
 79157  1  0
 82158  1  0
 88159  1  0
M  END

