
     RDKit          3D

102110  0  0  0  0  0  0  0  0999 V2000
    6.6537   -1.9168    5.9323 C   0  0  0  0  0  0  0  0  0  0  0  0
    7.5880   -1.0433    6.3431 C   0  0  0  0  0  0  0  0  0  0  0  0
    8.7936   -1.5513    6.9619 C   0  0  0  0  0  0  0  0  0  0  0  0
    9.7569   -1.9431    7.4679 N   0  0  0  0  0  0  0  0  0  0  0  0
    7.4281    0.4310    6.2260 C   0  0  0  0  0  0  0  0  0  0  0  0
    8.4489    1.1696    6.2322 O   0  0  0  0  0  0  0  0  0  0  0  0
    6.1493    1.0021    6.1262 O   0  0  0  0  0  0  0  0  0  0  0  0
    5.9125    2.3982    5.9554 C   0  0  0  0  0  0  0  0  0  0  0  0
    6.2395    2.8308    4.5288 C   0  0  0  0  0  0  0  0  0  0  0  0
    5.4580   -1.5104    5.1804 C   0  0  0  0  0  0  0  0  0  0  0  0
    5.4930   -0.7976    3.6335 S   0  0  0  0  0  0  0  0  0  0  0  0
    3.8642   -0.4581    3.6791 C   0  0  0  0  0  0  0  0  0  0  0  0
    2.8817    0.1318    2.8149 C   0  0  0  0  0  0  0  0  0  0  0  0
    1.6615    0.0795    3.4915 C   0  0  0  0  0  0  0  0  0  0  0  0
    1.8136   -0.5697    4.8587 C   0  0  0  0  0  0  0  0  0  0  0  0
    3.2868   -0.8764    4.8238 C   0  0  0  0  0  0  0  0  0  0  0  0
    4.1659   -1.5002    5.7047 C   0  0  0  0  0  0  0  0  0  0  0  0
    0.9788   -1.8570    4.9658 C   0  0  0  0  0  0  0  0  0  0  0  0
    1.4947    0.4184    5.9851 C   0  0  0  0  0  0  0  0  0  0  0  0
    0.4796    0.5181    2.8646 C   0  0  0  0  0  0  0  0  0  0  0  0
    0.6023    1.0387    1.5634 C   0  0  0  0  0  0  0  0  0  0  0  0
   -0.4294    1.4024    0.6221 C   0  0  0  0  0  0  0  0  0  0  0  0
    0.1756    1.6842   -0.6089 C   0  0  0  0  0  0  0  0  0  0  0  0
    1.6817    1.6180   -0.5159 C   0  0  0  0  0  0  0  0  0  0  0  0
    2.3033    3.0084   -0.6843 C   0  0  0  0  0  0  0  0  0  0  0  0
    2.2632    0.6233   -1.5374 C   0  0  0  0  0  0  0  0  0  0  0  0
    1.8374    1.1208    0.9099 C   0  0  0  0  0  0  0  0  0  0  0  0
    3.0169    0.6743    1.5398 C   0  0  0  0  0  0  0  0  0  0  0  0
   -0.6045    1.8394   -1.7614 C   0  0  0  0  0  0  0  0  0  0  0  0
   -1.9914    1.6999   -1.6133 C   0  0  0  0  0  0  0  0  0  0  0  0
   -2.9786    1.4833   -2.6474 C   0  0  0  0  0  0  0  0  0  0  0  0
   -4.2006    1.1786   -2.0356 C   0  0  0  0  0  0  0  0  0  0  0  0
   -4.0731    1.2116   -0.5235 C   0  0  0  0  0  0  0  0  0  0  0  0
   -2.5928    1.4777   -0.3764 C   0  0  0  0  0  0  0  0  0  0  0  0
   -1.8141    1.3286    0.7808 C   0  0  0  0  0  0  0  0  0  0  0  0
   -4.4601   -0.1458    0.0913 C   0  0  0  0  0  0  0  0  0  0  0  0
   -4.8894    2.3627    0.0697 C   0  0  0  0  0  0  0  0  0  0  0  0
   -5.2589    0.6204   -2.7778 C   0  0  0  0  0  0  0  0  0  0  0  0
   -4.9984    0.2982   -4.1161 C   0  0  0  0  0  0  0  0  0  0  0  0
   -5.6771   -0.7118   -4.8955 C   0  0  0  0  0  0  0  0  0  0  0  0
   -4.8328   -1.1805   -5.8652 C   0  0  0  0  0  0  0  0  0  0  0  0
   -3.5618   -0.3500   -5.9332 C   0  0  0  0  0  0  0  0  0  0  0  0
   -3.7508    0.5293   -4.7091 C   0  0  0  0  0  0  0  0  0  0  0  0
   -2.7298    1.1822   -3.9970 C   0  0  0  0  0  0  0  0  0  0  0  0
   -2.3051   -1.2275   -5.8039 C   0  0  0  0  0  0  0  0  0  0  0  0
   -3.5232    0.5066   -7.2112 C   0  0  0  0  0  0  0  0  0  0  0  0
   -5.0517   -2.5223   -6.2118 C   0  0  0  0  0  0  0  0  0  0  0  0
   -6.0891   -3.0818   -5.4620 C   0  0  0  0  0  0  0  0  0  0  0  0
   -6.6992   -1.9370   -4.3821 S   0  0  0  0  0  0  0  0  0  0  0  0
   -6.3360   -4.5150   -5.2626 C   0  0  0  0  0  0  0  0  0  0  0  0
   -5.4510   -5.3665   -4.6998 C   0  0  0  0  0  0  0  0  0  0  0  0
   -5.9188   -6.6795   -4.3436 C   0  0  0  0  0  0  0  0  0  0  0  0
   -6.2958   -7.7153   -3.9978 N   0  0  0  0  0  0  0  0  0  0  0  0
   -4.0914   -4.9911   -4.2510 C   0  0  0  0  0  0  0  0  0  0  0  0
   -3.8206   -3.8002   -3.9418 O   0  0  0  0  0  0  0  0  0  0  0  0
   -3.1083   -5.9796   -4.1347 O   0  0  0  0  0  0  0  0  0  0  0  0
   -1.7568   -5.7033   -3.7669 C   0  0  0  0  0  0  0  0  0  0  0  0
   -1.0026   -5.0374   -4.9175 C   0  0  0  0  0  0  0  0  0  0  0  0
    6.7730   -2.9749    6.1472 H   0  0  0  0  0  0  0  0  0  0  0  0
    6.5071    2.9798    6.6918 H   0  0  0  0  0  0  0  0  0  0  0  0
    4.8334    2.5958    6.1393 H   0  0  0  0  0  0  0  0  0  0  0  0
    6.1529    3.9491    4.4556 H   0  0  0  0  0  0  0  0  0  0  0  0
    5.5349    2.3364    3.8194 H   0  0  0  0  0  0  0  0  0  0  0  0
    7.2804    2.5527    4.2655 H   0  0  0  0  0  0  0  0  0  0  0  0
    3.8862   -1.8761    6.6800 H   0  0  0  0  0  0  0  0  0  0  0  0
   -0.1097   -1.6167    4.9579 H   0  0  0  0  0  0  0  0  0  0  0  0
    1.2240   -2.3899    5.9105 H   0  0  0  0  0  0  0  0  0  0  0  0
    1.1899   -2.5457    4.1139 H   0  0  0  0  0  0  0  0  0  0  0  0
    0.4367    0.7341    5.9449 H   0  0  0  0  0  0  0  0  0  0  0  0
    1.6931   -0.0413    6.9696 H   0  0  0  0  0  0  0  0  0  0  0  0
    2.1217    1.3145    5.8982 H   0  0  0  0  0  0  0  0  0  0  0  0
   -0.4851    0.4204    3.3532 H   0  0  0  0  0  0  0  0  0  0  0  0
    3.3933    2.9706   -0.4893 H   0  0  0  0  0  0  0  0  0  0  0  0
    2.1235    3.3797   -1.7179 H   0  0  0  0  0  0  0  0  0  0  0  0
    1.8336    3.7257    0.0231 H   0  0  0  0  0  0  0  0  0  0  0  0
    3.3720    0.5605   -1.4323 H   0  0  0  0  0  0  0  0  0  0  0  0
    2.0474    0.9766   -2.5727 H   0  0  0  0  0  0  0  0  0  0  0  0
    1.8185   -0.3851   -1.4054 H   0  0  0  0  0  0  0  0  0  0  0  0
    3.9830    0.7058    1.0527 H   0  0  0  0  0  0  0  0  0  0  0  0
   -0.1544    1.9725   -2.7295 H   0  0  0  0  0  0  0  0  0  0  0  0
   -2.2602    1.0678    1.7355 H   0  0  0  0  0  0  0  0  0  0  0  0
   -4.2475   -0.1692    1.1814 H   0  0  0  0  0  0  0  0  0  0  0  0
   -5.5461   -0.3427   -0.0462 H   0  0  0  0  0  0  0  0  0  0  0  0
   -3.8982   -0.9602   -0.4026 H   0  0  0  0  0  0  0  0  0  0  0  0
   -5.9721    2.1916   -0.1211 H   0  0  0  0  0  0  0  0  0  0  0  0
   -4.5879    3.3298   -0.4003 H   0  0  0  0  0  0  0  0  0  0  0  0
   -4.7303    2.4346    1.1724 H   0  0  0  0  0  0  0  0  0  0  0  0
   -6.1764    0.2727   -2.3049 H   0  0  0  0  0  0  0  0  0  0  0  0
   -1.7361    1.2678   -4.4125 H   0  0  0  0  0  0  0  0  0  0  0  0
   -2.3095   -1.7646   -4.8371 H   0  0  0  0  0  0  0  0  0  0  0  0
   -2.2668   -1.9802   -6.6101 H   0  0  0  0  0  0  0  0  0  0  0  0
   -1.3661   -0.6261   -5.8396 H   0  0  0  0  0  0  0  0  0  0  0  0
   -4.4349    1.1389   -7.2961 H   0  0  0  0  0  0  0  0  0  0  0  0
   -2.6479    1.1907   -7.1959 H   0  0  0  0  0  0  0  0  0  0  0  0
   -3.4516   -0.1338   -8.1163 H   0  0  0  0  0  0  0  0  0  0  0  0
   -4.3846   -3.1108   -6.8300 H   0  0  0  0  0  0  0  0  0  0  0  0
   -7.3540   -4.8455   -5.4385 H   0  0  0  0  0  0  0  0  0  0  0  0
   -1.7319   -5.0776   -2.8592 H   0  0  0  0  0  0  0  0  0  0  0  0
   -1.2466   -6.6589   -3.5205 H   0  0  0  0  0  0  0  0  0  0  0  0
   -1.0066   -5.7106   -5.7969 H   0  0  0  0  0  0  0  0  0  0  0  0
    0.0500   -4.8260   -4.6170 H   0  0  0  0  0  0  0  0  0  0  0  0
   -1.4902   -4.0860   -5.1981 H   0  0  0  0  0  0  0  0  0  0  0  0
  1  2  2  3
  2  3  1  0
  3  4  3  0
  2  5  1  0
  5  6  2  0
  5  7  1  0
  7  8  1  0
  8  9  1  0
  1 10  1  0
 10 11  1  0
 11 12  1  0
 12 13  1  0
 13 14  2  0
 14 15  1  0
 15 16  1  0
 16 17  1  0
 15 18  1  0
 15 19  1  0
 14 20  1  0
 20 21  2  0
 21 22  1  0
 22 23  2  0
 23 24  1  0
 24 25  1  0
 24 26  1  0
 24 27  1  0
 27 28  2  0
 23 29  1  0
 29 30  2  0
 30 31  1  0
 31 32  2  0
 32 33  1  0
 33 34  1  0
 34 35  2  0
 33 36  1  0
 33 37  1  0
 32 38  1  0
 38 39  2  0
 39 40  1  0
 40 41  2  0
 41 42  1  0
 42 43  1  0
 43 44  2  0
 42 45  1  0
 42 46  1  0
 41 47  1  0
 47 48  2  0
 48 49  1  0
 48 50  1  0
 50 51  2  3
 51 52  1  0
 52 53  3  0
 51 54  1  0
 54 55  2  0
 54 56  1  0
 56 57  1  0
 57 58  1  0
 17 10  2  0
 27 21  1  0
 34 30  1  0
 43 39  1  0
 16 12  2  0
 35 22  1  0
 49 40  1  0
 28 13  1  0
 44 31  1  0
  1 59  1  0
  8 60  1  0
  8 61  1  0
  9 62  1  0
  9 63  1  0
  9 64  1  0
 17 65  1  0
 18 66  1  0
 18 67  1  0
 18 68  1  0
 19 69  1  0
 19 70  1  0
 19 71  1  0
 20 72  1  0
 25 73  1  0
 25 74  1  0
 25 75  1  0
 26 76  1  0
 26 77  1  0
 26 78  1  0
 28 79  1  0
 29 80  1  0
 35 81  1  0
 36 82  1  0
 36 83  1  0
 36 84  1  0
 37 85  1  0
 37 86  1  0
 37 87  1  0
 38 88  1  0
 44 89  1  0
 45 90  1  0
 45 91  1  0
 45 92  1  0
 46 93  1  0
 46 94  1  0
 46 95  1  0
 47 96  1  0
 50 97  1  0
 57 98  1  0
 57 99  1  0
 58100  1  0
 58101  1  0
 58102  1  0
M  END

