
     RDKit          3D

119131  0  0  0  0  0  0  0  0999 V2000
   -0.0972   -5.3524   -8.5167 C   0  0  0  0  0  0  0  0  0  0  0  0
   -0.1989   -6.6696   -8.2545 C   0  0  0  0  0  0  0  0  0  0  0  0
   -0.0146   -7.5975   -9.3441 C   0  0  0  0  0  0  0  0  0  0  0  0
    0.1374   -8.3415  -10.2181 N   0  0  0  0  0  0  0  0  0  0  0  0
   -0.4387   -7.2195   -6.8953 C   0  0  0  0  0  0  0  0  0  0  0  0
   -0.8205   -8.4157   -6.7644 O   0  0  0  0  0  0  0  0  0  0  0  0
   -0.2065   -6.4339   -5.7611 O   0  0  0  0  0  0  0  0  0  0  0  0
   -0.4407   -6.8862   -4.4334 C   0  0  0  0  0  0  0  0  0  0  0  0
   -0.1484   -5.7565   -3.4574 C   0  0  0  0  0  0  0  0  0  0  0  0
   -0.3403   -4.3017   -7.5150 C   0  0  0  0  0  0  0  0  0  0  0  0
   -1.6384   -4.1162   -6.9802 C   0  0  0  0  0  0  0  0  0  0  0  0
   -1.8636   -3.1953   -5.9455 C   0  0  0  0  0  0  0  0  0  0  0  0
   -0.7698   -2.4899   -5.4504 C   0  0  0  0  0  0  0  0  0  0  0  0
   -0.6081   -1.5735   -4.4291 C   0  0  0  0  0  0  0  0  0  0  0  0
    0.6685   -1.1712   -4.4625 C   0  0  0  0  0  0  0  0  0  0  0  0
    1.4014   -1.7909   -5.4150 N   0  0  0  0  0  0  0  0  0  0  0  0
    0.5010   -2.6230   -6.0084 C   0  0  0  0  0  0  0  0  0  0  0  0
    0.7353   -3.5197   -7.0548 C   0  0  0  0  0  0  0  0  0  0  0  0
    2.8168   -1.6254   -5.7412 C   0  0  0  0  0  0  0  0  0  0  0  0
    2.9883   -0.7011   -6.9407 C   0  0  0  0  0  0  0  0  0  0  0  0
    0.7571   -0.0331   -3.7051 C   0  0  0  0  0  0  0  0  0  0  0  0
    1.7028    0.9888   -3.6264 C   0  0  0  0  0  0  0  0  0  0  0  0
    1.4386    2.1290   -2.9224 C   0  0  0  0  0  0  0  0  0  0  0  0
    2.4481    2.9898   -3.1134 N   0  0  0  0  0  0  0  0  0  0  0  0
    3.2926    2.3526   -3.9208 N   0  0  0  0  0  0  0  0  0  0  0  0
    4.5498    2.9287   -4.3801 C   0  0  0  0  0  0  0  0  0  0  0  0
    5.6546    2.6444   -3.3729 C   0  0  0  0  0  0  0  0  0  0  0  0
    2.8761    1.1350   -4.2582 N   0  0  0  0  0  0  0  0  0  0  0  0
    0.2263    2.2879   -2.2387 C   0  0  0  0  0  0  0  0  0  0  0  0
   -0.7676    1.2859   -2.3102 C   0  0  0  0  0  0  0  0  0  0  0  0
   -0.5279    0.1344   -3.1361 C   0  0  0  0  0  0  0  0  0  0  0  0
   -1.4046   -0.7975   -3.6508 N   0  0  0  0  0  0  0  0  0  0  0  0
   -2.8566   -0.6771   -3.8089 C   0  0  0  0  0  0  0  0  0  0  0  0
   -3.6030   -1.8088   -3.0857 C   0  0  0  0  0  0  0  0  0  0  0  0
   -1.7156    1.4881   -1.3353 N   0  0  0  0  0  0  0  0  0  0  0  0
   -2.5666    0.4805   -0.6964 C   0  0  0  0  0  0  0  0  0  0  0  0
   -4.0420    0.8983   -0.7393 C   0  0  0  0  0  0  0  0  0  0  0  0
   -1.3265    2.6469   -0.7326 C   0  0  0  0  0  0  0  0  0  0  0  0
   -0.1806    3.1587   -1.2479 C   0  0  0  0  0  0  0  0  0  0  0  0
    0.5095    3.9030   -0.3439 N   0  0  0  0  0  0  0  0  0  0  0  0
    1.8393    4.5036   -0.4925 C   0  0  0  0  0  0  0  0  0  0  0  0
    1.7929    5.6587   -1.4880 C   0  0  0  0  0  0  0  0  0  0  0  0
   -0.2605    3.8592    0.7798 C   0  0  0  0  0  0  0  0  0  0  0  0
   -1.3957    3.0795    0.5853 C   0  0  0  0  0  0  0  0  0  0  0  0
   -2.2523    2.7591    1.6432 C   0  0  0  0  0  0  0  0  0  0  0  0
   -1.9430    3.2441    2.9202 C   0  0  0  0  0  0  0  0  0  0  0  0
   -0.7747    4.0030    3.1368 C   0  0  0  0  0  0  0  0  0  0  0  0
    0.0664    4.3367    2.0583 C   0  0  0  0  0  0  0  0  0  0  0  0
   -0.3725    4.3261    4.5130 C   0  0  0  0  0  0  0  0  0  0  0  0
    0.4151    3.5066    5.2348 C   0  0  0  0  0  0  0  0  0  0  0  0
    0.8810    2.1826    4.7963 C   0  0  0  0  0  0  0  0  0  0  0  0
    0.9077    1.7520    3.6132 O   0  0  0  0  0  0  0  0  0  0  0  0
    1.2721    1.4201    5.9597 C   0  0  0  0  0  0  0  0  0  0  0  0
    1.6026    0.0454    6.0001 C   0  0  0  0  0  0  0  0  0  0  0  0
    1.7646   -0.4524    7.2782 C   0  0  0  0  0  0  0  0  0  0  0  0
    1.6097    0.3483    8.4551 C   0  0  0  0  0  0  0  0  0  0  0  0
    1.2837    1.6944    8.4226 C   0  0  0  0  0  0  0  0  0  0  0  0
    1.1324    2.2336    7.1130 C   0  0  0  0  0  0  0  0  0  0  0  0
    0.7100    3.6023    6.6965 C   0  0  0  0  0  0  0  0  0  0  0  0
    0.7908    4.7381    7.4344 C   0  0  0  0  0  0  0  0  0  0  0  0
    0.5713    6.0410    6.8637 C   0  0  0  0  0  0  0  0  0  0  0  0
    0.3983    7.0937    6.4130 N   0  0  0  0  0  0  0  0  0  0  0  0
    1.2379    4.7417    8.8019 C   0  0  0  0  0  0  0  0  0  0  0  0
    1.5998    4.7628    9.9009 N   0  0  0  0  0  0  0  0  0  0  0  0
    1.8447   -0.8529    9.3218 C   0  0  0  0  0  0  0  0  0  0  0  0
    0.6099   -1.4846   10.0344 C   0  0  0  0  0  0  0  0  0  0  0  0
   -0.6341   -1.2706    9.2025 C   0  0  0  0  0  0  0  0  0  0  0  0
   -0.4921   -2.0143    8.1051 C   0  0  0  0  0  0  0  0  0  0  0  0
    0.8440   -2.7116    8.2270 C   0  0  0  0  0  0  0  0  0  0  0  0
    0.8520   -2.9510    9.7256 C   0  0  0  0  0  0  0  0  0  0  0  0
    2.0023   -1.6727    8.1156 C   0  0  0  0  0  0  0  0  0  0  0  0
    0.1798   -5.0263   -9.5133 H   0  0  0  0  0  0  0  0  0  0  0  0
   -1.5012   -7.1984   -4.3231 H   0  0  0  0  0  0  0  0  0  0  0  0
    0.2201   -7.7506   -4.2099 H   0  0  0  0  0  0  0  0  0  0  0  0
    0.8960   -5.4025   -3.5837 H   0  0  0  0  0  0  0  0  0  0  0  0
   -0.8430   -4.9091   -3.6399 H   0  0  0  0  0  0  0  0  0  0  0  0
   -0.2864   -6.1131   -2.4160 H   0  0  0  0  0  0  0  0  0  0  0  0
   -2.4675   -4.7103   -7.3477 H   0  0  0  0  0  0  0  0  0  0  0  0
   -2.8541   -3.0733   -5.5468 H   0  0  0  0  0  0  0  0  0  0  0  0
    1.7258   -3.6460   -7.4714 H   0  0  0  0  0  0  0  0  0  0  0  0
    3.3704   -1.2333   -4.8649 H   0  0  0  0  0  0  0  0  0  0  0  0
    3.2674   -2.6145   -5.9707 H   0  0  0  0  0  0  0  0  0  0  0  0
    4.0670   -0.4922   -7.1003 H   0  0  0  0  0  0  0  0  0  0  0  0
    2.4559    0.2574   -6.7739 H   0  0  0  0  0  0  0  0  0  0  0  0
    2.5775   -1.1843   -7.8520 H   0  0  0  0  0  0  0  0  0  0  0  0
    4.4336    4.0272   -4.5037 H   0  0  0  0  0  0  0  0  0  0  0  0
    4.8247    2.4945   -5.3662 H   0  0  0  0  0  0  0  0  0  0  0  0
    5.3857    3.0706   -2.3833 H   0  0  0  0  0  0  0  0  0  0  0  0
    5.8037    1.5480   -3.2717 H   0  0  0  0  0  0  0  0  0  0  0  0
    6.6021    3.1077   -3.7186 H   0  0  0  0  0  0  0  0  0  0  0  0
   -3.1885    0.3115   -3.4475 H   0  0  0  0  0  0  0  0  0  0  0  0
   -3.1165   -0.6911   -4.8888 H   0  0  0  0  0  0  0  0  0  0  0  0
   -2.9393   -2.3472   -2.3723 H   0  0  0  0  0  0  0  0  0  0  0  0
   -4.0118   -2.5500   -3.8010 H   0  0  0  0  0  0  0  0  0  0  0  0
   -4.4699   -1.4013   -2.5230 H   0  0  0  0  0  0  0  0  0  0  0  0
   -2.2438    0.3361    0.3561 H   0  0  0  0  0  0  0  0  0  0  0  0
   -2.4278   -0.5057   -1.1587 H   0  0  0  0  0  0  0  0  0  0  0  0
   -4.1751    1.9500   -0.4131 H   0  0  0  0  0  0  0  0  0  0  0  0
   -4.6369    0.2336   -0.0779 H   0  0  0  0  0  0  0  0  0  0  0  0
   -4.4559    0.8358   -1.7613 H   0  0  0  0  0  0  0  0  0  0  0  0
    2.5740    3.7332   -0.7978 H   0  0  0  0  0  0  0  0  0  0  0  0
    2.2139    4.9002    0.4709 H   0  0  0  0  0  0  0  0  0  0  0  0
    1.3791    5.3242   -2.4600 H   0  0  0  0  0  0  0  0  0  0  0  0
    2.8171    6.0547   -1.6500 H   0  0  0  0  0  0  0  0  0  0  0  0
    1.1517    6.4718   -1.0871 H   0  0  0  0  0  0  0  0  0  0  0  0
   -3.1247    2.1402    1.5215 H   0  0  0  0  0  0  0  0  0  0  0  0
   -2.5837    2.9823    3.7553 H   0  0  0  0  0  0  0  0  0  0  0  0
    0.9710    4.8948    2.2451 H   0  0  0  0  0  0  0  0  0  0  0  0
   -0.8613    5.1692    4.9715 H   0  0  0  0  0  0  0  0  0  0  0  0
    1.6643   -0.5782    5.1190 H   0  0  0  0  0  0  0  0  0  0  0  0
    1.0947    2.2366    9.3325 H   0  0  0  0  0  0  0  0  0  0  0  0
    2.7657   -0.7911    9.9434 H   0  0  0  0  0  0  0  0  0  0  0  0
    0.5038   -1.2324   11.1102 H   0  0  0  0  0  0  0  0  0  0  0  0
   -1.5097   -0.6865    9.4646 H   0  0  0  0  0  0  0  0  0  0  0  0
   -1.2314   -2.1397    7.3211 H   0  0  0  0  0  0  0  0  0  0  0  0
    0.9574   -3.6190    7.5961 H   0  0  0  0  0  0  0  0  0  0  0  0
    0.0271   -3.6188   10.0722 H   0  0  0  0  0  0  0  0  0  0  0  0
    1.8269   -3.3322   10.1106 H   0  0  0  0  0  0  0  0  0  0  0  0
    3.0187   -2.1114    7.9995 H   0  0  0  0  0  0  0  0  0  0  0  0
  1  2  2  3
  2  3  1  0
  3  4  3  0
  2  5  1  0
  5  6  2  0
  5  7  1  0
  7  8  1  0
  8  9  1  0
  1 10  1  0
 10 11  2  0
 11 12  1  0
 12 13  2  0
 13 14  1  0
 14 15  2  0
 15 16  1  0
 16 17  1  0
 17 18  2  0
 16 19  1  0
 19 20  1  0
 15 21  1  0
 21 22  1  0
 22 23  1  0
 23 24  2  0
 24 25  1  0
 25 26  1  0
 26 27  1  0
 25 28  1  0
 23 29  1  0
 29 30  2  0
 30 31  1  0
 31 32  1  0
 32 33  1  0
 33 34  1  0
 30 35  1  0
 35 36  1  0
 36 37  1  0
 35 38  1  0
 38 39  2  0
 39 40  1  0
 40 41  1  0
 41 42  1  0
 40 43  1  0
 43 44  2  0
 44 45  1  0
 45 46  2  0
 46 47  1  0
 47 48  2  0
 47 49  1  0
 49 50  2  3
 50 51  1  0
 51 52  2  0
 51 53  1  0
 53 54  2  0
 54 55  1  0
 55 56  2  0
 56 57  1  0
 57 58  2  0
 58 59  1  0
 59 60  2  3
 60 61  1  0
 61 62  3  0
 60 63  1  0
 63 64  3  0
 56 65  1  0
 65 66  1  0
 66 67  1  0
 67 68  2  0
 68 69  1  0
 69 70  1  0
 69 71  1  0
 18 10  1  0
 31 21  2  0
 44 38  1  0
 59 50  1  0
 71 65  1  0
 17 13  1  0
 28 22  2  0
 39 29  1  0
 48 43  1  0
 58 53  1  0
 70 66  1  0
 32 14  1  0
 71 55  1  0
  1 72  1  0
  8 73  1  0
  8 74  1  0
  9 75  1  0
  9 76  1  0
  9 77  1  0
 11 78  1  0
 12 79  1  0
 18 80  1  0
 19 81  1  0
 19 82  1  0
 20 83  1  0
 20 84  1  0
 20 85  1  0
 26 86  1  0
 26 87  1  0
 27 88  1  0
 27 89  1  0
 27 90  1  0
 33 91  1  0
 33 92  1  0
 34 93  1  0
 34 94  1  0
 34 95  1  0
 36 96  1  0
 36 97  1  0
 37 98  1  0
 37 99  1  0
 37100  1  0
 41101  1  0
 41102  1  0
 42103  1  0
 42104  1  0
 42105  1  0
 45106  1  0
 46107  1  0
 48108  1  0
 49109  1  0
 54110  1  0
 57111  1  0
 65112  1  0
 66113  1  0
 67114  1  0
 68115  1  0
 69116  1  0
 70117  1  0
 70118  1  0
 71119  1  0
M  END

