
     RDKit          3D

 91100  0  0  0  0  0  0  0  0999 V2000
   -6.3172   -4.8823   -0.1417 C   0  0  0  0  0  0  0  0  0  0  0  0
   -6.9303   -4.8789    1.0522 C   0  0  0  0  0  0  0  0  0  0  0  0
   -6.9935   -3.6733    1.8630 C   0  0  0  0  0  0  0  0  0  0  0  0
   -7.0560   -2.7094    2.5084 N   0  0  0  0  0  0  0  0  0  0  0  0
   -7.6527   -6.0852    1.5167 C   0  0  0  0  0  0  0  0  0  0  0  0
   -8.4142   -6.0168    2.5235 O   0  0  0  0  0  0  0  0  0  0  0  0
   -7.4889   -7.3024    0.8484 O   0  0  0  0  0  0  0  0  0  0  0  0
   -8.2557   -8.4624    1.1525 C   0  0  0  0  0  0  0  0  0  0  0  0
   -7.7628   -9.6290    0.2931 C   0  0  0  0  0  0  0  0  0  0  0  0
   -5.5687   -3.7401   -0.7002 C   0  0  0  0  0  0  0  0  0  0  0  0
   -5.6088   -3.3296   -2.0487 C   0  0  0  0  0  0  0  0  0  0  0  0
   -6.4224   -3.9876   -3.1243 C   0  0  0  0  0  0  0  0  0  0  0  0
   -5.6343   -5.1097   -3.7926 C   0  0  0  0  0  0  0  0  0  0  0  0
   -4.7147   -2.2759   -2.2808 C   0  0  0  0  0  0  0  0  0  0  0  0
   -4.1961   -1.4607   -3.6886 S   0  0  0  0  0  0  0  0  0  0  0  0
   -3.0483   -0.5774   -2.7988 C   0  0  0  0  0  0  0  0  0  0  0  0
   -1.8890    0.1012   -3.0531 C   0  0  0  0  0  0  0  0  0  0  0  0
   -1.2702    0.4645   -4.2569 C   0  0  0  0  0  0  0  0  0  0  0  0
    0.0485    1.0042   -4.2138 C   0  0  0  0  0  0  0  0  0  0  0  0
    0.6129    1.3494   -5.3954 N   0  0  0  0  0  0  0  0  0  0  0  0
   -0.6212    0.9219   -6.4209 S   0  0  0  0  0  0  0  0  0  0  0  0
   -1.8425    0.3248   -5.4780 N   0  0  0  0  0  0  0  0  0  0  0  0
    0.6605    1.1623   -2.9643 C   0  0  0  0  0  0  0  0  0  0  0  0
    1.8239    1.7713   -2.5992 C   0  0  0  0  0  0  0  0  0  0  0  0
    3.1620    2.5553   -3.2977 S   0  0  0  0  0  0  0  0  0  0  0  0
    3.7869    2.9255   -1.7491 C   0  0  0  0  0  0  0  0  0  0  0  0
    4.9955    3.4789   -1.2981 C   0  0  0  0  0  0  0  0  0  0  0  0
    6.0806    3.9713   -2.2200 C   0  0  0  0  0  0  0  0  0  0  0  0
    6.9529    2.8204   -2.7140 C   0  0  0  0  0  0  0  0  0  0  0  0
    5.0966    3.4209    0.1082 C   0  0  0  0  0  0  0  0  0  0  0  0
    3.6876    2.6699    0.7283 S   0  0  0  0  0  0  0  0  0  0  0  0
    2.9576    2.4692   -0.7558 C   0  0  0  0  0  0  0  0  0  0  0  0
    1.8358    1.8111   -1.2450 C   0  0  0  0  0  0  0  0  0  0  0  0
    0.7220    1.2898   -0.6763 N   0  0  0  0  0  0  0  0  0  0  0  0
    0.0348    0.8026   -1.7629 C   0  0  0  0  0  0  0  0  0  0  0  0
   -1.2251    0.1726   -1.8228 C   0  0  0  0  0  0  0  0  0  0  0  0
   -1.8530   -0.5819   -0.8698 N   0  0  0  0  0  0  0  0  0  0  0  0
   -3.0081   -0.9467   -1.4899 C   0  0  0  0  0  0  0  0  0  0  0  0
   -3.9678   -1.9065   -1.1934 C   0  0  0  0  0  0  0  0  0  0  0  0
   -4.3932   -2.8269    0.1420 S   0  0  0  0  0  0  0  0  0  0  0  0
   -1.1761   -1.4089    0.1437 C   0  0  0  0  0  0  0  0  0  0  0  0
   -0.7682   -2.7719   -0.4229 C   0  0  0  0  0  0  0  0  0  0  0  0
    0.1463    1.7973    0.5845 C   0  0  0  0  0  0  0  0  0  0  0  0
   -0.9842    2.7922    0.3186 C   0  0  0  0  0  0  0  0  0  0  0  0
    6.3606    3.6306    0.8553 C   0  0  0  0  0  0  0  0  0  0  0  0
    6.4930    3.7427    2.1935 C   0  0  0  0  0  0  0  0  0  0  0  0
    5.4198    3.7662    3.1963 C   0  0  0  0  0  0  0  0  0  0  0  0
    4.2779    4.2786    3.0581 O   0  0  0  0  0  0  0  0  0  0  0  0
    5.9531    3.2679    4.4484 C   0  0  0  0  0  0  0  0  0  0  0  0
    5.2667    2.9510    5.6203 C   0  0  0  0  0  0  0  0  0  0  0  0
    5.9872    2.3632    6.6799 C   0  0  0  0  0  0  0  0  0  0  0  0
    5.1598    1.9326    8.1732 Cl  0  0  0  0  0  0  0  0  0  0  0  0
    7.3597    2.0912    6.5358 C   0  0  0  0  0  0  0  0  0  0  0  0
    8.0534    1.4778    7.5336 F   0  0  0  0  0  0  0  0  0  0  0  0
    8.0296    2.4358    5.3463 C   0  0  0  0  0  0  0  0  0  0  0  0
    7.3120    3.0520    4.3079 C   0  0  0  0  0  0  0  0  0  0  0  0
    7.7514    3.4859    2.9520 C   0  0  0  0  0  0  0  0  0  0  0  0
    9.0154    3.8240    2.5714 C   0  0  0  0  0  0  0  0  0  0  0  0
    9.2724    4.5637    1.3618 C   0  0  0  0  0  0  0  0  0  0  0  0
    9.4804    5.1749    0.3976 N   0  0  0  0  0  0  0  0  0  0  0  0
   10.1480    3.6655    3.4491 C   0  0  0  0  0  0  0  0  0  0  0  0
   11.0581    3.5476    4.1542 N   0  0  0  0  0  0  0  0  0  0  0  0
   -6.4006   -5.7619   -0.7741 H   0  0  0  0  0  0  0  0  0  0  0  0
   -8.1369   -8.7307    2.2266 H   0  0  0  0  0  0  0  0  0  0  0  0
   -9.3304   -8.2658    0.9290 H   0  0  0  0  0  0  0  0  0  0  0  0
   -6.7158   -9.8866    0.5687 H   0  0  0  0  0  0  0  0  0  0  0  0
   -8.4104  -10.5144    0.4700 H   0  0  0  0  0  0  0  0  0  0  0  0
   -7.8086   -9.3516   -0.7833 H   0  0  0  0  0  0  0  0  0  0  0  0
   -7.3664   -4.3949   -2.7057 H   0  0  0  0  0  0  0  0  0  0  0  0
   -6.7078   -3.2278   -3.8853 H   0  0  0  0  0  0  0  0  0  0  0  0
   -6.2507   -5.5771   -4.5904 H   0  0  0  0  0  0  0  0  0  0  0  0
   -5.3806   -5.8920   -3.0502 H   0  0  0  0  0  0  0  0  0  0  0  0
   -4.7060   -4.6989   -4.2486 H   0  0  0  0  0  0  0  0  0  0  0  0
    5.6151    4.4737   -3.0909 H   0  0  0  0  0  0  0  0  0  0  0  0
    6.7042    4.7291   -1.6995 H   0  0  0  0  0  0  0  0  0  0  0  0
    7.7461    3.2170   -3.3814 H   0  0  0  0  0  0  0  0  0  0  0  0
    7.4289    2.3002   -1.8552 H   0  0  0  0  0  0  0  0  0  0  0  0
    6.3341    2.0989   -3.2866 H   0  0  0  0  0  0  0  0  0  0  0  0
   -0.2361   -0.9433    0.4638 H   0  0  0  0  0  0  0  0  0  0  0  0
   -1.8295   -1.5488    1.0307 H   0  0  0  0  0  0  0  0  0  0  0  0
   -0.1618   -3.3153    0.3289 H   0  0  0  0  0  0  0  0  0  0  0  0
   -0.1630   -2.6416   -1.3390 H   0  0  0  0  0  0  0  0  0  0  0  0
   -1.6501   -3.3889   -0.6663 H   0  0  0  0  0  0  0  0  0  0  0  0
    0.9281    2.3190    1.1920 H   0  0  0  0  0  0  0  0  0  0  0  0
   -0.2323    0.9832    1.2331 H   0  0  0  0  0  0  0  0  0  0  0  0
   -1.2915    3.2804    1.2686 H   0  0  0  0  0  0  0  0  0  0  0  0
   -1.8783    2.2706   -0.0970 H   0  0  0  0  0  0  0  0  0  0  0  0
   -0.6433    3.5742   -0.3935 H   0  0  0  0  0  0  0  0  0  0  0  0
    7.2523    3.5241    0.2651 H   0  0  0  0  0  0  0  0  0  0  0  0
    4.2027    3.1402    5.7156 H   0  0  0  0  0  0  0  0  0  0  0  0
    9.0738    2.1803    5.2494 H   0  0  0  0  0  0  0  0  0  0  0  0
  1  2  2  3
  2  3  1  0
  3  4  3  0
  2  5  1  0
  5  6  2  0
  5  7  1  0
  7  8  1  0
  8  9  1  0
  1 10  1  0
 10 11  2  0
 11 12  1  0
 12 13  1  0
 11 14  1  0
 14 15  1  0
 15 16  1  0
 16 17  1  0
 17 18  1  0
 18 19  1  0
 19 20  2  0
 20 21  1  0
 21 22  1  0
 19 23  1  0
 23 24  1  0
 24 25  1  0
 25 26  1  0
 26 27  1  0
 27 28  1  0
 28 29  1  0
 27 30  2  0
 30 31  1  0
 31 32  1  0
 32 33  1  0
 33 34  1  0
 34 35  1  0
 35 36  1  0
 36 37  1  0
 37 38  1  0
 38 39  1  0
 39 40  1  0
 37 41  1  0
 41 42  1  0
 34 43  1  0
 43 44  1  0
 30 45  1  0
 45 46  2  3
 46 47  1  0
 47 48  2  0
 47 49  1  0
 49 50  2  0
 50 51  1  0
 51 52  1  0
 51 53  2  0
 53 54  1  0
 53 55  1  0
 55 56  2  0
 56 57  1  0
 57 58  2  3
 58 59  1  0
 59 60  3  0
 58 61  1  0
 61 62  3  0
 40 10  1  0
 57 46  1  0
 39 14  2  0
 56 49  1  0
 38 16  2  0
 36 17  2  0
 22 18  2  0
 35 23  2  0
 33 24  2  0
 32 26  2  0
  1 63  1  0
  8 64  1  0
  8 65  1  0
  9 66  1  0
  9 67  1  0
  9 68  1  0
 12 69  1  0
 12 70  1  0
 13 71  1  0
 13 72  1  0
 13 73  1  0
 28 74  1  0
 28 75  1  0
 29 76  1  0
 29 77  1  0
 29 78  1  0
 41 79  1  0
 41 80  1  0
 42 81  1  0
 42 82  1  0
 42 83  1  0
 43 84  1  0
 43 85  1  0
 44 86  1  0
 44 87  1  0
 44 88  1  0
 45 89  1  0
 50 90  1  0
 55 91  1  0
M  END

