
     RDKit          3D

108121  0  0  0  0  0  0  0  0999 V2000
   -4.5641    5.4225    1.5299 C   0  0  0  0  0  0  0  0  0  0  0  0
   -5.5698    6.2924    1.3312 C   0  0  0  0  0  0  0  0  0  0  0  0
   -6.7396    6.0550    0.4735 C   0  0  0  0  0  0  0  0  0  0  0  0
   -6.9202    5.0742   -0.2996 O   0  0  0  0  0  0  0  0  0  0  0  0
   -7.7200    7.0825    0.7488 C   0  0  0  0  0  0  0  0  0  0  0  0
   -9.0079    7.2069    0.2255 C   0  0  0  0  0  0  0  0  0  0  0  0
   -9.8366    8.2256    0.7170 C   0  0  0  0  0  0  0  0  0  0  0  0
   -9.3774    9.0798    1.7339 C   0  0  0  0  0  0  0  0  0  0  0  0
   -8.0820    8.9299    2.2570 C   0  0  0  0  0  0  0  0  0  0  0  0
   -7.2381    7.9366    1.7274 C   0  0  0  0  0  0  0  0  0  0  0  0
   -5.8421    7.5544    2.0862 C   0  0  0  0  0  0  0  0  0  0  0  0
   -4.9367    8.3235    2.7552 C   0  0  0  0  0  0  0  0  0  0  0  0
   -5.2591    9.6311    3.2564 C   0  0  0  0  0  0  0  0  0  0  0  0
   -5.4957   10.6916    3.6549 N   0  0  0  0  0  0  0  0  0  0  0  0
   -3.5437    7.9679    2.8623 C   0  0  0  0  0  0  0  0  0  0  0  0
   -2.4234    7.6892    2.9477 N   0  0  0  0  0  0  0  0  0  0  0  0
   -4.3113    4.2578    0.6607 C   0  0  0  0  0  0  0  0  0  0  0  0
   -4.1012    2.9779    1.1741 C   0  0  0  0  0  0  0  0  0  0  0  0
   -3.6426    2.2550    0.0943 C   0  0  0  0  0  0  0  0  0  0  0  0
   -3.5686    3.0632   -0.9703 C   0  0  0  0  0  0  0  0  0  0  0  0
   -3.9337    4.3320   -0.6530 N   0  0  0  0  0  0  0  0  0  0  0  0
   -3.6441    5.5662   -1.3956 C   0  0  0  0  0  0  0  0  0  0  0  0
   -4.6361    5.7682   -2.5423 C   0  0  0  0  0  0  0  0  0  0  0  0
   -2.6560    2.4924   -1.8461 C   0  0  0  0  0  0  0  0  0  0  0  0
   -2.0548    2.9691   -3.0243 C   0  0  0  0  0  0  0  0  0  0  0  0
   -0.9628    2.2478   -3.5802 C   0  0  0  0  0  0  0  0  0  0  0  0
   -0.4048    2.7358   -4.7159 N   0  0  0  0  0  0  0  0  0  0  0  0
   -1.3677    4.0588   -4.9523 S   0  0  0  0  0  0  0  0  0  0  0  0
   -2.4579    4.0642   -3.7104 N   0  0  0  0  0  0  0  0  0  0  0  0
   -0.5555    1.0701   -2.9655 C   0  0  0  0  0  0  0  0  0  0  0  0
    0.4546    0.2174   -3.2837 C   0  0  0  0  0  0  0  0  0  0  0  0
    1.7901    0.1362   -4.3272 S   0  0  0  0  0  0  0  0  0  0  0  0
    2.3170   -1.2965   -3.5654 C   0  0  0  0  0  0  0  0  0  0  0  0
    3.5072   -2.0199   -3.6383 C   0  0  0  0  0  0  0  0  0  0  0  0
    4.5930   -1.7282   -4.6376 C   0  0  0  0  0  0  0  0  0  0  0  0
    5.6004   -0.7199   -4.0910 C   0  0  0  0  0  0  0  0  0  0  0  0
    3.5975   -2.9383   -2.5739 C   0  0  0  0  0  0  0  0  0  0  0  0
    2.1559   -2.8995   -1.6557 S   0  0  0  0  0  0  0  0  0  0  0  0
    1.4671   -1.6729   -2.5579 C   0  0  0  0  0  0  0  0  0  0  0  0
    0.4012   -0.8018   -2.4069 C   0  0  0  0  0  0  0  0  0  0  0  0
   -0.6215   -0.6958   -1.5218 N   0  0  0  0  0  0  0  0  0  0  0  0
   -1.1858    0.5277   -1.8298 C   0  0  0  0  0  0  0  0  0  0  0  0
   -2.2343    1.2900   -1.2176 C   0  0  0  0  0  0  0  0  0  0  0  0
   -2.8204    1.1812    0.0248 N   0  0  0  0  0  0  0  0  0  0  0  0
   -2.4272    0.4052    1.2105 C   0  0  0  0  0  0  0  0  0  0  0  0
   -0.9944    0.7198    1.6383 C   0  0  0  0  0  0  0  0  0  0  0  0
   -1.1787   -1.8594   -0.8200 C   0  0  0  0  0  0  0  0  0  0  0  0
   -2.6147   -2.1488   -1.2596 C   0  0  0  0  0  0  0  0  0  0  0  0
    4.7684   -3.7854   -2.2877 C   0  0  0  0  0  0  0  0  0  0  0  0
    5.2009   -4.1323   -1.0621 C   0  0  0  0  0  0  0  0  0  0  0  0
    6.0634   -5.2933   -0.8409 C   0  0  0  0  0  0  0  0  0  0  0  0
    6.7453   -5.8870   -1.7218 O   0  0  0  0  0  0  0  0  0  0  0  0
    5.9401   -5.7033    0.5428 C   0  0  0  0  0  0  0  0  0  0  0  0
    6.5024   -6.8477    1.1565 C   0  0  0  0  0  0  0  0  0  0  0  0
    6.1198   -7.0193    2.4756 C   0  0  0  0  0  0  0  0  0  0  0  0
    5.2277   -6.1272    3.1550 C   0  0  0  0  0  0  0  0  0  0  0  0
    4.6738   -5.0053    2.5600 C   0  0  0  0  0  0  0  0  0  0  0  0
    5.0798   -4.7927    1.2127 C   0  0  0  0  0  0  0  0  0  0  0  0
    4.7167   -3.6926    0.2802 C   0  0  0  0  0  0  0  0  0  0  0  0
    4.4504   -2.4132    0.6504 C   0  0  0  0  0  0  0  0  0  0  0  0
    4.0796   -2.0540    1.9981 C   0  0  0  0  0  0  0  0  0  0  0  0
    3.7750   -1.7484    3.0735 N   0  0  0  0  0  0  0  0  0  0  0  0
    4.6371   -1.2984   -0.2459 C   0  0  0  0  0  0  0  0  0  0  0  0
    4.7761   -0.3852   -0.9444 N   0  0  0  0  0  0  0  0  0  0  0  0
    5.3159   -6.9566    4.3993 C   0  0  0  0  0  0  0  0  0  0  0  0
    6.1853   -6.4150    5.5742 C   0  0  0  0  0  0  0  0  0  0  0  0
    7.3300   -5.5860    5.0402 C   0  0  0  0  0  0  0  0  0  0  0  0
    8.1522   -6.4297    4.4156 C   0  0  0  0  0  0  0  0  0  0  0  0
    7.5366   -7.8036    4.5370 C   0  0  0  0  0  0  0  0  0  0  0  0
    6.9524   -7.6733    5.9317 C   0  0  0  0  0  0  0  0  0  0  0  0
    6.2219   -7.8766    3.7030 C   0  0  0  0  0  0  0  0  0  0  0  0
   -3.9196    5.5247    2.3878 H   0  0  0  0  0  0  0  0  0  0  0  0
   -9.3728    6.5257   -0.5320 H   0  0  0  0  0  0  0  0  0  0  0  0
  -10.8414    8.3410    0.3284 H   0  0  0  0  0  0  0  0  0  0  0  0
  -10.0348    9.8483    2.1276 H   0  0  0  0  0  0  0  0  0  0  0  0
   -7.7885    9.5630    3.0762 H   0  0  0  0  0  0  0  0  0  0  0  0
   -4.1227    2.6879    2.2169 H   0  0  0  0  0  0  0  0  0  0  0  0
   -2.5987    5.5465   -1.7643 H   0  0  0  0  0  0  0  0  0  0  0  0
   -3.6956    6.4534   -0.7306 H   0  0  0  0  0  0  0  0  0  0  0  0
   -5.5825    6.2040   -2.1590 H   0  0  0  0  0  0  0  0  0  0  0  0
   -4.8653    4.8081   -3.0536 H   0  0  0  0  0  0  0  0  0  0  0  0
   -4.2052    6.4750   -3.2829 H   0  0  0  0  0  0  0  0  0  0  0  0
    5.1262   -2.6664   -4.9070 H   0  0  0  0  0  0  0  0  0  0  0  0
    4.1441   -1.3208   -5.5712 H   0  0  0  0  0  0  0  0  0  0  0  0
    6.3528   -0.4807   -4.8774 H   0  0  0  0  0  0  0  0  0  0  0  0
    5.0828    0.2204   -3.7958 H   0  0  0  0  0  0  0  0  0  0  0  0
    6.1320   -1.1457   -3.2126 H   0  0  0  0  0  0  0  0  0  0  0  0
   -3.0854    0.6574    2.0685 H   0  0  0  0  0  0  0  0  0  0  0  0
   -2.6210   -0.6684    1.0711 H   0  0  0  0  0  0  0  0  0  0  0  0
   -0.2627    0.4454    0.8551 H   0  0  0  0  0  0  0  0  0  0  0  0
   -0.8947    1.8046    1.8484 H   0  0  0  0  0  0  0  0  0  0  0  0
   -0.7503    0.1529    2.5604 H   0  0  0  0  0  0  0  0  0  0  0  0
   -0.5945   -2.7680   -1.0722 H   0  0  0  0  0  0  0  0  0  0  0  0
   -1.0520   -1.7611    0.2684 H   0  0  0  0  0  0  0  0  0  0  0  0
   -2.6384   -2.3521   -2.3518 H   0  0  0  0  0  0  0  0  0  0  0  0
   -2.9946   -3.0403   -0.7166 H   0  0  0  0  0  0  0  0  0  0  0  0
   -3.2904   -1.2981   -1.0493 H   0  0  0  0  0  0  0  0  0  0  0  0
    5.2684   -4.2187   -3.1402 H   0  0  0  0  0  0  0  0  0  0  0  0
    7.1535   -7.5369    0.6368 H   0  0  0  0  0  0  0  0  0  0  0  0
    3.9694   -4.3876    3.0922 H   0  0  0  0  0  0  0  0  0  0  0  0
    4.3533   -7.4267    4.7000 H   0  0  0  0  0  0  0  0  0  0  0  0
    5.6153   -5.9488    6.4045 H   0  0  0  0  0  0  0  0  0  0  0  0
    7.5149   -4.5315    5.2129 H   0  0  0  0  0  0  0  0  0  0  0  0
    9.1194   -6.1769    3.9944 H   0  0  0  0  0  0  0  0  0  0  0  0
    8.2450   -8.6488    4.3935 H   0  0  0  0  0  0  0  0  0  0  0  0
    6.2940   -8.5247    6.2229 H   0  0  0  0  0  0  0  0  0  0  0  0
    7.7208   -7.5121    6.7274 H   0  0  0  0  0  0  0  0  0  0  0  0
    5.8106   -8.9002    3.5736 H   0  0  0  0  0  0  0  0  0  0  0  0
  1  2  2  3
  2  3  1  0
  3  4  2  0
  3  5  1  0
  5  6  2  0
  6  7  1  0
  7  8  2  0
  8  9  1  0
  9 10  2  0
 10 11  1  0
 11 12  2  3
 12 13  1  0
 13 14  3  0
 12 15  1  0
 15 16  3  0
  1 17  1  0
 17 18  2  0
 18 19  1  0
 19 20  2  0
 20 21  1  0
 21 22  1  0
 22 23  1  0
 20 24  1  0
 24 25  1  0
 25 26  1  0
 26 27  2  0
 27 28  1  0
 28 29  1  0
 26 30  1  0
 30 31  1  0
 31 32  1  0
 32 33  1  0
 33 34  1  0
 34 35  1  0
 35 36  1  0
 34 37  2  0
 37 38  1  0
 38 39  1  0
 39 40  1  0
 40 41  1  0
 41 42  1  0
 42 43  1  0
 43 44  1  0
 44 45  1  0
 45 46  1  0
 41 47  1  0
 47 48  1  0
 37 49  1  0
 49 50  2  3
 50 51  1  0
 51 52  2  0
 51 53  1  0
 53 54  2  0
 54 55  1  0
 55 56  2  0
 56 57  1  0
 57 58  2  0
 58 59  1  0
 59 60  2  3
 60 61  1  0
 61 62  3  0
 60 63  1  0
 63 64  3  0
 56 65  1  0
 65 66  1  0
 66 67  1  0
 67 68  2  0
 68 69  1  0
 69 70  1  0
 69 71  1  0
 11  2  1  0
 21 17  1  0
 43 24  2  0
 59 50  1  0
 71 65  1  0
 10  5  1  0
 44 19  1  0
 58 53  1  0
 70 66  1  0
 29 25  2  0
 42 30  2  0
 71 55  1  0
 40 31  2  0
 39 33  2  0
  1 72  1  0
  6 73  1  0
  7 74  1  0
  8 75  1  0
  9 76  1  0
 18 77  1  0
 22 78  1  0
 22 79  1  0
 23 80  1  0
 23 81  1  0
 23 82  1  0
 35 83  1  0
 35 84  1  0
 36 85  1  0
 36 86  1  0
 36 87  1  0
 45 88  1  0
 45 89  1  0
 46 90  1  0
 46 91  1  0
 46 92  1  0
 47 93  1  0
 47 94  1  0
 48 95  1  0
 48 96  1  0
 48 97  1  0
 49 98  1  0
 54 99  1  0
 57100  1  0
 65101  1  0
 66102  1  0
 67103  1  0
 68104  1  0
 69105  1  0
 70106  1  0
 70107  1  0
 71108  1  0
M  END

