
     RDKit          3D

107120  0  0  0  0  0  0  0  0999 V2000
   -0.1309   -7.7399   -2.0183 C   0  0  0  0  0  0  0  0  0  0  0  0
    0.6421   -8.6630   -2.6329 C   0  0  0  0  0  0  0  0  0  0  0  0
    0.6207   -8.8257   -4.1063 C   0  0  0  0  0  0  0  0  0  0  0  0
    0.7744   -7.9061   -4.9601 O   0  0  0  0  0  0  0  0  0  0  0  0
    0.3444  -10.1875   -4.4572 C   0  0  0  0  0  0  0  0  0  0  0  0
    0.1492  -10.6959   -5.7496 C   0  0  0  0  0  0  0  0  0  0  0  0
   -0.3048  -12.0201   -5.8608 C   0  0  0  0  0  0  0  0  0  0  0  0
   -0.5722  -12.7481   -4.6898 C   0  0  0  0  0  0  0  0  0  0  0  0
   -0.2586  -12.2765   -3.4198 C   0  0  0  0  0  0  0  0  0  0  0  0
    0.1894  -10.9428   -3.3029 C   0  0  0  0  0  0  0  0  0  0  0  0
    0.5199  -10.0698   -2.1435 C   0  0  0  0  0  0  0  0  0  0  0  0
    0.8626  -10.4882   -0.9159 C   0  0  0  0  0  0  0  0  0  0  0  0
    0.6298  -11.8283   -0.4484 C   0  0  0  0  0  0  0  0  0  0  0  0
    0.4604  -12.8849    0.0186 N   0  0  0  0  0  0  0  0  0  0  0  0
    1.6939   -9.6249   -0.0819 C   0  0  0  0  0  0  0  0  0  0  0  0
    2.3826   -8.9360    0.5645 N   0  0  0  0  0  0  0  0  0  0  0  0
    0.4378   -6.5567   -1.3704 C   0  0  0  0  0  0  0  0  0  0  0  0
   -0.0657   -6.1012    0.2256 S   0  0  0  0  0  0  0  0  0  0  0  0
    0.2763   -4.4649    0.1178 C   0  0  0  0  0  0  0  0  0  0  0  0
   -0.3029   -3.3364    0.6244 C   0  0  0  0  0  0  0  0  0  0  0  0
   -1.1496   -3.2027    1.7325 C   0  0  0  0  0  0  0  0  0  0  0  0
   -2.0497   -2.1653    1.7612 C   0  0  0  0  0  0  0  0  0  0  0  0
   -2.8978   -2.1448    2.8399 N   0  0  0  0  0  0  0  0  0  0  0  0
   -2.4369   -3.5006    3.6879 S   0  0  0  0  0  0  0  0  0  0  0  0
   -1.1984   -4.1026    2.7594 N   0  0  0  0  0  0  0  0  0  0  0  0
   -2.0135   -1.1743    0.7825 C   0  0  0  0  0  0  0  0  0  0  0  0
   -2.6938    0.0082    0.6680 C   0  0  0  0  0  0  0  0  0  0  0  0
   -3.7264    1.0357    1.5468 S   0  0  0  0  0  0  0  0  0  0  0  0
   -3.3719    2.3778    0.5542 C   0  0  0  0  0  0  0  0  0  0  0  0
   -3.7260    3.7209    0.5834 C   0  0  0  0  0  0  0  0  0  0  0  0
   -4.6596    4.2452    1.6706 C   0  0  0  0  0  0  0  0  0  0  0  0
   -6.0903    3.8540    1.3168 C   0  0  0  0  0  0  0  0  0  0  0  0
   -2.9661    4.4532   -0.2912 C   0  0  0  0  0  0  0  0  0  0  0  0
   -2.1487    3.4320   -1.3228 S   0  0  0  0  0  0  0  0  0  0  0  0
   -2.5096    2.0415   -0.4101 C   0  0  0  0  0  0  0  0  0  0  0  0
   -2.1267    0.6888   -0.3684 C   0  0  0  0  0  0  0  0  0  0  0  0
   -1.1202   -0.0008   -0.9739 N   0  0  0  0  0  0  0  0  0  0  0  0
   -1.0615   -1.2069   -0.2866 C   0  0  0  0  0  0  0  0  0  0  0  0
   -0.2231   -2.3745   -0.3995 C   0  0  0  0  0  0  0  0  0  0  0  0
    0.4734   -2.8941   -1.4557 N   0  0  0  0  0  0  0  0  0  0  0  0
    0.7028   -4.2174   -1.1477 C   0  0  0  0  0  0  0  0  0  0  0  0
    0.8457   -5.3328   -2.0201 C   0  0  0  0  0  0  0  0  0  0  0  0
    1.5109   -5.2947   -3.4287 C   0  0  0  0  0  0  0  0  0  0  0  0
    2.8362   -6.0498   -3.3634 C   0  0  0  0  0  0  0  0  0  0  0  0
    1.0364   -2.1750   -2.6147 C   0  0  0  0  0  0  0  0  0  0  0  0
    0.0501   -2.1603   -3.8054 C   0  0  0  0  0  0  0  0  0  0  0  0
   -0.1796    0.6920   -1.8378 C   0  0  0  0  0  0  0  0  0  0  0  0
    1.0791    1.1268   -1.0680 C   0  0  0  0  0  0  0  0  0  0  0  0
   -2.5845    5.8737   -0.2290 C   0  0  0  0  0  0  0  0  0  0  0  0
   -1.7611    6.3221    0.7409 C   0  0  0  0  0  0  0  0  0  0  0  0
   -1.1123    5.4640    1.7206 C   0  0  0  0  0  0  0  0  0  0  0  0
   -1.5162    4.3490    2.2095 O   0  0  0  0  0  0  0  0  0  0  0  0
    0.1956    5.9636    1.9816 C   0  0  0  0  0  0  0  0  0  0  0  0
    1.2086    5.3176    2.6896 C   0  0  0  0  0  0  0  0  0  0  0  0
    2.4199    5.9917    2.7849 C   0  0  0  0  0  0  0  0  0  0  0  0
    2.5551    7.2863    2.1851 C   0  0  0  0  0  0  0  0  0  0  0  0
    1.5917    8.0012    1.5249 C   0  0  0  0  0  0  0  0  0  0  0  0
    0.3492    7.2671    1.3827 C   0  0  0  0  0  0  0  0  0  0  0  0
   -0.8939    7.5601    0.6343 C   0  0  0  0  0  0  0  0  0  0  0  0
   -1.1591    8.7228   -0.0287 C   0  0  0  0  0  0  0  0  0  0  0  0
   -2.5015    9.0287   -0.5515 C   0  0  0  0  0  0  0  0  0  0  0  0
   -3.5345    9.3359   -0.9433 N   0  0  0  0  0  0  0  0  0  0  0  0
   -0.1274    9.7039   -0.3330 C   0  0  0  0  0  0  0  0  0  0  0  0
    0.6997   10.5424   -0.5998 N   0  0  0  0  0  0  0  0  0  0  0  0
    3.9715    7.3848    2.6998 C   0  0  0  0  0  0  0  0  0  0  0  0
    4.2322    8.2790    3.9320 C   0  0  0  0  0  0  0  0  0  0  0  0
    2.9947    8.3458    4.8108 C   0  0  0  0  0  0  0  0  0  0  0  0
    2.8492    7.1502    5.3556 C   0  0  0  0  0  0  0  0  0  0  0  0
    3.9771    6.2869    4.8153 C   0  0  0  0  0  0  0  0  0  0  0  0
    5.0739    7.3375    4.7810 C   0  0  0  0  0  0  0  0  0  0  0  0
    3.7986    6.0475    3.2789 C   0  0  0  0  0  0  0  0  0  0  0  0
   -1.0196   -7.4193   -2.5644 H   0  0  0  0  0  0  0  0  0  0  0  0
    0.3021  -10.0690   -6.6307 H   0  0  0  0  0  0  0  0  0  0  0  0
   -0.5340  -12.3969   -6.8312 H   0  0  0  0  0  0  0  0  0  0  0  0
   -0.9375  -13.7742   -4.7408 H   0  0  0  0  0  0  0  0  0  0  0  0
   -0.4639  -12.8676   -2.5519 H   0  0  0  0  0  0  0  0  0  0  0  0
   -4.5643    5.3385    1.7536 H   0  0  0  0  0  0  0  0  0  0  0  0
   -4.3853    3.8207    2.6628 H   0  0  0  0  0  0  0  0  0  0  0  0
   -6.5898    4.6631    0.7095 H   0  0  0  0  0  0  0  0  0  0  0  0
   -6.1559    2.9250    0.7167 H   0  0  0  0  0  0  0  0  0  0  0  0
   -6.6861    3.6381    2.2413 H   0  0  0  0  0  0  0  0  0  0  0  0
    1.7920   -4.2858   -3.8405 H   0  0  0  0  0  0  0  0  0  0  0  0
    0.8172   -5.5975   -4.2369 H   0  0  0  0  0  0  0  0  0  0  0  0
    3.4247   -5.8271   -2.4383 H   0  0  0  0  0  0  0  0  0  0  0  0
    3.4835   -5.7713   -4.2260 H   0  0  0  0  0  0  0  0  0  0  0  0
    2.6763   -7.1528   -3.3595 H   0  0  0  0  0  0  0  0  0  0  0  0
    1.3526   -1.1768   -2.3184 H   0  0  0  0  0  0  0  0  0  0  0  0
    2.0614   -2.5338   -2.8580 H   0  0  0  0  0  0  0  0  0  0  0  0
    0.3381   -1.3729   -4.5555 H   0  0  0  0  0  0  0  0  0  0  0  0
   -0.0270   -3.1527   -4.3170 H   0  0  0  0  0  0  0  0  0  0  0  0
   -0.9900   -1.8942   -3.4828 H   0  0  0  0  0  0  0  0  0  0  0  0
    0.0050    0.1487   -2.7746 H   0  0  0  0  0  0  0  0  0  0  0  0
   -0.6074    1.5658   -2.3514 H   0  0  0  0  0  0  0  0  0  0  0  0
    1.6717    0.2553   -0.6880 H   0  0  0  0  0  0  0  0  0  0  0  0
    1.7483    1.6883   -1.7657 H   0  0  0  0  0  0  0  0  0  0  0  0
    0.8208    1.7572   -0.1988 H   0  0  0  0  0  0  0  0  0  0  0  0
   -2.7329    6.4493   -1.1219 H   0  0  0  0  0  0  0  0  0  0  0  0
    1.0512    4.3493    3.1547 H   0  0  0  0  0  0  0  0  0  0  0  0
    1.7168    9.0385    1.1907 H   0  0  0  0  0  0  0  0  0  0  0  0
    4.7512    7.3969    1.9041 H   0  0  0  0  0  0  0  0  0  0  0  0
    4.7081    9.2449    3.6648 H   0  0  0  0  0  0  0  0  0  0  0  0
    2.3135    9.1906    4.9412 H   0  0  0  0  0  0  0  0  0  0  0  0
    2.0040    6.8624    5.9817 H   0  0  0  0  0  0  0  0  0  0  0  0
    4.1924    5.4116    5.4443 H   0  0  0  0  0  0  0  0  0  0  0  0
    5.3379    7.7636    5.7790 H   0  0  0  0  0  0  0  0  0  0  0  0
    5.9999    7.0021    4.2770 H   0  0  0  0  0  0  0  0  0  0  0  0
    4.3893    5.2539    2.8291 H   0  0  0  0  0  0  0  0  0  0  0  0
  1  2  2  3
  2  3  1  0
  3  4  2  0
  3  5  1  0
  5  6  2  0
  6  7  1  0
  7  8  2  0
  8  9  1  0
  9 10  2  0
 10 11  1  0
 11 12  2  3
 12 13  1  0
 13 14  3  0
 12 15  1  0
 15 16  3  0
  1 17  1  0
 17 18  1  0
 18 19  1  0
 19 20  1  0
 20 21  1  0
 21 22  1  0
 22 23  2  0
 23 24  1  0
 24 25  1  0
 22 26  1  0
 26 27  1  0
 27 28  1  0
 28 29  1  0
 29 30  1  0
 30 31  1  0
 31 32  1  0
 30 33  2  0
 33 34  1  0
 34 35  1  0
 35 36  1  0
 36 37  1  0
 37 38  1  0
 38 39  1  0
 39 40  1  0
 40 41  1  0
 41 42  1  0
 42 43  1  0
 43 44  1  0
 40 45  1  0
 45 46  1  0
 37 47  1  0
 47 48  1  0
 33 49  1  0
 49 50  2  3
 50 51  1  0
 51 52  2  0
 51 53  1  0
 53 54  2  0
 54 55  1  0
 55 56  2  0
 56 57  1  0
 57 58  2  0
 58 59  1  0
 59 60  2  3
 60 61  1  0
 61 62  3  0
 60 63  1  0
 63 64  3  0
 56 65  1  0
 65 66  1  0
 66 67  1  0
 67 68  2  0
 68 69  1  0
 69 70  1  0
 69 71  1  0
 11  2  1  0
 42 17  2  0
 59 50  1  0
 71 65  1  0
 10  5  1  0
 41 19  2  0
 58 53  1  0
 70 66  1  0
 39 20  2  0
 71 55  1  0
 25 21  2  0
 38 26  2  0
 36 27  2  0
 35 29  2  0
  1 72  1  0
  6 73  1  0
  7 74  1  0
  8 75  1  0
  9 76  1  0
 31 77  1  0
 31 78  1  0
 32 79  1  0
 32 80  1  0
 32 81  1  0
 43 82  1  0
 43 83  1  0
 44 84  1  0
 44 85  1  0
 44 86  1  0
 45 87  1  0
 45 88  1  0
 46 89  1  0
 46 90  1  0
 46 91  1  0
 47 92  1  0
 47 93  1  0
 48 94  1  0
 48 95  1  0
 48 96  1  0
 49 97  1  0
 54 98  1  0
 57 99  1  0
 65100  1  0
 66101  1  0
 67102  1  0
 68103  1  0
 69104  1  0
 70105  1  0
 70106  1  0
 71107  1  0
M  END

