
     RDKit          3D

117130  0  0  0  0  0  0  0  0999 V2000
    1.6500   -6.9504    2.7157 C   0  0  0  0  0  0  0  0  0  0  0  0
    1.5807   -7.9834    1.8523 C   0  0  0  0  0  0  0  0  0  0  0  0
    1.1984   -7.8814    0.4392 C   0  0  0  0  0  0  0  0  0  0  0  0
    1.3575   -6.8817   -0.3087 O   0  0  0  0  0  0  0  0  0  0  0  0
    0.6109   -9.1375    0.0376 C   0  0  0  0  0  0  0  0  0  0  0  0
   -0.1327   -9.4051   -1.1150 C   0  0  0  0  0  0  0  0  0  0  0  0
   -0.8147  -10.6276   -1.2032 C   0  0  0  0  0  0  0  0  0  0  0  0
   -0.7449  -11.5510   -0.1464 C   0  0  0  0  0  0  0  0  0  0  0  0
    0.0192  -11.2661    1.0016 C   0  0  0  0  0  0  0  0  0  0  0  0
    0.7058  -10.0417    1.0809 C   0  0  0  0  0  0  0  0  0  0  0  0
    1.4598   -9.4215    2.2093 C   0  0  0  0  0  0  0  0  0  0  0  0
    2.0737  -10.0693    3.2290 C   0  0  0  0  0  0  0  0  0  0  0  0
    1.9818  -11.4982    3.4054 C   0  0  0  0  0  0  0  0  0  0  0  0
    1.9364  -12.6412    3.5622 N   0  0  0  0  0  0  0  0  0  0  0  0
    3.0341   -9.4064    4.0727 C   0  0  0  0  0  0  0  0  0  0  0  0
    3.8349   -8.9071    4.7512 N   0  0  0  0  0  0  0  0  0  0  0  0
    1.1796   -5.6081    2.3299 C   0  0  0  0  0  0  0  0  0  0  0  0
   -0.1083   -5.3334    1.8331 C   0  0  0  0  0  0  0  0  0  0  0  0
   -1.2805   -6.2287    1.9432 C   0  0  0  0  0  0  0  0  0  0  0  0
   -1.8138   -6.8028    0.7753 C   0  0  0  0  0  0  0  0  0  0  0  0
   -2.8929   -7.6813    0.8505 C   0  0  0  0  0  0  0  0  0  0  0  0
   -3.4945   -7.9470    2.0809 C   0  0  0  0  0  0  0  0  0  0  0  0
   -3.0305   -7.3213    3.2362 C   0  0  0  0  0  0  0  0  0  0  0  0
   -1.9010   -6.4845    3.1931 C   0  0  0  0  0  0  0  0  0  0  0  0
   -1.4573   -5.7945    4.4653 C   0  0  0  0  0  0  0  0  0  0  0  0
   -2.0045   -4.3714    4.5427 C   0  0  0  0  0  0  0  0  0  0  0  0
   -0.1392   -4.1089    1.1824 C   0  0  0  0  0  0  0  0  0  0  0  0
   -1.2974   -3.3652    0.1760 S   0  0  0  0  0  0  0  0  0  0  0  0
   -0.2132   -2.1083   -0.1515 C   0  0  0  0  0  0  0  0  0  0  0  0
   -0.1193   -1.0308   -0.9698 C   0  0  0  0  0  0  0  0  0  0  0  0
   -1.0641   -0.5280   -1.8658 C   0  0  0  0  0  0  0  0  0  0  0  0
   -0.7435    0.6364   -2.6052 C   0  0  0  0  0  0  0  0  0  0  0  0
   -1.6977    1.1207   -3.4355 N   0  0  0  0  0  0  0  0  0  0  0  0
   -2.8936    0.0079   -3.1762 S   0  0  0  0  0  0  0  0  0  0  0  0
   -2.2967   -1.0604   -2.0589 N   0  0  0  0  0  0  0  0  0  0  0  0
    0.5042    1.2323   -2.4123 C   0  0  0  0  0  0  0  0  0  0  0  0
    0.9179    2.4620   -2.8190 C   0  0  0  0  0  0  0  0  0  0  0  0
    0.0862    3.8378   -3.3414 S   0  0  0  0  0  0  0  0  0  0  0  0
    1.2317    4.8490   -2.6094 C   0  0  0  0  0  0  0  0  0  0  0  0
    1.1049    6.1728   -2.2139 C   0  0  0  0  0  0  0  0  0  0  0  0
    0.0969    7.1050   -2.7541 C   0  0  0  0  0  0  0  0  0  0  0  0
    0.3753    7.9031   -3.8897 C   0  0  0  0  0  0  0  0  0  0  0  0
    1.6309    7.7161   -4.7118 C   0  0  0  0  0  0  0  0  0  0  0  0
    2.7711    8.5858   -4.1907 C   0  0  0  0  0  0  0  0  0  0  0  0
   -0.5485    8.8953   -4.2668 C   0  0  0  0  0  0  0  0  0  0  0  0
   -1.7426    9.0580   -3.5610 C   0  0  0  0  0  0  0  0  0  0  0  0
   -2.0352    8.2306   -2.4753 C   0  0  0  0  0  0  0  0  0  0  0  0
   -1.1283    7.2454   -2.0860 C   0  0  0  0  0  0  0  0  0  0  0  0
    1.9685    6.4636   -1.1401 C   0  0  0  0  0  0  0  0  0  0  0  0
    2.8659    5.0778   -0.7227 S   0  0  0  0  0  0  0  0  0  0  0  0
    2.1945    4.1212   -1.9399 C   0  0  0  0  0  0  0  0  0  0  0  0
    2.0405    2.7451   -2.1121 C   0  0  0  0  0  0  0  0  0  0  0  0
    2.4774    1.6887   -1.3827 N   0  0  0  0  0  0  0  0  0  0  0  0
    1.4716    0.7542   -1.4905 C   0  0  0  0  0  0  0  0  0  0  0  0
    1.1590   -0.4593   -0.7556 C   0  0  0  0  0  0  0  0  0  0  0  0
    1.8279   -1.2253    0.1896 N   0  0  0  0  0  0  0  0  0  0  0  0
    0.9604   -2.2186    0.4989 C   0  0  0  0  0  0  0  0  0  0  0  0
    1.0322   -3.3947    1.2377 C   0  0  0  0  0  0  0  0  0  0  0  0
    2.2077   -4.2759    2.0517 S   0  0  0  0  0  0  0  0  0  0  0  0
    3.1021   -1.0684    0.8985 C   0  0  0  0  0  0  0  0  0  0  0  0
    4.2032   -1.8656    0.1896 C   0  0  0  0  0  0  0  0  0  0  0  0
    3.8294    1.5968   -0.8168 C   0  0  0  0  0  0  0  0  0  0  0  0
    4.9000    2.2382   -1.7168 C   0  0  0  0  0  0  0  0  0  0  0  0
    1.8776    7.6893   -0.3338 C   0  0  0  0  0  0  0  0  0  0  0  0
    0.8084    7.9209    0.4531 C   0  0  0  0  0  0  0  0  0  0  0  0
   -0.0332    6.8746    1.0510 C   0  0  0  0  0  0  0  0  0  0  0  0
    0.1202    5.6344    0.9317 O   0  0  0  0  0  0  0  0  0  0  0  0
   -1.0263    7.5140    1.8817 C   0  0  0  0  0  0  0  0  0  0  0  0
   -2.0105    6.9097    2.6689 C   0  0  0  0  0  0  0  0  0  0  0  0
   -2.1671    5.5627    2.6790 F   0  0  0  0  0  0  0  0  0  0  0  0
   -2.8313    7.7243    3.4610 C   0  0  0  0  0  0  0  0  0  0  0  0
   -2.6511    9.1190    3.4630 C   0  0  0  0  0  0  0  0  0  0  0  0
   -1.6595    9.7112    2.6579 C   0  0  0  0  0  0  0  0  0  0  0  0
   -0.8525    8.8916    1.8452 C   0  0  0  0  0  0  0  0  0  0  0  0
    0.2490    9.2361    0.8998 C   0  0  0  0  0  0  0  0  0  0  0  0
    0.4540   10.4538    0.3216 C   0  0  0  0  0  0  0  0  0  0  0  0
    1.3815   10.6596   -0.7554 C   0  0  0  0  0  0  0  0  0  0  0  0
    2.1207   10.8494   -1.6294 N   0  0  0  0  0  0  0  0  0  0  0  0
   -0.3288   11.6164    0.6590 C   0  0  0  0  0  0  0  0  0  0  0  0
   -0.9531   12.5581    0.9076 N   0  0  0  0  0  0  0  0  0  0  0  0
    1.8593   -7.1224    3.7627 H   0  0  0  0  0  0  0  0  0  0  0  0
   -0.2264   -8.6641   -1.8987 H   0  0  0  0  0  0  0  0  0  0  0  0
   -1.4240  -10.8416   -2.0738 H   0  0  0  0  0  0  0  0  0  0  0  0
   -1.2873  -12.4843   -0.2221 H   0  0  0  0  0  0  0  0  0  0  0  0
    0.0033  -11.9667    1.8196 H   0  0  0  0  0  0  0  0  0  0  0  0
   -1.3893   -6.5742   -0.1944 H   0  0  0  0  0  0  0  0  0  0  0  0
   -3.2751   -8.1359   -0.0510 H   0  0  0  0  0  0  0  0  0  0  0  0
   -4.3512   -8.6043    2.1252 H   0  0  0  0  0  0  0  0  0  0  0  0
   -3.5500   -7.4935    4.1646 H   0  0  0  0  0  0  0  0  0  0  0  0
   -0.3488   -5.7653    4.5328 H   0  0  0  0  0  0  0  0  0  0  0  0
   -1.8054   -6.3698    5.3521 H   0  0  0  0  0  0  0  0  0  0  0  0
   -1.6992   -3.9087    5.5076 H   0  0  0  0  0  0  0  0  0  0  0  0
   -3.1098   -4.3785    4.4768 H   0  0  0  0  0  0  0  0  0  0  0  0
   -1.5985   -3.7542    3.7131 H   0  0  0  0  0  0  0  0  0  0  0  0
    1.4316    7.9757   -5.7751 H   0  0  0  0  0  0  0  0  0  0  0  0
    1.9492    6.6506   -4.7033 H   0  0  0  0  0  0  0  0  0  0  0  0
    3.6963    8.3600   -4.7670 H   0  0  0  0  0  0  0  0  0  0  0  0
    2.5236    9.6586   -4.3282 H   0  0  0  0  0  0  0  0  0  0  0  0
    2.9611    8.3833   -3.1142 H   0  0  0  0  0  0  0  0  0  0  0  0
   -0.3497    9.5307   -5.1186 H   0  0  0  0  0  0  0  0  0  0  0  0
   -2.4488    9.8184   -3.8688 H   0  0  0  0  0  0  0  0  0  0  0  0
   -2.9704    8.3486   -1.9409 H   0  0  0  0  0  0  0  0  0  0  0  0
   -1.3766    6.6027   -1.2551 H   0  0  0  0  0  0  0  0  0  0  0  0
    3.0024   -1.4782    1.9321 H   0  0  0  0  0  0  0  0  0  0  0  0
    3.3375   -0.0123    1.0802 H   0  0  0  0  0  0  0  0  0  0  0  0
    4.0054   -2.9499    0.2706 H   0  0  0  0  0  0  0  0  0  0  0  0
    5.1840   -1.6591    0.6634 H   0  0  0  0  0  0  0  0  0  0  0  0
    4.2583   -1.6269   -0.8921 H   0  0  0  0  0  0  0  0  0  0  0  0
    4.1400    0.5516   -0.8004 H   0  0  0  0  0  0  0  0  0  0  0  0
    3.8574    2.0567    0.1882 H   0  0  0  0  0  0  0  0  0  0  0  0
    5.9050    2.0509   -1.2875 H   0  0  0  0  0  0  0  0  0  0  0  0
    4.7781    3.3349   -1.8096 H   0  0  0  0  0  0  0  0  0  0  0  0
    4.8877    1.7665   -2.7276 H   0  0  0  0  0  0  0  0  0  0  0  0
    2.5767    8.4728   -0.5819 H   0  0  0  0  0  0  0  0  0  0  0  0
   -3.6007    7.2812    4.0764 H   0  0  0  0  0  0  0  0  0  0  0  0
   -3.2805    9.7455    4.0883 H   0  0  0  0  0  0  0  0  0  0  0  0
   -1.5224   10.7760    2.7177 H   0  0  0  0  0  0  0  0  0  0  0  0
  1  2  2  3
  2  3  1  0
  3  4  2  0
  3  5  1  0
  5  6  2  0
  6  7  1  0
  7  8  2  0
  8  9  1  0
  9 10  2  0
 10 11  1  0
 11 12  2  3
 12 13  1  0
 13 14  3  0
 12 15  1  0
 15 16  3  0
  1 17  1  0
 17 18  2  0
 18 19  1  0
 19 20  2  0
 20 21  1  0
 21 22  2  0
 22 23  1  0
 23 24  2  0
 24 25  1  0
 25 26  1  0
 18 27  1  0
 27 28  1  0
 28 29  1  0
 29 30  1  0
 30 31  1  0
 31 32  1  0
 32 33  2  0
 33 34  1  0
 34 35  1  0
 32 36  1  0
 36 37  1  0
 37 38  1  0
 38 39  1  0
 39 40  1  0
 40 41  1  0
 41 42  2  0
 42 43  1  0
 43 44  1  0
 42 45  1  0
 45 46  2  0
 46 47  1  0
 47 48  2  0
 40 49  2  0
 49 50  1  0
 50 51  1  0
 51 52  1  0
 52 53  1  0
 53 54  1  0
 54 55  1  0
 55 56  1  0
 56 57  1  0
 57 58  1  0
 58 59  1  0
 56 60  1  0
 60 61  1  0
 53 62  1  0
 62 63  1  0
 49 64  1  0
 64 65  2  3
 65 66  1  0
 66 67  2  0
 66 68  1  0
 68 69  2  0
 69 70  1  0
 69 71  1  0
 71 72  2  0
 72 73  1  0
 73 74  2  0
 74 75  1  0
 75 76  2  3
 76 77  1  0
 77 78  3  0
 76 79  1  0
 79 80  3  0
 11  2  1  0
 59 17  1  0
 75 65  1  0
 10  5  1  0
 24 19  1  0
 58 27  2  0
 74 68  1  0
 57 29  2  0
 55 30  2  0
 35 31  2  0
 54 36  2  0
 52 37  2  0
 51 39  2  0
 48 41  1  0
  1 81  1  0
  6 82  1  0
  7 83  1  0
  8 84  1  0
  9 85  1  0
 20 86  1  0
 21 87  1  0
 22 88  1  0
 23 89  1  0
 25 90  1  0
 25 91  1  0
 26 92  1  0
 26 93  1  0
 26 94  1  0
 43 95  1  0
 43 96  1  0
 44 97  1  0
 44 98  1  0
 44 99  1  0
 45100  1  0
 46101  1  0
 47102  1  0
 48103  1  0
 60104  1  0
 60105  1  0
 61106  1  0
 61107  1  0
 61108  1  0
 62109  1  0
 62110  1  0
 63111  1  0
 63112  1  0
 63113  1  0
 64114  1  0
 71115  1  0
 72116  1  0
 73117  1  0
M  END

