
     RDKit          3D

 97108  0  0  0  0  0  0  0  0999 V2000
    4.6478    1.6621    6.8170 C   0  0  0  0  0  0  0  0  0  0  0  0
    4.4291    2.9826    6.6896 C   0  0  0  0  0  0  0  0  0  0  0  0
    4.3272    3.8801    7.8389 C   0  0  0  0  0  0  0  0  0  0  0  0
    4.7239    3.6375    9.0101 O   0  0  0  0  0  0  0  0  0  0  0  0
    3.5906    5.0551    7.4250 C   0  0  0  0  0  0  0  0  0  0  0  0
    3.1293    6.1077    8.2156 C   0  0  0  0  0  0  0  0  0  0  0  0
    2.3474    7.1007    7.6116 C   0  0  0  0  0  0  0  0  0  0  0  0
    2.0167    7.0094    6.2470 C   0  0  0  0  0  0  0  0  0  0  0  0
    2.4783    5.9332    5.4700 C   0  0  0  0  0  0  0  0  0  0  0  0
    3.2942    4.9640    6.0746 C   0  0  0  0  0  0  0  0  0  0  0  0
    3.9302    3.7467    5.5077 C   0  0  0  0  0  0  0  0  0  0  0  0
    4.3481    3.5917    4.2255 C   0  0  0  0  0  0  0  0  0  0  0  0
    3.9214    4.4625    3.1614 C   0  0  0  0  0  0  0  0  0  0  0  0
    3.5891    5.1546    2.2951 N   0  0  0  0  0  0  0  0  0  0  0  0
    5.3671    2.6344    3.8701 C   0  0  0  0  0  0  0  0  0  0  0  0
    6.1857    1.8707    3.5771 N   0  0  0  0  0  0  0  0  0  0  0  0
    4.2176    0.6564    5.8284 C   0  0  0  0  0  0  0  0  0  0  0  0
    4.9206   -0.5165    5.4933 C   0  0  0  0  0  0  0  0  0  0  0  0
    6.2517   -0.9152    6.0593 C   0  0  0  0  0  0  0  0  0  0  0  0
    6.0732   -1.8001    7.2866 C   0  0  0  0  0  0  0  0  0  0  0  0
    4.2356   -1.2479    4.5211 C   0  0  0  0  0  0  0  0  0  0  0  0
    4.6630   -2.5829    3.5540 S   0  0  0  0  0  0  0  0  0  0  0  0
    3.2362   -2.4269    2.6449 C   0  0  0  0  0  0  0  0  0  0  0  0
    2.8596   -2.7416    1.3680 C   0  0  0  0  0  0  0  0  0  0  0  0
    3.5270   -3.4669    0.3677 C   0  0  0  0  0  0  0  0  0  0  0  0
    3.0795   -3.3499   -0.9849 C   0  0  0  0  0  0  0  0  0  0  0  0
    3.7639   -4.0472   -1.9254 N   0  0  0  0  0  0  0  0  0  0  0  0
    4.9108   -4.7557   -0.9612 S   0  0  0  0  0  0  0  0  0  0  0  0
    4.6111   -4.2504    0.5885 N   0  0  0  0  0  0  0  0  0  0  0  0
    1.9752   -2.5356   -1.2537 C   0  0  0  0  0  0  0  0  0  0  0  0
    1.2549   -2.3068   -2.3922 C   0  0  0  0  0  0  0  0  0  0  0  0
    1.2285   -2.7769   -4.0224 S   0  0  0  0  0  0  0  0  0  0  0  0
   -0.2821   -2.0042   -4.2396 C   0  0  0  0  0  0  0  0  0  0  0  0
   -1.1236   -1.8245   -5.3375 C   0  0  0  0  0  0  0  0  0  0  0  0
   -0.7773   -2.2529   -6.7362 C   0  0  0  0  0  0  0  0  0  0  0  0
   -0.0478   -1.1347   -7.4731 C   0  0  0  0  0  0  0  0  0  0  0  0
   -2.2619   -1.0767   -4.9692 C   0  0  0  0  0  0  0  0  0  0  0  0
   -2.1909   -0.6503   -3.3185 S   0  0  0  0  0  0  0  0  0  0  0  0
   -0.7316   -1.4358   -3.0764 C   0  0  0  0  0  0  0  0  0  0  0  0
    0.1582   -1.5973   -2.0300 C   0  0  0  0  0  0  0  0  0  0  0  0
    0.1014   -1.3441   -0.6999 N   0  0  0  0  0  0  0  0  0  0  0  0
    1.2832   -1.8585   -0.2407 C   0  0  0  0  0  0  0  0  0  0  0  0
    1.7988   -1.8741    1.0716 C   0  0  0  0  0  0  0  0  0  0  0  0
    1.6321   -0.9373    2.0591 N   0  0  0  0  0  0  0  0  0  0  0  0
    2.4872   -1.3545    3.0285 C   0  0  0  0  0  0  0  0  0  0  0  0
    3.0591   -0.6881    4.1024 C   0  0  0  0  0  0  0  0  0  0  0  0
    2.7718    0.7407    4.9231 S   0  0  0  0  0  0  0  0  0  0  0  0
    1.2748    0.4774    1.8451 C   0  0  0  0  0  0  0  0  0  0  0  0
    2.4727    1.2709    1.3234 C   0  0  0  0  0  0  0  0  0  0  0  0
   -1.1474   -1.1973    0.0638 C   0  0  0  0  0  0  0  0  0  0  0  0
   -1.9820   -2.4761   -0.0040 C   0  0  0  0  0  0  0  0  0  0  0  0
   -3.3127   -0.6008   -5.8778 C   0  0  0  0  0  0  0  0  0  0  0  0
   -4.2569   -1.4081   -6.3932 C   0  0  0  0  0  0  0  0  0  0  0  0
   -4.3345   -2.8604   -6.1906 C   0  0  0  0  0  0  0  0  0  0  0  0
   -3.7080   -3.5331   -5.3291 O   0  0  0  0  0  0  0  0  0  0  0  0
   -5.2524   -3.4067   -7.1629 C   0  0  0  0  0  0  0  0  0  0  0  0
   -5.5400   -4.7495   -7.4092 C   0  0  0  0  0  0  0  0  0  0  0  0
   -6.4006   -5.0633   -8.4674 C   0  0  0  0  0  0  0  0  0  0  0  0
   -6.6955   -6.3597   -8.7353 F   0  0  0  0  0  0  0  0  0  0  0  0
   -6.9346   -4.0393   -9.2707 C   0  0  0  0  0  0  0  0  0  0  0  0
   -7.7424   -4.3564  -10.3118 F   0  0  0  0  0  0  0  0  0  0  0  0
   -6.6277   -2.6918   -9.0081 C   0  0  0  0  0  0  0  0  0  0  0  0
   -5.7946   -2.3819   -7.9196 C   0  0  0  0  0  0  0  0  0  0  0  0
   -5.2963   -1.0679   -7.4152 C   0  0  0  0  0  0  0  0  0  0  0  0
   -5.8288    0.1577   -7.6726 C   0  0  0  0  0  0  0  0  0  0  0  0
   -5.4273    1.3451   -6.9625 C   0  0  0  0  0  0  0  0  0  0  0  0
   -5.1180    2.3064   -6.3948 N   0  0  0  0  0  0  0  0  0  0  0  0
   -6.9361    0.3517   -8.5721 C   0  0  0  0  0  0  0  0  0  0  0  0
   -7.8283    0.5305   -9.2880 N   0  0  0  0  0  0  0  0  0  0  0  0
    5.0465    1.2895    7.7520 H   0  0  0  0  0  0  0  0  0  0  0  0
    3.3544    6.1503    9.2741 H   0  0  0  0  0  0  0  0  0  0  0  0
    1.9816    7.9293    8.2037 H   0  0  0  0  0  0  0  0  0  0  0  0
    1.3871    7.7663    5.7968 H   0  0  0  0  0  0  0  0  0  0  0  0
    2.1673    5.8574    4.4391 H   0  0  0  0  0  0  0  0  0  0  0  0
    6.8349   -0.0114    6.3364 H   0  0  0  0  0  0  0  0  0  0  0  0
    6.8364   -1.4672    5.2923 H   0  0  0  0  0  0  0  0  0  0  0  0
    7.0669   -2.0913    7.6846 H   0  0  0  0  0  0  0  0  0  0  0  0
    5.5109   -2.7194    7.0206 H   0  0  0  0  0  0  0  0  0  0  0  0
    5.5218   -1.2576    8.0809 H   0  0  0  0  0  0  0  0  0  0  0  0
   -1.6972   -2.5251   -7.2960 H   0  0  0  0  0  0  0  0  0  0  0  0
   -0.1289   -3.1553   -6.7046 H   0  0  0  0  0  0  0  0  0  0  0  0
    0.2387   -1.4853   -8.4858 H   0  0  0  0  0  0  0  0  0  0  0  0
    0.8741   -0.8498   -6.9242 H   0  0  0  0  0  0  0  0  0  0  0  0
   -0.7053   -0.2444   -7.5744 H   0  0  0  0  0  0  0  0  0  0  0  0
    0.4686    0.5952    1.1008 H   0  0  0  0  0  0  0  0  0  0  0  0
    0.9086    0.9228    2.7920 H   0  0  0  0  0  0  0  0  0  0  0  0
    3.3041    1.2647    2.0573 H   0  0  0  0  0  0  0  0  0  0  0  0
    2.8317    0.8270    0.3715 H   0  0  0  0  0  0  0  0  0  0  0  0
    2.1731    2.3241    1.1353 H   0  0  0  0  0  0  0  0  0  0  0  0
   -1.7344   -0.3447   -0.3371 H   0  0  0  0  0  0  0  0  0  0  0  0
   -0.9453   -1.0124    1.1359 H   0  0  0  0  0  0  0  0  0  0  0  0
   -2.2975   -2.6853   -1.0459 H   0  0  0  0  0  0  0  0  0  0  0  0
   -2.8926   -2.3603    0.6201 H   0  0  0  0  0  0  0  0  0  0  0  0
   -1.3935   -3.3373    0.3766 H   0  0  0  0  0  0  0  0  0  0  0  0
   -3.2569    0.4372   -6.1464 H   0  0  0  0  0  0  0  0  0  0  0  0
   -5.0983   -5.5333   -6.8069 H   0  0  0  0  0  0  0  0  0  0  0  0
   -7.0147   -1.9353   -9.6694 H   0  0  0  0  0  0  0  0  0  0  0  0
  1  2  2  3
  2  3  1  0
  3  4  2  0
  3  5  1  0
  5  6  2  0
  6  7  1  0
  7  8  2  0
  8  9  1  0
  9 10  2  0
 10 11  1  0
 11 12  2  3
 12 13  1  0
 13 14  3  0
 12 15  1  0
 15 16  3  0
  1 17  1  0
 17 18  2  0
 18 19  1  0
 19 20  1  0
 18 21  1  0
 21 22  1  0
 22 23  1  0
 23 24  1  0
 24 25  1  0
 25 26  1  0
 26 27  2  0
 27 28  1  0
 28 29  1  0
 26 30  1  0
 30 31  1  0
 31 32  1  0
 32 33  1  0
 33 34  1  0
 34 35  1  0
 35 36  1  0
 34 37  2  0
 37 38  1  0
 38 39  1  0
 39 40  1  0
 40 41  1  0
 41 42  1  0
 42 43  1  0
 43 44  1  0
 44 45  1  0
 45 46  1  0
 46 47  1  0
 44 48  1  0
 48 49  1  0
 41 50  1  0
 50 51  1  0
 37 52  1  0
 52 53  2  3
 53 54  1  0
 54 55  2  0
 54 56  1  0
 56 57  2  0
 57 58  1  0
 58 59  1  0
 58 60  2  0
 60 61  1  0
 60 62  1  0
 62 63  2  0
 63 64  1  0
 64 65  2  3
 65 66  1  0
 66 67  3  0
 65 68  1  0
 68 69  3  0
 11  2  1  0
 47 17  1  0
 64 53  1  0
 10  5  1  0
 46 21  2  0
 63 56  1  0
 45 23  2  0
 43 24  2  0
 29 25  2  0
 42 30  2  0
 40 31  2  0
 39 33  2  0
  1 70  1  0
  6 71  1  0
  7 72  1  0
  8 73  1  0
  9 74  1  0
 19 75  1  0
 19 76  1  0
 20 77  1  0
 20 78  1  0
 20 79  1  0
 35 80  1  0
 35 81  1  0
 36 82  1  0
 36 83  1  0
 36 84  1  0
 48 85  1  0
 48 86  1  0
 49 87  1  0
 49 88  1  0
 49 89  1  0
 50 90  1  0
 50 91  1  0
 51 92  1  0
 51 93  1  0
 51 94  1  0
 52 95  1  0
 57 96  1  0
 62 97  1  0
M  END

