
     RDKit          3D

117132  0  0  0  0  0  0  0  0999 V2000
   -1.7531   -5.0223   -6.5953 C   0  0  0  0  0  0  0  0  0  0  0  0
   -1.3959   -6.3056   -6.8027 C   0  0  0  0  0  0  0  0  0  0  0  0
   -1.9561   -7.4724   -6.1074 C   0  0  0  0  0  0  0  0  0  0  0  0
   -2.8290   -7.4578   -5.2008 O   0  0  0  0  0  0  0  0  0  0  0  0
   -1.4958   -8.6684   -6.7742 C   0  0  0  0  0  0  0  0  0  0  0  0
   -1.7936   -9.9931   -6.4526 C   0  0  0  0  0  0  0  0  0  0  0  0
   -1.2593  -11.0104   -7.2520 C   0  0  0  0  0  0  0  0  0  0  0  0
   -0.4585  -10.6897   -8.3595 C   0  0  0  0  0  0  0  0  0  0  0  0
   -0.1787   -9.3493   -8.6731 C   0  0  0  0  0  0  0  0  0  0  0  0
   -0.7052   -8.3294   -7.8592 C   0  0  0  0  0  0  0  0  0  0  0  0
   -0.5541   -6.8432   -7.9234 C   0  0  0  0  0  0  0  0  0  0  0  0
    0.3151   -6.1418   -8.7029 C   0  0  0  0  0  0  0  0  0  0  0  0
    0.5988   -4.7453   -8.4862 C   0  0  0  0  0  0  0  0  0  0  0  0
    0.8343   -3.6230   -8.3181 N   0  0  0  0  0  0  0  0  0  0  0  0
    1.0903   -6.7470   -9.7516 C   0  0  0  0  0  0  0  0  0  0  0  0
    1.7245   -7.2120  -10.6014 N   0  0  0  0  0  0  0  0  0  0  0  0
   -2.3550   -4.5020   -5.3524 C   0  0  0  0  0  0  0  0  0  0  0  0
   -2.0023   -5.0425   -3.7815 S   0  0  0  0  0  0  0  0  0  0  0  0
   -2.7932   -3.7882   -3.0007 C   0  0  0  0  0  0  0  0  0  0  0  0
   -2.8697   -3.5019   -1.6304 C   0  0  0  0  0  0  0  0  0  0  0  0
   -2.1528   -4.3846   -0.3745 S   0  0  0  0  0  0  0  0  0  0  0  0
   -2.6300   -3.2497    0.7664 C   0  0  0  0  0  0  0  0  0  0  0  0
   -2.1910   -2.9111    2.0098 C   0  0  0  0  0  0  0  0  0  0  0  0
   -1.1756   -3.5098    2.7606 C   0  0  0  0  0  0  0  0  0  0  0  0
   -0.5712   -2.7643    3.8038 C   0  0  0  0  0  0  0  0  0  0  0  0
    0.4839   -3.3330    4.4391 N   0  0  0  0  0  0  0  0  0  0  0  0
    0.5665   -4.7671    3.6179 S   0  0  0  0  0  0  0  0  0  0  0  0
   -0.6399   -4.7253    2.4854 N   0  0  0  0  0  0  0  0  0  0  0  0
   -1.0493   -1.4828    4.0737 C   0  0  0  0  0  0  0  0  0  0  0  0
   -0.4793   -0.4880    4.8076 C   0  0  0  0  0  0  0  0  0  0  0  0
    1.0862   -0.1821    5.3517 S   0  0  0  0  0  0  0  0  0  0  0  0
    0.8458    1.5002    5.2871 C   0  0  0  0  0  0  0  0  0  0  0  0
    1.8246    2.5025    5.3768 C   0  0  0  0  0  0  0  0  0  0  0  0
    1.5506    3.8112    4.9686 C   0  0  0  0  0  0  0  0  0  0  0  0
    0.2636    4.1028    4.5027 C   0  0  0  0  0  0  0  0  0  0  0  0
   -0.2073    5.2326    3.9526 N   0  0  0  0  0  0  0  0  0  0  0  0
   -1.4370    4.9213    3.5463 N   0  0  0  0  0  0  0  0  0  0  0  0
   -2.3451    5.8796    2.9291 C   0  0  0  0  0  0  0  0  0  0  0  0
   -3.1865    6.5651    3.9976 C   0  0  0  0  0  0  0  0  0  0  0  0
   -1.7703    3.6567    3.7946 N   0  0  0  0  0  0  0  0  0  0  0  0
   -0.7007    3.1311    4.4084 C   0  0  0  0  0  0  0  0  0  0  0  0
   -0.4439    1.8075    4.7985 C   0  0  0  0  0  0  0  0  0  0  0  0
   -1.1816    0.6417    4.5600 C   0  0  0  0  0  0  0  0  0  0  0  0
   -2.2567    0.4273    3.7589 N   0  0  0  0  0  0  0  0  0  0  0  0
   -2.1221   -0.8915    3.3769 C   0  0  0  0  0  0  0  0  0  0  0  0
   -2.6664   -1.6080    2.2519 C   0  0  0  0  0  0  0  0  0  0  0  0
   -3.3732   -1.1690    1.1481 N   0  0  0  0  0  0  0  0  0  0  0  0
   -3.2895   -2.1874    0.2402 C   0  0  0  0  0  0  0  0  0  0  0  0
   -3.4470   -2.2894   -1.1681 C   0  0  0  0  0  0  0  0  0  0  0  0
   -3.9393   -1.4044   -2.1597 C   0  0  0  0  0  0  0  0  0  0  0  0
   -3.8735   -1.7174   -3.5001 C   0  0  0  0  0  0  0  0  0  0  0  0
   -3.2968   -2.9051   -3.9504 C   0  0  0  0  0  0  0  0  0  0  0  0
   -3.0536   -3.2935   -5.2724 C   0  0  0  0  0  0  0  0  0  0  0  0
   -4.3636   -0.6956   -4.2175 N   0  0  0  0  0  0  0  0  0  0  0  0
   -4.7141    0.2105   -3.3099 N   0  0  0  0  0  0  0  0  0  0  0  0
   -5.3425    1.4815   -3.6462 C   0  0  0  0  0  0  0  0  0  0  0  0
   -6.8581    1.3332   -3.6466 C   0  0  0  0  0  0  0  0  0  0  0  0
   -4.4772   -0.1802   -2.0603 N   0  0  0  0  0  0  0  0  0  0  0  0
   -4.0447    0.1085    0.9347 C   0  0  0  0  0  0  0  0  0  0  0  0
   -3.0595    1.1812    0.4782 C   0  0  0  0  0  0  0  0  0  0  0  0
   -3.5103    1.1603    4.0222 C   0  0  0  0  0  0  0  0  0  0  0  0
   -4.6235    0.2425    4.5398 C   0  0  0  0  0  0  0  0  0  0  0  0
    2.6778    4.6374    4.9306 C   0  0  0  0  0  0  0  0  0  0  0  0
    3.8383    3.9515    5.3002 C   0  0  0  0  0  0  0  0  0  0  0  0
    3.4673    2.3465    5.6827 S   0  0  0  0  0  0  0  0  0  0  0  0
    5.2102    4.4577    5.1788 C   0  0  0  0  0  0  0  0  0  0  0  0
    5.8056    4.6711    3.9881 C   0  0  0  0  0  0  0  0  0  0  0  0
    5.2486    4.3102    2.6758 C   0  0  0  0  0  0  0  0  0  0  0  0
    4.0517    4.0075    2.4216 O   0  0  0  0  0  0  0  0  0  0  0  0
    6.3300    4.2708    1.7174 C   0  0  0  0  0  0  0  0  0  0  0  0
    6.2859    3.8400    0.3931 C   0  0  0  0  0  0  0  0  0  0  0  0
    7.4874    3.7422   -0.3201 C   0  0  0  0  0  0  0  0  0  0  0  0
    8.7202    4.0488    0.3066 C   0  0  0  0  0  0  0  0  0  0  0  0
    9.9500    3.9110   -0.3543 O   0  0  0  0  0  0  0  0  0  0  0  0
   10.0973    3.4076   -1.6782 C   0  0  0  0  0  0  0  0  0  0  0  0
    8.7288    4.4904    1.6429 C   0  0  0  0  0  0  0  0  0  0  0  0
    7.5147    4.6231    2.3369 C   0  0  0  0  0  0  0  0  0  0  0  0
    7.2452    5.0031    3.7529 C   0  0  0  0  0  0  0  0  0  0  0  0
    8.0635    5.7089    4.5755 C   0  0  0  0  0  0  0  0  0  0  0  0
    7.6264    6.2065    5.8537 C   0  0  0  0  0  0  0  0  0  0  0  0
    7.2826    6.6113    6.8824 N   0  0  0  0  0  0  0  0  0  0  0  0
    9.3770    6.1399    4.1736 C   0  0  0  0  0  0  0  0  0  0  0  0
   10.4326    6.4986    3.8591 N   0  0  0  0  0  0  0  0  0  0  0  0
   -1.5675   -4.2857   -7.3581 H   0  0  0  0  0  0  0  0  0  0  0  0
   -2.4202  -10.2315   -5.6037 H   0  0  0  0  0  0  0  0  0  0  0  0
   -1.4694  -12.0457   -7.0171 H   0  0  0  0  0  0  0  0  0  0  0  0
   -0.0545  -11.4820   -8.9763 H   0  0  0  0  0  0  0  0  0  0  0  0
    0.4234   -9.1516   -9.5397 H   0  0  0  0  0  0  0  0  0  0  0  0
   -1.7642    6.6425    2.3660 H   0  0  0  0  0  0  0  0  0  0  0  0
   -3.0140    5.3527    2.2149 H   0  0  0  0  0  0  0  0  0  0  0  0
   -3.9025    7.2649    3.5185 H   0  0  0  0  0  0  0  0  0  0  0  0
   -3.7585    5.8109    4.5773 H   0  0  0  0  0  0  0  0  0  0  0  0
   -2.5342    7.1386    4.6901 H   0  0  0  0  0  0  0  0  0  0  0  0
   -3.3222   -2.6956   -6.1342 H   0  0  0  0  0  0  0  0  0  0  0  0
   -5.0469    2.2539   -2.9035 H   0  0  0  0  0  0  0  0  0  0  0  0
   -5.0021    1.8138   -4.6513 H   0  0  0  0  0  0  0  0  0  0  0  0
   -7.3283    2.3025   -3.9210 H   0  0  0  0  0  0  0  0  0  0  0  0
   -7.1674    0.5632   -4.3864 H   0  0  0  0  0  0  0  0  0  0  0  0
   -7.2121    1.0341   -2.6363 H   0  0  0  0  0  0  0  0  0  0  0  0
   -4.8701   -0.0108    0.2182 H   0  0  0  0  0  0  0  0  0  0  0  0
   -4.6069    0.3974    1.8238 H   0  0  0  0  0  0  0  0  0  0  0  0
   -2.5720    0.8789   -0.4718 H   0  0  0  0  0  0  0  0  0  0  0  0
   -3.5973    2.1392    0.3212 H   0  0  0  0  0  0  0  0  0  0  0  0
   -2.2706    1.3347    1.2404 H   0  0  0  0  0  0  0  0  0  0  0  0
   -3.8096    1.7719    3.1541 H   0  0  0  0  0  0  0  0  0  0  0  0
   -3.3480    1.9080    4.8299 H   0  0  0  0  0  0  0  0  0  0  0  0
   -4.8402   -0.5852    3.8354 H   0  0  0  0  0  0  0  0  0  0  0  0
   -4.3233   -0.1984    5.5152 H   0  0  0  0  0  0  0  0  0  0  0  0
   -5.5526    0.8334    4.6868 H   0  0  0  0  0  0  0  0  0  0  0  0
    2.6684    5.6596    4.5745 H   0  0  0  0  0  0  0  0  0  0  0  0
    5.7860    4.4879    6.0896 H   0  0  0  0  0  0  0  0  0  0  0  0
    5.3485    3.5626   -0.0705 H   0  0  0  0  0  0  0  0  0  0  0  0
    7.4527    3.4009   -1.3454 H   0  0  0  0  0  0  0  0  0  0  0  0
   11.1745    3.3852   -1.9393 H   0  0  0  0  0  0  0  0  0  0  0  0
    9.6954    2.3746   -1.7397 H   0  0  0  0  0  0  0  0  0  0  0  0
    9.5696    4.0658   -2.3997 H   0  0  0  0  0  0  0  0  0  0  0  0
    9.6779    4.6667    2.1199 H   0  0  0  0  0  0  0  0  0  0  0  0
  1  2  2  3
  2  3  1  0
  3  4  2  0
  3  5  1  0
  5  6  2  0
  6  7  1  0
  7  8  2  0
  8  9  1  0
  9 10  2  0
 10 11  1  0
 11 12  2  3
 12 13  1  0
 13 14  3  0
 12 15  1  0
 15 16  3  0
  1 17  1  0
 17 18  1  0
 18 19  1  0
 19 20  1  0
 20 21  1  0
 21 22  1  0
 22 23  1  0
 23 24  1  0
 24 25  1  0
 25 26  2  0
 26 27  1  0
 27 28  1  0
 25 29  1  0
 29 30  1  0
 30 31  1  0
 31 32  1  0
 32 33  1  0
 33 34  2  0
 34 35  1  0
 35 36  2  0
 36 37  1  0
 37 38  1  0
 38 39  1  0
 37 40  1  0
 40 41  2  0
 41 42  1  0
 42 43  1  0
 43 44  1  0
 44 45  1  0
 45 46  1  0
 46 47  1  0
 47 48  1  0
 48 49  1  0
 49 50  1  0
 50 51  1  0
 51 52  1  0
 52 53  1  0
 51 54  2  0
 54 55  1  0
 55 56  1  0
 56 57  1  0
 55 58  1  0
 47 59  1  0
 59 60  1  0
 44 61  1  0
 61 62  1  0
 34 63  1  0
 63 64  2  0
 64 65  1  0
 64 66  1  0
 66 67  2  3
 67 68  1  0
 68 69  2  0
 68 70  1  0
 70 71  2  0
 71 72  1  0
 72 73  2  0
 73 74  1  0
 74 75  1  0
 73 76  1  0
 76 77  2  0
 77 78  1  0
 78 79  2  3
 79 80  1  0
 80 81  3  0
 79 82  1  0
 82 83  3  0
 11  2  1  0
 53 17  2  0
 78 67  1  0
 10  5  1  0
 52 19  2  0
 77 70  1  0
 49 20  2  0
 58 50  2  0
 48 22  2  0
 46 23  2  0
 28 24  2  0
 45 29  2  0
 43 30  2  0
 42 32  2  0
 65 33  1  0
 41 35  1  0
  1 84  1  0
  6 85  1  0
  7 86  1  0
  8 87  1  0
  9 88  1  0
 38 89  1  0
 38 90  1  0
 39 91  1  0
 39 92  1  0
 39 93  1  0
 53 94  1  0
 56 95  1  0
 56 96  1  0
 57 97  1  0
 57 98  1  0
 57 99  1  0
 59100  1  0
 59101  1  0
 60102  1  0
 60103  1  0
 60104  1  0
 61105  1  0
 61106  1  0
 62107  1  0
 62108  1  0
 62109  1  0
 63110  1  0
 66111  1  0
 71112  1  0
 72113  1  0
 75114  1  0
 75115  1  0
 75116  1  0
 76117  1  0
M  END

