
     RDKit          3D

117131  0  0  0  0  0  0  0  0999 V2000
   -4.8608    4.5947   -9.4577 N   0  0  0  0  0  0  0  0  0  0  0  0
   -4.0750    4.6414   -8.6098 C   0  0  0  0  0  0  0  0  0  0  0  0
   -3.0947    4.6999   -7.5477 C   0  0  0  0  0  0  0  0  0  0  0  0
   -2.4313    5.8472   -7.2791 C   0  0  0  0  0  0  0  0  0  0  0  0
   -1.5220    5.9546   -6.1644 C   0  0  0  0  0  0  0  0  0  0  0  0
   -0.7942    6.0405   -5.2692 N   0  0  0  0  0  0  0  0  0  0  0  0
   -2.6632    7.0522   -8.0422 C   0  0  0  0  0  0  0  0  0  0  0  0
   -2.8484    8.0208   -8.6449 N   0  0  0  0  0  0  0  0  0  0  0  0
   -2.8806    3.4637   -6.7615 C   0  0  0  0  0  0  0  0  0  0  0  0
   -3.8883    2.6902   -6.1437 C   0  0  0  0  0  0  0  0  0  0  0  0
   -5.3010    3.1035   -6.0095 C   0  0  0  0  0  0  0  0  0  0  0  0
   -6.3432    2.2053   -6.2853 C   0  0  0  0  0  0  0  0  0  0  0  0
   -7.6754    2.6162   -6.1695 C   0  0  0  0  0  0  0  0  0  0  0  0
   -7.9805    3.9292   -5.7748 C   0  0  0  0  0  0  0  0  0  0  0  0
   -9.4098    4.3722   -5.6267 C   0  0  0  0  0  0  0  0  0  0  0  0
   -9.9430    4.0393   -4.2362 C   0  0  0  0  0  0  0  0  0  0  0  0
   -6.9381    4.8142   -5.4645 C   0  0  0  0  0  0  0  0  0  0  0  0
   -5.6099    4.4063   -5.5852 C   0  0  0  0  0  0  0  0  0  0  0  0
   -3.3359    1.5740   -5.5080 C   0  0  0  0  0  0  0  0  0  0  0  0
   -3.9866    0.3496   -4.5059 S   0  0  0  0  0  0  0  0  0  0  0  0
   -2.4290   -0.2410   -4.1846 C   0  0  0  0  0  0  0  0  0  0  0  0
   -1.8164   -1.2433   -3.4913 C   0  0  0  0  0  0  0  0  0  0  0  0
   -2.3197   -2.3510   -2.8050 C   0  0  0  0  0  0  0  0  0  0  0  0
   -1.3964   -3.2861   -2.2470 C   0  0  0  0  0  0  0  0  0  0  0  0
   -1.9231   -4.3362   -1.5696 N   0  0  0  0  0  0  0  0  0  0  0  0
   -3.5369   -4.0087   -1.7568 S   0  0  0  0  0  0  0  0  0  0  0  0
   -3.6396   -2.6058   -2.6314 N   0  0  0  0  0  0  0  0  0  0  0  0
   -0.0206   -3.0357   -2.3680 C   0  0  0  0  0  0  0  0  0  0  0  0
    1.0226   -3.5388   -1.6378 C   0  0  0  0  0  0  0  0  0  0  0  0
    1.1140   -4.4698   -0.2220 S   0  0  0  0  0  0  0  0  0  0  0  0
    2.5650   -3.7171    0.2488 C   0  0  0  0  0  0  0  0  0  0  0  0
    3.3007   -3.7169    1.4415 C   0  0  0  0  0  0  0  0  0  0  0  0
    3.0047   -4.5557    2.6245 C   0  0  0  0  0  0  0  0  0  0  0  0
    1.6890   -4.6946    3.0964 C   0  0  0  0  0  0  0  0  0  0  0  0
    1.4203   -5.4770    4.2235 C   0  0  0  0  0  0  0  0  0  0  0  0
    2.4657   -6.1156    4.9072 C   0  0  0  0  0  0  0  0  0  0  0  0
    2.1761   -6.9765    6.1065 C   0  0  0  0  0  0  0  0  0  0  0  0
    1.9856   -8.4330    5.6956 C   0  0  0  0  0  0  0  0  0  0  0  0
    3.7811   -5.9815    4.4351 C   0  0  0  0  0  0  0  0  0  0  0  0
    4.0483   -5.2047    3.3042 C   0  0  0  0  0  0  0  0  0  0  0  0
    4.2755   -2.7003    1.4204 C   0  0  0  0  0  0  0  0  0  0  0  0
    4.1743   -1.8250   -0.0339 S   0  0  0  0  0  0  0  0  0  0  0  0
    2.9261   -2.7514   -0.6580 C   0  0  0  0  0  0  0  0  0  0  0  0
    2.0424   -2.6369   -1.7308 C   0  0  0  0  0  0  0  0  0  0  0  0
    1.7250   -1.5703   -2.5157 N   0  0  0  0  0  0  0  0  0  0  0  0
    0.4707   -1.8713   -2.9851 C   0  0  0  0  0  0  0  0  0  0  0  0
   -0.4425   -1.0223   -3.6579 C   0  0  0  0  0  0  0  0  0  0  0  0
   -0.2054    0.0114   -4.5281 N   0  0  0  0  0  0  0  0  0  0  0  0
   -1.4535    0.4679   -4.8014 C   0  0  0  0  0  0  0  0  0  0  0  0
   -1.9674    1.4842   -5.5889 C   0  0  0  0  0  0  0  0  0  0  0  0
   -1.3528    2.7549   -6.4842 S   0  0  0  0  0  0  0  0  0  0  0  0
    0.9468    0.1522   -5.4322 C   0  0  0  0  0  0  0  0  0  0  0  0
    1.5374    1.5694   -5.4023 C   0  0  0  0  0  0  0  0  0  0  0  0
    2.2519   -0.2182   -2.2892 C   0  0  0  0  0  0  0  0  0  0  0  0
    1.5611    0.4472   -1.0984 C   0  0  0  0  0  0  0  0  0  0  0  0
    5.0205   -2.2059    2.5864 C   0  0  0  0  0  0  0  0  0  0  0  0
    4.5312   -1.2491    3.4001 C   0  0  0  0  0  0  0  0  0  0  0  0
    3.1430   -0.7631    3.3840 C   0  0  0  0  0  0  0  0  0  0  0  0
    2.2649   -1.0277    2.5208 O   0  0  0  0  0  0  0  0  0  0  0  0
    2.9209    0.0553    4.5507 C   0  0  0  0  0  0  0  0  0  0  0  0
    1.6979    0.6434    4.9504 C   0  0  0  0  0  0  0  0  0  0  0  0
    1.7759    1.3448    6.1379 C   0  0  0  0  0  0  0  0  0  0  0  0
    2.9824    1.4574    6.8999 C   0  0  0  0  0  0  0  0  0  0  0  0
    4.1762    0.8619    6.5264 C   0  0  0  0  0  0  0  0  0  0  0  0
    4.1274    0.1525    5.2907 C   0  0  0  0  0  0  0  0  0  0  0  0
    5.2047   -0.5959    4.5709 C   0  0  0  0  0  0  0  0  0  0  0  0
    6.5437   -0.5144    4.8048 C   0  0  0  0  0  0  0  0  0  0  0  0
    7.5265   -1.1100    3.9393 C   0  0  0  0  0  0  0  0  0  0  0  0
    8.3300   -1.5831    3.2546 N   0  0  0  0  0  0  0  0  0  0  0  0
    7.1042    0.2690    5.8752 C   0  0  0  0  0  0  0  0  0  0  0  0
    7.5741    0.8970    6.7266 N   0  0  0  0  0  0  0  0  0  0  0  0
    2.2735    2.2829    7.9312 C   0  0  0  0  0  0  0  0  0  0  0  0
    1.9393    1.5768    9.2779 C   0  0  0  0  0  0  0  0  0  0  0  0
    0.9098    2.4477    9.9563 C   0  0  0  0  0  0  0  0  0  0  0  0
   -0.2203    2.3197    9.2493 C   0  0  0  0  0  0  0  0  0  0  0  0
    0.0882    1.3717    8.1149 C   0  0  0  0  0  0  0  0  0  0  0  0
    1.0342    0.4341    8.8490 C   0  0  0  0  0  0  0  0  0  0  0  0
    1.0342    2.1549    7.1569 C   0  0  0  0  0  0  0  0  0  0  0  0
   -6.1241    1.1942   -6.6040 H   0  0  0  0  0  0  0  0  0  0  0  0
   -8.4684    1.9149   -6.3919 H   0  0  0  0  0  0  0  0  0  0  0  0
  -10.0475    3.8784   -6.3932 H   0  0  0  0  0  0  0  0  0  0  0  0
   -9.4879    5.4711   -5.7924 H   0  0  0  0  0  0  0  0  0  0  0  0
   -9.2494    4.4138   -3.4527 H   0  0  0  0  0  0  0  0  0  0  0  0
  -10.0722    2.9440   -4.1292 H   0  0  0  0  0  0  0  0  0  0  0  0
  -10.9297    4.5275   -4.0963 H   0  0  0  0  0  0  0  0  0  0  0  0
   -7.1539    5.8216   -5.1346 H   0  0  0  0  0  0  0  0  0  0  0  0
   -4.8203    5.1064   -5.3362 H   0  0  0  0  0  0  0  0  0  0  0  0
    0.8710   -4.1814    2.6080 H   0  0  0  0  0  0  0  0  0  0  0  0
    0.3986   -5.5795    4.5653 H   0  0  0  0  0  0  0  0  0  0  0  0
    1.2583   -6.6200    6.6263 H   0  0  0  0  0  0  0  0  0  0  0  0
    3.0142   -6.9062    6.8358 H   0  0  0  0  0  0  0  0  0  0  0  0
    1.7431   -9.0416    6.5935 H   0  0  0  0  0  0  0  0  0  0  0  0
    1.1499   -8.5253    4.9701 H   0  0  0  0  0  0  0  0  0  0  0  0
    2.9172   -8.8288    5.2383 H   0  0  0  0  0  0  0  0  0  0  0  0
    4.5976   -6.4824    4.9396 H   0  0  0  0  0  0  0  0  0  0  0  0
    5.0685   -5.1164    2.9543 H   0  0  0  0  0  0  0  0  0  0  0  0
    1.7360   -0.5883   -5.1764 H   0  0  0  0  0  0  0  0  0  0  0  0
    0.6278   -0.0930   -6.4686 H   0  0  0  0  0  0  0  0  0  0  0  0
    1.4211    2.0544   -6.3930 H   0  0  0  0  0  0  0  0  0  0  0  0
    2.6243    1.5266   -5.1846 H   0  0  0  0  0  0  0  0  0  0  0  0
    1.0476    2.2010   -4.6317 H   0  0  0  0  0  0  0  0  0  0  0  0
    2.0975    0.4174   -3.1613 H   0  0  0  0  0  0  0  0  0  0  0  0
    3.3488   -0.2504   -2.1344 H   0  0  0  0  0  0  0  0  0  0  0  0
    0.4713    0.5241   -1.2880 H   0  0  0  0  0  0  0  0  0  0  0  0
    1.9716    1.4681   -0.9499 H   0  0  0  0  0  0  0  0  0  0  0  0
    1.7247   -0.1380   -0.1710 H   0  0  0  0  0  0  0  0  0  0  0  0
    5.9855   -2.6526    2.7542 H   0  0  0  0  0  0  0  0  0  0  0  0
    0.7777    0.5451    4.3883 H   0  0  0  0  0  0  0  0  0  0  0  0
    5.0376    0.9295    7.1666 H   0  0  0  0  0  0  0  0  0  0  0  0
    2.6619    3.3233    8.0134 H   0  0  0  0  0  0  0  0  0  0  0  0
    2.8137    1.2992    9.9048 H   0  0  0  0  0  0  0  0  0  0  0  0
    1.0142    2.9851   10.8917 H   0  0  0  0  0  0  0  0  0  0  0  0
   -1.1887    2.7336    9.5173 H   0  0  0  0  0  0  0  0  0  0  0  0
   -0.7945    0.8935    7.6415 H   0  0  0  0  0  0  0  0  0  0  0  0
    1.5271   -0.3197    8.1943 H   0  0  0  0  0  0  0  0  0  0  0  0
    0.5556   -0.0951    9.7083 H   0  0  0  0  0  0  0  0  0  0  0  0
    0.6340    3.1143    6.7610 H   0  0  0  0  0  0  0  0  0  0  0  0
  1  2  3  0
  2  3  1  0
  3  4  2  3
  4  5  1  0
  5  6  3  0
  4  7  1  0
  7  8  3  0
  3  9  1  0
  9 10  2  0
 10 11  1  0
 11 12  2  0
 12 13  1  0
 13 14  2  0
 14 15  1  0
 15 16  1  0
 14 17  1  0
 17 18  2  0
 10 19  1  0
 19 20  1  0
 20 21  1  0
 21 22  1  0
 22 23  1  0
 23 24  1  0
 24 25  2  0
 25 26  1  0
 26 27  1  0
 24 28  1  0
 28 29  1  0
 29 30  1  0
 30 31  1  0
 31 32  1  0
 32 33  1  0
 33 34  2  0
 34 35  1  0
 35 36  2  0
 36 37  1  0
 37 38  1  0
 36 39  1  0
 39 40  2  0
 32 41  2  0
 41 42  1  0
 42 43  1  0
 43 44  1  0
 44 45  1  0
 45 46  1  0
 46 47  1  0
 47 48  1  0
 48 49  1  0
 49 50  1  0
 50 51  1  0
 48 52  1  0
 52 53  1  0
 45 54  1  0
 54 55  1  0
 41 56  1  0
 56 57  2  3
 57 58  1  0
 58 59  2  0
 58 60  1  0
 60 61  2  0
 61 62  1  0
 62 63  2  0
 63 64  1  0
 64 65  2  0
 65 66  1  0
 66 67  2  3
 67 68  1  0
 68 69  3  0
 67 70  1  0
 70 71  3  0
 63 72  1  0
 72 73  1  0
 73 74  1  0
 74 75  2  0
 75 76  1  0
 76 77  1  0
 76 78  1  0
 51  9  1  0
 66 57  1  0
 78 72  1  0
 18 11  1  0
 50 19  2  0
 65 60  1  0
 77 73  1  0
 49 21  2  0
 78 62  1  0
 47 22  2  0
 27 23  2  0
 46 28  2  0
 44 29  2  0
 43 31  2  0
 40 33  1  0
 12 79  1  0
 13 80  1  0
 15 81  1  0
 15 82  1  0
 16 83  1  0
 16 84  1  0
 16 85  1  0
 17 86  1  0
 18 87  1  0
 34 88  1  0
 35 89  1  0
 37 90  1  0
 37 91  1  0
 38 92  1  0
 38 93  1  0
 38 94  1  0
 39 95  1  0
 40 96  1  0
 52 97  1  0
 52 98  1  0
 53 99  1  0
 53100  1  0
 53101  1  0
 54102  1  0
 54103  1  0
 55104  1  0
 55105  1  0
 55106  1  0
 56107  1  0
 61108  1  0
 64109  1  0
 72110  1  0
 73111  1  0
 74112  1  0
 75113  1  0
 76114  1  0
 77115  1  0
 77116  1  0
 78117  1  0
M  END

