
     RDKit          3D

 81 89  0  0  0  0  0  0  0  0999 V2000
    8.9063    0.1552    0.6897 N   0  0  0  0  0  0  0  0  0  0  0  0
    8.3263    1.1329    0.9035 C   0  0  0  0  0  0  0  0  0  0  0  0
    7.5988    2.3543    1.1689 C   0  0  0  0  0  0  0  0  0  0  0  0
    8.2473    3.5246    1.3586 C   0  0  0  0  0  0  0  0  0  0  0  0
    7.5298    4.7568    1.5888 C   0  0  0  0  0  0  0  0  0  0  0  0
    6.9518    5.7433    1.7712 N   0  0  0  0  0  0  0  0  0  0  0  0
    9.6882    3.6068    1.2888 C   0  0  0  0  0  0  0  0  0  0  0  0
   10.8441    3.6669    1.2282 N   0  0  0  0  0  0  0  0  0  0  0  0
    6.1283    2.2585    1.2502 C   0  0  0  0  0  0  0  0  0  0  0  0
    5.2599    2.5148    2.7015 S   0  0  0  0  0  0  0  0  0  0  0  0
    3.8127    2.0748    1.9955 C   0  0  0  0  0  0  0  0  0  0  0  0
    2.4918    1.9976    2.3189 C   0  0  0  0  0  0  0  0  0  0  0  0
    1.7772    2.3393    3.4729 C   0  0  0  0  0  0  0  0  0  0  0  0
    0.3536    2.2245    3.4502 C   0  0  0  0  0  0  0  0  0  0  0  0
   -0.3074    2.5569    4.5858 N   0  0  0  0  0  0  0  0  0  0  0  0
    0.9765    2.9978    5.5360 S   0  0  0  0  0  0  0  0  0  0  0  0
    2.3418    2.7922    4.6196 N   0  0  0  0  0  0  0  0  0  0  0  0
   -0.2680    1.7546    2.2832 C   0  0  0  0  0  0  0  0  0  0  0  0
   -1.5440    1.3222    2.0540 C   0  0  0  0  0  0  0  0  0  0  0  0
   -2.9118    0.9677    2.9979 S   0  0  0  0  0  0  0  0  0  0  0  0
   -3.5245   -0.0618    1.7838 C   0  0  0  0  0  0  0  0  0  0  0  0
   -4.6385   -0.9008    1.6998 C   0  0  0  0  0  0  0  0  0  0  0  0
   -5.6769   -1.0227    2.7817 C   0  0  0  0  0  0  0  0  0  0  0  0
   -5.4465   -2.2739    3.6239 C   0  0  0  0  0  0  0  0  0  0  0  0
   -4.5971   -1.6720    0.5160 C   0  0  0  0  0  0  0  0  0  0  0  0
   -3.2153   -1.2478   -0.3990 S   0  0  0  0  0  0  0  0  0  0  0  0
   -2.6607   -0.1433    0.7246 C   0  0  0  0  0  0  0  0  0  0  0  0
   -1.5265    0.6371    0.8795 C   0  0  0  0  0  0  0  0  0  0  0  0
   -0.2871    0.5631    0.3283 N   0  0  0  0  0  0  0  0  0  0  0  0
    0.4677    1.3513    1.1583 C   0  0  0  0  0  0  0  0  0  0  0  0
    1.8625    1.5690    1.1467 C   0  0  0  0  0  0  0  0  0  0  0  0
    2.7392    1.5181    0.0960 N   0  0  0  0  0  0  0  0  0  0  0  0
    3.9436    1.7708    0.6853 C   0  0  0  0  0  0  0  0  0  0  0  0
    5.2619    1.8543    0.2045 C   0  0  0  0  0  0  0  0  0  0  0  0
    5.7321    1.4259   -1.1642 C   0  0  0  0  0  0  0  0  0  0  0  0
    5.6810   -0.0955   -1.3052 C   0  0  0  0  0  0  0  0  0  0  0  0
    2.3963    1.8428   -1.3002 C   0  0  0  0  0  0  0  0  0  0  0  0
    2.5906    3.3330   -1.5801 C   0  0  0  0  0  0  0  0  0  0  0  0
    0.1943   -0.6009   -0.4378 C   0  0  0  0  0  0  0  0  0  0  0  0
    0.3315   -1.8302    0.4604 C   0  0  0  0  0  0  0  0  0  0  0  0
   -5.6470   -2.6158    0.0776 C   0  0  0  0  0  0  0  0  0  0  0  0
   -5.4584   -3.6297   -0.7864 C   0  0  0  0  0  0  0  0  0  0  0  0
   -6.5261   -4.1259   -1.6517 C   0  0  0  0  0  0  0  0  0  0  0  0
   -7.7623   -3.9581   -1.4777 O   0  0  0  0  0  0  0  0  0  0  0  0
   -5.9143   -4.7526   -2.8080 C   0  0  0  0  0  0  0  0  0  0  0  0
   -6.5303   -5.2099   -3.9713 C   0  0  0  0  0  0  0  0  0  0  0  0
   -5.7255   -5.6766   -5.0228 C   0  0  0  0  0  0  0  0  0  0  0  0
   -6.5792   -6.2920   -6.6245 Br  0  0  0  0  0  0  0  0  0  0  0  0
   -4.3166   -5.6589   -4.8941 C   0  0  0  0  0  0  0  0  0  0  0  0
   -3.1751   -6.2384   -6.3197 Br  0  0  0  0  0  0  0  0  0  0  0  0
   -3.7207   -5.1859   -3.7110 C   0  0  0  0  0  0  0  0  0  0  0  0
   -4.5406   -4.7485   -2.6597 C   0  0  0  0  0  0  0  0  0  0  0  0
   -4.1863   -4.1891   -1.3277 C   0  0  0  0  0  0  0  0  0  0  0  0
   -3.0862   -4.5022   -0.6012 C   0  0  0  0  0  0  0  0  0  0  0  0
   -1.9441   -5.1664   -1.1712 C   0  0  0  0  0  0  0  0  0  0  0  0
   -1.0158   -5.6961   -1.6118 N   0  0  0  0  0  0  0  0  0  0  0  0
   -3.0443   -4.3072    0.8268 C   0  0  0  0  0  0  0  0  0  0  0  0
   -3.0044   -4.1547    1.9746 N   0  0  0  0  0  0  0  0  0  0  0  0
   -6.6901   -1.0625    2.3300 H   0  0  0  0  0  0  0  0  0  0  0  0
   -5.6452   -0.1291    3.4443 H   0  0  0  0  0  0  0  0  0  0  0  0
   -4.4246   -2.2621    4.0619 H   0  0  0  0  0  0  0  0  0  0  0  0
   -5.5663   -3.1862    3.0032 H   0  0  0  0  0  0  0  0  0  0  0  0
   -6.1891   -2.3098    4.4496 H   0  0  0  0  0  0  0  0  0  0  0  0
    5.1326    1.9028   -1.9626 H   0  0  0  0  0  0  0  0  0  0  0  0
    6.7754    1.7671   -1.3322 H   0  0  0  0  0  0  0  0  0  0  0  0
    4.6311   -0.4501   -1.3124 H   0  0  0  0  0  0  0  0  0  0  0  0
    6.2163   -0.5779   -0.4642 H   0  0  0  0  0  0  0  0  0  0  0  0
    6.1662   -0.3993   -2.2556 H   0  0  0  0  0  0  0  0  0  0  0  0
    2.9920    1.2257   -2.0010 H   0  0  0  0  0  0  0  0  0  0  0  0
    1.3288    1.6365   -1.5063 H   0  0  0  0  0  0  0  0  0  0  0  0
    2.3272    3.5464   -2.6380 H   0  0  0  0  0  0  0  0  0  0  0  0
    3.6418    3.6392   -1.4092 H   0  0  0  0  0  0  0  0  0  0  0  0
    1.9327    3.9326   -0.9159 H   0  0  0  0  0  0  0  0  0  0  0  0
   -0.5028   -0.8162   -1.2768 H   0  0  0  0  0  0  0  0  0  0  0  0
    1.1885   -0.4201   -0.8765 H   0  0  0  0  0  0  0  0  0  0  0  0
    1.0557   -1.6230    1.2789 H   0  0  0  0  0  0  0  0  0  0  0  0
   -0.6448   -2.1102    0.9061 H   0  0  0  0  0  0  0  0  0  0  0  0
    0.7011   -2.6926   -0.1379 H   0  0  0  0  0  0  0  0  0  0  0  0
   -6.6644   -2.3686    0.3563 H   0  0  0  0  0  0  0  0  0  0  0  0
   -7.6097   -5.1935   -4.0679 H   0  0  0  0  0  0  0  0  0  0  0  0
   -2.6453   -5.1264   -3.6484 H   0  0  0  0  0  0  0  0  0  0  0  0
  1  2  3  0
  2  3  1  0
  3  4  2  3
  4  5  1  0
  5  6  3  0
  4  7  1  0
  7  8  3  0
  3  9  1  0
  9 10  1  0
 10 11  1  0
 11 12  1  0
 12 13  1  0
 13 14  1  0
 14 15  2  0
 15 16  1  0
 16 17  1  0
 14 18  1  0
 18 19  1  0
 19 20  1  0
 20 21  1  0
 21 22  1  0
 22 23  1  0
 23 24  1  0
 22 25  2  0
 25 26  1  0
 26 27  1  0
 27 28  1  0
 28 29  1  0
 29 30  1  0
 30 31  1  0
 31 32  1  0
 32 33  1  0
 33 34  1  0
 34 35  1  0
 35 36  1  0
 32 37  1  0
 37 38  1  0
 29 39  1  0
 39 40  1  0
 25 41  1  0
 41 42  2  3
 42 43  1  0
 43 44  2  0
 43 45  1  0
 45 46  2  0
 46 47  1  0
 47 48  1  0
 47 49  2  0
 49 50  1  0
 49 51  1  0
 51 52  2  0
 52 53  1  0
 53 54  2  3
 54 55  1  0
 55 56  3  0
 54 57  1  0
 57 58  3  0
 34  9  2  0
 53 42  1  0
 33 11  2  0
 52 45  1  0
 31 12  2  0
 17 13  2  0
 30 18  2  0
 28 19  2  0
 27 21  2  0
 23 59  1  0
 23 60  1  0
 24 61  1  0
 24 62  1  0
 24 63  1  0
 35 64  1  0
 35 65  1  0
 36 66  1  0
 36 67  1  0
 36 68  1  0
 37 69  1  0
 37 70  1  0
 38 71  1  0
 38 72  1  0
 38 73  1  0
 39 74  1  0
 39 75  1  0
 40 76  1  0
 40 77  1  0
 40 78  1  0
 41 79  1  0
 46 80  1  0
 51 81  1  0
M  END

