
     RDKit          3D

104115  0  0  0  0  0  0  0  0999 V2000
   -5.6169    8.1983    1.9169 N   0  0  0  0  0  0  0  0  0  0  0  0
   -5.8224    7.1486    2.3582 C   0  0  0  0  0  0  0  0  0  0  0  0
   -6.0820    5.8388    2.9158 C   0  0  0  0  0  0  0  0  0  0  0  0
   -7.3277    5.5044    3.3246 C   0  0  0  0  0  0  0  0  0  0  0  0
   -8.4386    6.4148    3.1881 C   0  0  0  0  0  0  0  0  0  0  0  0
   -9.3286    7.1463    3.0790 N   0  0  0  0  0  0  0  0  0  0  0  0
   -7.6043    4.2445    3.9722 C   0  0  0  0  0  0  0  0  0  0  0  0
   -7.8200    3.2336    4.4934 N   0  0  0  0  0  0  0  0  0  0  0  0
   -4.9390    4.9003    3.0265 C   0  0  0  0  0  0  0  0  0  0  0  0
   -3.6872    5.1796    3.6187 C   0  0  0  0  0  0  0  0  0  0  0  0
   -3.3018    6.4840    4.1960 C   0  0  0  0  0  0  0  0  0  0  0  0
   -3.9881    6.9347    5.3340 C   0  0  0  0  0  0  0  0  0  0  0  0
   -3.6957    8.1792    5.8944 C   0  0  0  0  0  0  0  0  0  0  0  0
   -2.7124    8.9847    5.3258 C   0  0  0  0  0  0  0  0  0  0  0  0
   -2.0247    8.5564    4.1895 C   0  0  0  0  0  0  0  0  0  0  0  0
   -2.3061    7.3062    3.6074 C   0  0  0  0  0  0  0  0  0  0  0  0
   -1.5729    6.9230    2.3367 C   0  0  0  0  0  0  0  0  0  0  0  0
   -2.4336    7.1563    1.0995 C   0  0  0  0  0  0  0  0  0  0  0  0
   -2.8631    4.0514    3.5986 C   0  0  0  0  0  0  0  0  0  0  0  0
   -1.2864    3.7332    4.1734 S   0  0  0  0  0  0  0  0  0  0  0  0
   -1.3470    2.1597    3.5498 C   0  0  0  0  0  0  0  0  0  0  0  0
   -0.4615    1.1760    3.2381 C   0  0  0  0  0  0  0  0  0  0  0  0
    0.9252    1.1406    3.4062 C   0  0  0  0  0  0  0  0  0  0  0  0
    1.6659    0.1248    2.7464 C   0  0  0  0  0  0  0  0  0  0  0  0
    3.0132    0.1458    2.9001 N   0  0  0  0  0  0  0  0  0  0  0  0
    3.1673    1.4823    3.8665 S   0  0  0  0  0  0  0  0  0  0  0  0
    1.6334    2.0562    4.1142 N   0  0  0  0  0  0  0  0  0  0  0  0
    0.9751   -0.8219    1.9898 C   0  0  0  0  0  0  0  0  0  0  0  0
    1.4297   -1.8781    1.2600 C   0  0  0  0  0  0  0  0  0  0  0  0
    2.9016   -2.5244    0.7155 S   0  0  0  0  0  0  0  0  0  0  0  0
    2.0564   -3.6639   -0.2350 C   0  0  0  0  0  0  0  0  0  0  0  0
    2.4588   -4.5633   -1.2165 C   0  0  0  0  0  0  0  0  0  0  0  0
    3.8587   -4.7728   -1.6218 C   0  0  0  0  0  0  0  0  0  0  0  0
    4.6959   -5.7027   -0.9564 C   0  0  0  0  0  0  0  0  0  0  0  0
    4.2065   -6.5407    0.2019 C   0  0  0  0  0  0  0  0  0  0  0  0
    3.6581   -7.8817   -0.2877 C   0  0  0  0  0  0  0  0  0  0  0  0
    6.0123   -5.8883   -1.4179 C   0  0  0  0  0  0  0  0  0  0  0  0
    6.4988   -5.1514   -2.5002 C   0  0  0  0  0  0  0  0  0  0  0  0
    5.6764   -4.2236   -3.1414 C   0  0  0  0  0  0  0  0  0  0  0  0
    4.3620   -4.0368   -2.7059 C   0  0  0  0  0  0  0  0  0  0  0  0
    1.3513   -5.1123   -1.8808 C   0  0  0  0  0  0  0  0  0  0  0  0
   -0.0989   -4.4889   -1.2370 S   0  0  0  0  0  0  0  0  0  0  0  0
    0.6951   -3.5354   -0.1051 C   0  0  0  0  0  0  0  0  0  0  0  0
    0.3480   -2.5066    0.7561 C   0  0  0  0  0  0  0  0  0  0  0  0
   -0.8225   -1.9295    1.1196 N   0  0  0  0  0  0  0  0  0  0  0  0
   -0.4280   -0.8236    1.8465 C   0  0  0  0  0  0  0  0  0  0  0  0
   -1.1649    0.2631    2.4220 C   0  0  0  0  0  0  0  0  0  0  0  0
   -2.4375    0.7424    2.1732 N   0  0  0  0  0  0  0  0  0  0  0  0
   -2.5041    1.8841    2.9084 C   0  0  0  0  0  0  0  0  0  0  0  0
   -3.3857    2.9631    2.9430 C   0  0  0  0  0  0  0  0  0  0  0  0
   -4.9367    3.3086    2.4065 S   0  0  0  0  0  0  0  0  0  0  0  0
   -3.3856    0.4046    1.1031 C   0  0  0  0  0  0  0  0  0  0  0  0
   -2.7602    0.5895   -0.2785 C   0  0  0  0  0  0  0  0  0  0  0  0
   -2.1048   -2.6426    1.0872 C   0  0  0  0  0  0  0  0  0  0  0  0
   -2.6920   -2.8085    2.4913 C   0  0  0  0  0  0  0  0  0  0  0  0
    1.4322   -5.9883   -3.0564 C   0  0  0  0  0  0  0  0  0  0  0  0
    1.4524   -5.5125   -4.3150 C   0  0  0  0  0  0  0  0  0  0  0  0
    1.4007   -4.0931   -4.6868 C   0  0  0  0  0  0  0  0  0  0  0  0
    1.0141   -3.1396   -3.9582 O   0  0  0  0  0  0  0  0  0  0  0  0
    1.9277   -3.9535   -6.0261 C   0  0  0  0  0  0  0  0  0  0  0  0
    2.2042   -2.7769   -6.7211 C   0  0  0  0  0  0  0  0  0  0  0  0
    2.8403   -2.8733   -7.9661 C   0  0  0  0  0  0  0  0  0  0  0  0
    3.2262   -4.1302   -8.4705 C   0  0  0  0  0  0  0  0  0  0  0  0
    3.8827   -4.2090   -9.6546 F   0  0  0  0  0  0  0  0  0  0  0  0
    2.9486   -5.3014   -7.7462 C   0  0  0  0  0  0  0  0  0  0  0  0
    2.2560   -5.2015   -6.5278 C   0  0  0  0  0  0  0  0  0  0  0  0
    1.8656   -6.2541   -5.5455 C   0  0  0  0  0  0  0  0  0  0  0  0
    1.7112   -7.5784   -5.7901 C   0  0  0  0  0  0  0  0  0  0  0  0
    2.0046   -8.1654   -7.0721 C   0  0  0  0  0  0  0  0  0  0  0  0
    2.2303   -8.6510   -8.0987 N   0  0  0  0  0  0  0  0  0  0  0  0
    1.1220   -8.4770   -4.8280 C   0  0  0  0  0  0  0  0  0  0  0  0
    0.6462   -9.2019   -4.0588 N   0  0  0  0  0  0  0  0  0  0  0  0
   -4.7610    6.3197    5.7803 H   0  0  0  0  0  0  0  0  0  0  0  0
   -4.2348    8.5139    6.7749 H   0  0  0  0  0  0  0  0  0  0  0  0
   -2.4873    9.9462    5.7633 H   0  0  0  0  0  0  0  0  0  0  0  0
   -1.2750    9.2068    3.7596 H   0  0  0  0  0  0  0  0  0  0  0  0
   -0.6415    7.5252    2.2328 H   0  0  0  0  0  0  0  0  0  0  0  0
   -1.2513    5.8646    2.3653 H   0  0  0  0  0  0  0  0  0  0  0  0
   -3.3124    6.4793    1.1061 H   0  0  0  0  0  0  0  0  0  0  0  0
   -2.7744    8.2118    1.0595 H   0  0  0  0  0  0  0  0  0  0  0  0
   -1.8334    6.9395    0.1909 H   0  0  0  0  0  0  0  0  0  0  0  0
    3.4156   -6.0037    0.7696 H   0  0  0  0  0  0  0  0  0  0  0  0
    5.0454   -6.7272    0.9137 H   0  0  0  0  0  0  0  0  0  0  0  0
    3.3352   -8.4920    0.5834 H   0  0  0  0  0  0  0  0  0  0  0  0
    2.7820   -7.7222   -0.9515 H   0  0  0  0  0  0  0  0  0  0  0  0
    4.4416   -8.4454   -0.8414 H   0  0  0  0  0  0  0  0  0  0  0  0
    6.6644   -6.6067   -0.9331 H   0  0  0  0  0  0  0  0  0  0  0  0
    7.5161   -5.3007   -2.8456 H   0  0  0  0  0  0  0  0  0  0  0  0
    6.0552   -3.6573   -3.9864 H   0  0  0  0  0  0  0  0  0  0  0  0
    3.7372   -3.3151   -3.2163 H   0  0  0  0  0  0  0  0  0  0  0  0
   -4.2656    1.0655    1.1457 H   0  0  0  0  0  0  0  0  0  0  0  0
   -3.8214   -0.5935    1.2570 H   0  0  0  0  0  0  0  0  0  0  0  0
   -1.8690   -0.0539   -0.4097 H   0  0  0  0  0  0  0  0  0  0  0  0
   -3.5034    0.3210   -1.0615 H   0  0  0  0  0  0  0  0  0  0  0  0
   -2.4612    1.6504   -0.4162 H   0  0  0  0  0  0  0  0  0  0  0  0
   -1.9586   -3.6693    0.6967 H   0  0  0  0  0  0  0  0  0  0  0  0
   -2.7962   -2.1785    0.3670 H   0  0  0  0  0  0  0  0  0  0  0  0
   -1.9840   -3.3828    3.1238 H   0  0  0  0  0  0  0  0  0  0  0  0
   -3.6464   -3.3724    2.4280 H   0  0  0  0  0  0  0  0  0  0  0  0
   -2.8929   -1.8344    2.9760 H   0  0  0  0  0  0  0  0  0  0  0  0
    1.6746   -7.0176   -2.8598 H   0  0  0  0  0  0  0  0  0  0  0  0
    1.9473   -1.8084   -6.3045 H   0  0  0  0  0  0  0  0  0  0  0  0
    3.0731   -1.9777   -8.5229 H   0  0  0  0  0  0  0  0  0  0  0  0
    3.3083   -6.2411   -8.1230 H   0  0  0  0  0  0  0  0  0  0  0  0
  1  2  3  0
  2  3  1  0
  3  4  2  3
  4  5  1  0
  5  6  3  0
  4  7  1  0
  7  8  3  0
  3  9  1  0
  9 10  2  0
 10 11  1  0
 11 12  2  0
 12 13  1  0
 13 14  2  0
 14 15  1  0
 15 16  2  0
 16 17  1  0
 17 18  1  0
 10 19  1  0
 19 20  1  0
 20 21  1  0
 21 22  1  0
 22 23  1  0
 23 24  1  0
 24 25  2  0
 25 26  1  0
 26 27  1  0
 24 28  1  0
 28 29  1  0
 29 30  1  0
 30 31  1  0
 31 32  1  0
 32 33  1  0
 33 34  2  0
 34 35  1  0
 35 36  1  0
 34 37  1  0
 37 38  2  0
 38 39  1  0
 39 40  2  0
 32 41  2  0
 41 42  1  0
 42 43  1  0
 43 44  1  0
 44 45  1  0
 45 46  1  0
 46 47  1  0
 47 48  1  0
 48 49  1  0
 49 50  1  0
 50 51  1  0
 48 52  1  0
 52 53  1  0
 45 54  1  0
 54 55  1  0
 41 56  1  0
 56 57  2  3
 57 58  1  0
 58 59  2  0
 58 60  1  0
 60 61  2  0
 61 62  1  0
 62 63  2  0
 63 64  1  0
 63 65  1  0
 65 66  2  0
 66 67  1  0
 67 68  2  3
 68 69  1  0
 69 70  3  0
 68 71  1  0
 71 72  3  0
 51  9  1  0
 67 57  1  0
 16 11  1  0
 50 19  2  0
 66 60  1  0
 49 21  2  0
 47 22  2  0
 27 23  2  0
 46 28  2  0
 44 29  2  0
 43 31  2  0
 40 33  1  0
 12 73  1  0
 13 74  1  0
 14 75  1  0
 15 76  1  0
 17 77  1  0
 17 78  1  0
 18 79  1  0
 18 80  1  0
 18 81  1  0
 35 82  1  0
 35 83  1  0
 36 84  1  0
 36 85  1  0
 36 86  1  0
 37 87  1  0
 38 88  1  0
 39 89  1  0
 40 90  1  0
 52 91  1  0
 52 92  1  0
 53 93  1  0
 53 94  1  0
 53 95  1  0
 54 96  1  0
 54 97  1  0
 55 98  1  0
 55 99  1  0
 55100  1  0
 56101  1  0
 61102  1  0
 62103  1  0
 65104  1  0
M  END

