
     RDKit          3D

 84 93  0  0  0  0  0  0  0  0999 V2000
    4.3636   -3.3433    9.0609 N   0  0  0  0  0  0  0  0  0  0  0  0
    4.5599   -2.3769    8.4575 C   0  0  0  0  0  0  0  0  0  0  0  0
    4.7988   -1.1678    7.7075 C   0  0  0  0  0  0  0  0  0  0  0  0
    5.9947   -0.5394    7.7531 C   0  0  0  0  0  0  0  0  0  0  0  0
    7.0782   -1.0275    8.5733 C   0  0  0  0  0  0  0  0  0  0  0  0
    7.9536   -1.4171    9.2246 N   0  0  0  0  0  0  0  0  0  0  0  0
    6.2571    0.6386    6.9607 C   0  0  0  0  0  0  0  0  0  0  0  0
    6.4619    1.5848    6.3257 N   0  0  0  0  0  0  0  0  0  0  0  0
    3.7055   -0.6901    6.8374 C   0  0  0  0  0  0  0  0  0  0  0  0
    2.9582    0.4926    7.0031 C   0  0  0  0  0  0  0  0  0  0  0  0
    3.0624    1.4358    8.1692 C   0  0  0  0  0  0  0  0  0  0  0  0
    2.0425    1.0781    9.2436 C   0  0  0  0  0  0  0  0  0  0  0  0
    2.0380    0.6416    5.9635 C   0  0  0  0  0  0  0  0  0  0  0  0
    0.9096    1.8572    5.5631 S   0  0  0  0  0  0  0  0  0  0  0  0
    0.4982    1.0290    4.1388 C   0  0  0  0  0  0  0  0  0  0  0  0
   -0.3247    1.1601    3.0619 C   0  0  0  0  0  0  0  0  0  0  0  0
   -1.2994    2.1167    2.7687 C   0  0  0  0  0  0  0  0  0  0  0  0
   -2.0459    1.9785    1.5683 C   0  0  0  0  0  0  0  0  0  0  0  0
   -2.9732    2.9327    1.3060 N   0  0  0  0  0  0  0  0  0  0  0  0
   -2.7839    3.8828    2.6481 S   0  0  0  0  0  0  0  0  0  0  0  0
   -1.5899    3.1819    3.5572 N   0  0  0  0  0  0  0  0  0  0  0  0
   -1.7491    0.9132    0.7114 C   0  0  0  0  0  0  0  0  0  0  0  0
   -2.1358    0.6982   -0.5765 C   0  0  0  0  0  0  0  0  0  0  0  0
   -3.0317    1.5177   -1.7637 S   0  0  0  0  0  0  0  0  0  0  0  0
   -2.3764    0.5193   -2.9788 C   0  0  0  0  0  0  0  0  0  0  0  0
   -2.5104    0.4925   -4.3686 C   0  0  0  0  0  0  0  0  0  0  0  0
   -3.4403    1.3778   -5.1493 C   0  0  0  0  0  0  0  0  0  0  0  0
   -4.8064    0.7187   -5.3050 C   0  0  0  0  0  0  0  0  0  0  0  0
   -1.6815   -0.4935   -4.9285 C   0  0  0  0  0  0  0  0  0  0  0  0
   -0.7877   -1.2745   -3.7075 S   0  0  0  0  0  0  0  0  0  0  0  0
   -1.4725   -0.3773   -2.4634 C   0  0  0  0  0  0  0  0  0  0  0  0
   -1.3385   -0.2720   -1.0817 C   0  0  0  0  0  0  0  0  0  0  0  0
   -0.4351   -0.7344   -0.1790 N   0  0  0  0  0  0  0  0  0  0  0  0
   -0.7274   -0.0249    0.9713 C   0  0  0  0  0  0  0  0  0  0  0  0
   -0.0546    0.0528    2.2314 C   0  0  0  0  0  0  0  0  0  0  0  0
    0.8339   -0.7988    2.8548 N   0  0  0  0  0  0  0  0  0  0  0  0
    1.1745   -0.1277    3.9823 C   0  0  0  0  0  0  0  0  0  0  0  0
    2.0522   -0.3627    5.0293 C   0  0  0  0  0  0  0  0  0  0  0  0
    3.2142   -1.5032    5.4215 S   0  0  0  0  0  0  0  0  0  0  0  0
    1.0793   -2.2352    2.6622 C   0  0  0  0  0  0  0  0  0  0  0  0
   -0.2265   -3.0165    2.5120 C   0  0  0  0  0  0  0  0  0  0  0  0
    0.7783   -1.4783   -0.5431 C   0  0  0  0  0  0  0  0  0  0  0  0
    2.0281   -0.6111   -0.4139 C   0  0  0  0  0  0  0  0  0  0  0  0
   -1.5684   -0.8163   -6.3567 C   0  0  0  0  0  0  0  0  0  0  0  0
   -0.7249   -0.1682   -7.1812 C   0  0  0  0  0  0  0  0  0  0  0  0
    0.0714    1.0126   -6.8215 C   0  0  0  0  0  0  0  0  0  0  0  0
    0.2469    1.4752   -5.6620 O   0  0  0  0  0  0  0  0  0  0  0  0
    0.6016    1.5938   -8.0343 C   0  0  0  0  0  0  0  0  0  0  0  0
    1.3273    2.7806   -8.1732 C   0  0  0  0  0  0  0  0  0  0  0  0
    1.6765    3.2024   -9.4628 C   0  0  0  0  0  0  0  0  0  0  0  0
    2.3823    4.3498   -9.6325 F   0  0  0  0  0  0  0  0  0  0  0  0
    1.2747    2.4507  -10.5828 C   0  0  0  0  0  0  0  0  0  0  0  0
    0.5352    1.2661  -10.4207 C   0  0  0  0  0  0  0  0  0  0  0  0
    0.2212    0.8261   -9.1227 C   0  0  0  0  0  0  0  0  0  0  0  0
   -0.5452   -0.3685   -8.6553 C   0  0  0  0  0  0  0  0  0  0  0  0
   -0.8294   -1.4865   -9.3779 C   0  0  0  0  0  0  0  0  0  0  0  0
   -0.4789   -1.6248  -10.7670 C   0  0  0  0  0  0  0  0  0  0  0  0
   -0.2028   -1.7569  -11.8842 N   0  0  0  0  0  0  0  0  0  0  0  0
   -1.3994   -2.6710   -8.7923 C   0  0  0  0  0  0  0  0  0  0  0  0
   -1.8576   -3.6329   -8.3394 N   0  0  0  0  0  0  0  0  0  0  0  0
    4.0796    1.4056    8.6106 H   0  0  0  0  0  0  0  0  0  0  0  0
    2.8813    2.4744    7.8214 H   0  0  0  0  0  0  0  0  0  0  0  0
    1.0128    1.1712    8.8435 H   0  0  0  0  0  0  0  0  0  0  0  0
    2.2047    0.0387    9.5966 H   0  0  0  0  0  0  0  0  0  0  0  0
    2.1502    1.7686   10.1061 H   0  0  0  0  0  0  0  0  0  0  0  0
   -3.0159    1.5845   -6.1554 H   0  0  0  0  0  0  0  0  0  0  0  0
   -3.5641    2.3569   -4.6303 H   0  0  0  0  0  0  0  0  0  0  0  0
   -5.2621    0.5291   -4.3083 H   0  0  0  0  0  0  0  0  0  0  0  0
   -5.4745    1.3919   -5.8809 H   0  0  0  0  0  0  0  0  0  0  0  0
   -4.7120   -0.2454   -5.8543 H   0  0  0  0  0  0  0  0  0  0  0  0
    1.5780   -2.6580    3.5560 H   0  0  0  0  0  0  0  0  0  0  0  0
    1.8071   -2.4122    1.8512 H   0  0  0  0  0  0  0  0  0  0  0  0
   -0.8621   -2.8622    3.4089 H   0  0  0  0  0  0  0  0  0  0  0  0
   -0.7991   -2.7001    1.6217 H   0  0  0  0  0  0  0  0  0  0  0  0
    0.0023   -4.0996    2.4177 H   0  0  0  0  0  0  0  0  0  0  0  0
    0.7268   -1.8262   -1.5916 H   0  0  0  0  0  0  0  0  0  0  0  0
    0.8471   -2.4208    0.0157 H   0  0  0  0  0  0  0  0  0  0  0  0
    2.9178   -1.1870   -0.7514 H   0  0  0  0  0  0  0  0  0  0  0  0
    1.9206    0.2959   -1.0498 H   0  0  0  0  0  0  0  0  0  0  0  0
    2.1940   -0.2923    0.6340 H   0  0  0  0  0  0  0  0  0  0  0  0
   -2.2379   -1.5789   -6.7175 H   0  0  0  0  0  0  0  0  0  0  0  0
    1.6053    3.3706   -7.3089 H   0  0  0  0  0  0  0  0  0  0  0  0
    1.5212    2.7998  -11.5798 H   0  0  0  0  0  0  0  0  0  0  0  0
    0.1968    0.7504  -11.2997 H   0  0  0  0  0  0  0  0  0  0  0  0
  1  2  3  0
  2  3  1  0
  3  4  2  3
  4  5  1  0
  5  6  3  0
  4  7  1  0
  7  8  3  0
  3  9  1  0
  9 10  2  0
 10 11  1  0
 11 12  1  0
 10 13  1  0
 13 14  1  0
 14 15  1  0
 15 16  1  0
 16 17  1  0
 17 18  1  0
 18 19  2  0
 19 20  1  0
 20 21  1  0
 18 22  1  0
 22 23  1  0
 23 24  1  0
 24 25  1  0
 25 26  1  0
 26 27  1  0
 27 28  1  0
 26 29  2  0
 29 30  1  0
 30 31  1  0
 31 32  1  0
 32 33  1  0
 33 34  1  0
 34 35  1  0
 35 36  1  0
 36 37  1  0
 37 38  1  0
 38 39  1  0
 36 40  1  0
 40 41  1  0
 33 42  1  0
 42 43  1  0
 29 44  1  0
 44 45  2  3
 45 46  1  0
 46 47  2  0
 46 48  1  0
 48 49  2  0
 49 50  1  0
 50 51  1  0
 50 52  2  0
 52 53  1  0
 53 54  2  0
 54 55  1  0
 55 56  2  3
 56 57  1  0
 57 58  3  0
 56 59  1  0
 59 60  3  0
 39  9  1  0
 55 45  1  0
 38 13  2  0
 54 48  1  0
 37 15  2  0
 35 16  2  0
 21 17  2  0
 34 22  2  0
 32 23  2  0
 31 25  2  0
 11 61  1  0
 11 62  1  0
 12 63  1  0
 12 64  1  0
 12 65  1  0
 27 66  1  0
 27 67  1  0
 28 68  1  0
 28 69  1  0
 28 70  1  0
 40 71  1  0
 40 72  1  0
 41 73  1  0
 41 74  1  0
 41 75  1  0
 42 76  1  0
 42 77  1  0
 43 78  1  0
 43 79  1  0
 43 80  1  0
 44 81  1  0
 49 82  1  0
 52 83  1  0
 53 84  1  0
M  END

