
     RDKit          3D

130146  0  0  0  0  0  0  0  0999 V2000
    7.7484   -2.7203   -0.2897 C   0  0  0  0  0  0  0  0  0  0  0  0
    8.8071   -2.1208    0.2863 C   0  0  0  0  0  0  0  0  0  0  0  0
    8.7502   -1.0031    1.2323 C   0  0  0  0  0  0  0  0  0  0  0  0
    7.8089   -0.1746    1.3506 O   0  0  0  0  0  0  0  0  0  0  0  0
    9.9944   -0.9713    1.9697 C   0  0  0  0  0  0  0  0  0  0  0  0
   10.3296   -0.1794    3.0665 C   0  0  0  0  0  0  0  0  0  0  0  0
   11.5611   -0.4017    3.6984 C   0  0  0  0  0  0  0  0  0  0  0  0
   12.0587    0.6524    5.2111 Br  0  0  0  0  0  0  0  0  0  0  0  0
   12.4174   -1.4193    3.2408 C   0  0  0  0  0  0  0  0  0  0  0  0
   12.0606   -2.2053    2.1321 C   0  0  0  0  0  0  0  0  0  0  0  0
   10.8464   -1.9447    1.4771 C   0  0  0  0  0  0  0  0  0  0  0  0
   10.2148   -2.6186    0.3088 C   0  0  0  0  0  0  0  0  0  0  0  0
   10.8509   -3.3285   -0.6587 C   0  0  0  0  0  0  0  0  0  0  0  0
   12.2656   -3.5881   -0.6153 C   0  0  0  0  0  0  0  0  0  0  0  0
   13.4041   -3.7935   -0.5926 N   0  0  0  0  0  0  0  0  0  0  0  0
   10.1977   -3.7224   -1.8816 C   0  0  0  0  0  0  0  0  0  0  0  0
    9.6814   -4.0387   -2.8684 N   0  0  0  0  0  0  0  0  0  0  0  0
    6.3453   -2.3779   -0.0026 C   0  0  0  0  0  0  0  0  0  0  0  0
    5.7125   -2.4082    1.2621 C   0  0  0  0  0  0  0  0  0  0  0  0
    6.3704   -2.7332    2.5522 C   0  0  0  0  0  0  0  0  0  0  0  0
    7.1065   -3.9275    2.6383 C   0  0  0  0  0  0  0  0  0  0  0  0
    7.6800   -4.3266    3.8429 C   0  0  0  0  0  0  0  0  0  0  0  0
    7.5087   -3.5523    4.9874 C   0  0  0  0  0  0  0  0  0  0  0  0
    6.7848   -2.3629    4.9261 C   0  0  0  0  0  0  0  0  0  0  0  0
    6.2325   -1.9135    3.7105 C   0  0  0  0  0  0  0  0  0  0  0  0
    5.4646   -0.6002    3.6940 C   0  0  0  0  0  0  0  0  0  0  0  0
    6.2510    0.5611    4.3056 C   0  0  0  0  0  0  0  0  0  0  0  0
    4.3269   -2.2834    1.1196 C   0  0  0  0  0  0  0  0  0  0  0  0
    3.0332   -2.5006    2.2070 S   0  0  0  0  0  0  0  0  0  0  0  0
    1.9138   -2.2964    0.9522 C   0  0  0  0  0  0  0  0  0  0  0  0
    0.6014   -2.5893    0.7304 C   0  0  0  0  0  0  0  0  0  0  0  0
   -0.3783   -3.1160    1.5746 C   0  0  0  0  0  0  0  0  0  0  0  0
   -1.6290   -3.5006    1.0107 C   0  0  0  0  0  0  0  0  0  0  0  0
   -2.5635   -3.9864    1.8666 N   0  0  0  0  0  0  0  0  0  0  0  0
   -1.7094   -3.9172    3.2861 S   0  0  0  0  0  0  0  0  0  0  0  0
   -0.2197   -3.2968    2.9098 N   0  0  0  0  0  0  0  0  0  0  0  0
   -1.8363   -3.3250   -0.3658 C   0  0  0  0  0  0  0  0  0  0  0  0
   -3.0082   -3.2906   -1.0678 C   0  0  0  0  0  0  0  0  0  0  0  0
   -4.6174   -3.1261   -0.5566 S   0  0  0  0  0  0  0  0  0  0  0  0
   -5.0140   -2.2060   -1.9223 C   0  0  0  0  0  0  0  0  0  0  0  0
   -6.0879   -1.3487   -2.1585 C   0  0  0  0  0  0  0  0  0  0  0  0
   -7.2635   -1.2401   -1.2760 C   0  0  0  0  0  0  0  0  0  0  0  0
   -8.5202   -1.7754   -1.6497 C   0  0  0  0  0  0  0  0  0  0  0  0
   -8.7081   -2.5428   -2.9382 C   0  0  0  0  0  0  0  0  0  0  0  0
   -8.4146   -4.0265   -2.7328 C   0  0  0  0  0  0  0  0  0  0  0  0
   -9.6060   -1.6531   -0.7652 C   0  0  0  0  0  0  0  0  0  0  0  0
   -9.4562   -0.9921    0.4557 C   0  0  0  0  0  0  0  0  0  0  0  0
   -8.2194   -0.4542    0.8146 C   0  0  0  0  0  0  0  0  0  0  0  0
   -7.1267   -0.5786   -0.0455 C   0  0  0  0  0  0  0  0  0  0  0  0
   -5.7863   -0.4300   -3.1714 C   0  0  0  0  0  0  0  0  0  0  0  0
   -4.2208   -0.7270   -3.7684 S   0  0  0  0  0  0  0  0  0  0  0  0
   -3.9129   -2.0045   -2.7225 C   0  0  0  0  0  0  0  0  0  0  0  0
   -2.7544   -2.6144   -2.2302 C   0  0  0  0  0  0  0  0  0  0  0  0
   -1.4439   -2.2561   -2.3410 N   0  0  0  0  0  0  0  0  0  0  0  0
   -0.8643   -2.7517   -1.1996 C   0  0  0  0  0  0  0  0  0  0  0  0
    0.4179   -2.4716   -0.6547 C   0  0  0  0  0  0  0  0  0  0  0  0
    1.6162   -2.2451   -1.2888 N   0  0  0  0  0  0  0  0  0  0  0  0
    2.4953   -2.1149   -0.2606 C   0  0  0  0  0  0  0  0  0  0  0  0
    3.8807   -2.1360   -0.1695 C   0  0  0  0  0  0  0  0  0  0  0  0
    5.1735   -2.2206   -1.2295 S   0  0  0  0  0  0  0  0  0  0  0  0
    1.9784   -2.6568   -2.6490 C   0  0  0  0  0  0  0  0  0  0  0  0
    2.5702   -1.4964   -3.4568 C   0  0  0  0  0  0  0  0  0  0  0  0
   -0.9582   -1.1326   -3.1529 C   0  0  0  0  0  0  0  0  0  0  0  0
   -0.9195   -1.4936   -4.6369 C   0  0  0  0  0  0  0  0  0  0  0  0
   -6.5438    0.8057   -3.4217 C   0  0  0  0  0  0  0  0  0  0  0  0
   -6.0885    2.0274   -3.0645 C   0  0  0  0  0  0  0  0  0  0  0  0
   -4.8925    2.2678   -2.2392 C   0  0  0  0  0  0  0  0  0  0  0  0
   -4.1473    1.3957   -1.7216 O   0  0  0  0  0  0  0  0  0  0  0  0
   -4.7664    3.6780   -1.9864 C   0  0  0  0  0  0  0  0  0  0  0  0
   -3.7134    4.3123   -1.2880 C   0  0  0  0  0  0  0  0  0  0  0  0
   -3.8328    5.6840   -1.2236 C   0  0  0  0  0  0  0  0  0  0  0  0
   -4.9271    6.4007   -1.8013 C   0  0  0  0  0  0  0  0  0  0  0  0
   -5.9595    5.7841   -2.4908 C   0  0  0  0  0  0  0  0  0  0  0  0
   -5.8625    4.3623   -2.5695 C   0  0  0  0  0  0  0  0  0  0  0  0
   -6.7435    3.3683   -3.2663 C   0  0  0  0  0  0  0  0  0  0  0  0
   -7.8819    3.6419   -3.9644 C   0  0  0  0  0  0  0  0  0  0  0  0
   -8.5468    2.6749   -4.7963 C   0  0  0  0  0  0  0  0  0  0  0  0
   -9.0885    1.9146   -5.4825 N   0  0  0  0  0  0  0  0  0  0  0  0
   -8.5184    4.9340   -3.9458 C   0  0  0  0  0  0  0  0  0  0  0  0
   -9.0500    5.9626   -3.9401 N   0  0  0  0  0  0  0  0  0  0  0  0
   -4.3547    7.7005   -1.3131 C   0  0  0  0  0  0  0  0  0  0  0  0
   -5.0255    8.3783   -0.0780 C   0  0  0  0  0  0  0  0  0  0  0  0
   -5.6198    7.3273    0.8310 C   0  0  0  0  0  0  0  0  0  0  0  0
   -4.5945    6.6589    1.3621 C   0  0  0  0  0  0  0  0  0  0  0  0
   -3.3377    7.2767    0.7953 C   0  0  0  0  0  0  0  0  0  0  0  0
   -3.7898    8.7233    0.7322 C   0  0  0  0  0  0  0  0  0  0  0  0
   -3.2297    6.9642   -0.7280 C   0  0  0  0  0  0  0  0  0  0  0  0
    7.8852   -3.5781   -0.9246 H   0  0  0  0  0  0  0  0  0  0  0  0
    9.6522    0.5803    3.4305 H   0  0  0  0  0  0  0  0  0  0  0  0
   13.3511   -1.6106    3.7514 H   0  0  0  0  0  0  0  0  0  0  0  0
   12.7095   -3.0131    1.8374 H   0  0  0  0  0  0  0  0  0  0  0  0
    7.2128   -4.5710    1.7729 H   0  0  0  0  0  0  0  0  0  0  0  0
    8.2374   -5.2522    3.8954 H   0  0  0  0  0  0  0  0  0  0  0  0
    7.9302   -3.8798    5.9284 H   0  0  0  0  0  0  0  0  0  0  0  0
    6.6488   -1.7950    5.8374 H   0  0  0  0  0  0  0  0  0  0  0  0
    5.2009   -0.2953    2.6628 H   0  0  0  0  0  0  0  0  0  0  0  0
    4.5165   -0.7298    4.2588 H   0  0  0  0  0  0  0  0  0  0  0  0
    6.3637    0.4349    5.4025 H   0  0  0  0  0  0  0  0  0  0  0  0
    5.7023    1.5107    4.1269 H   0  0  0  0  0  0  0  0  0  0  0  0
    7.2538    0.6404    3.8391 H   0  0  0  0  0  0  0  0  0  0  0  0
   -8.0513   -2.1406   -3.7399 H   0  0  0  0  0  0  0  0  0  0  0  0
   -9.7540   -2.4278   -3.2996 H   0  0  0  0  0  0  0  0  0  0  0  0
   -7.3895   -4.1701   -2.3304 H   0  0  0  0  0  0  0  0  0  0  0  0
   -9.1508   -4.4657   -2.0262 H   0  0  0  0  0  0  0  0  0  0  0  0
   -8.4943   -4.5571   -3.7048 H   0  0  0  0  0  0  0  0  0  0  0  0
  -10.5708   -2.0702   -1.0228 H   0  0  0  0  0  0  0  0  0  0  0  0
  -10.3001   -0.9015    1.1281 H   0  0  0  0  0  0  0  0  0  0  0  0
   -8.1050    0.0546    1.7619 H   0  0  0  0  0  0  0  0  0  0  0  0
   -6.1718   -0.1538    0.2433 H   0  0  0  0  0  0  0  0  0  0  0  0
    1.0946   -3.0725   -3.1674 H   0  0  0  0  0  0  0  0  0  0  0  0
    2.7130   -3.4907   -2.6014 H   0  0  0  0  0  0  0  0  0  0  0  0
    3.6749   -1.5729   -3.4986 H   0  0  0  0  0  0  0  0  0  0  0  0
    2.3072   -0.5120   -3.0182 H   0  0  0  0  0  0  0  0  0  0  0  0
    2.1944   -1.5325   -4.5006 H   0  0  0  0  0  0  0  0  0  0  0  0
    0.0389   -0.8069   -2.8221 H   0  0  0  0  0  0  0  0  0  0  0  0
   -1.6077   -0.2475   -2.9963 H   0  0  0  0  0  0  0  0  0  0  0  0
   -1.9249   -1.7849   -5.0028 H   0  0  0  0  0  0  0  0  0  0  0  0
   -0.5692   -0.6171   -5.2218 H   0  0  0  0  0  0  0  0  0  0  0  0
   -0.2312   -2.3412   -4.8227 H   0  0  0  0  0  0  0  0  0  0  0  0
   -7.5312    0.6661   -3.8185 H   0  0  0  0  0  0  0  0  0  0  0  0
   -2.8829    3.7789   -0.8471 H   0  0  0  0  0  0  0  0  0  0  0  0
   -6.7352    6.3782   -2.9339 H   0  0  0  0  0  0  0  0  0  0  0  0
   -4.0563    8.3993   -2.1275 H   0  0  0  0  0  0  0  0  0  0  0  0
   -5.6967    9.2302   -0.3133 H   0  0  0  0  0  0  0  0  0  0  0  0
   -6.6671    7.1818    1.0724 H   0  0  0  0  0  0  0  0  0  0  0  0
   -4.6645    5.8733    2.1078 H   0  0  0  0  0  0  0  0  0  0  0  0
   -2.4159    7.0887    1.3846 H   0  0  0  0  0  0  0  0  0  0  0  0
   -3.0730    9.3894    0.1955 H   0  0  0  0  0  0  0  0  0  0  0  0
   -4.0207    9.1590    1.7341 H   0  0  0  0  0  0  0  0  0  0  0  0
   -2.2467    7.2075   -1.1891 H   0  0  0  0  0  0  0  0  0  0  0  0
  1  2  2  3
  2  3  1  0
  3  4  2  0
  3  5  1  0
  5  6  2  0
  6  7  1  0
  7  8  1  0
  7  9  2  0
  9 10  1  0
 10 11  2  0
 11 12  1  0
 12 13  2  3
 13 14  1  0
 14 15  3  0
 13 16  1  0
 16 17  3  0
  1 18  1  0
 18 19  2  0
 19 20  1  0
 20 21  2  0
 21 22  1  0
 22 23  2  0
 23 24  1  0
 24 25  2  0
 25 26  1  0
 26 27  1  0
 19 28  1  0
 28 29  1  0
 29 30  1  0
 30 31  1  0
 31 32  1  0
 32 33  1  0
 33 34  2  0
 34 35  1  0
 35 36  1  0
 33 37  1  0
 37 38  1  0
 38 39  1  0
 39 40  1  0
 40 41  1  0
 41 42  1  0
 42 43  2  0
 43 44  1  0
 44 45  1  0
 43 46  1  0
 46 47  2  0
 47 48  1  0
 48 49  2  0
 41 50  2  0
 50 51  1  0
 51 52  1  0
 52 53  1  0
 53 54  1  0
 54 55  1  0
 55 56  1  0
 56 57  1  0
 57 58  1  0
 58 59  1  0
 59 60  1  0
 57 61  1  0
 61 62  1  0
 54 63  1  0
 63 64  1  0
 50 65  1  0
 65 66  2  3
 66 67  1  0
 67 68  2  0
 67 69  1  0
 69 70  2  0
 70 71  1  0
 71 72  2  0
 72 73  1  0
 73 74  2  0
 74 75  1  0
 75 76  2  3
 76 77  1  0
 77 78  3  0
 76 79  1  0
 79 80  3  0
 72 81  1  0
 81 82  1  0
 82 83  1  0
 83 84  2  0
 84 85  1  0
 85 86  1  0
 85 87  1  0
 12  2  1  0
 60 18  1  0
 75 66  1  0
 87 81  1  0
 11  5  1  0
 25 20  1  0
 59 28  2  0
 74 69  1  0
 86 82  1  0
 58 30  2  0
 87 71  1  0
 56 31  2  0
 36 32  2  0
 55 37  2  0
 53 38  2  0
 52 40  2  0
 49 42  1  0
  1 88  1  0
  6 89  1  0
  9 90  1  0
 10 91  1  0
 21 92  1  0
 22 93  1  0
 23 94  1  0
 24 95  1  0
 26 96  1  0
 26 97  1  0
 27 98  1  0
 27 99  1  0
 27100  1  0
 44101  1  0
 44102  1  0
 45103  1  0
 45104  1  0
 45105  1  0
 46106  1  0
 47107  1  0
 48108  1  0
 49109  1  0
 61110  1  0
 61111  1  0
 62112  1  0
 62113  1  0
 62114  1  0
 63115  1  0
 63116  1  0
 64117  1  0
 64118  1  0
 64119  1  0
 65120  1  0
 70121  1  0
 73122  1  0
 81123  1  0
 82124  1  0
 83125  1  0
 84126  1  0
 85127  1  0
 86128  1  0
 86129  1  0
 87130  1  0
M  END

