
     RDKit          3D

 85 96  0  0  0  0  0  0  0  0999 V2000
   -7.2277    2.2204   -4.7600 C   0  0  0  0  0  0  0  0  0  0  0  0
   -7.2918    0.8844   -4.2964 C   0  0  0  0  0  0  0  0  0  0  0  0
   -6.1402    0.1256   -3.9165 C   0  0  0  0  0  0  0  0  0  0  0  0
   -4.9550    0.1678   -4.4095 O   0  0  0  0  0  0  0  0  0  0  0  0
   -6.4819   -0.7865   -2.8261 C   0  0  0  0  0  0  0  0  0  0  0  0
   -5.6833   -1.6705   -2.1166 C   0  0  0  0  0  0  0  0  0  0  0  0
   -6.1880   -2.4080   -1.1035 C   0  0  0  0  0  0  0  0  0  0  0  0
   -5.0756   -3.5943   -0.1334 Br  0  0  0  0  0  0  0  0  0  0  0  0
   -7.5402   -2.2778   -0.7710 C   0  0  0  0  0  0  0  0  0  0  0  0
   -8.2980   -1.3686   -1.5226 C   0  0  0  0  0  0  0  0  0  0  0  0
   -7.8382   -0.5946   -2.5477 C   0  0  0  0  0  0  0  0  0  0  0  0
   -8.3907    0.4506   -3.4658 C   0  0  0  0  0  0  0  0  0  0  0  0
   -9.6984    0.6354   -3.7194 C   0  0  0  0  0  0  0  0  0  0  0  0
  -10.2591    1.1281   -4.6503 C   0  0  0  0  0  0  0  0  0  0  0  0
  -10.9089    1.7099   -5.7685 N   0  0  0  0  0  0  0  0  0  0  0  0
  -10.4935    0.3245   -2.4257 C   0  0  0  0  0  0  0  0  0  0  0  0
  -11.1112    0.0903   -1.4003 N   0  0  0  0  0  0  0  0  0  0  0  0
   -5.8636    2.7363   -4.7456 C   0  0  0  0  0  0  0  0  0  0  0  0
   -4.8559    3.3543   -5.1804 C   0  0  0  0  0  0  0  0  0  0  0  0
   -3.6221    3.4878   -4.5961 C   0  0  0  0  0  0  0  0  0  0  0  0
   -2.0406    4.1877   -4.9883 S   0  0  0  0  0  0  0  0  0  0  0  0
   -1.1543    3.6808   -3.6270 C   0  0  0  0  0  0  0  0  0  0  0  0
    0.0816    3.5241   -3.0355 C   0  0  0  0  0  0  0  0  0  0  0  0
    1.3555    3.9944   -3.3443 C   0  0  0  0  0  0  0  0  0  0  0  0
    2.4253    3.6712   -2.5790 C   0  0  0  0  0  0  0  0  0  0  0  0
    3.6115    4.1865   -2.9268 N   0  0  0  0  0  0  0  0  0  0  0  0
    3.2615    5.1034   -4.2867 S   0  0  0  0  0  0  0  0  0  0  0  0
    1.6268    4.8189   -4.3841 N   0  0  0  0  0  0  0  0  0  0  0  0
    2.1853    2.8196   -1.4850 C   0  0  0  0  0  0  0  0  0  0  0  0
    3.1257    2.1523   -0.7227 C   0  0  0  0  0  0  0  0  0  0  0  0
    2.4651    1.2299    0.0826 C   0  0  0  0  0  0  0  0  0  0  0  0
    1.1153    1.3530   -0.1984 N   0  0  0  0  0  0  0  0  0  0  0  0
    0.2001    0.4062    0.4163 C   0  0  0  0  0  0  0  0  0  0  0  0
    0.1643   -0.8707   -0.4279 C   0  0  0  0  0  0  0  0  0  0  0  0
    0.9560    2.3064   -1.1326 C   0  0  0  0  0  0  0  0  0  0  0  0
   -0.1321    2.6996   -1.9227 C   0  0  0  0  0  0  0  0  0  0  0  0
   -1.4249    2.4085   -1.8338 N   0  0  0  0  0  0  0  0  0  0  0  0
   -2.0671    3.0151   -2.9058 C   0  0  0  0  0  0  0  0  0  0  0  0
   -3.3266    2.9497   -3.4490 C   0  0  0  0  0  0  0  0  0  0  0  0
   -4.9588    2.1037   -2.9761 Se  0  0  0  0  0  2  0  0  0  0  0  0
   -2.1779    1.7604   -0.7767 C   0  0  0  0  0  0  0  0  0  0  0  0
   -2.6621    0.4004   -1.0668 C   0  0  0  0  0  0  0  0  0  0  0  0
    3.2984    0.5488    0.7782 C   0  0  0  0  0  0  0  0  0  0  0  0
    4.5491    0.5836    0.8550 C   0  0  0  0  0  0  0  0  0  0  0  0
    4.7836    1.9152   -0.3596 S   0  0  0  0  0  0  0  0  0  0  0  0
    5.4166   -0.2102    1.5065 C   0  0  0  0  0  0  0  0  0  0  0  0
    5.0377   -1.2810    2.2579 C   0  0  0  0  0  0  0  0  0  0  0  0
    3.1531   -1.1917    2.0467 Se  0  0  0  0  0  2  0  0  0  0  0  0
    5.6334   -2.3009    3.0503 C   0  0  0  0  0  0  0  0  0  0  0  0
    6.2455   -2.1420    4.1865 C   0  0  0  0  0  0  0  0  0  0  0  0
    6.3998   -0.8499    4.8150 C   0  0  0  0  0  0  0  0  0  0  0  0
    5.9392    0.2461    4.4062 O   0  0  0  0  0  0  0  0  0  0  0  0
    7.2143   -1.0700    6.0200 C   0  0  0  0  0  0  0  0  0  0  0  0
    7.6002   -0.1543    7.0019 C   0  0  0  0  0  0  0  0  0  0  0  0
    8.2974   -0.5875    8.0659 C   0  0  0  0  0  0  0  0  0  0  0  0
    8.7818    0.5383    9.3277 Cl  0  0  0  0  0  0  0  0  0  0  0  0
    8.6255   -1.9170    8.1808 C   0  0  0  0  0  0  0  0  0  0  0  0
    9.3159   -2.3745    9.2739 F   0  0  0  0  0  0  0  0  0  0  0  0
    8.2459   -2.8421    7.2051 C   0  0  0  0  0  0  0  0  0  0  0  0
    7.5325   -2.4174    6.1167 C   0  0  0  0  0  0  0  0  0  0  0  0
    6.9327   -3.1620    4.9702 C   0  0  0  0  0  0  0  0  0  0  0  0
    6.9170   -4.4456    4.8574 C   0  0  0  0  0  0  0  0  0  0  0  0
    7.6868   -5.3709    5.6987 C   0  0  0  0  0  0  0  0  0  0  0  0
    8.3073   -6.1021    6.3565 N   0  0  0  0  0  0  0  0  0  0  0  0
    5.9849   -5.2134    4.0113 C   0  0  0  0  0  0  0  0  0  0  0  0
    5.2561   -5.8404    3.3353 N   0  0  0  0  0  0  0  0  0  0  0  0
   -8.1040    2.6953   -5.0571 H   0  0  0  0  0  0  0  0  0  0  0  0
   -4.6201   -1.8032   -2.3505 H   0  0  0  0  0  0  0  0  0  0  0  0
   -7.9204   -2.8690    0.0207 H   0  0  0  0  0  0  0  0  0  0  0  0
   -9.3163   -1.3684   -1.2241 H   0  0  0  0  0  0  0  0  0  0  0  0
   -5.0381    3.8671   -6.2271 H   0  0  0  0  0  0  0  0  0  0  0  0
    0.7562   -0.0176    1.3544 H   0  0  0  0  0  0  0  0  0  0  0  0
   -0.6667    0.7059    0.9316 H   0  0  0  0  0  0  0  0  0  0  0  0
   -0.0404   -0.6915   -1.4581 H   0  0  0  0  0  0  0  0  0  0  0  0
    1.1929   -1.3667   -0.3008 H   0  0  0  0  0  0  0  0  0  0  0  0
   -0.5504   -1.5872    0.0030 H   0  0  0  0  0  0  0  0  0  0  0  0
   -1.8472    2.0685    0.2001 H   0  0  0  0  0  0  0  0  0  0  0  0
   -3.2034    2.3779   -0.7273 H   0  0  0  0  0  0  0  0  0  0  0  0
   -3.7944    0.3053   -1.1535 H   0  0  0  0  0  0  0  0  0  0  0  0
   -2.4841   -0.2889   -0.1949 H   0  0  0  0  0  0  0  0  0  0  0  0
   -2.2620   -0.0588   -2.0039 H   0  0  0  0  0  0  0  0  0  0  0  0
    6.5519   -0.0498    1.4990 H   0  0  0  0  0  0  0  0  0  0  0  0
    5.5654   -3.3019    2.6286 H   0  0  0  0  0  0  0  0  0  0  0  0
    7.3200    0.8869    6.8432 H   0  0  0  0  0  0  0  0  0  0  0  0
    8.5483   -3.8580    7.3945 H   0  0  0  0  0  0  0  0  0  0  0  0
  1  2  2  3
  2  3  1  0
  3  4  2  0
  3  5  1  0
  5  6  2  0
  6  7  1  0
  7  8  1  0
  7  9  2  0
  9 10  1  0
 10 11  2  0
 11 12  1  0
 12 13  2  3
 13 14  1  0
 14 15  3  0
 13 16  1  0
 16 17  3  0
  1 18  1  0
 18 19  2  0
 19 20  1  0
 20 21  1  0
 21 22  1  0
 22 23  1  0
 23 24  1  0
 24 25  1  0
 25 26  2  0
 26 27  1  0
 27 28  1  0
 25 29  1  0
 29 30  1  0
 30 31  2  0
 31 32  1  0
 32 33  1  0
 33 34  1  0
 32 35  1  0
 35 36  1  0
 36 37  1  0
 37 38  1  0
 38 39  1  0
 39 40  1  0
 37 41  1  0
 41 42  1  0
 31 43  1  0
 43 44  2  0
 44 45  1  0
 44 46  1  0
 46 47  2  0
 47 48  1  0
 47 49  1  0
 49 50  2  3
 50 51  1  0
 51 52  2  0
 51 53  1  0
 53 54  2  0
 54 55  1  0
 55 56  1  0
 55 57  2  0
 57 58  1  0
 57 59  1  0
 59 60  2  0
 60 61  1  0
 61 62  2  3
 62 63  1  0
 63 64  3  0
 62 65  1  0
 65 66  3  0
 12  2  1  0
 40 18  1  0
 48 43  1  0
 61 50  1  0
 11  5  1  0
 39 20  2  0
 60 53  1  0
 38 22  2  0
 36 23  2  0
 28 24  2  0
 35 29  2  0
 45 30  1  0
  1 67  1  0
  6 68  1  0
  9 69  1  0
 10 70  1  0
 19 71  1  0
 33 72  1  0
 33 73  1  0
 34 74  1  0
 34 75  1  0
 34 76  1  0
 41 77  1  0
 41 78  1  0
 42 79  1  0
 42 80  1  0
 42 81  1  0
 46 82  1  0
 49 83  1  0
 54 84  1  0
 59 85  1  0
M  END

