
     RDKit          3D

 84 92  0  0  0  0  0  0  0  0999 V2000
   -1.5950    5.5715   -2.3834 C   0  0  0  0  0  0  0  0  0  0  0  0
   -0.8701    5.7528   -3.5025 C   0  0  0  0  0  0  0  0  0  0  0  0
   -0.0559    6.9491   -3.7191 C   0  0  0  0  0  0  0  0  0  0  0  0
   -0.1501    8.0363   -3.0872 O   0  0  0  0  0  0  0  0  0  0  0  0
    0.9533    6.6323   -4.7080 C   0  0  0  0  0  0  0  0  0  0  0  0
    2.0481    7.4013   -5.1079 C   0  0  0  0  0  0  0  0  0  0  0  0
    2.9717    6.8349   -6.0019 C   0  0  0  0  0  0  0  0  0  0  0  0
    4.4875    7.8461   -6.5759 Br  0  0  0  0  0  0  0  0  0  0  0  0
    2.8002    5.5141   -6.4545 C   0  0  0  0  0  0  0  0  0  0  0  0
    1.6978    4.7526   -6.0276 C   0  0  0  0  0  0  0  0  0  0  0  0
    0.7574    5.3407   -5.1678 C   0  0  0  0  0  0  0  0  0  0  0  0
   -0.4743    4.7735   -4.5600 C   0  0  0  0  0  0  0  0  0  0  0  0
   -1.2752    3.8343   -5.1257 C   0  0  0  0  0  0  0  0  0  0  0  0
   -0.8844    3.0964   -6.3000 C   0  0  0  0  0  0  0  0  0  0  0  0
   -0.5834    2.5049   -7.2495 N   0  0  0  0  0  0  0  0  0  0  0  0
   -2.6412    3.6422   -4.7091 C   0  0  0  0  0  0  0  0  0  0  0  0
   -3.7395    3.4794   -4.3863 N   0  0  0  0  0  0  0  0  0  0  0  0
   -2.0311    4.2700   -1.8354 C   0  0  0  0  0  0  0  0  0  0  0  0
   -3.2621    4.2068   -1.1393 C   0  0  0  0  0  0  0  0  0  0  0  0
   -3.6801    3.0184   -0.5166 C   0  0  0  0  0  0  0  0  0  0  0  0
   -2.8421    1.9032   -0.5872 C   0  0  0  0  0  0  0  0  0  0  0  0
   -3.0163    0.6960    0.0102 N   0  0  0  0  0  0  0  0  0  0  0  0
   -4.1416    0.2732    0.8495 C   0  0  0  0  0  0  0  0  0  0  0  0
   -3.8955    0.6571    2.3037 C   0  0  0  0  0  0  0  0  0  0  0  0
   -1.8862   -0.0023   -0.2638 C   0  0  0  0  0  0  0  0  0  0  0  0
   -1.0257    0.7406   -1.0725 C   0  0  0  0  0  0  0  0  0  0  0  0
   -1.6373    1.9626   -1.2601 C   0  0  0  0  0  0  0  0  0  0  0  0
   -1.1938    3.1291   -1.8834 C   0  0  0  0  0  0  0  0  0  0  0  0
    0.2165    0.2541   -1.5046 C   0  0  0  0  0  0  0  0  0  0  0  0
    0.5693   -1.0279   -1.0424 C   0  0  0  0  0  0  0  0  0  0  0  0
   -0.2733   -1.7477   -0.1947 C   0  0  0  0  0  0  0  0  0  0  0  0
   -1.5259   -1.2724    0.2153 C   0  0  0  0  0  0  0  0  0  0  0  0
    0.3924   -2.9122    0.1116 C   0  0  0  0  0  0  0  0  0  0  0  0
    0.0590   -3.9603    0.9660 C   0  0  0  0  0  0  0  0  0  0  0  0
    0.9990   -4.9986    1.1354 C   0  0  0  0  0  0  0  0  0  0  0  0
    2.2010   -4.9956    0.3889 C   0  0  0  0  0  0  0  0  0  0  0  0
    2.5083   -3.9245   -0.4723 C   0  0  0  0  0  0  0  0  0  0  0  0
    1.5906   -2.8723   -0.5736 C   0  0  0  0  0  0  0  0  0  0  0  0
    1.7154   -1.7165   -1.2795 N   0  0  0  0  0  0  0  0  0  0  0  0
    2.8025   -1.3499   -2.1901 C   0  0  0  0  0  0  0  0  0  0  0  0
    2.5420   -1.9323   -3.5719 C   0  0  0  0  0  0  0  0  0  0  0  0
    0.7343   -6.0866    2.0900 C   0  0  0  0  0  0  0  0  0  0  0  0
    0.6380   -5.8902    3.4199 C   0  0  0  0  0  0  0  0  0  0  0  0
    0.7289   -4.5897    4.1015 C   0  0  0  0  0  0  0  0  0  0  0  0
    1.1997   -3.5205    3.6298 O   0  0  0  0  0  0  0  0  0  0  0  0
    0.2123   -4.7439    5.4421 C   0  0  0  0  0  0  0  0  0  0  0  0
   -0.0046   -3.7500    6.3973 C   0  0  0  0  0  0  0  0  0  0  0  0
   -0.6021   -4.1083    7.6158 C   0  0  0  0  0  0  0  0  0  0  0  0
   -0.8875   -2.8757    8.8375 Cl  0  0  0  0  0  0  0  0  0  0  0  0
   -0.9888   -5.4439    7.8449 C   0  0  0  0  0  0  0  0  0  0  0  0
   -1.6016   -5.7828    9.0076 F   0  0  0  0  0  0  0  0  0  0  0  0
   -0.7668   -6.4285    6.8651 C   0  0  0  0  0  0  0  0  0  0  0  0
   -0.1313   -6.0679    5.6615 C   0  0  0  0  0  0  0  0  0  0  0  0
    0.2227   -6.8825    4.4619 C   0  0  0  0  0  0  0  0  0  0  0  0
    0.3505   -8.2356    4.4069 C   0  0  0  0  0  0  0  0  0  0  0  0
    0.0274   -9.0885    5.5218 C   0  0  0  0  0  0  0  0  0  0  0  0
   -0.2280   -9.7831    6.4132 N   0  0  0  0  0  0  0  0  0  0  0  0
    0.9443   -8.9139    3.2835 C   0  0  0  0  0  0  0  0  0  0  0  0
    1.4219   -9.4738    2.3900 N   0  0  0  0  0  0  0  0  0  0  0  0
   -1.7850    6.4348   -1.7553 H   0  0  0  0  0  0  0  0  0  0  0  0
    2.1916    8.4051   -4.7289 H   0  0  0  0  0  0  0  0  0  0  0  0
    3.5271    5.0710   -7.1249 H   0  0  0  0  0  0  0  0  0  0  0  0
    1.6207    3.7241   -6.3399 H   0  0  0  0  0  0  0  0  0  0  0  0
   -3.8949    5.0830   -1.0727 H   0  0  0  0  0  0  0  0  0  0  0  0
   -4.6160    2.9872    0.0236 H   0  0  0  0  0  0  0  0  0  0  0  0
   -4.2846   -0.8253    0.7715 H   0  0  0  0  0  0  0  0  0  0  0  0
   -5.0803    0.7453    0.4929 H   0  0  0  0  0  0  0  0  0  0  0  0
   -3.8256    1.7605    2.4038 H   0  0  0  0  0  0  0  0  0  0  0  0
   -2.9522    0.1975    2.6673 H   0  0  0  0  0  0  0  0  0  0  0  0
   -4.7380    0.2964    2.9310 H   0  0  0  0  0  0  0  0  0  0  0  0
   -0.2152    3.1620   -2.3454 H   0  0  0  0  0  0  0  0  0  0  0  0
    0.8630    0.8481   -2.1362 H   0  0  0  0  0  0  0  0  0  0  0  0
   -2.1629   -1.8477    0.8738 H   0  0  0  0  0  0  0  0  0  0  0  0
   -0.8745   -3.9498    1.5167 H   0  0  0  0  0  0  0  0  0  0  0  0
    2.9136   -5.8032    0.5032 H   0  0  0  0  0  0  0  0  0  0  0  0
    3.4414   -3.9153   -1.0201 H   0  0  0  0  0  0  0  0  0  0  0  0
    2.8972   -0.2470   -2.2631 H   0  0  0  0  0  0  0  0  0  0  0  0
    3.7713   -1.7317   -1.8040 H   0  0  0  0  0  0  0  0  0  0  0  0
    3.3587   -1.6437   -4.2670 H   0  0  0  0  0  0  0  0  0  0  0  0
    2.4934   -3.0389   -3.5192 H   0  0  0  0  0  0  0  0  0  0  0  0
    1.5842   -1.5423   -3.9716 H   0  0  0  0  0  0  0  0  0  0  0  0
    0.5674   -7.0557    1.6567 H   0  0  0  0  0  0  0  0  0  0  0  0
    0.2601   -2.7174    6.1954 H   0  0  0  0  0  0  0  0  0  0  0  0
   -1.1262   -7.4253    7.0542 H   0  0  0  0  0  0  0  0  0  0  0  0
  1  2  2  3
  2  3  1  0
  3  4  2  0
  3  5  1  0
  5  6  2  0
  6  7  1  0
  7  8  1  0
  7  9  2  0
  9 10  1  0
 10 11  2  0
 11 12  1  0
 12 13  2  3
 13 14  1  0
 14 15  3  0
 13 16  1  0
 16 17  3  0
  1 18  1  0
 18 19  2  0
 19 20  1  0
 20 21  2  0
 21 22  1  0
 22 23  1  0
 23 24  1  0
 22 25  1  0
 25 26  2  0
 26 27  1  0
 27 28  2  0
 26 29  1  0
 29 30  2  0
 30 31  1  0
 31 32  2  0
 31 33  1  0
 33 34  2  0
 34 35  1  0
 35 36  2  0
 36 37  1  0
 37 38  2  0
 38 39  1  0
 39 40  1  0
 40 41  1  0
 35 42  1  0
 42 43  2  3
 43 44  1  0
 44 45  2  0
 44 46  1  0
 46 47  2  0
 47 48  1  0
 48 49  1  0
 48 50  2  0
 50 51  1  0
 50 52  1  0
 52 53  2  0
 53 54  1  0
 54 55  2  3
 55 56  1  0
 56 57  3  0
 55 58  1  0
 58 59  3  0
 12  2  1  0
 28 18  1  0
 39 30  1  0
 54 43  1  0
 11  5  1  0
 27 21  1  0
 38 33  1  0
 53 46  1  0
 32 25  1  0
  1 60  1  0
  6 61  1  0
  9 62  1  0
 10 63  1  0
 19 64  1  0
 20 65  1  0
 23 66  1  0
 23 67  1  0
 24 68  1  0
 24 69  1  0
 24 70  1  0
 28 71  1  0
 29 72  1  0
 32 73  1  0
 34 74  1  0
 36 75  1  0
 37 76  1  0
 40 77  1  0
 40 78  1  0
 41 79  1  0
 41 80  1  0
 41 81  1  0
 42 82  1  0
 47 83  1  0
 52 84  1  0
M  END

