
     RDKit          3D

 97108  0  0  0  0  0  0  0  0999 V2000
    6.8453    2.3146   -2.0997 C   0  0  0  0  0  0  0  0  0  0  0  0
    6.8482    3.5435   -1.5598 C   0  0  0  0  0  0  0  0  0  0  0  0
    6.2499    3.9101   -0.2719 C   0  0  0  0  0  0  0  0  0  0  0  0
    5.4633    3.2074    0.4242 O   0  0  0  0  0  0  0  0  0  0  0  0
    6.7977    5.1822    0.1431 C   0  0  0  0  0  0  0  0  0  0  0  0
    6.5671    5.8630    1.3440 C   0  0  0  0  0  0  0  0  0  0  0  0
    7.2696    7.0594    1.5730 C   0  0  0  0  0  0  0  0  0  0  0  0
    6.9939    8.0250    3.1990 Br  0  0  0  0  0  0  0  0  0  0  0  0
    8.1811    7.5349    0.6150 C   0  0  0  0  0  0  0  0  0  0  0  0
    8.3989    6.8237   -0.5742 C   0  0  0  0  0  0  0  0  0  0  0  0
    7.6859    5.6378   -0.8113 C   0  0  0  0  0  0  0  0  0  0  0  0
    7.7079    4.6962   -1.9667 C   0  0  0  0  0  0  0  0  0  0  0  0
    8.1828    4.9434   -3.2143 C   0  0  0  0  0  0  0  0  0  0  0  0
    7.8631    4.0972   -4.3311 C   0  0  0  0  0  0  0  0  0  0  0  0
    7.5948    3.4238   -5.2324 N   0  0  0  0  0  0  0  0  0  0  0  0
    8.9064    6.1376   -3.5572 C   0  0  0  0  0  0  0  0  0  0  0  0
    9.4960    7.0974   -3.8337 N   0  0  0  0  0  0  0  0  0  0  0  0
    5.8760    1.2738   -1.7234 C   0  0  0  0  0  0  0  0  0  0  0  0
    6.1735   -0.0724   -1.4335 C   0  0  0  0  0  0  0  0  0  0  0  0
    7.5565   -0.6455   -1.3324 C   0  0  0  0  0  0  0  0  0  0  0  0
    7.9592   -1.2911   -2.6501 C   0  0  0  0  0  0  0  0  0  0  0  0
    5.0090   -0.8019   -1.2069 C   0  0  0  0  0  0  0  0  0  0  0  0
    4.7053   -2.4015   -0.7098 S   0  0  0  0  0  0  0  0  0  0  0  0
    3.0278   -2.1122   -0.7102 C   0  0  0  0  0  0  0  0  0  0  0  0
    1.9169   -2.6483   -0.1162 C   0  0  0  0  0  0  0  0  0  0  0  0
    1.7311   -3.8108    0.6316 C   0  0  0  0  0  0  0  0  0  0  0  0
    0.4981   -3.9844    1.3387 C   0  0  0  0  0  0  0  0  0  0  0  0
    0.3667   -5.1192    2.0765 N   0  0  0  0  0  0  0  0  0  0  0  0
    1.8407   -5.8165    1.7652 S   0  0  0  0  0  0  0  0  0  0  0  0
    2.6695   -4.7746    0.7848 N   0  0  0  0  0  0  0  0  0  0  0  0
   -0.4907   -3.0029    1.2153 C   0  0  0  0  0  0  0  0  0  0  0  0
   -1.7939   -2.9473    1.6270 C   0  0  0  0  0  0  0  0  0  0  0  0
   -2.9114   -3.8565    2.5308 S   0  0  0  0  0  0  0  0  0  0  0  0
   -4.1714   -2.7994    2.0685 C   0  0  0  0  0  0  0  0  0  0  0  0
   -5.5260   -2.7279    2.3805 C   0  0  0  0  0  0  0  0  0  0  0  0
   -6.2342   -3.6576    3.3221 C   0  0  0  0  0  0  0  0  0  0  0  0
   -6.2032   -3.1111    4.7407 C   0  0  0  0  0  0  0  0  0  0  0  0
   -6.1244   -1.6446    1.7132 C   0  0  0  0  0  0  0  0  0  0  0  0
   -4.9730   -0.7933    0.7864 S   0  0  0  0  0  0  0  0  0  0  0  0
   -3.7260   -1.8174    1.2230 C   0  0  0  0  0  0  0  0  0  0  0  0
   -2.3654   -1.8948    0.9916 C   0  0  0  0  0  0  0  0  0  0  0  0
   -1.5141   -1.2378    0.1734 N   0  0  0  0  0  0  0  0  0  0  0  0
   -0.3275   -1.8909    0.3768 C   0  0  0  0  0  0  0  0  0  0  0  0
    0.9353   -1.6538   -0.2035 C   0  0  0  0  0  0  0  0  0  0  0  0
    1.4586   -0.4782   -0.6735 N   0  0  0  0  0  0  0  0  0  0  0  0
    2.7169   -0.8303   -1.0346 C   0  0  0  0  0  0  0  0  0  0  0  0
    3.8467   -0.0869   -1.3316 C   0  0  0  0  0  0  0  0  0  0  0  0
    4.1854    1.5090   -1.7361 S   0  0  0  0  0  0  0  0  0  0  0  0
    1.0739    0.8760   -0.2473 C   0  0  0  0  0  0  0  0  0  0  0  0
    1.8393    1.2897    1.0150 C   0  0  0  0  0  0  0  0  0  0  0  0
   -1.9188   -0.5389   -1.0553 C   0  0  0  0  0  0  0  0  0  0  0  0
   -2.6993   -1.4608   -1.9965 C   0  0  0  0  0  0  0  0  0  0  0  0
   -7.5112   -1.1923    1.8609 C   0  0  0  0  0  0  0  0  0  0  0  0
   -8.3739   -1.1769    0.8308 C   0  0  0  0  0  0  0  0  0  0  0  0
   -8.2161   -1.9599   -0.4026 C   0  0  0  0  0  0  0  0  0  0  0  0
   -7.2201   -2.6593   -0.7278 O   0  0  0  0  0  0  0  0  0  0  0  0
   -9.4561   -1.9093   -1.1363 C   0  0  0  0  0  0  0  0  0  0  0  0
   -9.7801   -2.5879   -2.3089 C   0  0  0  0  0  0  0  0  0  0  0  0
  -11.0647   -2.4277   -2.8385 C   0  0  0  0  0  0  0  0  0  0  0  0
  -11.4154   -3.0758   -3.9735 F   0  0  0  0  0  0  0  0  0  0  0  0
  -12.0020   -1.6083   -2.1838 C   0  0  0  0  0  0  0  0  0  0  0  0
  -13.2485   -1.4576   -2.6973 F   0  0  0  0  0  0  0  0  0  0  0  0
  -11.6652   -0.9569   -0.9873 C   0  0  0  0  0  0  0  0  0  0  0  0
  -10.3700   -1.1125   -0.4629 C   0  0  0  0  0  0  0  0  0  0  0  0
   -9.7441   -0.5667    0.7847 C   0  0  0  0  0  0  0  0  0  0  0  0
  -10.2214    0.4362    1.5722 C   0  0  0  0  0  0  0  0  0  0  0  0
   -9.4225    1.0718    2.5929 C   0  0  0  0  0  0  0  0  0  0  0  0
   -8.7918    1.5904    3.4147 N   0  0  0  0  0  0  0  0  0  0  0  0
  -11.5176    1.0301    1.3708 C   0  0  0  0  0  0  0  0  0  0  0  0
  -12.5454    1.5294    1.2206 N   0  0  0  0  0  0  0  0  0  0  0  0
    7.5893    2.0479   -2.8369 H   0  0  0  0  0  0  0  0  0  0  0  0
    5.8866    5.4617    2.0858 H   0  0  0  0  0  0  0  0  0  0  0  0
    8.7312    8.4458    0.8164 H   0  0  0  0  0  0  0  0  0  0  0  0
    9.1282    7.2024   -1.2598 H   0  0  0  0  0  0  0  0  0  0  0  0
    7.5807   -1.4105   -0.5220 H   0  0  0  0  0  0  0  0  0  0  0  0
    8.2901    0.1503   -1.0704 H   0  0  0  0  0  0  0  0  0  0  0  0
    9.0032   -1.6510   -2.5822 H   0  0  0  0  0  0  0  0  0  0  0  0
    7.2908   -2.1471   -2.8771 H   0  0  0  0  0  0  0  0  0  0  0  0
    7.9005   -0.5608   -3.4874 H   0  0  0  0  0  0  0  0  0  0  0  0
   -5.7363   -4.6508    3.3168 H   0  0  0  0  0  0  0  0  0  0  0  0
   -7.2875   -3.8011    2.9944 H   0  0  0  0  0  0  0  0  0  0  0  0
   -6.7560   -3.7813    5.4286 H   0  0  0  0  0  0  0  0  0  0  0  0
   -5.1488   -3.0417    5.0893 H   0  0  0  0  0  0  0  0  0  0  0  0
   -6.6756   -2.1046    4.7828 H   0  0  0  0  0  0  0  0  0  0  0  0
    1.2570    1.6084   -1.0613 H   0  0  0  0  0  0  0  0  0  0  0  0
    0.0020    0.9247    0.0032 H   0  0  0  0  0  0  0  0  0  0  0  0
    1.4704    2.2724    1.3599 H   0  0  0  0  0  0  0  0  0  0  0  0
    1.6890    0.5417    1.8185 H   0  0  0  0  0  0  0  0  0  0  0  0
    2.9191    1.3789    0.8176 H   0  0  0  0  0  0  0  0  0  0  0  0
   -2.5341    0.3474   -0.7983 H   0  0  0  0  0  0  0  0  0  0  0  0
   -1.0339   -0.1844   -1.6148 H   0  0  0  0  0  0  0  0  0  0  0  0
   -2.4105   -2.5379   -1.8438 H   0  0  0  0  0  0  0  0  0  0  0  0
   -2.4826   -1.1859   -3.0544 H   0  0  0  0  0  0  0  0  0  0  0  0
   -3.8024   -1.3527   -1.8089 H   0  0  0  0  0  0  0  0  0  0  0  0
   -7.7941   -0.8222    2.8279 H   0  0  0  0  0  0  0  0  0  0  0  0
   -9.0653   -3.2383   -2.7949 H   0  0  0  0  0  0  0  0  0  0  0  0
  -12.4194   -0.3666   -0.4958 H   0  0  0  0  0  0  0  0  0  0  0  0
  1  2  2  3
  2  3  1  0
  3  4  2  0
  3  5  1  0
  5  6  2  0
  6  7  1  0
  7  8  1  0
  7  9  2  0
  9 10  1  0
 10 11  2  0
 11 12  1  0
 12 13  2  3
 13 14  1  0
 14 15  3  0
 13 16  1  0
 16 17  3  0
  1 18  1  0
 18 19  2  0
 19 20  1  0
 20 21  1  0
 19 22  1  0
 22 23  1  0
 23 24  1  0
 24 25  1  0
 25 26  1  0
 26 27  1  0
 27 28  2  0
 28 29  1  0
 29 30  1  0
 27 31  1  0
 31 32  1  0
 32 33  1  0
 33 34  1  0
 34 35  1  0
 35 36  1  0
 36 37  1  0
 35 38  2  0
 38 39  1  0
 39 40  1  0
 40 41  1  0
 41 42  1  0
 42 43  1  0
 43 44  1  0
 44 45  1  0
 45 46  1  0
 46 47  1  0
 47 48  1  0
 45 49  1  0
 49 50  1  0
 42 51  1  0
 51 52  1  0
 38 53  1  0
 53 54  2  3
 54 55  1  0
 55 56  2  0
 55 57  1  0
 57 58  2  0
 58 59  1  0
 59 60  1  0
 59 61  2  0
 61 62  1  0
 61 63  1  0
 63 64  2  0
 64 65  1  0
 65 66  2  3
 66 67  1  0
 67 68  3  0
 66 69  1  0
 69 70  3  0
 12  2  1  0
 48 18  1  0
 65 54  1  0
 11  5  1  0
 47 22  2  0
 64 57  1  0
 46 24  2  0
 44 25  2  0
 30 26  2  0
 43 31  2  0
 41 32  2  0
 40 34  2  0
  1 71  1  0
  6 72  1  0
  9 73  1  0
 10 74  1  0
 20 75  1  0
 20 76  1  0
 21 77  1  0
 21 78  1  0
 21 79  1  0
 36 80  1  0
 36 81  1  0
 37 82  1  0
 37 83  1  0
 37 84  1  0
 49 85  1  0
 49 86  1  0
 50 87  1  0
 50 88  1  0
 50 89  1  0
 51 90  1  0
 51 91  1  0
 52 92  1  0
 52 93  1  0
 52 94  1  0
 53 95  1  0
 58 96  1  0
 63 97  1  0
M  END

