
     RDKit          3D

100111  0  0  0  0  0  0  0  0999 V2000
    0.2829    7.0964   -2.6462 C   0  0  0  0  0  0  0  0  0  0  0  0
   -0.5566    7.4193   -1.6433 C   0  0  0  0  0  0  0  0  0  0  0  0
   -0.8161    6.6061   -0.4452 C   0  0  0  0  0  0  0  0  0  0  0  0
   -0.1193    5.6454   -0.0188 O   0  0  0  0  0  0  0  0  0  0  0  0
   -2.0094    7.1063    0.1962 C   0  0  0  0  0  0  0  0  0  0  0  0
   -2.6834    6.5708    1.2973 C   0  0  0  0  0  0  0  0  0  0  0  0
   -3.8845    7.1704    1.7010 C   0  0  0  0  0  0  0  0  0  0  0  0
   -4.8421    6.4757    3.2060 Br  0  0  0  0  0  0  0  0  0  0  0  0
   -4.3981    8.2693    0.9864 C   0  0  0  0  0  0  0  0  0  0  0  0
   -3.7068    8.7905   -0.1223 C   0  0  0  0  0  0  0  0  0  0  0  0
   -2.4769    8.2142   -0.4934 C   0  0  0  0  0  0  0  0  0  0  0  0
   -1.5359    8.5510   -1.6043 C   0  0  0  0  0  0  0  0  0  0  0  0
   -1.4603    9.7277   -2.2763 C   0  0  0  0  0  0  0  0  0  0  0  0
   -0.3550   10.0566   -3.1387 C   0  0  0  0  0  0  0  0  0  0  0  0
    0.5298   10.3375   -3.8320 N   0  0  0  0  0  0  0  0  0  0  0  0
   -2.3986   10.8016   -2.0694 C   0  0  0  0  0  0  0  0  0  0  0  0
   -3.1346   11.6813   -1.9149 N   0  0  0  0  0  0  0  0  0  0  0  0
    1.1127    5.8858   -2.6211 C   0  0  0  0  0  0  0  0  0  0  0  0
    2.4895    5.8408   -2.3397 C   0  0  0  0  0  0  0  0  0  0  0  0
    3.3254    7.0307   -1.9616 C   0  0  0  0  0  0  0  0  0  0  0  0
    3.3242    7.2385   -0.4539 C   0  0  0  0  0  0  0  0  0  0  0  0
    2.9331    4.5195   -2.2867 C   0  0  0  0  0  0  0  0  0  0  0  0
    4.3806    3.8045   -1.7431 S   0  0  0  0  0  0  0  0  0  0  0  0
    3.7113    2.2501   -1.8946 C   0  0  0  0  0  0  0  0  0  0  0  0
    3.9140    1.0442   -1.2790 C   0  0  0  0  0  0  0  0  0  0  0  0
    4.9224    0.6396   -0.3940 C   0  0  0  0  0  0  0  0  0  0  0  0
    4.7310   -0.5504    0.3687 C   0  0  0  0  0  0  0  0  0  0  0  0
    5.7125   -0.8946    1.2412 N   0  0  0  0  0  0  0  0  0  0  0  0
    6.7537    0.3674    0.9849 S   0  0  0  0  0  0  0  0  0  0  0  0
    6.0659    1.3344   -0.1708 N   0  0  0  0  0  0  0  0  0  0  0  0
    3.5564   -1.2826    0.1804 C   0  0  0  0  0  0  0  0  0  0  0  0
    3.1307   -2.4730    0.6892 C   0  0  0  0  0  0  0  0  0  0  0  0
    3.6703   -3.6888    1.7438 S   0  0  0  0  0  0  0  0  0  0  0  0
    2.3060   -4.6466    1.3644 C   0  0  0  0  0  0  0  0  0  0  0  0
    1.8115   -5.8577    1.8600 C   0  0  0  0  0  0  0  0  0  0  0  0
    2.5344   -6.6707    2.9014 C   0  0  0  0  0  0  0  0  0  0  0  0
    3.1473   -7.9228    2.2788 C   0  0  0  0  0  0  0  0  0  0  0  0
    0.5592   -6.1877    1.2805 C   0  0  0  0  0  0  0  0  0  0  0  0
    0.1210   -4.9346    0.2065 S   0  0  0  0  0  0  0  0  0  0  0  0
    1.5054   -4.0354    0.4348 C   0  0  0  0  0  0  0  0  0  0  0  0
    1.9751   -2.7894    0.0571 C   0  0  0  0  0  0  0  0  0  0  0  0
    1.6029   -1.8726   -0.8759 N   0  0  0  0  0  0  0  0  0  0  0  0
    2.5625   -0.8998   -0.7360 C   0  0  0  0  0  0  0  0  0  0  0  0
    2.7066    0.3385   -1.4115 C   0  0  0  0  0  0  0  0  0  0  0  0
    1.7383    1.1393   -1.9653 N   0  0  0  0  0  0  0  0  0  0  0  0
    2.4069    2.2772   -2.2893 C   0  0  0  0  0  0  0  0  0  0  0  0
    1.9664    3.5750   -2.5180 C   0  0  0  0  0  0  0  0  0  0  0  0
    0.4865    4.3121   -2.7964 S   0  0  0  0  0  0  0  0  0  0  0  0
    0.3032    1.1106   -1.6609 C   0  0  0  0  0  0  0  0  0  0  0  0
    0.0272    1.7173   -0.2868 C   0  0  0  0  0  0  0  0  0  0  0  0
    0.9077   -2.2174   -2.1269 C   0  0  0  0  0  0  0  0  0  0  0  0
   -0.5932   -2.4508   -1.9149 C   0  0  0  0  0  0  0  0  0  0  0  0
   -0.2862   -7.3329    1.7181 C   0  0  0  0  0  0  0  0  0  0  0  0
   -1.4324   -7.7942    1.1662 C   0  0  0  0  0  0  0  0  0  0  0  0
   -2.1788   -7.2582    0.0157 C   0  0  0  0  0  0  0  0  0  0  0  0
   -1.6929   -6.7354   -1.0209 O   0  0  0  0  0  0  0  0  0  0  0  0
   -3.5739   -7.6223    0.1719 C   0  0  0  0  0  0  0  0  0  0  0  0
   -4.6740   -7.1613   -0.5457 C   0  0  0  0  0  0  0  0  0  0  0  0
   -5.9656   -7.5546   -0.1410 C   0  0  0  0  0  0  0  0  0  0  0  0
   -7.1698   -7.0254   -0.8740 C   0  0  0  0  0  0  0  0  0  0  0  0
   -6.9946   -7.1695   -2.2366 F   0  0  0  0  0  0  0  0  0  0  0  0
   -7.3325   -5.6838   -0.5777 F   0  0  0  0  0  0  0  0  0  0  0  0
   -8.3194   -7.7057   -0.5129 F   0  0  0  0  0  0  0  0  0  0  0  0
   -6.1107   -8.3582    1.0132 C   0  0  0  0  0  0  0  0  0  0  0  0
   -4.9839   -8.8079    1.7151 C   0  0  0  0  0  0  0  0  0  0  0  0
   -3.7103   -8.4620    1.2550 C   0  0  0  0  0  0  0  0  0  0  0  0
   -2.3711   -8.7445    1.8388 C   0  0  0  0  0  0  0  0  0  0  0  0
   -2.0333   -9.8213    2.5943 C   0  0  0  0  0  0  0  0  0  0  0  0
   -0.6636  -10.1738    2.8657 C   0  0  0  0  0  0  0  0  0  0  0  0
    0.4307  -10.4735    3.0861 N   0  0  0  0  0  0  0  0  0  0  0  0
   -3.0066  -10.7900    3.0242 C   0  0  0  0  0  0  0  0  0  0  0  0
   -3.7809  -11.5759    3.3755 N   0  0  0  0  0  0  0  0  0  0  0  0
    0.3358    7.6877   -3.5446 H   0  0  0  0  0  0  0  0  0  0  0  0
   -2.2890    5.7139    1.8301 H   0  0  0  0  0  0  0  0  0  0  0  0
   -5.3386    8.7153    1.2871 H   0  0  0  0  0  0  0  0  0  0  0  0
   -4.1457    9.6121   -0.6650 H   0  0  0  0  0  0  0  0  0  0  0  0
    4.3708    6.8856   -2.3105 H   0  0  0  0  0  0  0  0  0  0  0  0
    2.9288    7.9396   -2.4569 H   0  0  0  0  0  0  0  0  0  0  0  0
    3.8897    6.4210    0.0350 H   0  0  0  0  0  0  0  0  0  0  0  0
    2.2896    7.2595   -0.0589 H   0  0  0  0  0  0  0  0  0  0  0  0
    3.8184    8.2007   -0.2173 H   0  0  0  0  0  0  0  0  0  0  0  0
    3.3492   -6.0715    3.3641 H   0  0  0  0  0  0  0  0  0  0  0  0
    1.8423   -6.9467    3.7236 H   0  0  0  0  0  0  0  0  0  0  0  0
    3.6784   -8.5066    3.0601 H   0  0  0  0  0  0  0  0  0  0  0  0
    3.8799   -7.6375    1.4939 H   0  0  0  0  0  0  0  0  0  0  0  0
    2.3608   -8.5668    1.8352 H   0  0  0  0  0  0  0  0  0  0  0  0
   -0.2678    1.6503   -2.4441 H   0  0  0  0  0  0  0  0  0  0  0  0
   -0.0835    0.0865   -1.6469 H   0  0  0  0  0  0  0  0  0  0  0  0
    0.3482    2.7778   -0.2484 H   0  0  0  0  0  0  0  0  0  0  0  0
   -1.0651    1.6729   -0.0793 H   0  0  0  0  0  0  0  0  0  0  0  0
    0.5740    1.1480    0.4975 H   0  0  0  0  0  0  0  0  0  0  0  0
    1.3645   -3.1348   -2.5658 H   0  0  0  0  0  0  0  0  0  0  0  0
    1.0531   -1.4129   -2.8828 H   0  0  0  0  0  0  0  0  0  0  0  0
   -1.1689   -1.9061   -2.6880 H   0  0  0  0  0  0  0  0  0  0  0  0
   -0.9133   -2.1017   -0.9160 H   0  0  0  0  0  0  0  0  0  0  0  0
   -0.8357   -3.5226   -2.0248 H   0  0  0  0  0  0  0  0  0  0  0  0
    0.0245   -7.7706    2.6515 H   0  0  0  0  0  0  0  0  0  0  0  0
   -4.5346   -6.4808   -1.3747 H   0  0  0  0  0  0  0  0  0  0  0  0
   -7.0952   -8.6344    1.3781 H   0  0  0  0  0  0  0  0  0  0  0  0
   -5.1254   -9.3706    2.6198 H   0  0  0  0  0  0  0  0  0  0  0  0
  1  2  2  3
  2  3  1  0
  3  4  2  0
  3  5  1  0
  5  6  2  0
  6  7  1  0
  7  8  1  0
  7  9  2  0
  9 10  1  0
 10 11  2  0
 11 12  1  0
 12 13  2  3
 13 14  1  0
 14 15  3  0
 13 16  1  0
 16 17  3  0
  1 18  1  0
 18 19  2  0
 19 20  1  0
 20 21  1  0
 19 22  1  0
 22 23  1  0
 23 24  1  0
 24 25  1  0
 25 26  1  0
 26 27  1  0
 27 28  2  0
 28 29  1  0
 29 30  1  0
 27 31  1  0
 31 32  1  0
 32 33  1  0
 33 34  1  0
 34 35  1  0
 35 36  1  0
 36 37  1  0
 35 38  2  0
 38 39  1  0
 39 40  1  0
 40 41  1  0
 41 42  1  0
 42 43  1  0
 43 44  1  0
 44 45  1  0
 45 46  1  0
 46 47  1  0
 47 48  1  0
 45 49  1  0
 49 50  1  0
 42 51  1  0
 51 52  1  0
 38 53  1  0
 53 54  2  3
 54 55  1  0
 55 56  2  0
 55 57  1  0
 57 58  2  0
 58 59  1  0
 59 60  1  0
 60 61  1  0
 60 62  1  0
 60 63  1  0
 59 64  2  0
 64 65  1  0
 65 66  2  0
 66 67  1  0
 67 68  2  3
 68 69  1  0
 69 70  3  0
 68 71  1  0
 71 72  3  0
 12  2  1  0
 48 18  1  0
 67 54  1  0
 11  5  1  0
 47 22  2  0
 66 57  1  0
 46 24  2  0
 44 25  2  0
 30 26  2  0
 43 31  2  0
 41 32  2  0
 40 34  2  0
  1 73  1  0
  6 74  1  0
  9 75  1  0
 10 76  1  0
 20 77  1  0
 20 78  1  0
 21 79  1  0
 21 80  1  0
 21 81  1  0
 36 82  1  0
 36 83  1  0
 37 84  1  0
 37 85  1  0
 37 86  1  0
 49 87  1  0
 49 88  1  0
 50 89  1  0
 50 90  1  0
 50 91  1  0
 51 92  1  0
 51 93  1  0
 52 94  1  0
 52 95  1  0
 52 96  1  0
 53 97  1  0
 58 98  1  0
 64 99  1  0
 65100  1  0
M  END

