
     RDKit          3D

106117  0  0  0  0  0  0  0  0999 V2000
   -0.6974    3.1645    7.0758 C   0  0  0  0  0  0  0  0  0  0  0  0
   -2.0450    3.1462    7.0548 C   0  0  0  0  0  0  0  0  0  0  0  0
   -2.8984    2.6139    5.9861 C   0  0  0  0  0  0  0  0  0  0  0  0
   -2.5909    2.4870    4.7716 O   0  0  0  0  0  0  0  0  0  0  0  0
   -4.2086    2.3583    6.5364 C   0  0  0  0  0  0  0  0  0  0  0  0
   -5.2919    1.7200    5.9300 C   0  0  0  0  0  0  0  0  0  0  0  0
   -6.4480    1.4994    6.6891 C   0  0  0  0  0  0  0  0  0  0  0  0
   -7.9416    0.5986    5.9139 Br  0  0  0  0  0  0  0  0  0  0  0  0
   -6.5028    1.9162    8.0288 C   0  0  0  0  0  0  0  0  0  0  0  0
   -5.4016    2.5569    8.6198 C   0  0  0  0  0  0  0  0  0  0  0  0
   -4.2527    2.7973    7.8475 C   0  0  0  0  0  0  0  0  0  0  0  0
   -2.9539    3.4344    8.2036 C   0  0  0  0  0  0  0  0  0  0  0  0
   -2.7324    4.3057    9.2235 C   0  0  0  0  0  0  0  0  0  0  0  0
   -3.7291    4.5987   10.2214 C   0  0  0  0  0  0  0  0  0  0  0  0
   -4.5193    4.8451   11.0329 N   0  0  0  0  0  0  0  0  0  0  0  0
   -1.5273    5.0904    9.3257 C   0  0  0  0  0  0  0  0  0  0  0  0
   -0.5613    5.7239    9.4171 N   0  0  0  0  0  0  0  0  0  0  0  0
    0.1775    2.6794    5.9935 C   0  0  0  0  0  0  0  0  0  0  0  0
    1.3913    3.2837    5.6128 C   0  0  0  0  0  0  0  0  0  0  0  0
    1.9186    4.5824    6.1571 C   0  0  0  0  0  0  0  0  0  0  0  0
    2.8798    4.3323    7.3141 C   0  0  0  0  0  0  0  0  0  0  0  0
    2.0775    2.4888    4.6903 C   0  0  0  0  0  0  0  0  0  0  0  0
    1.4581    1.3147    4.3524 C   0  0  0  0  0  0  0  0  0  0  0  0
    0.0110    1.1816    5.1868 S   0  0  0  0  0  0  0  0  0  0  0  0
    2.1316    0.6081    3.3595 C   0  0  0  0  0  0  0  0  0  0  0  0
    3.2483    1.2633    2.9477 C   0  0  0  0  0  0  0  0  0  0  0  0
    3.4684    2.7480    3.7461 S   0  0  0  0  0  0  0  0  0  0  0  0
    3.5788    0.7671    1.7167 C   0  0  0  0  0  0  0  0  0  0  0  0
    4.4001    1.3197    0.7205 C   0  0  0  0  0  0  0  0  0  0  0  0
    5.2242    2.3683    0.9715 N   0  0  0  0  0  0  0  0  0  0  0  0
    5.9972    2.9147   -0.0100 C   0  0  0  0  0  0  0  0  0  0  0  0
    6.8910    4.0697    0.3278 C   0  0  0  0  0  0  0  0  0  0  0  0
    5.9429    2.3696   -1.3142 C   0  0  0  0  0  0  0  0  0  0  0  0
    6.8182    2.8836   -2.4215 C   0  0  0  0  0  0  0  0  0  0  0  0
    5.0981    1.3314   -1.5667 N   0  0  0  0  0  0  0  0  0  0  0  0
    4.3185    0.8024   -0.5874 C   0  0  0  0  0  0  0  0  0  0  0  0
    3.4442   -0.2632   -0.8295 C   0  0  0  0  0  0  0  0  0  0  0  0
    3.1090   -0.9038   -1.9826 C   0  0  0  0  0  0  0  0  0  0  0  0
    3.1671   -0.5524   -3.6385 S   0  0  0  0  0  0  0  0  0  0  0  0
    1.9578   -1.7164   -3.9473 C   0  0  0  0  0  0  0  0  0  0  0  0
    1.1507   -1.9400   -5.0659 C   0  0  0  0  0  0  0  0  0  0  0  0
    1.3128   -1.2133   -6.3734 C   0  0  0  0  0  0  0  0  0  0  0  0
    0.6339    0.1528   -6.3237 C   0  0  0  0  0  0  0  0  0  0  0  0
    0.0362   -2.7242   -4.7231 C   0  0  0  0  0  0  0  0  0  0  0  0
    0.0820   -3.1227   -3.0643 S   0  0  0  0  0  0  0  0  0  0  0  0
    1.5288   -2.3257   -2.7866 C   0  0  0  0  0  0  0  0  0  0  0  0
    2.1905   -1.8488   -1.6632 C   0  0  0  0  0  0  0  0  0  0  0  0
    1.9102   -1.8899   -0.3328 N   0  0  0  0  0  0  0  0  0  0  0  0
    1.6921   -3.1558    0.3816 C   0  0  0  0  0  0  0  0  0  0  0  0
    0.2804   -3.7042    0.1883 C   0  0  0  0  0  0  0  0  0  0  0  0
    2.6514   -0.8491    0.1675 C   0  0  0  0  0  0  0  0  0  0  0  0
    2.6589   -0.2665    1.4650 C   0  0  0  0  0  0  0  0  0  0  0  0
    1.7252   -0.3373    2.4724 N   0  0  0  0  0  0  0  0  0  0  0  0
    0.3700   -0.8954    2.4321 C   0  0  0  0  0  0  0  0  0  0  0  0
    0.1867   -1.9692    3.5052 C   0  0  0  0  0  0  0  0  0  0  0  0
   -1.1067   -3.0086   -5.6020 C   0  0  0  0  0  0  0  0  0  0  0  0
   -2.2923   -2.3803   -5.4863 C   0  0  0  0  0  0  0  0  0  0  0  0
   -2.5574   -1.2120   -4.6310 C   0  0  0  0  0  0  0  0  0  0  0  0
   -1.8350   -0.7751   -3.6974 O   0  0  0  0  0  0  0  0  0  0  0  0
   -3.7671   -0.5721   -5.1079 C   0  0  0  0  0  0  0  0  0  0  0  0
   -4.3209    0.6375   -4.6827 C   0  0  0  0  0  0  0  0  0  0  0  0
   -5.4591    1.1191   -5.3419 C   0  0  0  0  0  0  0  0  0  0  0  0
   -6.0313    2.2853   -4.9441 F   0  0  0  0  0  0  0  0  0  0  0  0
   -5.9952    0.4144   -6.4365 C   0  0  0  0  0  0  0  0  0  0  0  0
   -7.0822    0.8998   -7.0940 F   0  0  0  0  0  0  0  0  0  0  0  0
   -5.4113   -0.7922   -6.8591 C   0  0  0  0  0  0  0  0  0  0  0  0
   -4.2977   -1.2942   -6.1612 C   0  0  0  0  0  0  0  0  0  0  0  0
   -3.4746   -2.5172   -6.3902 C   0  0  0  0  0  0  0  0  0  0  0  0
   -3.8302   -3.6224   -7.0948 C   0  0  0  0  0  0  0  0  0  0  0  0
   -5.0677   -3.7065   -7.8303 C   0  0  0  0  0  0  0  0  0  0  0  0
   -6.0606   -3.7958   -8.4206 N   0  0  0  0  0  0  0  0  0  0  0  0
   -3.0739   -4.8497   -7.0323 C   0  0  0  0  0  0  0  0  0  0  0  0
   -2.4749   -5.8382   -6.9861 N   0  0  0  0  0  0  0  0  0  0  0  0
   -0.1833    3.4983    7.9561 H   0  0  0  0  0  0  0  0  0  0  0  0
   -5.2267    1.3803    4.9042 H   0  0  0  0  0  0  0  0  0  0  0  0
   -7.3890    1.7229    8.6189 H   0  0  0  0  0  0  0  0  0  0  0  0
   -5.4604    2.8161    9.6614 H   0  0  0  0  0  0  0  0  0  0  0  0
    2.4470    5.1402    5.3531 H   0  0  0  0  0  0  0  0  0  0  0  0
    1.0785    5.2229    6.5070 H   0  0  0  0  0  0  0  0  0  0  0  0
    2.3753    3.7571    8.1198 H   0  0  0  0  0  0  0  0  0  0  0  0
    3.7634    3.7594    6.9569 H   0  0  0  0  0  0  0  0  0  0  0  0
    3.2280    5.3011    7.7288 H   0  0  0  0  0  0  0  0  0  0  0  0
    7.9548    3.7561    0.2488 H   0  0  0  0  0  0  0  0  0  0  0  0
    6.6942    4.9169   -0.3640 H   0  0  0  0  0  0  0  0  0  0  0  0
    6.6928    4.4183    1.3658 H   0  0  0  0  0  0  0  0  0  0  0  0
    6.6262    2.3273   -3.3645 H   0  0  0  0  0  0  0  0  0  0  0  0
    6.6143    3.9596   -2.6041 H   0  0  0  0  0  0  0  0  0  0  0  0
    7.8876    2.7511   -2.1479 H   0  0  0  0  0  0  0  0  0  0  0  0
    0.8741   -1.8132   -7.2015 H   0  0  0  0  0  0  0  0  0  0  0  0
    2.3919   -1.0781   -6.5898 H   0  0  0  0  0  0  0  0  0  0  0  0
   -0.4575    0.0422   -6.1720 H   0  0  0  0  0  0  0  0  0  0  0  0
    1.0508    0.7660   -5.4958 H   0  0  0  0  0  0  0  0  0  0  0  0
    0.8007    0.6903   -7.2792 H   0  0  0  0  0  0  0  0  0  0  0  0
    2.4325   -3.9082    0.0328 H   0  0  0  0  0  0  0  0  0  0  0  0
    1.9037   -3.0218    1.4589 H   0  0  0  0  0  0  0  0  0  0  0  0
    0.2775   -4.4833   -0.5991 H   0  0  0  0  0  0  0  0  0  0  0  0
   -0.4415   -2.9047   -0.0828 H   0  0  0  0  0  0  0  0  0  0  0  0
   -0.0665   -4.1841    1.1324 H   0  0  0  0  0  0  0  0  0  0  0  0
    0.1362   -1.2973    1.4354 H   0  0  0  0  0  0  0  0  0  0  0  0
   -0.3706   -0.0839    2.5955 H   0  0  0  0  0  0  0  0  0  0  0  0
    0.2789   -1.5280    4.5163 H   0  0  0  0  0  0  0  0  0  0  0  0
    0.9533   -2.7649    3.4214 H   0  0  0  0  0  0  0  0  0  0  0  0
   -0.8197   -2.4269    3.4065 H   0  0  0  0  0  0  0  0  0  0  0  0
   -0.9171   -3.6583   -6.4407 H   0  0  0  0  0  0  0  0  0  0  0  0
   -3.8876    1.1968   -3.8575 H   0  0  0  0  0  0  0  0  0  0  0  0
   -5.8081   -1.2831   -7.7289 H   0  0  0  0  0  0  0  0  0  0  0  0
  1  2  2  3
  2  3  1  0
  3  4  2  0
  3  5  1  0
  5  6  2  0
  6  7  1  0
  7  8  1  0
  7  9  2  0
  9 10  1  0
 10 11  2  0
 11 12  1  0
 12 13  2  3
 13 14  1  0
 14 15  3  0
 13 16  1  0
 16 17  3  0
  1 18  1  0
 18 19  2  0
 19 20  1  0
 20 21  1  0
 19 22  1  0
 22 23  2  0
 23 24  1  0
 23 25  1  0
 25 26  2  0
 26 27  1  0
 26 28  1  0
 28 29  2  0
 29 30  1  0
 30 31  2  0
 31 32  1  0
 31 33  1  0
 33 34  1  0
 33 35  2  0
 35 36  1  0
 36 37  2  0
 37 38  1  0
 38 39  1  0
 39 40  1  0
 40 41  1  0
 41 42  1  0
 42 43  1  0
 41 44  2  0
 44 45  1  0
 45 46  1  0
 46 47  1  0
 47 48  1  0
 48 49  1  0
 49 50  1  0
 48 51  1  0
 51 52  2  0
 52 53  1  0
 53 54  1  0
 54 55  1  0
 44 56  1  0
 56 57  2  3
 57 58  1  0
 58 59  2  0
 58 60  1  0
 60 61  2  0
 61 62  1  0
 62 63  1  0
 62 64  2  0
 64 65  1  0
 64 66  1  0
 66 67  2  0
 67 68  1  0
 68 69  2  3
 69 70  1  0
 70 71  3  0
 69 72  1  0
 72 73  3  0
 12  2  1  0
 24 18  1  0
 53 25  1  0
 68 57  1  0
 11  5  1  0
 27 22  1  0
 52 28  1  0
 67 60  1  0
 36 29  1  0
 51 37  1  0
 47 38  2  0
 46 40  2  0
  1 74  1  0
  6 75  1  0
  9 76  1  0
 10 77  1  0
 20 78  1  0
 20 79  1  0
 21 80  1  0
 21 81  1  0
 21 82  1  0
 32 83  1  0
 32 84  1  0
 32 85  1  0
 34 86  1  0
 34 87  1  0
 34 88  1  0
 42 89  1  0
 42 90  1  0
 43 91  1  0
 43 92  1  0
 43 93  1  0
 49 94  1  0
 49 95  1  0
 50 96  1  0
 50 97  1  0
 50 98  1  0
 54 99  1  0
 54100  1  0
 55101  1  0
 55102  1  0
 55103  1  0
 56104  1  0
 61105  1  0
 66106  1  0
M  END

