
     RDKit          3D

140156  0  0  0  0  0  0  0  0999 V2000
   -2.3609    5.4098   -1.1114 C   0  0  0  0  0  0  0  0  0  0  0  0
   -3.7060    6.0989   -1.3308 C   0  0  0  0  0  0  0  0  0  0  0  0
   -4.7504    5.1131   -1.6658 N   0  0  0  0  0  0  0  0  0  0  0  0
   -5.0688    4.6180   -2.9090 C   0  0  0  0  0  0  0  0  0  0  0  0
   -4.5003    4.9179   -4.1069 C   0  0  0  0  0  0  0  0  0  0  0  0
   -4.9972    4.3186   -5.3234 C   0  0  0  0  0  0  0  0  0  0  0  0
   -5.3897    3.8345   -6.2991 N   0  0  0  0  0  0  0  0  0  0  0  0
   -3.3813    5.8037   -4.2864 C   0  0  0  0  0  0  0  0  0  0  0  0
   -2.4815    6.5167   -4.4437 N   0  0  0  0  0  0  0  0  0  0  0  0
   -6.3019    3.4766   -2.7516 S   0  0  0  0  0  0  0  0  0  0  0  0
   -6.4622    3.5921   -1.0837 C   0  0  0  0  0  0  0  0  0  0  0  0
   -5.5029    4.5327   -0.6685 C   0  0  0  0  0  0  0  0  0  0  0  0
   -5.2963    4.8065    0.5452 O   0  0  0  0  0  0  0  0  0  0  0  0
   -7.3138    2.8477   -0.3320 C   0  0  0  0  0  0  0  0  0  0  0  0
   -7.4605    3.0490    1.1391 C   0  0  0  0  0  0  0  0  0  0  0  0
   -7.9586    2.0900    1.9229 C   0  0  0  0  0  0  0  0  0  0  0  0
   -8.3758    0.7578    1.3619 C   0  0  0  0  0  0  0  0  0  0  0  0
   -9.0204    0.9715   -0.0174 C   0  0  0  0  0  0  0  0  0  0  0  0
   -8.0731    1.7022   -0.9855 C   0  0  0  0  0  0  0  0  0  0  0  0
   -7.2100   -0.2091    1.2947 C   0  0  0  0  0  0  0  0  0  0  0  0
   -7.3175   -1.6149    1.3033 C   0  0  0  0  0  0  0  0  0  0  0  0
   -8.5831   -2.3570    1.4496 C   0  0  0  0  0  0  0  0  0  0  0  0
   -9.1707   -2.4245    2.7206 C   0  0  0  0  0  0  0  0  0  0  0  0
  -10.3927   -3.0787    2.9013 C   0  0  0  0  0  0  0  0  0  0  0  0
  -11.0307   -3.6801    1.8193 C   0  0  0  0  0  0  0  0  0  0  0  0
  -10.4601   -3.6148    0.5464 C   0  0  0  0  0  0  0  0  0  0  0  0
   -9.2332   -2.9579    0.3418 C   0  0  0  0  0  0  0  0  0  0  0  0
   -8.6745   -2.8865   -1.0654 C   0  0  0  0  0  0  0  0  0  0  0  0
   -8.2130   -4.2569   -1.5560 C   0  0  0  0  0  0  0  0  0  0  0  0
   -6.0732   -2.2213    1.1321 C   0  0  0  0  0  0  0  0  0  0  0  0
   -5.5326   -3.8429    1.1273 S   0  0  0  0  0  0  0  0  0  0  0  0
   -3.9374   -3.3310    0.8354 C   0  0  0  0  0  0  0  0  0  0  0  0
   -2.6696   -3.8411    0.8587 C   0  0  0  0  0  0  0  0  0  0  0  0
   -2.1790   -5.1204    1.1532 C   0  0  0  0  0  0  0  0  0  0  0  0
   -0.7675   -5.2956    1.2944 C   0  0  0  0  0  0  0  0  0  0  0  0
   -0.3302   -6.5437    1.5886 N   0  0  0  0  0  0  0  0  0  0  0  0
   -1.7848   -7.3363    1.6685 S   0  0  0  0  0  0  0  0  0  0  0  0
   -2.9603   -6.2127    1.3486 N   0  0  0  0  0  0  0  0  0  0  0  0
    0.0692   -4.1869    1.1024 C   0  0  0  0  0  0  0  0  0  0  0  0
    1.4289   -4.0653    1.0224 C   0  0  0  0  0  0  0  0  0  0  0  0
    2.8133   -5.0512    1.0347 S   0  0  0  0  0  0  0  0  0  0  0  0
    3.7734   -3.7423    0.4863 C   0  0  0  0  0  0  0  0  0  0  0  0
    5.1223   -3.5992    0.1516 C   0  0  0  0  0  0  0  0  0  0  0  0
    6.1052   -4.6975    0.1951 C   0  0  0  0  0  0  0  0  0  0  0  0
    6.5917   -5.2212    1.4191 C   0  0  0  0  0  0  0  0  0  0  0  0
    6.2432   -4.6012    2.7535 C   0  0  0  0  0  0  0  0  0  0  0  0
    7.1668   -3.4286    3.0641 C   0  0  0  0  0  0  0  0  0  0  0  0
    7.4961   -6.2987    1.3892 C   0  0  0  0  0  0  0  0  0  0  0  0
    7.8952   -6.8603    0.1739 C   0  0  0  0  0  0  0  0  0  0  0  0
    7.4135   -6.3396   -1.0267 C   0  0  0  0  0  0  0  0  0  0  0  0
    6.5279   -5.2620   -1.0178 C   0  0  0  0  0  0  0  0  0  0  0  0
    5.3876   -2.2924   -0.2995 C   0  0  0  0  0  0  0  0  0  0  0  0
    3.9432   -1.3788   -0.3402 S   0  0  0  0  0  0  0  0  0  0  0  0
    3.0142   -2.6248    0.2704 C   0  0  0  0  0  0  0  0  0  0  0  0
    1.6837   -2.8087    0.5826 C   0  0  0  0  0  0  0  0  0  0  0  0
    0.5635   -2.0918    0.3214 N   0  0  0  0  0  0  0  0  0  0  0  0
   -0.4332   -2.9254    0.7488 C   0  0  0  0  0  0  0  0  0  0  0  0
   -1.8264   -2.7280    0.7301 C   0  0  0  0  0  0  0  0  0  0  0  0
   -2.5343   -1.5553    0.7768 N   0  0  0  0  0  0  0  0  0  0  0  0
   -3.8208   -1.9817    0.7800 C   0  0  0  0  0  0  0  0  0  0  0  0
   -5.0338   -1.3463    0.9699 C   0  0  0  0  0  0  0  0  0  0  0  0
   -5.5740    0.2322    1.0464 S   0  0  0  0  0  0  0  0  0  0  0  0
   -2.0891   -0.2801    1.3633 C   0  0  0  0  0  0  0  0  0  0  0  0
   -2.3297   -0.2615    2.8717 C   0  0  0  0  0  0  0  0  0  0  0  0
    0.4642   -1.0782   -0.7435 C   0  0  0  0  0  0  0  0  0  0  0  0
    0.7267   -1.6943   -2.1185 C   0  0  0  0  0  0  0  0  0  0  0  0
    6.6767   -1.7818   -0.7913 C   0  0  0  0  0  0  0  0  0  0  0  0
    7.1631   -0.5842   -0.4091 C   0  0  0  0  0  0  0  0  0  0  0  0
    6.5892    0.2554    0.6495 C   0  0  0  0  0  0  0  0  0  0  0  0
    5.9367   -0.1527    1.6486 O   0  0  0  0  0  0  0  0  0  0  0  0
    6.9470    1.6306    0.3973 C   0  0  0  0  0  0  0  0  0  0  0  0
    6.4600    2.7694    1.0774 C   0  0  0  0  0  0  0  0  0  0  0  0
    6.8949    3.9642    0.5432 C   0  0  0  0  0  0  0  0  0  0  0  0
    7.7659    4.0429   -0.5909 C   0  0  0  0  0  0  0  0  0  0  0  0
    8.2496    2.9288   -1.2600 C   0  0  0  0  0  0  0  0  0  0  0  0
    7.8171    1.6832   -0.7237 C   0  0  0  0  0  0  0  0  0  0  0  0
    8.0950    0.2899   -1.1846 C   0  0  0  0  0  0  0  0  0  0  0  0
    9.0902   -0.1207   -2.0130 C   0  0  0  0  0  0  0  0  0  0  0  0
    9.4284   -1.5101   -2.1760 C   0  0  0  0  0  0  0  0  0  0  0  0
    9.7110   -2.6260   -2.3104 N   0  0  0  0  0  0  0  0  0  0  0  0
    9.9442    0.7984   -2.7170 C   0  0  0  0  0  0  0  0  0  0  0  0
   10.6346    1.5284   -3.2950 N   0  0  0  0  0  0  0  0  0  0  0  0
    7.7470    5.5416   -0.5186 C   0  0  0  0  0  0  0  0  0  0  0  0
    9.0087    6.2598    0.0497 C   0  0  0  0  0  0  0  0  0  0  0  0
    9.6938    5.3759    1.0677 C   0  0  0  0  0  0  0  0  0  0  0  0
    8.8759    5.3026    2.1183 C   0  0  0  0  0  0  0  0  0  0  0  0
    7.6621    6.1372    1.7822 C   0  0  0  0  0  0  0  0  0  0  0  0
    8.3443    7.2433    0.9968 C   0  0  0  0  0  0  0  0  0  0  0  0
    6.8512    5.4589    0.6408 C   0  0  0  0  0  0  0  0  0  0  0  0
   -1.6402    6.1391   -0.6964 H   0  0  0  0  0  0  0  0  0  0  0  0
   -2.4737    4.5738   -0.3842 H   0  0  0  0  0  0  0  0  0  0  0  0
   -1.9623    4.9997   -2.0616 H   0  0  0  0  0  0  0  0  0  0  0  0
   -3.6424    6.9040   -2.0840 H   0  0  0  0  0  0  0  0  0  0  0  0
   -3.9796    6.6367   -0.3987 H   0  0  0  0  0  0  0  0  0  0  0  0
   -7.2211    3.9947    1.5979 H   0  0  0  0  0  0  0  0  0  0  0  0
   -8.0726    2.2774    2.9856 H   0  0  0  0  0  0  0  0  0  0  0  0
   -9.1441    0.3323    2.0456 H   0  0  0  0  0  0  0  0  0  0  0  0
   -9.9429    1.5797    0.1134 H   0  0  0  0  0  0  0  0  0  0  0  0
   -9.3327   -0.0014   -0.4580 H   0  0  0  0  0  0  0  0  0  0  0  0
   -8.6727    2.0860   -1.8392 H   0  0  0  0  0  0  0  0  0  0  0  0
   -7.3410    0.9620   -1.3814 H   0  0  0  0  0  0  0  0  0  0  0  0
   -8.6964   -1.9539    3.5701 H   0  0  0  0  0  0  0  0  0  0  0  0
  -10.8420   -3.1205    3.8856 H   0  0  0  0  0  0  0  0  0  0  0  0
  -11.9756   -4.1853    1.9614 H   0  0  0  0  0  0  0  0  0  0  0  0
  -10.9813   -4.0700   -0.2882 H   0  0  0  0  0  0  0  0  0  0  0  0
   -7.8249   -2.1753   -1.1444 H   0  0  0  0  0  0  0  0  0  0  0  0
   -9.4636   -2.5043   -1.7519 H   0  0  0  0  0  0  0  0  0  0  0  0
   -7.4820   -4.6996   -0.8485 H   0  0  0  0  0  0  0  0  0  0  0  0
   -9.0780   -4.9481   -1.6565 H   0  0  0  0  0  0  0  0  0  0  0  0
   -7.7298   -4.1541   -2.5503 H   0  0  0  0  0  0  0  0  0  0  0  0
    6.3359   -5.3558    3.5639 H   0  0  0  0  0  0  0  0  0  0  0  0
    5.1913   -4.2549    2.7693 H   0  0  0  0  0  0  0  0  0  0  0  0
    7.0979   -2.6593    2.2661 H   0  0  0  0  0  0  0  0  0  0  0  0
    8.2190   -3.7807    3.1457 H   0  0  0  0  0  0  0  0  0  0  0  0
    6.8705   -2.9672    4.0289 H   0  0  0  0  0  0  0  0  0  0  0  0
    7.8978   -6.7021    2.3101 H   0  0  0  0  0  0  0  0  0  0  0  0
    8.5793   -7.6977    0.1654 H   0  0  0  0  0  0  0  0  0  0  0  0
    7.7299   -6.7746   -1.9667 H   0  0  0  0  0  0  0  0  0  0  0  0
    6.1591   -4.8755   -1.9613 H   0  0  0  0  0  0  0  0  0  0  0  0
   -2.6299    0.5637    0.8821 H   0  0  0  0  0  0  0  0  0  0  0  0
   -1.0076   -0.1155    1.2219 H   0  0  0  0  0  0  0  0  0  0  0  0
   -3.4059   -0.3777    3.1074 H   0  0  0  0  0  0  0  0  0  0  0  0
   -1.9805    0.7056    3.2905 H   0  0  0  0  0  0  0  0  0  0  0  0
   -1.7604   -1.0836    3.3551 H   0  0  0  0  0  0  0  0  0  0  0  0
    1.1887   -0.2597   -0.5499 H   0  0  0  0  0  0  0  0  0  0  0  0
   -0.5487   -0.6395   -0.7932 H   0  0  0  0  0  0  0  0  0  0  0  0
   -0.0294   -2.4801   -2.3342 H   0  0  0  0  0  0  0  0  0  0  0  0
    1.7387   -2.1467   -2.1728 H   0  0  0  0  0  0  0  0  0  0  0  0
    0.6541   -0.9055   -2.8946 H   0  0  0  0  0  0  0  0  0  0  0  0
    7.1087   -2.3249   -1.6108 H   0  0  0  0  0  0  0  0  0  0  0  0
    5.7888    2.7166    1.9234 H   0  0  0  0  0  0  0  0  0  0  0  0
    8.8700    3.0434   -2.1293 H   0  0  0  0  0  0  0  0  0  0  0  0
    7.2858    6.0339   -1.4037 H   0  0  0  0  0  0  0  0  0  0  0  0
    9.6767    6.7118   -0.7116 H   0  0  0  0  0  0  0  0  0  0  0  0
   10.6851    4.9447    1.0030 H   0  0  0  0  0  0  0  0  0  0  0  0
    9.0885    4.7949    3.0532 H   0  0  0  0  0  0  0  0  0  0  0  0
    7.0636    6.4694    2.6567 H   0  0  0  0  0  0  0  0  0  0  0  0
    9.0687    7.8361    1.6044 H   0  0  0  0  0  0  0  0  0  0  0  0
    7.6313    7.9340    0.4882 H   0  0  0  0  0  0  0  0  0  0  0  0
    5.8414    5.8946    0.4615 H   0  0  0  0  0  0  0  0  0  0  0  0
  1  2  1  0
  2  3  1  0
  3  4  1  0
  4  5  2  3
  5  6  1  0
  6  7  3  0
  5  8  1  0
  8  9  3  0
  4 10  1  0
 10 11  1  0
 11 12  1  0
 12 13  2  0
 11 14  2  3
 14 15  1  0
 15 16  2  0
 16 17  1  0
 17 18  1  0
 18 19  1  0
 17 20  1  0
 20 21  2  0
 21 22  1  0
 22 23  2  0
 23 24  1  0
 24 25  2  0
 25 26  1  0
 26 27  2  0
 27 28  1  0
 28 29  1  0
 21 30  1  0
 30 31  1  0
 31 32  1  0
 32 33  1  0
 33 34  1  0
 34 35  1  0
 35 36  2  0
 36 37  1  0
 37 38  1  0
 35 39  1  0
 39 40  1  0
 40 41  1  0
 41 42  1  0
 42 43  1  0
 43 44  1  0
 44 45  2  0
 45 46  1  0
 46 47  1  0
 45 48  1  0
 48 49  2  0
 49 50  1  0
 50 51  2  0
 43 52  2  0
 52 53  1  0
 53 54  1  0
 54 55  1  0
 55 56  1  0
 56 57  1  0
 57 58  1  0
 58 59  1  0
 59 60  1  0
 60 61  1  0
 61 62  1  0
 59 63  1  0
 63 64  1  0
 56 65  1  0
 65 66  1  0
 52 67  1  0
 67 68  2  3
 68 69  1  0
 69 70  2  0
 69 71  1  0
 71 72  2  0
 72 73  1  0
 73 74  2  0
 74 75  1  0
 75 76  2  0
 76 77  1  0
 77 78  2  3
 78 79  1  0
 79 80  3  0
 78 81  1  0
 81 82  3  0
 74 83  1  0
 83 84  1  0
 84 85  1  0
 85 86  2  0
 86 87  1  0
 87 88  1  0
 87 89  1  0
 12  3  1  0
 19 14  1  0
 62 20  1  0
 77 68  1  0
 89 83  1  0
 27 22  1  0
 61 30  2  0
 76 71  1  0
 88 84  1  0
 60 32  2  0
 89 73  1  0
 58 33  2  0
 38 34  2  0
 57 39  2  0
 55 40  2  0
 54 42  2  0
 51 44  1  0
  1 90  1  0
  1 91  1  0
  1 92  1  0
  2 93  1  0
  2 94  1  0
 15 95  1  0
 16 96  1  0
 17 97  1  0
 18 98  1  0
 18 99  1  0
 19100  1  0
 19101  1  0
 23102  1  0
 24103  1  0
 25104  1  0
 26105  1  0
 28106  1  0
 28107  1  0
 29108  1  0
 29109  1  0
 29110  1  0
 46111  1  0
 46112  1  0
 47113  1  0
 47114  1  0
 47115  1  0
 48116  1  0
 49117  1  0
 50118  1  0
 51119  1  0
 63120  1  0
 63121  1  0
 64122  1  0
 64123  1  0
 64124  1  0
 65125  1  0
 65126  1  0
 66127  1  0
 66128  1  0
 66129  1  0
 67130  1  0
 72131  1  0
 75132  1  0
 83133  1  0
 84134  1  0
 85135  1  0
 86136  1  0
 87137  1  0
 88138  1  0
 88139  1  0
 89140  1  0
M  END

