
     RDKit          3D

 98108  0  0  0  0  0  0  0  0999 V2000
   11.2711   -5.9969    0.2202 C   0  0  0  0  0  0  0  0  0  0  0  0
   10.7014   -4.7335    0.7602 C   0  0  0  0  0  0  0  0  0  0  0  0
    9.3601   -4.9932    1.3495 N   0  0  0  0  0  0  0  0  0  0  0  0
    9.2769   -5.4849    2.6450 C   0  0  0  0  0  0  0  0  0  0  0  0
   10.1972   -5.6252    3.5514 C   0  0  0  0  0  0  0  0  0  0  0  0
   11.5939   -5.2917    3.3599 C   0  0  0  0  0  0  0  0  0  0  0  0
   12.7309   -5.0201    3.1996 N   0  0  0  0  0  0  0  0  0  0  0  0
    9.7812   -5.9810    4.8705 C   0  0  0  0  0  0  0  0  0  0  0  0
    9.4110   -6.2815    6.0403 N   0  0  0  0  0  0  0  0  0  0  0  0
    7.5745   -5.6780    2.8044 S   0  0  0  0  0  0  0  0  0  0  0  0
    7.0249   -5.1322    1.2895 C   0  0  0  0  0  0  0  0  0  0  0  0
    8.2656   -4.8239    0.7051 C   0  0  0  0  0  0  0  0  0  0  0  0
    8.1934   -4.3615   -0.5207 O   0  0  0  0  0  0  0  0  0  0  0  0
    5.9322   -4.9818    0.7514 C   0  0  0  0  0  0  0  0  0  0  0  0
    5.0820   -4.6104   -0.3132 C   0  0  0  0  0  0  0  0  0  0  0  0
    3.8399   -4.7261   -0.4698 C   0  0  0  0  0  0  0  0  0  0  0  0
    2.9212   -5.3642    0.5609 C   0  0  0  0  0  0  0  0  0  0  0  0
    3.7519   -5.9804    1.6189 C   0  0  0  0  0  0  0  0  0  0  0  0
    4.8139   -5.0470    2.0171 C   0  0  0  0  0  0  0  0  0  0  0  0
    2.0824   -4.2415    1.0485 C   0  0  0  0  0  0  0  0  0  0  0  0
    2.1357   -3.2691    2.6188 Se  0  0  0  0  0  2  0  0  0  0  0  0
    0.6443   -2.1343    2.0657 C   0  0  0  0  0  0  0  0  0  0  0  0
   -0.1233   -1.0917    2.4217 C   0  0  0  0  0  0  0  0  0  0  0  0
   -0.2092   -0.2989    3.5639 C   0  0  0  0  0  0  0  0  0  0  0  0
   -1.1321    0.6474    3.6189 C   0  0  0  0  0  0  0  0  0  0  0  0
   -1.1513    1.4264    4.7230 N   0  0  0  0  0  0  0  0  0  0  0  0
    0.1063    0.8290    5.6563 S   0  0  0  0  0  0  0  0  0  0  0  0
    0.6321   -0.3823    4.6412 N   0  0  0  0  0  0  0  0  0  0  0  0
   -1.9905    0.8578    2.5142 C   0  0  0  0  0  0  0  0  0  0  0  0
   -2.9390    1.8228    2.2759 C   0  0  0  0  0  0  0  0  0  0  0  0
   -3.7727    3.2153    2.8181 S   0  0  0  0  0  0  0  0  0  0  0  0
   -4.7489    3.5406    1.4031 C   0  0  0  0  0  0  0  0  0  0  0  0
   -5.7003    4.4445    0.9069 C   0  0  0  0  0  0  0  0  0  0  0  0
   -6.1338    5.6082    1.8032 C   0  0  0  0  0  0  0  0  0  0  0  0
   -6.9713    5.0804    2.9362 C   0  0  0  0  0  0  0  0  0  0  0  0
   -6.1830    4.3248   -0.2552 C   0  0  0  0  0  0  0  0  0  0  0  0
   -5.3250    2.8657   -0.8145 S   0  0  0  0  0  0  0  0  0  0  0  0
   -4.3717    2.5653    0.6225 C   0  0  0  0  0  0  0  0  0  0  0  0
   -3.4214    1.6359    1.0346 C   0  0  0  0  0  0  0  0  0  0  0  0
   -2.7885    0.5432    0.4502 N   0  0  0  0  0  0  0  0  0  0  0  0
   -1.9287    0.0958    1.3763 C   0  0  0  0  0  0  0  0  0  0  0  0
   -0.9753   -0.9218    1.3189 C   0  0  0  0  0  0  0  0  0  0  0  0
   -0.6938   -1.8339    0.3892 N   0  0  0  0  0  0  0  0  0  0  0  0
    0.3767   -2.6423    0.8787 C   0  0  0  0  0  0  0  0  0  0  0  0
    1.0609   -3.6675    0.3574 C   0  0  0  0  0  0  0  0  0  0  0  0
   -1.3428   -2.1500   -0.8448 C   0  0  0  0  0  0  0  0  0  0  0  0
   -2.4621   -3.1676   -0.6128 C   0  0  0  0  0  0  0  0  0  0  0  0
   -3.0829    0.1119   -0.9008 C   0  0  0  0  0  0  0  0  0  0  0  0
   -2.2880    0.9228   -1.9156 C   0  0  0  0  0  0  0  0  0  0  0  0
   -7.1855    4.7095   -1.2880 C   0  0  0  0  0  0  0  0  0  0  0  0
   -6.6067    4.8280   -2.5426 C   0  0  0  0  0  0  0  0  0  0  0  0
   -5.1894    4.6624   -2.8175 C   0  0  0  0  0  0  0  0  0  0  0  0
   -4.2538    4.8987   -2.0460 O   0  0  0  0  0  0  0  0  0  0  0  0
   -5.0244    4.1585   -4.1980 C   0  0  0  0  0  0  0  0  0  0  0  0
   -3.8772    3.8630   -4.8946 C   0  0  0  0  0  0  0  0  0  0  0  0
   -2.3222    4.0569   -4.1242 Cl  0  0  0  0  0  0  0  0  0  0  0  0
   -3.9475    3.4111   -6.1988 C   0  0  0  0  0  0  0  0  0  0  0  0
   -2.5092    3.0320   -7.1293 Cl  0  0  0  0  0  0  0  0  0  0  0  0
   -5.1862    3.2693   -6.7698 C   0  0  0  0  0  0  0  0  0  0  0  0
   -5.3126    2.6895   -8.4452 Cl  0  0  0  0  0  0  0  0  0  0  0  0
   -6.3430    3.5830   -6.0356 C   0  0  0  0  0  0  0  0  0  0  0  0
   -7.8384    3.2958   -6.8600 Cl  0  0  0  0  0  0  0  0  0  0  0  0
   -6.3131    4.0310   -4.7472 C   0  0  0  0  0  0  0  0  0  0  0  0
   -7.3320    4.4531   -3.7379 C   0  0  0  0  0  0  0  0  0  0  0  0
   -8.6170    4.7906   -4.0309 C   0  0  0  0  0  0  0  0  0  0  0  0
   -9.4423    4.5875   -4.9045 C   0  0  0  0  0  0  0  0  0  0  0  0
  -10.3689    4.3550   -5.9094 N   0  0  0  0  0  0  0  0  0  0  0  0
   -8.7762    6.3412   -3.5560 C   0  0  0  0  0  0  0  0  0  0  0  0
   -8.9011    7.3939   -3.2283 N   0  0  0  0  0  0  0  0  0  0  0  0
   12.2189   -5.8910   -0.3094 H   0  0  0  0  0  0  0  0  0  0  0  0
   10.5354   -6.4336   -0.5368 H   0  0  0  0  0  0  0  0  0  0  0  0
   11.3903   -6.8112    0.9910 H   0  0  0  0  0  0  0  0  0  0  0  0
   10.4571   -4.0941   -0.1852 H   0  0  0  0  0  0  0  0  0  0  0  0
   11.3371   -4.1340    1.3449 H   0  0  0  0  0  0  0  0  0  0  0  0
    5.6898   -4.1300   -1.1962 H   0  0  0  0  0  0  0  0  0  0  0  0
    3.3456   -4.3577   -1.3638 H   0  0  0  0  0  0  0  0  0  0  0  0
    2.2892   -6.0273   -0.0192 H   0  0  0  0  0  0  0  0  0  0  0  0
    3.2447   -6.4406    2.4509 H   0  0  0  0  0  0  0  0  0  0  0  0
    4.3138   -6.8132    1.0411 H   0  0  0  0  0  0  0  0  0  0  0  0
    4.5659   -4.0001    2.0938 H   0  0  0  0  0  0  0  0  0  0  0  0
    5.4218   -5.3708    2.8468 H   0  0  0  0  0  0  0  0  0  0  0  0
   -6.6889    6.3572    1.2605 H   0  0  0  0  0  0  0  0  0  0  0  0
   -5.1976    6.1088    2.1817 H   0  0  0  0  0  0  0  0  0  0  0  0
   -6.7809    3.9761    3.0921 H   0  0  0  0  0  0  0  0  0  0  0  0
   -8.0531    5.2543    2.8202 H   0  0  0  0  0  0  0  0  0  0  0  0
   -6.6477    5.5580    3.8841 H   0  0  0  0  0  0  0  0  0  0  0  0
    0.8607   -4.1372   -0.6620 H   0  0  0  0  0  0  0  0  0  0  0  0
   -0.6025   -2.9062   -1.3960 H   0  0  0  0  0  0  0  0  0  0  0  0
   -1.3957   -1.4859   -1.6616 H   0  0  0  0  0  0  0  0  0  0  0  0
   -2.0396   -4.1924   -0.3743 H   0  0  0  0  0  0  0  0  0  0  0  0
   -3.1552   -2.8400    0.1888 H   0  0  0  0  0  0  0  0  0  0  0  0
   -3.0603   -3.3036   -1.5344 H   0  0  0  0  0  0  0  0  0  0  0  0
   -3.3863   -0.8665   -1.1300 H   0  0  0  0  0  0  0  0  0  0  0  0
   -4.1456    0.5965   -1.1208 H   0  0  0  0  0  0  0  0  0  0  0  0
   -2.4011    2.0511   -1.6999 H   0  0  0  0  0  0  0  0  0  0  0  0
   -1.1956    0.7865   -1.7735 H   0  0  0  0  0  0  0  0  0  0  0  0
   -2.6889    0.8124   -2.9220 H   0  0  0  0  0  0  0  0  0  0  0  0
   -8.1702    4.8777   -1.1609 H   0  0  0  0  0  0  0  0  0  0  0  0
  1  2  1  0
  2  3  1  0
  3  4  1  0
  4  5  2  3
  5  6  1  0
  6  7  3  0
  5  8  1  0
  8  9  3  0
  4 10  1  0
 10 11  1  0
 11 12  1  0
 12 13  2  0
 11 14  2  3
 14 15  1  0
 15 16  2  0
 16 17  1  0
 17 18  1  0
 18 19  1  0
 17 20  1  0
 20 21  1  0
 21 22  1  0
 22 23  1  0
 23 24  1  0
 24 25  1  0
 25 26  2  0
 26 27  1  0
 27 28  1  0
 25 29  1  0
 29 30  1  0
 30 31  1  0
 31 32  1  0
 32 33  1  0
 33 34  1  0
 34 35  1  0
 33 36  2  0
 36 37  1  0
 37 38  1  0
 38 39  1  0
 39 40  1  0
 40 41  1  0
 41 42  1  0
 42 43  1  0
 43 44  1  0
 44 45  1  0
 43 46  1  0
 46 47  1  0
 40 48  1  0
 48 49  1  0
 36 50  1  0
 50 51  2  3
 51 52  1  0
 52 53  2  0
 52 54  1  0
 54 55  2  0
 55 56  1  0
 55 57  1  0
 57 58  1  0
 57 59  2  0
 59 60  1  0
 59 61  1  0
 61 62  1  0
 61 63  2  0
 63 64  1  0
 64 65  2  3
 65 66  1  0
 66 67  3  0
 65 68  1  0
 68 69  3  0
 12  3  1  0
 19 14  1  0
 45 20  2  0
 64 51  1  0
 44 22  2  0
 63 54  1  0
 42 23  2  0
 28 24  2  0
 41 29  2  0
 39 30  2  0
 38 32  2  0
  1 70  1  0
  1 71  1  0
  1 72  1  0
  2 73  1  0
  2 74  1  0
 15 75  1  0
 16 76  1  0
 17 77  1  0
 18 78  1  0
 18 79  1  0
 19 80  1  0
 19 81  1  0
 34 82  1  0
 34 83  1  0
 35 84  1  0
 35 85  1  0
 35 86  1  0
 45 87  1  0
 46 88  1  0
 46 89  1  0
 47 90  1  0
 47 91  1  0
 47 92  1  0
 48 93  1  0
 48 94  1  0
 49 95  1  0
 49 96  1  0
 49 97  1  0
 50 98  1  0
M  END

