
     RDKit          3D

156168  0  0  0  0  0  0  0  0999 V2000
    5.3909    4.0578    6.2485 C   0  0  0  0  0  0  0  0  0  0  0  0
    5.0512    5.4709    5.7714 C   0  0  0  0  0  0  0  0  0  0  0  0
    4.6091    5.4534    4.3634 N   0  0  0  0  0  0  0  0  0  0  0  0
    5.4100    5.4052    3.2411 C   0  0  0  0  0  0  0  0  0  0  0  0
    6.7687    5.4525    3.1656 C   0  0  0  0  0  0  0  0  0  0  0  0
    7.4233    5.4579    1.8810 C   0  0  0  0  0  0  0  0  0  0  0  0
    7.9547    5.4772    0.8533 N   0  0  0  0  0  0  0  0  0  0  0  0
    7.6507    5.5197    4.3022 C   0  0  0  0  0  0  0  0  0  0  0  0
    8.3755    5.5730    5.2038 N   0  0  0  0  0  0  0  0  0  0  0  0
    4.4383    5.2498    1.8641 S   0  0  0  0  0  0  0  0  0  0  0  0
    2.9629    5.2554    2.6712 C   0  0  0  0  0  0  0  0  0  0  0  0
    3.2693    5.3680    4.0432 C   0  0  0  0  0  0  0  0  0  0  0  0
    2.3861    5.3127    4.9376 O   0  0  0  0  0  0  0  0  0  0  0  0
    1.7564    5.0542    2.0974 C   0  0  0  0  0  0  0  0  0  0  0  0
    0.4975    5.1371    2.8801 C   0  0  0  0  0  0  0  0  0  0  0  0
   -0.5237    4.3424    2.5670 C   0  0  0  0  0  0  0  0  0  0  0  0
   -0.3373    3.3161    1.4798 C   0  0  0  0  0  0  0  0  0  0  0  0
    0.2736    4.0210    0.2564 C   0  0  0  0  0  0  0  0  0  0  0  0
    1.6556    4.6180    0.6341 C   0  0  0  0  0  0  0  0  0  0  0  0
   -1.5766    2.4991    1.2353 C   0  0  0  0  0  0  0  0  0  0  0  0
   -2.0971    1.7429    2.2844 C   0  0  0  0  0  0  0  0  0  0  0  0
   -2.6150    0.5176    1.8657 C   0  0  0  0  0  0  0  0  0  0  0  0
   -2.4602   -0.8053    2.5834 C   0  0  0  0  0  0  0  0  0  0  0  0
   -1.2644   -0.8603    3.5523 C   0  0  0  0  0  0  0  0  0  0  0  0
   -1.3275   -1.6135    4.7430 C   0  0  0  0  0  0  0  0  0  0  0  0
   -0.2142   -1.7265    5.5788 C   0  0  0  0  0  0  0  0  0  0  0  0
    1.0087   -1.1273    5.2240 C   0  0  0  0  0  0  0  0  0  0  0  0
    2.1628   -1.2157    6.0217 O   0  0  0  0  0  0  0  0  0  0  0  0
    2.2408   -1.8940    7.2751 C   0  0  0  0  0  0  0  0  0  0  0  0
    1.6365   -1.0443    8.3953 C   0  0  0  0  0  0  0  0  0  0  0  0
    1.0977   -0.4302    4.0182 C   0  0  0  0  0  0  0  0  0  0  0  0
   -0.0144   -0.3167    3.1816 C   0  0  0  0  0  0  0  0  0  0  0  0
   -3.8242   -1.0627    3.2436 C   0  0  0  0  0  0  0  0  0  0  0  0
   -4.7843   -1.9280    2.6776 C   0  0  0  0  0  0  0  0  0  0  0  0
   -6.1041   -1.9382    3.1463 C   0  0  0  0  0  0  0  0  0  0  0  0
   -6.4898   -1.0834    4.1970 C   0  0  0  0  0  0  0  0  0  0  0  0
   -7.8157   -0.9909    4.6574 O   0  0  0  0  0  0  0  0  0  0  0  0
   -8.9632   -1.5346    4.0012 C   0  0  0  0  0  0  0  0  0  0  0  0
   -9.2732   -0.7607    2.7258 C   0  0  0  0  0  0  0  0  0  0  0  0
   -5.5290   -0.2696    4.8035 C   0  0  0  0  0  0  0  0  0  0  0  0
   -4.2151   -0.2509    4.3292 C   0  0  0  0  0  0  0  0  0  0  0  0
   -2.1859   -1.6932    1.3780 C   0  0  0  0  0  0  0  0  0  0  0  0
   -2.5658   -1.0513    0.2002 C   0  0  0  0  0  0  0  0  0  0  0  0
   -2.7336    0.3582    0.5018 C   0  0  0  0  0  0  0  0  0  0  0  0
   -1.8942    1.6398   -0.1997 S   0  0  0  0  0  0  0  0  0  0  0  0
   -2.4086   -1.6576   -1.0538 C   0  0  0  0  0  0  0  0  0  0  0  0
   -1.7040   -2.8768   -1.0929 C   0  0  0  0  0  0  0  0  0  0  0  0
   -1.2127   -3.6414   -2.3182 C   0  0  0  0  0  0  0  0  0  0  0  0
   -1.2654   -2.7567   -3.5673 C   0  0  0  0  0  0  0  0  0  0  0  0
   -0.3482   -1.6972   -3.7625 C   0  0  0  0  0  0  0  0  0  0  0  0
   -0.4882   -0.8219   -4.8426 C   0  0  0  0  0  0  0  0  0  0  0  0
   -1.5657   -0.9408   -5.7288 C   0  0  0  0  0  0  0  0  0  0  0  0
   -1.6617   -0.0179   -6.7822 O   0  0  0  0  0  0  0  0  0  0  0  0
   -2.6659   -0.0247   -7.8031 C   0  0  0  0  0  0  0  0  0  0  0  0
   -2.3537   -1.0882   -8.8532 C   0  0  0  0  0  0  0  0  0  0  0  0
   -2.5174   -1.9541   -5.5073 C   0  0  0  0  0  0  0  0  0  0  0  0
   -2.3754   -2.8414   -4.4379 C   0  0  0  0  0  0  0  0  0  0  0  0
   -1.9238   -4.9981   -2.4895 C   0  0  0  0  0  0  0  0  0  0  0  0
   -2.8665   -5.4767   -1.5510 C   0  0  0  0  0  0  0  0  0  0  0  0
   -3.2817   -6.8117   -1.5629 C   0  0  0  0  0  0  0  0  0  0  0  0
   -2.7880   -7.6983   -2.5365 C   0  0  0  0  0  0  0  0  0  0  0  0
   -3.0898   -9.0736   -2.5326 O   0  0  0  0  0  0  0  0  0  0  0  0
   -3.7178   -9.7776   -1.4542 C   0  0  0  0  0  0  0  0  0  0  0  0
   -5.2325   -9.6796   -1.5461 C   0  0  0  0  0  0  0  0  0  0  0  0
   -1.9242   -7.2130   -3.5237 C   0  0  0  0  0  0  0  0  0  0  0  0
   -1.4874   -5.8810   -3.4966 C   0  0  0  0  0  0  0  0  0  0  0  0
    0.1637   -3.9855   -1.7991 C   0  0  0  0  0  0  0  0  0  0  0  0
    0.2120   -3.9255   -0.4273 C   0  0  0  0  0  0  0  0  0  0  0  0
   -1.0017   -3.2859    0.0395 C   0  0  0  0  0  0  0  0  0  0  0  0
   -1.2879   -2.7763    1.3066 C   0  0  0  0  0  0  0  0  0  0  0  0
    1.7937   -3.6066    0.0252 S   0  0  0  0  0  0  0  0  0  0  0  0
    2.4520   -3.6816   -1.5428 C   0  0  0  0  0  0  0  0  0  0  0  0
    1.4079   -3.9354   -2.4393 C   0  0  0  0  0  0  0  0  0  0  0  0
    3.8933   -3.3432   -1.8702 C   0  0  0  0  0  0  0  0  0  0  0  0
    4.3053   -2.0809   -1.1579 C   0  0  0  0  0  0  0  0  0  0  0  0
    4.2101   -0.8750   -1.7266 C   0  0  0  0  0  0  0  0  0  0  0  0
    3.7940   -0.6983   -3.1438 C   0  0  0  0  0  0  0  0  0  0  0  0
    3.5383    0.5483   -3.6361 C   0  0  0  0  0  0  0  0  0  0  0  0
    3.7252    1.9901   -2.7873 S   0  0  0  0  0  0  0  0  0  0  0  0
    3.2785    3.0206   -4.0430 C   0  0  0  0  0  0  0  0  0  0  0  0
    3.2657    4.3730   -3.9099 C   0  0  0  0  0  0  0  0  0  0  0  0
    3.7076    4.9836   -2.6825 C   0  0  0  0  0  0  0  0  0  0  0  0
    4.0760    5.4803   -1.7042 N   0  0  0  0  0  0  0  0  0  0  0  0
    2.8523    5.2943   -4.9361 C   0  0  0  0  0  0  0  0  0  0  0  0
    2.5324    6.0534   -5.7470 N   0  0  0  0  0  0  0  0  0  0  0  0
    2.9607    2.2699   -5.1508 N   0  0  0  0  0  0  0  0  0  0  0  0
    2.5457    2.7641   -6.4799 C   0  0  0  0  0  0  0  0  0  0  0  0
    1.0367    3.0126   -6.5173 C   0  0  0  0  0  0  0  0  0  0  0  0
    3.0923    0.9157   -4.9176 C   0  0  0  0  0  0  0  0  0  0  0  0
    2.8100    0.0694   -5.8085 O   0  0  0  0  0  0  0  0  0  0  0  0
    3.6327   -1.9353   -4.0105 C   0  0  0  0  0  0  0  0  0  0  0  0
    4.2073   -3.2151   -3.3756 C   0  0  0  0  0  0  0  0  0  0  0  0
    4.4695    3.4339    6.2709 H   0  0  0  0  0  0  0  0  0  0  0  0
    6.1466    3.5929    5.5869 H   0  0  0  0  0  0  0  0  0  0  0  0
    5.8115    4.1097    7.2749 H   0  0  0  0  0  0  0  0  0  0  0  0
    5.8908    6.1736    5.9241 H   0  0  0  0  0  0  0  0  0  0  0  0
    4.2454    5.8737    6.4233 H   0  0  0  0  0  0  0  0  0  0  0  0
    0.3830    5.8590    3.6768 H   0  0  0  0  0  0  0  0  0  0  0  0
   -1.4627    4.4380    3.0978 H   0  0  0  0  0  0  0  0  0  0  0  0
    0.4315    2.5878    1.8333 H   0  0  0  0  0  0  0  0  0  0  0  0
    0.4009    3.2987   -0.5830 H   0  0  0  0  0  0  0  0  0  0  0  0
   -0.4101    4.8302   -0.0856 H   0  0  0  0  0  0  0  0  0  0  0  0
    1.8697    5.4836   -0.0294 H   0  0  0  0  0  0  0  0  0  0  0  0
    2.4219    3.8340    0.4331 H   0  0  0  0  0  0  0  0  0  0  0  0
   -1.8315    1.9175    3.3137 H   0  0  0  0  0  0  0  0  0  0  0  0
   -2.2321   -2.1396    5.0258 H   0  0  0  0  0  0  0  0  0  0  0  0
   -0.3153   -2.3020    6.4868 H   0  0  0  0  0  0  0  0  0  0  0  0
    3.3101   -2.0930    7.5076 H   0  0  0  0  0  0  0  0  0  0  0  0
    1.7444   -2.8875    7.2063 H   0  0  0  0  0  0  0  0  0  0  0  0
    1.1993   -1.7036    9.1779 H   0  0  0  0  0  0  0  0  0  0  0  0
    0.8551   -0.3575    8.0065 H   0  0  0  0  0  0  0  0  0  0  0  0
    2.4339   -0.4308    8.8639 H   0  0  0  0  0  0  0  0  0  0  0  0
    2.0386    0.0273    3.7253 H   0  0  0  0  0  0  0  0  0  0  0  0
    0.1131    0.1919    2.2283 H   0  0  0  0  0  0  0  0  0  0  0  0
   -4.5453   -2.5626    1.8362 H   0  0  0  0  0  0  0  0  0  0  0  0
   -6.8186   -2.5954    2.6706 H   0  0  0  0  0  0  0  0  0  0  0  0
   -8.8274   -2.6137    3.7846 H   0  0  0  0  0  0  0  0  0  0  0  0
   -9.8316   -1.4376    4.6866 H   0  0  0  0  0  0  0  0  0  0  0  0
   -9.3314    0.3317    2.9307 H   0  0  0  0  0  0  0  0  0  0  0  0
   -8.5003   -0.9578    1.9541 H   0  0  0  0  0  0  0  0  0  0  0  0
  -10.2523   -1.0945    2.3039 H   0  0  0  0  0  0  0  0  0  0  0  0
   -5.8116    0.3909    5.6124 H   0  0  0  0  0  0  0  0  0  0  0  0
   -3.5005    0.4311    4.7830 H   0  0  0  0  0  0  0  0  0  0  0  0
   -2.7130   -1.1458   -1.9606 H   0  0  0  0  0  0  0  0  0  0  0  0
    0.4560   -1.5264   -3.0638 H   0  0  0  0  0  0  0  0  0  0  0  0
    0.2228   -0.0164   -4.9732 H   0  0  0  0  0  0  0  0  0  0  0  0
   -3.6789   -0.1745   -7.3726 H   0  0  0  0  0  0  0  0  0  0  0  0
   -2.6587    0.9660   -8.2997 H   0  0  0  0  0  0  0  0  0  0  0  0
   -2.3991   -2.1044   -8.4103 H   0  0  0  0  0  0  0  0  0  0  0  0
   -1.3350   -0.9209   -9.2639 H   0  0  0  0  0  0  0  0  0  0  0  0
   -3.0950   -1.0230   -9.6796 H   0  0  0  0  0  0  0  0  0  0  0  0
   -3.3854   -2.0590   -6.1463 H   0  0  0  0  0  0  0  0  0  0  0  0
   -3.1522   -3.5782   -4.2904 H   0  0  0  0  0  0  0  0  0  0  0  0
   -3.2434   -4.8463   -0.7567 H   0  0  0  0  0  0  0  0  0  0  0  0
   -3.9442   -7.1527   -0.7776 H   0  0  0  0  0  0  0  0  0  0  0  0
   -3.3545   -9.3961   -0.4741 H   0  0  0  0  0  0  0  0  0  0  0  0
   -3.4314  -10.8463   -1.5113 H   0  0  0  0  0  0  0  0  0  0  0  0
   -5.6033  -10.2142   -2.4509 H   0  0  0  0  0  0  0  0  0  0  0  0
   -5.6942  -10.1275   -0.6444 H   0  0  0  0  0  0  0  0  0  0  0  0
   -5.5606   -8.6218   -1.6251 H   0  0  0  0  0  0  0  0  0  0  0  0
   -1.5431   -7.8834   -4.2879 H   0  0  0  0  0  0  0  0  0  0  0  0
   -0.7748   -5.5444   -4.2457 H   0  0  0  0  0  0  0  0  0  0  0  0
   -0.7320   -3.1112    2.1697 H   0  0  0  0  0  0  0  0  0  0  0  0
    1.5071   -3.9389   -3.5116 H   0  0  0  0  0  0  0  0  0  0  0  0
    4.5077   -4.1696   -1.4699 H   0  0  0  0  0  0  0  0  0  0  0  0
    4.6323   -2.1514   -0.1206 H   0  0  0  0  0  0  0  0  0  0  0  0
    4.4755   -0.0183   -1.1228 H   0  0  0  0  0  0  0  0  0  0  0  0
    2.7933    2.0270   -7.2677 H   0  0  0  0  0  0  0  0  0  0  0  0
    3.1175    3.6598   -6.7713 H   0  0  0  0  0  0  0  0  0  0  0  0
    0.4939    2.0668   -6.3176 H   0  0  0  0  0  0  0  0  0  0  0  0
    0.7432    3.3633   -7.5314 H   0  0  0  0  0  0  0  0  0  0  0  0
    0.7354    3.7738   -5.7702 H   0  0  0  0  0  0  0  0  0  0  0  0
    4.1686   -1.7853   -4.9773 H   0  0  0  0  0  0  0  0  0  0  0  0
    2.5577   -2.0721   -4.2367 H   0  0  0  0  0  0  0  0  0  0  0  0
    3.8480   -4.1112   -3.9294 H   0  0  0  0  0  0  0  0  0  0  0  0
    5.3144   -3.1902   -3.4900 H   0  0  0  0  0  0  0  0  0  0  0  0
  1  2  1  0
  2  3  1  0
  3  4  1  0
  4  5  2  3
  5  6  1  0
  6  7  3  0
  5  8  1  0
  8  9  3  0
  4 10  1  0
 10 11  1  0
 11 12  1  0
 12 13  2  0
 11 14  2  3
 14 15  1  0
 15 16  2  0
 16 17  1  0
 17 18  1  0
 18 19  1  0
 17 20  1  0
 20 21  2  0
 21 22  1  0
 22 23  1  0
 23 24  1  0
 24 25  2  0
 25 26  1  0
 26 27  2  0
 27 28  1  0
 28 29  1  0
 29 30  1  0
 27 31  1  0
 31 32  2  0
 23 33  1  0
 33 34  2  0
 34 35  1  0
 35 36  2  0
 36 37  1  0
 37 38  1  0
 38 39  1  0
 36 40  1  0
 40 41  2  0
 23 42  1  0
 42 43  2  0
 43 44  1  0
 44 45  1  0
 43 46  1  0
 46 47  2  0
 47 48  1  0
 48 49  1  0
 49 50  2  0
 50 51  1  0
 51 52  2  0
 52 53  1  0
 53 54  1  0
 54 55  1  0
 52 56  1  0
 56 57  2  0
 48 58  1  0
 58 59  2  0
 59 60  1  0
 60 61  2  0
 61 62  1  0
 62 63  1  0
 63 64  1  0
 61 65  1  0
 65 66  2  0
 48 67  1  0
 67 68  2  0
 68 69  1  0
 69 70  2  0
 68 71  1  0
 71 72  1  0
 72 73  2  0
 72 74  1  0
 74 75  1  0
 75 76  2  0
 76 77  1  0
 77 78  2  3
 78 79  1  0
 79 80  1  0
 80 81  2  3
 81 82  1  0
 82 83  3  0
 81 84  1  0
 84 85  3  0
 80 86  1  0
 86 87  1  0
 87 88  1  0
 86 89  1  0
 89 90  2  0
 77 91  1  0
 91 92  1  0
 12  3  1  0
 19 14  1  0
 45 20  1  0
 69 47  1  0
 92 74  1  0
 44 22  2  0
 57 49  1  0
 66 58  1  0
 73 67  1  0
 89 78  1  0
 32 24  1  0
 41 33  1  0
 70 42  1  0
  1 93  1  0
  1 94  1  0
  1 95  1  0
  2 96  1  0
  2 97  1  0
 15 98  1  0
 16 99  1  0
 17100  1  0
 18101  1  0
 18102  1  0
 19103  1  0
 19104  1  0
 21105  1  0
 25106  1  0
 26107  1  0
 29108  1  0
 29109  1  0
 30110  1  0
 30111  1  0
 30112  1  0
 31113  1  0
 32114  1  0
 34115  1  0
 35116  1  0
 38117  1  0
 38118  1  0
 39119  1  0
 39120  1  0
 39121  1  0
 40122  1  0
 41123  1  0
 46124  1  0
 50125  1  0
 51126  1  0
 54127  1  0
 54128  1  0
 55129  1  0
 55130  1  0
 55131  1  0
 56132  1  0
 57133  1  0
 59134  1  0
 60135  1  0
 63136  1  0
 63137  1  0
 64138  1  0
 64139  1  0
 64140  1  0
 65141  1  0
 66142  1  0
 70143  1  0
 73144  1  0
 74145  1  0
 75146  1  0
 76147  1  0
 87148  1  0
 87149  1  0
 88150  1  0
 88151  1  0
 88152  1  0
 91153  1  0
 91154  1  0
 92155  1  0
 92156  1  0
M  END

