
     RDKit          3D

110121  0  0  0  0  0  0  0  0999 V2000
    6.8766    1.8052    2.7958 C   0  0  0  0  0  0  0  0  0  0  0  0
    5.8128    0.9543    2.1006 C   0  0  0  0  0  0  0  0  0  0  0  0
    6.4321   -0.1452    1.3374 N   0  0  0  0  0  0  0  0  0  0  0  0
    7.1450   -0.0404    0.1643 C   0  0  0  0  0  0  0  0  0  0  0  0
    7.3127    1.0602   -0.6161 C   0  0  0  0  0  0  0  0  0  0  0  0
    8.1601    1.0031   -1.7867 C   0  0  0  0  0  0  0  0  0  0  0  0
    8.8435    0.9579   -2.7222 N   0  0  0  0  0  0  0  0  0  0  0  0
    6.6449    2.3250   -0.4143 C   0  0  0  0  0  0  0  0  0  0  0  0
    6.1041    3.3418   -0.2814 N   0  0  0  0  0  0  0  0  0  0  0  0
    7.7821   -1.5437   -0.2524 S   0  0  0  0  0  0  0  0  0  0  0  0
    7.1406   -2.3788    1.0564 C   0  0  0  0  0  0  0  0  0  0  0  0
    6.4437   -1.4316    1.8274 C   0  0  0  0  0  0  0  0  0  0  0  0
    5.8223   -1.7381    2.8827 O   0  0  0  0  0  0  0  0  0  0  0  0
    7.2273   -3.7183    1.2318 C   0  0  0  0  0  0  0  0  0  0  0  0
    6.6913   -4.4041    2.4421 C   0  0  0  0  0  0  0  0  0  0  0  0
    6.1937   -5.6451    2.3421 C   0  0  0  0  0  0  0  0  0  0  0  0
    6.1010   -6.3128    0.9889 C   0  0  0  0  0  0  0  0  0  0  0  0
    7.4639   -6.0885    0.2971 C   0  0  0  0  0  0  0  0  0  0  0  0
    7.7602   -4.5867    0.1021 C   0  0  0  0  0  0  0  0  0  0  0  0
    4.9283   -5.7463    0.1893 C   0  0  0  0  0  0  0  0  0  0  0  0
    4.5391   -6.0657   -1.1368 C   0  0  0  0  0  0  0  0  0  0  0  0
    5.1305   -7.1493   -1.9989 C   0  0  0  0  0  0  0  0  0  0  0  0
    5.9355   -6.5653   -3.1582 C   0  0  0  0  0  0  0  0  0  0  0  0
    3.4686   -5.2590   -1.5565 C   0  0  0  0  0  0  0  0  0  0  0  0
    2.5857   -5.1132   -3.0186 S   0  0  0  0  0  0  0  0  0  0  0  0
    1.6680   -3.8377   -2.3690 C   0  0  0  0  0  0  0  0  0  0  0  0
    0.5469   -3.1177   -2.6662 C   0  0  0  0  0  0  0  0  0  0  0  0
   -0.3188   -3.1487   -3.7687 C   0  0  0  0  0  0  0  0  0  0  0  0
   -1.5279   -2.3917   -3.7140 C   0  0  0  0  0  0  0  0  0  0  0  0
   -2.3374   -2.4359   -4.8012 N   0  0  0  0  0  0  0  0  0  0  0  0
   -1.4491   -3.4565   -5.7570 S   0  0  0  0  0  0  0  0  0  0  0  0
   -0.0883   -3.8584   -4.8991 N   0  0  0  0  0  0  0  0  0  0  0  0
   -1.7996   -1.6485   -2.5606 C   0  0  0  0  0  0  0  0  0  0  0  0
   -2.7834   -0.7465   -2.2605 C   0  0  0  0  0  0  0  0  0  0  0  0
   -4.0668    0.0424   -3.0456 S   0  0  0  0  0  0  0  0  0  0  0  0
   -4.1835    1.1746   -1.7681 C   0  0  0  0  0  0  0  0  0  0  0  0
   -4.9718    2.3045   -1.5505 C   0  0  0  0  0  0  0  0  0  0  0  0
   -6.0313    2.7943   -2.5001 C   0  0  0  0  0  0  0  0  0  0  0  0
   -7.4221    2.3991   -2.0181 C   0  0  0  0  0  0  0  0  0  0  0  0
   -4.6404    2.9166   -0.3234 C   0  0  0  0  0  0  0  0  0  0  0  0
   -3.3159    2.1089    0.3964 S   0  0  0  0  0  0  0  0  0  0  0  0
   -3.2299    0.9474   -0.8078 C   0  0  0  0  0  0  0  0  0  0  0  0
   -2.4374   -0.1505   -1.0889 C   0  0  0  0  0  0  0  0  0  0  0  0
   -1.2390   -0.5712   -0.6136 N   0  0  0  0  0  0  0  0  0  0  0  0
   -0.8990   -1.5770   -1.4835 C   0  0  0  0  0  0  0  0  0  0  0  0
    0.2586   -2.3877   -1.5028 C   0  0  0  0  0  0  0  0  0  0  0  0
    1.1138   -2.7182   -0.4791 N   0  0  0  0  0  0  0  0  0  0  0  0
    1.9827   -3.5720   -1.0785 C   0  0  0  0  0  0  0  0  0  0  0  0
    2.9948   -4.3900   -0.6140 C   0  0  0  0  0  0  0  0  0  0  0  0
    3.8692   -4.5358    0.7878 S   0  0  0  0  0  0  0  0  0  0  0  0
    0.7737   -2.7727    0.9531 C   0  0  0  0  0  0  0  0  0  0  0  0
    1.8485   -2.1098    1.8269 C   0  0  0  0  0  0  0  0  0  0  0  0
   -0.2969    0.3084    0.0956 C   0  0  0  0  0  0  0  0  0  0  0  0
    0.2243    1.4087   -0.8319 C   0  0  0  0  0  0  0  0  0  0  0  0
   -5.1896    4.1956    0.1545 C   0  0  0  0  0  0  0  0  0  0  0  0
   -5.7132    4.3844    1.3810 C   0  0  0  0  0  0  0  0  0  0  0  0
   -5.8289    3.3712    2.4365 C   0  0  0  0  0  0  0  0  0  0  0  0
   -5.7367    2.1186    2.2937 O   0  0  0  0  0  0  0  0  0  0  0  0
   -6.1467    4.0419    3.6770 C   0  0  0  0  0  0  0  0  0  0  0  0
   -6.2895    3.4845    4.9477 C   0  0  0  0  0  0  0  0  0  0  0  0
   -6.5858    4.3323    6.0363 C   0  0  0  0  0  0  0  0  0  0  0  0
   -6.7410    3.7406    7.4128 C   0  0  0  0  0  0  0  0  0  0  0  0
   -7.1676    4.6886    8.3284 F   0  0  0  0  0  0  0  0  0  0  0  0
   -7.6709    2.7159    7.3763 F   0  0  0  0  0  0  0  0  0  0  0  0
   -5.5250    3.2306    7.8359 F   0  0  0  0  0  0  0  0  0  0  0  0
   -6.6772    5.7244    5.8181 C   0  0  0  0  0  0  0  0  0  0  0  0
   -6.5381    6.2607    4.5295 C   0  0  0  0  0  0  0  0  0  0  0  0
   -6.2970    5.3994    3.4482 C   0  0  0  0  0  0  0  0  0  0  0  0
   -6.1638    5.6776    1.9853 C   0  0  0  0  0  0  0  0  0  0  0  0
   -6.5780    6.7936    1.3277 C   0  0  0  0  0  0  0  0  0  0  0  0
   -6.7282    6.8430   -0.1027 C   0  0  0  0  0  0  0  0  0  0  0  0
   -6.8559    6.8792   -1.2511 N   0  0  0  0  0  0  0  0  0  0  0  0
   -7.0137    7.9801    2.0127 C   0  0  0  0  0  0  0  0  0  0  0  0
   -7.3633    8.9462    2.5502 N   0  0  0  0  0  0  0  0  0  0  0  0
    7.6631    2.1292    2.0824 H   0  0  0  0  0  0  0  0  0  0  0  0
    7.3586    1.2082    3.5994 H   0  0  0  0  0  0  0  0  0  0  0  0
    6.4002    2.7097    3.2347 H   0  0  0  0  0  0  0  0  0  0  0  0
    5.1527    1.5612    1.4546 H   0  0  0  0  0  0  0  0  0  0  0  0
    5.1401    0.5604    2.8902 H   0  0  0  0  0  0  0  0  0  0  0  0
    6.7195   -3.9297    3.4158 H   0  0  0  0  0  0  0  0  0  0  0  0
    5.8409   -6.1590    3.2296 H   0  0  0  0  0  0  0  0  0  0  0  0
    5.9363   -7.4030    1.1362 H   0  0  0  0  0  0  0  0  0  0  0  0
    8.2675   -6.5423    0.9234 H   0  0  0  0  0  0  0  0  0  0  0  0
    7.5234   -6.6148   -0.6759 H   0  0  0  0  0  0  0  0  0  0  0  0
    8.8581   -4.4377    0.0049 H   0  0  0  0  0  0  0  0  0  0  0  0
    7.2922   -4.2707   -0.8594 H   0  0  0  0  0  0  0  0  0  0  0  0
    4.3023   -7.7618   -2.4067 H   0  0  0  0  0  0  0  0  0  0  0  0
    5.7648   -7.8377   -1.4023 H   0  0  0  0  0  0  0  0  0  0  0  0
    5.3117   -5.8632   -3.7488 H   0  0  0  0  0  0  0  0  0  0  0  0
    6.8296   -6.0299   -2.7873 H   0  0  0  0  0  0  0  0  0  0  0  0
    6.2530   -7.3848   -3.8359 H   0  0  0  0  0  0  0  0  0  0  0  0
   -5.9782    3.9014   -2.5807 H   0  0  0  0  0  0  0  0  0  0  0  0
   -5.8582    2.3784   -3.5163 H   0  0  0  0  0  0  0  0  0  0  0  0
   -7.6003    2.7613   -0.9845 H   0  0  0  0  0  0  0  0  0  0  0  0
   -8.1875    2.8538   -2.6797 H   0  0  0  0  0  0  0  0  0  0  0  0
   -7.5277    1.2952   -2.0373 H   0  0  0  0  0  0  0  0  0  0  0  0
   -0.2112   -2.3052    1.1513 H   0  0  0  0  0  0  0  0  0  0  0  0
    0.6571   -3.8340    1.2508 H   0  0  0  0  0  0  0  0  0  0  0  0
    2.2090   -2.8255    2.5996 H   0  0  0  0  0  0  0  0  0  0  0  0
    2.7108   -1.7723    1.2153 H   0  0  0  0  0  0  0  0  0  0  0  0
    1.4229   -1.2368    2.3617 H   0  0  0  0  0  0  0  0  0  0  0  0
   -0.7912    0.7624    0.9796 H   0  0  0  0  0  0  0  0  0  0  0  0
    0.5814   -0.2451    0.4501 H   0  0  0  0  0  0  0  0  0  0  0  0
    0.6994    0.9590   -1.7273 H   0  0  0  0  0  0  0  0  0  0  0  0
    0.9782    2.0208   -0.2950 H   0  0  0  0  0  0  0  0  0  0  0  0
   -0.6012    2.0734   -1.1672 H   0  0  0  0  0  0  0  0  0  0  0  0
   -5.1062    5.0171   -0.5378 H   0  0  0  0  0  0  0  0  0  0  0  0
   -6.1887    2.4149    5.0829 H   0  0  0  0  0  0  0  0  0  0  0  0
   -6.8752    6.4021    6.6371 H   0  0  0  0  0  0  0  0  0  0  0  0
   -6.6085    7.3302    4.4152 H   0  0  0  0  0  0  0  0  0  0  0  0
  1  2  1  0
  2  3  1  0
  3  4  1  0
  4  5  2  3
  5  6  1  0
  6  7  3  0
  5  8  1  0
  8  9  3  0
  4 10  1  0
 10 11  1  0
 11 12  1  0
 12 13  2  0
 11 14  2  3
 14 15  1  0
 15 16  2  0
 16 17  1  0
 17 18  1  0
 18 19  1  0
 17 20  1  0
 20 21  2  0
 21 22  1  0
 22 23  1  0
 21 24  1  0
 24 25  1  0
 25 26  1  0
 26 27  1  0
 27 28  1  0
 28 29  1  0
 29 30  2  0
 30 31  1  0
 31 32  1  0
 29 33  1  0
 33 34  1  0
 34 35  1  0
 35 36  1  0
 36 37  1  0
 37 38  1  0
 38 39  1  0
 37 40  2  0
 40 41  1  0
 41 42  1  0
 42 43  1  0
 43 44  1  0
 44 45  1  0
 45 46  1  0
 46 47  1  0
 47 48  1  0
 48 49  1  0
 49 50  1  0
 47 51  1  0
 51 52  1  0
 44 53  1  0
 53 54  1  0
 40 55  1  0
 55 56  2  3
 56 57  1  0
 57 58  2  0
 57 59  1  0
 59 60  2  0
 60 61  1  0
 61 62  1  0
 62 63  1  0
 62 64  1  0
 62 65  1  0
 61 66  2  0
 66 67  1  0
 67 68  2  0
 68 69  1  0
 69 70  2  3
 70 71  1  0
 71 72  3  0
 70 73  1  0
 73 74  3  0
 12  3  1  0
 19 14  1  0
 50 20  1  0
 69 56  1  0
 49 24  2  0
 68 59  1  0
 48 26  2  0
 46 27  2  0
 32 28  2  0
 45 33  2  0
 43 34  2  0
 42 36  2  0
  1 75  1  0
  1 76  1  0
  1 77  1  0
  2 78  1  0
  2 79  1  0
 15 80  1  0
 16 81  1  0
 17 82  1  0
 18 83  1  0
 18 84  1  0
 19 85  1  0
 19 86  1  0
 22 87  1  0
 22 88  1  0
 23 89  1  0
 23 90  1  0
 23 91  1  0
 38 92  1  0
 38 93  1  0
 39 94  1  0
 39 95  1  0
 39 96  1  0
 51 97  1  0
 51 98  1  0
 52 99  1  0
 52100  1  0
 52101  1  0
 53102  1  0
 53103  1  0
 54104  1  0
 54105  1  0
 54106  1  0
 55107  1  0
 60108  1  0
 66109  1  0
 67110  1  0
M  END

