
     RDKit          3D

107118  0  0  0  0  0  0  0  0999 V2000
   -4.3144   -1.6460    5.1113 C   0  0  0  0  0  0  0  0  0  0  0  0
   -5.6619   -2.3495    4.9658 C   0  0  0  0  0  0  0  0  0  0  0  0
   -5.5016   -3.6505    4.2893 N   0  0  0  0  0  0  0  0  0  0  0  0
   -5.1642   -4.8522    4.8681 C   0  0  0  0  0  0  0  0  0  0  0  0
   -4.8903   -5.1137    6.1745 C   0  0  0  0  0  0  0  0  0  0  0  0
   -4.5558   -6.4544    6.5929 C   0  0  0  0  0  0  0  0  0  0  0  0
   -4.2865   -7.5286    6.9273 N   0  0  0  0  0  0  0  0  0  0  0  0
   -4.8752   -4.1305    7.2248 C   0  0  0  0  0  0  0  0  0  0  0  0
   -4.8572   -3.3502    8.0798 N   0  0  0  0  0  0  0  0  0  0  0  0
   -5.1106   -6.0473    3.6777 S   0  0  0  0  0  0  0  0  0  0  0  0
   -5.4943   -5.0451    2.3843 C   0  0  0  0  0  0  0  0  0  0  0  0
   -5.6596   -3.7586    2.9268 C   0  0  0  0  0  0  0  0  0  0  0  0
   -5.9271   -2.7512    2.2150 O   0  0  0  0  0  0  0  0  0  0  0  0
   -5.5883   -5.4383    1.0892 C   0  0  0  0  0  0  0  0  0  0  0  0
   -5.3403   -6.8587    0.7203 C   0  0  0  0  0  0  0  0  0  0  0  0
   -5.1105   -7.2178   -0.5453 C   0  0  0  0  0  0  0  0  0  0  0  0
   -4.9937   -6.1999   -1.6484 C   0  0  0  0  0  0  0  0  0  0  0  0
   -6.0678   -5.1175   -1.4014 C   0  0  0  0  0  0  0  0  0  0  0  0
   -5.9091   -4.4489   -0.0201 C   0  0  0  0  0  0  0  0  0  0  0  0
   -3.5827   -5.6279   -1.7703 C   0  0  0  0  0  0  0  0  0  0  0  0
   -2.3404   -6.3182   -1.6822 C   0  0  0  0  0  0  0  0  0  0  0  0
   -2.1335   -7.7827   -1.3860 C   0  0  0  0  0  0  0  0  0  0  0  0
   -2.4977   -8.6429   -2.5921 C   0  0  0  0  0  0  0  0  0  0  0  0
   -1.2675   -5.4597   -1.9527 C   0  0  0  0  0  0  0  0  0  0  0  0
    0.4151   -5.6127   -1.7431 S   0  0  0  0  0  0  0  0  0  0  0  0
    0.6602   -3.9835   -2.1541 C   0  0  0  0  0  0  0  0  0  0  0  0
    1.5821   -3.0385   -1.7986 C   0  0  0  0  0  0  0  0  0  0  0  0
    2.7721   -3.1805   -1.0707 C   0  0  0  0  0  0  0  0  0  0  0  0
    3.3765   -2.0197   -0.5068 C   0  0  0  0  0  0  0  0  0  0  0  0
    4.5119   -2.2006    0.2114 N   0  0  0  0  0  0  0  0  0  0  0  0
    4.6560   -3.8466    0.0910 S   0  0  0  0  0  0  0  0  0  0  0  0
    3.3738   -4.3694   -0.8177 N   0  0  0  0  0  0  0  0  0  0  0  0
    2.7718   -0.7794   -0.7237 C   0  0  0  0  0  0  0  0  0  0  0  0
    3.1693    0.4856   -0.4107 C   0  0  0  0  0  0  0  0  0  0  0  0
    4.4549    1.2737    0.3669 S   0  0  0  0  0  0  0  0  0  0  0  0
    3.8586    2.7886   -0.1501 C   0  0  0  0  0  0  0  0  0  0  0  0
    4.2556    4.1043    0.0904 C   0  0  0  0  0  0  0  0  0  0  0  0
    5.3378    4.4811    1.0659 C   0  0  0  0  0  0  0  0  0  0  0  0
    4.7627    4.6318    2.4701 C   0  0  0  0  0  0  0  0  0  0  0  0
    3.3784    5.0087   -0.5423 C   0  0  0  0  0  0  0  0  0  0  0  0
    2.1350    4.1607   -1.3425 S   0  0  0  0  0  0  0  0  0  0  0  0
    2.7272    2.6543   -0.9149 C   0  0  0  0  0  0  0  0  0  0  0  0
    2.3209    1.3353   -1.0356 C   0  0  0  0  0  0  0  0  0  0  0  0
    1.3577    0.6990   -1.7471 N   0  0  0  0  0  0  0  0  0  0  0  0
    1.6084   -0.6287   -1.4967 C   0  0  0  0  0  0  0  0  0  0  0  0
    0.9442   -1.7953   -1.9649 C   0  0  0  0  0  0  0  0  0  0  0  0
   -0.3773   -1.9758   -2.2993 N   0  0  0  0  0  0  0  0  0  0  0  0
   -0.5041   -3.3256   -2.4073 C   0  0  0  0  0  0  0  0  0  0  0  0
   -1.6025   -4.1730   -2.2768 C   0  0  0  0  0  0  0  0  0  0  0  0
   -3.2616   -4.0081   -2.2207 S   0  0  0  0  0  0  0  0  0  0  0  0
   -1.5038   -1.0688   -2.0505 C   0  0  0  0  0  0  0  0  0  0  0  0
   -2.3031   -0.8154   -3.3307 C   0  0  0  0  0  0  0  0  0  0  0  0
    0.7059    1.2702   -2.9309 C   0  0  0  0  0  0  0  0  0  0  0  0
   -0.4070    2.2545   -2.5523 C   0  0  0  0  0  0  0  0  0  0  0  0
    3.3698    6.4680   -0.3662 C   0  0  0  0  0  0  0  0  0  0  0  0
    4.3185    7.2830   -0.8635 C   0  0  0  0  0  0  0  0  0  0  0  0
    5.5177    6.8558   -1.5917 C   0  0  0  0  0  0  0  0  0  0  0  0
    5.7097    5.7219   -2.1068 O   0  0  0  0  0  0  0  0  0  0  0  0
    6.4586    7.9620   -1.6190 C   0  0  0  0  0  0  0  0  0  0  0  0
    7.7752    7.9915   -2.0988 C   0  0  0  0  0  0  0  0  0  0  0  0
    8.5107    6.6033   -2.8833 Cl  0  0  0  0  0  0  0  0  0  0  0  0
    8.5213    9.1664   -1.9253 C   0  0  0  0  0  0  0  0  0  0  0  0
    7.9621   10.2695   -1.2607 C   0  0  0  0  0  0  0  0  0  0  0  0
    6.6435   10.2223   -0.7852 C   0  0  0  0  0  0  0  0  0  0  0  0
    5.8810    9.0622   -1.0010 C   0  0  0  0  0  0  0  0  0  0  0  0
    4.4773    8.7473   -0.6111 C   0  0  0  0  0  0  0  0  0  0  0  0
    3.4928    9.6410   -0.3304 C   0  0  0  0  0  0  0  0  0  0  0  0
    2.1067    9.2604   -0.2377 C   0  0  0  0  0  0  0  0  0  0  0  0
    0.9889    8.9638   -0.1680 N   0  0  0  0  0  0  0  0  0  0  0  0
    3.7291   11.0601   -0.2637 C   0  0  0  0  0  0  0  0  0  0  0  0
    3.9061   12.2024   -0.2123 N   0  0  0  0  0  0  0  0  0  0  0  0
   -3.8940   -1.4205    4.1089 H   0  0  0  0  0  0  0  0  0  0  0  0
   -3.5918   -2.2795    5.6618 H   0  0  0  0  0  0  0  0  0  0  0  0
   -4.4503   -0.6929    5.6641 H   0  0  0  0  0  0  0  0  0  0  0  0
   -6.3349   -1.6861    4.3790 H   0  0  0  0  0  0  0  0  0  0  0  0
   -6.1788   -2.4579    5.9378 H   0  0  0  0  0  0  0  0  0  0  0  0
   -5.3813   -7.6395    1.4707 H   0  0  0  0  0  0  0  0  0  0  0  0
   -5.0217   -8.2697   -0.7859 H   0  0  0  0  0  0  0  0  0  0  0  0
   -5.2319   -6.7020   -2.6107 H   0  0  0  0  0  0  0  0  0  0  0  0
   -7.0728   -5.5948   -1.4505 H   0  0  0  0  0  0  0  0  0  0  0  0
   -6.0467   -4.3473   -2.2017 H   0  0  0  0  0  0  0  0  0  0  0  0
   -5.0994   -3.6902   -0.0709 H   0  0  0  0  0  0  0  0  0  0  0  0
   -6.8634   -3.9278    0.2115 H   0  0  0  0  0  0  0  0  0  0  0  0
   -1.0665   -7.9725   -1.1389 H   0  0  0  0  0  0  0  0  0  0  0  0
   -2.7031   -8.0943   -0.4897 H   0  0  0  0  0  0  0  0  0  0  0  0
   -3.5695   -8.5251   -2.8504 H   0  0  0  0  0  0  0  0  0  0  0  0
   -1.8765   -8.3554   -3.4685 H   0  0  0  0  0  0  0  0  0  0  0  0
   -2.3074   -9.7107   -2.3554 H   0  0  0  0  0  0  0  0  0  0  0  0
    5.8158    5.4347    0.7641 H   0  0  0  0  0  0  0  0  0  0  0  0
    6.1272    3.6996    1.0731 H   0  0  0  0  0  0  0  0  0  0  0  0
    5.5670    4.9373    3.1698 H   0  0  0  0  0  0  0  0  0  0  0  0
    3.9674    5.4068    2.4804 H   0  0  0  0  0  0  0  0  0  0  0  0
    4.3375    3.6661    2.8174 H   0  0  0  0  0  0  0  0  0  0  0  0
   -2.1731   -1.5145   -1.2851 H   0  0  0  0  0  0  0  0  0  0  0  0
   -1.1606   -0.1178   -1.6132 H   0  0  0  0  0  0  0  0  0  0  0  0
   -1.6927   -0.2983   -4.0935 H   0  0  0  0  0  0  0  0  0  0  0  0
   -2.6529   -1.7666   -3.7749 H   0  0  0  0  0  0  0  0  0  0  0  0
   -3.1868   -0.1863   -3.0980 H   0  0  0  0  0  0  0  0  0  0  0  0
    0.3141    0.4640   -3.5766 H   0  0  0  0  0  0  0  0  0  0  0  0
    1.4677    1.7939   -3.5487 H   0  0  0  0  0  0  0  0  0  0  0  0
   -0.5538    2.3019   -1.4521 H   0  0  0  0  0  0  0  0  0  0  0  0
   -1.3651    1.9548   -3.0258 H   0  0  0  0  0  0  0  0  0  0  0  0
   -0.1593    3.2714   -2.9209 H   0  0  0  0  0  0  0  0  0  0  0  0
    2.5707    6.8536    0.2426 H   0  0  0  0  0  0  0  0  0  0  0  0
    9.5418    9.2194   -2.2832 H   0  0  0  0  0  0  0  0  0  0  0  0
    8.5586   11.1591   -1.1056 H   0  0  0  0  0  0  0  0  0  0  0  0
    6.2658   11.0679   -0.2358 H   0  0  0  0  0  0  0  0  0  0  0  0
  1  2  1  0
  2  3  1  0
  3  4  1  0
  4  5  2  3
  5  6  1  0
  6  7  3  0
  5  8  1  0
  8  9  3  0
  4 10  1  0
 10 11  1  0
 11 12  1  0
 12 13  2  0
 11 14  2  3
 14 15  1  0
 15 16  2  0
 16 17  1  0
 17 18  1  0
 18 19  1  0
 17 20  1  0
 20 21  2  0
 21 22  1  0
 22 23  1  0
 21 24  1  0
 24 25  1  0
 25 26  1  0
 26 27  1  0
 27 28  1  0
 28 29  1  0
 29 30  2  0
 30 31  1  0
 31 32  1  0
 29 33  1  0
 33 34  1  0
 34 35  1  0
 35 36  1  0
 36 37  1  0
 37 38  1  0
 38 39  1  0
 37 40  2  0
 40 41  1  0
 41 42  1  0
 42 43  1  0
 43 44  1  0
 44 45  1  0
 45 46  1  0
 46 47  1  0
 47 48  1  0
 48 49  1  0
 49 50  1  0
 47 51  1  0
 51 52  1  0
 44 53  1  0
 53 54  1  0
 40 55  1  0
 55 56  2  3
 56 57  1  0
 57 58  2  0
 57 59  1  0
 59 60  2  0
 60 61  1  0
 60 62  1  0
 62 63  2  0
 63 64  1  0
 64 65  2  0
 65 66  1  0
 66 67  2  3
 67 68  1  0
 68 69  3  0
 67 70  1  0
 70 71  3  0
 12  3  1  0
 19 14  1  0
 50 20  1  0
 66 56  1  0
 49 24  2  0
 65 59  1  0
 48 26  2  0
 46 27  2  0
 32 28  2  0
 45 33  2  0
 43 34  2  0
 42 36  2  0
  1 72  1  0
  1 73  1  0
  1 74  1  0
  2 75  1  0
  2 76  1  0
 15 77  1  0
 16 78  1  0
 17 79  1  0
 18 80  1  0
 18 81  1  0
 19 82  1  0
 19 83  1  0
 22 84  1  0
 22 85  1  0
 23 86  1  0
 23 87  1  0
 23 88  1  0
 38 89  1  0
 38 90  1  0
 39 91  1  0
 39 92  1  0
 39 93  1  0
 51 94  1  0
 51 95  1  0
 52 96  1  0
 52 97  1  0
 52 98  1  0
 53 99  1  0
 53100  1  0
 54101  1  0
 54102  1  0
 54103  1  0
 55104  1  0
 62105  1  0
 63106  1  0
 64107  1  0
M  END

