
     RDKit          3D

136154  0  0  0  0  0  0  0  0999 V2000
  -11.2357   -4.6859   -4.5971 C   0  0  0  0  0  0  0  0  0  0  0  0
   -9.9297   -4.3505   -3.8779 C   0  0  0  0  0  0  0  0  0  0  0  0
   -9.0189   -5.5115   -3.8823 N   0  0  0  0  0  0  0  0  0  0  0  0
   -8.9765   -6.5410   -2.9723 C   0  0  0  0  0  0  0  0  0  0  0  0
   -9.7940   -6.7591   -1.9092 C   0  0  0  0  0  0  0  0  0  0  0  0
  -10.9016   -5.9213   -1.5308 C   0  0  0  0  0  0  0  0  0  0  0  0
  -11.7925   -5.2533   -1.1994 N   0  0  0  0  0  0  0  0  0  0  0  0
   -9.6017   -7.9161   -1.0685 C   0  0  0  0  0  0  0  0  0  0  0  0
   -9.4472   -8.8498   -0.3988 N   0  0  0  0  0  0  0  0  0  0  0  0
   -7.7179   -7.5875   -3.3712 S   0  0  0  0  0  0  0  0  0  0  0  0
   -7.2202   -6.7670   -4.7480 C   0  0  0  0  0  0  0  0  0  0  0  0
   -8.0652   -5.6505   -4.8640 C   0  0  0  0  0  0  0  0  0  0  0  0
   -7.9433   -4.7979   -5.7868 O   0  0  0  0  0  0  0  0  0  0  0  0
   -6.1578   -7.1214   -5.5099 C   0  0  0  0  0  0  0  0  0  0  0  0
   -5.8000   -6.3976   -6.7636 C   0  0  0  0  0  0  0  0  0  0  0  0
   -4.5265   -6.3499   -7.1713 C   0  0  0  0  0  0  0  0  0  0  0  0
   -3.4386   -6.9328   -6.3102 C   0  0  0  0  0  0  0  0  0  0  0  0
   -3.9189   -8.3243   -5.8427 C   0  0  0  0  0  0  0  0  0  0  0  0
   -5.2276   -8.2287   -5.0290 C   0  0  0  0  0  0  0  0  0  0  0  0
   -3.1345   -6.0202   -5.1357 C   0  0  0  0  0  0  0  0  0  0  0  0
   -2.4028   -6.5119   -3.6813 S   0  0  0  0  0  0  0  0  0  0  0  0
   -2.5824   -5.0406   -2.9017 C   0  0  0  0  0  0  0  0  0  0  0  0
   -2.2277   -4.6631   -1.5989 C   0  0  0  0  0  0  0  0  0  0  0  0
   -1.3473   -5.5605   -0.4492 S   0  0  0  0  0  0  0  0  0  0  0  0
   -1.2888   -4.2440    0.6032 C   0  0  0  0  0  0  0  0  0  0  0  0
   -0.4919   -3.8321    1.6334 C   0  0  0  0  0  0  0  0  0  0  0  0
    0.4199   -4.5122    2.4434 C   0  0  0  0  0  0  0  0  0  0  0  0
    1.2264   -3.7567    3.3449 C   0  0  0  0  0  0  0  0  0  0  0  0
    2.1190   -4.4526    4.0910 N   0  0  0  0  0  0  0  0  0  0  0  0
    1.7983   -5.9909    3.5653 S   0  0  0  0  0  0  0  0  0  0  0  0
    0.6037   -5.8589    2.4252 N   0  0  0  0  0  0  0  0  0  0  0  0
    1.1363   -2.3575    3.3212 C   0  0  0  0  0  0  0  0  0  0  0  0
    2.0297   -1.4221    3.7566 C   0  0  0  0  0  0  0  0  0  0  0  0
    3.5087   -1.4580    4.5581 S   0  0  0  0  0  0  0  0  0  0  0  0
    3.8937    0.1120    4.0328 C   0  0  0  0  0  0  0  0  0  0  0  0
    5.0716    0.8340    4.2914 C   0  0  0  0  0  0  0  0  0  0  0  0
    5.2775    2.0803    3.7024 C   0  0  0  0  0  0  0  0  0  0  0  0
    4.3083    2.5839    2.8410 C   0  0  0  0  0  0  0  0  0  0  0  0
    4.3446    3.6920    2.0829 N   0  0  0  0  0  0  0  0  0  0  0  0
    3.2145    3.6508    1.3813 N   0  0  0  0  0  0  0  0  0  0  0  0
    2.8414    4.6477    0.3893 C   0  0  0  0  0  0  0  0  0  0  0  0
    2.0007    5.7520    1.0251 C   0  0  0  0  0  0  0  0  0  0  0  0
    2.4731    2.5817    1.6497 N   0  0  0  0  0  0  0  0  0  0  0  0
    3.1541    1.8927    2.5753 C   0  0  0  0  0  0  0  0  0  0  0  0
    2.8910    0.6404    3.1772 C   0  0  0  0  0  0  0  0  0  0  0  0
    1.8156   -0.2732    3.0594 C   0  0  0  0  0  0  0  0  0  0  0  0
    0.7413   -0.3897    2.2201 N   0  0  0  0  0  0  0  0  0  0  0  0
    0.2940   -1.6761    2.4302 C   0  0  0  0  0  0  0  0  0  0  0  0
   -0.6298   -2.4405    1.6685 C   0  0  0  0  0  0  0  0  0  0  0  0
   -1.5871   -2.0165    0.7913 N   0  0  0  0  0  0  0  0  0  0  0  0
   -1.9121   -3.1428    0.1074 C   0  0  0  0  0  0  0  0  0  0  0  0
   -2.4562   -3.3404   -1.1623 C   0  0  0  0  0  0  0  0  0  0  0  0
   -3.0237   -2.4318   -2.0717 C   0  0  0  0  0  0  0  0  0  0  0  0
   -3.3874   -2.8247   -3.3335 C   0  0  0  0  0  0  0  0  0  0  0  0
   -3.1725   -4.1312   -3.7795 C   0  0  0  0  0  0  0  0  0  0  0  0
   -3.4676   -4.6629   -5.0361 C   0  0  0  0  0  0  0  0  0  0  0  0
   -3.9028   -1.7695   -3.9877 N   0  0  0  0  0  0  0  0  0  0  0  0
   -3.8421   -0.7722   -3.1081 N   0  0  0  0  0  0  0  0  0  0  0  0
   -4.3489    0.5700   -3.3759 C   0  0  0  0  0  0  0  0  0  0  0  0
   -5.6879    0.7750   -2.6733 C   0  0  0  0  0  0  0  0  0  0  0  0
   -3.3176   -1.1334   -1.9383 N   0  0  0  0  0  0  0  0  0  0  0  0
   -2.4857   -0.8783    1.0387 C   0  0  0  0  0  0  0  0  0  0  0  0
   -3.9253   -1.3215    1.2989 C   0  0  0  0  0  0  0  0  0  0  0  0
    0.4756    0.4578    1.0501 C   0  0  0  0  0  0  0  0  0  0  0  0
   -0.2604    1.7498    1.4366 C   0  0  0  0  0  0  0  0  0  0  0  0
    6.4815    2.6789    4.0508 C   0  0  0  0  0  0  0  0  0  0  0  0
    7.2251    1.8941    4.9316 C   0  0  0  0  0  0  0  0  0  0  0  0
    6.4028    0.4485    5.2575 S   0  0  0  0  0  0  0  0  0  0  0  0
    8.4930    2.3419    5.5267 C   0  0  0  0  0  0  0  0  0  0  0  0
    8.5341    3.5095    6.1988 C   0  0  0  0  0  0  0  0  0  0  0  0
    7.3308    4.1682    6.7164 C   0  0  0  0  0  0  0  0  0  0  0  0
    6.3353    3.5821    7.2165 O   0  0  0  0  0  0  0  0  0  0  0  0
    7.4015    5.5797    6.4244 C   0  0  0  0  0  0  0  0  0  0  0  0
    6.3044    6.4725    6.3887 C   0  0  0  0  0  0  0  0  0  0  0  0
    6.5434    7.6096    5.6452 C   0  0  0  0  0  0  0  0  0  0  0  0
    7.7874    7.8684    4.9804 C   0  0  0  0  0  0  0  0  0  0  0  0
    8.8811    7.0177    5.0492 C   0  0  0  0  0  0  0  0  0  0  0  0
    8.6565    5.8430    5.8195 C   0  0  0  0  0  0  0  0  0  0  0  0
    9.4741    4.6054    5.8508 C   0  0  0  0  0  0  0  0  0  0  0  0
   10.8187    4.5219    5.7246 C   0  0  0  0  0  0  0  0  0  0  0  0
   11.5154    3.2759    5.8965 C   0  0  0  0  0  0  0  0  0  0  0  0
   12.0867    2.2775    6.0354 N   0  0  0  0  0  0  0  0  0  0  0  0
   11.6395    5.6999    5.5832 C   0  0  0  0  0  0  0  0  0  0  0  0
   12.3049    6.6422    5.4943 N   0  0  0  0  0  0  0  0  0  0  0  0
    7.1905    9.0619    4.2907 C   0  0  0  0  0  0  0  0  0  0  0  0
    6.7994    8.9090    2.7859 C   0  0  0  0  0  0  0  0  0  0  0  0
    6.4000    7.4800    2.4887 C   0  0  0  0  0  0  0  0  0  0  0  0
    5.2501    7.2632    3.1303 C   0  0  0  0  0  0  0  0  0  0  0  0
    4.9073    8.5510    3.8464 C   0  0  0  0  0  0  0  0  0  0  0  0
    5.4189    9.5375    2.8140 C   0  0  0  0  0  0  0  0  0  0  0  0
    5.9260    8.8127    4.9965 C   0  0  0  0  0  0  0  0  0  0  0  0
  -11.9866   -3.8926   -4.3876 H   0  0  0  0  0  0  0  0  0  0  0  0
  -11.6413   -5.6586   -4.2484 H   0  0  0  0  0  0  0  0  0  0  0  0
  -11.0619   -4.7349   -5.6963 H   0  0  0  0  0  0  0  0  0  0  0  0
   -9.4600   -3.4831   -4.3913 H   0  0  0  0  0  0  0  0  0  0  0  0
  -10.1080   -3.9820   -2.8518 H   0  0  0  0  0  0  0  0  0  0  0  0
   -6.5645   -5.9512   -7.3871 H   0  0  0  0  0  0  0  0  0  0  0  0
   -4.2806   -5.8824   -8.1116 H   0  0  0  0  0  0  0  0  0  0  0  0
   -2.5128   -7.0461   -6.9177 H   0  0  0  0  0  0  0  0  0  0  0  0
   -4.0907   -8.9651   -6.7398 H   0  0  0  0  0  0  0  0  0  0  0  0
   -3.1311   -8.8269   -5.2370 H   0  0  0  0  0  0  0  0  0  0  0  0
   -5.7554   -9.2023   -5.0471 H   0  0  0  0  0  0  0  0  0  0  0  0
   -4.9484   -8.0175   -3.9772 H   0  0  0  0  0  0  0  0  0  0  0  0
    2.2546    4.1627   -0.4228 H   0  0  0  0  0  0  0  0  0  0  0  0
    3.7575    5.0858   -0.0666 H   0  0  0  0  0  0  0  0  0  0  0  0
    1.1522    5.3062    1.5888 H   0  0  0  0  0  0  0  0  0  0  0  0
    1.6008    6.4089    0.2212 H   0  0  0  0  0  0  0  0  0  0  0  0
    2.6296    6.3640    1.7072 H   0  0  0  0  0  0  0  0  0  0  0  0
   -3.9368   -4.0918   -5.8267 H   0  0  0  0  0  0  0  0  0  0  0  0
   -3.6176    1.3236   -3.0111 H   0  0  0  0  0  0  0  0  0  0  0  0
   -4.4819    0.7098   -4.4689 H   0  0  0  0  0  0  0  0  0  0  0  0
   -6.4293    0.0379   -3.0495 H   0  0  0  0  0  0  0  0  0  0  0  0
   -5.5703    0.6475   -1.5753 H   0  0  0  0  0  0  0  0  0  0  0  0
   -6.0604    1.8010   -2.8773 H   0  0  0  0  0  0  0  0  0  0  0  0
   -2.4535   -0.1644    0.1927 H   0  0  0  0  0  0  0  0  0  0  0  0
   -2.1567   -0.3512    1.9588 H   0  0  0  0  0  0  0  0  0  0  0  0
   -4.5236   -0.4554    1.6587 H   0  0  0  0  0  0  0  0  0  0  0  0
   -3.9574   -2.1142    2.0721 H   0  0  0  0  0  0  0  0  0  0  0  0
   -4.3983   -1.7001    0.3729 H   0  0  0  0  0  0  0  0  0  0  0  0
   -0.0991   -0.0806    0.2750 H   0  0  0  0  0  0  0  0  0  0  0  0
    1.4307    0.6812    0.5341 H   0  0  0  0  0  0  0  0  0  0  0  0
   -1.3542    1.6222    1.4233 H   0  0  0  0  0  0  0  0  0  0  0  0
    0.0291    2.0915    2.4473 H   0  0  0  0  0  0  0  0  0  0  0  0
   -0.0273    2.5479    0.6974 H   0  0  0  0  0  0  0  0  0  0  0  0
    6.7874    3.6614    3.7169 H   0  0  0  0  0  0  0  0  0  0  0  0
    9.3846    1.9582    5.0515 H   0  0  0  0  0  0  0  0  0  0  0  0
    5.3159    6.2213    6.7497 H   0  0  0  0  0  0  0  0  0  0  0  0
    9.7629    7.1853    4.4463 H   0  0  0  0  0  0  0  0  0  0  0  0
    7.6740   10.0237    4.5615 H   0  0  0  0  0  0  0  0  0  0  0  0
    7.5133    9.3580    2.0634 H   0  0  0  0  0  0  0  0  0  0  0  0
    6.9046    6.7717    1.8482 H   0  0  0  0  0  0  0  0  0  0  0  0
    4.6692    6.3454    3.1094 H   0  0  0  0  0  0  0  0  0  0  0  0
    3.8393    8.6595    4.1209 H   0  0  0  0  0  0  0  0  0  0  0  0
    4.8808    9.4737    1.8384 H   0  0  0  0  0  0  0  0  0  0  0  0
    5.4128   10.5932    3.1693 H   0  0  0  0  0  0  0  0  0  0  0  0
    5.6399    9.6170    5.7119 H   0  0  0  0  0  0  0  0  0  0  0  0
  1  2  1  0
  2  3  1  0
  3  4  1  0
  4  5  2  3
  5  6  1  0
  6  7  3  0
  5  8  1  0
  8  9  3  0
  4 10  1  0
 10 11  1  0
 11 12  1  0
 12 13  2  0
 11 14  2  3
 14 15  1  0
 15 16  2  0
 16 17  1  0
 17 18  1  0
 18 19  1  0
 17 20  1  0
 20 21  1  0
 21 22  1  0
 22 23  1  0
 23 24  1  0
 24 25  1  0
 25 26  1  0
 26 27  1  0
 27 28  1  0
 28 29  2  0
 29 30  1  0
 30 31  1  0
 28 32  1  0
 32 33  1  0
 33 34  1  0
 34 35  1  0
 35 36  1  0
 36 37  2  0
 37 38  1  0
 38 39  2  0
 39 40  1  0
 40 41  1  0
 41 42  1  0
 40 43  1  0
 43 44  2  0
 44 45  1  0
 45 46  1  0
 46 47  1  0
 47 48  1  0
 48 49  1  0
 49 50  1  0
 50 51  1  0
 51 52  1  0
 52 53  1  0
 53 54  1  0
 54 55  1  0
 55 56  1  0
 54 57  2  0
 57 58  1  0
 58 59  1  0
 59 60  1  0
 58 61  1  0
 50 62  1  0
 62 63  1  0
 47 64  1  0
 64 65  1  0
 37 66  1  0
 66 67  2  0
 67 68  1  0
 67 69  1  0
 69 70  2  3
 70 71  1  0
 71 72  2  0
 71 73  1  0
 73 74  2  0
 74 75  1  0
 75 76  2  0
 76 77  1  0
 77 78  2  0
 78 79  1  0
 79 80  2  3
 80 81  1  0
 81 82  3  0
 80 83  1  0
 83 84  3  0
 76 85  1  0
 85 86  1  0
 86 87  1  0
 87 88  2  0
 88 89  1  0
 89 90  1  0
 89 91  1  0
 12  3  1  0
 19 14  1  0
 56 20  2  0
 79 70  1  0
 91 85  1  0
 55 22  2  0
 78 73  1  0
 90 86  1  0
 52 23  2  0
 61 53  2  0
 91 75  1  0
 51 25  2  0
 49 26  2  0
 31 27  2  0
 48 32  2  0
 46 33  2  0
 45 35  2  0
 68 36  1  0
 44 38  1  0
  1 92  1  0
  1 93  1  0
  1 94  1  0
  2 95  1  0
  2 96  1  0
 15 97  1  0
 16 98  1  0
 17 99  1  0
 18100  1  0
 18101  1  0
 19102  1  0
 19103  1  0
 41104  1  0
 41105  1  0
 42106  1  0
 42107  1  0
 42108  1  0
 56109  1  0
 59110  1  0
 59111  1  0
 60112  1  0
 60113  1  0
 60114  1  0
 62115  1  0
 62116  1  0
 63117  1  0
 63118  1  0
 63119  1  0
 64120  1  0
 64121  1  0
 65122  1  0
 65123  1  0
 65124  1  0
 66125  1  0
 69126  1  0
 74127  1  0
 77128  1  0
 85129  1  0
 86130  1  0
 87131  1  0
 88132  1  0
 89133  1  0
 90134  1  0
 90135  1  0
 91136  1  0
M  END

