
     RDKit          3D

184199  0  0  0  0  0  0  0  0999 V2000
   -2.9466    3.7962    8.1864 C   0  0  0  0  0  0  0  0  0  0  0  0
   -3.4818    5.1850    7.8506 C   0  0  0  0  0  0  0  0  0  0  0  0
   -3.8251    5.2645    6.4178 N   0  0  0  0  0  0  0  0  0  0  0  0
   -5.1671    4.9003    6.0008 C   0  0  0  0  0  0  0  0  0  0  0  0
   -6.0526    4.7136    6.8777 O   0  0  0  0  0  0  0  0  0  0  0  0
   -5.4817    4.7392    4.5478 C   0  0  0  0  0  0  0  0  0  0  0  0
   -4.4942    5.3471    3.6362 C   0  0  0  0  0  0  0  0  0  0  0  0
   -4.8560    5.9105    2.5746 O   0  0  0  0  0  0  0  0  0  0  0  0
   -3.1190    5.3758    4.0205 N   0  0  0  0  0  0  0  0  0  0  0  0
   -2.1067    4.9629    3.0392 C   0  0  0  0  0  0  0  0  0  0  0  0
   -1.7644    3.4855    3.2135 C   0  0  0  0  0  0  0  0  0  0  0  0
   -2.7956    5.4975    5.4226 C   0  0  0  0  0  0  0  0  0  0  0  0
   -1.2922    6.0154    5.8603 S   0  0  0  0  0  0  0  0  0  0  0  0
   -6.5023    3.9591    4.0611 C   0  0  0  0  0  0  0  0  0  0  0  0
   -7.5097    3.3219    4.9539 C   0  0  0  0  0  0  0  0  0  0  0  0
   -7.9906    2.1106    4.6912 C   0  0  0  0  0  0  0  0  0  0  0  0
   -7.6146    1.3764    3.4396 C   0  0  0  0  0  0  0  0  0  0  0  0
   -7.4664    2.3731    2.2713 C   0  0  0  0  0  0  0  0  0  0  0  0
   -6.4999    3.5281    2.5941 C   0  0  0  0  0  0  0  0  0  0  0  0
   -6.4002    0.5006    3.6179 C   0  0  0  0  0  0  0  0  0  0  0  0
   -5.1626    0.8778    4.1663 C   0  0  0  0  0  0  0  0  0  0  0  0
   -4.2034   -0.1139    3.9887 C   0  0  0  0  0  0  0  0  0  0  0  0
   -2.5109   -0.0326    4.0037 S   0  0  0  0  0  0  0  0  0  0  0  0
   -2.3914   -1.5376    3.2218 C   0  0  0  0  0  0  0  0  0  0  0  0
   -1.3926   -2.0877    2.3476 C   0  0  0  0  0  0  0  0  0  0  0  0
   -0.1439   -1.5465    2.0364 C   0  0  0  0  0  0  0  0  0  0  0  0
    0.5171   -2.0573    0.9061 C   0  0  0  0  0  0  0  0  0  0  0  0
    1.7318   -1.4872    0.1888 C   0  0  0  0  0  0  0  0  0  0  0  0
    1.8111    0.0426    0.3054 C   0  0  0  0  0  0  0  0  0  0  0  0
    2.9634    0.6921    0.7948 C   0  0  0  0  0  0  0  0  0  0  0  0
    2.9804    2.0711    1.0118 C   0  0  0  0  0  0  0  0  0  0  0  0
    1.8459    2.8490    0.7375 C   0  0  0  0  0  0  0  0  0  0  0  0
    1.7846    4.3271    1.0750 C   0  0  0  0  0  0  0  0  0  0  0  0
    3.1520    5.0254    1.1406 C   0  0  0  0  0  0  0  0  0  0  0  0
    0.7001    2.2098    0.2296 C   0  0  0  0  0  0  0  0  0  0  0  0
    0.6860    0.8305   -0.0036 C   0  0  0  0  0  0  0  0  0  0  0  0
    3.0015   -2.2127    0.7267 C   0  0  0  0  0  0  0  0  0  0  0  0
    3.0114   -2.8553    1.9909 C   0  0  0  0  0  0  0  0  0  0  0  0
    4.1293   -3.5685    2.4313 C   0  0  0  0  0  0  0  0  0  0  0  0
    5.2835   -3.6496    1.6384 C   0  0  0  0  0  0  0  0  0  0  0  0
    6.4751   -4.4527    2.0972 C   0  0  0  0  0  0  0  0  0  0  0  0
    6.1349   -5.9447    2.2028 C   0  0  0  0  0  0  0  0  0  0  0  0
    5.3179   -2.9607    0.4221 C   0  0  0  0  0  0  0  0  0  0  0  0
    4.2086   -2.2222   -0.0092 C   0  0  0  0  0  0  0  0  0  0  0  0
    1.3801   -1.9542   -1.2314 C   0  0  0  0  0  0  0  0  0  0  0  0
    0.6588   -3.1242   -1.0911 C   0  0  0  0  0  0  0  0  0  0  0  0
   -0.0177   -3.1229    0.1854 C   0  0  0  0  0  0  0  0  0  0  0  0
   -1.3016   -3.6239    0.4625 C   0  0  0  0  0  0  0  0  0  0  0  0
   -2.0029   -3.0615    1.5468 C   0  0  0  0  0  0  0  0  0  0  0  0
   -3.5188   -3.0816    1.7763 C   0  0  0  0  0  0  0  0  0  0  0  0
   -4.1971   -2.6036    0.4851 C   0  0  0  0  0  0  0  0  0  0  0  0
   -4.6316   -3.5273   -0.4861 C   0  0  0  0  0  0  0  0  0  0  0  0
   -5.1937   -3.0932   -1.6919 C   0  0  0  0  0  0  0  0  0  0  0  0
   -5.2837   -1.7215   -1.9762 C   0  0  0  0  0  0  0  0  0  0  0  0
   -5.8558   -1.2483   -3.2844 C   0  0  0  0  0  0  0  0  0  0  0  0
   -4.8124   -1.3101   -4.3959 C   0  0  0  0  0  0  0  0  0  0  0  0
   -4.7663   -0.7980   -1.0600 C   0  0  0  0  0  0  0  0  0  0  0  0
   -4.2129   -1.2314    0.1446 C   0  0  0  0  0  0  0  0  0  0  0  0
   -4.0661   -4.4129    2.3117 C   0  0  0  0  0  0  0  0  0  0  0  0
   -5.4623   -4.5930    2.4290 C   0  0  0  0  0  0  0  0  0  0  0  0
   -5.9981   -5.7145    3.0667 C   0  0  0  0  0  0  0  0  0  0  0  0
   -5.1468   -6.6874    3.6080 C   0  0  0  0  0  0  0  0  0  0  0  0
   -5.7118   -7.8679    4.3610 C   0  0  0  0  0  0  0  0  0  0  0  0
   -5.7356   -7.5930    5.8615 C   0  0  0  0  0  0  0  0  0  0  0  0
   -3.7584   -6.5178    3.5041 C   0  0  0  0  0  0  0  0  0  0  0  0
   -3.2223   -5.3872    2.8766 C   0  0  0  0  0  0  0  0  0  0  0  0
   -3.6156   -2.0611    2.8964 C   0  0  0  0  0  0  0  0  0  0  0  0
   -4.6451   -1.2361    3.3405 C   0  0  0  0  0  0  0  0  0  0  0  0
   -6.2538   -1.0360    2.8941 S   0  0  0  0  0  0  0  0  0  0  0  0
    1.4116   -4.4013   -1.9305 S   0  0  0  0  0  0  0  0  0  0  0  0
    2.5737   -3.3661   -2.6008 C   0  0  0  0  0  0  0  0  0  0  0  0
    3.3521   -3.3806   -3.8191 C   0  0  0  0  0  0  0  0  0  0  0  0
    3.4643   -2.0817   -4.2385 C   0  0  0  0  0  0  0  0  0  0  0  0
    2.4813   -1.1737   -3.5167 C   0  0  0  0  0  0  0  0  0  0  0  0
    2.2740   -2.0621   -2.2897 C   0  0  0  0  0  0  0  0  0  0  0  0
    1.2887   -1.0889   -4.4986 C   0  0  0  0  0  0  0  0  0  0  0  0
    0.0470   -1.7199   -4.2712 C   0  0  0  0  0  0  0  0  0  0  0  0
   -0.9003   -1.8273   -5.2971 C   0  0  0  0  0  0  0  0  0  0  0  0
   -0.6540   -1.2646   -6.5554 C   0  0  0  0  0  0  0  0  0  0  0  0
   -1.6066   -1.5099   -7.7025 C   0  0  0  0  0  0  0  0  0  0  0  0
   -1.0902   -2.6326   -8.5999 C   0  0  0  0  0  0  0  0  0  0  0  0
    0.5320   -0.5510   -6.7618 C   0  0  0  0  0  0  0  0  0  0  0  0
    1.4912   -0.4698   -5.7510 C   0  0  0  0  0  0  0  0  0  0  0  0
    2.9937    0.2150   -3.1200 C   0  0  0  0  0  0  0  0  0  0  0  0
    4.3509    0.4705   -2.8496 C   0  0  0  0  0  0  0  0  0  0  0  0
    4.8128    1.7896   -2.7202 C   0  0  0  0  0  0  0  0  0  0  0  0
    3.9199    2.8701   -2.7966 C   0  0  0  0  0  0  0  0  0  0  0  0
    4.4307    4.2848   -2.8846 C   0  0  0  0  0  0  0  0  0  0  0  0
    4.1649    4.8713   -4.2742 C   0  0  0  0  0  0  0  0  0  0  0  0
    2.5449    2.6067   -2.8920 C   0  0  0  0  0  0  0  0  0  0  0  0
    2.0862    1.2962   -3.0403 C   0  0  0  0  0  0  0  0  0  0  0  0
    4.5864   -1.7908   -5.0177 C   0  0  0  0  0  0  0  0  0  0  0  0
    5.4600   -2.8835   -5.0891 C   0  0  0  0  0  0  0  0  0  0  0  0
    4.7733   -4.1825   -4.2237 S   0  0  0  0  0  0  0  0  0  0  0  0
    6.7930   -2.9339   -5.7252 C   0  0  0  0  0  0  0  0  0  0  0  0
    7.6635   -1.9032   -5.8124 C   0  0  0  0  0  0  0  0  0  0  0  0
    7.3657   -0.5910   -5.2832 C   0  0  0  0  0  0  0  0  0  0  0  0
    7.1279    0.4720   -4.8947 N   0  0  0  0  0  0  0  0  0  0  0  0
    8.9738   -2.0651   -6.4768 C   0  0  0  0  0  0  0  0  0  0  0  0
    9.2972   -3.1623   -7.0146 O   0  0  0  0  0  0  0  0  0  0  0  0
    9.8737   -0.9930   -6.4842 O   0  0  0  0  0  0  0  0  0  0  0  0
   10.9514   -0.9045   -7.4176 C   0  0  0  0  0  0  0  0  0  0  0  0
   11.6599    0.4272   -7.2570 C   0  0  0  0  0  0  0  0  0  0  0  0
   -3.7058    3.0233    7.9292 H   0  0  0  0  0  0  0  0  0  0  0  0
   -2.0157    3.5935    7.6138 H   0  0  0  0  0  0  0  0  0  0  0  0
   -2.7208    3.7327    9.2709 H   0  0  0  0  0  0  0  0  0  0  0  0
   -4.3646    5.4008    8.4829 H   0  0  0  0  0  0  0  0  0  0  0  0
   -2.7282    5.9506    8.1239 H   0  0  0  0  0  0  0  0  0  0  0  0
   -1.1860    5.5691    3.1530 H   0  0  0  0  0  0  0  0  0  0  0  0
   -2.4653    5.1197    2.0028 H   0  0  0  0  0  0  0  0  0  0  0  0
   -0.9083    3.2084    2.5542 H   0  0  0  0  0  0  0  0  0  0  0  0
   -2.6465    2.8607    2.9622 H   0  0  0  0  0  0  0  0  0  0  0  0
   -1.4680    3.2811    4.2644 H   0  0  0  0  0  0  0  0  0  0  0  0
   -7.9182    3.8428    5.8035 H   0  0  0  0  0  0  0  0  0  0  0  0
   -8.7414    1.6782    5.3461 H   0  0  0  0  0  0  0  0  0  0  0  0
   -8.4648    0.7097    3.1769 H   0  0  0  0  0  0  0  0  0  0  0  0
   -8.4611    2.8111    2.0331 H   0  0  0  0  0  0  0  0  0  0  0  0
   -7.1155    1.8403    1.3618 H   0  0  0  0  0  0  0  0  0  0  0  0
   -6.7555    4.3913    1.9489 H   0  0  0  0  0  0  0  0  0  0  0  0
   -5.4774    3.1875    2.3251 H   0  0  0  0  0  0  0  0  0  0  0  0
   -4.9511    1.8487    4.5934 H   0  0  0  0  0  0  0  0  0  0  0  0
    0.2284   -0.6720    2.5691 H   0  0  0  0  0  0  0  0  0  0  0  0
    3.8667    0.1564    1.0372 H   0  0  0  0  0  0  0  0  0  0  0  0
    3.8757    2.5096    1.4241 H   0  0  0  0  0  0  0  0  0  0  0  0
    1.2829    4.4527    2.0635 H   0  0  0  0  0  0  0  0  0  0  0  0
    1.1647    4.8506    0.3091 H   0  0  0  0  0  0  0  0  0  0  0  0
    3.0112    6.1261    1.0926 H   0  0  0  0  0  0  0  0  0  0  0  0
    3.6467    4.7870    2.1103 H   0  0  0  0  0  0  0  0  0  0  0  0
    3.8073    4.7062    0.3037 H   0  0  0  0  0  0  0  0  0  0  0  0
   -0.1899    2.7867    0.0124 H   0  0  0  0  0  0  0  0  0  0  0  0
   -0.2185    0.3738   -0.3865 H   0  0  0  0  0  0  0  0  0  0  0  0
    2.1549   -2.8303    2.6508 H   0  0  0  0  0  0  0  0  0  0  0  0
    4.0888   -4.0664    3.3924 H   0  0  0  0  0  0  0  0  0  0  0  0
    7.3288   -4.3332    1.3971 H   0  0  0  0  0  0  0  0  0  0  0  0
    6.8038   -4.0846    3.0979 H   0  0  0  0  0  0  0  0  0  0  0  0
    5.6825   -6.3142    1.2557 H   0  0  0  0  0  0  0  0  0  0  0  0
    7.0642   -6.5169    2.4007 H   0  0  0  0  0  0  0  0  0  0  0  0
    5.4248   -6.1234    3.0397 H   0  0  0  0  0  0  0  0  0  0  0  0
    6.2179   -2.9714   -0.1899 H   0  0  0  0  0  0  0  0  0  0  0  0
    4.3119   -1.6534   -0.9171 H   0  0  0  0  0  0  0  0  0  0  0  0
   -1.8024   -4.2793   -0.2364 H   0  0  0  0  0  0  0  0  0  0  0  0
   -4.5388   -4.5916   -0.3122 H   0  0  0  0  0  0  0  0  0  0  0  0
   -5.5179   -3.8206   -2.4247 H   0  0  0  0  0  0  0  0  0  0  0  0
   -6.7294   -1.8790   -3.5611 H   0  0  0  0  0  0  0  0  0  0  0  0
   -6.2230   -0.2051   -3.1832 H   0  0  0  0  0  0  0  0  0  0  0  0
   -5.2344   -0.8865   -5.3259 H   0  0  0  0  0  0  0  0  0  0  0  0
   -4.5155   -2.3651   -4.5830 H   0  0  0  0  0  0  0  0  0  0  0  0
   -3.9112   -0.7158   -4.1148 H   0  0  0  0  0  0  0  0  0  0  0  0
   -4.7888    0.2630   -1.2795 H   0  0  0  0  0  0  0  0  0  0  0  0
   -3.7954   -0.4830    0.8056 H   0  0  0  0  0  0  0  0  0  0  0  0
   -6.1440   -3.8537    2.0375 H   0  0  0  0  0  0  0  0  0  0  0  0
   -7.0763   -5.8148    3.1658 H   0  0  0  0  0  0  0  0  0  0  0  0
   -5.1025   -8.7777    4.1622 H   0  0  0  0  0  0  0  0  0  0  0  0
   -6.7476   -8.0817    4.0155 H   0  0  0  0  0  0  0  0  0  0  0  0
   -4.7104   -7.3837    6.2330 H   0  0  0  0  0  0  0  0  0  0  0  0
   -6.3911   -6.7202    6.0799 H   0  0  0  0  0  0  0  0  0  0  0  0
   -6.1385   -8.4816    6.3975 H   0  0  0  0  0  0  0  0  0  0  0  0
   -3.0851   -7.2429    3.9434 H   0  0  0  0  0  0  0  0  0  0  0  0
   -2.1495   -5.2713    2.8688 H   0  0  0  0  0  0  0  0  0  0  0  0
   -0.1930   -2.2024   -3.3435 H   0  0  0  0  0  0  0  0  0  0  0  0
   -1.8091   -2.3958   -5.1188 H   0  0  0  0  0  0  0  0  0  0  0  0
   -1.7280   -0.5783   -8.2999 H   0  0  0  0  0  0  0  0  0  0  0  0
   -2.6134   -1.8005   -7.3162 H   0  0  0  0  0  0  0  0  0  0  0  0
   -1.8109   -2.8111   -9.4263 H   0  0  0  0  0  0  0  0  0  0  0  0
   -0.9817   -3.5751   -8.0192 H   0  0  0  0  0  0  0  0  0  0  0  0
   -0.1084   -2.3617   -9.0434 H   0  0  0  0  0  0  0  0  0  0  0  0
    0.7493   -0.1158   -7.7300 H   0  0  0  0  0  0  0  0  0  0  0  0
    2.4232    0.0376   -5.9587 H   0  0  0  0  0  0  0  0  0  0  0  0
    5.0644   -0.3381   -2.8053 H   0  0  0  0  0  0  0  0  0  0  0  0
    5.8730    1.9610   -2.5884 H   0  0  0  0  0  0  0  0  0  0  0  0
    5.5331    4.3193   -2.6923 H   0  0  0  0  0  0  0  0  0  0  0  0
    3.9289    4.9107   -2.1146 H   0  0  0  0  0  0  0  0  0  0  0  0
    3.0753    5.0735   -4.3951 H   0  0  0  0  0  0  0  0  0  0  0  0
    4.7198    5.8255   -4.3938 H   0  0  0  0  0  0  0  0  0  0  0  0
    4.4953    4.1636   -5.0671 H   0  0  0  0  0  0  0  0  0  0  0  0
    1.8305    3.4207   -2.9093 H   0  0  0  0  0  0  0  0  0  0  0  0
    1.0218    1.1339   -3.1505 H   0  0  0  0  0  0  0  0  0  0  0  0
    4.7814   -0.8086   -5.4270 H   0  0  0  0  0  0  0  0  0  0  0  0
    7.0945   -3.9026   -6.1036 H   0  0  0  0  0  0  0  0  0  0  0  0
   11.6737   -1.7263   -7.2444 H   0  0  0  0  0  0  0  0  0  0  0  0
   10.5558   -0.9832   -8.4548 H   0  0  0  0  0  0  0  0  0  0  0  0
   12.1580    0.4826   -6.2615 H   0  0  0  0  0  0  0  0  0  0  0  0
   12.4338    0.5373   -8.0491 H   0  0  0  0  0  0  0  0  0  0  0  0
   10.9383    1.2694   -7.3477 H   0  0  0  0  0  0  0  0  0  0  0  0
  1  2  1  0
  2  3  1  0
  3  4  1  0
  4  5  2  0
  4  6  1  0
  6  7  1  0
  7  8  2  0
  7  9  1  0
  9 10  1  0
 10 11  1  0
  9 12  1  0
 12 13  2  0
  6 14  2  3
 14 15  1  0
 15 16  2  0
 16 17  1  0
 17 18  1  0
 18 19  1  0
 17 20  1  0
 20 21  2  0
 21 22  1  0
 22 23  1  0
 23 24  1  0
 24 25  1  0
 25 26  2  0
 26 27  1  0
 27 28  1  0
 28 29  1  0
 29 30  2  0
 30 31  1  0
 31 32  2  0
 32 33  1  0
 33 34  1  0
 32 35  1  0
 35 36  2  0
 28 37  1  0
 37 38  2  0
 38 39  1  0
 39 40  2  0
 40 41  1  0
 41 42  1  0
 40 43  1  0
 43 44  2  0
 28 45  1  0
 45 46  2  0
 46 47  1  0
 47 48  1  0
 48 49  2  0
 49 50  1  0
 50 51  1  0
 51 52  2  0
 52 53  1  0
 53 54  2  0
 54 55  1  0
 55 56  1  0
 54 57  1  0
 57 58  2  0
 50 59  1  0
 59 60  2  0
 60 61  1  0
 61 62  2  0
 62 63  1  0
 63 64  1  0
 62 65  1  0
 65 66  2  0
 50 67  1  0
 67 68  1  0
 68 69  1  0
 46 70  1  0
 70 71  1  0
 71 72  1  0
 72 73  2  0
 73 74  1  0
 74 75  1  0
 74 76  1  0
 76 77  2  0
 77 78  1  0
 78 79  2  0
 79 80  1  0
 80 81  1  0
 79 82  1  0
 82 83  2  0
 74 84  1  0
 84 85  2  0
 85 86  1  0
 86 87  2  0
 87 88  1  0
 88 89  1  0
 87 90  1  0
 90 91  2  0
 73 92  1  0
 92 93  2  0
 93 94  1  0
 93 95  1  0
 95 96  2  3
 96 97  1  0
 97 98  3  0
 96 99  1  0
 99100  2  0
 99101  1  0
101102  1  0
102103  1  0
 12  3  1  0
 19 14  1  0
 69 20  1  0
 75 71  2  0
 83 76  1  0
 91 84  1  0
 68 22  2  0
 94 72  1  0
 67 24  2  0
 49 25  1  0
 58 51  1  0
 66 59  1  0
 47 27  2  0
 36 29  1  0
 44 37  1  0
 75 45  1  0
  1104  1  0
  1105  1  0
  1106  1  0
  2107  1  0
  2108  1  0
 10109  1  0
 10110  1  0
 11111  1  0
 11112  1  0
 11113  1  0
 15114  1  0
 16115  1  0
 17116  1  0
 18117  1  0
 18118  1  0
 19119  1  0
 19120  1  0
 21121  1  0
 26122  1  0
 30123  1  0
 31124  1  0
 33125  1  0
 33126  1  0
 34127  1  0
 34128  1  0
 34129  1  0
 35130  1  0
 36131  1  0
 38132  1  0
 39133  1  0
 41134  1  0
 41135  1  0
 42136  1  0
 42137  1  0
 42138  1  0
 43139  1  0
 44140  1  0
 48141  1  0
 52142  1  0
 53143  1  0
 55144  1  0
 55145  1  0
 56146  1  0
 56147  1  0
 56148  1  0
 57149  1  0
 58150  1  0
 60151  1  0
 61152  1  0
 63153  1  0
 63154  1  0
 64155  1  0
 64156  1  0
 64157  1  0
 65158  1  0
 66159  1  0
 77160  1  0
 78161  1  0
 80162  1  0
 80163  1  0
 81164  1  0
 81165  1  0
 81166  1  0
 82167  1  0
 83168  1  0
 85169  1  0
 86170  1  0
 88171  1  0
 88172  1  0
 89173  1  0
 89174  1  0
 89175  1  0
 90176  1  0
 91177  1  0
 92178  1  0
 95179  1  0
102180  1  0
102181  1  0
103182  1  0
103183  1  0
103184  1  0
M  END

