
     RDKit          3D

116126  0  0  0  0  0  0  0  0999 V2000
    7.2436   -3.1805    4.4039 C   0  0  0  0  0  0  0  0  0  0  0  0
    5.7187   -3.1810    4.4437 C   0  0  0  0  0  0  0  0  0  0  0  0
    5.1826   -2.2382    3.4462 N   0  0  0  0  0  0  0  0  0  0  0  0
    4.9273   -2.7045    2.1111 C   0  0  0  0  0  0  0  0  0  0  0  0
    4.5841   -3.9061    1.9303 O   0  0  0  0  0  0  0  0  0  0  0  0
    5.0049   -1.7591    0.9650 C   0  0  0  0  0  0  0  0  0  0  0  0
    4.6678   -0.3462    1.3126 C   0  0  0  0  0  0  0  0  0  0  0  0
    4.5011    0.5206    0.4139 O   0  0  0  0  0  0  0  0  0  0  0  0
    4.5072    0.0410    2.6935 N   0  0  0  0  0  0  0  0  0  0  0  0
    3.8539    1.3218    3.0142 C   0  0  0  0  0  0  0  0  0  0  0  0
    4.8623    2.4684    2.9922 C   0  0  0  0  0  0  0  0  0  0  0  0
    4.9952   -0.8344    3.7343 C   0  0  0  0  0  0  0  0  0  0  0  0
    5.3500   -0.2277    5.2278 S   0  0  0  0  0  0  0  0  0  0  0  0
    5.3382   -2.1783   -0.2974 C   0  0  0  0  0  0  0  0  0  0  0  0
    5.7761   -3.5812   -0.5526 C   0  0  0  0  0  0  0  0  0  0  0  0
    5.5661   -4.1562   -1.7426 C   0  0  0  0  0  0  0  0  0  0  0  0
    4.9220   -3.3897   -2.8668 C   0  0  0  0  0  0  0  0  0  0  0  0
    5.5756   -1.9868   -2.8457 C   0  0  0  0  0  0  0  0  0  0  0  0
    5.2788   -1.2578   -1.5140 C   0  0  0  0  0  0  0  0  0  0  0  0
    3.3922   -3.2858   -2.7892 C   0  0  0  0  0  0  0  0  0  0  0  0
    2.4599   -3.9768   -1.9445 C   0  0  0  0  0  0  0  0  0  0  0  0
    2.7705   -5.2248   -1.1464 C   0  0  0  0  0  0  0  0  0  0  0  0
    3.1138   -6.4016   -2.0611 C   0  0  0  0  0  0  0  0  0  0  0  0
    1.1887   -3.3506   -2.0131 C   0  0  0  0  0  0  0  0  0  0  0  0
    1.1229   -2.3530   -2.9229 C   0  0  0  0  0  0  0  0  0  0  0  0
    2.5659   -2.0798   -3.6842 S   0  0  0  0  0  0  0  0  0  0  0  0
   -0.0609   -1.7078   -2.7757 C   0  0  0  0  0  0  0  0  0  0  0  0
   -0.6756   -0.6476   -3.4380 C   0  0  0  0  0  0  0  0  0  0  0  0
   -0.2661    0.0879   -4.4805 N   0  0  0  0  0  0  0  0  0  0  0  0
   -1.2361    0.9873   -4.6488 N   0  0  0  0  0  0  0  0  0  0  0  0
   -1.2340    1.9690   -5.7272 C   0  0  0  0  0  0  0  0  0  0  0  0
   -1.9566    1.4076   -6.9446 C   0  0  0  0  0  0  0  0  0  0  0  0
   -2.2355    0.8632   -3.7750 N   0  0  0  0  0  0  0  0  0  0  0  0
   -1.8880   -0.1868   -3.0172 C   0  0  0  0  0  0  0  0  0  0  0  0
   -2.4898   -0.7178   -1.8722 C   0  0  0  0  0  0  0  0  0  0  0  0
   -3.4414   -0.2061   -1.0491 C   0  0  0  0  0  0  0  0  0  0  0  0
   -4.3758    1.1785   -1.0010 S   0  0  0  0  0  0  0  0  0  0  0  0
   -4.6863    1.0016    0.6613 C   0  0  0  0  0  0  0  0  0  0  0  0
   -4.0077   -0.1209    1.1919 C   0  0  0  0  0  0  0  0  0  0  0  0
   -4.1273   -0.5570    2.6333 C   0  0  0  0  0  0  0  0  0  0  0  0
   -4.8401   -1.9024    2.7450 C   0  0  0  0  0  0  0  0  0  0  0  0
   -3.2951   -0.7848    0.1682 C   0  0  0  0  0  0  0  0  0  0  0  0
   -2.2690   -1.6908    0.1817 N   0  0  0  0  0  0  0  0  0  0  0  0
   -1.4123   -1.9584    1.3526 C   0  0  0  0  0  0  0  0  0  0  0  0
   -0.5506   -0.7402    1.6887 C   0  0  0  0  0  0  0  0  0  0  0  0
   -1.8396   -1.7123   -1.1232 C   0  0  0  0  0  0  0  0  0  0  0  0
   -0.6615   -2.3044   -1.6662 C   0  0  0  0  0  0  0  0  0  0  0  0
    0.0531   -3.3940   -1.2439 N   0  0  0  0  0  0  0  0  0  0  0  0
   -0.5563   -4.5734   -0.6059 C   0  0  0  0  0  0  0  0  0  0  0  0
   -0.8167   -5.6815   -1.6242 C   0  0  0  0  0  0  0  0  0  0  0  0
   -5.4740    1.9786    1.4256 C   0  0  0  0  0  0  0  0  0  0  0  0
   -4.9087    2.9007    2.2275 C   0  0  0  0  0  0  0  0  0  0  0  0
   -3.4712    3.1970    2.2959 C   0  0  0  0  0  0  0  0  0  0  0  0
   -2.5365    2.5016    1.8165 O   0  0  0  0  0  0  0  0  0  0  0  0
   -3.3004    4.4789    2.9403 C   0  0  0  0  0  0  0  0  0  0  0  0
   -2.1135    5.2055    3.1065 C   0  0  0  0  0  0  0  0  0  0  0  0
   -2.2167    6.4805    3.6723 C   0  0  0  0  0  0  0  0  0  0  0  0
   -1.1583    7.3667    3.9002 C   0  0  0  0  0  0  0  0  0  0  0  0
   -1.5881    8.5736    4.4444 C   0  0  0  0  0  0  0  0  0  0  0  0
   -0.4644   10.0469    4.8948 Br  0  0  0  0  0  0  0  0  0  0  0  0
   -3.2671    8.5524    4.6330 S   0  0  0  0  0  0  0  0  0  0  0  0
   -3.4614    6.9976    4.0284 C   0  0  0  0  0  0  0  0  0  0  0  0
   -4.6484    6.2792    3.8578 C   0  0  0  0  0  0  0  0  0  0  0  0
   -4.5466    4.9820    3.3150 C   0  0  0  0  0  0  0  0  0  0  0  0
   -5.6052    3.9824    2.9890 C   0  0  0  0  0  0  0  0  0  0  0  0
   -6.8714    3.9450    3.4798 C   0  0  0  0  0  0  0  0  0  0  0  0
   -7.7283    2.7990    3.3095 C   0  0  0  0  0  0  0  0  0  0  0  0
   -8.4181    1.8783    3.1825 N   0  0  0  0  0  0  0  0  0  0  0  0
   -7.4099    4.9812    4.3223 C   0  0  0  0  0  0  0  0  0  0  0  0
   -7.8575    5.8042    5.0025 N   0  0  0  0  0  0  0  0  0  0  0  0
    7.5983   -3.4868    3.3959 H   0  0  0  0  0  0  0  0  0  0  0  0
    7.6391   -3.8981    5.1544 H   0  0  0  0  0  0  0  0  0  0  0  0
    7.6361   -2.1687    4.6358 H   0  0  0  0  0  0  0  0  0  0  0  0
    5.3567   -4.2133    4.2481 H   0  0  0  0  0  0  0  0  0  0  0  0
    5.3655   -2.9259    5.4654 H   0  0  0  0  0  0  0  0  0  0  0  0
    3.3627    1.2748    4.0105 H   0  0  0  0  0  0  0  0  0  0  0  0
    3.0450    1.5313    2.2812 H   0  0  0  0  0  0  0  0  0  0  0  0
    5.3206    2.5599    1.9843 H   0  0  0  0  0  0  0  0  0  0  0  0
    5.6622    2.2984    3.7413 H   0  0  0  0  0  0  0  0  0  0  0  0
    4.3454    3.4200    3.2342 H   0  0  0  0  0  0  0  0  0  0  0  0
    6.2855   -4.1515    0.2131 H   0  0  0  0  0  0  0  0  0  0  0  0
    5.9257   -5.1620   -1.9164 H   0  0  0  0  0  0  0  0  0  0  0  0
    5.1776   -3.8894   -3.8245 H   0  0  0  0  0  0  0  0  0  0  0  0
    6.6778   -2.0947   -2.9573 H   0  0  0  0  0  0  0  0  0  0  0  0
    5.2386   -1.3688   -3.7049 H   0  0  0  0  0  0  0  0  0  0  0  0
    4.2582   -0.8286   -1.5904 H   0  0  0  0  0  0  0  0  0  0  0  0
    6.0128   -0.4331   -1.3943 H   0  0  0  0  0  0  0  0  0  0  0  0
    1.9273   -5.5329   -0.5167 H   0  0  0  0  0  0  0  0  0  0  0  0
    3.5871   -5.0398   -0.4260 H   0  0  0  0  0  0  0  0  0  0  0  0
    2.2313   -6.7010   -2.6607 H   0  0  0  0  0  0  0  0  0  0  0  0
    3.9320   -6.1472   -2.7652 H   0  0  0  0  0  0  0  0  0  0  0  0
    3.4378   -7.2686   -1.4454 H   0  0  0  0  0  0  0  0  0  0  0  0
   -1.7427    2.8959   -5.3882 H   0  0  0  0  0  0  0  0  0  0  0  0
   -0.1883    2.2268   -6.0019 H   0  0  0  0  0  0  0  0  0  0  0  0
   -1.9593    2.1614   -7.7587 H   0  0  0  0  0  0  0  0  0  0  0  0
   -1.4436    0.4911   -7.3035 H   0  0  0  0  0  0  0  0  0  0  0  0
   -3.0070    1.1562   -6.6859 H   0  0  0  0  0  0  0  0  0  0  0  0
   -4.7161    0.1826    3.2140 H   0  0  0  0  0  0  0  0  0  0  0  0
   -3.1342   -0.5894    3.1168 H   0  0  0  0  0  0  0  0  0  0  0  0
   -4.3052   -2.6878    2.1732 H   0  0  0  0  0  0  0  0  0  0  0  0
   -5.8744   -1.8204    2.3503 H   0  0  0  0  0  0  0  0  0  0  0  0
   -4.8869   -2.2092    3.8116 H   0  0  0  0  0  0  0  0  0  0  0  0
   -0.7196   -2.7906    1.1756 H   0  0  0  0  0  0  0  0  0  0  0  0
   -2.0176   -2.2634    2.2236 H   0  0  0  0  0  0  0  0  0  0  0  0
    0.0576   -0.9521    2.5956 H   0  0  0  0  0  0  0  0  0  0  0  0
    0.1368   -0.5153    0.8432 H   0  0  0  0  0  0  0  0  0  0  0  0
   -1.1819    0.1501    1.8833 H   0  0  0  0  0  0  0  0  0  0  0  0
    0.0556   -4.9311    0.2439 H   0  0  0  0  0  0  0  0  0  0  0  0
   -1.5500   -4.3149   -0.1846 H   0  0  0  0  0  0  0  0  0  0  0  0
    0.1217   -6.0142   -2.1016 H   0  0  0  0  0  0  0  0  0  0  0  0
   -1.2821   -6.5530   -1.1178 H   0  0  0  0  0  0  0  0  0  0  0  0
   -1.5072   -5.3132   -2.4142 H   0  0  0  0  0  0  0  0  0  0  0  0
   -6.5344    1.9963    1.2289 H   0  0  0  0  0  0  0  0  0  0  0  0
   -1.1595    4.8028    2.7930 H   0  0  0  0  0  0  0  0  0  0  0  0
   -0.1225    7.1461    3.6784 H   0  0  0  0  0  0  0  0  0  0  0  0
   -5.5895    6.7443    4.1003 H   0  0  0  0  0  0  0  0  0  0  0  0
  1  2  1  0
  2  3  1  0
  3  4  1  0
  4  5  2  0
  4  6  1  0
  6  7  1  0
  7  8  2  0
  7  9  1  0
  9 10  1  0
 10 11  1  0
  9 12  1  0
 12 13  2  0
  6 14  2  3
 14 15  1  0
 15 16  2  0
 16 17  1  0
 17 18  1  0
 18 19  1  0
 17 20  1  0
 20 21  2  0
 21 22  1  0
 22 23  1  0
 21 24  1  0
 24 25  2  0
 25 26  1  0
 25 27  1  0
 27 28  1  0
 28 29  2  0
 29 30  1  0
 30 31  1  0
 31 32  1  0
 30 33  1  0
 33 34  2  0
 34 35  1  0
 35 36  1  0
 36 37  1  0
 37 38  1  0
 38 39  2  0
 39 40  1  0
 40 41  1  0
 39 42  1  0
 42 43  1  0
 43 44  1  0
 44 45  1  0
 43 46  1  0
 46 47  1  0
 47 48  1  0
 48 49  1  0
 49 50  1  0
 38 51  1  0
 51 52  2  3
 52 53  1  0
 53 54  2  0
 53 55  1  0
 55 56  2  0
 56 57  1  0
 57 58  1  0
 58 59  2  0
 59 60  1  0
 59 61  1  0
 61 62  1  0
 62 63  1  0
 63 64  2  0
 64 65  1  0
 65 66  2  3
 66 67  1  0
 67 68  3  0
 66 69  1  0
 69 70  3  0
 12  3  1  0
 19 14  1  0
 26 20  1  0
 47 27  2  0
 65 52  1  0
 48 24  1  0
 64 55  1  0
 34 28  1  0
 46 35  2  0
 62 57  2  0
 42 36  2  0
  1 71  1  0
  1 72  1  0
  1 73  1  0
  2 74  1  0
  2 75  1  0
 10 76  1  0
 10 77  1  0
 11 78  1  0
 11 79  1  0
 11 80  1  0
 15 81  1  0
 16 82  1  0
 17 83  1  0
 18 84  1  0
 18 85  1  0
 19 86  1  0
 19 87  1  0
 22 88  1  0
 22 89  1  0
 23 90  1  0
 23 91  1  0
 23 92  1  0
 31 93  1  0
 31 94  1  0
 32 95  1  0
 32 96  1  0
 32 97  1  0
 40 98  1  0
 40 99  1  0
 41100  1  0
 41101  1  0
 41102  1  0
 44103  1  0
 44104  1  0
 45105  1  0
 45106  1  0
 45107  1  0
 49108  1  0
 49109  1  0
 50110  1  0
 50111  1  0
 50112  1  0
 51113  1  0
 56114  1  0
 58115  1  0
 63116  1  0
M  END

