
     RDKit          3D

120130  0  0  0  0  0  0  0  0999 V2000
    7.3533    2.8724    1.9967 C   0  0  0  0  0  0  0  0  0  0  0  0
    6.4930    1.6509    1.6902 C   0  0  0  0  0  0  0  0  0  0  0  0
    5.0639    1.9743    1.8512 N   0  0  0  0  0  0  0  0  0  0  0  0
    4.3578    1.5137    3.0135 C   0  0  0  0  0  0  0  0  0  0  0  0
    4.6275    0.3737    3.4772 O   0  0  0  0  0  0  0  0  0  0  0  0
    3.2467    2.3283    3.5848 C   0  0  0  0  0  0  0  0  0  0  0  0
    2.7247    3.3980    2.6797 C   0  0  0  0  0  0  0  0  0  0  0  0
    1.9530    4.2928    3.1177 O   0  0  0  0  0  0  0  0  0  0  0  0
    3.1309    3.4477    1.2966 N   0  0  0  0  0  0  0  0  0  0  0  0
    2.3523    4.2734    0.3554 C   0  0  0  0  0  0  0  0  0  0  0  0
    2.8949    5.6988    0.3103 C   0  0  0  0  0  0  0  0  0  0  0  0
    4.3586    2.7948    0.8988 C   0  0  0  0  0  0  0  0  0  0  0  0
    4.9249    2.9357   -0.6444 S   0  0  0  0  0  0  0  0  0  0  0  0
    2.7119    2.0719    4.8221 C   0  0  0  0  0  0  0  0  0  0  0  0
    3.3614    1.1223    5.7720 C   0  0  0  0  0  0  0  0  0  0  0  0
    2.6320    0.4232    6.6465 C   0  0  0  0  0  0  0  0  0  0  0  0
    1.1365    0.5875    6.7007 C   0  0  0  0  0  0  0  0  0  0  0  0
    0.8247    2.0894    6.5760 C   0  0  0  0  0  0  0  0  0  0  0  0
    1.3880    2.6908    5.2701 C   0  0  0  0  0  0  0  0  0  0  0  0
    0.4343   -0.2183    5.6286 C   0  0  0  0  0  0  0  0  0  0  0  0
   -0.9482   -0.1968    5.3954 C   0  0  0  0  0  0  0  0  0  0  0  0
   -1.2773   -0.9708    4.2889 C   0  0  0  0  0  0  0  0  0  0  0  0
   -2.7050   -1.1973    3.4370 S   0  0  0  0  0  0  0  0  0  0  0  0
   -1.9586   -2.1408    2.2272 C   0  0  0  0  0  0  0  0  0  0  0  0
   -2.5571   -2.6739    1.0732 C   0  0  0  0  0  0  0  0  0  0  0  0
   -3.9963   -2.4887    0.8153 C   0  0  0  0  0  0  0  0  0  0  0  0
   -4.9401   -3.5058    0.7151 C   0  0  0  0  0  0  0  0  0  0  0  0
   -6.2323   -3.0290    0.4674 C   0  0  0  0  0  0  0  0  0  0  0  0
   -7.3015   -3.8496    0.3147 F   0  0  0  0  0  0  0  0  0  0  0  0
   -6.3116   -1.6416    0.3932 C   0  0  0  0  0  0  0  0  0  0  0  0
   -7.5470   -0.8372    0.1244 C   0  0  0  0  0  0  0  0  0  0  0  0
   -7.5277   -0.2734   -1.2914 C   0  0  0  0  0  0  0  0  0  0  0  0
   -4.7694   -1.0045    0.6153 S   0  0  0  0  0  0  0  0  0  0  0  0
   -1.7162   -3.3899    0.1965 C   0  0  0  0  0  0  0  0  0  0  0  0
   -0.3515   -3.5840    0.4940 C   0  0  0  0  0  0  0  0  0  0  0  0
    0.2470   -3.0555    1.6518 C   0  0  0  0  0  0  0  0  0  0  0  0
    1.6707   -3.3035    1.9441 C   0  0  0  0  0  0  0  0  0  0  0  0
    2.9620   -2.8826    0.9458 S   0  0  0  0  0  0  0  0  0  0  0  0
    4.1592   -3.5506    1.9210 C   0  0  0  0  0  0  0  0  0  0  0  0
    5.6299   -3.4923    1.6421 C   0  0  0  0  0  0  0  0  0  0  0  0
    6.2106   -2.1640    2.1035 C   0  0  0  0  0  0  0  0  0  0  0  0
    3.5580   -4.0937    3.0522 C   0  0  0  0  0  0  0  0  0  0  0  0
    2.1641   -3.9718    3.0602 C   0  0  0  0  0  0  0  0  0  0  0  0
    4.2500   -4.6860    4.0560 F   0  0  0  0  0  0  0  0  0  0  0  0
   -0.5868   -2.3080    2.5109 C   0  0  0  0  0  0  0  0  0  0  0  0
   -0.2427   -1.6082    3.6728 C   0  0  0  0  0  0  0  0  0  0  0  0
    1.1869   -1.2126    4.4589 S   0  0  0  0  0  0  0  0  0  0  0  0
    0.4021   -4.4740   -0.7529 S   0  0  0  0  0  0  0  0  0  0  0  0
   -0.9949   -4.5689   -1.6798 C   0  0  0  0  0  0  0  0  0  0  0  0
   -1.2580   -5.0453   -2.9610 C   0  0  0  0  0  0  0  0  0  0  0  0
   -2.5702   -4.7334   -3.3514 C   0  0  0  0  0  0  0  0  0  0  0  0
   -3.3546   -3.9135   -2.0713 S   0  0  0  0  0  0  0  0  0  0  0  0
   -2.0277   -3.9439   -1.0485 C   0  0  0  0  0  0  0  0  0  0  0  0
   -3.1754   -5.0224   -4.7119 C   0  0  0  0  0  0  0  0  0  0  0  0
   -4.4639   -4.2672   -4.9012 C   0  0  0  0  0  0  0  0  0  0  0  0
   -4.4436   -2.9689   -5.2170 C   0  0  0  0  0  0  0  0  0  0  0  0
   -3.1518   -2.2559   -5.4368 C   0  0  0  0  0  0  0  0  0  0  0  0
   -3.0545   -0.9042   -5.2415 C   0  0  0  0  0  0  0  0  0  0  0  0
   -4.1169   -0.1435   -4.5318 C   0  0  0  0  0  0  0  0  0  0  0  0
   -4.8105   -0.7095   -3.6433 O   0  0  0  0  0  0  0  0  0  0  0  0
   -4.2922    1.2639   -4.7817 N   0  0  0  0  0  0  0  0  0  0  0  0
   -5.4908    1.9393   -4.2516 C   0  0  0  0  0  0  0  0  0  0  0  0
   -5.1893    2.5794   -2.8987 C   0  0  0  0  0  0  0  0  0  0  0  0
   -3.2159    2.0028   -5.4008 C   0  0  0  0  0  0  0  0  0  0  0  0
   -3.4372    3.5759   -5.8577 S   0  0  0  0  0  0  0  0  0  0  0  0
   -1.9426    1.3546   -5.6237 N   0  0  0  0  0  0  0  0  0  0  0  0
   -1.8752   -0.0872   -5.6579 C   0  0  0  0  0  0  0  0  0  0  0  0
   -0.8086   -0.6372   -6.0433 O   0  0  0  0  0  0  0  0  0  0  0  0
   -0.7162    2.1360   -5.8628 C   0  0  0  0  0  0  0  0  0  0  0  0
   -0.4792    2.3306   -7.3586 C   0  0  0  0  0  0  0  0  0  0  0  0
   -1.9564   -3.1029   -5.8716 C   0  0  0  0  0  0  0  0  0  0  0  0
   -2.2351   -4.6210   -5.8660 C   0  0  0  0  0  0  0  0  0  0  0  0
    8.4241    2.6171    1.8610 H   0  0  0  0  0  0  0  0  0  0  0  0
    7.0980    3.7096    1.3155 H   0  0  0  0  0  0  0  0  0  0  0  0
    7.1913    3.1965    3.0484 H   0  0  0  0  0  0  0  0  0  0  0  0
    6.7985    0.8355    2.3776 H   0  0  0  0  0  0  0  0  0  0  0  0
    6.6975    1.2871    0.6615 H   0  0  0  0  0  0  0  0  0  0  0  0
    1.2813    4.3018    0.6591 H   0  0  0  0  0  0  0  0  0  0  0  0
    2.3634    3.8329   -0.6632 H   0  0  0  0  0  0  0  0  0  0  0  0
    2.3244    6.2934   -0.4326 H   0  0  0  0  0  0  0  0  0  0  0  0
    2.7915    6.1831    1.3055 H   0  0  0  0  0  0  0  0  0  0  0  0
    3.9663    5.6986    0.0172 H   0  0  0  0  0  0  0  0  0  0  0  0
    4.4359    1.0038    5.7877 H   0  0  0  0  0  0  0  0  0  0  0  0
    3.1215   -0.2488    7.3398 H   0  0  0  0  0  0  0  0  0  0  0  0
    0.7781    0.2282    7.6896 H   0  0  0  0  0  0  0  0  0  0  0  0
    1.2814    2.6211    7.4410 H   0  0  0  0  0  0  0  0  0  0  0  0
   -0.2699    2.2725    6.6309 H   0  0  0  0  0  0  0  0  0  0  0  0
    1.5231    3.7798    5.4381 H   0  0  0  0  0  0  0  0  0  0  0  0
    0.6307    2.5369    4.4679 H   0  0  0  0  0  0  0  0  0  0  0  0
   -1.6631    0.3833    5.9633 H   0  0  0  0  0  0  0  0  0  0  0  0
   -4.7004   -4.5578    0.8074 H   0  0  0  0  0  0  0  0  0  0  0  0
   -8.4527   -1.4674    0.2563 H   0  0  0  0  0  0  0  0  0  0  0  0
   -7.6031   -0.0010    0.8553 H   0  0  0  0  0  0  0  0  0  0  0  0
   -7.4613   -1.0949   -2.0370 H   0  0  0  0  0  0  0  0  0  0  0  0
   -8.4579    0.3034   -1.4768 H   0  0  0  0  0  0  0  0  0  0  0  0
   -6.6587    0.4103   -1.4188 H   0  0  0  0  0  0  0  0  0  0  0  0
    6.1483   -4.3268    2.1652 H   0  0  0  0  0  0  0  0  0  0  0  0
    5.8033   -3.6133    0.5524 H   0  0  0  0  0  0  0  0  0  0  0  0
    7.2990   -2.1363    1.8849 H   0  0  0  0  0  0  0  0  0  0  0  0
    5.7190   -1.3263    1.5626 H   0  0  0  0  0  0  0  0  0  0  0  0
    6.0636   -2.0362    3.1979 H   0  0  0  0  0  0  0  0  0  0  0  0
    1.5374   -4.3549    3.8541 H   0  0  0  0  0  0  0  0  0  0  0  0
   -0.5234   -5.5366   -3.5840 H   0  0  0  0  0  0  0  0  0  0  0  0
   -3.3846   -6.1131   -4.7740 H   0  0  0  0  0  0  0  0  0  0  0  0
   -5.4101   -4.7765   -4.7647 H   0  0  0  0  0  0  0  0  0  0  0  0
   -5.3869   -2.4510   -5.3315 H   0  0  0  0  0  0  0  0  0  0  0  0
   -5.8587    2.7099   -4.9610 H   0  0  0  0  0  0  0  0  0  0  0  0
   -6.3256    1.2169   -4.1304 H   0  0  0  0  0  0  0  0  0  0  0  0
   -6.1263    2.9958   -2.4666 H   0  0  0  0  0  0  0  0  0  0  0  0
   -4.4546    3.4028   -3.0172 H   0  0  0  0  0  0  0  0  0  0  0  0
   -4.7749    1.8226   -2.1982 H   0  0  0  0  0  0  0  0  0  0  0  0
    0.1612    1.6169   -5.4188 H   0  0  0  0  0  0  0  0  0  0  0  0
   -0.7719    3.1247   -5.3568 H   0  0  0  0  0  0  0  0  0  0  0  0
    0.4608    2.9013   -7.5142 H   0  0  0  0  0  0  0  0  0  0  0  0
   -1.3152    2.8988   -7.8147 H   0  0  0  0  0  0  0  0  0  0  0  0
   -0.3834    1.3471   -7.8686 H   0  0  0  0  0  0  0  0  0  0  0  0
   -1.1134   -2.9211   -5.1680 H   0  0  0  0  0  0  0  0  0  0  0  0
   -1.6455   -2.8119   -6.8962 H   0  0  0  0  0  0  0  0  0  0  0  0
   -1.2791   -5.1852   -5.8115 H   0  0  0  0  0  0  0  0  0  0  0  0
   -2.7147   -4.9025   -6.8309 H   0  0  0  0  0  0  0  0  0  0  0  0
  1  2  1  0
  2  3  1  0
  3  4  1  0
  4  5  2  0
  4  6  1  0
  6  7  1  0
  7  8  2  0
  7  9  1  0
  9 10  1  0
 10 11  1  0
  9 12  1  0
 12 13  2  0
  6 14  2  3
 14 15  1  0
 15 16  2  0
 16 17  1  0
 17 18  1  0
 18 19  1  0
 17 20  1  0
 20 21  2  0
 21 22  1  0
 22 23  1  0
 23 24  1  0
 24 25  2  0
 25 26  1  0
 26 27  2  0
 27 28  1  0
 28 29  1  0
 28 30  2  0
 30 31  1  0
 31 32  1  0
 30 33  1  0
 25 34  1  0
 34 35  2  0
 35 36  1  0
 36 37  1  0
 37 38  1  0
 38 39  1  0
 39 40  1  0
 40 41  1  0
 39 42  2  0
 42 43  1  0
 42 44  1  0
 36 45  2  0
 45 46  1  0
 46 47  1  0
 35 48  1  0
 48 49  1  0
 49 50  1  0
 50 51  2  0
 51 52  1  0
 52 53  1  0
 51 54  1  0
 54 55  1  0
 55 56  2  0
 56 57  1  0
 57 58  2  3
 58 59  1  0
 59 60  2  0
 59 61  1  0
 61 62  1  0
 62 63  1  0
 61 64  1  0
 64 65  2  0
 64 66  1  0
 66 67  1  0
 67 68  2  0
 66 69  1  0
 69 70  1  0
 57 71  1  0
 71 72  1  0
 12  3  1  0
 19 14  1  0
 47 20  1  0
 53 49  2  0
 72 54  1  0
 46 22  2  0
 67 58  1  0
 45 24  1  0
 33 26  1  0
 53 34  1  0
 43 37  2  0
  1 73  1  0
  1 74  1  0
  1 75  1  0
  2 76  1  0
  2 77  1  0
 10 78  1  0
 10 79  1  0
 11 80  1  0
 11 81  1  0
 11 82  1  0
 15 83  1  0
 16 84  1  0
 17 85  1  0
 18 86  1  0
 18 87  1  0
 19 88  1  0
 19 89  1  0
 21 90  1  0
 27 91  1  0
 31 92  1  0
 31 93  1  0
 32 94  1  0
 32 95  1  0
 32 96  1  0
 40 97  1  0
 40 98  1  0
 41 99  1  0
 41100  1  0
 41101  1  0
 43102  1  0
 50103  1  0
 54104  1  0
 55105  1  0
 56106  1  0
 62107  1  0
 62108  1  0
 63109  1  0
 63110  1  0
 63111  1  0
 69112  1  0
 69113  1  0
 70114  1  0
 70115  1  0
 70116  1  0
 71117  1  0
 71118  1  0
 72119  1  0
 72120  1  0
M  END

