
     RDKit          3D

112121  0  0  0  0  0  0  0  0999 V2000
   10.6075   -3.2504    1.8332 C   0  0  0  0  0  0  0  0  0  0  0  0
    9.6496   -2.0872    2.0707 C   0  0  0  0  0  0  0  0  0  0  0  0
    8.5236   -2.1286    1.1093 N   0  0  0  0  0  0  0  0  0  0  0  0
    7.2385   -2.6288    1.5524 C   0  0  0  0  0  0  0  0  0  0  0  0
    7.1033   -2.9601    2.7725 O   0  0  0  0  0  0  0  0  0  0  0  0
    6.0878   -2.7510    0.6012 C   0  0  0  0  0  0  0  0  0  0  0  0
    6.2704   -2.0773   -0.7244 C   0  0  0  0  0  0  0  0  0  0  0  0
    5.2942   -1.9549   -1.5133 O   0  0  0  0  0  0  0  0  0  0  0  0
    7.5259   -1.4725   -1.0940 N   0  0  0  0  0  0  0  0  0  0  0  0
    7.6238   -0.7616   -2.3862 C   0  0  0  0  0  0  0  0  0  0  0  0
    8.1275   -1.6934   -3.4808 C   0  0  0  0  0  0  0  0  0  0  0  0
    8.6799   -1.6032   -0.2277 C   0  0  0  0  0  0  0  0  0  0  0  0
   10.1564   -1.0721   -0.7504 S   0  0  0  0  0  0  0  0  0  0  0  0
    4.8955   -3.3605    0.9560 C   0  0  0  0  0  0  0  0  0  0  0  0
    3.8283   -3.6349   -0.0520 C   0  0  0  0  0  0  0  0  0  0  0  0
    2.5383   -3.5498    0.2776 C   0  0  0  0  0  0  0  0  0  0  0  0
    2.1669   -3.2300    1.7037 C   0  0  0  0  0  0  0  0  0  0  0  0
    3.0452   -4.0743    2.6301 C   0  0  0  0  0  0  0  0  0  0  0  0
    4.5294   -3.6818    2.4165 C   0  0  0  0  0  0  0  0  0  0  0  0
    0.6901   -3.3530    2.0059 C   0  0  0  0  0  0  0  0  0  0  0  0
   -0.0972   -2.1885    2.9176 S   0  0  0  0  0  0  0  0  0  0  0  0
   -1.6432   -2.4854    2.3410 C   0  0  0  0  0  0  0  0  0  0  0  0
   -2.7316   -1.5102    2.3478 C   0  0  0  0  0  0  0  0  0  0  0  0
   -3.7615   -1.6946    1.4178 C   0  0  0  0  0  0  0  0  0  0  0  0
   -3.8540   -2.8909    0.6915 O   0  0  0  0  0  0  0  0  0  0  0  0
   -2.7668   -3.8201    0.4703 C   0  0  0  0  0  0  0  0  0  0  0  0
   -3.3471   -5.2392    0.7336 C   0  0  0  0  0  0  0  0  0  0  0  0
   -2.4455   -6.4194    0.3585 C   0  0  0  0  0  0  0  0  0  0  0  0
   -2.2909   -3.6159   -1.0010 C   0  0  0  0  0  0  0  0  0  0  0  0
   -3.4021   -3.8020   -2.0482 C   0  0  0  0  0  0  0  0  0  0  0  0
   -1.5879   -3.5212    1.4139 C   0  0  0  0  0  0  0  0  0  0  0  0
   -0.2758   -4.0260    1.2503 C   0  0  0  0  0  0  0  0  0  0  0  0
   -4.6600   -0.6548    1.1658 C   0  0  0  0  0  0  0  0  0  0  0  0
   -4.4844    0.5945    1.7837 C   0  0  0  0  0  0  0  0  0  0  0  0
   -5.1337    1.8086    1.2882 C   0  0  0  0  0  0  0  0  0  0  0  0
   -4.7444    3.0682    1.7229 C   0  0  0  0  0  0  0  0  0  0  0  0
   -3.8512    3.2584    2.9478 C   0  0  0  0  0  0  0  0  0  0  0  0
   -3.2469    2.0126    3.3398 O   0  0  0  0  0  0  0  0  0  0  0  0
   -3.4784    0.7611    2.7484 C   0  0  0  0  0  0  0  0  0  0  0  0
   -2.6387   -0.3079    3.0666 C   0  0  0  0  0  0  0  0  0  0  0  0
   -2.7224    4.2900    2.6164 C   0  0  0  0  0  0  0  0  0  0  0  0
   -1.3854    4.0308    3.3157 C   0  0  0  0  0  0  0  0  0  0  0  0
   -4.7656    3.7366    4.1034 C   0  0  0  0  0  0  0  0  0  0  0  0
   -4.0475    3.9248    5.4402 C   0  0  0  0  0  0  0  0  0  0  0  0
   -5.1783    4.1048    0.8735 C   0  0  0  0  0  0  0  0  0  0  0  0
   -5.8488    3.6367   -0.2471 C   0  0  0  0  0  0  0  0  0  0  0  0
   -5.9811    1.9578   -0.1575 S   0  0  0  0  0  0  0  0  0  0  0  0
   -6.0063    4.4005   -1.4965 C   0  0  0  0  0  0  0  0  0  0  0  0
   -5.1993    4.1935   -2.5547 C   0  0  0  0  0  0  0  0  0  0  0  0
   -4.0951    3.2046   -2.6104 C   0  0  0  0  0  0  0  0  0  0  0  0
   -3.4731    2.7133   -1.6327 O   0  0  0  0  0  0  0  0  0  0  0  0
   -3.8422    2.9051   -3.9995 C   0  0  0  0  0  0  0  0  0  0  0  0
   -4.6073    3.7149   -4.7811 C   0  0  0  0  0  0  0  0  0  0  0  0
   -4.6510    3.1275   -6.3718 S   0  0  0  0  0  0  0  0  0  0  0  0
   -3.6341    1.8134   -6.0179 C   0  0  0  0  0  0  0  0  0  0  0  0
   -3.2537    0.7714   -6.8691 C   0  0  0  0  0  0  0  0  0  0  0  0
   -2.5226   -0.2953   -6.3273 C   0  0  0  0  0  0  0  0  0  0  0  0
   -2.1944   -0.3145   -4.9535 C   0  0  0  0  0  0  0  0  0  0  0  0
   -2.5901    0.7388   -4.1117 C   0  0  0  0  0  0  0  0  0  0  0  0
   -3.2893    1.8141   -4.6678 C   0  0  0  0  0  0  0  0  0  0  0  0
   -5.4476    4.6164   -3.9732 C   0  0  0  0  0  0  0  0  0  0  0  0
   -6.2084    5.6275   -4.4465 C   0  0  0  0  0  0  0  0  0  0  0  0
   -6.3546    5.8515   -5.8658 C   0  0  0  0  0  0  0  0  0  0  0  0
   -6.4702    6.0237   -7.0042 N   0  0  0  0  0  0  0  0  0  0  0  0
   -6.8511    6.5792   -3.5784 C   0  0  0  0  0  0  0  0  0  0  0  0
   -7.3708    7.3579   -2.8969 N   0  0  0  0  0  0  0  0  0  0  0  0
   11.4235   -3.2331    2.5863 H   0  0  0  0  0  0  0  0  0  0  0  0
   11.0806   -3.1849    0.8285 H   0  0  0  0  0  0  0  0  0  0  0  0
   10.0638   -4.2150    1.9229 H   0  0  0  0  0  0  0  0  0  0  0  0
   10.1813   -1.1152    2.0029 H   0  0  0  0  0  0  0  0  0  0  0  0
    9.2946   -2.1356    3.1248 H   0  0  0  0  0  0  0  0  0  0  0  0
    6.6408   -0.3452   -2.6797 H   0  0  0  0  0  0  0  0  0  0  0  0
    8.2859    0.1220   -2.2991 H   0  0  0  0  0  0  0  0  0  0  0  0
    8.0730   -1.1783   -4.4639 H   0  0  0  0  0  0  0  0  0  0  0  0
    9.1853   -1.9578   -3.2952 H   0  0  0  0  0  0  0  0  0  0  0  0
    7.5038   -2.6117   -3.5304 H   0  0  0  0  0  0  0  0  0  0  0  0
    4.0811   -3.9265   -1.0626 H   0  0  0  0  0  0  0  0  0  0  0  0
    1.7867   -3.7327   -0.4811 H   0  0  0  0  0  0  0  0  0  0  0  0
    2.4398   -2.1600    1.8691 H   0  0  0  0  0  0  0  0  0  0  0  0
    2.7709   -3.8893    3.6914 H   0  0  0  0  0  0  0  0  0  0  0  0
    2.9041   -5.1546    2.4115 H   0  0  0  0  0  0  0  0  0  0  0  0
    4.6977   -2.7562    3.0180 H   0  0  0  0  0  0  0  0  0  0  0  0
    5.1754   -4.5018    2.8143 H   0  0  0  0  0  0  0  0  0  0  0  0
   -3.6108   -5.3186    1.8095 H   0  0  0  0  0  0  0  0  0  0  0  0
   -4.3015   -5.3438    0.1803 H   0  0  0  0  0  0  0  0  0  0  0  0
   -1.5579   -6.4553    1.0177 H   0  0  0  0  0  0  0  0  0  0  0  0
   -2.1352   -6.3794   -0.7007 H   0  0  0  0  0  0  0  0  0  0  0  0
   -3.0100   -7.3656    0.5126 H   0  0  0  0  0  0  0  0  0  0  0  0
   -1.4503   -4.2953   -1.2563 H   0  0  0  0  0  0  0  0  0  0  0  0
   -1.9096   -2.5706   -1.1058 H   0  0  0  0  0  0  0  0  0  0  0  0
   -3.7877   -4.8444   -2.0423 H   0  0  0  0  0  0  0  0  0  0  0  0
   -2.9858   -3.5958   -3.0567 H   0  0  0  0  0  0  0  0  0  0  0  0
   -4.2392   -3.0936   -1.8622 H   0  0  0  0  0  0  0  0  0  0  0  0
   -0.0079   -4.7562    0.4989 H   0  0  0  0  0  0  0  0  0  0  0  0
   -5.4357   -0.7927    0.4202 H   0  0  0  0  0  0  0  0  0  0  0  0
   -1.8415   -0.1479    3.7777 H   0  0  0  0  0  0  0  0  0  0  0  0
   -2.5058    4.2749    1.5210 H   0  0  0  0  0  0  0  0  0  0  0  0
   -3.0651    5.3191    2.8560 H   0  0  0  0  0  0  0  0  0  0  0  0
   -0.6803    4.8537    3.0779 H   0  0  0  0  0  0  0  0  0  0  0  0
   -1.5008    3.9720    4.4177 H   0  0  0  0  0  0  0  0  0  0  0  0
   -0.9422    3.0812    2.9454 H   0  0  0  0  0  0  0  0  0  0  0  0
   -5.5783    2.9828    4.2558 H   0  0  0  0  0  0  0  0  0  0  0  0
   -5.2629    4.6949    3.8312 H   0  0  0  0  0  0  0  0  0  0  0  0
   -3.4118    4.8382    5.4153 H   0  0  0  0  0  0  0  0  0  0  0  0
   -4.7997    4.0594    6.2450 H   0  0  0  0  0  0  0  0  0  0  0  0
   -3.4351    3.0369    5.6950 H   0  0  0  0  0  0  0  0  0  0  0  0
   -4.9012    5.1456    1.0079 H   0  0  0  0  0  0  0  0  0  0  0  0
   -6.8578    5.0649   -1.5521 H   0  0  0  0  0  0  0  0  0  0  0  0
   -3.5411    0.7694   -7.9159 H   0  0  0  0  0  0  0  0  0  0  0  0
   -2.2304   -1.1238   -6.9637 H   0  0  0  0  0  0  0  0  0  0  0  0
   -1.6456   -1.1523   -4.5462 H   0  0  0  0  0  0  0  0  0  0  0  0
   -2.3656    0.7044   -3.0538 H   0  0  0  0  0  0  0  0  0  0  0  0
  1  2  1  0
  2  3  1  0
  3  4  1  0
  4  5  2  0
  4  6  1  0
  6  7  1  0
  7  8  2  0
  7  9  1  0
  9 10  1  0
 10 11  1  0
  9 12  1  0
 12 13  2  0
  6 14  2  3
 14 15  1  0
 15 16  2  0
 16 17  1  0
 17 18  1  0
 18 19  1  0
 17 20  1  0
 20 21  1  0
 21 22  1  0
 22 23  1  0
 23 24  2  0
 24 25  1  0
 25 26  1  0
 26 27  1  0
 27 28  1  0
 26 29  1  0
 29 30  1  0
 26 31  1  0
 31 32  1  0
 24 33  1  0
 33 34  2  0
 34 35  1  0
 35 36  2  0
 36 37  1  0
 37 38  1  0
 38 39  1  0
 39 40  2  0
 37 41  1  0
 41 42  1  0
 37 43  1  0
 43 44  1  0
 36 45  1  0
 45 46  2  0
 46 47  1  0
 46 48  1  0
 48 49  2  3
 49 50  1  0
 50 51  2  0
 50 52  1  0
 52 53  2  0
 53 54  1  0
 54 55  1  0
 55 56  2  0
 56 57  1  0
 57 58  2  0
 58 59  1  0
 59 60  2  0
 53 61  1  0
 61 62  2  3
 62 63  1  0
 63 64  3  0
 62 65  1  0
 65 66  3  0
 12  3  1  0
 19 14  1  0
 32 20  2  0
 39 34  1  0
 61 49  1  0
 31 22  2  0
 47 35  1  0
 60 52  1  0
 40 23  1  0
 60 55  1  0
  1 67  1  0
  1 68  1  0
  1 69  1  0
  2 70  1  0
  2 71  1  0
 10 72  1  0
 10 73  1  0
 11 74  1  0
 11 75  1  0
 11 76  1  0
 15 77  1  0
 16 78  1  0
 17 79  1  0
 18 80  1  0
 18 81  1  0
 19 82  1  0
 19 83  1  0
 27 84  1  0
 27 85  1  0
 28 86  1  0
 28 87  1  0
 28 88  1  0
 29 89  1  0
 29 90  1  0
 30 91  1  0
 30 92  1  0
 30 93  1  0
 32 94  1  0
 33 95  1  0
 40 96  1  0
 41 97  1  0
 41 98  1  0
 42 99  1  0
 42100  1  0
 42101  1  0
 43102  1  0
 43103  1  0
 44104  1  0
 44105  1  0
 44106  1  0
 45107  1  0
 48108  1  0
 56109  1  0
 57110  1  0
 58111  1  0
 59112  1  0
M  END

