
     RDKit          3D

 92105  0  0  0  0  0  0  0  0999 V2000
  -10.1645    8.2187    8.3906 N   0  0  0  0  0  0  0  0  0  0  0  0
   -8.8357    8.1173    8.4519 C   0  0  0  0  0  0  0  0  0  0  0  0
   -7.5657    8.0032    8.5206 C   0  0  0  0  0  0  0  0  0  0  0  0
   -7.6565    6.3844    7.7109 C   0  0  0  0  0  0  0  0  0  0  0  0
   -7.6965    5.2910    7.1621 N   0  0  0  0  0  0  0  0  0  0  0  0
   -6.3436    7.8654    8.5334 C   0  0  0  0  0  0  0  0  0  0  0  0
   -5.8771    8.4846    9.8763 C   0  0  0  0  0  0  0  0  0  0  0  0
   -5.5007    9.0105   10.9660 N   0  0  0  0  0  0  0  0  0  0  0  0
   -5.2309    7.5135    7.7686 C   0  0  0  0  0  0  0  0  0  0  0  0
   -4.3731    8.6747    7.1222 C   0  0  0  0  0  0  0  0  0  0  0  0
   -3.5672    7.8771    6.8502 C   0  0  0  0  0  0  0  0  0  0  0  0
   -2.7252    7.0812    6.5602 C   0  0  0  0  0  0  0  0  0  0  0  0
   -4.1931    6.0995    7.4734 S   0  0  0  0  0  0  0  0  0  0  0  0
   -1.6793    6.2239    6.1684 C   0  0  0  0  0  0  0  0  0  0  0  0
   -0.4776    6.5507    5.5963 C   0  0  0  0  0  0  0  0  0  0  0  0
    0.3693    5.6367    5.0966 C   0  0  0  0  0  0  0  0  0  0  0  0
    1.8957    5.7541    4.1597 S   0  0  0  0  0  0  0  0  0  0  0  0
    2.0855    4.0630    3.8694 C   0  0  0  0  0  0  0  0  0  0  0  0
    2.8314    3.1107    3.1848 C   0  0  0  0  0  0  0  0  0  0  0  0
    3.9151    3.2967    2.3329 C   0  0  0  0  0  0  0  0  0  0  0  0
    4.3777    2.2062    1.6427 C   0  0  0  0  0  0  0  0  0  0  0  0
    5.3613    2.4626    0.7733 N   0  0  0  0  0  0  0  0  0  0  0  0
    5.6417    4.0967    0.8953 S   0  0  0  0  0  0  0  0  0  0  0  0
    4.5027    4.4588    2.0554 N   0  0  0  0  0  0  0  0  0  0  0  0
    3.7174    1.0010    1.8552 C   0  0  0  0  0  0  0  0  0  0  0  0
    3.8051   -0.1895    1.1544 C   0  0  0  0  0  0  0  0  0  0  0  0
    2.8637   -1.0447    1.5385 C   0  0  0  0  0  0  0  0  0  0  0  0
    2.1235   -0.4025    2.5535 N   0  0  0  0  0  0  0  0  0  0  0  0
    1.1597   -1.1060    3.2962 C   0  0  0  0  0  0  0  0  0  0  0  0
    1.7845   -1.7257    4.5766 C   0  0  0  0  0  0  0  0  0  0  0  0
    2.6485    0.8240    2.7089 C   0  0  0  0  0  0  0  0  0  0  0  0
    2.1642    1.9228    3.4200 C   0  0  0  0  0  0  0  0  0  0  0  0
    1.0985    2.1331    4.1890 N   0  0  0  0  0  0  0  0  0  0  0  0
    1.0344    3.4951    4.4805 C   0  0  0  0  0  0  0  0  0  0  0  0
    0.2565    4.3688    5.0516 C   0  0  0  0  0  0  0  0  0  0  0  0
   -1.6509    4.3476    6.0148 Se  0  0  0  0  0  2  0  0  0  0  0  0
    0.0569    1.2647    4.6672 C   0  0  0  0  0  0  0  0  0  0  0  0
   -1.1969    1.3505    3.8440 C   0  0  0  0  0  0  0  0  0  0  0  0
    2.8334   -2.1356    0.8241 C   0  0  0  0  0  0  0  0  0  0  0  0
    3.5676   -2.4820   -0.1472 C   0  0  0  0  0  0  0  0  0  0  0  0
    4.6021   -0.9940   -0.1569 S   0  0  0  0  0  0  0  0  0  0  0  0
    3.4461   -3.5075   -1.0193 C   0  0  0  0  0  0  0  0  0  0  0  0
    2.4731   -4.3851   -1.0384 C   0  0  0  0  0  0  0  0  0  0  0  0
    1.4314   -3.7004    0.5366 Se  0  0  0  0  0  2  0  0  0  0  0  0
    1.8483   -5.4644   -1.7453 C   0  0  0  0  0  0  0  0  0  0  0  0
    1.8438   -5.6706   -3.0239 C   0  0  0  0  0  0  0  0  0  0  0  0
    2.5053   -4.8736   -4.0306 C   0  0  0  0  0  0  0  0  0  0  0  0
    3.2866   -3.9171   -3.9583 O   0  0  0  0  0  0  0  0  0  0  0  0
    2.0642   -5.4140   -5.3531 C   0  0  0  0  0  0  0  0  0  0  0  0
    2.4356   -4.9557   -6.6249 C   0  0  0  0  0  0  0  0  0  0  0  0
    1.8965   -5.5765   -7.7416 C   0  0  0  0  0  0  0  0  0  0  0  0
    1.0274   -6.5865   -7.5666 C   0  0  0  0  0  0  0  0  0  0  0  0
    0.6430   -7.0624   -6.2913 C   0  0  0  0  0  0  0  0  0  0  0  0
    1.2104   -6.4249   -5.1850 C   0  0  0  0  0  0  0  0  0  0  0  0
    0.9725   -6.7025   -3.7176 C   0  0  0  0  0  0  0  0  0  0  0  0
    0.1124   -7.4425   -3.2150 C   0  0  0  0  0  0  0  0  0  0  0  0
   -0.2744   -7.4865   -1.8127 C   0  0  0  0  0  0  0  0  0  0  0  0
   -0.6190   -7.5403   -0.6190 N   0  0  0  0  0  0  0  0  0  0  0  0
   -0.7151   -8.4258   -3.9968 C   0  0  0  0  0  0  0  0  0  0  0  0
   -1.3527   -9.1561   -4.5775 N   0  0  0  0  0  0  0  0  0  0  0  0
    0.7680   -6.6583   -9.0515 C   0  0  0  0  0  0  0  0  0  0  0  0
   -0.4224   -5.8606   -9.5159 C   0  0  0  0  0  0  0  0  0  0  0  0
   -0.2392   -5.6809  -10.9982 C   0  0  0  0  0  0  0  0  0  0  0  0
    0.7534   -4.8276  -11.2023 C   0  0  0  0  0  0  0  0  0  0  0  0
    1.2747   -4.4549   -9.8907 C   0  0  0  0  0  0  0  0  0  0  0  0
   -0.0374   -4.4541   -9.0685 C   0  0  0  0  0  0  0  0  0  0  0  0
    1.9047   -5.6588   -9.2351 C   0  0  0  0  0  0  0  0  0  0  0  0
   -4.8667    9.6154    7.1795 H   0  0  0  0  0  0  0  0  0  0  0  0
   -2.6849    8.9486    6.2216 H   0  0  0  0  0  0  0  0  0  0  0  0
   -0.2755    7.6749    5.5978 H   0  0  0  0  0  0  0  0  0  0  0  0
    0.1818   -0.8250    3.4356 H   0  0  0  0  0  0  0  0  0  0  0  0
    0.9757   -2.1320    2.7120 H   0  0  0  0  0  0  0  0  0  0  0  0
    2.2976   -2.6682    4.3371 H   0  0  0  0  0  0  0  0  0  0  0  0
    2.4717   -0.9453    4.9735 H   0  0  0  0  0  0  0  0  0  0  0  0
    0.9673   -1.9176    5.2856 H   0  0  0  0  0  0  0  0  0  0  0  0
    0.3149    0.3582    5.1912 H   0  0  0  0  0  0  0  0  0  0  0  0
   -0.3188    1.7993    5.6499 H   0  0  0  0  0  0  0  0  0  0  0  0
   -2.0816    1.7541    4.4276 H   0  0  0  0  0  0  0  0  0  0  0  0
   -1.5874    0.4325    3.4150 H   0  0  0  0  0  0  0  0  0  0  0  0
   -1.0418    2.1723    3.0827 H   0  0  0  0  0  0  0  0  0  0  0  0
    4.2917   -3.7043   -1.7907 H   0  0  0  0  0  0  0  0  0  0  0  0
    1.3699   -6.2294   -1.0928 H   0  0  0  0  0  0  0  0  0  0  0  0
    3.1171   -4.1542   -6.7527 H   0  0  0  0  0  0  0  0  0  0  0  0
   -0.0230   -7.8772   -6.2386 H   0  0  0  0  0  0  0  0  0  0  0  0
    0.9011   -7.6426   -9.4901 H   0  0  0  0  0  0  0  0  0  0  0  0
   -1.3893   -6.1822   -9.2126 H   0  0  0  0  0  0  0  0  0  0  0  0
   -0.8237   -6.1780  -11.7535 H   0  0  0  0  0  0  0  0  0  0  0  0
    1.1244   -4.4623  -12.1581 H   0  0  0  0  0  0  0  0  0  0  0  0
    1.8297   -3.5335   -9.8112 H   0  0  0  0  0  0  0  0  0  0  0  0
    0.1907   -4.4099   -8.0045 H   0  0  0  0  0  0  0  0  0  0  0  0
   -0.7148   -3.6760   -9.4501 H   0  0  0  0  0  0  0  0  0  0  0  0
    2.8249   -6.0428   -9.6611 H   0  0  0  0  0  0  0  0  0  0  0  0
  1  2  3  0
  2  3  1  0
  3  4  1  0
  4  5  3  0
  3  6  2  3
  6  7  1  0
  7  8  3  0
  6  9  1  0
  9 10  2  0
 10 11  1  0
 11 12  2  0
 12 13  1  0
 12 14  1  0
 14 15  2  0
 15 16  1  0
 16 17  1  0
 17 18  1  0
 18 19  1  0
 19 20  1  0
 20 21  1  0
 21 22  2  0
 22 23  1  0
 23 24  1  0
 21 25  1  0
 25 26  1  0
 26 27  2  0
 27 28  1  0
 28 29  1  0
 29 30  1  0
 28 31  1  0
 31 32  1  0
 32 33  1  0
 33 34  1  0
 34 35  1  0
 35 36  1  0
 33 37  1  0
 37 38  1  0
 27 39  1  0
 39 40  2  0
 40 41  1  0
 40 42  1  0
 42 43  2  0
 43 44  1  0
 43 45  1  0
 45 46  2  3
 46 47  1  0
 47 48  2  0
 47 49  1  0
 49 50  2  0
 50 51  1  0
 51 52  2  0
 52 53  1  0
 53 54  2  0
 54 55  1  0
 55 56  2  3
 56 57  1  0
 57 58  3  0
 56 59  1  0
 59 60  3  0
 52 61  1  0
 61 62  1  0
 62 63  1  0
 63 64  2  0
 64 65  1  0
 65 66  1  0
 65 67  1  0
 13  9  1  0
 36 14  1  0
 44 39  1  0
 55 46  1  0
 67 61  1  0
 35 16  2  0
 54 49  1  0
 66 62  1  0
 34 18  2  0
 67 51  1  0
 32 19  2  0
 24 20  2  0
 31 25  2  0
 41 26  1  0
 10 68  1  0
 11 69  1  0
 15 70  1  0
 29 71  1  0
 29 72  1  0
 30 73  1  0
 30 74  1  0
 30 75  1  0
 37 76  1  0
 37 77  1  0
 38 78  1  0
 38 79  1  0
 38 80  1  0
 42 81  1  0
 45 82  1  0
 50 83  1  0
 53 84  1  0
 61 85  1  0
 62 86  1  0
 63 87  1  0
 64 88  1  0
 65 89  1  0
 66 90  1  0
 66 91  1  0
 67 92  1  0
M  END

