
     RDKit          3D

 79 89  0  0  0  0  0  0  0  0999 V2000
   -5.3130   -5.9117    4.7210 N   0  0  0  0  0  0  0  0  0  0  0  0
   -4.5589   -6.3649    3.8772 C   0  0  0  0  0  0  0  0  0  0  0  0
   -3.7121   -6.8713    2.9439 C   0  0  0  0  0  0  0  0  0  0  0  0
   -3.2379   -5.9077    1.9341 C   0  0  0  0  0  0  0  0  0  0  0  0
   -2.8195   -5.0620    1.0440 N   0  0  0  0  0  0  0  0  0  0  0  0
   -3.1743   -8.1434    2.7863 C   0  0  0  0  0  0  0  0  0  0  0  0
   -3.6351   -9.0672    3.7817 C   0  0  0  0  0  0  0  0  0  0  0  0
   -4.0139   -9.8170    4.5661 N   0  0  0  0  0  0  0  0  0  0  0  0
   -2.1749   -8.2231    1.7824 C   0  0  0  0  0  0  0  0  0  0  0  0
   -1.7914   -8.9716    0.7249 C   0  0  0  0  0  0  0  0  0  0  0  0
   -0.8081   -8.4829   -0.0930 C   0  0  0  0  0  0  0  0  0  0  0  0
   -0.2425   -7.3266    0.1255 C   0  0  0  0  0  0  0  0  0  0  0  0
   -1.1084   -6.8484    1.5962 S   0  0  0  0  0  0  0  0  0  0  0  0
    0.6361   -6.2868   -0.4331 C   0  0  0  0  0  0  0  0  0  0  0  0
    1.3741   -5.9668   -1.4914 C   0  0  0  0  0  0  0  0  0  0  0  0
    1.9355   -4.7221   -1.6309 C   0  0  0  0  0  0  0  0  0  0  0  0
    2.7839   -3.8562   -2.9823 S   0  0  0  0  0  0  0  0  0  0  0  0
    2.8830   -2.2888   -2.2303 C   0  0  0  0  0  0  0  0  0  0  0  0
    3.1888   -0.9503   -2.3518 C   0  0  0  0  0  0  0  0  0  0  0  0
    3.6300   -0.1590   -3.4236 C   0  0  0  0  0  0  0  0  0  0  0  0
    3.6511    1.1784   -3.3573 C   0  0  0  0  0  0  0  0  0  0  0  0
    4.0729    1.8367   -4.4411 N   0  0  0  0  0  0  0  0  0  0  0  0
    4.4425    0.6568   -5.5480 S   0  0  0  0  0  0  0  0  0  0  0  0
    4.0529   -0.6908   -4.6140 N   0  0  0  0  0  0  0  0  0  0  0  0
    3.2295    1.7578   -2.1783 C   0  0  0  0  0  0  0  0  0  0  0  0
    2.9914    3.1222   -1.8525 C   0  0  0  0  0  0  0  0  0  0  0  0
    2.4494    3.1514   -0.5918 C   0  0  0  0  0  0  0  0  0  0  0  0
    2.3802    1.8277   -0.1689 N   0  0  0  0  0  0  0  0  0  0  0  0
    2.2030    1.4968    1.2412 C   0  0  0  0  0  0  0  0  0  0  0  0
    3.4996    1.2185    1.9610 C   0  0  0  0  0  0  0  0  0  0  0  0
    2.8160    1.0195   -1.0926 C   0  0  0  0  0  0  0  0  0  0  0  0
    2.7691   -0.3785   -1.1561 C   0  0  0  0  0  0  0  0  0  0  0  0
    2.2371   -1.2762   -0.3434 N   0  0  0  0  0  0  0  0  0  0  0  0
    2.2922   -2.4892   -1.0066 C   0  0  0  0  0  0  0  0  0  0  0  0
    1.9084   -3.7415   -0.9251 C   0  0  0  0  0  0  0  0  0  0  0  0
    0.6795   -4.6979    0.5778 Se  0  0  0  0  0  2  0  0  0  0  0  0
    1.6111   -1.2255    0.9491 C   0  0  0  0  0  0  0  0  0  0  0  0
    0.1072   -0.9994    0.8173 C   0  0  0  0  0  0  0  0  0  0  0  0
    2.0570    4.3344   -0.1922 C   0  0  0  0  0  0  0  0  0  0  0  0
    2.1402    5.4446   -0.8660 C   0  0  0  0  0  0  0  0  0  0  0  0
    2.9164    4.7452   -2.3307 S   0  0  0  0  0  0  0  0  0  0  0  0
    1.6258    6.6380   -0.5076 C   0  0  0  0  0  0  0  0  0  0  0  0
    0.9347    6.8986    0.5930 C   0  0  0  0  0  0  0  0  0  0  0  0
    0.9644    5.0718    1.4083 Se  0  0  0  0  0  2  0  0  0  0  0  0
    0.2243    7.8844    1.3179 C   0  0  0  0  0  0  0  0  0  0  0  0
   -1.0279    7.6053    1.7128 C   0  0  0  0  0  0  0  0  0  0  0  0
   -1.8788    6.3819    1.4924 C   0  0  0  0  0  0  0  0  0  0  0  0
   -1.5195    5.4372    0.7216 O   0  0  0  0  0  0  0  0  0  0  0  0
   -3.0596    6.4927    2.2454 C   0  0  0  0  0  0  0  0  0  0  0  0
   -4.0618    5.4923    2.5221 C   0  0  0  0  0  0  0  0  0  0  0  0
   -5.0205    5.6850    3.4426 C   0  0  0  0  0  0  0  0  0  0  0  0
   -6.1463    4.3495    3.8869 Cl  0  0  0  0  0  0  0  0  0  0  0  0
   -5.0624    6.8662    4.1262 C   0  0  0  0  0  0  0  0  0  0  0  0
   -6.2831    7.2010    5.3262 Cl  0  0  0  0  0  0  0  0  0  0  0  0
   -4.0696    7.8705    3.8509 C   0  0  0  0  0  0  0  0  0  0  0  0
   -3.0928    7.6589    2.9285 C   0  0  0  0  0  0  0  0  0  0  0  0
   -1.7872    8.4268    2.6241 C   0  0  0  0  0  0  0  0  0  0  0  0
   -1.3710    9.3639    3.4993 C   0  0  0  0  0  0  0  0  0  0  0  0
   -2.2713   10.0558    4.2920 C   0  0  0  0  0  0  0  0  0  0  0  0
   -3.0627   10.6838    5.0136 N   0  0  0  0  0  0  0  0  0  0  0  0
    0.0051    9.4612    3.7400 C   0  0  0  0  0  0  0  0  0  0  0  0
    1.3139    9.5364    3.9557 N   0  0  0  0  0  0  0  0  0  0  0  0
   -2.2860   -9.9632    0.5747 H   0  0  0  0  0  0  0  0  0  0  0  0
   -0.4930   -9.1406   -0.9685 H   0  0  0  0  0  0  0  0  0  0  0  0
    1.5126   -6.7981   -2.2464 H   0  0  0  0  0  0  0  0  0  0  0  0
    1.2712    1.1981    1.6234 H   0  0  0  0  0  0  0  0  0  0  0  0
    2.1023    2.5981    1.6960 H   0  0  0  0  0  0  0  0  0  0  0  0
    4.1530    0.5502    1.4386 H   0  0  0  0  0  0  0  0  0  0  0  0
    4.1017    2.1437    2.2165 H   0  0  0  0  0  0  0  0  0  0  0  0
    3.2381    0.8181    2.9753 H   0  0  0  0  0  0  0  0  0  0  0  0
    1.5564   -2.3323    1.3569 H   0  0  0  0  0  0  0  0  0  0  0  0
    2.1374   -0.8921    1.8065 H   0  0  0  0  0  0  0  0  0  0  0  0
   -0.4487   -1.8575    0.3310 H   0  0  0  0  0  0  0  0  0  0  0  0
   -0.0075   -0.1743    0.0748 H   0  0  0  0  0  0  0  0  0  0  0  0
   -0.4058   -0.7995    1.7682 H   0  0  0  0  0  0  0  0  0  0  0  0
    1.7752    7.5899   -1.1695 H   0  0  0  0  0  0  0  0  0  0  0  0
    0.5976    8.8489    1.5620 H   0  0  0  0  0  0  0  0  0  0  0  0
   -3.9932    4.5635    1.9451 H   0  0  0  0  0  0  0  0  0  0  0  0
   -4.1649    8.7453    4.3992 H   0  0  0  0  0  0  0  0  0  0  0  0
  1  2  3  0
  2  3  1  0
  3  4  1  0
  4  5  3  0
  3  6  2  3
  6  7  1  0
  7  8  3  0
  6  9  1  0
  9 10  2  0
 10 11  1  0
 11 12  2  0
 12 13  1  0
 12 14  1  0
 14 15  2  0
 15 16  1  0
 16 17  1  0
 17 18  1  0
 18 19  1  0
 19 20  1  0
 20 21  1  0
 21 22  2  0
 22 23  1  0
 23 24  1  0
 21 25  1  0
 25 26  1  0
 26 27  2  0
 27 28  1  0
 28 29  1  0
 29 30  1  0
 28 31  1  0
 31 32  1  0
 32 33  1  0
 33 34  1  0
 34 35  1  0
 35 36  1  0
 33 37  1  0
 37 38  1  0
 27 39  1  0
 39 40  2  0
 40 41  1  0
 40 42  1  0
 42 43  2  0
 43 44  1  0
 43 45  1  0
 45 46  2  3
 46 47  1  0
 47 48  2  0
 47 49  1  0
 49 50  2  0
 50 51  1  0
 51 52  1  0
 51 53  2  0
 53 54  1  0
 53 55  1  0
 55 56  2  0
 56 57  1  0
 57 58  2  3
 58 59  1  0
 59 60  3  0
 58 61  1  0
 61 62  3  0
 13  9  1  0
 36 14  1  0
 44 39  1  0
 57 46  1  0
 35 16  2  0
 56 49  1  0
 34 18  2  0
 32 19  2  0
 24 20  2  0
 31 25  2  0
 41 26  1  0
 10 63  1  0
 11 64  1  0
 15 65  1  0
 29 66  1  0
 29 67  1  0
 30 68  1  0
 30 69  1  0
 30 70  1  0
 37 71  1  0
 37 72  1  0
 38 73  1  0
 38 74  1  0
 38 75  1  0
 42 76  1  0
 45 77  1  0
 50 78  1  0
 55 79  1  0
M  END

