
     RDKit          3D

 92102  0  0  0  0  0  0  0  0999 V2000
    9.6828    5.1610    8.7255 N   0  0  0  0  0  0  0  0  0  0  0  0
    9.6522    5.7790    7.7484 C   0  0  0  0  0  0  0  0  0  0  0  0
    9.6083    6.5547    6.5330 C   0  0  0  0  0  0  0  0  0  0  0  0
   10.5464    7.6485    6.4431 C   0  0  0  0  0  0  0  0  0  0  0  0
   11.3065    8.5179    6.3706 N   0  0  0  0  0  0  0  0  0  0  0  0
    8.7869    6.2411    5.5025 C   0  0  0  0  0  0  0  0  0  0  0  0
    8.8716    6.9689    4.2530 C   0  0  0  0  0  0  0  0  0  0  0  0
    8.9383    7.5505    3.2544 N   0  0  0  0  0  0  0  0  0  0  0  0
    7.7973    5.1390    5.5629 C   0  0  0  0  0  0  0  0  0  0  0  0
    6.9835    4.7986    6.6422 C   0  0  0  0  0  0  0  0  0  0  0  0
    6.1148    3.7341    6.3757 C   0  0  0  0  0  0  0  0  0  0  0  0
    6.2194    3.2458    5.0777 C   0  0  0  0  0  0  0  0  0  0  0  0
    7.3945    4.1381    4.2682 S   0  0  0  0  0  0  0  0  0  0  0  0
    5.4313    2.1477    4.4978 C   0  0  0  0  0  0  0  0  0  0  0  0
    4.2810    1.2138    5.3556 S   0  0  0  0  0  0  0  0  0  0  0  0
    3.8939    0.3043    4.0046 C   0  0  0  0  0  0  0  0  0  0  0  0
    2.8379   -0.4279    3.5680 C   0  0  0  0  0  0  0  0  0  0  0  0
    1.3066   -0.7609    4.2051 S   0  0  0  0  0  0  0  0  0  0  0  0
    0.7669   -1.1224    2.6391 C   0  0  0  0  0  0  0  0  0  0  0  0
   -0.4379   -1.3584    2.0498 C   0  0  0  0  0  0  0  0  0  0  0  0
   -1.7368   -1.2252    2.5612 C   0  0  0  0  0  0  0  0  0  0  0  0
   -2.8291   -1.1895    1.6471 C   0  0  0  0  0  0  0  0  0  0  0  0
   -4.0668   -1.0103    2.1681 N   0  0  0  0  0  0  0  0  0  0  0  0
   -3.6733   -0.8854    3.7718 S   0  0  0  0  0  0  0  0  0  0  0  0
   -2.0268   -1.0474    3.8737 N   0  0  0  0  0  0  0  0  0  0  0  0
   -2.5634   -1.3590    0.2868 C   0  0  0  0  0  0  0  0  0  0  0  0
   -3.3713   -1.4043   -0.8039 C   0  0  0  0  0  0  0  0  0  0  0  0
   -4.9764   -1.1936   -1.1975 S   0  0  0  0  0  0  0  0  0  0  0  0
   -4.6848   -1.4790   -2.8609 C   0  0  0  0  0  0  0  0  0  0  0  0
   -3.3255   -1.8021   -3.0805 C   0  0  0  0  0  0  0  0  0  0  0  0
   -2.7134   -1.9612   -4.4497 C   0  0  0  0  0  0  0  0  0  0  0  0
   -2.8599   -3.3851   -4.9767 C   0  0  0  0  0  0  0  0  0  0  0  0
   -2.6153   -1.7326   -1.8700 C   0  0  0  0  0  0  0  0  0  0  0  0
   -1.3183   -1.9704   -1.5266 N   0  0  0  0  0  0  0  0  0  0  0  0
   -1.2782   -1.6015   -0.2066 C   0  0  0  0  0  0  0  0  0  0  0  0
   -0.1728   -1.4693    0.6782 C   0  0  0  0  0  0  0  0  0  0  0  0
    1.1465   -1.1681    0.4152 N   0  0  0  0  0  0  0  0  0  0  0  0
    1.6912   -0.9358    1.6498 C   0  0  0  0  0  0  0  0  0  0  0  0
    2.9090   -0.4548    2.1874 C   0  0  0  0  0  0  0  0  0  0  0  0
    3.9670    0.3089    1.7421 N   0  0  0  0  0  0  0  0  0  0  0  0
    4.5483    0.7347    2.9006 C   0  0  0  0  0  0  0  0  0  0  0  0
    5.4373    1.7868    3.1398 C   0  0  0  0  0  0  0  0  0  0  0  0
    4.1801    0.9855    0.4609 C   0  0  0  0  0  0  0  0  0  0  0  0
    3.2226    2.1655    0.3079 C   0  0  0  0  0  0  0  0  0  0  0  0
    1.7845   -0.9811   -0.8909 C   0  0  0  0  0  0  0  0  0  0  0  0
    2.9344   -1.9745   -1.0867 C   0  0  0  0  0  0  0  0  0  0  0  0
   -0.5634   -3.1202   -2.0541 C   0  0  0  0  0  0  0  0  0  0  0  0
   -1.2456   -4.4419   -1.6930 C   0  0  0  0  0  0  0  0  0  0  0  0
   -5.7216   -1.4016   -3.9078 C   0  0  0  0  0  0  0  0  0  0  0  0
   -6.7098   -0.4887   -3.9304 C   0  0  0  0  0  0  0  0  0  0  0  0
   -7.9877   -0.7208   -4.6016 C   0  0  0  0  0  0  0  0  0  0  0  0
   -8.2198   -1.5974   -5.4783 O   0  0  0  0  0  0  0  0  0  0  0  0
   -8.9722    0.1617   -4.0056 C   0  0  0  0  0  0  0  0  0  0  0  0
  -10.3483    0.1934   -4.2210 C   0  0  0  0  0  0  0  0  0  0  0  0
  -11.1267    1.0704   -3.4515 C   0  0  0  0  0  0  0  0  0  0  0  0
  -12.8629    1.1319   -3.6987 Cl  0  0  0  0  0  0  0  0  0  0  0  0
  -10.5187    1.8810   -2.4720 C   0  0  0  0  0  0  0  0  0  0  0  0
  -11.2755    2.7065   -1.7065 F   0  0  0  0  0  0  0  0  0  0  0  0
   -9.1295    1.8282   -2.2680 C   0  0  0  0  0  0  0  0  0  0  0  0
   -8.3582    0.9718   -3.0661 C   0  0  0  0  0  0  0  0  0  0  0  0
   -6.8930    0.7211   -3.0752 C   0  0  0  0  0  0  0  0  0  0  0  0
   -5.9320    1.6280   -2.7670 C   0  0  0  0  0  0  0  0  0  0  0  0
   -6.2213    2.8590   -2.0792 C   0  0  0  0  0  0  0  0  0  0  0  0
   -6.4371    3.8515   -1.5239 N   0  0  0  0  0  0  0  0  0  0  0  0
   -4.5836    1.5010   -3.2613 C   0  0  0  0  0  0  0  0  0  0  0  0
   -3.5012    1.4125   -3.6639 N   0  0  0  0  0  0  0  0  0  0  0  0
    6.9882    5.3206    7.5885 H   0  0  0  0  0  0  0  0  0  0  0  0
    5.4184    3.3501    7.1087 H   0  0  0  0  0  0  0  0  0  0  0  0
   -1.6444   -1.6664   -4.4350 H   0  0  0  0  0  0  0  0  0  0  0  0
   -3.2163   -1.2685   -5.1583 H   0  0  0  0  0  0  0  0  0  0  0  0
   -3.9221   -3.7008   -4.9680 H   0  0  0  0  0  0  0  0  0  0  0  0
   -2.2712   -4.0974   -4.3686 H   0  0  0  0  0  0  0  0  0  0  0  0
   -2.4884   -3.4346   -6.0215 H   0  0  0  0  0  0  0  0  0  0  0  0
    5.9965    2.3095    2.3730 H   0  0  0  0  0  0  0  0  0  0  0  0
    5.2204    1.3692    0.4068 H   0  0  0  0  0  0  0  0  0  0  0  0
    4.1202    0.2849   -0.3810 H   0  0  0  0  0  0  0  0  0  0  0  0
    3.3225    2.5986   -0.7084 H   0  0  0  0  0  0  0  0  0  0  0  0
    2.1709    1.8503    0.4689 H   0  0  0  0  0  0  0  0  0  0  0  0
    3.4712    2.9497    1.0540 H   0  0  0  0  0  0  0  0  0  0  0  0
    1.0606   -1.0844   -1.7131 H   0  0  0  0  0  0  0  0  0  0  0  0
    2.1139    0.0624   -1.0050 H   0  0  0  0  0  0  0  0  0  0  0  0
    3.4529   -1.7636   -2.0450 H   0  0  0  0  0  0  0  0  0  0  0  0
    2.5665   -3.0185   -1.1035 H   0  0  0  0  0  0  0  0  0  0  0  0
    3.6642   -1.9070   -0.2557 H   0  0  0  0  0  0  0  0  0  0  0  0
    0.4374   -3.1723   -1.6062 H   0  0  0  0  0  0  0  0  0  0  0  0
   -0.4328   -3.0384   -3.1491 H   0  0  0  0  0  0  0  0  0  0  0  0
   -2.2833   -4.4771   -2.0843 H   0  0  0  0  0  0  0  0  0  0  0  0
   -0.6704   -5.2863   -2.1243 H   0  0  0  0  0  0  0  0  0  0  0  0
   -1.2769   -4.5607   -0.5889 H   0  0  0  0  0  0  0  0  0  0  0  0
   -5.7471   -2.2061   -4.6297 H   0  0  0  0  0  0  0  0  0  0  0  0
  -10.8054   -0.4565   -4.9549 H   0  0  0  0  0  0  0  0  0  0  0  0
   -8.6915    2.4185   -1.4788 H   0  0  0  0  0  0  0  0  0  0  0  0
  1  2  3  0
  2  3  1  0
  3  4  1  0
  4  5  3  0
  3  6  2  3
  6  7  1  0
  7  8  3  0
  6  9  1  0
  9 10  2  0
 10 11  1  0
 11 12  2  0
 12 13  1  0
 12 14  1  0
 14 15  1  0
 15 16  1  0
 16 17  1  0
 17 18  1  0
 18 19  1  0
 19 20  1  0
 20 21  1  0
 21 22  1  0
 22 23  2  0
 23 24  1  0
 24 25  1  0
 22 26  1  0
 26 27  1  0
 27 28  1  0
 28 29  1  0
 29 30  2  0
 30 31  1  0
 31 32  1  0
 30 33  1  0
 33 34  1  0
 34 35  1  0
 35 36  1  0
 36 37  1  0
 37 38  1  0
 38 39  1  0
 39 40  1  0
 40 41  1  0
 41 42  1  0
 40 43  1  0
 43 44  1  0
 37 45  1  0
 45 46  1  0
 34 47  1  0
 47 48  1  0
 29 49  1  0
 49 50  2  3
 50 51  1  0
 51 52  2  0
 51 53  1  0
 53 54  2  0
 54 55  1  0
 55 56  1  0
 55 57  2  0
 57 58  1  0
 57 59  1  0
 59 60  2  0
 60 61  1  0
 61 62  2  3
 62 63  1  0
 63 64  3  0
 62 65  1  0
 65 66  3  0
 13  9  1  0
 42 14  2  0
 61 50  1  0
 41 16  2  0
 60 53  1  0
 39 17  2  0
 38 19  2  0
 36 20  2  0
 25 21  2  0
 35 26  2  0
 33 27  2  0
 10 67  1  0
 11 68  1  0
 31 69  1  0
 31 70  1  0
 32 71  1  0
 32 72  1  0
 32 73  1  0
 42 74  1  0
 43 75  1  0
 43 76  1  0
 44 77  1  0
 44 78  1  0
 44 79  1  0
 45 80  1  0
 45 81  1  0
 46 82  1  0
 46 83  1  0
 46 84  1  0
 47 85  1  0
 47 86  1  0
 48 87  1  0
 48 88  1  0
 48 89  1  0
 49 90  1  0
 54 91  1  0
 59 92  1  0
M  END

