
     RDKit          3D

 98109  0  0  0  0  0  0  0  0999 V2000
  -10.8485    4.8211   -4.3861 N   0  0  0  0  0  0  0  0  0  0  0  0
  -10.7063    5.9476   -4.1436 C   0  0  0  0  0  0  0  0  0  0  0  0
  -10.5321    7.3517   -3.8489 C   0  0  0  0  0  0  0  0  0  0  0  0
  -11.0049    8.2840   -4.8503 C   0  0  0  0  0  0  0  0  0  0  0  0
  -11.3853    9.0247   -5.6601 N   0  0  0  0  0  0  0  0  0  0  0  0
   -9.9998    7.7830   -2.6823 C   0  0  0  0  0  0  0  0  0  0  0  0
   -9.9573    9.1963   -2.3897 C   0  0  0  0  0  0  0  0  0  0  0  0
   -9.9241   10.3261   -2.1481 N   0  0  0  0  0  0  0  0  0  0  0  0
   -9.4229    6.8632   -1.6669 C   0  0  0  0  0  0  0  0  0  0  0  0
   -9.4037    7.0790   -0.2857 C   0  0  0  0  0  0  0  0  0  0  0  0
   -8.6794    6.1173    0.4282 C   0  0  0  0  0  0  0  0  0  0  0  0
   -8.0988    5.1522   -0.3845 C   0  0  0  0  0  0  0  0  0  0  0  0
   -8.5028    5.4854   -1.9796 S   0  0  0  0  0  0  0  0  0  0  0  0
   -7.1814    4.0910    0.0545 C   0  0  0  0  0  0  0  0  0  0  0  0
   -6.6666    3.8471    1.6727 S   0  0  0  0  0  0  0  0  0  0  0  0
   -5.5975    2.6383    1.2294 C   0  0  0  0  0  0  0  0  0  0  0  0
   -4.7018    1.7548    1.7560 C   0  0  0  0  0  0  0  0  0  0  0  0
   -4.1082    1.2413    3.2584 S   0  0  0  0  0  0  0  0  0  0  0  0
   -3.1604    0.0709    2.4584 C   0  0  0  0  0  0  0  0  0  0  0  0
   -2.0405   -0.6363    2.7660 C   0  0  0  0  0  0  0  0  0  0  0  0
   -1.3761   -0.7885    3.9868 C   0  0  0  0  0  0  0  0  0  0  0  0
   -0.1043   -1.4316    3.9953 C   0  0  0  0  0  0  0  0  0  0  0  0
    0.5152   -1.5577    5.1974 N   0  0  0  0  0  0  0  0  0  0  0  0
   -0.6067   -0.8064    6.1617 S   0  0  0  0  0  0  0  0  0  0  0  0
   -1.8523   -0.3362    5.1755 N   0  0  0  0  0  0  0  0  0  0  0  0
    0.4134   -1.9047    2.7839 C   0  0  0  0  0  0  0  0  0  0  0  0
    1.4972   -2.6880    2.5242 C   0  0  0  0  0  0  0  0  0  0  0  0
    2.7258   -3.4272    3.3777 S   0  0  0  0  0  0  0  0  0  0  0  0
    3.2630   -4.2846    2.0101 C   0  0  0  0  0  0  0  0  0  0  0  0
    2.4290   -4.0404    0.8966 C   0  0  0  0  0  0  0  0  0  0  0  0
    2.5118   -4.8639   -0.3687 C   0  0  0  0  0  0  0  0  0  0  0  0
    1.7309   -6.1693   -0.2131 C   0  0  0  0  0  0  0  0  0  0  0  0
    1.4403   -3.0834    1.2366 C   0  0  0  0  0  0  0  0  0  0  0  0
    0.3678   -2.5252    0.5912 N   0  0  0  0  0  0  0  0  0  0  0  0
   -0.2554   -1.7664    1.5573 C   0  0  0  0  0  0  0  0  0  0  0  0
   -1.4889   -1.0378    1.5365 C   0  0  0  0  0  0  0  0  0  0  0  0
   -2.1720   -0.4493    0.4929 N   0  0  0  0  0  0  0  0  0  0  0  0
   -3.2500    0.1118    1.0978 C   0  0  0  0  0  0  0  0  0  0  0  0
   -4.1785    1.0726    0.6940 C   0  0  0  0  0  0  0  0  0  0  0  0
   -4.7453    1.4378   -0.4942 N   0  0  0  0  0  0  0  0  0  0  0  0
   -5.6138    2.4153   -0.1070 C   0  0  0  0  0  0  0  0  0  0  0  0
   -6.5247    3.1948   -0.8131 C   0  0  0  0  0  0  0  0  0  0  0  0
   -4.7750    0.6851   -1.7530 C   0  0  0  0  0  0  0  0  0  0  0  0
   -4.2837    1.5115   -2.9386 C   0  0  0  0  0  0  0  0  0  0  0  0
   -1.5555    0.1664   -0.7015 C   0  0  0  0  0  0  0  0  0  0  0  0
   -0.1935    0.8038   -0.4038 C   0  0  0  0  0  0  0  0  0  0  0  0
   -0.1250   -2.8670   -0.7481 C   0  0  0  0  0  0  0  0  0  0  0  0
    0.7548   -2.2522   -1.8542 C   0  0  0  0  0  0  0  0  0  0  0  0
    4.4469   -5.1595    1.9779 C   0  0  0  0  0  0  0  0  0  0  0  0
    5.6408   -4.6710    1.6077 C   0  0  0  0  0  0  0  0  0  0  0  0
    6.3538   -5.2354    0.4562 C   0  0  0  0  0  0  0  0  0  0  0  0
    6.3627   -6.4453    0.1168 O   0  0  0  0  0  0  0  0  0  0  0  0
    6.9200   -4.1396   -0.3175 C   0  0  0  0  0  0  0  0  0  0  0  0
    7.4347   -4.1680   -1.6162 C   0  0  0  0  0  0  0  0  0  0  0  0
    7.7262   -2.9422   -2.2495 C   0  0  0  0  0  0  0  0  0  0  0  0
    8.2290   -2.9090   -3.5584 C   0  0  0  0  0  0  0  0  0  0  0  0
    8.4825   -1.6832   -4.1869 C   0  0  0  0  0  0  0  0  0  0  0  0
    8.9654   -1.6642   -5.4537 F   0  0  0  0  0  0  0  0  0  0  0  0
    8.2186   -0.4790   -3.5249 C   0  0  0  0  0  0  0  0  0  0  0  0
    8.4345    0.7050   -4.1505 F   0  0  0  0  0  0  0  0  0  0  0  0
    7.7156   -0.4926   -2.2199 C   0  0  0  0  0  0  0  0  0  0  0  0
    7.4607   -1.7144   -1.5751 C   0  0  0  0  0  0  0  0  0  0  0  0
    6.9338   -1.7220   -0.2681 C   0  0  0  0  0  0  0  0  0  0  0  0
    6.6827   -2.9539    0.3471 C   0  0  0  0  0  0  0  0  0  0  0  0
    6.0368   -3.2377    1.6474 C   0  0  0  0  0  0  0  0  0  0  0  0
    6.1366   -2.5034    2.7838 C   0  0  0  0  0  0  0  0  0  0  0  0
    6.7695   -1.2041    2.7852 C   0  0  0  0  0  0  0  0  0  0  0  0
    7.2831   -0.1643    2.7912 N   0  0  0  0  0  0  0  0  0  0  0  0
    5.8332   -3.0729    4.0817 C   0  0  0  0  0  0  0  0  0  0  0  0
    5.5916   -3.5222    5.1242 N   0  0  0  0  0  0  0  0  0  0  0  0
   -9.8746    7.9164    0.2046 H   0  0  0  0  0  0  0  0  0  0  0  0
   -8.5229    6.1602    1.4942 H   0  0  0  0  0  0  0  0  0  0  0  0
    3.5709   -5.1141   -0.5934 H   0  0  0  0  0  0  0  0  0  0  0  0
    2.1524   -4.3102   -1.2494 H   0  0  0  0  0  0  0  0  0  0  0  0
    2.1856   -6.7953    0.5831 H   0  0  0  0  0  0  0  0  0  0  0  0
    0.6726   -5.9688    0.0523 H   0  0  0  0  0  0  0  0  0  0  0  0
    1.7570   -6.7480   -1.1614 H   0  0  0  0  0  0  0  0  0  0  0  0
   -6.6818    3.1353   -1.8778 H   0  0  0  0  0  0  0  0  0  0  0  0
   -4.1472   -0.2212   -1.6701 H   0  0  0  0  0  0  0  0  0  0  0  0
   -5.8166    0.3385   -1.9440 H   0  0  0  0  0  0  0  0  0  0  0  0
   -4.8770    2.4353   -3.0591 H   0  0  0  0  0  0  0  0  0  0  0  0
   -3.2215    1.7915   -2.8017 H   0  0  0  0  0  0  0  0  0  0  0  0
   -4.3879    0.9032   -3.8630 H   0  0  0  0  0  0  0  0  0  0  0  0
   -2.1691    1.0097   -1.0541 H   0  0  0  0  0  0  0  0  0  0  0  0
   -1.5355   -0.5403   -1.5485 H   0  0  0  0  0  0  0  0  0  0  0  0
   -0.2703    1.4455    0.5074 H   0  0  0  0  0  0  0  0  0  0  0  0
    0.1130    1.4415   -1.2716 H   0  0  0  0  0  0  0  0  0  0  0  0
    0.5915    0.0377   -0.2284 H   0  0  0  0  0  0  0  0  0  0  0  0
   -1.1855   -2.5809   -0.8643 H   0  0  0  0  0  0  0  0  0  0  0  0
   -0.1356   -3.9683   -0.8501 H   0  0  0  0  0  0  0  0  0  0  0  0
    0.3392   -1.3131   -2.2431 H   0  0  0  0  0  0  0  0  0  0  0  0
    1.7683   -2.0310   -1.4751 H   0  0  0  0  0  0  0  0  0  0  0  0
    0.8298   -2.9553   -2.7056 H   0  0  0  0  0  0  0  0  0  0  0  0
    4.2439   -6.1924    1.7336 H   0  0  0  0  0  0  0  0  0  0  0  0
    7.5766   -5.1056   -2.1268 H   0  0  0  0  0  0  0  0  0  0  0  0
    8.4311   -3.8250   -4.0925 H   0  0  0  0  0  0  0  0  0  0  0  0
    7.5126    0.4503   -1.7155 H   0  0  0  0  0  0  0  0  0  0  0  0
    6.6654   -0.7901    0.2166 H   0  0  0  0  0  0  0  0  0  0  0  0
  1  2  3  0
  2  3  1  0
  3  4  1  0
  4  5  3  0
  3  6  2  3
  6  7  1  0
  7  8  3  0
  6  9  1  0
  9 10  2  0
 10 11  1  0
 11 12  2  0
 12 13  1  0
 12 14  1  0
 14 15  1  0
 15 16  1  0
 16 17  1  0
 17 18  1  0
 18 19  1  0
 19 20  1  0
 20 21  1  0
 21 22  1  0
 22 23  2  0
 23 24  1  0
 24 25  1  0
 22 26  1  0
 26 27  1  0
 27 28  1  0
 28 29  1  0
 29 30  2  0
 30 31  1  0
 31 32  1  0
 30 33  1  0
 33 34  1  0
 34 35  1  0
 35 36  1  0
 36 37  1  0
 37 38  1  0
 38 39  1  0
 39 40  1  0
 40 41  1  0
 41 42  1  0
 40 43  1  0
 43 44  1  0
 37 45  1  0
 45 46  1  0
 34 47  1  0
 47 48  1  0
 29 49  1  0
 49 50  2  3
 50 51  1  0
 51 52  2  0
 51 53  1  0
 53 54  2  0
 54 55  1  0
 55 56  2  0
 56 57  1  0
 57 58  1  0
 57 59  2  0
 59 60  1  0
 59 61  1  0
 61 62  2  0
 62 63  1  0
 63 64  2  0
 64 65  1  0
 65 66  2  3
 66 67  1  0
 67 68  3  0
 66 69  1  0
 69 70  3  0
 13  9  1  0
 42 14  2  0
 65 50  1  0
 41 16  2  0
 64 53  1  0
 39 17  2  0
 62 55  1  0
 38 19  2  0
 36 20  2  0
 25 21  2  0
 35 26  2  0
 33 27  2  0
 10 71  1  0
 11 72  1  0
 31 73  1  0
 31 74  1  0
 32 75  1  0
 32 76  1  0
 32 77  1  0
 42 78  1  0
 43 79  1  0
 43 80  1  0
 44 81  1  0
 44 82  1  0
 44 83  1  0
 45 84  1  0
 45 85  1  0
 46 86  1  0
 46 87  1  0
 46 88  1  0
 47 89  1  0
 47 90  1  0
 48 91  1  0
 48 92  1  0
 48 93  1  0
 49 94  1  0
 54 95  1  0
 56 96  1  0
 61 97  1  0
 63 98  1  0
M  END

