
     RDKit          3D

 91101  0  0  0  0  0  0  0  0999 V2000
    5.8013    8.6072  -12.0174 N   0  0  0  0  0  0  0  0  0  0  0  0
    5.3121    8.0686  -11.1178 C   0  0  0  0  0  0  0  0  0  0  0  0
    4.7030    7.3995   -9.9904 C   0  0  0  0  0  0  0  0  0  0  0  0
    3.5876    8.0636   -9.3716 C   0  0  0  0  0  0  0  0  0  0  0  0
    2.6885    8.6022   -8.8749 N   0  0  0  0  0  0  0  0  0  0  0  0
    5.1239    6.1800   -9.5769 C   0  0  0  0  0  0  0  0  0  0  0  0
    6.1532    5.4754  -10.3071 C   0  0  0  0  0  0  0  0  0  0  0  0
    6.9765    4.9124  -10.9013 N   0  0  0  0  0  0  0  0  0  0  0  0
    4.5363    5.4857   -8.4083 C   0  0  0  0  0  0  0  0  0  0  0  0
    4.2999    6.0382   -7.1537 C   0  0  0  0  0  0  0  0  0  0  0  0
    3.7480    5.1298   -6.2386 C   0  0  0  0  0  0  0  0  0  0  0  0
    3.5639    3.8478   -6.7518 C   0  0  0  0  0  0  0  0  0  0  0  0
    4.0849    3.8651   -8.3569 S   0  0  0  0  0  0  0  0  0  0  0  0
    2.9279    2.7256   -6.0198 C   0  0  0  0  0  0  0  0  0  0  0  0
    2.9379    1.3402   -6.3380 C   0  0  0  0  0  0  0  0  0  0  0  0
    3.6473    0.6846   -7.4924 C   0  0  0  0  0  0  0  0  0  0  0  0
    2.7231    0.5512   -8.6977 C   0  0  0  0  0  0  0  0  0  0  0  0
    2.1879    0.6112   -5.4096 C   0  0  0  0  0  0  0  0  0  0  0  0
    1.9089   -1.0581   -5.1722 S   0  0  0  0  0  0  0  0  0  0  0  0
    0.9979   -0.7402   -3.7754 C   0  0  0  0  0  0  0  0  0  0  0  0
    0.5574   -1.4183   -2.6753 C   0  0  0  0  0  0  0  0  0  0  0  0
    0.6550   -2.7684   -2.3074 C   0  0  0  0  0  0  0  0  0  0  0  0
    0.3096   -3.1385   -0.9704 C   0  0  0  0  0  0  0  0  0  0  0  0
    0.4065   -4.4511   -0.6498 N   0  0  0  0  0  0  0  0  0  0  0  0
    0.9543   -5.0482   -2.0978 S   0  0  0  0  0  0  0  0  0  0  0  0
    1.0783   -3.7595   -3.1322 N   0  0  0  0  0  0  0  0  0  0  0  0
   -0.1466   -2.1448   -0.0961 C   0  0  0  0  0  0  0  0  0  0  0  0
   -0.7206   -2.2220    1.1353 C   0  0  0  0  0  0  0  0  0  0  0  0
   -1.1289   -3.4039    2.2802 S   0  0  0  0  0  0  0  0  0  0  0  0
   -2.0022   -2.2453    3.1844 C   0  0  0  0  0  0  0  0  0  0  0  0
   -2.7288   -2.3109    4.3762 C   0  0  0  0  0  0  0  0  0  0  0  0
   -3.0532   -3.6105    5.0606 C   0  0  0  0  0  0  0  0  0  0  0  0
   -4.3646   -4.1890    4.5349 C   0  0  0  0  0  0  0  0  0  0  0  0
   -3.2883   -1.0497    4.6897 C   0  0  0  0  0  0  0  0  0  0  0  0
   -2.9310    0.0695    3.4500 S   0  0  0  0  0  0  0  0  0  0  0  0
   -2.0058   -1.0189    2.5703 C   0  0  0  0  0  0  0  0  0  0  0  0
   -1.2590   -1.0060    1.4031 C   0  0  0  0  0  0  0  0  0  0  0  0
   -1.0779   -0.1060    0.3994 N   0  0  0  0  0  0  0  0  0  0  0  0
   -0.2938   -0.8053   -0.4882 C   0  0  0  0  0  0  0  0  0  0  0  0
    0.1737   -0.4221   -1.7643 C   0  0  0  0  0  0  0  0  0  0  0  0
    0.5177    0.8247   -2.2123 N   0  0  0  0  0  0  0  0  0  0  0  0
    0.9476    0.5841   -3.4764 C   0  0  0  0  0  0  0  0  0  0  0  0
    1.6371    1.3528   -4.4007 C   0  0  0  0  0  0  0  0  0  0  0  0
    2.0298    2.9656   -4.5836 S   0  0  0  0  0  0  0  0  0  0  0  0
    1.0158    1.9354   -1.3817 C   0  0  0  0  0  0  0  0  0  0  0  0
    2.5217    1.8103   -1.1346 C   0  0  0  0  0  0  0  0  0  0  0  0
   -2.0171    0.9955    0.1007 C   0  0  0  0  0  0  0  0  0  0  0  0
   -2.8869    0.6761   -1.1171 C   0  0  0  0  0  0  0  0  0  0  0  0
   -4.1516   -0.7208    5.8344 C   0  0  0  0  0  0  0  0  0  0  0  0
   -3.8360   -0.9451    7.1216 C   0  0  0  0  0  0  0  0  0  0  0  0
   -4.8556   -1.0834    8.1643 C   0  0  0  0  0  0  0  0  0  0  0  0
   -6.0495   -0.6966    8.0856 O   0  0  0  0  0  0  0  0  0  0  0  0
   -4.2829   -1.8461    9.2559 C   0  0  0  0  0  0  0  0  0  0  0  0
   -4.9272   -2.3516   10.3873 C   0  0  0  0  0  0  0  0  0  0  0  0
   -4.2003   -3.1769   11.2620 C   0  0  0  0  0  0  0  0  0  0  0  0
   -4.9811   -3.8189   12.7080 Cl  0  0  0  0  0  0  0  0  0  0  0  0
   -2.8594   -3.4999   10.9736 C   0  0  0  0  0  0  0  0  0  0  0  0
   -2.1667   -4.3267   11.7985 F   0  0  0  0  0  0  0  0  0  0  0  0
   -2.2294   -2.9825    9.8263 C   0  0  0  0  0  0  0  0  0  0  0  0
   -2.9564   -2.1297    8.9766 C   0  0  0  0  0  0  0  0  0  0  0  0
   -2.5599   -1.4555    7.7117 C   0  0  0  0  0  0  0  0  0  0  0  0
   -1.3013   -1.0656    7.3861 C   0  0  0  0  0  0  0  0  0  0  0  0
   -0.1362   -1.5523    8.0761 C   0  0  0  0  0  0  0  0  0  0  0  0
    0.8124   -1.9403    8.6149 N   0  0  0  0  0  0  0  0  0  0  0  0
   -1.0504   -0.0027    6.4544 C   0  0  0  0  0  0  0  0  0  0  0  0
   -0.8214    0.8641    5.7229 N   0  0  0  0  0  0  0  0  0  0  0  0
    4.5234    7.0668   -6.8981 H   0  0  0  0  0  0  0  0  0  0  0  0
    3.5012    5.4065   -5.2218 H   0  0  0  0  0  0  0  0  0  0  0  0
    3.9919   -0.3313   -7.1954 H   0  0  0  0  0  0  0  0  0  0  0  0
    4.5578    1.2500   -7.7657 H   0  0  0  0  0  0  0  0  0  0  0  0
    2.2923    1.5346   -8.9832 H   0  0  0  0  0  0  0  0  0  0  0  0
    3.2986    0.1460   -9.5581 H   0  0  0  0  0  0  0  0  0  0  0  0
    1.8935   -0.1476   -8.4517 H   0  0  0  0  0  0  0  0  0  0  0  0
   -3.1365   -3.4778    6.1529 H   0  0  0  0  0  0  0  0  0  0  0  0
   -2.2342   -4.3390    4.8841 H   0  0  0  0  0  0  0  0  0  0  0  0
   -5.2108   -3.5177    4.7917 H   0  0  0  0  0  0  0  0  0  0  0  0
   -4.5402   -5.1867    4.9888 H   0  0  0  0  0  0  0  0  0  0  0  0
   -4.3170   -4.3076    3.4342 H   0  0  0  0  0  0  0  0  0  0  0  0
    0.7980    2.9074   -1.8697 H   0  0  0  0  0  0  0  0  0  0  0  0
    0.5475    1.9397   -0.3892 H   0  0  0  0  0  0  0  0  0  0  0  0
    3.0941    1.8805   -2.0839 H   0  0  0  0  0  0  0  0  0  0  0  0
    2.8519    2.6375   -0.4701 H   0  0  0  0  0  0  0  0  0  0  0  0
    2.7537    0.8427   -0.6395 H   0  0  0  0  0  0  0  0  0  0  0  0
   -2.6927    1.1697    0.9634 H   0  0  0  0  0  0  0  0  0  0  0  0
   -1.5017    1.9635   -0.0616 H   0  0  0  0  0  0  0  0  0  0  0  0
   -2.3067    0.8157   -2.0514 H   0  0  0  0  0  0  0  0  0  0  0  0
   -3.7591    1.3558   -1.1425 H   0  0  0  0  0  0  0  0  0  0  0  0
   -3.2546   -0.3727   -1.0610 H   0  0  0  0  0  0  0  0  0  0  0  0
   -5.1401   -0.3399    5.6014 H   0  0  0  0  0  0  0  0  0  0  0  0
   -5.9706   -2.1267   10.5790 H   0  0  0  0  0  0  0  0  0  0  0  0
   -1.2146   -3.2838    9.6122 H   0  0  0  0  0  0  0  0  0  0  0  0
  1  2  3  0
  2  3  1  0
  3  4  1  0
  4  5  3  0
  3  6  2  3
  6  7  1  0
  7  8  3  0
  6  9  1  0
  9 10  2  0
 10 11  1  0
 11 12  2  0
 12 13  1  0
 12 14  1  0
 14 15  2  0
 15 16  1  0
 16 17  1  0
 15 18  1  0
 18 19  1  0
 19 20  1  0
 20 21  1  0
 21 22  1  0
 22 23  1  0
 23 24  2  0
 24 25  1  0
 25 26  1  0
 23 27  1  0
 27 28  1  0
 28 29  1  0
 29 30  1  0
 30 31  1  0
 31 32  1  0
 32 33  1  0
 31 34  2  0
 34 35  1  0
 35 36  1  0
 36 37  1  0
 37 38  1  0
 38 39  1  0
 39 40  1  0
 40 41  1  0
 41 42  1  0
 42 43  1  0
 43 44  1  0
 41 45  1  0
 45 46  1  0
 38 47  1  0
 47 48  1  0
 34 49  1  0
 49 50  2  3
 50 51  1  0
 51 52  2  0
 51 53  1  0
 53 54  2  0
 54 55  1  0
 55 56  1  0
 55 57  2  0
 57 58  1  0
 57 59  1  0
 59 60  2  0
 60 61  1  0
 61 62  2  3
 62 63  1  0
 63 64  3  0
 62 65  1  0
 65 66  3  0
 13  9  1  0
 44 14  1  0
 61 50  1  0
 43 18  2  0
 60 53  1  0
 42 20  2  0
 40 21  2  0
 26 22  2  0
 39 27  2  0
 37 28  2  0
 36 30  2  0
 10 67  1  0
 11 68  1  0
 16 69  1  0
 16 70  1  0
 17 71  1  0
 17 72  1  0
 17 73  1  0
 32 74  1  0
 32 75  1  0
 33 76  1  0
 33 77  1  0
 33 78  1  0
 45 79  1  0
 45 80  1  0
 46 81  1  0
 46 82  1  0
 46 83  1  0
 47 84  1  0
 47 85  1  0
 48 86  1  0
 48 87  1  0
 48 88  1  0
 49 89  1  0
 54 90  1  0
 59 91  1  0
M  END

