
     RDKit          3D

146159  0  0  0  0  0  0  0  0999 V2000
    5.0074   -6.3023   -8.3840 N   0  0  0  0  0  0  0  0  0  0  0  0
    3.9061   -6.5007   -8.6932 C   0  0  0  0  0  0  0  0  0  0  0  0
    2.5304   -6.7272   -9.0629 C   0  0  0  0  0  0  0  0  0  0  0  0
    2.1255   -8.1086   -9.2043 C   0  0  0  0  0  0  0  0  0  0  0  0
    1.8111   -9.2176   -9.3157 N   0  0  0  0  0  0  0  0  0  0  0  0
    1.6376   -5.7116   -9.1603 C   0  0  0  0  0  0  0  0  0  0  0  0
    0.2320   -5.9913   -9.3423 C   0  0  0  0  0  0  0  0  0  0  0  0
   -0.8930   -6.2298   -9.4872 N   0  0  0  0  0  0  0  0  0  0  0  0
    2.0324   -4.2889   -9.0070 C   0  0  0  0  0  0  0  0  0  0  0  0
    3.1822   -3.6857   -9.5172 C   0  0  0  0  0  0  0  0  0  0  0  0
    3.3857   -2.3856   -9.0509 C   0  0  0  0  0  0  0  0  0  0  0  0
    2.3684   -1.9301   -8.2290 C   0  0  0  0  0  0  0  0  0  0  0  0
    1.2460   -3.1675   -8.0221 S   0  0  0  0  0  0  0  0  0  0  0  0
    2.4561   -0.7427   -7.3752 C   0  0  0  0  0  0  0  0  0  0  0  0
    1.4604    0.2325   -7.2219 C   0  0  0  0  0  0  0  0  0  0  0  0
    1.7831    1.1377   -6.2034 C   0  0  0  0  0  0  0  0  0  0  0  0
    0.9182    2.0839   -5.3787 C   0  0  0  0  0  0  0  0  0  0  0  0
   -0.4429    1.4431   -5.0496 C   0  0  0  0  0  0  0  0  0  0  0  0
   -0.4814    0.1541   -4.4727 C   0  0  0  0  0  0  0  0  0  0  0  0
   -1.6645   -0.3572   -3.9373 C   0  0  0  0  0  0  0  0  0  0  0  0
   -2.8460    0.3957   -3.9752 C   0  0  0  0  0  0  0  0  0  0  0  0
   -4.1048   -0.1238   -3.3409 C   0  0  0  0  0  0  0  0  0  0  0  0
   -4.9655   -0.8571   -4.3602 C   0  0  0  0  0  0  0  0  0  0  0  0
   -2.8406    1.6365   -4.6274 C   0  0  0  0  0  0  0  0  0  0  0  0
   -1.6600    2.1487   -5.1680 C   0  0  0  0  0  0  0  0  0  0  0  0
    0.8233    3.4401   -6.0883 C   0  0  0  0  0  0  0  0  0  0  0  0
    0.2482    3.5098   -7.3732 C   0  0  0  0  0  0  0  0  0  0  0  0
    0.0069    4.7437   -7.9798 C   0  0  0  0  0  0  0  0  0  0  0  0
    0.3525    5.9332   -7.3296 C   0  0  0  0  0  0  0  0  0  0  0  0
   -0.0072    7.2620   -7.9333 C   0  0  0  0  0  0  0  0  0  0  0  0
   -1.2998    7.7958   -7.3220 C   0  0  0  0  0  0  0  0  0  0  0  0
    0.9641    5.8755   -6.0703 C   0  0  0  0  0  0  0  0  0  0  0  0
    1.2016    4.6443   -5.4600 C   0  0  0  0  0  0  0  0  0  0  0  0
    1.7821    2.1340   -4.1060 C   0  0  0  0  0  0  0  0  0  0  0  0
    2.9415    1.4056   -4.2560 C   0  0  0  0  0  0  0  0  0  0  0  0
    2.9599    0.8444   -5.5724 C   0  0  0  0  0  0  0  0  0  0  0  0
    3.6524   -0.5465   -6.1925 S   0  0  0  0  0  0  0  0  0  0  0  0
    3.4013    0.7176   -2.7973 S   0  0  0  0  0  0  0  0  0  0  0  0
    2.1879    1.4972   -1.9045 C   0  0  0  0  0  0  0  0  0  0  0  0
    1.8549    1.3123   -0.5561 C   0  0  0  0  0  0  0  0  0  0  0  0
    0.7458    2.0310   -0.0383 C   0  0  0  0  0  0  0  0  0  0  0  0
   -0.0043    2.8754   -0.8825 C   0  0  0  0  0  0  0  0  0  0  0  0
    0.2975    2.9839   -2.2606 C   0  0  0  0  0  0  0  0  0  0  0  0
   -0.4534    3.7896   -3.1317 O   0  0  0  0  0  0  0  0  0  0  0  0
   -1.4801    4.7101   -2.7603 C   0  0  0  0  0  0  0  0  0  0  0  0
   -0.8689    5.9735   -2.1651 C   0  0  0  0  0  0  0  0  0  0  0  0
    1.3916    2.2634   -2.7604 C   0  0  0  0  0  0  0  0  0  0  0  0
    0.4043    1.8332    1.3041 C   0  0  0  0  0  0  0  0  0  0  0  0
    1.0475    0.8732    2.0978 C   0  0  0  0  0  0  0  0  0  0  0  0
    2.0896    0.0942    1.5690 C   0  0  0  0  0  0  0  0  0  0  0  0
    2.5319    0.3767    0.2561 C   0  0  0  0  0  0  0  0  0  0  0  0
    2.6562   -0.9371    2.3430 O   0  0  0  0  0  0  0  0  0  0  0  0
    3.6371   -1.8782    1.8963 C   0  0  0  0  0  0  0  0  0  0  0  0
    3.0317   -2.8890    0.9214 C   0  0  0  0  0  0  0  0  0  0  0  0
    0.4927    0.8166    3.3905 C   0  0  0  0  0  0  0  0  0  0  0  0
   -0.5041    1.7337    3.5716 C   0  0  0  0  0  0  0  0  0  0  0  0
   -0.8504    2.5913    2.1721 S   0  0  0  0  0  0  0  0  0  0  0  0
   -1.1699    1.4920    4.8121 C   0  0  0  0  0  0  0  0  0  0  0  0
   -2.7672    1.6603    5.2952 S   0  0  0  0  0  0  0  0  0  0  0  0
   -2.6683    0.3928    6.4219 C   0  0  0  0  0  0  0  0  0  0  0  0
   -1.4158   -0.2215    6.3412 C   0  0  0  0  0  0  0  0  0  0  0  0
   -0.5886    0.4022    5.4011 C   0  0  0  0  0  0  0  0  0  0  0  0
    0.5282   -0.1901    4.5422 C   0  0  0  0  0  0  0  0  0  0  0  0
    0.1051   -1.5789    4.0216 C   0  0  0  0  0  0  0  0  0  0  0  0
   -1.1807   -1.7548    3.4611 C   0  0  0  0  0  0  0  0  0  0  0  0
   -1.6168   -3.0124    3.0423 C   0  0  0  0  0  0  0  0  0  0  0  0
   -0.7733   -4.1255    3.1535 C   0  0  0  0  0  0  0  0  0  0  0  0
   -1.2385   -5.4760    2.6841 C   0  0  0  0  0  0  0  0  0  0  0  0
   -0.8256   -5.7098    1.2352 C   0  0  0  0  0  0  0  0  0  0  0  0
    0.5237   -3.9571    3.6472 C   0  0  0  0  0  0  0  0  0  0  0  0
    0.9630   -2.7006    4.0670 C   0  0  0  0  0  0  0  0  0  0  0  0
    1.8391   -0.1827    5.3452 C   0  0  0  0  0  0  0  0  0  0  0  0
    2.9599    0.5875    4.9687 C   0  0  0  0  0  0  0  0  0  0  0  0
    4.1834    0.4423    5.6344 C   0  0  0  0  0  0  0  0  0  0  0  0
    4.3009   -0.4359    6.7195 C   0  0  0  0  0  0  0  0  0  0  0  0
    5.6324   -0.6656    7.3789 C   0  0  0  0  0  0  0  0  0  0  0  0
    6.3093   -1.9111    6.8076 C   0  0  0  0  0  0  0  0  0  0  0  0
    3.1731   -1.1463    7.1468 C   0  0  0  0  0  0  0  0  0  0  0  0
    1.9507   -1.0001    6.4908 C   0  0  0  0  0  0  0  0  0  0  0  0
   -3.7998   -0.1531    7.1727 C   0  0  0  0  0  0  0  0  0  0  0  0
   -3.7180   -0.7922    8.4024 C   0  0  0  0  0  0  0  0  0  0  0  0
   -4.9372   -1.3294    8.8332 C   0  0  0  0  0  0  0  0  0  0  0  0
   -5.9790   -1.1626    7.9159 C   0  0  0  0  0  0  0  0  0  0  0  0
   -7.3857   -1.6381    8.0419 C   0  0  0  0  0  0  0  0  0  0  0  0
   -7.7365   -2.7839    8.6738 C   0  0  0  0  0  0  0  0  0  0  0  0
   -6.7625   -3.6978    9.2198 C   0  0  0  0  0  0  0  0  0  0  0  0
   -5.9796   -4.4311    9.6626 N   0  0  0  0  0  0  0  0  0  0  0  0
   -9.1199   -3.2079    8.7575 C   0  0  0  0  0  0  0  0  0  0  0  0
  -10.2228   -3.5635    8.8247 N   0  0  0  0  0  0  0  0  0  0  0  0
   -8.4020   -0.8429    7.3783 C   0  0  0  0  0  0  0  0  0  0  0  0
   -9.2143   -0.2128    6.8448 N   0  0  0  0  0  0  0  0  0  0  0  0
   -5.3785   -0.2842    6.6039 S   0  0  0  0  0  0  0  0  0  0  0  0
    3.8736   -4.1822  -10.1875 H   0  0  0  0  0  0  0  0  0  0  0  0
    4.2565   -1.7919   -9.3200 H   0  0  0  0  0  0  0  0  0  0  0  0
    0.5163    0.2222   -7.7515 H   0  0  0  0  0  0  0  0  0  0  0  0
    0.4295   -0.4294   -4.3883 H   0  0  0  0  0  0  0  0  0  0  0  0
   -1.6545   -1.3463   -3.4904 H   0  0  0  0  0  0  0  0  0  0  0  0
   -3.8644   -0.8115   -2.4998 H   0  0  0  0  0  0  0  0  0  0  0  0
   -4.6904    0.7253   -2.9213 H   0  0  0  0  0  0  0  0  0  0  0  0
   -4.4238   -1.7422   -4.7576 H   0  0  0  0  0  0  0  0  0  0  0  0
   -5.2324   -0.1792   -5.1979 H   0  0  0  0  0  0  0  0  0  0  0  0
   -5.9037   -1.1973   -3.8762 H   0  0  0  0  0  0  0  0  0  0  0  0
   -3.7481    2.2240   -4.6827 H   0  0  0  0  0  0  0  0  0  0  0  0
   -1.7000    3.1409   -5.5911 H   0  0  0  0  0  0  0  0  0  0  0  0
   -0.0691    2.6085   -7.8835 H   0  0  0  0  0  0  0  0  0  0  0  0
   -0.4835    4.7645   -8.9455 H   0  0  0  0  0  0  0  0  0  0  0  0
    0.8116    7.9904   -7.7566 H   0  0  0  0  0  0  0  0  0  0  0  0
   -0.1363    7.1665   -9.0324 H   0  0  0  0  0  0  0  0  0  0  0  0
   -2.1248    7.0579   -7.4452 H   0  0  0  0  0  0  0  0  0  0  0  0
   -1.5919    8.7375   -7.8337 H   0  0  0  0  0  0  0  0  0  0  0  0
   -1.1593    8.0090   -6.2385 H   0  0  0  0  0  0  0  0  0  0  0  0
    1.2390    6.7865   -5.5537 H   0  0  0  0  0  0  0  0  0  0  0  0
    1.6584    4.6535   -4.4811 H   0  0  0  0  0  0  0  0  0  0  0  0
   -0.8430    3.4176   -0.4735 H   0  0  0  0  0  0  0  0  0  0  0  0
   -2.0387    4.9889   -3.6810 H   0  0  0  0  0  0  0  0  0  0  0  0
   -2.2048    4.2393   -2.0621 H   0  0  0  0  0  0  0  0  0  0  0  0
   -0.1855    6.4399   -2.9079 H   0  0  0  0  0  0  0  0  0  0  0  0
   -0.3026    5.7311   -1.2416 H   0  0  0  0  0  0  0  0  0  0  0  0
   -1.6787    6.6969   -1.9176 H   0  0  0  0  0  0  0  0  0  0  0  0
    3.3774   -0.1543   -0.1540 H   0  0  0  0  0  0  0  0  0  0  0  0
    4.5036   -1.3557    1.4404 H   0  0  0  0  0  0  0  0  0  0  0  0
    4.0070   -2.4391    2.7848 H   0  0  0  0  0  0  0  0  0  0  0  0
    2.6448   -2.3851    0.0103 H   0  0  0  0  0  0  0  0  0  0  0  0
    2.2067   -3.4506    1.4049 H   0  0  0  0  0  0  0  0  0  0  0  0
    3.8211   -3.6036    0.6073 H   0  0  0  0  0  0  0  0  0  0  0  0
   -1.1862   -1.1644    6.8148 H   0  0  0  0  0  0  0  0  0  0  0  0
   -1.8563   -0.9173    3.3649 H   0  0  0  0  0  0  0  0  0  0  0  0
   -2.6162   -3.1167    2.6417 H   0  0  0  0  0  0  0  0  0  0  0  0
   -2.3469   -5.5513    2.7672 H   0  0  0  0  0  0  0  0  0  0  0  0
   -0.8068   -6.2761    3.3266 H   0  0  0  0  0  0  0  0  0  0  0  0
   -1.2397   -6.6816    0.8832 H   0  0  0  0  0  0  0  0  0  0  0  0
    0.2831   -5.7438    1.1520 H   0  0  0  0  0  0  0  0  0  0  0  0
   -1.2200   -4.9007    0.5829 H   0  0  0  0  0  0  0  0  0  0  0  0
    1.2007   -4.7987    3.7068 H   0  0  0  0  0  0  0  0  0  0  0  0
    1.9789   -2.6165    4.4176 H   0  0  0  0  0  0  0  0  0  0  0  0
    2.9206    1.2752    4.1411 H   0  0  0  0  0  0  0  0  0  0  0  0
    5.0422    1.0055    5.2901 H   0  0  0  0  0  0  0  0  0  0  0  0
    6.2982    0.2144    7.2265 H   0  0  0  0  0  0  0  0  0  0  0  0
    5.4948   -0.7927    8.4758 H   0  0  0  0  0  0  0  0  0  0  0  0
    5.6768   -2.8068    7.0001 H   0  0  0  0  0  0  0  0  0  0  0  0
    6.4622   -1.7943    5.7126 H   0  0  0  0  0  0  0  0  0  0  0  0
    7.2958   -2.0603    7.2961 H   0  0  0  0  0  0  0  0  0  0  0  0
    3.2505   -1.8379    7.9718 H   0  0  0  0  0  0  0  0  0  0  0  0
    1.1042   -1.5807    6.8404 H   0  0  0  0  0  0  0  0  0  0  0  0
   -2.8040   -0.8614    8.9799 H   0  0  0  0  0  0  0  0  0  0  0  0
   -5.0424   -1.8121    9.7969 H   0  0  0  0  0  0  0  0  0  0  0  0
  1  2  3  0
  2  3  1  0
  3  4  1  0
  4  5  3  0
  3  6  2  3
  6  7  1  0
  7  8  3  0
  6  9  1  0
  9 10  2  0
 10 11  1  0
 11 12  2  0
 12 13  1  0
 12 14  1  0
 14 15  2  0
 15 16  1  0
 16 17  1  0
 17 18  1  0
 18 19  2  0
 19 20  1  0
 20 21  2  0
 21 22  1  0
 22 23  1  0
 21 24  1  0
 24 25  2  0
 17 26  1  0
 26 27  2  0
 27 28  1  0
 28 29  2  0
 29 30  1  0
 30 31  1  0
 29 32  1  0
 32 33  2  0
 17 34  1  0
 34 35  2  0
 35 36  1  0
 36 37  1  0
 35 38  1  0
 38 39  1  0
 39 40  2  0
 40 41  1  0
 41 42  2  0
 42 43  1  0
 43 44  1  0
 44 45  1  0
 45 46  1  0
 43 47  2  0
 41 48  1  0
 48 49  2  0
 49 50  1  0
 50 51  2  0
 50 52  1  0
 52 53  1  0
 53 54  1  0
 49 55  1  0
 55 56  2  0
 56 57  1  0
 56 58  1  0
 58 59  1  0
 59 60  1  0
 60 61  2  0
 61 62  1  0
 62 63  1  0
 63 64  1  0
 64 65  2  0
 65 66  1  0
 66 67  2  0
 67 68  1  0
 68 69  1  0
 67 70  1  0
 70 71  2  0
 63 72  1  0
 72 73  2  0
 73 74  1  0
 74 75  2  0
 75 76  1  0
 76 77  1  0
 75 78  1  0
 78 79  2  0
 60 80  1  0
 80 81  2  0
 81 82  1  0
 82 83  2  0
 83 84  1  0
 84 85  2  3
 85 86  1  0
 86 87  3  0
 85 88  1  0
 88 89  3  0
 84 90  1  0
 90 91  3  0
 83 92  1  0
 13  9  1  0
 37 14  1  0
 47 39  1  0
 57 48  1  0
 62 58  2  0
 71 64  1  0
 79 72  1  0
 92 80  1  0
 36 16  2  0
 51 40  1  0
 63 55  1  0
 25 18  1  0
 33 26  1  0
 47 34  1  0
 10 93  1  0
 11 94  1  0
 15 95  1  0
 19 96  1  0
 20 97  1  0
 22 98  1  0
 22 99  1  0
 23100  1  0
 23101  1  0
 23102  1  0
 24103  1  0
 25104  1  0
 27105  1  0
 28106  1  0
 30107  1  0
 30108  1  0
 31109  1  0
 31110  1  0
 31111  1  0
 32112  1  0
 33113  1  0
 42114  1  0
 45115  1  0
 45116  1  0
 46117  1  0
 46118  1  0
 46119  1  0
 51120  1  0
 53121  1  0
 53122  1  0
 54123  1  0
 54124  1  0
 54125  1  0
 61126  1  0
 65127  1  0
 66128  1  0
 68129  1  0
 68130  1  0
 69131  1  0
 69132  1  0
 69133  1  0
 70134  1  0
 71135  1  0
 73136  1  0
 74137  1  0
 76138  1  0
 76139  1  0
 77140  1  0
 77141  1  0
 77142  1  0
 78143  1  0
 79144  1  0
 81145  1  0
 82146  1  0
M  END

