
     RDKit          3D

120137  0  0  0  0  0  0  0  0999 V2000
    5.6991   13.2210    3.1852 N   0  0  0  0  0  0  0  0  0  0  0  0
    5.3092   12.4009    2.4680 C   0  0  0  0  0  0  0  0  0  0  0  0
    4.8193   11.3797    1.5712 C   0  0  0  0  0  0  0  0  0  0  0  0
    5.7431   10.3139    1.2913 C   0  0  0  0  0  0  0  0  0  0  0  0
    6.4963    9.4578    1.0800 N   0  0  0  0  0  0  0  0  0  0  0  0
    3.5822   11.4708    1.0147 C   0  0  0  0  0  0  0  0  0  0  0  0
    2.7396   12.6032    1.3539 C   0  0  0  0  0  0  0  0  0  0  0  0
    2.0638   13.5068    1.6169 N   0  0  0  0  0  0  0  0  0  0  0  0
    3.0064   10.4822    0.0495 C   0  0  0  0  0  0  0  0  0  0  0  0
    1.8249   10.6730   -0.6752 C   0  0  0  0  0  0  0  0  0  0  0  0
    1.4774    9.5992   -1.5048 C   0  0  0  0  0  0  0  0  0  0  0  0
    2.3786    8.5434   -1.4545 C   0  0  0  0  0  0  0  0  0  0  0  0
    3.5955    8.9513   -0.3666 S   0  0  0  0  0  0  0  0  0  0  0  0
    2.2802    7.2773   -2.1996 C   0  0  0  0  0  0  0  0  0  0  0  0
    3.4660    6.0624   -2.2039 S   0  0  0  0  0  0  0  0  0  0  0  0
    2.5776    4.9973   -3.1526 C   0  0  0  0  0  0  0  0  0  0  0  0
    2.8753    3.6806   -3.5320 C   0  0  0  0  0  0  0  0  0  0  0  0
    4.2541    2.7954   -3.1215 S   0  0  0  0  0  0  0  0  0  0  0  0
    3.6386    1.3999   -3.8307 C   0  0  0  0  0  0  0  0  0  0  0  0
    3.8396    0.0763   -3.5837 C   0  0  0  0  0  0  0  0  0  0  0  0
    4.7665   -0.5374   -2.7291 C   0  0  0  0  0  0  0  0  0  0  0  0
    4.5403   -1.8856   -2.3271 C   0  0  0  0  0  0  0  0  0  0  0  0
    5.4086   -2.4176   -1.4387 N   0  0  0  0  0  0  0  0  0  0  0  0
    6.4127   -1.1185   -1.2188 S   0  0  0  0  0  0  0  0  0  0  0  0
    5.8275    0.0982   -2.1742 N   0  0  0  0  0  0  0  0  0  0  0  0
    3.4350   -2.5598   -2.8525 C   0  0  0  0  0  0  0  0  0  0  0  0
    2.9174   -3.7837   -2.5857 C   0  0  0  0  0  0  0  0  0  0  0  0
    3.0055   -4.7659   -1.2277 S   0  0  0  0  0  0  0  0  0  0  0  0
    1.4488   -5.3787   -1.4963 C   0  0  0  0  0  0  0  0  0  0  0  0
    0.6909   -6.1599   -0.6029 C   0  0  0  0  0  0  0  0  0  0  0  0
   -0.6790   -6.3331   -0.7943 C   0  0  0  0  0  0  0  0  0  0  0  0
   -1.2729   -5.7244   -1.9026 C   0  0  0  0  0  0  0  0  0  0  0  0
   -2.5740   -5.6497   -2.2231 N   0  0  0  0  0  0  0  0  0  0  0  0
   -2.6111   -4.8264   -3.2667 N   0  0  0  0  0  0  0  0  0  0  0  0
   -3.8351   -4.5034   -3.9886 C   0  0  0  0  0  0  0  0  0  0  0  0
   -4.0332   -5.4713   -5.1510 C   0  0  0  0  0  0  0  0  0  0  0  0
   -1.4088   -4.3748   -3.6216 N   0  0  0  0  0  0  0  0  0  0  0  0
   -0.5482   -4.9508   -2.7752 C   0  0  0  0  0  0  0  0  0  0  0  0
    0.8381   -4.7617   -2.6207 C   0  0  0  0  0  0  0  0  0  0  0  0
    1.7414   -3.8908   -3.2757 C   0  0  0  0  0  0  0  0  0  0  0  0
    1.5180   -2.8138   -4.0936 N   0  0  0  0  0  0  0  0  0  0  0  0
    2.5139   -1.9508   -3.7058 C   0  0  0  0  0  0  0  0  0  0  0  0
    2.6801   -0.5723   -4.0209 C   0  0  0  0  0  0  0  0  0  0  0  0
    1.7440    0.3422   -4.4464 N   0  0  0  0  0  0  0  0  0  0  0  0
    2.3759    1.5514   -4.3304 C   0  0  0  0  0  0  0  0  0  0  0  0
    1.9124    2.8818   -4.1995 C   0  0  0  0  0  0  0  0  0  0  0  0
    0.6926    3.5081   -4.5398 C   0  0  0  0  0  0  0  0  0  0  0  0
    0.4325    4.8116   -4.1859 C   0  0  0  0  0  0  0  0  0  0  0  0
    1.3509    5.5743   -3.4650 C   0  0  0  0  0  0  0  0  0  0  0  0
    1.1762    6.8578   -2.9450 C   0  0  0  0  0  0  0  0  0  0  0  0
   -0.7968    5.1456   -4.6039 N   0  0  0  0  0  0  0  0  0  0  0  0
   -1.2472    4.0564   -5.2211 N   0  0  0  0  0  0  0  0  0  0  0  0
   -2.5929    3.9583   -5.7758 C   0  0  0  0  0  0  0  0  0  0  0  0
   -3.5901    3.6263   -4.6725 C   0  0  0  0  0  0  0  0  0  0  0  0
   -0.3815    3.0450   -5.1983 N   0  0  0  0  0  0  0  0  0  0  0  0
    0.2951    0.1269   -4.4824 C   0  0  0  0  0  0  0  0  0  0  0  0
   -0.3558    0.4561   -3.1383 C   0  0  0  0  0  0  0  0  0  0  0  0
    1.3729   -3.0116   -5.5538 C   0  0  0  0  0  0  0  0  0  0  0  0
   -0.0183   -3.4529   -5.9942 C   0  0  0  0  0  0  0  0  0  0  0  0
   -1.3328   -6.9526    0.2751 C   0  0  0  0  0  0  0  0  0  0  0  0
   -0.4600   -7.2409    1.3241 C   0  0  0  0  0  0  0  0  0  0  0  0
    1.1102   -6.7457    0.9159 S   0  0  0  0  0  0  0  0  0  0  0  0
   -0.8967   -7.5934    2.6822 C   0  0  0  0  0  0  0  0  0  0  0  0
   -1.0733   -6.6634    3.6442 C   0  0  0  0  0  0  0  0  0  0  0  0
   -0.9911   -5.2095    3.4408 C   0  0  0  0  0  0  0  0  0  0  0  0
   -0.5320   -4.6155    2.4270 O   0  0  0  0  0  0  0  0  0  0  0  0
   -1.6209   -4.5442    4.5543 C   0  0  0  0  0  0  0  0  0  0  0  0
   -1.8785   -3.1596    4.6729 C   0  0  0  0  0  0  0  0  0  0  0  0
   -2.6167   -2.8264    5.7892 C   0  0  0  0  0  0  0  0  0  0  0  0
   -3.1003   -3.7913    6.7313 C   0  0  0  0  0  0  0  0  0  0  0  0
   -2.8562   -5.1509    6.6170 C   0  0  0  0  0  0  0  0  0  0  0  0
   -2.0635   -5.5152    5.4890 C   0  0  0  0  0  0  0  0  0  0  0  0
   -1.6376   -6.8671    5.0149 C   0  0  0  0  0  0  0  0  0  0  0  0
   -1.5452   -7.9926    5.7726 C   0  0  0  0  0  0  0  0  0  0  0  0
   -0.9261   -9.1999    5.2925 C   0  0  0  0  0  0  0  0  0  0  0  0
   -0.4320  -10.1736    4.9114 N   0  0  0  0  0  0  0  0  0  0  0  0
   -1.9240   -8.0166    7.1613 C   0  0  0  0  0  0  0  0  0  0  0  0
   -2.2194   -8.0419    8.2835 N   0  0  0  0  0  0  0  0  0  0  0  0
   -3.7904   -2.7078    7.5086 C   0  0  0  0  0  0  0  0  0  0  0  0
   -5.3381   -2.6034    7.3524 C   0  0  0  0  0  0  0  0  0  0  0  0
   -5.7189   -1.2359    7.8781 C   0  0  0  0  0  0  0  0  0  0  0  0
   -5.2574   -0.3440    6.9956 C   0  0  0  0  0  0  0  0  0  0  0  0
   -4.5788   -1.1394    5.9043 C   0  0  0  0  0  0  0  0  0  0  0  0
   -5.5159   -2.3380    5.8675 C   0  0  0  0  0  0  0  0  0  0  0  0
   -3.2885   -1.7228    6.5449 C   0  0  0  0  0  0  0  0  0  0  0  0
    1.2191   11.5667   -0.6150 H   0  0  0  0  0  0  0  0  0  0  0  0
    0.5920    9.6026   -2.1320 H   0  0  0  0  0  0  0  0  0  0  0  0
   -4.7047   -4.5703   -3.3012 H   0  0  0  0  0  0  0  0  0  0  0  0
   -3.7797   -3.4657   -4.3781 H   0  0  0  0  0  0  0  0  0  0  0  0
   -3.2130   -5.3587   -5.8885 H   0  0  0  0  0  0  0  0  0  0  0  0
   -4.0476   -6.5174   -4.7736 H   0  0  0  0  0  0  0  0  0  0  0  0
   -5.0021   -5.2633   -5.6540 H   0  0  0  0  0  0  0  0  0  0  0  0
    0.2663    7.4287   -3.0700 H   0  0  0  0  0  0  0  0  0  0  0  0
   -2.6200    3.1683   -6.5563 H   0  0  0  0  0  0  0  0  0  0  0  0
   -2.8716    4.9300   -6.2472 H   0  0  0  0  0  0  0  0  0  0  0  0
   -4.6163    3.6140   -5.0885 H   0  0  0  0  0  0  0  0  0  0  0  0
   -3.3576    2.6302   -4.2329 H   0  0  0  0  0  0  0  0  0  0  0  0
   -3.5390    4.3937   -3.8687 H   0  0  0  0  0  0  0  0  0  0  0  0
   -0.1520    0.7018   -5.3125 H   0  0  0  0  0  0  0  0  0  0  0  0
    0.0505   -0.9185   -4.7242 H   0  0  0  0  0  0  0  0  0  0  0  0
   -1.4602    0.3475   -3.2248 H   0  0  0  0  0  0  0  0  0  0  0  0
   -0.1182    1.4920   -2.8233 H   0  0  0  0  0  0  0  0  0  0  0  0
    0.0117   -0.2498   -2.3616 H   0  0  0  0  0  0  0  0  0  0  0  0
    1.6177   -2.0710   -6.1076 H   0  0  0  0  0  0  0  0  0  0  0  0
    2.1079   -3.7731   -5.9082 H   0  0  0  0  0  0  0  0  0  0  0  0
   -0.1287   -3.2817   -7.0896 H   0  0  0  0  0  0  0  0  0  0  0  0
   -0.1502   -4.5418   -5.8050 H   0  0  0  0  0  0  0  0  0  0  0  0
   -0.8039   -2.8591   -5.4892 H   0  0  0  0  0  0  0  0  0  0  0  0
   -2.4057   -7.0767    0.3376 H   0  0  0  0  0  0  0  0  0  0  0  0
   -1.2110   -8.6127    2.8380 H   0  0  0  0  0  0  0  0  0  0  0  0
   -1.5694   -2.4318    3.9333 H   0  0  0  0  0  0  0  0  0  0  0  0
   -3.2952   -5.8500    7.3107 H   0  0  0  0  0  0  0  0  0  0  0  0
   -3.4021   -2.5785    8.5420 H   0  0  0  0  0  0  0  0  0  0  0  0
   -5.9245   -3.4496    7.7657 H   0  0  0  0  0  0  0  0  0  0  0  0
   -6.3203   -1.0086    8.7530 H   0  0  0  0  0  0  0  0  0  0  0  0
   -5.4291    0.7262    7.0203 H   0  0  0  0  0  0  0  0  0  0  0  0
   -4.4409   -0.6013    4.9401 H   0  0  0  0  0  0  0  0  0  0  0  0
   -6.5640   -2.0702    5.5876 H   0  0  0  0  0  0  0  0  0  0  0  0
   -5.1764   -3.1665    5.2106 H   0  0  0  0  0  0  0  0  0  0  0  0
   -2.5790   -0.9762    6.9646 H   0  0  0  0  0  0  0  0  0  0  0  0
  1  2  3  0
  2  3  1  0
  3  4  1  0
  4  5  3  0
  3  6  2  3
  6  7  1  0
  7  8  3  0
  6  9  1  0
  9 10  2  0
 10 11  1  0
 11 12  2  0
 12 13  1  0
 12 14  1  0
 14 15  1  0
 15 16  1  0
 16 17  1  0
 17 18  1  0
 18 19  1  0
 19 20  1  0
 20 21  1  0
 21 22  1  0
 22 23  2  0
 23 24  1  0
 24 25  1  0
 22 26  1  0
 26 27  1  0
 27 28  1  0
 28 29  1  0
 29 30  1  0
 30 31  2  0
 31 32  1  0
 32 33  2  0
 33 34  1  0
 34 35  1  0
 35 36  1  0
 34 37  1  0
 37 38  2  0
 38 39  1  0
 39 40  1  0
 40 41  1  0
 41 42  1  0
 42 43  1  0
 43 44  1  0
 44 45  1  0
 45 46  1  0
 46 47  1  0
 47 48  1  0
 48 49  1  0
 49 50  1  0
 48 51  2  0
 51 52  1  0
 52 53  1  0
 53 54  1  0
 52 55  1  0
 44 56  1  0
 56 57  1  0
 41 58  1  0
 58 59  1  0
 31 60  1  0
 60 61  2  0
 61 62  1  0
 61 63  1  0
 63 64  2  3
 64 65  1  0
 65 66  2  0
 65 67  1  0
 67 68  2  0
 68 69  1  0
 69 70  2  0
 70 71  1  0
 71 72  2  0
 72 73  1  0
 73 74  2  3
 74 75  1  0
 75 76  3  0
 74 77  1  0
 77 78  3  0
 70 79  1  0
 79 80  1  0
 80 81  1  0
 81 82  2  0
 82 83  1  0
 83 84  1  0
 83 85  1  0
 13  9  1  0
 50 14  2  0
 73 64  1  0
 85 79  1  0
 49 16  2  0
 72 67  1  0
 84 80  1  0
 46 17  2  0
 55 47  2  0
 85 69  1  0
 45 19  2  0
 43 20  2  0
 25 21  2  0
 42 26  2  0
 40 27  2  0
 39 29  2  0
 62 30  1  0
 38 32  1  0
 10 86  1  0
 11 87  1  0
 35 88  1  0
 35 89  1  0
 36 90  1  0
 36 91  1  0
 36 92  1  0
 50 93  1  0
 53 94  1  0
 53 95  1  0
 54 96  1  0
 54 97  1  0
 54 98  1  0
 56 99  1  0
 56100  1  0
 57101  1  0
 57102  1  0
 57103  1  0
 58104  1  0
 58105  1  0
 59106  1  0
 59107  1  0
 59108  1  0
 60109  1  0
 63110  1  0
 68111  1  0
 71112  1  0
 79113  1  0
 80114  1  0
 81115  1  0
 82116  1  0
 83117  1  0
 84118  1  0
 84119  1  0
 85120  1  0
M  END

