
     RDKit          3D

105118  0  0  0  0  0  0  0  0999 V2000
    0.5456    6.9922    2.8395 C   0  0  0  0  0  0  0  0  0  0  0  0
    1.6415    7.4818    2.2347 C   0  0  0  0  0  0  0  0  0  0  0  0
    2.1255    8.8402    2.5181 C   0  0  0  0  0  0  0  0  0  0  0  0
    1.4966    9.7680    3.0941 O   0  0  0  0  0  0  0  0  0  0  0  0
    3.4805    8.9093    2.0435 C   0  0  0  0  0  0  0  0  0  0  0  0
    4.6078   10.1264    1.8266 S   0  0  0  0  0  0  0  0  0  0  0  0
    5.6338    9.1241    0.9143 C   0  0  0  0  0  0  0  0  0  0  0  0
    7.2640    9.7037    0.1134 Br  0  0  0  0  0  0  0  0  0  0  0  0
    5.0668    7.8574    0.7503 C   0  0  0  0  0  0  0  0  0  0  0  0
    3.8428    7.7599    1.4213 C   0  0  0  0  0  0  0  0  0  0  0  0
    2.7138    6.8003    1.4174 C   0  0  0  0  0  0  0  0  0  0  0  0
    2.6147    5.7217    0.5981 C   0  0  0  0  0  0  0  0  0  0  0  0
    3.7744    5.1247   -0.0112 C   0  0  0  0  0  0  0  0  0  0  0  0
    4.6993    4.6268   -0.4954 N   0  0  0  0  0  0  0  0  0  0  0  0
    1.3596    5.1130    0.2391 C   0  0  0  0  0  0  0  0  0  0  0  0
    0.3680    4.5973   -0.0735 N   0  0  0  0  0  0  0  0  0  0  0  0
    0.1434    5.5812    2.9052 C   0  0  0  0  0  0  0  0  0  0  0  0
   -1.1143    5.1428    2.4698 C   0  0  0  0  0  0  0  0  0  0  0  0
   -1.0902    3.8013    2.7494 C   0  0  0  0  0  0  0  0  0  0  0  0
    0.0390    3.5002    3.3898 C   0  0  0  0  0  0  0  0  0  0  0  0
    0.8452    4.5759    3.5237 N   0  0  0  0  0  0  0  0  0  0  0  0
    2.0859    4.6946    4.2946 C   0  0  0  0  0  0  0  0  0  0  0  0
    3.2320    3.9301    3.6322 C   0  0  0  0  0  0  0  0  0  0  0  0
   -0.1014    2.2231    3.8959 C   0  0  0  0  0  0  0  0  0  0  0  0
    0.6318    1.4375    4.8041 C   0  0  0  0  0  0  0  0  0  0  0  0
    0.1280    0.1474    5.1526 C   0  0  0  0  0  0  0  0  0  0  0  0
    0.8777   -0.5965    6.0009 N   0  0  0  0  0  0  0  0  0  0  0  0
    2.1257    0.4451    6.2693 S   0  0  0  0  0  0  0  0  0  0  0  0
    1.8070    1.7964    5.3707 N   0  0  0  0  0  0  0  0  0  0  0  0
   -1.0556   -0.3127    4.5576 C   0  0  0  0  0  0  0  0  0  0  0  0
   -1.5041   -1.5990    4.4036 C   0  0  0  0  0  0  0  0  0  0  0  0
   -0.7335   -3.0974    4.6074 S   0  0  0  0  0  0  0  0  0  0  0  0
   -1.5911   -3.7783    3.3081 C   0  0  0  0  0  0  0  0  0  0  0  0
   -1.3829   -4.9448    2.5647 C   0  0  0  0  0  0  0  0  0  0  0  0
   -0.4287   -6.0403    2.9450 C   0  0  0  0  0  0  0  0  0  0  0  0
   -1.1722   -7.1955    3.6004 C   0  0  0  0  0  0  0  0  0  0  0  0
   -2.1026   -4.9045    1.3608 C   0  0  0  0  0  0  0  0  0  0  0  0
   -2.9428   -3.4294    1.2372 S   0  0  0  0  0  0  0  0  0  0  0  0
   -2.4149   -2.8481    2.7213 C   0  0  0  0  0  0  0  0  0  0  0  0
   -2.3686   -1.5944    3.3396 C   0  0  0  0  0  0  0  0  0  0  0  0
   -2.5321   -0.3472    2.8184 N   0  0  0  0  0  0  0  0  0  0  0  0
   -1.7658    0.4576    3.6221 C   0  0  0  0  0  0  0  0  0  0  0  0
   -1.3427    1.7894    3.3799 C   0  0  0  0  0  0  0  0  0  0  0  0
   -2.0062    2.8143    2.7487 N   0  0  0  0  0  0  0  0  0  0  0  0
   -3.4557    3.0436    2.6227 C   0  0  0  0  0  0  0  0  0  0  0  0
   -4.1877    2.7439    3.9339 C   0  0  0  0  0  0  0  0  0  0  0  0
   -2.9244   -0.0834    1.4260 C   0  0  0  0  0  0  0  0  0  0  0  0
   -4.4352   -0.2390    1.2519 C   0  0  0  0  0  0  0  0  0  0  0  0
   -1.9777   -5.8680    0.2590 C   0  0  0  0  0  0  0  0  0  0  0  0
   -1.2205   -5.6311   -0.8323 C   0  0  0  0  0  0  0  0  0  0  0  0
   -0.5078   -4.3741   -1.1180 C   0  0  0  0  0  0  0  0  0  0  0  0
   -0.2336   -3.4611   -0.2964 O   0  0  0  0  0  0  0  0  0  0  0  0
   -0.1369   -4.3582   -2.5114 C   0  0  0  0  0  0  0  0  0  0  0  0
    0.4397   -3.2837   -3.2269 C   0  0  0  0  0  0  0  0  0  0  0  0
    0.5744   -3.5200   -4.5801 C   0  0  0  0  0  0  0  0  0  0  0  0
    0.1597   -4.7400   -5.2034 C   0  0  0  0  0  0  0  0  0  0  0  0
   -0.4078   -5.7968   -4.5084 C   0  0  0  0  0  0  0  0  0  0  0  0
   -0.5322   -5.5846   -3.1060 C   0  0  0  0  0  0  0  0  0  0  0  0
   -1.1093   -6.4751   -2.0591 C   0  0  0  0  0  0  0  0  0  0  0  0
   -1.2642   -7.8222   -2.1398 C   0  0  0  0  0  0  0  0  0  0  0  0
   -1.6136   -8.6267   -1.0008 C   0  0  0  0  0  0  0  0  0  0  0  0
   -1.8928   -9.2805   -0.0892 N   0  0  0  0  0  0  0  0  0  0  0  0
   -0.9310   -8.5711   -3.3205 C   0  0  0  0  0  0  0  0  0  0  0  0
   -0.6530   -9.1855   -4.2598 N   0  0  0  0  0  0  0  0  0  0  0  0
    0.6009   -4.2248   -6.5423 C   0  0  0  0  0  0  0  0  0  0  0  0
    1.9307   -4.7820   -7.1412 C   0  0  0  0  0  0  0  0  0  0  0  0
    2.8893   -5.1442   -6.0324 C   0  0  0  0  0  0  0  0  0  0  0  0
    3.2627   -3.9987   -5.4629 C   0  0  0  0  0  0  0  0  0  0  0  0
    2.5387   -2.8947   -6.1987 C   0  0  0  0  0  0  0  0  0  0  0  0
    2.5694   -3.4835   -7.5969 C   0  0  0  0  0  0  0  0  0  0  0  0
    1.0106   -2.9714   -5.9070 C   0  0  0  0  0  0  0  0  0  0  0  0
   -0.0896    7.6774    3.3833 H   0  0  0  0  0  0  0  0  0  0  0  0
    5.5137    7.0970    0.1303 H   0  0  0  0  0  0  0  0  0  0  0  0
   -1.9086    5.7211    2.0239 H   0  0  0  0  0  0  0  0  0  0  0  0
    2.3892    5.7589    4.4024 H   0  0  0  0  0  0  0  0  0  0  0  0
    1.9185    4.3169    5.3225 H   0  0  0  0  0  0  0  0  0  0  0  0
    4.0844    3.8487    4.3400 H   0  0  0  0  0  0  0  0  0  0  0  0
    3.5890    4.4662    2.7369 H   0  0  0  0  0  0  0  0  0  0  0  0
    2.9210    2.9091    3.3285 H   0  0  0  0  0  0  0  0  0  0  0  0
    0.1079   -6.4019    2.0410 H   0  0  0  0  0  0  0  0  0  0  0  0
    0.3340   -5.6525    3.6550 H   0  0  0  0  0  0  0  0  0  0  0  0
   -0.4545   -7.9983    3.8668 H   0  0  0  0  0  0  0  0  0  0  0  0
   -1.9280   -7.6095    2.8994 H   0  0  0  0  0  0  0  0  0  0  0  0
   -1.6830   -6.8526    4.5289 H   0  0  0  0  0  0  0  0  0  0  0  0
   -3.6464    4.1101    2.3667 H   0  0  0  0  0  0  0  0  0  0  0  0
   -3.8968    2.4726    1.7914 H   0  0  0  0  0  0  0  0  0  0  0  0
   -3.6272    3.1709    4.7888 H   0  0  0  0  0  0  0  0  0  0  0  0
   -4.2987    1.6522    4.0789 H   0  0  0  0  0  0  0  0  0  0  0  0
   -5.1953    3.2080    3.9210 H   0  0  0  0  0  0  0  0  0  0  0  0
   -2.3944   -0.7847    0.7471 H   0  0  0  0  0  0  0  0  0  0  0  0
   -2.5808    0.9081    1.0844 H   0  0  0  0  0  0  0  0  0  0  0  0
   -4.7058   -0.0687    0.1881 H   0  0  0  0  0  0  0  0  0  0  0  0
   -4.9845    0.4855    1.8787 H   0  0  0  0  0  0  0  0  0  0  0  0
   -4.7558   -1.2491    1.5508 H   0  0  0  0  0  0  0  0  0  0  0  0
   -2.5776   -6.7582    0.3486 H   0  0  0  0  0  0  0  0  0  0  0  0
    0.7203   -2.3483   -2.7635 H   0  0  0  0  0  0  0  0  0  0  0  0
   -0.7496   -6.6752   -5.0281 H   0  0  0  0  0  0  0  0  0  0  0  0
   -0.2298   -4.1103   -7.2754 H   0  0  0  0  0  0  0  0  0  0  0  0
    1.8056   -5.5579   -7.9256 H   0  0  0  0  0  0  0  0  0  0  0  0
    3.2665   -6.1308   -5.7865 H   0  0  0  0  0  0  0  0  0  0  0  0
    4.0070   -3.8918   -4.6824 H   0  0  0  0  0  0  0  0  0  0  0  0
    2.9911   -1.8859   -6.0961 H   0  0  0  0  0  0  0  0  0  0  0  0
    3.6034   -3.6140   -8.0037 H   0  0  0  0  0  0  0  0  0  0  0  0
    1.9483   -2.9192   -8.3323 H   0  0  0  0  0  0  0  0  0  0  0  0
    0.4233   -2.0916   -6.2454 H   0  0  0  0  0  0  0  0  0  0  0  0
  1  2  2  3
  2  3  1  0
  3  4  2  0
  3  5  1  0
  5  6  1  0
  6  7  1  0
  7  8  1  0
  7  9  2  0
  9 10  1  0
 10 11  1  0
 11 12  2  3
 12 13  1  0
 13 14  3  0
 12 15  1  0
 15 16  3  0
  1 17  1  0
 17 18  2  0
 18 19  1  0
 19 20  2  0
 20 21  1  0
 21 22  1  0
 22 23  1  0
 20 24  1  0
 24 25  1  0
 25 26  1  0
 26 27  2  0
 27 28  1  0
 28 29  1  0
 26 30  1  0
 30 31  1  0
 31 32  1  0
 32 33  1  0
 33 34  1  0
 34 35  1  0
 35 36  1  0
 34 37  2  0
 37 38  1  0
 38 39  1  0
 39 40  1  0
 40 41  1  0
 41 42  1  0
 42 43  1  0
 43 44  1  0
 44 45  1  0
 45 46  1  0
 41 47  1  0
 47 48  1  0
 37 49  1  0
 49 50  2  3
 50 51  1  0
 51 52  2  0
 51 53  1  0
 53 54  2  0
 54 55  1  0
 55 56  2  0
 56 57  1  0
 57 58  2  0
 58 59  1  0
 59 60  2  3
 60 61  1  0
 61 62  3  0
 60 63  1  0
 63 64  3  0
 56 65  1  0
 65 66  1  0
 66 67  1  0
 67 68  2  0
 68 69  1  0
 69 70  1  0
 69 71  1  0
 11  2  1  0
 21 17  1  0
 43 24  2  0
 59 50  1  0
 71 65  1  0
 10  5  2  0
 44 19  1  0
 58 53  1  0
 70 66  1  0
 29 25  2  0
 42 30  2  0
 71 55  1  0
 40 31  2  0
 39 33  2  0
  1 72  1  0
  9 73  1  0
 18 74  1  0
 22 75  1  0
 22 76  1  0
 23 77  1  0
 23 78  1  0
 23 79  1  0
 35 80  1  0
 35 81  1  0
 36 82  1  0
 36 83  1  0
 36 84  1  0
 45 85  1  0
 45 86  1  0
 46 87  1  0
 46 88  1  0
 46 89  1  0
 47 90  1  0
 47 91  1  0
 48 92  1  0
 48 93  1  0
 48 94  1  0
 49 95  1  0
 54 96  1  0
 57 97  1  0
 65 98  1  0
 66 99  1  0
 67100  1  0
 68101  1  0
 69102  1  0
 70103  1  0
 70104  1  0
 71105  1  0
M  END

