
     RDKit          3D

 82 93  0  0  0  0  0  0  0  0999 V2000
    3.1165   -7.6167   -3.6778 C   0  0  0  0  0  0  0  0  0  0  0  0
    3.7197   -6.5942   -4.4124 C   0  0  0  0  0  0  0  0  0  0  0  0
    4.0704   -5.3031   -3.7884 C   0  0  0  0  0  0  0  0  0  0  0  0
    4.3544   -5.1490   -2.5468 O   0  0  0  0  0  0  0  0  0  0  0  0
    4.0603   -4.3358   -4.7494 C   0  0  0  0  0  0  0  0  0  0  0  0
    4.0992   -2.5567   -4.8602 S   0  0  0  0  0  0  0  0  0  0  0  0
    3.6650   -2.4346   -6.5951 C   0  0  0  0  0  0  0  0  0  0  0  0
    3.5585   -1.0046   -7.7766 Br  0  0  0  0  0  0  0  0  0  0  0  0
    3.6766   -3.6762   -6.4345 C   0  0  0  0  0  0  0  0  0  0  0  0
    3.6682   -4.9296   -6.3502 C   0  0  0  0  0  0  0  0  0  0  0  0
    3.5379   -6.3142   -5.7257 C   0  0  0  0  0  0  0  0  0  0  0  0
    3.0552   -7.1987   -6.7438 C   0  0  0  0  0  0  0  0  0  0  0  0
    3.0930   -6.3507   -7.9754 C   0  0  0  0  0  0  0  0  0  0  0  0
    3.1184   -5.6163   -9.0248 N   0  0  0  0  0  0  0  0  0  0  0  0
    2.7488   -8.4696   -6.8610 C   0  0  0  0  0  0  0  0  0  0  0  0
    2.4772   -9.5875   -6.9469 N   0  0  0  0  0  0  0  0  0  0  0  0
    2.8510   -7.0902   -2.3270 C   0  0  0  0  0  0  0  0  0  0  0  0
    2.9071   -7.2469   -0.9871 C   0  0  0  0  0  0  0  0  0  0  0  0
    2.3747   -6.3056   -0.2243 C   0  0  0  0  0  0  0  0  0  0  0  0
    2.5982   -6.2002    1.6817 S   0  0  0  0  0  0  0  0  0  0  0  0
    1.8126   -4.7104    1.8898 C   0  0  0  0  0  0  0  0  0  0  0  0
    1.4252   -3.6651    2.6836 C   0  0  0  0  0  0  0  0  0  0  0  0
    1.6915   -3.4447    3.9730 C   0  0  0  0  0  0  0  0  0  0  0  0
    1.4405   -2.3589    4.7512 C   0  0  0  0  0  0  0  0  0  0  0  0
    1.6860   -2.2178    5.9489 N   0  0  0  0  0  0  0  0  0  0  0  0
    2.4044   -3.6843    6.3498 S   0  0  0  0  0  0  0  0  0  0  0  0
    2.3358   -4.4072    4.9258 N   0  0  0  0  0  0  0  0  0  0  0  0
    0.7696   -1.3598    3.9775 C   0  0  0  0  0  0  0  0  0  0  0  0
    0.2573   -0.1442    4.2509 C   0  0  0  0  0  0  0  0  0  0  0  0
   -0.3885    0.4467    3.1677 C   0  0  0  0  0  0  0  0  0  0  0  0
   -0.2183   -0.5022    2.2098 N   0  0  0  0  0  0  0  0  0  0  0  0
   -0.8798   -0.2608    0.9258 C   0  0  0  0  0  0  0  0  0  0  0  0
   -2.3358   -0.6998    0.9388 C   0  0  0  0  0  0  0  0  0  0  0  0
    0.4512   -1.5719    2.6032 C   0  0  0  0  0  0  0  0  0  0  0  0
    0.7751   -2.7094    1.8739 C   0  0  0  0  0  0  0  0  0  0  0  0
    0.7831   -3.1445    0.6502 N   0  0  0  0  0  0  0  0  0  0  0  0
    1.3865   -4.3440    0.5029 C   0  0  0  0  0  0  0  0  0  0  0  0
    1.8306   -5.3284   -0.1729 C   0  0  0  0  0  0  0  0  0  0  0  0
    1.8878   -5.3447   -2.4175 Se  0  0  0  0  0  2  0  0  0  0  0  0
    0.3190   -2.4476   -0.5596 C   0  0  0  0  0  0  0  0  0  0  0  0
    1.3394   -1.6643   -1.2927 C   0  0  0  0  0  0  0  0  0  0  0  0
   -0.7667    1.5991    3.6195 C   0  0  0  0  0  0  0  0  0  0  0  0
   -0.7324    2.2785    4.5989 C   0  0  0  0  0  0  0  0  0  0  0  0
    0.1789    1.0816    5.5842 S   0  0  0  0  0  0  0  0  0  0  0  0
   -1.4060    3.3927    4.4226 C   0  0  0  0  0  0  0  0  0  0  0  0
   -1.9876    4.3554    4.2712 C   0  0  0  0  0  0  0  0  0  0  0  0
   -2.0335    2.9612    2.4209 Se  0  0  0  0  0  2  0  0  0  0  0  0
   -2.8288    5.4029    3.7129 C   0  0  0  0  0  0  0  0  0  0  0  0
   -2.3936    6.0286    2.5865 C   0  0  0  0  0  0  0  0  0  0  0  0
   -1.0666    5.6798    1.9924 C   0  0  0  0  0  0  0  0  0  0  0  0
   -0.0335    5.2157    2.6668 O   0  0  0  0  0  0  0  0  0  0  0  0
   -1.0598    5.9166    0.6137 C   0  0  0  0  0  0  0  0  0  0  0  0
    0.0939    5.7993   -0.3317 C   0  0  0  0  0  0  0  0  0  0  0  0
   -0.2996    6.2758   -1.5968 C   0  0  0  0  0  0  0  0  0  0  0  0
    0.6742    6.2970   -2.5900 F   0  0  0  0  0  0  0  0  0  0  0  0
   -1.5252    6.7711   -1.9788 C   0  0  0  0  0  0  0  0  0  0  0  0
   -1.6837    7.1947   -3.2667 F   0  0  0  0  0  0  0  0  0  0  0  0
   -2.4086    6.7796   -1.0125 C   0  0  0  0  0  0  0  0  0  0  0  0
   -2.2325    6.3725    0.2810 C   0  0  0  0  0  0  0  0  0  0  0  0
   -3.1622    6.4686    1.5319 C   0  0  0  0  0  0  0  0  0  0  0  0
   -4.3225    7.0795    1.5045 C   0  0  0  0  0  0  0  0  0  0  0  0
   -5.0060    7.3803    0.1564 C   0  0  0  0  0  0  0  0  0  0  0  0
   -5.4529    7.5968   -0.7427 N   0  0  0  0  0  0  0  0  0  0  0  0
   -4.9680    7.5776    2.6366 C   0  0  0  0  0  0  0  0  0  0  0  0
   -5.5222    8.0090    3.6488 N   0  0  0  0  0  0  0  0  0  0  0  0
    2.9426   -8.5215   -4.1041 H   0  0  0  0  0  0  0  0  0  0  0  0
    2.9681   -3.7716   -7.7549 H   0  0  0  0  0  0  0  0  0  0  0  0
    3.4532   -8.1980   -0.7008 H   0  0  0  0  0  0  0  0  0  0  0  0
   -1.0656    0.9157    0.9626 H   0  0  0  0  0  0  0  0  0  0  0  0
   -0.3476   -0.2275    0.0390 H   0  0  0  0  0  0  0  0  0  0  0  0
   -2.5317   -1.7584    0.7944 H   0  0  0  0  0  0  0  0  0  0  0  0
   -2.9081   -0.1628    0.1400 H   0  0  0  0  0  0  0  0  0  0  0  0
   -2.8390   -0.2989    1.8723 H   0  0  0  0  0  0  0  0  0  0  0  0
   -0.7293   -2.2184   -0.6166 H   0  0  0  0  0  0  0  0  0  0  0  0
    0.2128   -3.3706   -1.3217 H   0  0  0  0  0  0  0  0  0  0  0  0
    2.3668   -2.1553   -1.1985 H   0  0  0  0  0  0  0  0  0  0  0  0
    1.4218   -0.5837   -1.0884 H   0  0  0  0  0  0  0  0  0  0  0  0
    1.1913   -1.6914   -2.4215 H   0  0  0  0  0  0  0  0  0  0  0  0
   -0.9618    3.9728    5.7156 H   0  0  0  0  0  0  0  0  0  0  0  0
   -3.7268    5.6423    4.2084 H   0  0  0  0  0  0  0  0  0  0  0  0
    0.9845    5.4202   -0.0683 H   0  0  0  0  0  0  0  0  0  0  0  0
   -3.3982    7.1765   -1.3399 H   0  0  0  0  0  0  0  0  0  0  0  0
  1  2  2  3
  2  3  1  0
  3  4  2  0
  3  5  1  0
  5  6  1  0
  6  7  1  0
  7  8  1  0
  7  9  2  0
  9 10  1  0
 10 11  1  0
 11 12  2  3
 12 13  1  0
 13 14  3  0
 12 15  1  0
 15 16  3  0
  1 17  1  0
 17 18  2  0
 18 19  1  0
 19 20  1  0
 20 21  1  0
 21 22  1  0
 22 23  1  0
 23 24  1  0
 24 25  2  0
 25 26  1  0
 26 27  1  0
 24 28  1  0
 28 29  1  0
 29 30  2  0
 30 31  1  0
 31 32  1  0
 32 33  1  0
 31 34  1  0
 34 35  1  0
 35 36  1  0
 36 37  1  0
 37 38  1  0
 38 39  1  0
 36 40  1  0
 40 41  1  0
 30 42  1  0
 42 43  2  0
 43 44  1  0
 43 45  1  0
 45 46  2  0
 46 47  1  0
 46 48  1  0
 48 49  2  3
 49 50  1  0
 50 51  2  0
 50 52  1  0
 52 53  2  0
 53 54  1  0
 54 55  1  0
 54 56  2  0
 56 57  1  0
 56 58  1  0
 58 59  2  0
 59 60  1  0
 60 61  2  3
 61 62  1  0
 62 63  3  0
 61 64  1  0
 64 65  3  0
 11  2  1  0
 39 17  1  0
 47 42  1  0
 60 49  1  0
 10  5  2  0
 38 19  2  0
 59 52  1  0
 37 21  2  0
 35 22  2  0
 27 23  2  0
 34 28  2  0
 44 29  1  0
  1 66  1  0
  9 67  1  0
 18 68  1  0
 32 69  1  0
 32 70  1  0
 33 71  1  0
 33 72  1  0
 33 73  1  0
 40 74  1  0
 40 75  1  0
 41 76  1  0
 41 77  1  0
 41 78  1  0
 45 79  1  0
 48 80  1  0
 53 81  1  0
 58 82  1  0
M  END

