
     RDKit          3D

104117  0  0  0  0  0  0  0  0999 V2000
    3.2196   -0.9210    7.9780 C   0  0  0  0  0  0  0  0  0  0  0  0
    3.4488    0.1968    8.6905 C   0  0  0  0  0  0  0  0  0  0  0  0
    2.7219    0.4775    9.9391 C   0  0  0  0  0  0  0  0  0  0  0  0
    2.0703   -0.3429   10.6375 O   0  0  0  0  0  0  0  0  0  0  0  0
    2.8111    1.8947   10.1618 C   0  0  0  0  0  0  0  0  0  0  0  0
    2.2105    2.9947   11.2751 S   0  0  0  0  0  0  0  0  0  0  0  0
    2.9943    4.3036   10.5237 C   0  0  0  0  0  0  0  0  0  0  0  0
    2.9024    6.1046   11.1422 Br  0  0  0  0  0  0  0  0  0  0  0  0
    3.7156    3.8736    9.4054 C   0  0  0  0  0  0  0  0  0  0  0  0
    3.5805    2.4949    9.2208 C   0  0  0  0  0  0  0  0  0  0  0  0
    4.1152    1.4833    8.2815 C   0  0  0  0  0  0  0  0  0  0  0  0
    5.1664    1.6564    7.4480 C   0  0  0  0  0  0  0  0  0  0  0  0
    5.7326    2.9586    7.2046 C   0  0  0  0  0  0  0  0  0  0  0  0
    6.1998    3.9980    7.0001 N   0  0  0  0  0  0  0  0  0  0  0  0
    5.9061    0.5512    6.9014 C   0  0  0  0  0  0  0  0  0  0  0  0
    6.5205   -0.3249    6.4585 N   0  0  0  0  0  0  0  0  0  0  0  0
    3.4030   -1.0578    6.5240 C   0  0  0  0  0  0  0  0  0  0  0  0
    4.1770   -2.4107    5.8446 S   0  0  0  0  0  0  0  0  0  0  0  0
    3.7664   -1.9784    4.2860 C   0  0  0  0  0  0  0  0  0  0  0  0
    3.6781   -2.6321    3.0939 C   0  0  0  0  0  0  0  0  0  0  0  0
    3.9770   -3.9636    2.7531 C   0  0  0  0  0  0  0  0  0  0  0  0
    3.4569   -4.4973    1.5329 C   0  0  0  0  0  0  0  0  0  0  0  0
    3.7223   -5.7984    1.2641 N   0  0  0  0  0  0  0  0  0  0  0  0
    4.5963   -6.1868    2.6174 S   0  0  0  0  0  0  0  0  0  0  0  0
    4.6737   -4.8155    3.5441 N   0  0  0  0  0  0  0  0  0  0  0  0
    2.7055   -3.6579    0.7057 C   0  0  0  0  0  0  0  0  0  0  0  0
    2.0973   -3.8484   -0.5084 C   0  0  0  0  0  0  0  0  0  0  0  0
    1.8017   -5.0626   -1.6664 S   0  0  0  0  0  0  0  0  0  0  0  0
    0.9558   -3.9467   -2.6555 C   0  0  0  0  0  0  0  0  0  0  0  0
    0.2329   -4.0464   -3.8477 C   0  0  0  0  0  0  0  0  0  0  0  0
    0.1522   -5.2894   -4.6874 C   0  0  0  0  0  0  0  0  0  0  0  0
    1.2509   -5.3002   -5.7428 C   0  0  0  0  0  0  0  0  0  0  0  0
   -0.3738   -2.8128   -4.1671 C   0  0  0  0  0  0  0  0  0  0  0  0
    0.0367   -1.6317   -3.0023 S   0  0  0  0  0  0  0  0  0  0  0  0
    0.9423   -2.6979   -2.0917 C   0  0  0  0  0  0  0  0  0  0  0  0
    1.5913   -2.6494   -0.8786 C   0  0  0  0  0  0  0  0  0  0  0  0
    1.8524   -1.6585    0.0044 N   0  0  0  0  0  0  0  0  0  0  0  0
    2.4667   -2.3138    1.0313 C   0  0  0  0  0  0  0  0  0  0  0  0
    2.8587   -1.8246    2.3002 C   0  0  0  0  0  0  0  0  0  0  0  0
    2.3351   -0.7795    3.0266 N   0  0  0  0  0  0  0  0  0  0  0  0
    2.9584   -0.8885    4.2439 C   0  0  0  0  0  0  0  0  0  0  0  0
    2.7114   -0.3294    5.5233 C   0  0  0  0  0  0  0  0  0  0  0  0
    1.7261    0.7671    5.8474 C   0  0  0  0  0  0  0  0  0  0  0  0
    0.3888    0.2120    6.3539 C   0  0  0  0  0  0  0  0  0  0  0  0
    1.0060   -0.1750    2.7970 C   0  0  0  0  0  0  0  0  0  0  0  0
    1.0742    1.3297    2.4984 C   0  0  0  0  0  0  0  0  0  0  0  0
    1.9990   -0.2409   -0.3439 C   0  0  0  0  0  0  0  0  0  0  0  0
    2.9997   -0.0439   -1.4836 C   0  0  0  0  0  0  0  0  0  0  0  0
   -1.1707   -2.5245   -5.3705 C   0  0  0  0  0  0  0  0  0  0  0  0
   -2.3425   -1.8616   -5.3277 C   0  0  0  0  0  0  0  0  0  0  0  0
   -3.0646   -1.4669   -4.1111 C   0  0  0  0  0  0  0  0  0  0  0  0
   -2.9659   -2.0057   -2.9754 O   0  0  0  0  0  0  0  0  0  0  0  0
   -3.9759   -0.3956   -4.4436 C   0  0  0  0  0  0  0  0  0  0  0  0
   -4.7644    0.3627   -3.5455 C   0  0  0  0  0  0  0  0  0  0  0  0
   -5.4606    1.3951   -4.1472 C   0  0  0  0  0  0  0  0  0  0  0  0
   -5.3679    1.6867   -5.5475 C   0  0  0  0  0  0  0  0  0  0  0  0
   -4.5997    0.9444   -6.4330 C   0  0  0  0  0  0  0  0  0  0  0  0
   -3.9107   -0.1516   -5.8403 C   0  0  0  0  0  0  0  0  0  0  0  0
   -3.0134   -1.1670   -6.4660 C   0  0  0  0  0  0  0  0  0  0  0  0
   -3.0063   -1.5515   -7.7667 C   0  0  0  0  0  0  0  0  0  0  0  0
   -2.3688   -2.7697   -8.1967 C   0  0  0  0  0  0  0  0  0  0  0  0
   -1.8743   -3.7570   -8.5430 N   0  0  0  0  0  0  0  0  0  0  0  0
   -3.7914   -0.8867   -8.7736 C   0  0  0  0  0  0  0  0  0  0  0  0
   -4.4215   -0.3617   -9.5911 N   0  0  0  0  0  0  0  0  0  0  0  0
   -6.2853    2.8592   -5.3791 C   0  0  0  0  0  0  0  0  0  0  0  0
   -5.6629    4.2896   -5.3925 C   0  0  0  0  0  0  0  0  0  0  0  0
   -4.2586    4.2539   -4.8350 C   0  0  0  0  0  0  0  0  0  0  0  0
   -4.3707    3.9771   -3.5364 C   0  0  0  0  0  0  0  0  0  0  0  0
   -5.8458    3.8283   -3.2522 C   0  0  0  0  0  0  0  0  0  0  0  0
   -6.3796    4.8898   -4.1972 C   0  0  0  0  0  0  0  0  0  0  0  0
   -6.3976    2.5474   -3.9490 C   0  0  0  0  0  0  0  0  0  0  0  0
    2.7053   -1.7444    8.4601 H   0  0  0  0  0  0  0  0  0  0  0  0
    4.3042    4.5372    8.7905 H   0  0  0  0  0  0  0  0  0  0  0  0
   -0.8399   -5.3446   -5.1804 H   0  0  0  0  0  0  0  0  0  0  0  0
    0.2488   -6.1918   -4.0465 H   0  0  0  0  0  0  0  0  0  0  0  0
    1.2063   -6.2509   -6.3183 H   0  0  0  0  0  0  0  0  0  0  0  0
    1.1104   -4.4551   -6.4487 H   0  0  0  0  0  0  0  0  0  0  0  0
    2.2516   -5.2116   -5.2648 H   0  0  0  0  0  0  0  0  0  0  0  0
    2.1462    1.4423    6.6158 H   0  0  0  0  0  0  0  0  0  0  0  0
    1.5753    1.4288    4.9861 H   0  0  0  0  0  0  0  0  0  0  0  0
   -0.4533    0.6413    5.7610 H   0  0  0  0  0  0  0  0  0  0  0  0
    0.2392    0.4993    7.4226 H   0  0  0  0  0  0  0  0  0  0  0  0
    0.3431   -0.9025    6.2834 H   0  0  0  0  0  0  0  0  0  0  0  0
    0.3613   -0.3562    3.6781 H   0  0  0  0  0  0  0  0  0  0  0  0
    0.4743   -0.6855    1.9676 H   0  0  0  0  0  0  0  0  0  0  0  0
    0.7840    1.5359    1.4491 H   0  0  0  0  0  0  0  0  0  0  0  0
    2.0923    1.7357    2.6808 H   0  0  0  0  0  0  0  0  0  0  0  0
    0.3401    1.8738    3.1257 H   0  0  0  0  0  0  0  0  0  0  0  0
    2.4176    0.3118    0.5103 H   0  0  0  0  0  0  0  0  0  0  0  0
    1.0116    0.1837   -0.6230 H   0  0  0  0  0  0  0  0  0  0  0  0
    3.9869   -0.4753   -1.2046 H   0  0  0  0  0  0  0  0  0  0  0  0
    3.1229    1.0416   -1.6819 H   0  0  0  0  0  0  0  0  0  0  0  0
    2.6421   -0.5232   -2.4139 H   0  0  0  0  0  0  0  0  0  0  0  0
   -0.6896   -2.7340   -6.3120 H   0  0  0  0  0  0  0  0  0  0  0  0
   -4.7974    0.1751   -2.4805 H   0  0  0  0  0  0  0  0  0  0  0  0
   -4.5225    1.2204   -7.4722 H   0  0  0  0  0  0  0  0  0  0  0  0
   -7.2424    2.7567   -5.9360 H   0  0  0  0  0  0  0  0  0  0  0  0
   -5.7790    4.8476   -6.3450 H   0  0  0  0  0  0  0  0  0  0  0  0
   -3.3417    4.5009   -5.3513 H   0  0  0  0  0  0  0  0  0  0  0  0
   -3.5594    3.9591   -2.8178 H   0  0  0  0  0  0  0  0  0  0  0  0
   -6.1346    3.9475   -2.1869 H   0  0  0  0  0  0  0  0  0  0  0  0
   -7.4905    4.8827   -4.2924 H   0  0  0  0  0  0  0  0  0  0  0  0
   -6.0398    5.9213   -3.9410 H   0  0  0  0  0  0  0  0  0  0  0  0
   -7.4241    2.2445   -3.6393 H   0  0  0  0  0  0  0  0  0  0  0  0
  1  2  2  3
  2  3  1  0
  3  4  2  0
  3  5  1  0
  5  6  1  0
  6  7  1  0
  7  8  1  0
  7  9  2  0
  9 10  1  0
 10 11  1  0
 11 12  2  3
 12 13  1  0
 13 14  3  0
 12 15  1  0
 15 16  3  0
  1 17  1  0
 17 18  1  0
 18 19  1  0
 19 20  1  0
 20 21  1  0
 21 22  1  0
 22 23  2  0
 23 24  1  0
 24 25  1  0
 22 26  1  0
 26 27  1  0
 27 28  1  0
 28 29  1  0
 29 30  1  0
 30 31  1  0
 31 32  1  0
 30 33  2  0
 33 34  1  0
 34 35  1  0
 35 36  1  0
 36 37  1  0
 37 38  1  0
 38 39  1  0
 39 40  1  0
 40 41  1  0
 41 42  1  0
 42 43  1  0
 43 44  1  0
 40 45  1  0
 45 46  1  0
 37 47  1  0
 47 48  1  0
 33 49  1  0
 49 50  2  3
 50 51  1  0
 51 52  2  0
 51 53  1  0
 53 54  2  0
 54 55  1  0
 55 56  2  0
 56 57  1  0
 57 58  2  0
 58 59  1  0
 59 60  2  3
 60 61  1  0
 61 62  3  0
 60 63  1  0
 63 64  3  0
 56 65  1  0
 65 66  1  0
 66 67  1  0
 67 68  2  0
 68 69  1  0
 69 70  1  0
 69 71  1  0
 11  2  1  0
 42 17  2  0
 59 50  1  0
 71 65  1  0
 10  5  2  0
 41 19  2  0
 58 53  1  0
 70 66  1  0
 39 20  2  0
 71 55  1  0
 25 21  2  0
 38 26  2  0
 36 27  2  0
 35 29  2  0
  1 72  1  0
  9 73  1  0
 31 74  1  0
 31 75  1  0
 32 76  1  0
 32 77  1  0
 32 78  1  0
 43 79  1  0
 43 80  1  0
 44 81  1  0
 44 82  1  0
 44 83  1  0
 45 84  1  0
 45 85  1  0
 46 86  1  0
 46 87  1  0
 46 88  1  0
 47 89  1  0
 47 90  1  0
 48 91  1  0
 48 92  1  0
 48 93  1  0
 49 94  1  0
 54 95  1  0
 57 96  1  0
 65 97  1  0
 66 98  1  0
 67 99  1  0
 68100  1  0
 69101  1  0
 70102  1  0
 70103  1  0
 71104  1  0
M  END

