
     RDKit          3D

110125  0  0  0  0  0  0  0  0999 V2000
    8.0166   -5.1188   -5.3014 C   0  0  0  0  0  0  0  0  0  0  0  0
    9.2051   -5.3793   -4.7239 C   0  0  0  0  0  0  0  0  0  0  0  0
    9.8543   -4.5470   -3.6848 C   0  0  0  0  0  0  0  0  0  0  0  0
    9.4293   -3.4725   -3.1859 O   0  0  0  0  0  0  0  0  0  0  0  0
   11.1708   -5.0897   -3.4816 C   0  0  0  0  0  0  0  0  0  0  0  0
   12.5440   -4.6325   -2.6377 S   0  0  0  0  0  0  0  0  0  0  0  0
   13.4739   -5.8827   -3.3200 C   0  0  0  0  0  0  0  0  0  0  0  0
   15.3143   -6.1823   -2.9279 Br  0  0  0  0  0  0  0  0  0  0  0  0
   12.7131   -6.6231   -4.2278 C   0  0  0  0  0  0  0  0  0  0  0  0
   11.4006   -6.1494   -4.2913 C   0  0  0  0  0  0  0  0  0  0  0  0
   10.1993   -6.4463   -5.1047 C   0  0  0  0  0  0  0  0  0  0  0  0
   10.0067   -7.5557   -5.8618 C   0  0  0  0  0  0  0  0  0  0  0  0
   11.0135   -8.5787   -5.9666 C   0  0  0  0  0  0  0  0  0  0  0  0
   11.8162   -9.4136   -6.0268 N   0  0  0  0  0  0  0  0  0  0  0  0
    8.7568   -7.8572   -6.5045 C   0  0  0  0  0  0  0  0  0  0  0  0
    7.7584   -8.1076   -7.0294 N   0  0  0  0  0  0  0  0  0  0  0  0
    6.9952   -4.2343   -4.7148 C   0  0  0  0  0  0  0  0  0  0  0  0
    6.5369   -4.2275   -3.0780 S   0  0  0  0  0  0  0  0  0  0  0  0
    5.2535   -3.1726   -3.2878 C   0  0  0  0  0  0  0  0  0  0  0  0
    4.3501   -2.6688   -2.3429 C   0  0  0  0  0  0  0  0  0  0  0  0
    4.2969   -2.9901   -0.6737 S   0  0  0  0  0  0  0  0  0  0  0  0
    2.9396   -2.0120   -0.4873 C   0  0  0  0  0  0  0  0  0  0  0  0
    2.2055   -1.4921    0.5314 C   0  0  0  0  0  0  0  0  0  0  0  0
    2.3407   -1.5989    1.9189 C   0  0  0  0  0  0  0  0  0  0  0  0
    1.5169   -0.7807    2.7478 C   0  0  0  0  0  0  0  0  0  0  0  0
    1.6751   -0.9086    4.0879 N   0  0  0  0  0  0  0  0  0  0  0  0
    2.8775   -2.0488    4.1212 S   0  0  0  0  0  0  0  0  0  0  0  0
    3.2251   -2.4148    2.5426 N   0  0  0  0  0  0  0  0  0  0  0  0
    0.5815    0.0621    2.1374 C   0  0  0  0  0  0  0  0  0  0  0  0
   -0.4492    0.7832    2.6533 C   0  0  0  0  0  0  0  0  0  0  0  0
   -1.1280    1.0187    4.1726 S   0  0  0  0  0  0  0  0  0  0  0  0
   -2.5204    1.7104    3.4834 C   0  0  0  0  0  0  0  0  0  0  0  0
   -3.6531    2.1861    4.1542 C   0  0  0  0  0  0  0  0  0  0  0  0
   -4.7465    2.6976    3.4572 C   0  0  0  0  0  0  0  0  0  0  0  0
   -4.6679    2.7424    2.0592 C   0  0  0  0  0  0  0  0  0  0  0  0
   -5.5410    3.2423    1.1744 N   0  0  0  0  0  0  0  0  0  0  0  0
   -4.9513    3.0726   -0.0084 N   0  0  0  0  0  0  0  0  0  0  0  0
   -5.5253    3.5442   -1.2647 C   0  0  0  0  0  0  0  0  0  0  0  0
   -5.2235    5.0246   -1.4617 C   0  0  0  0  0  0  0  0  0  0  0  0
   -3.7459    2.5138    0.0748 N   0  0  0  0  0  0  0  0  0  0  0  0
   -3.5608    2.2834    1.3823 C   0  0  0  0  0  0  0  0  0  0  0  0
   -2.4638    1.7289    2.0689 C   0  0  0  0  0  0  0  0  0  0  0  0
   -1.2524    1.1698    1.6260 C   0  0  0  0  0  0  0  0  0  0  0  0
   -0.7904    0.7054    0.4295 N   0  0  0  0  0  0  0  0  0  0  0  0
    0.4011    0.1059    0.7514 C   0  0  0  0  0  0  0  0  0  0  0  0
    1.3108   -0.6021   -0.0757 C   0  0  0  0  0  0  0  0  0  0  0  0
    1.5965   -0.4527   -1.4147 N   0  0  0  0  0  0  0  0  0  0  0  0
    2.5455   -1.4072   -1.6344 C   0  0  0  0  0  0  0  0  0  0  0  0
    3.3234   -1.7812   -2.7398 C   0  0  0  0  0  0  0  0  0  0  0  0
    3.2116   -1.4806   -4.1103 C   0  0  0  0  0  0  0  0  0  0  0  0
    4.1030   -1.9893   -5.0242 C   0  0  0  0  0  0  0  0  0  0  0  0
    5.1453   -2.8379   -4.6386 C   0  0  0  0  0  0  0  0  0  0  0  0
    6.1069   -3.4469   -5.4522 C   0  0  0  0  0  0  0  0  0  0  0  0
    3.7614   -1.5586   -6.2478 N   0  0  0  0  0  0  0  0  0  0  0  0
    2.6786   -0.8092   -6.0504 N   0  0  0  0  0  0  0  0  0  0  0  0
    1.9758   -0.1188   -7.1227 C   0  0  0  0  0  0  0  0  0  0  0  0
    0.9713   -1.0498   -7.7842 C   0  0  0  0  0  0  0  0  0  0  0  0
    2.2983   -0.7543   -4.7751 N   0  0  0  0  0  0  0  0  0  0  0  0
    1.4598    0.7690   -2.2395 C   0  0  0  0  0  0  0  0  0  0  0  0
    1.5615    2.0654   -1.4356 C   0  0  0  0  0  0  0  0  0  0  0  0
   -1.6036    0.3897   -0.7530 C   0  0  0  0  0  0  0  0  0  0  0  0
   -2.7001   -0.6229   -0.4226 C   0  0  0  0  0  0  0  0  0  0  0  0
   -5.7938    3.1247    4.2862 C   0  0  0  0  0  0  0  0  0  0  0  0
   -5.5151    2.9096    5.6420 C   0  0  0  0  0  0  0  0  0  0  0  0
   -3.9504    2.2680    5.7956 S   0  0  0  0  0  0  0  0  0  0  0  0
   -6.3640    3.3680    6.7580 C   0  0  0  0  0  0  0  0  0  0  0  0
   -6.4301    2.7661    7.9642 C   0  0  0  0  0  0  0  0  0  0  0  0
   -5.7665    1.5166    8.3564 C   0  0  0  0  0  0  0  0  0  0  0  0
   -5.4979    0.5498    7.5957 O   0  0  0  0  0  0  0  0  0  0  0  0
   -5.6164    1.5135    9.8018 C   0  0  0  0  0  0  0  0  0  0  0  0
   -4.8868    0.6332   10.6140 C   0  0  0  0  0  0  0  0  0  0  0  0
   -4.0501   -0.7641    9.9516 Cl  0  0  0  0  0  0  0  0  0  0  0  0
   -4.8056    0.9061   11.9871 C   0  0  0  0  0  0  0  0  0  0  0  0
   -5.4273    2.0470   12.5205 C   0  0  0  0  0  0  0  0  0  0  0  0
   -6.1508    2.9192   11.6889 C   0  0  0  0  0  0  0  0  0  0  0  0
   -6.2622    2.6223   10.3212 C   0  0  0  0  0  0  0  0  0  0  0  0
   -6.9358    3.3741    9.2282 C   0  0  0  0  0  0  0  0  0  0  0  0
   -7.9905    4.2207    9.3594 C   0  0  0  0  0  0  0  0  0  0  0  0
   -8.5386    4.5664   10.6437 C   0  0  0  0  0  0  0  0  0  0  0  0
   -8.9914    4.8421   11.6719 N   0  0  0  0  0  0  0  0  0  0  0  0
   -8.7839    4.6272    8.2308 C   0  0  0  0  0  0  0  0  0  0  0  0
   -9.4518    4.9313    7.3323 N   0  0  0  0  0  0  0  0  0  0  0  0
    7.7449   -5.5932   -6.2297 H   0  0  0  0  0  0  0  0  0  0  0  0
   13.1166   -7.4386   -4.8090 H   0  0  0  0  0  0  0  0  0  0  0  0
   -6.6235    3.3849   -1.2573 H   0  0  0  0  0  0  0  0  0  0  0  0
   -5.0967    2.9654   -2.1136 H   0  0  0  0  0  0  0  0  0  0  0  0
   -5.6651    5.3750   -2.4179 H   0  0  0  0  0  0  0  0  0  0  0  0
   -4.1259    5.1913   -1.4890 H   0  0  0  0  0  0  0  0  0  0  0  0
   -5.6607    5.6178   -0.6292 H   0  0  0  0  0  0  0  0  0  0  0  0
    6.1505   -3.3362   -6.5265 H   0  0  0  0  0  0  0  0  0  0  0  0
    1.4489    0.7707   -6.7114 H   0  0  0  0  0  0  0  0  0  0  0  0
    2.7082    0.2359   -7.8772 H   0  0  0  0  0  0  0  0  0  0  0  0
    0.4782   -0.5221   -8.6281 H   0  0  0  0  0  0  0  0  0  0  0  0
    0.1945   -1.3540   -7.0525 H   0  0  0  0  0  0  0  0  0  0  0  0
    1.4845   -1.9540   -8.1751 H   0  0  0  0  0  0  0  0  0  0  0  0
    0.5332    0.7439   -2.8453 H   0  0  0  0  0  0  0  0  0  0  0  0
    2.3073    0.8317   -2.9485 H   0  0  0  0  0  0  0  0  0  0  0  0
    1.7720    2.9149   -2.1192 H   0  0  0  0  0  0  0  0  0  0  0  0
    2.3936    1.9987   -0.6981 H   0  0  0  0  0  0  0  0  0  0  0  0
    0.6100    2.2969   -0.9143 H   0  0  0  0  0  0  0  0  0  0  0  0
   -0.9881   -0.0939   -1.5247 H   0  0  0  0  0  0  0  0  0  0  0  0
   -2.0165    1.3099   -1.2035 H   0  0  0  0  0  0  0  0  0  0  0  0
   -3.2237   -0.9225   -1.3558 H   0  0  0  0  0  0  0  0  0  0  0  0
   -2.2521   -1.5236    0.0449 H   0  0  0  0  0  0  0  0  0  0  0  0
   -3.4461   -0.1939    0.2708 H   0  0  0  0  0  0  0  0  0  0  0  0
   -6.7075    3.5778    3.9202 H   0  0  0  0  0  0  0  0  0  0  0  0
   -6.8599    4.3123    6.5995 H   0  0  0  0  0  0  0  0  0  0  0  0
   -4.2444    0.2481   12.6378 H   0  0  0  0  0  0  0  0  0  0  0  0
   -5.3349    2.2649   13.5769 H   0  0  0  0  0  0  0  0  0  0  0  0
   -6.5668    3.8187   12.1119 H   0  0  0  0  0  0  0  0  0  0  0  0
  1  2  2  3
  2  3  1  0
  3  4  2  0
  3  5  1  0
  5  6  1  0
  6  7  1  0
  7  8  1  0
  7  9  2  0
  9 10  1  0
 10 11  1  0
 11 12  2  3
 12 13  1  0
 13 14  3  0
 12 15  1  0
 15 16  3  0
  1 17  1  0
 17 18  1  0
 18 19  1  0
 19 20  1  0
 20 21  1  0
 21 22  1  0
 22 23  1  0
 23 24  1  0
 24 25  1  0
 25 26  2  0
 26 27  1  0
 27 28  1  0
 25 29  1  0
 29 30  1  0
 30 31  1  0
 31 32  1  0
 32 33  1  0
 33 34  2  0
 34 35  1  0
 35 36  2  0
 36 37  1  0
 37 38  1  0
 38 39  1  0
 37 40  1  0
 40 41  2  0
 41 42  1  0
 42 43  1  0
 43 44  1  0
 44 45  1  0
 45 46  1  0
 46 47  1  0
 47 48  1  0
 48 49  1  0
 49 50  1  0
 50 51  1  0
 51 52  1  0
 52 53  1  0
 51 54  2  0
 54 55  1  0
 55 56  1  0
 56 57  1  0
 55 58  1  0
 47 59  1  0
 59 60  1  0
 44 61  1  0
 61 62  1  0
 34 63  1  0
 63 64  2  0
 64 65  1  0
 64 66  1  0
 66 67  2  3
 67 68  1  0
 68 69  2  0
 68 70  1  0
 70 71  2  0
 71 72  1  0
 71 73  1  0
 73 74  2  0
 74 75  1  0
 75 76  2  0
 76 77  1  0
 77 78  2  3
 78 79  1  0
 79 80  3  0
 78 81  1  0
 81 82  3  0
 11  2  1  0
 53 17  2  0
 77 67  1  0
 10  5  2  0
 52 19  2  0
 76 70  1  0
 49 20  2  0
 58 50  2  0
 48 22  2  0
 46 23  2  0
 28 24  2  0
 45 29  2  0
 43 30  2  0
 42 32  2  0
 65 33  1  0
 41 35  1  0
  1 83  1  0
  9 84  1  0
 38 85  1  0
 38 86  1  0
 39 87  1  0
 39 88  1  0
 39 89  1  0
 53 90  1  0
 56 91  1  0
 56 92  1  0
 57 93  1  0
 57 94  1  0
 57 95  1  0
 59 96  1  0
 59 97  1  0
 60 98  1  0
 60 99  1  0
 60100  1  0
 61101  1  0
 61102  1  0
 62103  1  0
 62104  1  0
 62105  1  0
 63106  1  0
 66107  1  0
 73108  1  0
 74109  1  0
 75110  1  0
M  END

