
     RDKit          3D

 97108  0  0  0  0  0  0  0  0999 V2000
   -3.0709   -6.3055    1.6314 C   0  0  0  0  0  0  0  0  0  0  0  0
   -3.3087   -6.0792    0.3541 C   0  0  0  0  0  0  0  0  0  0  0  0
   -3.7329   -5.9114   -0.9051 C   0  0  0  0  0  0  0  0  0  0  0  0
   -2.7914   -5.0868   -1.5968 O   0  0  0  0  0  0  0  0  0  0  0  0
   -4.7399   -6.2808   -1.6739 C   0  0  0  0  0  0  0  0  0  0  0  0
   -5.6262   -6.3105   -3.1654 S   0  0  0  0  0  0  0  0  0  0  0  0
   -6.8997   -7.2867   -2.6892 C   0  0  0  0  0  0  0  0  0  0  0  0
   -8.0680   -7.7253   -3.5938 C   0  0  0  0  0  0  0  0  0  0  0  0
   -6.6707   -7.5882   -1.4263 C   0  0  0  0  0  0  0  0  0  0  0  0
   -5.5102   -7.0711   -0.8064 C   0  0  0  0  0  0  0  0  0  0  0  0
   -4.8495   -7.0851    0.4574 C   0  0  0  0  0  0  0  0  0  0  0  0
   -5.1629   -7.6604    1.5825 C   0  0  0  0  0  0  0  0  0  0  0  0
   -4.6387   -7.7251    2.8550 C   0  0  0  0  0  0  0  0  0  0  0  0
   -4.1825   -7.8029    3.9746 N   0  0  0  0  0  0  0  0  0  0  0  0
   -6.4064   -8.5902    1.4391 C   0  0  0  0  0  0  0  0  0  0  0  0
   -7.2872   -9.2728    1.3433 N   0  0  0  0  0  0  0  0  0  0  0  0
   -1.5016   -5.9304    1.6944 C   0  0  0  0  0  0  0  0  0  0  0  0
   -0.3802   -6.1009    2.0963 C   0  0  0  0  0  0  0  0  0  0  0  0
   -0.1997   -7.2605    3.1561 C   0  0  0  0  0  0  0  0  0  0  0  0
   -0.4449   -6.6489    4.5158 C   0  0  0  0  0  0  0  0  0  0  0  0
    0.7569   -5.2952    1.8773 C   0  0  0  0  0  0  0  0  0  0  0  0
    2.4339   -5.0973    2.3369 S   0  0  0  0  0  0  0  0  0  0  0  0
    2.8019   -3.6092    1.5930 C   0  0  0  0  0  0  0  0  0  0  0  0
    3.6366   -2.5580    1.3933 C   0  0  0  0  0  0  0  0  0  0  0  0
    4.8196   -2.1435    2.0151 C   0  0  0  0  0  0  0  0  0  0  0  0
    5.3488   -1.0353    2.0228 C   0  0  0  0  0  0  0  0  0  0  0  0
    6.6551   -0.7000    2.2614 N   0  0  0  0  0  0  0  0  0  0  0  0
    7.2138   -2.3087    2.5612 S   0  0  0  0  0  0  0  0  0  0  0  0
    5.7888   -3.1367    2.3349 N   0  0  0  0  0  0  0  0  0  0  0  0
    4.6354    0.0117    1.2679 C   0  0  0  0  0  0  0  0  0  0  0  0
    4.8166    1.3367    1.0196 C   0  0  0  0  0  0  0  0  0  0  0  0
    5.6241    2.7764    1.5543 S   0  0  0  0  0  0  0  0  0  0  0  0
    4.6958    3.9741    0.6571 C   0  0  0  0  0  0  0  0  0  0  0  0
    4.6080    5.3241    0.4731 C   0  0  0  0  0  0  0  0  0  0  0  0
    5.4659    6.1906    1.4748 C   0  0  0  0  0  0  0  0  0  0  0  0
    4.5365    6.1662    2.7337 C   0  0  0  0  0  0  0  0  0  0  0  0
    3.7967    5.9645   -0.2809 C   0  0  0  0  0  0  0  0  0  0  0  0
    2.7918    4.3752   -1.0303 Se  0  0  0  0  0  2  0  0  0  0  0  0
    3.8360    3.1711   -0.0086 C   0  0  0  0  0  0  0  0  0  0  0  0
    3.9177    1.8352    0.1951 C   0  0  0  0  0  0  0  0  0  0  0  0
    3.0924    0.7680   -0.1069 N   0  0  0  0  0  0  0  0  0  0  0  0
    3.4827   -0.3377    0.5459 C   0  0  0  0  0  0  0  0  0  0  0  0
    2.9401   -1.6038    0.6186 C   0  0  0  0  0  0  0  0  0  0  0  0
    1.6956   -2.0353    0.3563 N   0  0  0  0  0  0  0  0  0  0  0  0
    1.5769   -3.2651    0.9513 C   0  0  0  0  0  0  0  0  0  0  0  0
    0.6123   -4.1988    1.1552 C   0  0  0  0  0  0  0  0  0  0  0  0
   -1.2694   -4.2363    0.6994 Se  0  0  0  0  0  2  0  0  0  0  0  0
    0.6199   -1.4422   -0.3897 C   0  0  0  0  0  0  0  0  0  0  0  0
   -0.2038   -0.4686    0.4586 C   0  0  0  0  0  0  0  0  0  0  0  0
    2.3930    0.7542   -1.3565 C   0  0  0  0  0  0  0  0  0  0  0  0
    1.1786    1.4652   -1.6521 C   0  0  0  0  0  0  0  0  0  0  0  0
    3.4310    7.2708   -0.7112 C   0  0  0  0  0  0  0  0  0  0  0  0
    2.2284    7.6966   -0.9574 C   0  0  0  0  0  0  0  0  0  0  0  0
    0.9159    7.0801   -0.8936 C   0  0  0  0  0  0  0  0  0  0  0  0
    0.7394    5.9000   -0.3129 O   0  0  0  0  0  0  0  0  0  0  0  0
   -0.0951    7.8574   -1.5104 C   0  0  0  0  0  0  0  0  0  0  0  0
   -1.5118    7.6387   -1.6642 C   0  0  0  0  0  0  0  0  0  0  0  0
   -2.2730    8.5555   -2.2752 C   0  0  0  0  0  0  0  0  0  0  0  0
   -4.0225    8.3438   -2.4780 Cl  0  0  0  0  0  0  0  0  0  0  0  0
   -1.7272    9.7349   -2.7774 C   0  0  0  0  0  0  0  0  0  0  0  0
   -2.8958   10.9883   -3.6718 Br  0  0  0  0  0  0  0  0  0  0  0  0
   -0.3704    9.9419   -2.6271 C   0  0  0  0  0  0  0  0  0  0  0  0
    0.4791    9.0346   -2.0037 C   0  0  0  0  0  0  0  0  0  0  0  0
    1.9295    9.0121   -1.6936 C   0  0  0  0  0  0  0  0  0  0  0  0
    2.7534   10.0917   -1.6958 C   0  0  0  0  0  0  0  0  0  0  0  0
    2.5269   11.2183   -2.3748 C   0  0  0  0  0  0  0  0  0  0  0  0
    2.2853   12.3212   -3.0474 N   0  0  0  0  0  0  0  0  0  0  0  0
    3.7614   10.0574   -0.5715 C   0  0  0  0  0  0  0  0  0  0  0  0
    4.5489   10.0448    0.2926 N   0  0  0  0  0  0  0  0  0  0  0  0
   -3.3212   -6.5153    2.4978 H   0  0  0  0  0  0  0  0  0  0  0  0
   -7.7127   -8.4373   -4.3391 H   0  0  0  0  0  0  0  0  0  0  0  0
   -8.8483   -8.1624   -2.9739 H   0  0  0  0  0  0  0  0  0  0  0  0
   -8.4367   -6.7469   -4.0066 H   0  0  0  0  0  0  0  0  0  0  0  0
   -7.3987   -8.2210   -0.8852 H   0  0  0  0  0  0  0  0  0  0  0  0
   -0.9073   -8.0682    2.9021 H   0  0  0  0  0  0  0  0  0  0  0  0
    0.8164   -7.6210    3.0299 H   0  0  0  0  0  0  0  0  0  0  0  0
   -1.2345   -5.8881    4.5310 H   0  0  0  0  0  0  0  0  0  0  0  0
   -0.6081   -7.4921    5.2487 H   0  0  0  0  0  0  0  0  0  0  0  0
    0.4841   -6.0816    4.8875 H   0  0  0  0  0  0  0  0  0  0  0  0
    6.4341    5.8188    1.6068 H   0  0  0  0  0  0  0  0  0  0  0  0
    5.4824    7.2355    1.1240 H   0  0  0  0  0  0  0  0  0  0  0  0
    4.6658    5.2009    3.2590 H   0  0  0  0  0  0  0  0  0  0  0  0
    4.6354    7.0431    3.3638 H   0  0  0  0  0  0  0  0  0  0  0  0
    3.4632    6.1295    2.4038 H   0  0  0  0  0  0  0  0  0  0  0  0
   -0.1837   -2.2858   -0.4954 H   0  0  0  0  0  0  0  0  0  0  0  0
    0.7198   -1.2643   -1.4453 H   0  0  0  0  0  0  0  0  0  0  0  0
   -0.7590   -0.9148    1.2925 H   0  0  0  0  0  0  0  0  0  0  0  0
   -0.9713    0.0616   -0.1752 H   0  0  0  0  0  0  0  0  0  0  0  0
    0.4714    0.2951    0.9239 H   0  0  0  0  0  0  0  0  0  0  0  0
    2.4886   -0.2411   -1.9048 H   0  0  0  0  0  0  0  0  0  0  0  0
    3.1640    1.2943   -2.1217 H   0  0  0  0  0  0  0  0  0  0  0  0
    1.3347    2.3129   -2.3858 H   0  0  0  0  0  0  0  0  0  0  0  0
    0.4812    1.8018   -0.8846 H   0  0  0  0  0  0  0  0  0  0  0  0
    0.5340    0.8200   -2.3443 H   0  0  0  0  0  0  0  0  0  0  0  0
    4.2890    7.9258   -0.9548 H   0  0  0  0  0  0  0  0  0  0  0  0
   -1.9096    6.7108   -1.2684 H   0  0  0  0  0  0  0  0  0  0  0  0
    0.0617   10.8769   -2.9946 H   0  0  0  0  0  0  0  0  0  0  0  0
  1  2  2  3
  2  3  1  0
  3  4  2  0
  3  5  1  0
  5  6  1  0
  6  7  1  0
  7  8  1  0
  7  9  2  0
  9 10  1  0
 10 11  1  0
 11 12  2  3
 12 13  1  0
 13 14  3  0
 12 15  1  0
 15 16  3  0
  1 17  1  0
 17 18  2  0
 18 19  1  0
 19 20  1  0
 18 21  1  0
 21 22  1  0
 22 23  1  0
 23 24  1  0
 24 25  1  0
 25 26  1  0
 26 27  2  0
 27 28  1  0
 28 29  1  0
 26 30  1  0
 30 31  1  0
 31 32  1  0
 32 33  1  0
 33 34  1  0
 34 35  1  0
 35 36  1  0
 34 37  2  0
 37 38  1  0
 38 39  1  0
 39 40  1  0
 40 41  1  0
 41 42  1  0
 42 43  1  0
 43 44  1  0
 44 45  1  0
 45 46  1  0
 46 47  1  0
 44 48  1  0
 48 49  1  0
 41 50  1  0
 50 51  1  0
 37 52  1  0
 52 53  2  3
 53 54  1  0
 54 55  2  0
 54 56  1  0
 56 57  2  0
 57 58  1  0
 58 59  1  0
 58 60  2  0
 60 61  1  0
 60 62  1  0
 62 63  2  0
 63 64  1  0
 64 65  2  3
 65 66  1  0
 66 67  3  0
 65 68  1  0
 68 69  3  0
 11  2  1  0
 47 17  1  0
 64 53  1  0
 10  5  2  0
 46 21  2  0
 63 56  1  0
 45 23  2  0
 43 24  2  0
 29 25  2  0
 42 30  2  0
 40 31  2  0
 39 33  2  0
  1 70  1  0
  8 71  1  0
  8 72  1  0
  8 73  1  0
  9 74  1  0
 19 75  1  0
 19 76  1  0
 20 77  1  0
 20 78  1  0
 20 79  1  0
 35 80  1  0
 35 81  1  0
 36 82  1  0
 36 83  1  0
 36 84  1  0
 48 85  1  0
 48 86  1  0
 49 87  1  0
 49 88  1  0
 49 89  1  0
 50 90  1  0
 50 91  1  0
 51 92  1  0
 51 93  1  0
 51 94  1  0
 52 95  1  0
 57 96  1  0
 62 97  1  0
M  END

