
     RDKit          3D

 97108  0  0  0  0  0  0  0  0999 V2000
    4.2617    1.5077   -6.6646 C   0  0  0  0  0  0  0  0  0  0  0  0
    5.4732    1.1710   -6.1732 C   0  0  0  0  0  0  0  0  0  0  0  0
    5.9149    1.3233   -4.7705 C   0  0  0  0  0  0  0  0  0  0  0  0
    5.4501    2.1133   -3.9065 O   0  0  0  0  0  0  0  0  0  0  0  0
    7.0543    0.4599   -4.5921 C   0  0  0  0  0  0  0  0  0  0  0  0
    7.7304   -0.3153   -3.2713 S   0  0  0  0  0  0  0  0  0  0  0  0
    8.5196   -1.4762   -4.2325 C   0  0  0  0  0  0  0  0  0  0  0  0
    9.2556   -2.6550   -3.6783 C   0  0  0  0  0  0  0  0  0  0  0  0
    8.1916   -1.2915   -5.5797 C   0  0  0  0  0  0  0  0  0  0  0  0
    7.3611   -0.1751   -5.7497 C   0  0  0  0  0  0  0  0  0  0  0  0
    6.5018    0.3124   -6.8507 C   0  0  0  0  0  0  0  0  0  0  0  0
    6.7208    0.1161   -8.1743 C   0  0  0  0  0  0  0  0  0  0  0  0
    7.7942   -0.7246   -8.6403 C   0  0  0  0  0  0  0  0  0  0  0  0
    8.6532   -1.4032   -9.0180 N   0  0  0  0  0  0  0  0  0  0  0  0
    5.9650    0.7904   -9.1981 C   0  0  0  0  0  0  0  0  0  0  0  0
    5.3660    1.3295  -10.0315 N   0  0  0  0  0  0  0  0  0  0  0  0
    3.0973    1.8495   -5.8227 C   0  0  0  0  0  0  0  0  0  0  0  0
    2.0116    2.6706   -6.2017 C   0  0  0  0  0  0  0  0  0  0  0  0
    1.9717    3.5451   -7.4205 C   0  0  0  0  0  0  0  0  0  0  0  0
    2.3826    4.9778   -7.0877 C   0  0  0  0  0  0  0  0  0  0  0  0
    0.9767    2.6011   -5.2606 C   0  0  0  0  0  0  0  0  0  0  0  0
   -0.5235    3.4008   -5.0857 S   0  0  0  0  0  0  0  0  0  0  0  0
   -0.8504    2.5337   -3.6626 C   0  0  0  0  0  0  0  0  0  0  0  0
   -1.6961    2.6097   -2.5933 C   0  0  0  0  0  0  0  0  0  0  0  0
   -2.7265    3.5098   -2.3127 C   0  0  0  0  0  0  0  0  0  0  0  0
   -3.3204    3.4853   -1.0200 C   0  0  0  0  0  0  0  0  0  0  0  0
   -4.3132    4.3775   -0.7769 N   0  0  0  0  0  0  0  0  0  0  0  0
   -4.3536    5.1480   -2.2450 S   0  0  0  0  0  0  0  0  0  0  0  0
   -3.1968    4.4296   -3.1926 N   0  0  0  0  0  0  0  0  0  0  0  0
   -2.8551    2.5555   -0.0834 C   0  0  0  0  0  0  0  0  0  0  0  0
   -3.3501    2.2030    1.1374 C   0  0  0  0  0  0  0  0  0  0  0  0
   -4.7031    2.5658    2.0983 S   0  0  0  0  0  0  0  0  0  0  0  0
   -4.4040    1.1953    3.0673 C   0  0  0  0  0  0  0  0  0  0  0  0
   -5.0388    0.6666    4.1925 C   0  0  0  0  0  0  0  0  0  0  0  0
   -6.1912    1.3312    4.8977 C   0  0  0  0  0  0  0  0  0  0  0  0
   -5.6897    2.4057    5.8595 C   0  0  0  0  0  0  0  0  0  0  0  0
   -4.4141   -0.5243    4.6134 C   0  0  0  0  0  0  0  0  0  0  0  0
   -3.0870   -0.8605    3.5893 S   0  0  0  0  0  0  0  0  0  0  0  0
   -3.3226    0.4813    2.6168 C   0  0  0  0  0  0  0  0  0  0  0  0
   -2.7089    1.0706    1.5164 C   0  0  0  0  0  0  0  0  0  0  0  0
   -1.7843    0.6554    0.6094 N   0  0  0  0  0  0  0  0  0  0  0  0
   -1.8408    1.6236   -0.3708 C   0  0  0  0  0  0  0  0  0  0  0  0
   -1.1926    1.7073   -1.6386 C   0  0  0  0  0  0  0  0  0  0  0  0
    0.0006    1.1750   -2.0716 N   0  0  0  0  0  0  0  0  0  0  0  0
    0.1476    1.6872   -3.3197 C   0  0  0  0  0  0  0  0  0  0  0  0
    1.1994    1.7386   -4.2202 C   0  0  0  0  0  0  0  0  0  0  0  0
    2.7019    1.0271   -4.3761 S   0  0  0  0  0  0  0  0  0  0  0  0
    1.1058    0.6598   -1.2631 C   0  0  0  0  0  0  0  0  0  0  0  0
    1.4706   -0.7789   -1.6551 C   0  0  0  0  0  0  0  0  0  0  0  0
   -1.3227   -0.7339    0.4837 C   0  0  0  0  0  0  0  0  0  0  0  0
   -0.2299   -1.0678    1.5109 C   0  0  0  0  0  0  0  0  0  0  0  0
   -4.6585   -1.1867    5.9085 C   0  0  0  0  0  0  0  0  0  0  0  0
   -4.6408   -2.5158    6.1137 C   0  0  0  0  0  0  0  0  0  0  0  0
   -4.4191   -3.5517    5.0980 C   0  0  0  0  0  0  0  0  0  0  0  0
   -4.6096   -3.4377    3.8559 O   0  0  0  0  0  0  0  0  0  0  0  0
   -4.0348   -4.7718    5.7760 C   0  0  0  0  0  0  0  0  0  0  0  0
   -3.6340   -5.9824    5.2161 C   0  0  0  0  0  0  0  0  0  0  0  0
   -3.2389   -7.0209    6.0735 C   0  0  0  0  0  0  0  0  0  0  0  0
   -2.8512   -8.2088    5.5529 F   0  0  0  0  0  0  0  0  0  0  0  0
   -3.2220   -6.8229    7.4642 C   0  0  0  0  0  0  0  0  0  0  0  0
   -2.7908   -7.8114    8.2882 F   0  0  0  0  0  0  0  0  0  0  0  0
   -3.6339   -5.5937    8.0079 C   0  0  0  0  0  0  0  0  0  0  0  0
   -4.0772   -4.5756    7.1451 C   0  0  0  0  0  0  0  0  0  0  0  0
   -4.5958   -3.2114    7.4372 C   0  0  0  0  0  0  0  0  0  0  0  0
   -5.1383   -2.7807    8.6058 C   0  0  0  0  0  0  0  0  0  0  0  0
   -5.1452   -3.5885    9.7987 C   0  0  0  0  0  0  0  0  0  0  0  0
   -5.1592   -4.2272   10.7656 N   0  0  0  0  0  0  0  0  0  0  0  0
   -5.8870   -1.5531    8.7035 C   0  0  0  0  0  0  0  0  0  0  0  0
   -6.5037   -0.5759    8.7904 N   0  0  0  0  0  0  0  0  0  0  0  0
    4.0348    1.3441   -7.6996 H   0  0  0  0  0  0  0  0  0  0  0  0
    8.5341   -3.3217   -3.1591 H   0  0  0  0  0  0  0  0  0  0  0  0
    9.7314   -3.2289   -4.5065 H   0  0  0  0  0  0  0  0  0  0  0  0
   10.0528   -2.3215   -2.9776 H   0  0  0  0  0  0  0  0  0  0  0  0
    8.4562   -1.9903   -6.3622 H   0  0  0  0  0  0  0  0  0  0  0  0
    2.6390    3.1504   -8.2116 H   0  0  0  0  0  0  0  0  0  0  0  0
    0.9444    3.5480   -7.8427 H   0  0  0  0  0  0  0  0  0  0  0  0
    2.3772    5.5872   -8.0165 H   0  0  0  0  0  0  0  0  0  0  0  0
    1.6646    5.4245   -6.3687 H   0  0  0  0  0  0  0  0  0  0  0  0
    3.4006    4.9987   -6.6519 H   0  0  0  0  0  0  0  0  0  0  0  0
   -6.7850    0.5759    5.4566 H   0  0  0  0  0  0  0  0  0  0  0  0
   -6.8717    1.7957    4.1503 H   0  0  0  0  0  0  0  0  0  0  0  0
   -5.1728    3.2189    5.3054 H   0  0  0  0  0  0  0  0  0  0  0  0
   -4.9875    1.9722    6.5969 H   0  0  0  0  0  0  0  0  0  0  0  0
   -6.5462    2.8462    6.4117 H   0  0  0  0  0  0  0  0  0  0  0  0
    0.8614    0.7383   -0.1934 H   0  0  0  0  0  0  0  0  0  0  0  0
    1.9999    1.3073   -1.3988 H   0  0  0  0  0  0  0  0  0  0  0  0
    2.3326   -0.7904   -2.3503 H   0  0  0  0  0  0  0  0  0  0  0  0
    1.7787   -1.3410   -0.7550 H   0  0  0  0  0  0  0  0  0  0  0  0
    0.6203   -1.3011   -2.1383 H   0  0  0  0  0  0  0  0  0  0  0  0
   -0.9744   -0.9287   -0.5429 H   0  0  0  0  0  0  0  0  0  0  0  0
   -2.1826   -1.4234    0.6364 H   0  0  0  0  0  0  0  0  0  0  0  0
    0.4224   -1.8690    1.1068 H   0  0  0  0  0  0  0  0  0  0  0  0
    0.3880   -0.1853    1.7621 H   0  0  0  0  0  0  0  0  0  0  0  0
   -0.6686   -1.4547    2.4466 H   0  0  0  0  0  0  0  0  0  0  0  0
   -4.7626   -0.5128    6.7420 H   0  0  0  0  0  0  0  0  0  0  0  0
   -3.6200   -6.1210    4.1424 H   0  0  0  0  0  0  0  0  0  0  0  0
   -3.5760   -5.4566    9.0740 H   0  0  0  0  0  0  0  0  0  0  0  0
  1  2  2  3
  2  3  1  0
  3  4  2  0
  3  5  1  0
  5  6  1  0
  6  7  1  0
  7  8  1  0
  7  9  2  0
  9 10  1  0
 10 11  1  0
 11 12  2  3
 12 13  1  0
 13 14  3  0
 12 15  1  0
 15 16  3  0
  1 17  1  0
 17 18  2  0
 18 19  1  0
 19 20  1  0
 18 21  1  0
 21 22  1  0
 22 23  1  0
 23 24  1  0
 24 25  1  0
 25 26  1  0
 26 27  2  0
 27 28  1  0
 28 29  1  0
 26 30  1  0
 30 31  1  0
 31 32  1  0
 32 33  1  0
 33 34  1  0
 34 35  1  0
 35 36  1  0
 34 37  2  0
 37 38  1  0
 38 39  1  0
 39 40  1  0
 40 41  1  0
 41 42  1  0
 42 43  1  0
 43 44  1  0
 44 45  1  0
 45 46  1  0
 46 47  1  0
 44 48  1  0
 48 49  1  0
 41 50  1  0
 50 51  1  0
 37 52  1  0
 52 53  2  3
 53 54  1  0
 54 55  2  0
 54 56  1  0
 56 57  2  0
 57 58  1  0
 58 59  1  0
 58 60  2  0
 60 61  1  0
 60 62  1  0
 62 63  2  0
 63 64  1  0
 64 65  2  3
 65 66  1  0
 66 67  3  0
 65 68  1  0
 68 69  3  0
 11  2  1  0
 47 17  1  0
 64 53  1  0
 10  5  2  0
 46 21  2  0
 63 56  1  0
 45 23  2  0
 43 24  2  0
 29 25  2  0
 42 30  2  0
 40 31  2  0
 39 33  2  0
  1 70  1  0
  8 71  1  0
  8 72  1  0
  8 73  1  0
  9 74  1  0
 19 75  1  0
 19 76  1  0
 20 77  1  0
 20 78  1  0
 20 79  1  0
 35 80  1  0
 35 81  1  0
 36 82  1  0
 36 83  1  0
 36 84  1  0
 48 85  1  0
 48 86  1  0
 49 87  1  0
 49 88  1  0
 49 89  1  0
 50 90  1  0
 50 91  1  0
 51 92  1  0
 51 93  1  0
 51 94  1  0
 52 95  1  0
 57 96  1  0
 62 97  1  0
M  END

