
     RDKit          3D

103115  0  0  0  0  0  0  0  0999 V2000
   -5.6142    4.7138   -0.5578 C   0  0  0  0  0  0  0  0  0  0  0  0
   -6.1136    3.6934    0.1693 C   0  0  0  0  0  0  0  0  0  0  0  0
   -5.3094    2.6788    0.8898 C   0  0  0  0  0  0  0  0  0  0  0  0
   -4.0528    2.5912    0.9531 O   0  0  0  0  0  0  0  0  0  0  0  0
   -6.2304    1.8828    1.6516 C   0  0  0  0  0  0  0  0  0  0  0  0
   -6.1158    0.5850    2.6988 S   0  0  0  0  0  0  0  0  0  0  0  0
   -7.7960    0.5484    2.9630 C   0  0  0  0  0  0  0  0  0  0  0  0
   -8.4892   -0.4703    3.8031 C   0  0  0  0  0  0  0  0  0  0  0  0
   -8.4341    1.5406    2.2092 C   0  0  0  0  0  0  0  0  0  0  0  0
   -7.5075    2.2988    1.4853 C   0  0  0  0  0  0  0  0  0  0  0  0
   -7.5576    3.4500    0.5514 C   0  0  0  0  0  0  0  0  0  0  0  0
   -8.6830    4.0702    0.1130 C   0  0  0  0  0  0  0  0  0  0  0  0
   -9.9894    3.7070    0.5956 C   0  0  0  0  0  0  0  0  0  0  0  0
  -11.0482    3.4261    0.9719 N   0  0  0  0  0  0  0  0  0  0  0  0
   -8.6779    5.1155   -0.8764 C   0  0  0  0  0  0  0  0  0  0  0  0
   -8.6928    5.9609   -1.6691 N   0  0  0  0  0  0  0  0  0  0  0  0
   -4.1962    4.8369   -0.9323 C   0  0  0  0  0  0  0  0  0  0  0  0
   -3.3902    5.9629   -0.6988 C   0  0  0  0  0  0  0  0  0  0  0  0
   -3.8537    7.2262   -0.0269 C   0  0  0  0  0  0  0  0  0  0  0  0
   -4.4329    8.1940   -1.0566 C   0  0  0  0  0  0  0  0  0  0  0  0
   -2.0924    5.7530   -1.1734 C   0  0  0  0  0  0  0  0  0  0  0  0
   -0.6256    6.5661   -0.8998 S   0  0  0  0  0  0  0  0  0  0  0  0
    0.2560    5.3219   -1.6492 C   0  0  0  0  0  0  0  0  0  0  0  0
    1.5088    4.8072   -1.4628 C   0  0  0  0  0  0  0  0  0  0  0  0
    2.5398    5.2754   -0.6338 C   0  0  0  0  0  0  0  0  0  0  0  0
    3.5713    4.3726   -0.2415 C   0  0  0  0  0  0  0  0  0  0  0  0
    4.5207    4.8445    0.6025 N   0  0  0  0  0  0  0  0  0  0  0  0
    3.9687    6.3936    0.7963 S   0  0  0  0  0  0  0  0  0  0  0  0
    2.5907    6.5263   -0.1140 N   0  0  0  0  0  0  0  0  0  0  0  0
    3.5424    3.0689   -0.7399 C   0  0  0  0  0  0  0  0  0  0  0  0
    4.3493    1.9944   -0.5245 C   0  0  0  0  0  0  0  0  0  0  0  0
    5.5952    1.5154    0.5224 S   0  0  0  0  0  0  0  0  0  0  0  0
    5.5088   -0.0814   -0.0798 C   0  0  0  0  0  0  0  0  0  0  0  0
    6.0610   -1.2896    0.3530 C   0  0  0  0  0  0  0  0  0  0  0  0
    7.0709   -1.4136    1.4628 C   0  0  0  0  0  0  0  0  0  0  0  0
    8.4703   -1.6293    0.9036 C   0  0  0  0  0  0  0  0  0  0  0  0
    5.4768   -2.3716   -0.3264 C   0  0  0  0  0  0  0  0  0  0  0  0
    4.3288   -1.8108   -1.4552 S   0  0  0  0  0  0  0  0  0  0  0  0
    4.5515   -0.2018   -1.0592 C   0  0  0  0  0  0  0  0  0  0  0  0
    3.8814    0.9869   -1.2988 C   0  0  0  0  0  0  0  0  0  0  0  0
    2.7863    1.3269   -2.0266 N   0  0  0  0  0  0  0  0  0  0  0  0
    2.5447    2.6136   -1.6128 C   0  0  0  0  0  0  0  0  0  0  0  0
    1.4439    3.4663   -1.8884 C   0  0  0  0  0  0  0  0  0  0  0  0
    0.1487    3.1266   -2.1952 N   0  0  0  0  0  0  0  0  0  0  0  0
   -0.5370    4.2900   -2.0521 C   0  0  0  0  0  0  0  0  0  0  0  0
   -1.8791    4.5387   -1.7735 C   0  0  0  0  0  0  0  0  0  0  0  0
   -3.2933    3.6377   -1.7422 S   0  0  0  0  0  0  0  0  0  0  0  0
   -0.4740    1.8000   -2.1077 C   0  0  0  0  0  0  0  0  0  0  0  0
   -0.6097    1.3457   -0.6563 C   0  0  0  0  0  0  0  0  0  0  0  0
    2.5397    0.8216   -3.3868 C   0  0  0  0  0  0  0  0  0  0  0  0
    1.9562   -0.5940   -3.3884 C   0  0  0  0  0  0  0  0  0  0  0  0
    5.7641   -3.7939   -0.0785 C   0  0  0  0  0  0  0  0  0  0  0  0
    4.8526   -4.6628    0.4015 C   0  0  0  0  0  0  0  0  0  0  0  0
    3.4461   -4.3611    0.6926 C   0  0  0  0  0  0  0  0  0  0  0  0
    2.9478   -3.2215    0.9008 O   0  0  0  0  0  0  0  0  0  0  0  0
    2.7224   -5.6134    0.7869 C   0  0  0  0  0  0  0  0  0  0  0  0
    1.3485   -5.7959    0.9188 C   0  0  0  0  0  0  0  0  0  0  0  0
    0.8411   -7.1056    0.9114 C   0  0  0  0  0  0  0  0  0  0  0  0
   -0.5352   -7.3342    1.0474 C   0  0  0  0  0  0  0  0  0  0  0  0
   -1.0307   -8.6392    1.0377 C   0  0  0  0  0  0  0  0  0  0  0  0
   -0.1621   -9.7228    0.8865 C   0  0  0  0  0  0  0  0  0  0  0  0
   -0.6547  -10.9835    0.8934 F   0  0  0  0  0  0  0  0  0  0  0  0
    1.2130   -9.5113    0.7311 C   0  0  0  0  0  0  0  0  0  0  0  0
    1.7287   -8.2081    0.7497 C   0  0  0  0  0  0  0  0  0  0  0  0
    3.1136   -7.9868    0.6018 C   0  0  0  0  0  0  0  0  0  0  0  0
    3.6042   -6.6735    0.6519 C   0  0  0  0  0  0  0  0  0  0  0  0
    4.9979   -6.1477    0.5274 C   0  0  0  0  0  0  0  0  0  0  0  0
    6.1475   -6.8396    0.7344 C   0  0  0  0  0  0  0  0  0  0  0  0
    7.4209   -6.1854    0.8952 C   0  0  0  0  0  0  0  0  0  0  0  0
    8.4478   -5.6705    1.0342 N   0  0  0  0  0  0  0  0  0  0  0  0
    6.1670   -8.2622    0.9630 C   0  0  0  0  0  0  0  0  0  0  0  0
    6.2014   -9.4048    1.1483 N   0  0  0  0  0  0  0  0  0  0  0  0
   -6.2386    5.5367   -0.8522 H   0  0  0  0  0  0  0  0  0  0  0  0
   -8.6737   -1.3855    3.2048 H   0  0  0  0  0  0  0  0  0  0  0  0
   -9.4580   -0.0731    4.1660 H   0  0  0  0  0  0  0  0  0  0  0  0
   -7.8600   -0.7260    4.6812 H   0  0  0  0  0  0  0  0  0  0  0  0
   -9.5031    1.6816    2.2056 H   0  0  0  0  0  0  0  0  0  0  0  0
   -3.0003    7.7117    0.4959 H   0  0  0  0  0  0  0  0  0  0  0  0
   -4.6327    6.9873    0.7309 H   0  0  0  0  0  0  0  0  0  0  0  0
   -4.7473    9.1349   -0.5525 H   0  0  0  0  0  0  0  0  0  0  0  0
   -5.3150    7.7392   -1.5576 H   0  0  0  0  0  0  0  0  0  0  0  0
   -3.6722    8.4402   -1.8299 H   0  0  0  0  0  0  0  0  0  0  0  0
    7.0693   -0.4956    2.0888 H   0  0  0  0  0  0  0  0  0  0  0  0
    6.8031   -2.2666    2.1175 H   0  0  0  0  0  0  0  0  0  0  0  0
    8.7364   -0.8197    0.1946 H   0  0  0  0  0  0  0  0  0  0  0  0
    8.5334   -2.5926    0.3659 H   0  0  0  0  0  0  0  0  0  0  0  0
    9.2113   -1.6363    1.7298 H   0  0  0  0  0  0  0  0  0  0  0  0
   -1.4715    1.8101   -2.5889 H   0  0  0  0  0  0  0  0  0  0  0  0
    0.0939    1.0576   -2.6669 H   0  0  0  0  0  0  0  0  0  0  0  0
    0.3923    1.2201   -0.1953 H   0  0  0  0  0  0  0  0  0  0  0  0
   -1.1491    0.3766   -0.6135 H   0  0  0  0  0  0  0  0  0  0  0  0
   -1.1843    2.0900   -0.0697 H   0  0  0  0  0  0  0  0  0  0  0  0
    3.4925    0.8237   -3.9571 H   0  0  0  0  0  0  0  0  0  0  0  0
    1.8669    1.5093   -3.9432 H   0  0  0  0  0  0  0  0  0  0  0  0
    1.5508   -0.8682   -2.3881 H   0  0  0  0  0  0  0  0  0  0  0  0
    1.1359   -0.6618   -4.1331 H   0  0  0  0  0  0  0  0  0  0  0  0
    2.7239   -1.3344   -3.6905 H   0  0  0  0  0  0  0  0  0  0  0  0
    6.7423   -4.1319   -0.3731 H   0  0  0  0  0  0  0  0  0  0  0  0
    0.6871   -4.9418    1.0125 H   0  0  0  0  0  0  0  0  0  0  0  0
   -1.2257   -6.5090    1.1743 H   0  0  0  0  0  0  0  0  0  0  0  0
   -2.0943   -8.8155    1.1591 H   0  0  0  0  0  0  0  0  0  0  0  0
    1.8694  -10.3669    0.6069 H   0  0  0  0  0  0  0  0  0  0  0  0
    3.7618   -8.8258    0.4157 H   0  0  0  0  0  0  0  0  0  0  0  0
  1  2  2  3
  2  3  1  0
  3  4  2  0
  3  5  1  0
  5  6  1  0
  6  7  1  0
  7  8  1  0
  7  9  2  0
  9 10  1  0
 10 11  1  0
 11 12  2  3
 12 13  1  0
 13 14  3  0
 12 15  1  0
 15 16  3  0
  1 17  1  0
 17 18  2  0
 18 19  1  0
 19 20  1  0
 18 21  1  0
 21 22  1  0
 22 23  1  0
 23 24  1  0
 24 25  1  0
 25 26  1  0
 26 27  2  0
 27 28  1  0
 28 29  1  0
 26 30  1  0
 30 31  1  0
 31 32  1  0
 32 33  1  0
 33 34  1  0
 34 35  1  0
 35 36  1  0
 34 37  2  0
 37 38  1  0
 38 39  1  0
 39 40  1  0
 40 41  1  0
 41 42  1  0
 42 43  1  0
 43 44  1  0
 44 45  1  0
 45 46  1  0
 46 47  1  0
 44 48  1  0
 48 49  1  0
 41 50  1  0
 50 51  1  0
 37 52  1  0
 52 53  2  3
 53 54  1  0
 54 55  2  0
 54 56  1  0
 56 57  2  0
 57 58  1  0
 58 59  2  0
 59 60  1  0
 60 61  2  0
 61 62  1  0
 61 63  1  0
 63 64  2  0
 64 65  1  0
 65 66  2  0
 66 67  1  0
 67 68  2  3
 68 69  1  0
 69 70  3  0
 68 71  1  0
 71 72  3  0
 11  2  1  0
 47 17  1  0
 67 53  1  0
 10  5  2  0
 46 21  2  0
 66 56  1  0
 45 23  2  0
 64 58  1  0
 43 24  2  0
 29 25  2  0
 42 30  2  0
 40 31  2  0
 39 33  2  0
  1 73  1  0
  8 74  1  0
  8 75  1  0
  8 76  1  0
  9 77  1  0
 19 78  1  0
 19 79  1  0
 20 80  1  0
 20 81  1  0
 20 82  1  0
 35 83  1  0
 35 84  1  0
 36 85  1  0
 36 86  1  0
 36 87  1  0
 48 88  1  0
 48 89  1  0
 49 90  1  0
 49 91  1  0
 49 92  1  0
 50 93  1  0
 50 94  1  0
 51 95  1  0
 51 96  1  0
 51 97  1  0
 52 98  1  0
 57 99  1  0
 59100  1  0
 60101  1  0
 63102  1  0
 65103  1  0
M  END

