
     RDKit          3D

117130  0  0  0  0  0  0  0  0999 V2000
   -4.8677   -5.8269    1.1139 C   0  0  0  0  0  0  0  0  0  0  0  0
   -5.9562   -5.1761    1.5674 C   0  0  0  0  0  0  0  0  0  0  0  0
   -7.1164   -5.8783    2.1175 C   0  0  0  0  0  0  0  0  0  0  0  0
   -7.3891   -7.0997    1.9600 O   0  0  0  0  0  0  0  0  0  0  0  0
   -7.8452   -4.9550    2.9634 C   0  0  0  0  0  0  0  0  0  0  0  0
   -8.9401   -5.2111    3.7876 C   0  0  0  0  0  0  0  0  0  0  0  0
   -9.4270   -4.1711    4.5928 C   0  0  0  0  0  0  0  0  0  0  0  0
  -10.8076   -4.4453    5.6368 Cl  0  0  0  0  0  0  0  0  0  0  0  0
   -8.7966   -2.9136    4.5802 C   0  0  0  0  0  0  0  0  0  0  0  0
   -7.6933   -2.6765    3.7435 C   0  0  0  0  0  0  0  0  0  0  0  0
   -7.2400   -3.7113    2.9120 C   0  0  0  0  0  0  0  0  0  0  0  0
   -6.1346   -3.7355    1.9178 C   0  0  0  0  0  0  0  0  0  0  0  0
   -5.7626   -2.6851    1.1444 C   0  0  0  0  0  0  0  0  0  0  0  0
   -5.1242   -2.8768   -0.1346 C   0  0  0  0  0  0  0  0  0  0  0  0
   -4.6188   -3.0183   -1.1634 N   0  0  0  0  0  0  0  0  0  0  0  0
   -6.1120   -1.3255    1.4640 C   0  0  0  0  0  0  0  0  0  0  0  0
   -6.3880   -0.2272    1.7083 N   0  0  0  0  0  0  0  0  0  0  0  0
   -3.5013   -5.2633    1.0175 C   0  0  0  0  0  0  0  0  0  0  0  0
   -2.4790   -5.7752    0.1895 C   0  0  0  0  0  0  0  0  0  0  0  0
   -2.6424   -6.9047   -0.7473 C   0  0  0  0  0  0  0  0  0  0  0  0
   -2.7169   -8.2015   -0.2114 C   0  0  0  0  0  0  0  0  0  0  0  0
   -2.8945   -9.3060   -1.0442 C   0  0  0  0  0  0  0  0  0  0  0  0
   -3.0201   -9.1259   -2.4221 C   0  0  0  0  0  0  0  0  0  0  0  0
   -2.9557   -7.8447   -2.9721 C   0  0  0  0  0  0  0  0  0  0  0  0
   -2.7484   -6.7185   -2.1530 C   0  0  0  0  0  0  0  0  0  0  0  0
   -2.7163   -5.3494   -2.7969 C   0  0  0  0  0  0  0  0  0  0  0  0
   -1.5642   -5.2172   -3.7925 C   0  0  0  0  0  0  0  0  0  0  0  0
   -1.2938   -5.0614    0.3492 C   0  0  0  0  0  0  0  0  0  0  0  0
    0.2248   -5.0974   -0.4358 S   0  0  0  0  0  0  0  0  0  0  0  0
    0.7308   -3.7352    0.4435 C   0  0  0  0  0  0  0  0  0  0  0  0
    1.7982   -2.8879    0.5526 C   0  0  0  0  0  0  0  0  0  0  0  0
    3.0751   -2.8988   -0.0103 C   0  0  0  0  0  0  0  0  0  0  0  0
    3.9757   -1.8430    0.3230 C   0  0  0  0  0  0  0  0  0  0  0  0
    5.1968   -1.8730   -0.2655 N   0  0  0  0  0  0  0  0  0  0  0  0
    5.0498   -3.2688   -1.1465 S   0  0  0  0  0  0  0  0  0  0  0  0
    3.5256   -3.8520   -0.8625 N   0  0  0  0  0  0  0  0  0  0  0  0
    3.5279   -0.8075    1.1610 C   0  0  0  0  0  0  0  0  0  0  0  0
    4.0133    0.4621    1.3097 C   0  0  0  0  0  0  0  0  0  0  0  0
    5.1554    1.3751    0.4410 S   0  0  0  0  0  0  0  0  0  0  0  0
    4.3110    2.8157    0.7540 C   0  0  0  0  0  0  0  0  0  0  0  0
    4.4105    4.1004    0.2191 C   0  0  0  0  0  0  0  0  0  0  0  0
    5.4944    4.5326   -0.6819 C   0  0  0  0  0  0  0  0  0  0  0  0
    5.2934    4.7093   -2.0761 C   0  0  0  0  0  0  0  0  0  0  0  0
    3.9822    4.3741   -2.7537 C   0  0  0  0  0  0  0  0  0  0  0  0
    3.8871    2.8833   -3.0614 C   0  0  0  0  0  0  0  0  0  0  0  0
    6.3797    5.1158   -2.8727 C   0  0  0  0  0  0  0  0  0  0  0  0
    7.6318    5.3571   -2.3043 C   0  0  0  0  0  0  0  0  0  0  0  0
    7.8221    5.1830   -0.9351 C   0  0  0  0  0  0  0  0  0  0  0  0
    6.7614    4.7683   -0.1273 C   0  0  0  0  0  0  0  0  0  0  0  0
    3.2954    4.8819    0.5610 C   0  0  0  0  0  0  0  0  0  0  0  0
    2.2325    3.9652    1.5256 S   0  0  0  0  0  0  0  0  0  0  0  0
    3.1712    2.5760    1.4752 C   0  0  0  0  0  0  0  0  0  0  0  0
    2.9809    1.2295    1.7754 C   0  0  0  0  0  0  0  0  0  0  0  0
    1.8354    0.5152    1.9460 N   0  0  0  0  0  0  0  0  0  0  0  0
    2.2146   -0.7707    1.6573 C   0  0  0  0  0  0  0  0  0  0  0  0
    1.3840   -1.8923    1.4462 C   0  0  0  0  0  0  0  0  0  0  0  0
    0.1583   -2.1778    1.9812 N   0  0  0  0  0  0  0  0  0  0  0  0
   -0.2171   -3.2832    1.2978 C   0  0  0  0  0  0  0  0  0  0  0  0
   -1.3646   -4.0481    1.2671 C   0  0  0  0  0  0  0  0  0  0  0  0
   -2.8839   -3.9740    1.9597 S   0  0  0  0  0  0  0  0  0  0  0  0
   -0.3181   -1.8303    3.3284 C   0  0  0  0  0  0  0  0  0  0  0  0
   -0.0392   -2.9601    4.3199 C   0  0  0  0  0  0  0  0  0  0  0  0
    0.4892    1.0834    1.7418 C   0  0  0  0  0  0  0  0  0  0  0  0
    0.1996    1.2788    0.2510 C   0  0  0  0  0  0  0  0  0  0  0  0
    3.0995    6.2877    0.1712 C   0  0  0  0  0  0  0  0  0  0  0  0
    1.9759    6.7727   -0.3951 C   0  0  0  0  0  0  0  0  0  0  0  0
    0.7272    6.0361   -0.6445 C   0  0  0  0  0  0  0  0  0  0  0  0
    0.5977    4.7888   -0.7620 O   0  0  0  0  0  0  0  0  0  0  0  0
   -0.3282    7.0030   -0.8582 C   0  0  0  0  0  0  0  0  0  0  0  0
   -1.6942    6.7689   -0.9964 C   0  0  0  0  0  0  0  0  0  0  0  0
   -2.5548    7.8680   -1.1361 C   0  0  0  0  0  0  0  0  0  0  0  0
   -4.2826    7.5742   -1.2985 Cl  0  0  0  0  0  0  0  0  0  0  0  0
   -2.0315    9.1813   -1.1181 C   0  0  0  0  0  0  0  0  0  0  0  0
   -3.0918   10.5765   -1.2549 Cl  0  0  0  0  0  0  0  0  0  0  0  0
   -0.6479    9.3907   -0.9713 C   0  0  0  0  0  0  0  0  0  0  0  0
    0.2051    8.2801   -0.8670 C   0  0  0  0  0  0  0  0  0  0  0  0
    1.6865    8.2041   -0.7201 C   0  0  0  0  0  0  0  0  0  0  0  0
    2.5856    9.1526   -1.0974 C   0  0  0  0  0  0  0  0  0  0  0  0
    2.1866   10.4622   -1.5474 C   0  0  0  0  0  0  0  0  0  0  0  0
    1.8803   11.5181   -1.9116 N   0  0  0  0  0  0  0  0  0  0  0  0
    3.9928    8.8696   -1.2282 C   0  0  0  0  0  0  0  0  0  0  0  0
    5.1229    8.6477   -1.3416 N   0  0  0  0  0  0  0  0  0  0  0  0
   -4.9660   -6.8858    0.9068 H   0  0  0  0  0  0  0  0  0  0  0  0
   -9.3988   -6.1889    3.8062 H   0  0  0  0  0  0  0  0  0  0  0  0
   -9.1612   -2.1232    5.2243 H   0  0  0  0  0  0  0  0  0  0  0  0
   -7.1996   -1.7177    3.7816 H   0  0  0  0  0  0  0  0  0  0  0  0
   -2.6317   -8.3581    0.8570 H   0  0  0  0  0  0  0  0  0  0  0  0
   -2.9401  -10.3031   -0.6239 H   0  0  0  0  0  0  0  0  0  0  0  0
   -3.1728   -9.9839   -3.0632 H   0  0  0  0  0  0  0  0  0  0  0  0
   -3.0782   -7.7323   -4.0442 H   0  0  0  0  0  0  0  0  0  0  0  0
   -3.6757   -5.1799   -3.3252 H   0  0  0  0  0  0  0  0  0  0  0  0
   -2.6171   -4.5429   -2.0469 H   0  0  0  0  0  0  0  0  0  0  0  0
   -0.5996   -5.5039   -3.3238 H   0  0  0  0  0  0  0  0  0  0  0  0
   -1.7418   -5.8528   -4.6888 H   0  0  0  0  0  0  0  0  0  0  0  0
   -1.4918   -4.1635   -4.1360 H   0  0  0  0  0  0  0  0  0  0  0  0
    3.8867    4.9451   -3.7013 H   0  0  0  0  0  0  0  0  0  0  0  0
    3.1203    4.6715   -2.1276 H   0  0  0  0  0  0  0  0  0  0  0  0
    4.7798    2.5469   -3.6298 H   0  0  0  0  0  0  0  0  0  0  0  0
    3.8058    2.3062   -2.1189 H   0  0  0  0  0  0  0  0  0  0  0  0
    2.9822    2.6880   -3.6721 H   0  0  0  0  0  0  0  0  0  0  0  0
    6.2572    5.2329   -3.9402 H   0  0  0  0  0  0  0  0  0  0  0  0
    8.4574    5.6751   -2.9288 H   0  0  0  0  0  0  0  0  0  0  0  0
    8.7974    5.3603   -0.5000 H   0  0  0  0  0  0  0  0  0  0  0  0
    6.9298    4.6315    0.9360 H   0  0  0  0  0  0  0  0  0  0  0  0
   -1.4080   -1.6184    3.2980 H   0  0  0  0  0  0  0  0  0  0  0  0
    0.2138   -0.9397    3.7155 H   0  0  0  0  0  0  0  0  0  0  0  0
    1.0422   -3.2122    4.3136 H   0  0  0  0  0  0  0  0  0  0  0  0
   -0.6244   -3.8683    4.0621 H   0  0  0  0  0  0  0  0  0  0  0  0
   -0.3258   -2.6371    5.3428 H   0  0  0  0  0  0  0  0  0  0  0  0
   -0.3017    0.4355    2.1482 H   0  0  0  0  0  0  0  0  0  0  0  0
    0.3984    2.0485    2.2802 H   0  0  0  0  0  0  0  0  0  0  0  0
    0.1506    0.2913   -0.2552 H   0  0  0  0  0  0  0  0  0  0  0  0
    0.9889    1.8908   -0.2341 H   0  0  0  0  0  0  0  0  0  0  0  0
   -0.7786    1.7893    0.1200 H   0  0  0  0  0  0  0  0  0  0  0  0
    3.9334    6.9410    0.3679 H   0  0  0  0  0  0  0  0  0  0  0  0
   -2.0813    5.7587   -0.9817 H   0  0  0  0  0  0  0  0  0  0  0  0
   -0.2770   10.4014   -0.9080 H   0  0  0  0  0  0  0  0  0  0  0  0
  1  2  2  3
  2  3  1  0
  3  4  2  0
  3  5  1  0
  5  6  2  0
  6  7  1  0
  7  8  1  0
  7  9  2  0
  9 10  1  0
 10 11  2  0
 11 12  1  0
 12 13  2  3
 13 14  1  0
 14 15  3  0
 13 16  1  0
 16 17  3  0
  1 18  1  0
 18 19  2  0
 19 20  1  0
 20 21  2  0
 21 22  1  0
 22 23  2  0
 23 24  1  0
 24 25  2  0
 25 26  1  0
 26 27  1  0
 19 28  1  0
 28 29  1  0
 29 30  1  0
 30 31  1  0
 31 32  1  0
 32 33  1  0
 33 34  2  0
 34 35  1  0
 35 36  1  0
 33 37  1  0
 37 38  1  0
 38 39  1  0
 39 40  1  0
 40 41  1  0
 41 42  1  0
 42 43  2  0
 43 44  1  0
 44 45  1  0
 43 46  1  0
 46 47  2  0
 47 48  1  0
 48 49  2  0
 41 50  2  0
 50 51  1  0
 51 52  1  0
 52 53  1  0
 53 54  1  0
 54 55  1  0
 55 56  1  0
 56 57  1  0
 57 58  1  0
 58 59  1  0
 59 60  1  0
 57 61  1  0
 61 62  1  0
 54 63  1  0
 63 64  1  0
 50 65  1  0
 65 66  2  3
 66 67  1  0
 67 68  2  0
 67 69  1  0
 69 70  2  0
 70 71  1  0
 71 72  1  0
 71 73  2  0
 73 74  1  0
 73 75  1  0
 75 76  2  0
 76 77  1  0
 77 78  2  3
 78 79  1  0
 79 80  3  0
 78 81  1  0
 81 82  3  0
 12  2  1  0
 60 18  1  0
 77 66  1  0
 11  5  1  0
 25 20  1  0
 59 28  2  0
 76 69  1  0
 58 30  2  0
 56 31  2  0
 36 32  2  0
 55 37  2  0
 53 38  2  0
 52 40  2  0
 49 42  1  0
  1 83  1  0
  6 84  1  0
  9 85  1  0
 10 86  1  0
 21 87  1  0
 22 88  1  0
 23 89  1  0
 24 90  1  0
 26 91  1  0
 26 92  1  0
 27 93  1  0
 27 94  1  0
 27 95  1  0
 44 96  1  0
 44 97  1  0
 45 98  1  0
 45 99  1  0
 45100  1  0
 46101  1  0
 47102  1  0
 48103  1  0
 49104  1  0
 61105  1  0
 61106  1  0
 62107  1  0
 62108  1  0
 62109  1  0
 63110  1  0
 63111  1  0
 64112  1  0
 64113  1  0
 64114  1  0
 65115  1  0
 70116  1  0
 75117  1  0
M  END

