
     RDKit          3D

123137  0  0  0  0  0  0  0  0999 V2000
   -0.8231   -6.4252   -2.2677 C   0  0  0  0  0  0  0  0  0  0  0  0
   -1.9931   -6.2141   -1.6365 C   0  0  0  0  0  0  0  0  0  0  0  0
   -2.5054   -4.9078   -1.1979 C   0  0  0  0  0  0  0  0  0  0  0  0
   -2.0801   -3.7747   -1.5468 O   0  0  0  0  0  0  0  0  0  0  0  0
   -3.5707   -5.1345   -0.2468 C   0  0  0  0  0  0  0  0  0  0  0  0
   -4.2671   -4.1879    0.5049 C   0  0  0  0  0  0  0  0  0  0  0  0
   -5.1987   -4.6395    1.4505 C   0  0  0  0  0  0  0  0  0  0  0  0
   -6.0923   -3.4824    2.4211 Cl  0  0  0  0  0  0  0  0  0  0  0  0
   -5.3990   -6.0194    1.6409 C   0  0  0  0  0  0  0  0  0  0  0  0
   -4.6877   -6.9551    0.8725 C   0  0  0  0  0  0  0  0  0  0  0  0
   -3.7832   -6.4946   -0.1005 C   0  0  0  0  0  0  0  0  0  0  0  0
   -2.9005   -7.2433   -1.0413 C   0  0  0  0  0  0  0  0  0  0  0  0
   -3.0560   -8.5277   -1.4533 C   0  0  0  0  0  0  0  0  0  0  0  0
   -4.0524   -9.4050   -0.8959 C   0  0  0  0  0  0  0  0  0  0  0  0
   -4.8502  -10.1191   -0.4553 N   0  0  0  0  0  0  0  0  0  0  0  0
   -2.3347   -9.0678   -2.5775 C   0  0  0  0  0  0  0  0  0  0  0  0
   -1.7636   -9.5076   -3.4837 N   0  0  0  0  0  0  0  0  0  0  0  0
    0.0408   -5.3252   -2.7102 C   0  0  0  0  0  0  0  0  0  0  0  0
    0.0028   -4.7222   -3.9743 C   0  0  0  0  0  0  0  0  0  0  0  0
   -0.8884   -5.1397   -5.0724 C   0  0  0  0  0  0  0  0  0  0  0  0
   -2.2483   -4.8005   -5.0056 C   0  0  0  0  0  0  0  0  0  0  0  0
   -3.1235   -5.1823   -6.0223 C   0  0  0  0  0  0  0  0  0  0  0  0
   -2.6503   -5.9066   -7.1161 C   0  0  0  0  0  0  0  0  0  0  0  0
   -1.2998   -6.2512   -7.1974 C   0  0  0  0  0  0  0  0  0  0  0  0
   -0.4016   -5.8654   -6.1866 C   0  0  0  0  0  0  0  0  0  0  0  0
    1.0415   -6.3065   -6.2860 C   0  0  0  0  0  0  0  0  0  0  0  0
    1.2358   -7.6683   -5.6275 C   0  0  0  0  0  0  0  0  0  0  0  0
    0.7718   -3.5594   -3.9955 C   0  0  0  0  0  0  0  0  0  0  0  0
    0.7678   -2.2307   -5.0516 S   0  0  0  0  0  0  0  0  0  0  0  0
    1.6681   -1.2950   -3.9571 C   0  0  0  0  0  0  0  0  0  0  0  0
    1.6865    0.0432   -3.6710 C   0  0  0  0  0  0  0  0  0  0  0  0
    1.0650    1.1016   -4.3535 C   0  0  0  0  0  0  0  0  0  0  0  0
    0.8467    2.3319   -3.6681 C   0  0  0  0  0  0  0  0  0  0  0  0
    0.1908    3.3091   -4.3412 N   0  0  0  0  0  0  0  0  0  0  0  0
   -0.0762    2.5247   -5.7747 S   0  0  0  0  0  0  0  0  0  0  0  0
    0.5797    1.0120   -5.6164 N   0  0  0  0  0  0  0  0  0  0  0  0
    1.3045    2.4525   -2.3549 C   0  0  0  0  0  0  0  0  0  0  0  0
    1.2272    3.4752   -1.4536 C   0  0  0  0  0  0  0  0  0  0  0  0
    0.5192    5.0093   -1.2773 S   0  0  0  0  0  0  0  0  0  0  0  0
    1.1139    5.1133    0.3261 C   0  0  0  0  0  0  0  0  0  0  0  0
    0.8692    5.9920    1.3821 C   0  0  0  0  0  0  0  0  0  0  0  0
   -0.0368    7.1517    1.2752 C   0  0  0  0  0  0  0  0  0  0  0  0
   -1.4476    6.9996    1.2305 C   0  0  0  0  0  0  0  0  0  0  0  0
   -2.1213    5.6477    1.3450 C   0  0  0  0  0  0  0  0  0  0  0  0
   -2.3826    5.2862    2.8043 C   0  0  0  0  0  0  0  0  0  0  0  0
   -2.2553    8.1491    1.1638 C   0  0  0  0  0  0  0  0  0  0  0  0
   -1.6822    9.4212    1.1328 C   0  0  0  0  0  0  0  0  0  0  0  0
   -0.2956    9.5659    1.1799 C   0  0  0  0  0  0  0  0  0  0  0  0
    0.5233    8.4378    1.2561 C   0  0  0  0  0  0  0  0  0  0  0  0
    1.4617    5.5447    2.5866 C   0  0  0  0  0  0  0  0  0  0  0  0
    2.2092    4.0329    2.2946 S   0  0  0  0  0  0  0  0  0  0  0  0
    1.8371    4.0044    0.6685 C   0  0  0  0  0  0  0  0  0  0  0  0
    1.8825    3.0686   -0.3445 C   0  0  0  0  0  0  0  0  0  0  0  0
    2.4116    1.8284   -0.4559 N   0  0  0  0  0  0  0  0  0  0  0  0
    1.9807    1.4160   -1.6904 C   0  0  0  0  0  0  0  0  0  0  0  0
    2.0730    0.1450   -2.3204 C   0  0  0  0  0  0  0  0  0  0  0  0
    2.1648   -1.1051   -1.7547 N   0  0  0  0  0  0  0  0  0  0  0  0
    1.9222   -1.9554   -2.7884 C   0  0  0  0  0  0  0  0  0  0  0  0
    1.4023   -3.2518   -2.8142 C   0  0  0  0  0  0  0  0  0  0  0  0
    1.0138   -4.4077   -1.6588 S   0  0  0  0  0  0  0  0  0  0  0  0
    2.0379   -1.4754   -0.3358 C   0  0  0  0  0  0  0  0  0  0  0  0
    3.2389   -2.3078    0.1214 C   0  0  0  0  0  0  0  0  0  0  0  0
    3.6084    1.3838    0.2681 C   0  0  0  0  0  0  0  0  0  0  0  0
    4.7988    2.3008   -0.0193 C   0  0  0  0  0  0  0  0  0  0  0  0
    1.2104    6.1881    3.9037 C   0  0  0  0  0  0  0  0  0  0  0  0
    1.5992    5.7582    5.1231 C   0  0  0  0  0  0  0  0  0  0  0  0
    2.4111    4.5784    5.4469 C   0  0  0  0  0  0  0  0  0  0  0  0
    3.4543    4.2035    4.8524 O   0  0  0  0  0  0  0  0  0  0  0  0
    1.9533    4.0542    6.7168 C   0  0  0  0  0  0  0  0  0  0  0  0
    2.2629    2.8291    7.3043 C   0  0  0  0  0  0  0  0  0  0  0  0
    1.5634    2.4435    8.4608 C   0  0  0  0  0  0  0  0  0  0  0  0
    1.8095    1.1994    9.0605 C   0  0  0  0  0  0  0  0  0  0  0  0
    1.0703    0.7966   10.1752 C   0  0  0  0  0  0  0  0  0  0  0  0
    1.3055   -0.4140   10.7386 F   0  0  0  0  0  0  0  0  0  0  0  0
    0.0835    1.6351   10.7074 C   0  0  0  0  0  0  0  0  0  0  0  0
   -0.6441    1.2303   11.7745 F   0  0  0  0  0  0  0  0  0  0  0  0
   -0.1706    2.8792   10.1237 C   0  0  0  0  0  0  0  0  0  0  0  0
    0.5648    3.3004    9.0065 C   0  0  0  0  0  0  0  0  0  0  0  0
    0.2980    4.5457    8.4024 C   0  0  0  0  0  0  0  0  0  0  0  0
    1.0229    4.9176    7.2620 C   0  0  0  0  0  0  0  0  0  0  0  0
    0.8898    6.1096    6.3869 C   0  0  0  0  0  0  0  0  0  0  0  0
    0.4493    7.3395    6.7496 C   0  0  0  0  0  0  0  0  0  0  0  0
   -0.0816    7.6119    8.0604 C   0  0  0  0  0  0  0  0  0  0  0  0
   -0.5078    7.8425    9.1132 N   0  0  0  0  0  0  0  0  0  0  0  0
    0.6362    8.4916    5.9030 C   0  0  0  0  0  0  0  0  0  0  0  0
    0.7904    9.4163    5.2243 N   0  0  0  0  0  0  0  0  0  0  0  0
   -0.4403   -7.4220   -2.4109 H   0  0  0  0  0  0  0  0  0  0  0  0
   -4.0814   -3.1295    0.3711 H   0  0  0  0  0  0  0  0  0  0  0  0
   -6.0965   -6.3645    2.3941 H   0  0  0  0  0  0  0  0  0  0  0  0
   -4.8292   -8.0020    1.0800 H   0  0  0  0  0  0  0  0  0  0  0  0
   -2.6312   -4.2360   -4.1659 H   0  0  0  0  0  0  0  0  0  0  0  0
   -4.1704   -4.9141   -5.9628 H   0  0  0  0  0  0  0  0  0  0  0  0
   -3.3302   -6.2046   -7.9034 H   0  0  0  0  0  0  0  0  0  0  0  0
   -0.9528   -6.8257   -8.0482 H   0  0  0  0  0  0  0  0  0  0  0  0
    1.3443   -6.3757   -7.3527 H   0  0  0  0  0  0  0  0  0  0  0  0
    1.7194   -5.5648   -5.8136 H   0  0  0  0  0  0  0  0  0  0  0  0
    2.2936   -7.9861   -5.7354 H   0  0  0  0  0  0  0  0  0  0  0  0
    0.9896   -7.6140   -4.5461 H   0  0  0  0  0  0  0  0  0  0  0  0
    0.5841   -8.4262   -6.1112 H   0  0  0  0  0  0  0  0  0  0  0  0
   -3.0906    5.6597    0.7975 H   0  0  0  0  0  0  0  0  0  0  0  0
   -1.5101    4.8505    0.8781 H   0  0  0  0  0  0  0  0  0  0  0  0
   -1.4355    5.2923    3.3799 H   0  0  0  0  0  0  0  0  0  0  0  0
   -3.0908    6.0089    3.2602 H   0  0  0  0  0  0  0  0  0  0  0  0
   -2.8163    4.2684    2.8601 H   0  0  0  0  0  0  0  0  0  0  0  0
   -3.3341    8.0577    1.1467 H   0  0  0  0  0  0  0  0  0  0  0  0
   -2.3164   10.2966    1.0806 H   0  0  0  0  0  0  0  0  0  0  0  0
    0.1466   10.5534    1.1619 H   0  0  0  0  0  0  0  0  0  0  0  0
    1.5971    8.5671    1.3030 H   0  0  0  0  0  0  0  0  0  0  0  0
    1.1033   -2.0511   -0.1816 H   0  0  0  0  0  0  0  0  0  0  0  0
    1.9160   -0.5874    0.3094 H   0  0  0  0  0  0  0  0  0  0  0  0
    3.2385   -3.2989   -0.3697 H   0  0  0  0  0  0  0  0  0  0  0  0
    4.1974   -1.8108   -0.1332 H   0  0  0  0  0  0  0  0  0  0  0  0
    3.1943   -2.4581    1.2201 H   0  0  0  0  0  0  0  0  0  0  0  0
    3.4029    1.3583    1.3596 H   0  0  0  0  0  0  0  0  0  0  0  0
    3.9119    0.3812   -0.0676 H   0  0  0  0  0  0  0  0  0  0  0  0
    4.9866    2.3512   -1.1142 H   0  0  0  0  0  0  0  0  0  0  0  0
    5.7039    1.9003    0.4832 H   0  0  0  0  0  0  0  0  0  0  0  0
    4.6072    3.3223    0.3690 H   0  0  0  0  0  0  0  0  0  0  0  0
    0.4915    6.9910    3.8728 H   0  0  0  0  0  0  0  0  0  0  0  0
    2.9956    2.1747    6.8457 H   0  0  0  0  0  0  0  0  0  0  0  0
    2.5627    0.5330    8.6566 H   0  0  0  0  0  0  0  0  0  0  0  0
   -0.9458    3.5091   10.5407 H   0  0  0  0  0  0  0  0  0  0  0  0
   -0.4954    5.1702    8.7891 H   0  0  0  0  0  0  0  0  0  0  0  0
  1  2  2  3
  2  3  1  0
  3  4  2  0
  3  5  1  0
  5  6  2  0
  6  7  1  0
  7  8  1  0
  7  9  2  0
  9 10  1  0
 10 11  2  0
 11 12  1  0
 12 13  2  3
 13 14  1  0
 14 15  3  0
 13 16  1  0
 16 17  3  0
  1 18  1  0
 18 19  2  0
 19 20  1  0
 20 21  2  0
 21 22  1  0
 22 23  2  0
 23 24  1  0
 24 25  2  0
 25 26  1  0
 26 27  1  0
 19 28  1  0
 28 29  1  0
 29 30  1  0
 30 31  1  0
 31 32  1  0
 32 33  1  0
 33 34  2  0
 34 35  1  0
 35 36  1  0
 33 37  1  0
 37 38  1  0
 38 39  1  0
 39 40  1  0
 40 41  1  0
 41 42  1  0
 42 43  2  0
 43 44  1  0
 44 45  1  0
 43 46  1  0
 46 47  2  0
 47 48  1  0
 48 49  2  0
 41 50  2  0
 50 51  1  0
 51 52  1  0
 52 53  1  0
 53 54  1  0
 54 55  1  0
 55 56  1  0
 56 57  1  0
 57 58  1  0
 58 59  1  0
 59 60  1  0
 57 61  1  0
 61 62  1  0
 54 63  1  0
 63 64  1  0
 50 65  1  0
 65 66  2  3
 66 67  1  0
 67 68  2  0
 67 69  1  0
 69 70  2  0
 70 71  1  0
 71 72  2  0
 72 73  1  0
 73 74  1  0
 73 75  2  0
 75 76  1  0
 75 77  1  0
 77 78  2  0
 78 79  1  0
 79 80  2  0
 80 81  1  0
 81 82  2  3
 82 83  1  0
 83 84  3  0
 82 85  1  0
 85 86  3  0
 12  2  1  0
 60 18  1  0
 81 66  1  0
 11  5  1  0
 25 20  1  0
 59 28  2  0
 80 69  1  0
 58 30  2  0
 78 71  1  0
 56 31  2  0
 36 32  2  0
 55 37  2  0
 53 38  2  0
 52 40  2  0
 49 42  1  0
  1 87  1  0
  6 88  1  0
  9 89  1  0
 10 90  1  0
 21 91  1  0
 22 92  1  0
 23 93  1  0
 24 94  1  0
 26 95  1  0
 26 96  1  0
 27 97  1  0
 27 98  1  0
 27 99  1  0
 44100  1  0
 44101  1  0
 45102  1  0
 45103  1  0
 45104  1  0
 46105  1  0
 47106  1  0
 48107  1  0
 49108  1  0
 61109  1  0
 61110  1  0
 62111  1  0
 62112  1  0
 62113  1  0
 63114  1  0
 63115  1  0
 64116  1  0
 64117  1  0
 64118  1  0
 65119  1  0
 70120  1  0
 72121  1  0
 77122  1  0
 79123  1  0
M  END

