
     RDKit          3D

104118  0  0  0  0  0  0  0  0999 V2000
   -2.3535    4.0958    6.3987 C   0  0  0  0  0  0  0  0  0  0  0  0
   -1.0108    4.2911    6.2601 C   0  0  0  0  0  0  0  0  0  0  0  0
   -0.1226    3.8318    5.1801 C   0  0  0  0  0  0  0  0  0  0  0  0
   -0.4027    3.0371    4.2452 O   0  0  0  0  0  0  0  0  0  0  0  0
    1.0792    4.6351    5.1771 C   0  0  0  0  0  0  0  0  0  0  0  0
    2.0025    4.7347    4.1392 C   0  0  0  0  0  0  0  0  0  0  0  0
    2.9048    5.8141    4.1557 C   0  0  0  0  0  0  0  0  0  0  0  0
    4.0634    6.0058    2.8536 Cl  0  0  0  0  0  0  0  0  0  0  0  0
    2.8409    6.7763    5.1863 C   0  0  0  0  0  0  0  0  0  0  0  0
    1.8780    6.6731    6.1967 C   0  0  0  0  0  0  0  0  0  0  0  0
    1.0168    5.5498    6.2005 C   0  0  0  0  0  0  0  0  0  0  0  0
   -0.1980    5.3035    7.0207 C   0  0  0  0  0  0  0  0  0  0  0  0
   -0.3748    5.7315    8.2997 C   0  0  0  0  0  0  0  0  0  0  0  0
   -1.5560    5.4185    9.0701 C   0  0  0  0  0  0  0  0  0  0  0  0
   -2.5096    5.1799    9.6910 N   0  0  0  0  0  0  0  0  0  0  0  0
    0.6774    6.4074    9.0188 C   0  0  0  0  0  0  0  0  0  0  0  0
    1.5294    6.9209    9.6093 N   0  0  0  0  0  0  0  0  0  0  0  0
   -3.2245    3.3790    5.4365 C   0  0  0  0  0  0  0  0  0  0  0  0
   -4.3415    3.9680    4.8150 C   0  0  0  0  0  0  0  0  0  0  0  0
   -4.8914    5.3297    5.1603 C   0  0  0  0  0  0  0  0  0  0  0  0
   -5.8525    5.2351    6.3359 C   0  0  0  0  0  0  0  0  0  0  0  0
   -4.8340    3.1672    3.7880 C   0  0  0  0  0  0  0  0  0  0  0  0
   -4.1369    2.0031    3.5651 C   0  0  0  0  0  0  0  0  0  0  0  0
   -2.9067    1.8793    4.7051 S   0  0  0  0  0  0  0  0  0  0  0  0
   -4.3833    1.4447    2.2950 C   0  0  0  0  0  0  0  0  0  0  0  0
   -5.3402    2.1679    1.6187 C   0  0  0  0  0  0  0  0  0  0  0  0
   -5.8381    3.5464    2.4742 S   0  0  0  0  0  0  0  0  0  0  0  0
   -5.1191    1.9753    0.2878 C   0  0  0  0  0  0  0  0  0  0  0  0
   -5.5149    2.7644   -0.8025 C   0  0  0  0  0  0  0  0  0  0  0  0
   -6.4478    3.7464   -0.7293 N   0  0  0  0  0  0  0  0  0  0  0  0
   -6.4139    4.2771   -2.2998 S   0  0  0  0  0  0  0  0  0  0  0  0
   -5.2921    3.3573   -3.0948 N   0  0  0  0  0  0  0  0  0  0  0  0
   -4.8914    2.5654   -2.0728 C   0  0  0  0  0  0  0  0  0  0  0  0
   -3.9117    1.5735   -2.1820 C   0  0  0  0  0  0  0  0  0  0  0  0
   -3.2441    1.0689   -3.2679 C   0  0  0  0  0  0  0  0  0  0  0  0
   -3.0749    1.3372   -4.9417 S   0  0  0  0  0  0  0  0  0  0  0  0
   -2.1066   -0.0699   -5.0872 C   0  0  0  0  0  0  0  0  0  0  0  0
   -1.3783   -0.6523   -6.1296 C   0  0  0  0  0  0  0  0  0  0  0  0
   -0.6961   -1.7932   -5.6665 C   0  0  0  0  0  0  0  0  0  0  0  0
   -1.0441   -2.0786   -4.0207 S   0  0  0  0  0  0  0  0  0  0  0  0
   -1.9787   -0.7103   -3.8844 C   0  0  0  0  0  0  0  0  0  0  0  0
   -2.5859   -0.0355   -2.8468 C   0  0  0  0  0  0  0  0  0  0  0  0
   -2.7331   -0.2709   -1.5229 N   0  0  0  0  0  0  0  0  0  0  0  0
   -2.4562   -1.5604   -0.8673 C   0  0  0  0  0  0  0  0  0  0  0  0
   -0.9509   -1.7709   -0.6462 C   0  0  0  0  0  0  0  0  0  0  0  0
   -3.5325    0.7612   -1.0914 C   0  0  0  0  0  0  0  0  0  0  0  0
   -4.0780    1.0405    0.1953 C   0  0  0  0  0  0  0  0  0  0  0  0
   -3.5587    0.7775    1.4433 N   0  0  0  0  0  0  0  0  0  0  0  0
   -2.1521    0.4650    1.7336 C   0  0  0  0  0  0  0  0  0  0  0  0
   -2.0092   -0.7893    2.5984 C   0  0  0  0  0  0  0  0  0  0  0  0
    0.3678   -2.5095   -6.3856 C   0  0  0  0  0  0  0  0  0  0  0  0
    1.6240   -2.5464   -5.8919 C   0  0  0  0  0  0  0  0  0  0  0  0
    2.0919   -1.7632   -4.7418 C   0  0  0  0  0  0  0  0  0  0  0  0
    1.6523   -0.6439   -4.3641 O   0  0  0  0  0  0  0  0  0  0  0  0
    3.1765   -2.4707   -4.1057 C   0  0  0  0  0  0  0  0  0  0  0  0
    3.6895   -2.2207   -2.8125 C   0  0  0  0  0  0  0  0  0  0  0  0
    4.5463   -3.2075   -2.3623 C   0  0  0  0  0  0  0  0  0  0  0  0
    4.8978   -4.3664   -3.1428 C   0  0  0  0  0  0  0  0  0  0  0  0
    4.4009   -4.6064   -4.4232 C   0  0  0  0  0  0  0  0  0  0  0  0
    3.5082   -3.6038   -4.8970 C   0  0  0  0  0  0  0  0  0  0  0  0
    2.6576   -3.6046   -6.1184 C   0  0  0  0  0  0  0  0  0  0  0  0
    2.8905   -4.2858   -7.2625 C   0  0  0  0  0  0  0  0  0  0  0  0
    2.0809   -4.1108   -8.4345 C   0  0  0  0  0  0  0  0  0  0  0  0
    1.4286   -3.9764   -9.3831 N   0  0  0  0  0  0  0  0  0  0  0  0
    4.0878   -5.0616   -7.4557 C   0  0  0  0  0  0  0  0  0  0  0  0
    5.0590   -5.6611   -7.6287 N   0  0  0  0  0  0  0  0  0  0  0  0
    5.7386   -4.8863   -2.0070 C   0  0  0  0  0  0  0  0  0  0  0  0
    7.2927   -4.7737   -2.1290 C   0  0  0  0  0  0  0  0  0  0  0  0
    7.6569   -3.5705   -2.9724 C   0  0  0  0  0  0  0  0  0  0  0  0
    7.3283   -2.4942   -2.2569 C   0  0  0  0  0  0  0  0  0  0  0  0
    6.7377   -2.9951   -0.9574 C   0  0  0  0  0  0  0  0  0  0  0  0
    7.6228   -4.2140   -0.7508 C   0  0  0  0  0  0  0  0  0  0  0  0
    5.3757   -3.7028   -1.2163 C   0  0  0  0  0  0  0  0  0  0  0  0
   -2.8744    4.7735    7.0368 H   0  0  0  0  0  0  0  0  0  0  0  0
    1.9742    4.0563    3.2911 H   0  0  0  0  0  0  0  0  0  0  0  0
    3.4979    7.6501    5.1713 H   0  0  0  0  0  0  0  0  0  0  0  0
    1.7495    7.4851    6.8942 H   0  0  0  0  0  0  0  0  0  0  0  0
   -4.0631    6.0243    5.4106 H   0  0  0  0  0  0  0  0  0  0  0  0
   -5.4238    5.7612    4.2914 H   0  0  0  0  0  0  0  0  0  0  0  0
   -5.3597    4.7573    7.2089 H   0  0  0  0  0  0  0  0  0  0  0  0
   -6.1804    6.2506    6.6338 H   0  0  0  0  0  0  0  0  0  0  0  0
   -6.7583    4.6544    6.0612 H   0  0  0  0  0  0  0  0  0  0  0  0
   -1.2980   -0.2527   -7.1336 H   0  0  0  0  0  0  0  0  0  0  0  0
   -3.0159   -1.6225    0.0883 H   0  0  0  0  0  0  0  0  0  0  0  0
   -2.8479   -2.3804   -1.5023 H   0  0  0  0  0  0  0  0  0  0  0  0
   -0.7758   -2.1843    0.3668 H   0  0  0  0  0  0  0  0  0  0  0  0
   -0.5379   -2.5036   -1.3676 H   0  0  0  0  0  0  0  0  0  0  0  0
   -0.3905   -0.8103   -0.7442 H   0  0  0  0  0  0  0  0  0  0  0  0
   -1.6597    1.3216    2.2455 H   0  0  0  0  0  0  0  0  0  0  0  0
   -1.5744    0.3499    0.8008 H   0  0  0  0  0  0  0  0  0  0  0  0
   -2.7307   -1.5768    2.3049 H   0  0  0  0  0  0  0  0  0  0  0  0
   -2.1658   -0.5692    3.6744 H   0  0  0  0  0  0  0  0  0  0  0  0
   -0.9880   -1.1911    2.4571 H   0  0  0  0  0  0  0  0  0  0  0  0
    0.0576   -3.1653   -7.1848 H   0  0  0  0  0  0  0  0  0  0  0  0
    3.3869   -1.3851   -2.1936 H   0  0  0  0  0  0  0  0  0  0  0  0
    4.6142   -5.5266   -4.9436 H   0  0  0  0  0  0  0  0  0  0  0  0
    5.3782   -5.8410   -1.5708 H   0  0  0  0  0  0  0  0  0  0  0  0
    7.8220   -5.7125   -2.3928 H   0  0  0  0  0  0  0  0  0  0  0  0
    8.1624   -3.5679   -3.9318 H   0  0  0  0  0  0  0  0  0  0  0  0
    7.5040   -1.4591   -2.5408 H   0  0  0  0  0  0  0  0  0  0  0  0
    6.7311   -2.2531   -0.1264 H   0  0  0  0  0  0  0  0  0  0  0  0
    7.2847   -4.8706    0.0916 H   0  0  0  0  0  0  0  0  0  0  0  0
    8.7031   -3.9587   -0.6161 H   0  0  0  0  0  0  0  0  0  0  0  0
    4.7927   -3.9463   -0.3058 H   0  0  0  0  0  0  0  0  0  0  0  0
  1  2  2  3
  2  3  1  0
  3  4  2  0
  3  5  1  0
  5  6  2  0
  6  7  1  0
  7  8  1  0
  7  9  2  0
  9 10  1  0
 10 11  2  0
 11 12  1  0
 12 13  2  3
 13 14  1  0
 14 15  3  0
 13 16  1  0
 16 17  3  0
  1 18  1  0
 18 19  2  0
 19 20  1  0
 20 21  1  0
 19 22  1  0
 22 23  2  0
 23 24  1  0
 23 25  1  0
 25 26  2  0
 26 27  1  0
 26 28  1  0
 28 29  1  0
 29 30  2  0
 30 31  1  0
 31 32  1  0
 32 33  2  0
 33 34  1  0
 34 35  1  0
 35 36  1  0
 36 37  1  0
 37 38  1  0
 38 39  2  0
 39 40  1  0
 40 41  1  0
 41 42  1  0
 42 43  1  0
 43 44  1  0
 44 45  1  0
 43 46  1  0
 46 47  1  0
 47 48  1  0
 48 49  1  0
 49 50  1  0
 39 51  1  0
 51 52  2  3
 52 53  1  0
 53 54  2  0
 53 55  1  0
 55 56  2  0
 56 57  1  0
 57 58  2  0
 58 59  1  0
 59 60  2  0
 60 61  1  0
 61 62  2  3
 62 63  1  0
 63 64  3  0
 62 65  1  0
 65 66  3  0
 58 67  1  0
 67 68  1  0
 68 69  1  0
 69 70  2  0
 70 71  1  0
 71 72  1  0
 71 73  1  0
 12  2  1  0
 24 18  1  0
 48 25  1  0
 61 52  1  0
 73 67  1  0
 11  5  1  0
 27 22  1  0
 47 28  2  0
 60 55  1  0
 72 68  1  0
 33 29  1  0
 46 34  2  0
 73 57  1  0
 42 35  2  0
 41 37  2  0
  1 74  1  0
  6 75  1  0
  9 76  1  0
 10 77  1  0
 20 78  1  0
 20 79  1  0
 21 80  1  0
 21 81  1  0
 21 82  1  0
 38 83  1  0
 44 84  1  0
 44 85  1  0
 45 86  1  0
 45 87  1  0
 45 88  1  0
 49 89  1  0
 49 90  1  0
 50 91  1  0
 50 92  1  0
 50 93  1  0
 51 94  1  0
 56 95  1  0
 59 96  1  0
 67 97  1  0
 68 98  1  0
 69 99  1  0
 70100  1  0
 71101  1  0
 72102  1  0
 72103  1  0
 73104  1  0
M  END

