
     RDKit          3D

125139  0  0  0  0  0  0  0  0999 V2000
    1.2242   -1.1573   -9.5225 C   0  0  0  0  0  0  0  0  0  0  0  0
    0.2386   -0.2741   -9.7791 C   0  0  0  0  0  0  0  0  0  0  0  0
    0.0122    0.2915  -11.1062 C   0  0  0  0  0  0  0  0  0  0  0  0
    0.4557   -0.1684  -12.1927 O   0  0  0  0  0  0  0  0  0  0  0  0
   -0.7314    1.5250  -10.9529 C   0  0  0  0  0  0  0  0  0  0  0  0
   -1.0773    2.4511  -11.9354 C   0  0  0  0  0  0  0  0  0  0  0  0
   -1.7579    3.6143  -11.5464 C   0  0  0  0  0  0  0  0  0  0  0  0
   -2.2191    4.8048  -12.7518 Cl  0  0  0  0  0  0  0  0  0  0  0  0
   -2.0671    3.8331  -10.1898 C   0  0  0  0  0  0  0  0  0  0  0  0
   -1.6996    2.8918   -9.2137 C   0  0  0  0  0  0  0  0  0  0  0  0
   -1.0342    1.7206   -9.6150 C   0  0  0  0  0  0  0  0  0  0  0  0
   -0.5706    0.5458   -8.8241 C   0  0  0  0  0  0  0  0  0  0  0  0
   -1.0900    0.1193   -7.6466 C   0  0  0  0  0  0  0  0  0  0  0  0
   -1.0218   -1.2634   -7.2476 C   0  0  0  0  0  0  0  0  0  0  0  0
   -0.9813   -2.3777   -6.9300 N   0  0  0  0  0  0  0  0  0  0  0  0
   -1.8697    0.9670   -6.7852 C   0  0  0  0  0  0  0  0  0  0  0  0
   -2.4958    1.6277   -6.0690 N   0  0  0  0  0  0  0  0  0  0  0  0
    1.8175   -1.3910   -8.1903 C   0  0  0  0  0  0  0  0  0  0  0  0
    2.1341   -2.7095   -7.7969 C   0  0  0  0  0  0  0  0  0  0  0  0
    2.6430   -2.9755   -6.5160 C   0  0  0  0  0  0  0  0  0  0  0  0
    2.8411   -1.8989   -5.6431 C   0  0  0  0  0  0  0  0  0  0  0  0
    3.2537   -1.7902   -4.3198 C   0  0  0  0  0  0  0  0  0  0  0  0
    3.2653   -0.4734   -4.0218 C   0  0  0  0  0  0  0  0  0  0  0  0
    2.8270    0.3013   -5.0448 N   0  0  0  0  0  0  0  0  0  0  0  0
    2.6028   -0.5898   -6.0501 C   0  0  0  0  0  0  0  0  0  0  0  0
    2.1030   -0.3129   -7.3266 C   0  0  0  0  0  0  0  0  0  0  0  0
    2.5092    1.7324   -5.0398 C   0  0  0  0  0  0  0  0  0  0  0  0
    3.7869    2.5551   -5.1597 C   0  0  0  0  0  0  0  0  0  0  0  0
    3.2272   -0.3660   -2.6523 C   0  0  0  0  0  0  0  0  0  0  0  0
    3.0282    0.7202   -1.7939 C   0  0  0  0  0  0  0  0  0  0  0  0
    2.7406    0.5247   -0.4804 C   0  0  0  0  0  0  0  0  0  0  0  0
    2.6546    1.7147    0.1299 N   0  0  0  0  0  0  0  0  0  0  0  0
    2.8868    2.6027   -0.8348 N   0  0  0  0  0  0  0  0  0  0  0  0
    2.8775    4.0417   -0.6170 C   0  0  0  0  0  0  0  0  0  0  0  0
    1.4855    4.6049   -0.8718 C   0  0  0  0  0  0  0  0  0  0  0  0
    3.1212    2.0394   -2.0175 N   0  0  0  0  0  0  0  0  0  0  0  0
    2.6817   -0.7592    0.0466 C   0  0  0  0  0  0  0  0  0  0  0  0
    2.9989   -1.8936   -0.7433 C   0  0  0  0  0  0  0  0  0  0  0  0
    3.2090   -1.6965   -2.1598 C   0  0  0  0  0  0  0  0  0  0  0  0
    3.1752   -2.5869   -3.2166 N   0  0  0  0  0  0  0  0  0  0  0  0
    2.7533   -3.9942   -3.2270 C   0  0  0  0  0  0  0  0  0  0  0  0
    1.3074   -4.1518   -2.7666 C   0  0  0  0  0  0  0  0  0  0  0  0
    3.0167   -3.0284    0.0510 N   0  0  0  0  0  0  0  0  0  0  0  0
    3.7938   -4.2685   -0.0813 C   0  0  0  0  0  0  0  0  0  0  0  0
    5.2112   -4.0012   -0.5965 C   0  0  0  0  0  0  0  0  0  0  0  0
    2.6014   -2.5638    1.2538 C   0  0  0  0  0  0  0  0  0  0  0  0
    2.4161   -1.2464    1.2949 C   0  0  0  0  0  0  0  0  0  0  0  0
    1.8575   -0.8179    2.4460 N   0  0  0  0  0  0  0  0  0  0  0  0
    1.3552    0.5174    2.7865 C   0  0  0  0  0  0  0  0  0  0  0  0
    2.4389    1.3240    3.4861 C   0  0  0  0  0  0  0  0  0  0  0  0
    1.7133   -1.9709    3.1595 C   0  0  0  0  0  0  0  0  0  0  0  0
    2.1467   -3.0871    2.4458 C   0  0  0  0  0  0  0  0  0  0  0  0
    1.9290   -4.3853    2.9037 C   0  0  0  0  0  0  0  0  0  0  0  0
    1.2809   -4.5439    4.1454 C   0  0  0  0  0  0  0  0  0  0  0  0
    0.8404   -3.4174    4.8840 C   0  0  0  0  0  0  0  0  0  0  0  0
    1.1013   -2.1161    4.4022 C   0  0  0  0  0  0  0  0  0  0  0  0
    0.1713   -3.5980    6.1907 C   0  0  0  0  0  0  0  0  0  0  0  0
   -0.9495   -2.9317    6.5525 C   0  0  0  0  0  0  0  0  0  0  0  0
   -1.7370   -2.0491    5.6781 C   0  0  0  0  0  0  0  0  0  0  0  0
   -1.7763   -2.0858    4.4202 O   0  0  0  0  0  0  0  0  0  0  0  0
   -2.4984   -1.1394    6.5015 C   0  0  0  0  0  0  0  0  0  0  0  0
   -3.1951    0.0132    6.0721 C   0  0  0  0  0  0  0  0  0  0  0  0
   -3.6429    0.8111    7.1082 C   0  0  0  0  0  0  0  0  0  0  0  0
   -3.4274    0.4989    8.4897 C   0  0  0  0  0  0  0  0  0  0  0  0
   -2.7593   -0.6375    8.9160 C   0  0  0  0  0  0  0  0  0  0  0  0
   -2.3077   -1.4861    7.8629 C   0  0  0  0  0  0  0  0  0  0  0  0
   -1.4620   -2.7114    7.9402 C   0  0  0  0  0  0  0  0  0  0  0  0
   -1.3572   -3.5495    9.0032 C   0  0  0  0  0  0  0  0  0  0  0  0
   -2.0996   -3.3357   10.2200 C   0  0  0  0  0  0  0  0  0  0  0  0
   -2.7064   -3.1823   11.1929 N   0  0  0  0  0  0  0  0  0  0  0  0
   -0.6213   -4.7848    8.9458 C   0  0  0  0  0  0  0  0  0  0  0  0
   -0.0268   -5.7779    8.9166 N   0  0  0  0  0  0  0  0  0  0  0  0
   -4.1019    1.7795    8.8996 C   0  0  0  0  0  0  0  0  0  0  0  0
   -5.5452    1.6967    9.4875 C   0  0  0  0  0  0  0  0  0  0  0  0
   -6.2721    0.5071    8.8988 C   0  0  0  0  0  0  0  0  0  0  0  0
   -6.4785    0.7859    7.6114 C   0  0  0  0  0  0  0  0  0  0  0  0
   -5.8829    2.1544    7.3654 C   0  0  0  0  0  0  0  0  0  0  0  0
   -6.2166    2.8059    8.6952 C   0  0  0  0  0  0  0  0  0  0  0  0
   -4.3277    2.0916    7.4840 C   0  0  0  0  0  0  0  0  0  0  0  0
    1.6855   -1.6737  -10.3583 H   0  0  0  0  0  0  0  0  0  0  0  0
   -0.8237    2.2773  -12.9715 H   0  0  0  0  0  0  0  0  0  0  0  0
   -2.5720    4.7410   -9.8892 H   0  0  0  0  0  0  0  0  0  0  0  0
   -1.9163    3.1045   -8.1790 H   0  0  0  0  0  0  0  0  0  0  0  0
    1.9632   -3.5356   -8.4775 H   0  0  0  0  0  0  0  0  0  0  0  0
    2.8958   -3.9906   -6.2667 H   0  0  0  0  0  0  0  0  0  0  0  0
    1.9215    0.7028   -7.6495 H   0  0  0  0  0  0  0  0  0  0  0  0
    1.9420    1.9978   -4.1298 H   0  0  0  0  0  0  0  0  0  0  0  0
    1.8358    1.9959   -5.8784 H   0  0  0  0  0  0  0  0  0  0  0  0
    3.5454    3.6373   -5.1053 H   0  0  0  0  0  0  0  0  0  0  0  0
    4.4943    2.3039   -4.3450 H   0  0  0  0  0  0  0  0  0  0  0  0
    4.2777    2.3481   -6.1343 H   0  0  0  0  0  0  0  0  0  0  0  0
    3.6070    4.5296   -1.3003 H   0  0  0  0  0  0  0  0  0  0  0  0
    3.1788    4.2653    0.4301 H   0  0  0  0  0  0  0  0  0  0  0  0
    1.1860    4.4107   -1.9242 H   0  0  0  0  0  0  0  0  0  0  0  0
    0.7494    4.1333   -0.1883 H   0  0  0  0  0  0  0  0  0  0  0  0
    1.4916    5.6995   -0.6981 H   0  0  0  0  0  0  0  0  0  0  0  0
    3.4567   -4.6180   -2.6707 H   0  0  0  0  0  0  0  0  0  0  0  0
    2.8310   -4.4181   -4.2360 H   0  0  0  0  0  0  0  0  0  0  0  0
    1.0212   -5.2260   -2.8091 H   0  0  0  0  0  0  0  0  0  0  0  0
    0.6345   -3.5743   -3.4356 H   0  0  0  0  0  0  0  0  0  0  0  0
    1.1774   -3.7965   -1.7270 H   0  0  0  0  0  0  0  0  0  0  0  0
    3.9246   -4.7375    0.9171 H   0  0  0  0  0  0  0  0  0  0  0  0
    3.2382   -5.0284   -0.6582 H   0  0  0  0  0  0  0  0  0  0  0  0
    5.7139   -3.2568    0.0527 H   0  0  0  0  0  0  0  0  0  0  0  0
    5.7988   -4.9398   -0.5794 H   0  0  0  0  0  0  0  0  0  0  0  0
    5.2077   -3.6060   -1.6323 H   0  0  0  0  0  0  0  0  0  0  0  0
    1.0045    1.0402    1.8735 H   0  0  0  0  0  0  0  0  0  0  0  0
    0.4695    0.4363    3.4502 H   0  0  0  0  0  0  0  0  0  0  0  0
    3.3343    1.4189    2.8363 H   0  0  0  0  0  0  0  0  0  0  0  0
    2.7298    0.8253    4.4372 H   0  0  0  0  0  0  0  0  0  0  0  0
    2.0511    2.3394    3.7195 H   0  0  0  0  0  0  0  0  0  0  0  0
    2.2036   -5.2493    2.3153 H   0  0  0  0  0  0  0  0  0  0  0  0
    1.0940   -5.5442    4.5159 H   0  0  0  0  0  0  0  0  0  0  0  0
    0.8035   -1.2478    4.9743 H   0  0  0  0  0  0  0  0  0  0  0  0
    0.7093   -4.2005    6.9031 H   0  0  0  0  0  0  0  0  0  0  0  0
   -3.3104    0.2903    5.0318 H   0  0  0  0  0  0  0  0  0  0  0  0
   -2.5515   -0.7987    9.9607 H   0  0  0  0  0  0  0  0  0  0  0  0
   -3.4274    2.4996    9.4163 H   0  0  0  0  0  0  0  0  0  0  0  0
   -5.6139    1.7896   10.5929 H   0  0  0  0  0  0  0  0  0  0  0  0
   -6.6450   -0.3641    9.4279 H   0  0  0  0  0  0  0  0  0  0  0  0
   -7.0410    0.1790    6.9126 H   0  0  0  0  0  0  0  0  0  0  0  0
   -6.2659    2.6810    6.4647 H   0  0  0  0  0  0  0  0  0  0  0  0
   -5.7369    3.8040    8.8357 H   0  0  0  0  0  0  0  0  0  0  0  0
   -7.3132    2.8877    8.8868 H   0  0  0  0  0  0  0  0  0  0  0  0
   -3.7952    3.0067    7.1402 H   0  0  0  0  0  0  0  0  0  0  0  0
  1  2  2  3
  2  3  1  0
  3  4  2  0
  3  5  1  0
  5  6  2  0
  6  7  1  0
  7  8  1  0
  7  9  2  0
  9 10  1  0
 10 11  2  0
 11 12  1  0
 12 13  2  3
 13 14  1  0
 14 15  3  0
 13 16  1  0
 16 17  3  0
  1 18  1  0
 18 19  2  0
 19 20  1  0
 20 21  2  0
 21 22  1  0
 22 23  2  0
 23 24  1  0
 24 25  1  0
 25 26  2  0
 24 27  1  0
 27 28  1  0
 23 29  1  0
 29 30  1  0
 30 31  1  0
 31 32  2  0
 32 33  1  0
 33 34  1  0
 34 35  1  0
 33 36  1  0
 31 37  1  0
 37 38  2  0
 38 39  1  0
 39 40  1  0
 40 41  1  0
 41 42  1  0
 38 43  1  0
 43 44  1  0
 44 45  1  0
 43 46  1  0
 46 47  2  0
 47 48  1  0
 48 49  1  0
 49 50  1  0
 48 51  1  0
 51 52  2  0
 52 53  1  0
 53 54  2  0
 54 55  1  0
 55 56  2  0
 55 57  1  0
 57 58  2  3
 58 59  1  0
 59 60  2  0
 59 61  1  0
 61 62  2  0
 62 63  1  0
 63 64  2  0
 64 65  1  0
 65 66  2  0
 66 67  1  0
 67 68  2  3
 68 69  1  0
 69 70  3  0
 68 71  1  0
 71 72  3  0
 64 73  1  0
 73 74  1  0
 74 75  1  0
 75 76  2  0
 76 77  1  0
 77 78  1  0
 77 79  1  0
 12  2  1  0
 26 18  1  0
 39 29  2  0
 52 46  1  0
 67 58  1  0
 79 73  1  0
 11  5  1  0
 25 21  1  0
 36 30  2  0
 47 37  1  0
 56 51  1  0
 66 61  1  0
 78 74  1  0
 40 22  1  0
 79 63  1  0
  1 80  1  0
  6 81  1  0
  9 82  1  0
 10 83  1  0
 19 84  1  0
 20 85  1  0
 26 86  1  0
 27 87  1  0
 27 88  1  0
 28 89  1  0
 28 90  1  0
 28 91  1  0
 34 92  1  0
 34 93  1  0
 35 94  1  0
 35 95  1  0
 35 96  1  0
 41 97  1  0
 41 98  1  0
 42 99  1  0
 42100  1  0
 42101  1  0
 44102  1  0
 44103  1  0
 45104  1  0
 45105  1  0
 45106  1  0
 49107  1  0
 49108  1  0
 50109  1  0
 50110  1  0
 50111  1  0
 53112  1  0
 54113  1  0
 56114  1  0
 57115  1  0
 62116  1  0
 65117  1  0
 73118  1  0
 74119  1  0
 75120  1  0
 76121  1  0
 77122  1  0
 78123  1  0
 78124  1  0
 79125  1  0
M  END

