
     RDKit          3D

 80 88  0  0  0  0  0  0  0  0999 V2000
    1.2010   -3.5050    5.1988 C   0  0  0  0  0  0  0  0  0  0  0  0
    2.5280   -3.3100    5.3364 C   0  0  0  0  0  0  0  0  0  0  0  0
    3.4715   -4.4318    5.3476 C   0  0  0  0  0  0  0  0  0  0  0  0
    3.1796   -5.6459    5.5396 O   0  0  0  0  0  0  0  0  0  0  0  0
    4.7782   -3.9274    4.9808 C   0  0  0  0  0  0  0  0  0  0  0  0
    5.9223   -4.6576    4.6487 C   0  0  0  0  0  0  0  0  0  0  0  0
    7.0477   -3.9634    4.1878 C   0  0  0  0  0  0  0  0  0  0  0  0
    8.5027   -4.8490    3.7558 Cl  0  0  0  0  0  0  0  0  0  0  0  0
    7.0050   -2.5586    4.0511 C   0  0  0  0  0  0  0  0  0  0  0  0
    5.8357   -1.8451    4.3628 C   0  0  0  0  0  0  0  0  0  0  0  0
    4.7169   -2.5506    4.8420 C   0  0  0  0  0  0  0  0  0  0  0  0
    3.3433   -2.0729    5.1713 C   0  0  0  0  0  0  0  0  0  0  0  0
    2.9951   -0.8247    5.5762 C   0  0  0  0  0  0  0  0  0  0  0  0
    1.7282   -0.5589    6.2072 C   0  0  0  0  0  0  0  0  0  0  0  0
    0.7113   -0.3354    6.7153 N   0  0  0  0  0  0  0  0  0  0  0  0
    3.9179    0.2789    5.5665 C   0  0  0  0  0  0  0  0  0  0  0  0
    4.6463    1.1778    5.5773 N   0  0  0  0  0  0  0  0  0  0  0  0
    0.2339   -2.6057    4.5233 C   0  0  0  0  0  0  0  0  0  0  0  0
   -1.1401   -2.7688    4.8274 C   0  0  0  0  0  0  0  0  0  0  0  0
   -2.1349   -2.1616    4.0413 C   0  0  0  0  0  0  0  0  0  0  0  0
   -1.7326   -1.3891    2.9497 C   0  0  0  0  0  0  0  0  0  0  0  0
   -2.5143   -0.8447    1.9811 N   0  0  0  0  0  0  0  0  0  0  0  0
   -3.9744   -0.9137    1.8660 C   0  0  0  0  0  0  0  0  0  0  0  0
   -4.6183    0.2900    2.5431 C   0  0  0  0  0  0  0  0  0  0  0  0
   -1.6511   -0.2526    1.1188 C   0  0  0  0  0  0  0  0  0  0  0  0
   -0.3336   -0.4247    1.5393 C   0  0  0  0  0  0  0  0  0  0  0  0
   -0.3932   -1.1714    2.6918 C   0  0  0  0  0  0  0  0  0  0  0  0
    0.6140   -1.7731    3.4437 C   0  0  0  0  0  0  0  0  0  0  0  0
    0.7600    0.0634    0.8117 C   0  0  0  0  0  0  0  0  0  0  0  0
    0.4537    0.7318   -0.3884 C   0  0  0  0  0  0  0  0  0  0  0  0
   -0.8629    0.8695   -0.8271 C   0  0  0  0  0  0  0  0  0  0  0  0
   -1.9586    0.3975   -0.0921 C   0  0  0  0  0  0  0  0  0  0  0  0
   -0.7939    1.4913   -2.0532 C   0  0  0  0  0  0  0  0  0  0  0  0
   -1.7826    1.7780   -2.9906 C   0  0  0  0  0  0  0  0  0  0  0  0
   -1.3865    2.3250   -4.2276 C   0  0  0  0  0  0  0  0  0  0  0  0
   -0.0297    2.6593   -4.4436 C   0  0  0  0  0  0  0  0  0  0  0  0
    0.9515    2.3620   -3.4761 C   0  0  0  0  0  0  0  0  0  0  0  0
    0.5416    1.7359   -2.2962 C   0  0  0  0  0  0  0  0  0  0  0  0
    1.3188    1.2643   -1.2882 N   0  0  0  0  0  0  0  0  0  0  0  0
    2.7744    1.3865   -1.1697 C   0  0  0  0  0  0  0  0  0  0  0  0
    3.1380    2.7158   -0.5299 C   0  0  0  0  0  0  0  0  0  0  0  0
   -2.3540    2.4611   -5.3317 C   0  0  0  0  0  0  0  0  0  0  0  0
   -3.0195    1.4103   -5.8386 C   0  0  0  0  0  0  0  0  0  0  0  0
   -2.9033   -0.0155   -5.4878 C   0  0  0  0  0  0  0  0  0  0  0  0
   -2.1199   -0.5187   -4.6390 O   0  0  0  0  0  0  0  0  0  0  0  0
   -3.7462   -0.7793   -6.3966 C   0  0  0  0  0  0  0  0  0  0  0  0
   -3.9506   -2.1556   -6.4483 C   0  0  0  0  0  0  0  0  0  0  0  0
   -4.7981   -2.6737   -7.4501 C   0  0  0  0  0  0  0  0  0  0  0  0
   -5.0838   -4.4044   -7.5114 Cl  0  0  0  0  0  0  0  0  0  0  0  0
   -5.4088   -1.7979   -8.3906 C   0  0  0  0  0  0  0  0  0  0  0  0
   -6.4717   -2.4207   -9.6478 Cl  0  0  0  0  0  0  0  0  0  0  0  0
   -5.1782   -0.4055   -8.3101 C   0  0  0  0  0  0  0  0  0  0  0  0
   -4.3494    0.0778   -7.2934 C   0  0  0  0  0  0  0  0  0  0  0  0
   -3.9269    1.4468   -6.9958 C   0  0  0  0  0  0  0  0  0  0  0  0
   -4.2771    2.4783   -7.6372 O   0  0  0  0  0  0  0  0  0  0  0  0
    0.8269   -4.4968    5.4212 H   0  0  0  0  0  0  0  0  0  0  0  0
    5.9244   -5.7419    4.7154 H   0  0  0  0  0  0  0  0  0  0  0  0
    7.8651   -2.0297    3.6647 H   0  0  0  0  0  0  0  0  0  0  0  0
    5.8132   -0.7810    4.1906 H   0  0  0  0  0  0  0  0  0  0  0  0
   -1.4433   -3.4076    5.6444 H   0  0  0  0  0  0  0  0  0  0  0  0
   -3.1805   -2.3216    4.2681 H   0  0  0  0  0  0  0  0  0  0  0  0
   -4.2792   -0.9391    0.8000 H   0  0  0  0  0  0  0  0  0  0  0  0
   -4.3535   -1.8493    2.3186 H   0  0  0  0  0  0  0  0  0  0  0  0
   -4.2230    1.2347    2.1154 H   0  0  0  0  0  0  0  0  0  0  0  0
   -5.7128    0.2666    2.3775 H   0  0  0  0  0  0  0  0  0  0  0  0
   -4.4166    0.2694    3.6301 H   0  0  0  0  0  0  0  0  0  0  0  0
    1.6474   -1.6686    3.1459 H   0  0  0  0  0  0  0  0  0  0  0  0
    1.7741   -0.0847    1.1527 H   0  0  0  0  0  0  0  0  0  0  0  0
   -2.9742    0.5127   -0.4541 H   0  0  0  0  0  0  0  0  0  0  0  0
   -2.8167    1.5259   -2.7991 H   0  0  0  0  0  0  0  0  0  0  0  0
    0.2755    3.1034   -5.3796 H   0  0  0  0  0  0  0  0  0  0  0  0
    1.9921    2.5962   -3.6614 H   0  0  0  0  0  0  0  0  0  0  0  0
    3.1868    0.5597   -0.5592 H   0  0  0  0  0  0  0  0  0  0  0  0
    3.2529    1.3042   -2.1699 H   0  0  0  0  0  0  0  0  0  0  0  0
    4.2460    2.8144   -0.4983 H   0  0  0  0  0  0  0  0  0  0  0  0
    2.7385    2.7723    0.5112 H   0  0  0  0  0  0  0  0  0  0  0  0
    2.7156    3.5531   -1.1192 H   0  0  0  0  0  0  0  0  0  0  0  0
   -2.4243    3.4190   -5.8365 H   0  0  0  0  0  0  0  0  0  0  0  0
   -3.4678   -2.8059   -5.7285 H   0  0  0  0  0  0  0  0  0  0  0  0
   -5.6178    0.2773   -9.0276 H   0  0  0  0  0  0  0  0  0  0  0  0
  1  2  2  3
  2  3  1  0
  3  4  2  0
  3  5  1  0
  5  6  2  0
  6  7  1  0
  7  8  1  0
  7  9  2  0
  9 10  1  0
 10 11  2  0
 11 12  1  0
 12 13  2  3
 13 14  1  0
 14 15  3  0
 13 16  1  0
 16 17  3  0
  1 18  1  0
 18 19  2  0
 19 20  1  0
 20 21  2  0
 21 22  1  0
 22 23  1  0
 23 24  1  0
 22 25  1  0
 25 26  2  0
 26 27  1  0
 27 28  2  0
 26 29  1  0
 29 30  2  0
 30 31  1  0
 31 32  2  0
 31 33  1  0
 33 34  2  0
 34 35  1  0
 35 36  2  0
 36 37  1  0
 37 38  2  0
 38 39  1  0
 39 40  1  0
 40 41  1  0
 35 42  1  0
 42 43  2  3
 43 44  1  0
 44 45  2  0
 44 46  1  0
 46 47  2  0
 47 48  1  0
 48 49  1  0
 48 50  2  0
 50 51  1  0
 50 52  1  0
 52 53  2  0
 53 54  1  0
 54 55  2  0
 12  2  1  0
 28 18  1  0
 39 30  1  0
 54 43  1  0
 11  5  1  0
 27 21  1  0
 38 33  1  0
 53 46  1  0
 32 25  1  0
  1 56  1  0
  6 57  1  0
  9 58  1  0
 10 59  1  0
 19 60  1  0
 20 61  1  0
 23 62  1  0
 23 63  1  0
 24 64  1  0
 24 65  1  0
 24 66  1  0
 28 67  1  0
 29 68  1  0
 32 69  1  0
 34 70  1  0
 36 71  1  0
 37 72  1  0
 40 73  1  0
 40 74  1  0
 41 75  1  0
 41 76  1  0
 41 77  1  0
 42 78  1  0
 47 79  1  0
 52 80  1  0
M  END

