
     RDKit          3D

113128  0  0  0  0  0  0  0  0999 V2000
   -3.6344   -8.2574    3.5915 C   0  0  0  0  0  0  0  0  0  0  0  0
   -4.4939   -9.1421    3.0478 C   0  0  0  0  0  0  0  0  0  0  0  0
   -4.5081   -9.6216    1.6590 C   0  0  0  0  0  0  0  0  0  0  0  0
   -3.5311   -9.6635    0.8669 O   0  0  0  0  0  0  0  0  0  0  0  0
   -5.8229  -10.1639    1.3846 C   0  0  0  0  0  0  0  0  0  0  0  0
   -6.3544  -10.5570    0.1548 C   0  0  0  0  0  0  0  0  0  0  0  0
   -7.7114  -10.9145    0.1010 C   0  0  0  0  0  0  0  0  0  0  0  0
   -8.4239  -11.4009   -1.4253 Cl  0  0  0  0  0  0  0  0  0  0  0  0
   -8.5077  -10.8511    1.2590 C   0  0  0  0  0  0  0  0  0  0  0  0
   -7.9496  -10.4591    2.4881 C   0  0  0  0  0  0  0  0  0  0  0  0
   -6.5796  -10.1468    2.5424 C   0  0  0  0  0  0  0  0  0  0  0  0
   -5.7508   -9.6550    3.6781 C   0  0  0  0  0  0  0  0  0  0  0  0
   -5.9738   -9.8863    4.9974 C   0  0  0  0  0  0  0  0  0  0  0  0
   -7.1428  -10.5904    5.4627 C   0  0  0  0  0  0  0  0  0  0  0  0
   -8.0691  -11.1668    5.8470 N   0  0  0  0  0  0  0  0  0  0  0  0
   -5.0094   -9.5707    6.0187 C   0  0  0  0  0  0  0  0  0  0  0  0
   -4.2398   -9.3154    6.8420 N   0  0  0  0  0  0  0  0  0  0  0  0
   -2.5499   -7.5515    2.8772 C   0  0  0  0  0  0  0  0  0  0  0  0
   -2.6262   -6.9185    1.3022 S   0  0  0  0  0  0  0  0  0  0  0  0
   -1.1901   -6.0542    1.4069 C   0  0  0  0  0  0  0  0  0  0  0  0
   -0.5770   -5.2097    0.4702 C   0  0  0  0  0  0  0  0  0  0  0  0
   -1.0944   -4.8406   -1.1035 S   0  0  0  0  0  0  0  0  0  0  0  0
    0.1908   -3.7823   -1.3431 C   0  0  0  0  0  0  0  0  0  0  0  0
    0.3860   -2.6960   -2.1468 C   0  0  0  0  0  0  0  0  0  0  0  0
   -0.4372   -2.1492   -3.1427 C   0  0  0  0  0  0  0  0  0  0  0  0
   -0.2327   -0.7914   -3.5363 C   0  0  0  0  0  0  0  0  0  0  0  0
   -1.0885   -0.2776   -4.4565 N   0  0  0  0  0  0  0  0  0  0  0  0
   -2.0650   -1.5971   -4.6914 S   0  0  0  0  0  0  0  0  0  0  0  0
   -1.4864   -2.7983   -3.7048 N   0  0  0  0  0  0  0  0  0  0  0  0
    0.8248   -0.0836   -2.9601 C   0  0  0  0  0  0  0  0  0  0  0  0
    1.2518    1.2013   -3.1055 C   0  0  0  0  0  0  0  0  0  0  0  0
    0.7294    2.6312   -3.8212 S   0  0  0  0  0  0  0  0  0  0  0  0
    2.0259    3.4996   -3.1282 C   0  0  0  0  0  0  0  0  0  0  0  0
    2.2510    4.8846   -3.1549 C   0  0  0  0  0  0  0  0  0  0  0  0
    3.3159    5.4508   -2.4510 C   0  0  0  0  0  0  0  0  0  0  0  0
    4.1283    4.6108   -1.6856 C   0  0  0  0  0  0  0  0  0  0  0  0
    5.0861    4.9346   -0.8026 N   0  0  0  0  0  0  0  0  0  0  0  0
    5.4258    3.7783   -0.2367 N   0  0  0  0  0  0  0  0  0  0  0  0
    6.3865    3.6802    0.8563 C   0  0  0  0  0  0  0  0  0  0  0  0
    5.6744    3.8433    2.1963 C   0  0  0  0  0  0  0  0  0  0  0  0
    4.7125    2.7424   -0.6801 N   0  0  0  0  0  0  0  0  0  0  0  0
    3.8989    3.2578   -1.6156 C   0  0  0  0  0  0  0  0  0  0  0  0
    2.8566    2.6604   -2.3454 C   0  0  0  0  0  0  0  0  0  0  0  0
    2.3694    1.3496   -2.3557 C   0  0  0  0  0  0  0  0  0  0  0  0
    2.7317    0.1984   -1.7279 N   0  0  0  0  0  0  0  0  0  0  0  0
    1.6952   -0.6566   -2.0288 C   0  0  0  0  0  0  0  0  0  0  0  0
    1.3822   -1.9419   -1.5128 C   0  0  0  0  0  0  0  0  0  0  0  0
    1.6612   -2.4500   -0.2672 N   0  0  0  0  0  0  0  0  0  0  0  0
    0.9712   -3.6303   -0.2363 C   0  0  0  0  0  0  0  0  0  0  0  0
    0.5753   -4.4704    0.8192 C   0  0  0  0  0  0  0  0  0  0  0  0
    1.1152   -4.6754    2.1013 C   0  0  0  0  0  0  0  0  0  0  0  0
    0.5116   -5.5193    3.0033 C   0  0  0  0  0  0  0  0  0  0  0  0
   -0.6555   -6.2160    2.6843 C   0  0  0  0  0  0  0  0  0  0  0  0
   -1.4121   -7.0446    3.5171 C   0  0  0  0  0  0  0  0  0  0  0  0
    1.2326   -5.5311    4.1339 N   0  0  0  0  0  0  0  0  0  0  0  0
    2.2525   -4.7126    3.8909 N   0  0  0  0  0  0  0  0  0  0  0  0
    3.3166   -4.4521    4.8527 C   0  0  0  0  0  0  0  0  0  0  0  0
    4.4660   -5.4242    4.6380 C   0  0  0  0  0  0  0  0  0  0  0  0
    2.2256   -4.1831    2.6709 N   0  0  0  0  0  0  0  0  0  0  0  0
    1.9381   -1.6037    0.9092 C   0  0  0  0  0  0  0  0  0  0  0  0
    0.6447   -1.1802    1.6071 C   0  0  0  0  0  0  0  0  0  0  0  0
    4.1129   -0.1137   -1.3006 C   0  0  0  0  0  0  0  0  0  0  0  0
    4.5380   -1.5546   -1.5727 C   0  0  0  0  0  0  0  0  0  0  0  0
    3.3535    6.8433   -2.5036 C   0  0  0  0  0  0  0  0  0  0  0  0
    2.2656    7.3706   -3.1981 C   0  0  0  0  0  0  0  0  0  0  0  0
    1.3002    6.1080   -3.8007 S   0  0  0  0  0  0  0  0  0  0  0  0
    2.0115    8.8081   -3.3628 C   0  0  0  0  0  0  0  0  0  0  0  0
    0.8235    9.4060   -3.1624 C   0  0  0  0  0  0  0  0  0  0  0  0
    0.5170   10.7335   -3.6912 C   0  0  0  0  0  0  0  0  0  0  0  0
    1.3367   11.5368   -4.2100 O   0  0  0  0  0  0  0  0  0  0  0  0
   -0.9086   10.9497   -3.5629 C   0  0  0  0  0  0  0  0  0  0  0  0
   -1.6432   12.0881   -3.8988 C   0  0  0  0  0  0  0  0  0  0  0  0
   -3.0196   12.1111   -3.6207 C   0  0  0  0  0  0  0  0  0  0  0  0
   -3.9596   13.5525   -3.9885 Cl  0  0  0  0  0  0  0  0  0  0  0  0
   -3.6394   10.9889   -3.0437 C   0  0  0  0  0  0  0  0  0  0  0  0
   -4.9665   11.0164   -2.7502 F   0  0  0  0  0  0  0  0  0  0  0  0
   -2.8842    9.8372   -2.7402 C   0  0  0  0  0  0  0  0  0  0  0  0
   -1.4964    9.8401   -2.9803 C   0  0  0  0  0  0  0  0  0  0  0  0
   -0.4430    8.8595   -2.5814 C   0  0  0  0  0  0  0  0  0  0  0  0
   -0.5293    8.0173   -1.5234 C   0  0  0  0  0  0  0  0  0  0  0  0
    0.6187    7.6580   -0.7233 C   0  0  0  0  0  0  0  0  0  0  0  0
    1.5260    7.3697   -0.0622 N   0  0  0  0  0  0  0  0  0  0  0  0
   -1.7815    7.5087   -1.0347 C   0  0  0  0  0  0  0  0  0  0  0  0
   -2.7864    7.0889   -0.6381 N   0  0  0  0  0  0  0  0  0  0  0  0
   -3.7589   -7.9460    4.6155 H   0  0  0  0  0  0  0  0  0  0  0  0
   -5.7405  -10.5608   -0.7369 H   0  0  0  0  0  0  0  0  0  0  0  0
   -9.5660  -11.0832    1.2008 H   0  0  0  0  0  0  0  0  0  0  0  0
   -8.5892  -10.3592    3.3513 H   0  0  0  0  0  0  0  0  0  0  0  0
    7.1517    4.4770    0.7476 H   0  0  0  0  0  0  0  0  0  0  0  0
    6.8954    2.6935    0.8222 H   0  0  0  0  0  0  0  0  0  0  0  0
    6.4222    3.8635    3.0161 H   0  0  0  0  0  0  0  0  0  0  0  0
    4.9769    2.9942    2.3613 H   0  0  0  0  0  0  0  0  0  0  0  0
    5.1042    4.7952    2.2122 H   0  0  0  0  0  0  0  0  0  0  0  0
   -1.1713   -7.2376    4.5536 H   0  0  0  0  0  0  0  0  0  0  0  0
    3.6812   -3.4091    4.7305 H   0  0  0  0  0  0  0  0  0  0  0  0
    2.9258   -4.5643    5.8843 H   0  0  0  0  0  0  0  0  0  0  0  0
    5.2495   -5.2552    5.4105 H   0  0  0  0  0  0  0  0  0  0  0  0
    4.9168   -5.2687    3.6329 H   0  0  0  0  0  0  0  0  0  0  0  0
    4.1041   -6.4745    4.7193 H   0  0  0  0  0  0  0  0  0  0  0  0
    2.4367   -0.6731    0.6106 H   0  0  0  0  0  0  0  0  0  0  0  0
    2.6378   -2.0996    1.6017 H   0  0  0  0  0  0  0  0  0  0  0  0
    0.8552   -0.3453    2.3065 H   0  0  0  0  0  0  0  0  0  0  0  0
   -0.1009   -0.8377    0.8643 H   0  0  0  0  0  0  0  0  0  0  0  0
    0.2104   -2.0211    2.1938 H   0  0  0  0  0  0  0  0  0  0  0  0
    4.2664    0.1414   -0.2325 H   0  0  0  0  0  0  0  0  0  0  0  0
    4.8140    0.5148   -1.8916 H   0  0  0  0  0  0  0  0  0  0  0  0
    5.6438   -1.6304   -1.4833 H   0  0  0  0  0  0  0  0  0  0  0  0
    4.2462   -1.8655   -2.5975 H   0  0  0  0  0  0  0  0  0  0  0  0
    4.1103   -2.2465   -0.8257 H   0  0  0  0  0  0  0  0  0  0  0  0
    4.0985    7.4492   -1.9988 H   0  0  0  0  0  0  0  0  0  0  0  0
    2.8381    9.3980   -3.7341 H   0  0  0  0  0  0  0  0  0  0  0  0
   -1.1560   12.9385   -4.3458 H   0  0  0  0  0  0  0  0  0  0  0  0
   -3.3925    8.9826   -2.3251 H   0  0  0  0  0  0  0  0  0  0  0  0
  1  2  2  3
  2  3  1  0
  3  4  2  0
  3  5  1  0
  5  6  2  0
  6  7  1  0
  7  8  1  0
  7  9  2  0
  9 10  1  0
 10 11  2  0
 11 12  1  0
 12 13  2  3
 13 14  1  0
 14 15  3  0
 13 16  1  0
 16 17  3  0
  1 18  1  0
 18 19  1  0
 19 20  1  0
 20 21  1  0
 21 22  1  0
 22 23  1  0
 23 24  1  0
 24 25  1  0
 25 26  1  0
 26 27  2  0
 27 28  1  0
 28 29  1  0
 26 30  1  0
 30 31  1  0
 31 32  1  0
 32 33  1  0
 33 34  1  0
 34 35  2  0
 35 36  1  0
 36 37  2  0
 37 38  1  0
 38 39  1  0
 39 40  1  0
 38 41  1  0
 41 42  2  0
 42 43  1  0
 43 44  1  0
 44 45  1  0
 45 46  1  0
 46 47  1  0
 47 48  1  0
 48 49  1  0
 49 50  1  0
 50 51  1  0
 51 52  1  0
 52 53  1  0
 53 54  1  0
 52 55  2  0
 55 56  1  0
 56 57  1  0
 57 58  1  0
 56 59  1  0
 48 60  1  0
 60 61  1  0
 45 62  1  0
 62 63  1  0
 35 64  1  0
 64 65  2  0
 65 66  1  0
 65 67  1  0
 67 68  2  3
 68 69  1  0
 69 70  2  0
 69 71  1  0
 71 72  2  0
 72 73  1  0
 73 74  1  0
 73 75  2  0
 75 76  1  0
 75 77  1  0
 77 78  2  0
 78 79  1  0
 79 80  2  3
 80 81  1  0
 81 82  3  0
 80 83  1  0
 83 84  3  0
 12  2  1  0
 54 18  2  0
 79 68  1  0
 11  5  1  0
 53 20  2  0
 78 71  1  0
 50 21  2  0
 59 51  2  0
 49 23  2  0
 47 24  2  0
 29 25  2  0
 46 30  2  0
 44 31  2  0
 43 33  2  0
 66 34  1  0
 42 36  1  0
  1 85  1  0
  6 86  1  0
  9 87  1  0
 10 88  1  0
 39 89  1  0
 39 90  1  0
 40 91  1  0
 40 92  1  0
 40 93  1  0
 54 94  1  0
 57 95  1  0
 57 96  1  0
 58 97  1  0
 58 98  1  0
 58 99  1  0
 60100  1  0
 60101  1  0
 61102  1  0
 61103  1  0
 61104  1  0
 62105  1  0
 62106  1  0
 63107  1  0
 63108  1  0
 63109  1  0
 64110  1  0
 67111  1  0
 72112  1  0
 77113  1  0
M  END

