
     RDKit          3D

108121  0  0  0  0  0  0  0  0999 V2000
   -6.9840    0.4276    1.5918 C   0  0  0  0  0  0  0  0  0  0  0  0
   -7.6999    0.0769    2.6761 C   0  0  0  0  0  0  0  0  0  0  0  0
   -7.4044    0.4531    4.0666 C   0  0  0  0  0  0  0  0  0  0  0  0
   -6.3582    1.0142    4.4886 O   0  0  0  0  0  0  0  0  0  0  0  0
   -8.5887    0.2144    4.8620 C   0  0  0  0  0  0  0  0  0  0  0  0
   -8.7888    0.4969    6.2128 C   0  0  0  0  0  0  0  0  0  0  0  0
  -10.0565    0.2698    6.7619 C   0  0  0  0  0  0  0  0  0  0  0  0
  -11.1026   -0.2089    5.9532 C   0  0  0  0  0  0  0  0  0  0  0  0
  -13.0192   -0.5032    6.7807 I   0  0  0  0  0  0  0  0  0  0  0  0
  -10.8813   -0.4840    4.5924 C   0  0  0  0  0  0  0  0  0  0  0  0
   -9.5959   -0.2935    4.0586 C   0  0  0  0  0  0  0  0  0  0  0  0
   -9.0762   -0.5058    2.6792 C   0  0  0  0  0  0  0  0  0  0  0  0
   -9.6111   -1.3156    1.7283 C   0  0  0  0  0  0  0  0  0  0  0  0
   -8.8782   -1.6939    0.5450 C   0  0  0  0  0  0  0  0  0  0  0  0
   -8.2890   -2.0058   -0.4007 N   0  0  0  0  0  0  0  0  0  0  0  0
  -10.8780   -1.9807    1.8988 C   0  0  0  0  0  0  0  0  0  0  0  0
  -11.8917   -2.5249    2.0185 N   0  0  0  0  0  0  0  0  0  0  0  0
   -5.5877    0.9010    1.6301 C   0  0  0  0  0  0  0  0  0  0  0  0
   -4.5688    0.2940    2.3840 C   0  0  0  0  0  0  0  0  0  0  0  0
   -3.4368    0.9472    1.9605 C   0  0  0  0  0  0  0  0  0  0  0  0
   -3.7563    1.8446    1.0442 C   0  0  0  0  0  0  0  0  0  0  0  0
   -5.0844    1.8680    0.8005 N   0  0  0  0  0  0  0  0  0  0  0  0
   -5.8438    2.7123   -0.1213 C   0  0  0  0  0  0  0  0  0  0  0  0
   -5.7522    2.1723   -1.5435 C   0  0  0  0  0  0  0  0  0  0  0  0
   -2.5966    2.4901    0.6744 C   0  0  0  0  0  0  0  0  0  0  0  0
   -2.3416    3.5500   -0.2100 C   0  0  0  0  0  0  0  0  0  0  0  0
   -1.0058    4.0083   -0.3571 C   0  0  0  0  0  0  0  0  0  0  0  0
   -0.7915    5.0185   -1.2396 N   0  0  0  0  0  0  0  0  0  0  0  0
   -2.3363    5.2644   -1.7710 S   0  0  0  0  0  0  0  0  0  0  0  0
   -3.2779    4.1686   -0.9678 N   0  0  0  0  0  0  0  0  0  0  0  0
    0.0099    3.3809    0.3625 C   0  0  0  0  0  0  0  0  0  0  0  0
    1.3590    3.4756    0.1890 C   0  0  0  0  0  0  0  0  0  0  0  0
    2.3816    4.1369   -0.9941 S   0  0  0  0  0  0  0  0  0  0  0  0
    3.6271    3.0597   -0.5626 C   0  0  0  0  0  0  0  0  0  0  0  0
    4.8488    2.7428   -1.1583 C   0  0  0  0  0  0  0  0  0  0  0  0
    5.4596    3.4898   -2.3127 C   0  0  0  0  0  0  0  0  0  0  0  0
    6.4091    4.5723   -1.8113 C   0  0  0  0  0  0  0  0  0  0  0  0
    5.4031    1.5919   -0.5716 C   0  0  0  0  0  0  0  0  0  0  0  0
    4.3630    0.9819    0.6298 S   0  0  0  0  0  0  0  0  0  0  0  0
    3.2256    2.2025    0.4353 C   0  0  0  0  0  0  0  0  0  0  0  0
    1.9205    2.4441    0.8622 C   0  0  0  0  0  0  0  0  0  0  0  0
    1.0030    1.6899    1.5219 N   0  0  0  0  0  0  0  0  0  0  0  0
   -0.2106    2.2846    1.2234 C   0  0  0  0  0  0  0  0  0  0  0  0
   -1.5696    1.8612    1.4354 C   0  0  0  0  0  0  0  0  0  0  0  0
   -2.1263    0.9174    2.2832 N   0  0  0  0  0  0  0  0  0  0  0  0
   -1.6437    0.2925    3.5202 C   0  0  0  0  0  0  0  0  0  0  0  0
   -1.1776    1.3467    4.5248 C   0  0  0  0  0  0  0  0  0  0  0  0
    1.3220    0.4116    2.1615 C   0  0  0  0  0  0  0  0  0  0  0  0
    0.8735   -0.7648    1.2997 C   0  0  0  0  0  0  0  0  0  0  0  0
    6.6442    0.9319   -0.9942 C   0  0  0  0  0  0  0  0  0  0  0  0
    6.6496   -0.1935   -1.7374 C   0  0  0  0  0  0  0  0  0  0  0  0
    5.4752   -0.7864   -2.3918 C   0  0  0  0  0  0  0  0  0  0  0  0
    4.2687   -0.4657   -2.2065 O   0  0  0  0  0  0  0  0  0  0  0  0
    5.9280   -1.7615   -3.3581 C   0  0  0  0  0  0  0  0  0  0  0  0
    5.1325   -2.4992   -4.2650 C   0  0  0  0  0  0  0  0  0  0  0  0
    5.8615   -3.2886   -5.1354 C   0  0  0  0  0  0  0  0  0  0  0  0
    7.2925   -3.3382   -5.1351 C   0  0  0  0  0  0  0  0  0  0  0  0
    8.0774   -2.6156   -4.2522 C   0  0  0  0  0  0  0  0  0  0  0  0
    7.3454   -1.8261   -3.3184 C   0  0  0  0  0  0  0  0  0  0  0  0
    7.8470   -0.9389   -2.2296 C   0  0  0  0  0  0  0  0  0  0  0  0
    9.0653   -1.0085   -1.6310 C   0  0  0  0  0  0  0  0  0  0  0  0
    9.3566   -0.3175   -0.4028 C   0  0  0  0  0  0  0  0  0  0  0  0
    9.5954    0.2172    0.5979 N   0  0  0  0  0  0  0  0  0  0  0  0
   10.0759   -1.9484   -2.0399 C   0  0  0  0  0  0  0  0  0  0  0  0
   10.8881   -2.7128   -2.3384 N   0  0  0  0  0  0  0  0  0  0  0  0
    7.2776   -4.3086   -6.2755 C   0  0  0  0  0  0  0  0  0  0  0  0
    7.5992   -5.7907   -5.9273 C   0  0  0  0  0  0  0  0  0  0  0  0
    7.1419   -6.5991   -7.1188 C   0  0  0  0  0  0  0  0  0  0  0  0
    5.8039   -6.5631   -7.1114 C   0  0  0  0  0  0  0  0  0  0  0  0
    5.4049   -5.7268   -5.9197 C   0  0  0  0  0  0  0  0  0  0  0  0
    6.4932   -6.1632   -4.9534 C   0  0  0  0  0  0  0  0  0  0  0  0
    5.8112   -4.2645   -6.2725 C   0  0  0  0  0  0  0  0  0  0  0  0
   -7.4411    0.3799    0.6164 H   0  0  0  0  0  0  0  0  0  0  0  0
   -7.9887    0.8984    6.8199 H   0  0  0  0  0  0  0  0  0  0  0  0
  -10.2326    0.4828    7.8093 H   0  0  0  0  0  0  0  0  0  0  0  0
  -11.7139   -0.7971    3.9852 H   0  0  0  0  0  0  0  0  0  0  0  0
   -4.6490   -0.5273    3.0854 H   0  0  0  0  0  0  0  0  0  0  0  0
   -6.9133    2.7461    0.1808 H   0  0  0  0  0  0  0  0  0  0  0  0
   -5.4891    3.7561   -0.0624 H   0  0  0  0  0  0  0  0  0  0  0  0
   -6.2433    1.1778   -1.6022 H   0  0  0  0  0  0  0  0  0  0  0  0
   -4.6957    2.0691   -1.8544 H   0  0  0  0  0  0  0  0  0  0  0  0
   -6.2656    2.8669   -2.2360 H   0  0  0  0  0  0  0  0  0  0  0  0
    6.0129    2.7825   -2.9664 H   0  0  0  0  0  0  0  0  0  0  0  0
    4.6650    3.9528   -2.9342 H   0  0  0  0  0  0  0  0  0  0  0  0
    5.8338    5.4001   -1.3482 H   0  0  0  0  0  0  0  0  0  0  0  0
    6.9951    4.9746   -2.6644 H   0  0  0  0  0  0  0  0  0  0  0  0
    7.1168    4.1511   -1.0663 H   0  0  0  0  0  0  0  0  0  0  0  0
   -0.9104   -0.4983    3.3078 H   0  0  0  0  0  0  0  0  0  0  0  0
   -2.4703   -0.2642    4.0101 H   0  0  0  0  0  0  0  0  0  0  0  0
   -0.4342    2.0347    4.0737 H   0  0  0  0  0  0  0  0  0  0  0  0
   -2.0561    1.9398    4.8715 H   0  0  0  0  0  0  0  0  0  0  0  0
   -0.7189    0.8455    5.4030 H   0  0  0  0  0  0  0  0  0  0  0  0
    0.9530    0.3881    3.1918 H   0  0  0  0  0  0  0  0  0  0  0  0
    2.4116    0.3204    2.3238 H   0  0  0  0  0  0  0  0  0  0  0  0
    1.5299   -0.8442    0.4046 H   0  0  0  0  0  0  0  0  0  0  0  0
   -0.1789   -0.6454    0.9634 H   0  0  0  0  0  0  0  0  0  0  0  0
    0.9635   -1.7036    1.8851 H   0  0  0  0  0  0  0  0  0  0  0  0
    7.5651    1.4326   -0.7399 H   0  0  0  0  0  0  0  0  0  0  0  0
    4.0519   -2.4415   -4.2964 H   0  0  0  0  0  0  0  0  0  0  0  0
    9.1516   -2.6453   -4.3246 H   0  0  0  0  0  0  0  0  0  0  0  0
    7.7511   -3.9131   -7.2019 H   0  0  0  0  0  0  0  0  0  0  0  0
    8.6388   -5.9918   -5.5871 H   0  0  0  0  0  0  0  0  0  0  0  0
    7.7555   -7.1838   -7.7951 H   0  0  0  0  0  0  0  0  0  0  0  0
    5.1494   -7.1107   -7.7810 H   0  0  0  0  0  0  0  0  0  0  0  0
    4.3590   -5.8656   -5.5697 H   0  0  0  0  0  0  0  0  0  0  0  0
    6.4645   -7.2535   -4.7162 H   0  0  0  0  0  0  0  0  0  0  0  0
    6.5107   -5.5882   -3.9996 H   0  0  0  0  0  0  0  0  0  0  0  0
    5.3587   -3.8423   -7.2005 H   0  0  0  0  0  0  0  0  0  0  0  0
  1  2  2  3
  2  3  1  0
  3  4  2  0
  3  5  1  0
  5  6  2  0
  6  7  1  0
  7  8  2  0
  8  9  1  0
  8 10  1  0
 10 11  2  0
 11 12  1  0
 12 13  2  3
 13 14  1  0
 14 15  3  0
 13 16  1  0
 16 17  3  0
  1 18  1  0
 18 19  2  0
 19 20  1  0
 20 21  2  0
 21 22  1  0
 22 23  1  0
 23 24  1  0
 21 25  1  0
 25 26  1  0
 26 27  1  0
 27 28  2  0
 28 29  1  0
 29 30  1  0
 27 31  1  0
 31 32  1  0
 32 33  1  0
 33 34  1  0
 34 35  1  0
 35 36  1  0
 36 37  1  0
 35 38  2  0
 38 39  1  0
 39 40  1  0
 40 41  1  0
 41 42  1  0
 42 43  1  0
 43 44  1  0
 44 45  1  0
 45 46  1  0
 46 47  1  0
 42 48  1  0
 48 49  1  0
 38 50  1  0
 50 51  2  3
 51 52  1  0
 52 53  2  0
 52 54  1  0
 54 55  2  0
 55 56  1  0
 56 57  2  0
 57 58  1  0
 58 59  2  0
 59 60  1  0
 60 61  2  3
 61 62  1  0
 62 63  3  0
 61 64  1  0
 64 65  3  0
 57 66  1  0
 66 67  1  0
 67 68  1  0
 68 69  2  0
 69 70  1  0
 70 71  1  0
 70 72  1  0
 12  2  1  0
 22 18  1  0
 44 25  2  0
 60 51  1  0
 72 66  1  0
 11  5  1  0
 45 20  1  0
 59 54  1  0
 71 67  1  0
 30 26  2  0
 43 31  2  0
 72 56  1  0
 41 32  2  0
 40 34  2  0
  1 73  1  0
  6 74  1  0
  7 75  1  0
 10 76  1  0
 19 77  1  0
 23 78  1  0
 23 79  1  0
 24 80  1  0
 24 81  1  0
 24 82  1  0
 36 83  1  0
 36 84  1  0
 37 85  1  0
 37 86  1  0
 37 87  1  0
 46 88  1  0
 46 89  1  0
 47 90  1  0
 47 91  1  0
 47 92  1  0
 48 93  1  0
 48 94  1  0
 49 95  1  0
 49 96  1  0
 49 97  1  0
 50 98  1  0
 55 99  1  0
 58100  1  0
 66101  1  0
 67102  1  0
 68103  1  0
 69104  1  0
 70105  1  0
 71106  1  0
 71107  1  0
 72108  1  0
M  END

