
     RDKit          3D

110124  0  0  0  0  0  0  0  0999 V2000
    0.5708   -6.7494   -1.6789 C   0  0  0  0  0  0  0  0  0  0  0  0
    1.0684   -7.4158   -0.7000 C   0  0  0  0  0  0  0  0  0  0  0  0
    2.3669   -7.3038   -0.0427 C   0  0  0  0  0  0  0  0  0  0  0  0
    3.3217   -6.5577   -0.3523 O   0  0  0  0  0  0  0  0  0  0  0  0
    2.4290   -8.2447    1.1301 C   0  0  0  0  0  0  0  0  0  0  0  0
    3.4452   -8.4402    1.9871 C   0  0  0  0  0  0  0  0  0  0  0  0
    3.2764   -9.4038    3.0576 C   0  0  0  0  0  0  0  0  0  0  0  0
    2.0848  -10.0276    3.0944 C   0  0  0  0  0  0  0  0  0  0  0  0
    1.7971  -11.4640    4.6977 I   0  0  0  0  0  0  0  0  0  0  0  0
    1.0706   -9.8300    2.2340 C   0  0  0  0  0  0  0  0  0  0  0  0
    1.2348   -8.8866    1.1871 C   0  0  0  0  0  0  0  0  0  0  0  0
    0.3205   -8.4353    0.1144 C   0  0  0  0  0  0  0  0  0  0  0  0
   -0.9452   -8.7084    0.1426 C   0  0  0  0  0  0  0  0  0  0  0  0
   -1.9589   -8.0237   -0.8064 C   0  0  0  0  0  0  0  0  0  0  0  0
   -2.7028   -7.5002   -1.5009 N   0  0  0  0  0  0  0  0  0  0  0  0
   -1.5088   -9.1043    1.1704 C   0  0  0  0  0  0  0  0  0  0  0  0
   -2.2471   -9.5937    2.5186 N   0  0  0  0  0  0  0  0  0  0  0  0
    1.1829   -5.6494   -2.3963 C   0  0  0  0  0  0  0  0  0  0  0  0
    2.3097   -5.3102   -3.0171 C   0  0  0  0  0  0  0  0  0  0  0  0
    3.2968   -6.3729   -3.4740 C   0  0  0  0  0  0  0  0  0  0  0  0
    2.7919   -7.0196   -4.7764 C   0  0  0  0  0  0  0  0  0  0  0  0
    2.4831   -3.9799   -3.3842 C   0  0  0  0  0  0  0  0  0  0  0  0
    3.7504   -2.9479   -4.0297 S   0  0  0  0  0  0  0  0  0  0  0  0
    2.9418   -1.4467   -3.9036 C   0  0  0  0  0  0  0  0  0  0  0  0
    3.0343   -0.0584   -4.0431 C   0  0  0  0  0  0  0  0  0  0  0  0
    4.2008    0.7514   -4.2373 C   0  0  0  0  0  0  0  0  0  0  0  0
    4.1232    2.0601   -3.9716 C   0  0  0  0  0  0  0  0  0  0  0  0
    5.2100    2.8447   -4.0705 N   0  0  0  0  0  0  0  0  0  0  0  0
    6.5326    1.4367   -4.6598 Se  0  0  0  0  0  2  0  0  0  0  0  0
    5.3546    0.2181   -4.6152 N   0  0  0  0  0  0  0  0  0  0  0  0
    2.8950    2.6159   -3.5472 C   0  0  0  0  0  0  0  0  0  0  0  0
    2.5117    3.8695   -3.0990 C   0  0  0  0  0  0  0  0  0  0  0  0
    3.0470    5.4166   -2.5329 S   0  0  0  0  0  0  0  0  0  0  0  0
    1.5604    5.9731   -1.8025 C   0  0  0  0  0  0  0  0  0  0  0  0
    1.1183    7.0046   -0.9476 C   0  0  0  0  0  0  0  0  0  0  0  0
    1.9848    8.2005   -0.5938 C   0  0  0  0  0  0  0  0  0  0  0  0
    3.0593    7.7623    0.4050 C   0  0  0  0  0  0  0  0  0  0  0  0
   -0.1256    6.8555   -0.4560 C   0  0  0  0  0  0  0  0  0  0  0  0
   -0.6470    5.4296   -1.1531 S   0  0  0  0  0  0  0  0  0  0  0  0
    0.7715    4.9801   -2.0565 C   0  0  0  0  0  0  0  0  0  0  0  0
    1.2186    3.8623   -2.7210 C   0  0  0  0  0  0  0  0  0  0  0  0
    0.7823    2.5729   -2.9607 N   0  0  0  0  0  0  0  0  0  0  0  0
    1.7410    1.8312   -3.4088 C   0  0  0  0  0  0  0  0  0  0  0  0
    1.8289    0.4456   -3.6260 C   0  0  0  0  0  0  0  0  0  0  0  0
    1.0190   -0.5796   -3.2143 N   0  0  0  0  0  0  0  0  0  0  0  0
    1.7502   -1.7718   -3.3964 C   0  0  0  0  0  0  0  0  0  0  0  0
    1.5525   -3.1234   -3.1274 C   0  0  0  0  0  0  0  0  0  0  0  0
    0.3374   -4.1115   -2.3430 S   0  0  0  0  0  0  0  0  0  0  0  0
   -0.1677   -0.6333   -2.4163 C   0  0  0  0  0  0  0  0  0  0  0  0
    0.2904   -1.0302   -0.9577 C   0  0  0  0  0  0  0  0  0  0  0  0
   -0.6574    2.3282   -3.0603 C   0  0  0  0  0  0  0  0  0  0  0  0
   -1.0826    3.0312   -4.4425 C   0  0  0  0  0  0  0  0  0  0  0  0
   -0.8160    7.4807    0.7141 C   0  0  0  0  0  0  0  0  0  0  0  0
   -1.4201    6.5940    1.5439 C   0  0  0  0  0  0  0  0  0  0  0  0
   -1.4659    5.1714    1.3690 C   0  0  0  0  0  0  0  0  0  0  0  0
   -1.1748    4.4174    0.3968 O   0  0  0  0  0  0  0  0  0  0  0  0
   -1.9606    4.5087    2.5878 C   0  0  0  0  0  0  0  0  0  0  0  0
   -2.1718    3.1703    2.8496 C   0  0  0  0  0  0  0  0  0  0  0  0
   -2.6634    2.7391    4.0597 C   0  0  0  0  0  0  0  0  0  0  0  0
   -2.9418    3.6625    5.0006 C   0  0  0  0  0  0  0  0  0  0  0  0
   -2.7220    5.0157    4.7202 C   0  0  0  0  0  0  0  0  0  0  0  0
   -2.2286    5.4520    3.5113 C   0  0  0  0  0  0  0  0  0  0  0  0
   -1.9157    6.8456    2.9419 C   0  0  0  0  0  0  0  0  0  0  0  0
   -2.0784    7.8403    3.4853 C   0  0  0  0  0  0  0  0  0  0  0  0
   -1.9543    9.2255    3.2385 C   0  0  0  0  0  0  0  0  0  0  0  0
   -1.8551   10.5155    2.9924 N   0  0  0  0  0  0  0  0  0  0  0  0
   -2.8318    7.8460    4.8690 C   0  0  0  0  0  0  0  0  0  0  0  0
   -3.3771    7.8676    5.8742 N   0  0  0  0  0  0  0  0  0  0  0  0
   -3.3861    2.5847    5.9215 C   0  0  0  0  0  0  0  0  0  0  0  0
   -4.8897    2.4902    6.0454 C   0  0  0  0  0  0  0  0  0  0  0  0
   -5.4796    2.9993    4.7554 C   0  0  0  0  0  0  0  0  0  0  0  0
   -5.1775    2.1321    3.8029 C   0  0  0  0  0  0  0  0  0  0  0  0
   -4.4406    1.0239    4.4148 C   0  0  0  0  0  0  0  0  0  0  0  0
   -5.1024    1.0165    5.8163 C   0  0  0  0  0  0  0  0  0  0  0  0
   -3.0758    1.5524    4.8620 C   0  0  0  0  0  0  0  0  0  0  0  0
   -0.3913   -7.0319   -2.0942 H   0  0  0  0  0  0  0  0  0  0  0  0
    4.3861   -7.9297    1.9487 H   0  0  0  0  0  0  0  0  0  0  0  0
    4.1023   -9.5487    3.7336 H   0  0  0  0  0  0  0  0  0  0  0  0
    0.1893  -10.3889    2.3344 H   0  0  0  0  0  0  0  0  0  0  0  0
    3.4173   -7.1678   -2.7356 H   0  0  0  0  0  0  0  0  0  0  0  0
    4.2822   -5.9535   -3.6787 H   0  0  0  0  0  0  0  0  0  0  0  0
    2.9165   -6.2554   -5.5756 H   0  0  0  0  0  0  0  0  0  0  0  0
    3.4408   -7.8738   -4.9887 H   0  0  0  0  0  0  0  0  0  0  0  0
    1.7692   -7.3574   -4.6632 H   0  0  0  0  0  0  0  0  0  0  0  0
    1.3846    8.9456   -0.0704 H   0  0  0  0  0  0  0  0  0  0  0  0
    2.4688    8.6306   -1.5116 H   0  0  0  0  0  0  0  0  0  0  0  0
    3.2248    6.6844    0.2213 H   0  0  0  0  0  0  0  0  0  0  0  0
    2.6552    7.8665    1.4302 H   0  0  0  0  0  0  0  0  0  0  0  0
    4.0083    8.3650    0.2480 H   0  0  0  0  0  0  0  0  0  0  0  0
   -0.7586   -1.5817   -2.7540 H   0  0  0  0  0  0  0  0  0  0  0  0
   -0.8773    0.0645   -2.1947 H   0  0  0  0  0  0  0  0  0  0  0  0
    0.4886   -0.0885   -0.3885 H   0  0  0  0  0  0  0  0  0  0  0  0
   -0.5684   -1.5288   -0.5089 H   0  0  0  0  0  0  0  0  0  0  0  0
    1.2136   -1.5634   -1.0755 H   0  0  0  0  0  0  0  0  0  0  0  0
   -1.1741    2.8982   -2.2958 H   0  0  0  0  0  0  0  0  0  0  0  0
   -0.9734    1.3646   -3.3321 H   0  0  0  0  0  0  0  0  0  0  0  0
   -1.3450    2.2528   -5.1723 H   0  0  0  0  0  0  0  0  0  0  0  0
   -1.9495    3.6941   -4.2104 H   0  0  0  0  0  0  0  0  0  0  0  0
   -0.2212    3.5948   -4.7812 H   0  0  0  0  0  0  0  0  0  0  0  0
   -0.8410    8.5060    0.8817 H   0  0  0  0  0  0  0  0  0  0  0  0
   -1.9449    2.4518    2.0560 H   0  0  0  0  0  0  0  0  0  0  0  0
   -2.9245    5.6964    5.5199 H   0  0  0  0  0  0  0  0  0  0  0  0
   -2.8220    2.4780    6.8335 H   0  0  0  0  0  0  0  0  0  0  0  0
   -5.3231    2.8924    6.9388 H   0  0  0  0  0  0  0  0  0  0  0  0
   -6.0499    3.9227    4.6493 H   0  0  0  0  0  0  0  0  0  0  0  0
   -5.4206    2.1916    2.7373 H   0  0  0  0  0  0  0  0  0  0  0  0
   -4.4353    0.0658    3.9303 H   0  0  0  0  0  0  0  0  0  0  0  0
   -4.5084    0.3863    6.5210 H   0  0  0  0  0  0  0  0  0  0  0  0
   -6.1664    0.7056    5.7299 H   0  0  0  0  0  0  0  0  0  0  0  0
   -2.2980    0.8505    5.0869 H   0  0  0  0  0  0  0  0  0  0  0  0
  1  2  2  3
  2  3  1  0
  3  4  2  0
  3  5  1  0
  5  6  2  0
  6  7  1  0
  7  8  2  0
  8  9  1  0
  8 10  1  0
 10 11  2  0
 11 12  1  0
 12 13  2  3
 13 14  1  0
 14 15  3  0
 13 16  1  0
 16 17  3  0
  1 18  1  0
 18 19  2  0
 19 20  1  0
 20 21  1  0
 19 22  1  0
 22 23  1  0
 23 24  1  0
 24 25  1  0
 25 26  1  0
 26 27  1  0
 27 28  2  0
 28 29  1  0
 29 30  1  0
 27 31  1  0
 31 32  1  0
 32 33  1  0
 33 34  1  0
 34 35  1  0
 35 36  1  0
 36 37  1  0
 35 38  2  0
 38 39  1  0
 39 40  1  0
 40 41  1  0
 41 42  1  0
 42 43  1  0
 43 44  1  0
 44 45  1  0
 45 46  1  0
 46 47  1  0
 47 48  1  0
 45 49  1  0
 49 50  1  0
 42 51  1  0
 51 52  1  0
 38 53  1  0
 53 54  2  3
 54 55  1  0
 55 56  2  0
 55 57  1  0
 57 58  2  0
 58 59  1  0
 59 60  2  0
 60 61  1  0
 61 62  2  0
 62 63  1  0
 63 64  2  3
 64 65  1  0
 65 66  3  0
 64 67  1  0
 67 68  3  0
 60 69  1  0
 69 70  1  0
 70 71  1  0
 71 72  2  0
 72 73  1  0
 73 74  1  0
 73 75  1  0
 12  2  1  0
 48 18  1  0
 63 54  1  0
 75 69  1  0
 11  5  1  0
 47 22  2  0
 62 57  1  0
 74 70  1  0
 46 24  2  0
 75 59  1  0
 44 25  2  0
 30 26  2  0
 43 31  2  0
 41 32  2  0
 40 34  2  0
  1 76  1  0
  6 77  1  0
  7 78  1  0
 10 79  1  0
 20 80  1  0
 20 81  1  0
 21 82  1  0
 21 83  1  0
 21 84  1  0
 36 85  1  0
 36 86  1  0
 37 87  1  0
 37 88  1  0
 37 89  1  0
 49 90  1  0
 49 91  1  0
 50 92  1  0
 50 93  1  0
 50 94  1  0
 51 95  1  0
 51 96  1  0
 52 97  1  0
 52 98  1  0
 52 99  1  0
 53100  1  0
 58101  1  0
 61102  1  0
 69103  1  0
 70104  1  0
 71105  1  0
 72106  1  0
 73107  1  0
 74108  1  0
 74109  1  0
 75110  1  0
M  END

