
     RDKit          3D

170186  0  0  0  0  0  0  0  0999 V2000
    3.4357    5.9109    0.7520 C   0  0  0  0  0  0  0  0  0  0  0  0
    4.7508    5.9628    1.0355 C   0  0  0  0  0  0  0  0  0  0  0  0
    5.6548    4.8061    1.0734 C   0  0  0  0  0  0  0  0  0  0  0  0
    5.3233    3.5935    1.1442 O   0  0  0  0  0  0  0  0  0  0  0  0
    7.0130    5.2880    1.1188 C   0  0  0  0  0  0  0  0  0  0  0  0
    8.1924    4.5421    1.0786 C   0  0  0  0  0  0  0  0  0  0  0  0
    9.4169    5.2264    1.1144 C   0  0  0  0  0  0  0  0  0  0  0  0
    9.4398    6.6338    1.1445 C   0  0  0  0  0  0  0  0  0  0  0  0
   11.2890    7.6502    1.1345 I   0  0  0  0  0  0  0  0  0  0  0  0
    8.2371    7.3651    1.1829 C   0  0  0  0  0  0  0  0  0  0  0  0
    7.0156    6.6717    1.2081 C   0  0  0  0  0  0  0  0  0  0  0  0
    5.6100    7.1743    1.2639 C   0  0  0  0  0  0  0  0  0  0  0  0
    5.2106    8.4126    1.6613 C   0  0  0  0  0  0  0  0  0  0  0  0
    3.8276    8.7758    1.8327 C   0  0  0  0  0  0  0  0  0  0  0  0
    2.7205    9.0840    1.9630 N   0  0  0  0  0  0  0  0  0  0  0  0
    6.1417    9.4319    2.0635 C   0  0  0  0  0  0  0  0  0  0  0  0
    6.8736   10.2670    2.3922 N   0  0  0  0  0  0  0  0  0  0  0  0
    2.7177    4.6579    0.4893 C   0  0  0  0  0  0  0  0  0  0  0  0
    2.9811    3.7811   -0.5761 C   0  0  0  0  0  0  0  0  0  0  0  0
    2.1622    2.6672   -0.4937 C   0  0  0  0  0  0  0  0  0  0  0  0
    2.0878    1.2199   -1.3646 S   0  0  0  0  0  0  0  0  0  0  0  0
    0.9062    0.5892   -0.3151 C   0  0  0  0  0  0  0  0  0  0  0  0
    0.2606   -0.6833   -0.0845 C   0  0  0  0  0  0  0  0  0  0  0  0
    0.3087   -1.8757   -0.8326 C   0  0  0  0  0  0  0  0  0  0  0  0
    0.9184   -1.8530   -2.1668 C   0  0  0  0  0  0  0  0  0  0  0  0
    2.2763   -1.7419   -2.4432 C   0  0  0  0  0  0  0  0  0  0  0  0
    2.5556   -1.6591   -3.8117 C   0  0  0  0  0  0  0  0  0  0  0  0
    1.4136   -1.6794   -4.6018 C   0  0  0  0  0  0  0  0  0  0  0  0
    1.3840   -1.6474   -6.0993 C   0  0  0  0  0  0  0  0  0  0  0  0
    1.6644   -3.0320   -6.6698 C   0  0  0  0  0  0  0  0  0  0  0  0
    0.0616   -1.8142   -3.6127 S   0  0  0  0  0  0  0  0  0  0  0  0
   -0.4361   -2.9789   -0.3344 C   0  0  0  0  0  0  0  0  0  0  0  0
   -0.5888   -4.4423   -0.7883 C   0  0  0  0  0  0  0  0  0  0  0  0
   -0.0235   -4.8941   -2.1453 C   0  0  0  0  0  0  0  0  0  0  0  0
    1.3600   -4.7385   -2.3759 C   0  0  0  0  0  0  0  0  0  0  0  0
    1.9780   -5.2643   -3.5091 C   0  0  0  0  0  0  0  0  0  0  0  0
    1.2472   -6.0378   -4.4155 C   0  0  0  0  0  0  0  0  0  0  0  0
    1.9252   -6.6457   -5.6150 C   0  0  0  0  0  0  0  0  0  0  0  0
    2.3798   -8.0697   -5.3108 C   0  0  0  0  0  0  0  0  0  0  0  0
   -0.0857   -6.3433   -4.1184 C   0  0  0  0  0  0  0  0  0  0  0  0
   -0.6939   -5.8189   -2.9724 C   0  0  0  0  0  0  0  0  0  0  0  0
    0.0950   -5.3741    0.2415 C   0  0  0  0  0  0  0  0  0  0  0  0
    1.2107   -4.9545    1.0012 C   0  0  0  0  0  0  0  0  0  0  0  0
    1.8086   -5.8095    1.9307 C   0  0  0  0  0  0  0  0  0  0  0  0
    1.3229   -7.1096    2.1104 C   0  0  0  0  0  0  0  0  0  0  0  0
    1.9620   -8.0296    3.1149 C   0  0  0  0  0  0  0  0  0  0  0  0
    3.0027   -8.9233    2.4423 C   0  0  0  0  0  0  0  0  0  0  0  0
    0.2514   -7.5584    1.3221 C   0  0  0  0  0  0  0  0  0  0  0  0
   -0.3466   -6.7035    0.3924 C   0  0  0  0  0  0  0  0  0  0  0  0
   -2.0910   -4.5246   -0.5250 C   0  0  0  0  0  0  0  0  0  0  0  0
   -2.3668   -3.8164    0.6500 C   0  0  0  0  0  0  0  0  0  0  0  0
   -1.3245   -2.7842    0.7386 C   0  0  0  0  0  0  0  0  0  0  0  0
   -1.3306   -1.6050    1.5091 C   0  0  0  0  0  0  0  0  0  0  0  0
   -0.5060   -0.5425    1.0826 C   0  0  0  0  0  0  0  0  0  0  0  0
   -0.3215    0.8549    1.7134 C   0  0  0  0  0  0  0  0  0  0  0  0
   -1.6715    1.5923    1.7650 C   0  0  0  0  0  0  0  0  0  0  0  0
   -2.4370    1.6267    2.9490 C   0  0  0  0  0  0  0  0  0  0  0  0
   -3.7101    2.2041    2.9643 C   0  0  0  0  0  0  0  0  0  0  0  0
   -4.2576    2.7425    1.7953 C   0  0  0  0  0  0  0  0  0  0  0  0
   -5.6362    3.3493    1.8109 C   0  0  0  0  0  0  0  0  0  0  0  0
   -5.5571    4.8629    1.9719 C   0  0  0  0  0  0  0  0  0  0  0  0
   -3.5078    2.7218    0.6144 C   0  0  0  0  0  0  0  0  0  0  0  0
   -2.2363    2.1437    0.5955 C   0  0  0  0  0  0  0  0  0  0  0  0
    0.4770    0.8207    3.0308 C   0  0  0  0  0  0  0  0  0  0  0  0
    0.4907    1.9413    3.8923 C   0  0  0  0  0  0  0  0  0  0  0  0
    1.3252    1.9792    5.0106 C   0  0  0  0  0  0  0  0  0  0  0  0
    2.2075    0.9222    5.2728 C   0  0  0  0  0  0  0  0  0  0  0  0
    3.1099    0.9622    6.4756 C   0  0  0  0  0  0  0  0  0  0  0  0
    2.4267    0.3272    7.6798 C   0  0  0  0  0  0  0  0  0  0  0  0
    2.2199   -0.1858    4.4164 C   0  0  0  0  0  0  0  0  0  0  0  0
    1.3800   -0.2313    3.3041 C   0  0  0  0  0  0  0  0  0  0  0  0
    0.5869    1.4662    0.6774 C   0  0  0  0  0  0  0  0  0  0  0  0
    1.3005    2.6502    0.5657 C   0  0  0  0  0  0  0  0  0  0  0  0
    1.4630    4.0528    1.4675 S   0  0  0  0  0  0  0  0  0  0  0  0
   -2.0523   -1.5649    2.7898 C   0  0  0  0  0  0  0  0  0  0  0  0
   -3.3994   -1.2696    2.9757 C   0  0  0  0  0  0  0  0  0  0  0  0
   -3.8134   -1.3930    4.3061 C   0  0  0  0  0  0  0  0  0  0  0  0
   -2.7911   -1.7868    5.1630 C   0  0  0  0  0  0  0  0  0  0  0  0
   -2.9095   -1.9782    6.6436 C   0  0  0  0  0  0  0  0  0  0  0  0
   -2.7388   -3.4454    7.0197 C   0  0  0  0  0  0  0  0  0  0  0  0
   -1.3807   -1.9955    4.2690 S   0  0  0  0  0  0  0  0  0  0  0  0
   -4.0215   -3.4777    0.7605 S   0  0  0  0  0  0  0  0  0  0  0  0
   -4.3748   -4.0568   -0.7638 C   0  0  0  0  0  0  0  0  0  0  0  0
   -5.3800   -3.5991   -1.6040 C   0  0  0  0  0  0  0  0  0  0  0  0
   -4.9896   -3.6174   -2.9368 C   0  0  0  0  0  0  0  0  0  0  0  0
   -3.4044   -4.2259   -3.0272 S   0  0  0  0  0  0  0  0  0  0  0  0
   -3.2219   -4.4997   -1.3696 C   0  0  0  0  0  0  0  0  0  0  0  0
   -5.7610   -2.9110   -3.9766 C   0  0  0  0  0  0  0  0  0  0  0  0
   -5.4457   -1.6586   -4.3757 C   0  0  0  0  0  0  0  0  0  0  0  0
   -4.0924   -1.0908   -4.3665 C   0  0  0  0  0  0  0  0  0  0  0  0
   -3.0129   -1.7359   -4.3975 O   0  0  0  0  0  0  0  0  0  0  0  0
   -4.1758    0.3341   -4.5199 C   0  0  0  0  0  0  0  0  0  0  0  0
   -3.1246    1.2502   -4.5015 C   0  0  0  0  0  0  0  0  0  0  0  0
   -3.4142    2.6175   -4.6525 C   0  0  0  0  0  0  0  0  0  0  0  0
   -2.3292    3.6188   -4.5890 C   0  0  0  0  0  0  0  0  0  0  0  0
   -1.1215    3.2537   -4.7062 O   0  0  0  0  0  0  0  0  0  0  0  0
   -2.6383    4.9677   -4.3862 O   0  0  0  0  0  0  0  0  0  0  0  0
   -1.6365    5.9730   -4.2699 C   0  0  0  0  0  0  0  0  0  0  0  0
   -4.7523    3.0181   -4.8643 C   0  0  0  0  0  0  0  0  0  0  0  0
   -5.7897    2.0708   -4.9014 C   0  0  0  0  0  0  0  0  0  0  0  0
   -5.4937    0.7114   -4.6798 C   0  0  0  0  0  0  0  0  0  0  0  0
   -6.3793   -0.4952   -4.6162 C   0  0  0  0  0  0  0  0  0  0  0  0
   -7.7452   -0.4912   -4.5881 C   0  0  0  0  0  0  0  0  0  0  0  0
   -8.5105    0.7214   -4.4696 C   0  0  0  0  0  0  0  0  0  0  0  0
   -9.1408    1.6872   -4.3326 N   0  0  0  0  0  0  0  0  0  0  0  0
   -8.5446   -1.6868   -4.5510 C   0  0  0  0  0  0  0  0  0  0  0  0
   -9.1952   -2.6413   -4.5013 N   0  0  0  0  0  0  0  0  0  0  0  0
    2.8361    6.8008    0.7123 H   0  0  0  0  0  0  0  0  0  0  0  0
    8.1656    3.4644    1.0337 H   0  0  0  0  0  0  0  0  0  0  0  0
   10.3430    4.6686    1.0938 H   0  0  0  0  0  0  0  0  0  0  0  0
    8.2821    8.4365    1.1406 H   0  0  0  0  0  0  0  0  0  0  0  0
    3.7643    3.9175   -1.3047 H   0  0  0  0  0  0  0  0  0  0  0  0
    3.0392   -1.7298   -1.6771 H   0  0  0  0  0  0  0  0  0  0  0  0
    3.5581   -1.5819   -4.2103 H   0  0  0  0  0  0  0  0  0  0  0  0
    0.3803   -1.3158   -6.4400 H   0  0  0  0  0  0  0  0  0  0  0  0
    2.1396   -0.9263   -6.4777 H   0  0  0  0  0  0  0  0  0  0  0  0
    2.6870   -3.3621   -6.3956 H   0  0  0  0  0  0  0  0  0  0  0  0
    0.9244   -3.7625   -6.2824 H   0  0  0  0  0  0  0  0  0  0  0  0
    1.5890   -3.0003   -7.7776 H   0  0  0  0  0  0  0  0  0  0  0  0
    1.9823   -4.2478   -1.6431 H   0  0  0  0  0  0  0  0  0  0  0  0
    3.0391   -5.1015   -3.6590 H   0  0  0  0  0  0  0  0  0  0  0  0
    1.2258   -6.6526   -6.4762 H   0  0  0  0  0  0  0  0  0  0  0  0
    2.8082   -6.0389   -5.9082 H   0  0  0  0  0  0  0  0  0  0  0  0
    3.0682   -8.0773   -4.4396 H   0  0  0  0  0  0  0  0  0  0  0  0
    1.5010   -8.7179   -5.0997 H   0  0  0  0  0  0  0  0  0  0  0  0
    2.9195   -8.4841   -6.1902 H   0  0  0  0  0  0  0  0  0  0  0  0
   -0.6462   -7.0235   -4.7447 H   0  0  0  0  0  0  0  0  0  0  0  0
   -1.6625   -6.2065   -2.7005 H   0  0  0  0  0  0  0  0  0  0  0  0
    1.6264   -3.9617    0.8850 H   0  0  0  0  0  0  0  0  0  0  0  0
    2.6563   -5.4553    2.4986 H   0  0  0  0  0  0  0  0  0  0  0  0
    1.1880   -8.6650    3.5963 H   0  0  0  0  0  0  0  0  0  0  0  0
    2.4565   -7.4431    3.9182 H   0  0  0  0  0  0  0  0  0  0  0  0
    3.7834   -8.3081    1.9443 H   0  0  0  0  0  0  0  0  0  0  0  0
    3.4902   -9.5632    3.2064 H   0  0  0  0  0  0  0  0  0  0  0  0
    2.5184   -9.5784    1.6881 H   0  0  0  0  0  0  0  0  0  0  0  0
   -0.1162   -8.5708    1.4253 H   0  0  0  0  0  0  0  0  0  0  0  0
   -1.1699   -7.0804   -0.2023 H   0  0  0  0  0  0  0  0  0  0  0  0
   -2.0725    1.1744    3.8601 H   0  0  0  0  0  0  0  0  0  0  0  0
   -4.2759    2.2106    3.8881 H   0  0  0  0  0  0  0  0  0  0  0  0
   -6.1652    3.1083    0.8632 H   0  0  0  0  0  0  0  0  0  0  0  0
   -6.2416    2.9238    2.6433 H   0  0  0  0  0  0  0  0  0  0  0  0
   -6.5844    5.2811    2.0172 H   0  0  0  0  0  0  0  0  0  0  0  0
   -5.0285    5.3207    1.1067 H   0  0  0  0  0  0  0  0  0  0  0  0
   -5.0266    5.1324    2.9112 H   0  0  0  0  0  0  0  0  0  0  0  0
   -3.9114    3.1491   -0.2914 H   0  0  0  0  0  0  0  0  0  0  0  0
   -1.7047    2.1175   -0.3480 H   0  0  0  0  0  0  0  0  0  0  0  0
   -0.1275    2.8067    3.6885 H   0  0  0  0  0  0  0  0  0  0  0  0
    1.3034    2.8463    5.6591 H   0  0  0  0  0  0  0  0  0  0  0  0
    3.3786    2.0100    6.7249 H   0  0  0  0  0  0  0  0  0  0  0  0
    4.0550    0.4266    6.2579 H   0  0  0  0  0  0  0  0  0  0  0  0
    2.1100   -0.7137    7.4460 H   0  0  0  0  0  0  0  0  0  0  0  0
    1.5287    0.9201    7.9634 H   0  0  0  0  0  0  0  0  0  0  0  0
    3.1294    0.3091    8.5407 H   0  0  0  0  0  0  0  0  0  0  0  0
    2.8971   -1.0102    4.6031 H   0  0  0  0  0  0  0  0  0  0  0  0
    1.4577   -1.0864    2.6467 H   0  0  0  0  0  0  0  0  0  0  0  0
   -4.0578   -0.9480    2.1804 H   0  0  0  0  0  0  0  0  0  0  0  0
   -4.8218   -1.1925    4.6328 H   0  0  0  0  0  0  0  0  0  0  0  0
   -3.9019   -1.6245    6.9952 H   0  0  0  0  0  0  0  0  0  0  0  0
   -2.1256   -1.3767    7.1522 H   0  0  0  0  0  0  0  0  0  0  0  0
   -2.8341   -3.5596    8.1201 H   0  0  0  0  0  0  0  0  0  0  0  0
   -1.7326   -3.8092    6.7142 H   0  0  0  0  0  0  0  0  0  0  0  0
   -3.5161   -4.0641    6.5208 H   0  0  0  0  0  0  0  0  0  0  0  0
   -6.2613   -3.0764   -1.2554 H   0  0  0  0  0  0  0  0  0  0  0  0
   -6.7670   -3.2616   -4.0463 H   0  0  0  0  0  0  0  0  0  0  0  0
   -2.1070    0.9006   -4.3543 H   0  0  0  0  0  0  0  0  0  0  0  0
   -0.9427    5.7262   -3.4368 H   0  0  0  0  0  0  0  0  0  0  0  0
   -1.0685    6.0532   -5.2209 H   0  0  0  0  0  0  0  0  0  0  0  0
   -2.1213    6.9438   -4.0557 H   0  0  0  0  0  0  0  0  0  0  0  0
   -4.9933    4.0622   -5.0208 H   0  0  0  0  0  0  0  0  0  0  0  0
   -6.7885    2.4204   -5.1100 H   0  0  0  0  0  0  0  0  0  0  0  0
  1  2  2  3
  2  3  1  0
  3  4  2  0
  3  5  1  0
  5  6  2  0
  6  7  1  0
  7  8  2  0
  8  9  1  0
  8 10  1  0
 10 11  2  0
 11 12  1  0
 12 13  2  3
 13 14  1  0
 14 15  3  0
 13 16  1  0
 16 17  3  0
  1 18  1  0
 18 19  2  0
 19 20  1  0
 20 21  1  0
 21 22  1  0
 22 23  1  0
 23 24  2  0
 24 25  1  0
 25 26  2  0
 26 27  1  0
 27 28  2  0
 28 29  1  0
 29 30  1  0
 28 31  1  0
 24 32  1  0
 32 33  1  0
 33 34  1  0
 34 35  2  0
 35 36  1  0
 36 37  2  0
 37 38  1  0
 38 39  1  0
 37 40  1  0
 40 41  2  0
 33 42  1  0
 42 43  2  0
 43 44  1  0
 44 45  2  0
 45 46  1  0
 46 47  1  0
 45 48  1  0
 48 49  2  0
 33 50  1  0
 50 51  2  0
 51 52  1  0
 52 53  1  0
 53 54  2  0
 54 55  1  0
 55 56  1  0
 56 57  2  0
 57 58  1  0
 58 59  2  0
 59 60  1  0
 60 61  1  0
 59 62  1  0
 62 63  2  0
 55 64  1  0
 64 65  2  0
 65 66  1  0
 66 67  2  0
 67 68  1  0
 68 69  1  0
 67 70  1  0
 70 71  2  0
 55 72  1  0
 72 73  1  0
 73 74  1  0
 53 75  1  0
 75 76  2  0
 76 77  1  0
 77 78  2  0
 78 79  1  0
 79 80  1  0
 78 81  1  0
 51 82  1  0
 82 83  1  0
 83 84  1  0
 84 85  2  0
 85 86  1  0
 86 87  1  0
 85 88  1  0
 88 89  2  3
 89 90  1  0
 90 91  2  0
 90 92  1  0
 92 93  2  0
 93 94  1  0
 94 95  1  0
 95 96  2  0
 95 97  1  0
 97 98  1  0
 94 99  2  0
 99100  1  0
100101  2  0
101102  1  0
102103  2  3
103104  1  0
104105  3  0
103106  1  0
106107  3  0
 12  2  1  0
 74 18  1  0
 81 75  1  0
 87 83  2  0
102 89  1  0
 11  5  1  0
 73 20  2  0
101 92  1  0
 72 22  2  0
 54 23  1  0
 63 56  1  0
 71 64  1  0
 31 25  1  0
 52 32  2  0
 41 34  1  0
 49 42  1  0
 87 50  1  0
  1108  1  0
  6109  1  0
  7110  1  0
 10111  1  0
 19112  1  0
 26113  1  0
 27114  1  0
 29115  1  0
 29116  1  0
 30117  1  0
 30118  1  0
 30119  1  0
 35120  1  0
 36121  1  0
 38122  1  0
 38123  1  0
 39124  1  0
 39125  1  0
 39126  1  0
 40127  1  0
 41128  1  0
 43129  1  0
 44130  1  0
 46131  1  0
 46132  1  0
 47133  1  0
 47134  1  0
 47135  1  0
 48136  1  0
 49137  1  0
 57138  1  0
 58139  1  0
 60140  1  0
 60141  1  0
 61142  1  0
 61143  1  0
 61144  1  0
 62145  1  0
 63146  1  0
 65147  1  0
 66148  1  0
 68149  1  0
 68150  1  0
 69151  1  0
 69152  1  0
 69153  1  0
 70154  1  0
 71155  1  0
 76156  1  0
 77157  1  0
 79158  1  0
 79159  1  0
 80160  1  0
 80161  1  0
 80162  1  0
 84163  1  0
 88164  1  0
 93165  1  0
 98166  1  0
 98167  1  0
 98168  1  0
 99169  1  0
100170  1  0
M  END

