
     RDKit          3D

218239  0  0  0  0  0  0  0  0999 V2000
    5.5588    2.5145   -8.2009 C   0  0  0  0  0  0  0  0  0  0  0  0
    6.6605    2.7157   -7.3308 C   0  0  0  0  0  0  0  0  0  0  0  0
    6.4804    2.8298   -5.9802 C   0  0  0  0  0  0  0  0  0  0  0  0
    5.4443    3.2575   -5.3118 O   0  0  0  0  0  0  0  0  0  0  0  0
    7.6992    2.3826   -5.3375 C   0  0  0  0  0  0  0  0  0  0  0  0
    7.9827    2.5313   -3.9602 C   0  0  0  0  0  0  0  0  0  0  0  0
    9.2856    2.2583   -3.5623 C   0  0  0  0  0  0  0  0  0  0  0  0
   10.1591    1.8846   -4.4382 C   0  0  0  0  0  0  0  0  0  0  0  0
   12.1934    1.5607   -3.8800 I   0  0  0  0  0  0  0  0  0  0  0  0
    9.8225    1.7456   -5.8255 C   0  0  0  0  0  0  0  0  0  0  0  0
    8.5543    2.0069   -6.2828 C   0  0  0  0  0  0  0  0  0  0  0  0
    7.9297    2.1989   -7.7992 C   0  0  0  0  0  0  0  0  0  0  0  0
    8.8306    2.1578   -8.5979 C   0  0  0  0  0  0  0  0  0  0  0  0
    9.8829    0.9762   -8.2058 C   0  0  0  0  0  0  0  0  0  0  0  0
   10.6953    0.0861   -7.8946 N   0  0  0  0  0  0  0  0  0  0  0  0
    9.5031    2.5398   -9.7695 C   0  0  0  0  0  0  0  0  0  0  0  0
   10.0708    2.8486  -10.7591 N   0  0  0  0  0  0  0  0  0  0  0  0
    4.3328    2.3287   -7.5084 C   0  0  0  0  0  0  0  0  0  0  0  0
    2.5849    3.0264   -7.3123 Se  0  0  0  0  0  2  0  0  0  0  0  0
    2.0413    1.5801   -6.0609 C   0  0  0  0  0  0  0  0  0  0  0  0
    0.9635    1.0766   -5.3216 C   0  0  0  0  0  0  0  0  0  0  0  0
    1.4336   -0.0896   -4.7136 C   0  0  0  0  0  0  0  0  0  0  0  0
    2.8605   -0.2988   -5.0565 C   0  0  0  0  0  0  0  0  0  0  0  0
    3.1905    0.8649   -6.0099 C   0  0  0  0  0  0  0  0  0  0  0  0
    4.1787    1.2528   -6.6683 C   0  0  0  0  0  0  0  0  0  0  0  0
    3.6921   -0.0964   -3.8004 C   0  0  0  0  0  0  0  0  0  0  0  0
    3.1772    0.5568   -2.7272 C   0  0  0  0  0  0  0  0  0  0  0  0
    3.7988    0.8792   -1.5605 C   0  0  0  0  0  0  0  0  0  0  0  0
    5.2276    0.4605   -1.5384 C   0  0  0  0  0  0  0  0  0  0  0  0
    5.9106    0.9424   -0.3085 C   0  0  0  0  0  0  0  0  0  0  0  0
    5.5944    0.2120    0.9421 C   0  0  0  0  0  0  0  0  0  0  0  0
    5.7226   -0.1706   -2.5420 C   0  0  0  0  0  0  0  0  0  0  0  0
    4.9906   -0.4851   -3.6990 C   0  0  0  0  0  0  0  0  0  0  0  0
    3.0518   -1.6721   -5.5854 C   0  0  0  0  0  0  0  0  0  0  0  0
    4.1871   -1.7463   -6.5975 C   0  0  0  0  0  0  0  0  0  0  0  0
    4.4248   -2.9814   -7.1268 C   0  0  0  0  0  0  0  0  0  0  0  0
    3.6237   -4.1144   -6.7506 C   0  0  0  0  0  0  0  0  0  0  0  0
    4.1092   -5.4016   -7.4183 C   0  0  0  0  0  0  0  0  0  0  0  0
    3.7926   -5.2566   -8.8821 C   0  0  0  0  0  0  0  0  0  0  0  0
    2.6643   -3.9946   -5.9249 C   0  0  0  0  0  0  0  0  0  0  0  0
    2.4432   -2.7086   -5.3691 C   0  0  0  0  0  0  0  0  0  0  0  0
    0.5784   -0.7010   -3.8880 C   0  0  0  0  0  0  0  0  0  0  0  0
   -0.6736   -0.2273   -3.6298 C   0  0  0  0  0  0  0  0  0  0  0  0
   -1.4685   -0.4471   -2.4073 C   0  0  0  0  0  0  0  0  0  0  0  0
   -2.4064    0.5180   -2.2478 C   0  0  0  0  0  0  0  0  0  0  0  0
   -2.5700    1.0754   -3.6249 C   0  0  0  0  0  0  0  0  0  0  0  0
   -1.1565    0.9099   -4.1974 C   0  0  0  0  0  0  0  0  0  0  0  0
   -0.3190    1.5786   -5.0903 C   0  0  0  0  0  0  0  0  0  0  0  0
   -3.2876   -0.0453   -4.3843 C   0  0  0  0  0  0  0  0  0  0  0  0
   -2.6474   -0.7130   -5.3851 C   0  0  0  0  0  0  0  0  0  0  0  0
   -3.2459   -1.8894   -5.8656 C   0  0  0  0  0  0  0  0  0  0  0  0
   -4.3532   -2.3775   -5.4267 C   0  0  0  0  0  0  0  0  0  0  0  0
   -4.8828   -3.7437   -5.7936 C   0  0  0  0  0  0  0  0  0  0  0  0
   -5.7511   -3.7268   -6.9814 C   0  0  0  0  0  0  0  0  0  0  0  0
   -5.0840   -1.6870   -4.4002 C   0  0  0  0  0  0  0  0  0  0  0  0
   -4.5031   -0.4978   -3.8847 C   0  0  0  0  0  0  0  0  0  0  0  0
   -3.1061    2.3662   -3.9149 C   0  0  0  0  0  0  0  0  0  0  0  0
   -4.3984    2.5984   -4.4838 C   0  0  0  0  0  0  0  0  0  0  0  0
   -4.7278    3.9276   -4.8510 C   0  0  0  0  0  0  0  0  0  0  0  0
   -3.9210    4.9090   -4.6745 C   0  0  0  0  0  0  0  0  0  0  0  0
   -4.3445    6.3373   -4.9852 C   0  0  0  0  0  0  0  0  0  0  0  0
   -4.9399    6.5980   -6.2988 C   0  0  0  0  0  0  0  0  0  0  0  0
   -2.6080    4.8054   -4.0795 C   0  0  0  0  0  0  0  0  0  0  0  0
   -2.3188    3.4592   -3.7506 C   0  0  0  0  0  0  0  0  0  0  0  0
   -2.7020    0.3038   -0.9530 C   0  0  0  0  0  0  0  0  0  0  0  0
   -0.8642    0.1582    0.2181 S   0  0  0  0  0  0  0  0  0  0  0  0
   -1.6245    0.1243    1.6704 C   0  0  0  0  0  0  0  0  0  0  0  0
   -1.5082    0.2585    3.1403 C   0  0  0  0  0  0  0  0  0  0  0  0
   -0.3280    0.0469    3.8102 C   0  0  0  0  0  0  0  0  0  0  0  0
   -0.3442    0.0831    5.1529 C   0  0  0  0  0  0  0  0  0  0  0  0
    0.7362   -0.2554    6.1261 C   0  0  0  0  0  0  0  0  0  0  0  0
    1.7615    0.8195    6.0320 C   0  0  0  0  0  0  0  0  0  0  0  0
    1.5547    1.9244    5.6052 C   0  0  0  0  0  0  0  0  0  0  0  0
    2.4451    2.9971    5.2263 C   0  0  0  0  0  0  0  0  0  0  0  0
    3.7858    2.5089    5.4389 C   0  0  0  0  0  0  0  0  0  0  0  0
    4.9170    3.4343    5.0056 C   0  0  0  0  0  0  0  0  0  0  0  0
    5.6378    3.9500    6.1975 C   0  0  0  0  0  0  0  0  0  0  0  0
    4.0373    1.2992    5.9088 C   0  0  0  0  0  0  0  0  0  0  0  0
    3.1297    0.2658    6.2784 C   0  0  0  0  0  0  0  0  0  0  0  0
    1.3060   -1.5022    5.4739 C   0  0  0  0  0  0  0  0  0  0  0  0
    0.3276   -2.7084    5.8049 C   0  0  0  0  0  0  0  0  0  0  0  0
    0.9375   -3.7560    5.0219 C   0  0  0  0  0  0  0  0  0  0  0  0
    1.8673   -3.8632    4.3118 C   0  0  0  0  0  0  0  0  0  0  0  0
    2.3608   -5.1346    3.5701 C   0  0  0  0  0  0  0  0  0  0  0  0
    3.6563   -5.6254    4.0737 C   0  0  0  0  0  0  0  0  0  0  0  0
    2.8254   -2.8068    3.9758 C   0  0  0  0  0  0  0  0  0  0  0  0
    2.2483   -1.6757    4.7391 C   0  0  0  0  0  0  0  0  0  0  0  0
    0.0548   -0.4446    7.4063 C   0  0  0  0  0  0  0  0  0  0  0  0
   -1.2938    0.0539    7.1786 C   0  0  0  0  0  0  0  0  0  0  0  0
   -1.4680    0.3371    5.7402 C   0  0  0  0  0  0  0  0  0  0  0  0
   -2.7935    0.6043    5.1384 C   0  0  0  0  0  0  0  0  0  0  0  0
   -2.6241    0.4876    3.6550 C   0  0  0  0  0  0  0  0  0  0  0  0
   -3.7243    0.2621    2.6940 C   0  0  0  0  0  0  0  0  0  0  0  0
   -4.1552   -1.1569    2.7665 C   0  0  0  0  0  0  0  0  0  0  0  0
   -3.6729   -1.9048    3.8657 C   0  0  0  0  0  0  0  0  0  0  0  0
   -3.9339   -3.2712    3.9633 C   0  0  0  0  0  0  0  0  0  0  0  0
   -4.6243   -3.9168    3.0634 C   0  0  0  0  0  0  0  0  0  0  0  0
   -4.8824   -5.3817    3.0526 C   0  0  0  0  0  0  0  0  0  0  0  0
   -3.7462   -6.0575    2.2845 C   0  0  0  0  0  0  0  0  0  0  0  0
   -5.1930   -3.1984    1.8593 C   0  0  0  0  0  0  0  0  0  0  0  0
   -4.8416   -1.9118    1.9372 C   0  0  0  0  0  0  0  0  0  0  0  0
   -4.6560    1.2026    2.2504 C   0  0  0  0  0  0  0  0  0  0  0  0
   -5.7756    1.0694    1.4363 C   0  0  0  0  0  0  0  0  0  0  0  0
   -6.5330    1.2210    0.6638 C   0  0  0  0  0  0  0  0  0  0  0  0
   -6.0211    2.4878   -0.0778 C   0  0  0  0  0  0  0  0  0  0  0  0
   -6.7631    2.9053   -1.2596 C   0  0  0  0  0  0  0  0  0  0  0  0
   -7.9692    3.7525   -1.0362 C   0  0  0  0  0  0  0  0  0  0  0  0
   -4.8835    3.0362    0.3940 C   0  0  0  0  0  0  0  0  0  0  0  0
   -4.1363    2.4575    1.5700 C   0  0  0  0  0  0  0  0  0  0  0  0
   -2.8955    0.2085    1.2942 C   0  0  0  0  0  0  0  0  0  0  0  0
   -3.0362    0.2816   -0.0373 C   0  0  0  0  0  0  0  0  0  0  0  0
   -1.5099   -1.2609   -0.8561 S   0  0  0  0  0  0  0  0  0  0  0  0
   -2.1402   -0.1366    8.7682 Se  0  0  0  0  0  2  0  0  0  0  0  0
   -0.3195   -0.9987    9.6913 C   0  0  0  0  0  0  0  0  0  0  0  0
    0.2912   -0.8791    8.6338 C   0  0  0  0  0  0  0  0  0  0  0  0
   -0.7921   -1.2205   11.0517 C   0  0  0  0  0  0  0  0  0  0  0  0
   -1.0654   -0.2829   11.9313 C   0  0  0  0  0  0  0  0  0  0  0  0
   -1.5704   -0.7133   13.2499 C   0  0  0  0  0  0  0  0  0  0  0  0
   -1.6560   -1.9518   13.5987 O   0  0  0  0  0  0  0  0  0  0  0  0
   -1.9277    0.3369   14.0796 C   0  0  0  0  0  0  0  0  0  0  0  0
   -2.4574    0.7098   15.2697 C   0  0  0  0  0  0  0  0  0  0  0  0
   -2.7741    1.7985   15.8395 C   0  0  0  0  0  0  0  0  0  0  0  0
   -3.4215    1.8786   17.5075 Cl  0  0  0  0  0  0  0  0  0  0  0  0
   -2.5541    2.9844   15.1190 C   0  0  0  0  0  0  0  0  0  0  0  0
   -2.8700    4.1650   15.6086 F   0  0  0  0  0  0  0  0  0  0  0  0
   -1.9920    2.7600   13.8565 C   0  0  0  0  0  0  0  0  0  0  0  0
   -1.6427    1.6497   13.2442 C   0  0  0  0  0  0  0  0  0  0  0  0
   -1.0940    1.1921   11.9791 C   0  0  0  0  0  0  0  0  0  0  0  0
   -0.4330    1.9724   11.1670 C   0  0  0  0  0  0  0  0  0  0  0  0
    0.3948    2.0453   10.1145 C   0  0  0  0  0  0  0  0  0  0  0  0
    1.1530    2.1072    9.1711 N   0  0  0  0  0  0  0  0  0  0  0  0
    0.0743    3.1014   12.1746 C   0  0  0  0  0  0  0  0  0  0  0  0
    0.5168    4.0294   13.0164 N   0  0  0  0  0  0  0  0  0  0  0  0
    5.6730    2.5370   -9.2252 H   0  0  0  0  0  0  0  0  0  0  0  0
    7.2628    2.8419   -3.2544 H   0  0  0  0  0  0  0  0  0  0  0  0
    9.5369    2.3735   -2.4957 H   0  0  0  0  0  0  0  0  0  0  0  0
   10.6843    1.5211   -6.3884 H   0  0  0  0  0  0  0  0  0  0  0  0
    5.2541    0.7181   -6.5902 H   0  0  0  0  0  0  0  0  0  0  0  0
    2.0930    0.8568   -2.7410 H   0  0  0  0  0  0  0  0  0  0  0  0
    3.4135    1.3649   -0.7337 H   0  0  0  0  0  0  0  0  0  0  0  0
    5.7236    2.0226   -0.1913 H   0  0  0  0  0  0  0  0  0  0  0  0
    7.0487    0.8623   -0.4752 H   0  0  0  0  0  0  0  0  0  0  0  0
    5.9511    0.8539    1.8082 H   0  0  0  0  0  0  0  0  0  0  0  0
    4.4958    0.1526    1.1099 H   0  0  0  0  0  0  0  0  0  0  0  0
    6.0863   -0.7628    1.0447 H   0  0  0  0  0  0  0  0  0  0  0  0
    6.7735   -0.5363   -2.5318 H   0  0  0  0  0  0  0  0  0  0  0  0
    5.4456   -1.0226   -4.5075 H   0  0  0  0  0  0  0  0  0  0  0  0
    4.7366   -0.9413   -6.8156 H   0  0  0  0  0  0  0  0  0  0  0  0
    5.2337   -3.1621   -7.8315 H   0  0  0  0  0  0  0  0  0  0  0  0
    5.1725   -5.4805   -7.2155 H   0  0  0  0  0  0  0  0  0  0  0  0
    3.5317   -6.2127   -6.9340 H   0  0  0  0  0  0  0  0  0  0  0  0
    2.7686   -5.3207   -9.1634 H   0  0  0  0  0  0  0  0  0  0  0  0
    4.3501   -6.1269   -9.3719 H   0  0  0  0  0  0  0  0  0  0  0  0
    4.2734   -4.2988   -9.2284 H   0  0  0  0  0  0  0  0  0  0  0  0
    1.9776   -4.8072   -5.6079 H   0  0  0  0  0  0  0  0  0  0  0  0
    1.5486   -2.7720   -4.6369 H   0  0  0  0  0  0  0  0  0  0  0  0
    0.8531   -1.5790   -3.2936 H   0  0  0  0  0  0  0  0  0  0  0  0
   -0.6275    2.4516   -5.5979 H   0  0  0  0  0  0  0  0  0  0  0  0
   -1.7386   -0.3292   -5.7987 H   0  0  0  0  0  0  0  0  0  0  0  0
   -2.6190   -2.3675   -6.6560 H   0  0  0  0  0  0  0  0  0  0  0  0
   -4.0425   -4.4469   -5.9325 H   0  0  0  0  0  0  0  0  0  0  0  0
   -5.4439   -4.1563   -4.9069 H   0  0  0  0  0  0  0  0  0  0  0  0
   -6.0540   -4.7646   -7.2011 H   0  0  0  0  0  0  0  0  0  0  0  0
   -5.1918   -3.3578   -7.8773 H   0  0  0  0  0  0  0  0  0  0  0  0
   -6.6352   -3.0769   -6.8101 H   0  0  0  0  0  0  0  0  0  0  0  0
   -5.9846   -2.0809   -4.0541 H   0  0  0  0  0  0  0  0  0  0  0  0
   -4.9600    0.0598   -3.1090 H   0  0  0  0  0  0  0  0  0  0  0  0
   -5.0257    1.7817   -4.5825 H   0  0  0  0  0  0  0  0  0  0  0  0
   -5.7471    4.0474   -5.3027 H   0  0  0  0  0  0  0  0  0  0  0  0
   -3.3721    6.9563   -4.9821 H   0  0  0  0  0  0  0  0  0  0  0  0
   -4.9567    6.6839   -4.1554 H   0  0  0  0  0  0  0  0  0  0  0  0
   -4.2938    6.8476   -7.1350 H   0  0  0  0  0  0  0  0  0  0  0  0
   -5.7732    5.9058   -6.6395 H   0  0  0  0  0  0  0  0  0  0  0  0
   -5.5452    7.5902   -6.1832 H   0  0  0  0  0  0  0  0  0  0  0  0
   -1.9982    5.6206   -3.9571 H   0  0  0  0  0  0  0  0  0  0  0  0
   -1.2765    3.3414   -3.2977 H   0  0  0  0  0  0  0  0  0  0  0  0
    0.6059   -0.1691    3.2904 H   0  0  0  0  0  0  0  0  0  0  0  0
    0.4829    2.3556    5.4014 H   0  0  0  0  0  0  0  0  0  0  0  0
    2.1913    3.9024    4.8956 H   0  0  0  0  0  0  0  0  0  0  0  0
    5.5684    2.8368    4.3538 H   0  0  0  0  0  0  0  0  0  0  0  0
    4.4619    4.2533    4.3648 H   0  0  0  0  0  0  0  0  0  0  0  0
    5.1693    3.5751    7.1544 H   0  0  0  0  0  0  0  0  0  0  0  0
    5.7703    5.0187    6.2784 H   0  0  0  0  0  0  0  0  0  0  0  0
    6.6817    3.4888    6.2642 H   0  0  0  0  0  0  0  0  0  0  0  0
    5.1162    1.0374    6.0507 H   0  0  0  0  0  0  0  0  0  0  0  0
    3.3601   -0.6172    6.6275 H   0  0  0  0  0  0  0  0  0  0  0  0
   -0.3558   -2.5292    6.3756 H   0  0  0  0  0  0  0  0  0  0  0  0
    0.2265   -4.7120    5.2133 H   0  0  0  0  0  0  0  0  0  0  0  0
    1.5678   -5.9072    3.8454 H   0  0  0  0  0  0  0  0  0  0  0  0
    2.2752   -5.0427    2.5033 H   0  0  0  0  0  0  0  0  0  0  0  0
    3.6619   -6.4617    4.7807 H   0  0  0  0  0  0  0  0  0  0  0  0
    4.3448   -5.9589    3.2211 H   0  0  0  0  0  0  0  0  0  0  0  0
    4.1740   -4.7617    4.5791 H   0  0  0  0  0  0  0  0  0  0  0  0
    3.5966   -2.7672    3.4141 H   0  0  0  0  0  0  0  0  0  0  0  0
    2.9014   -0.7793    4.3996 H   0  0  0  0  0  0  0  0  0  0  0  0
   -3.6143    0.7971    5.5943 H   0  0  0  0  0  0  0  0  0  0  0  0
   -3.1075   -1.5084    4.6635 H   0  0  0  0  0  0  0  0  0  0  0  0
   -3.5184   -3.8179    4.8524 H   0  0  0  0  0  0  0  0  0  0  0  0
   -5.8300   -5.6031    2.5584 H   0  0  0  0  0  0  0  0  0  0  0  0
   -4.8881   -5.7869    4.0542 H   0  0  0  0  0  0  0  0  0  0  0  0
   -4.1010   -7.0210    1.9229 H   0  0  0  0  0  0  0  0  0  0  0  0
   -3.4577   -5.4382    1.4074 H   0  0  0  0  0  0  0  0  0  0  0  0
   -2.9426   -6.1925    3.0110 H   0  0  0  0  0  0  0  0  0  0  0  0
   -5.7093   -3.7945    1.2274 H   0  0  0  0  0  0  0  0  0  0  0  0
   -5.1821   -1.2934    0.9798 H   0  0  0  0  0  0  0  0  0  0  0  0
   -6.2907    0.0539    2.1863 H   0  0  0  0  0  0  0  0  0  0  0  0
   -7.4616    0.9653    0.1322 H   0  0  0  0  0  0  0  0  0  0  0  0
   -6.0235    3.4395   -1.9302 H   0  0  0  0  0  0  0  0  0  0  0  0
   -7.0651    2.0330   -1.9455 H   0  0  0  0  0  0  0  0  0  0  0  0
   -8.8537    3.3726   -1.6100 H   0  0  0  0  0  0  0  0  0  0  0  0
   -8.2531    3.8505    0.0325 H   0  0  0  0  0  0  0  0  0  0  0  0
   -7.7665    4.7563   -1.4786 H   0  0  0  0  0  0  0  0  0  0  0  0
   -4.3967    3.8905   -0.0633 H   0  0  0  0  0  0  0  0  0  0  0  0
   -3.2868    2.8968    1.9119 H   0  0  0  0  0  0  0  0  0  0  0  0
    1.4694   -1.2331    8.8056 H   0  0  0  0  0  0  0  0  0  0  0  0
   -0.8745   -2.2644   11.2883 H   0  0  0  0  0  0  0  0  0  0  0  0
   -2.6798   -0.2443   15.9270 H   0  0  0  0  0  0  0  0  0  0  0  0
   -1.9378    3.7279   13.2866 H   0  0  0  0  0  0  0  0  0  0  0  0
  1  2  2  3
  2  3  1  0
  3  4  2  0
  3  5  1  0
  5  6  2  0
  6  7  1  0
  7  8  2  0
  8  9  1  0
  8 10  1  0
 10 11  2  0
 11 12  1  0
 12 13  2  3
 13 14  1  0
 14 15  3  0
 13 16  1  0
 16 17  3  0
  1 18  1  0
 18 19  1  0
 19 20  1  0
 20 21  1  0
 21 22  2  0
 22 23  1  0
 23 24  1  0
 24 25  1  0
 23 26  1  0
 26 27  2  0
 27 28  1  0
 28 29  2  0
 29 30  1  0
 30 31  1  0
 29 32  1  0
 32 33  2  0
 23 34  1  0
 34 35  2  0
 35 36  1  0
 36 37  2  0
 37 38  1  0
 38 39  1  0
 37 40  1  0
 40 41  2  0
 22 42  1  0
 42 43  2  0
 43 44  1  0
 44 45  2  0
 45 46  1  0
 46 47  1  0
 47 48  2  0
 46 49  1  0
 49 50  2  0
 50 51  1  0
 51 52  2  0
 52 53  1  0
 53 54  1  0
 52 55  1  0
 55 56  2  0
 46 57  1  0
 57 58  2  0
 58 59  1  0
 59 60  2  0
 60 61  1  0
 61 62  1  0
 60 63  1  0
 63 64  2  0
 45 65  1  0
 65 66  1  0
 66 67  1  0
 67 68  1  0
 68 69  2  0
 69 70  1  0
 70 71  1  0
 71 72  1  0
 72 73  2  0
 73 74  1  0
 74 75  2  0
 75 76  1  0
 76 77  1  0
 75 78  1  0
 78 79  2  0
 71 80  1  0
 80 81  2  0
 81 82  1  0
 82 83  2  0
 83 84  1  0
 84 85  1  0
 83 86  1  0
 86 87  2  0
 71 88  1  0
 88 89  2  0
 89 90  1  0
 90 91  1  0
 91 92  2  0
 92 93  1  0
 93 94  1  0
 94 95  2  0
 95 96  1  0
 96 97  2  0
 97 98  1  0
 98 99  1  0
 97100  1  0
100101  2  0
 93102  1  0
102103  2  0
103104  1  0
104105  2  0
105106  1  0
106107  1  0
105108  1  0
108109  2  0
 93110  1  0
110111  1  0
111112  1  0
 89113  1  0
113114  1  0
114115  2  0
114116  1  0
116117  2  3
117118  1  0
118119  2  0
118120  1  0
120121  2  0
121122  1  0
122123  1  0
122124  2  0
124125  1  0
124126  1  0
126127  2  0
127128  1  0
128129  2  3
129130  1  0
130131  3  0
129132  1  0
132133  3  0
 12  2  1  0
 25 18  2  0
 33 26  1  0
 41 34  1  0
 47 43  1  0
 56 49  1  0
 64 57  1  0
111 65  2  0
128117  1  0
 11  5  1  0
 24 20  2  0
112 44  1  0
127120  1  0
 48 21  1  0
110 67  2  0
 92 68  1  0
101 94  1  0
109102  1  0
 90 70  2  0
 79 72  1  0
 87 80  1  0
115 88  1  0
  1134  1  0
  6135  1  0
  7136  1  0
 10137  1  0
 25138  1  0
 27139  1  0
 28140  1  0
 30141  1  0
 30142  1  0
 31143  1  0
 31144  1  0
 31145  1  0
 32146  1  0
 33147  1  0
 35148  1  0
 36149  1  0
 38150  1  0
 38151  1  0
 39152  1  0
 39153  1  0
 39154  1  0
 40155  1  0
 41156  1  0
 42157  1  0
 48158  1  0
 50159  1  0
 51160  1  0
 53161  1  0
 53162  1  0
 54163  1  0
 54164  1  0
 54165  1  0
 55166  1  0
 56167  1  0
 58168  1  0
 59169  1  0
 61170  1  0
 61171  1  0
 62172  1  0
 62173  1  0
 62174  1  0
 63175  1  0
 64176  1  0
 69177  1  0
 73178  1  0
 74179  1  0
 76180  1  0
 76181  1  0
 77182  1  0
 77183  1  0
 77184  1  0
 78185  1  0
 79186  1  0
 81187  1  0
 82188  1  0
 84189  1  0
 84190  1  0
 85191  1  0
 85192  1  0
 85193  1  0
 86194  1  0
 87195  1  0
 91196  1  0
 95197  1  0
 96198  1  0
 98199  1  0
 98200  1  0
 99201  1  0
 99202  1  0
 99203  1  0
100204  1  0
101205  1  0
103206  1  0
104207  1  0
106208  1  0
106209  1  0
107210  1  0
107211  1  0
107212  1  0
108213  1  0
109214  1  0
115215  1  0
116216  1  0
121217  1  0
126218  1  0
M  END

