
     RDKit          3D

 94105  0  0  0  0  0  0  0  0999 V2000
   -3.1951    1.3263    6.5219 C   0  0  0  0  0  0  0  0  0  0  0  0
   -3.9355    0.2111    6.3645 C   0  0  0  0  0  0  0  0  0  0  0  0
   -3.9329   -0.6852    5.2048 C   0  0  0  0  0  0  0  0  0  0  0  0
   -2.9911   -0.8563    4.3866 O   0  0  0  0  0  0  0  0  0  0  0  0
   -5.1602   -1.4484    5.2240 C   0  0  0  0  0  0  0  0  0  0  0  0
   -5.6413   -2.3303    4.2582 C   0  0  0  0  0  0  0  0  0  0  0  0
   -6.8988   -2.9115    4.4501 C   0  0  0  0  0  0  0  0  0  0  0  0
   -7.6419   -2.6164    5.6032 C   0  0  0  0  0  0  0  0  0  0  0  0
   -9.5513   -3.4761    5.8528 I   0  0  0  0  0  0  0  0  0  0  0  0
   -7.1391   -1.7272    6.5669 C   0  0  0  0  0  0  0  0  0  0  0  0
   -5.8734   -1.1569    6.3719 C   0  0  0  0  0  0  0  0  0  0  0  0
   -5.0943   -0.2050    7.2109 C   0  0  0  0  0  0  0  0  0  0  0  0
   -5.2617    0.0405    8.5342 C   0  0  0  0  0  0  0  0  0  0  0  0
   -6.4028   -0.4387    9.2699 C   0  0  0  0  0  0  0  0  0  0  0  0
   -7.3199   -0.8147    9.8717 N   0  0  0  0  0  0  0  0  0  0  0  0
   -4.2623    0.7062    9.3275 C   0  0  0  0  0  0  0  0  0  0  0  0
   -3.4627    1.2411    9.9771 N   0  0  0  0  0  0  0  0  0  0  0  0
   -2.1934    1.8239    5.5563 C   0  0  0  0  0  0  0  0  0  0  0  0
   -0.9321    2.3452    5.9066 C   0  0  0  0  0  0  0  0  0  0  0  0
   -0.2908    2.2102    7.2627 C   0  0  0  0  0  0  0  0  0  0  0  0
    0.4054    0.8606    7.3903 C   0  0  0  0  0  0  0  0  0  0  0  0
   -0.2560    2.8226    4.7752 C   0  0  0  0  0  0  0  0  0  0  0  0
    1.3567    3.3039    4.5177 S   0  0  0  0  0  0  0  0  0  0  0  0
    1.0930    3.4067    2.8421 C   0  0  0  0  0  0  0  0  0  0  0  0
    1.9027    3.2375    1.7526 C   0  0  0  0  0  0  0  0  0  0  0  0
    3.2994    3.1266    1.6810 C   0  0  0  0  0  0  0  0  0  0  0  0
    3.8844    2.5815    0.5006 C   0  0  0  0  0  0  0  0  0  0  0  0
    5.2331    2.4578    0.4804 N   0  0  0  0  0  0  0  0  0  0  0  0
    5.5853    3.0446    1.9883 S   0  0  0  0  0  0  0  0  0  0  0  0
    4.1446    3.4514    2.6906 N   0  0  0  0  0  0  0  0  0  0  0  0
    3.0447    2.2098   -0.5519 C   0  0  0  0  0  0  0  0  0  0  0  0
    3.3121    1.7415   -1.8034 C   0  0  0  0  0  0  0  0  0  0  0  0
    4.6393    1.3098   -2.7705 S   0  0  0  0  0  0  0  0  0  0  0  0
    3.6021    1.0803   -4.1144 C   0  0  0  0  0  0  0  0  0  0  0  0
    3.7952    0.5834   -5.4018 C   0  0  0  0  0  0  0  0  0  0  0  0
    5.1294    0.1716   -5.9600 C   0  0  0  0  0  0  0  0  0  0  0  0
    5.6476    1.1990   -6.9566 C   0  0  0  0  0  0  0  0  0  0  0  0
    2.5662    0.4846   -6.0834 C   0  0  0  0  0  0  0  0  0  0  0  0
    1.2795    0.9953   -5.0868 S   0  0  0  0  0  0  0  0  0  0  0  0
    2.2935    1.3523   -3.8005 C   0  0  0  0  0  0  0  0  0  0  0  0
    2.1351    1.7125   -2.4735 C   0  0  0  0  0  0  0  0  0  0  0  0
    1.0842    2.1422   -1.7338 N   0  0  0  0  0  0  0  0  0  0  0  0
    1.6505    2.3773   -0.5048 C   0  0  0  0  0  0  0  0  0  0  0  0
    1.0559    2.8155    0.7100 C   0  0  0  0  0  0  0  0  0  0  0  0
   -0.2268    2.6291    1.1754 N   0  0  0  0  0  0  0  0  0  0  0  0
   -0.1641    3.0264    2.4739 C   0  0  0  0  0  0  0  0  0  0  0  0
   -0.9363    2.6971    3.5869 C   0  0  0  0  0  0  0  0  0  0  0  0
   -2.4374    2.0068    3.8716 S   0  0  0  0  0  0  0  0  0  0  0  0
   -1.2373    1.6997    0.6498 C   0  0  0  0  0  0  0  0  0  0  0  0
   -2.5595    2.4142    0.3814 C   0  0  0  0  0  0  0  0  0  0  0  0
   -0.0738    2.8272   -2.3199 C   0  0  0  0  0  0  0  0  0  0  0  0
    0.3270    4.2059   -2.8495 C   0  0  0  0  0  0  0  0  0  0  0  0
    2.3657   -0.1313   -7.3982 C   0  0  0  0  0  0  0  0  0  0  0  0
    2.2043   -1.4580   -7.5515 C   0  0  0  0  0  0  0  0  0  0  0  0
    2.3358   -2.4644   -6.4746 C   0  0  0  0  0  0  0  0  0  0  0  0
    2.5040   -2.2521   -5.2427 O   0  0  0  0  0  0  0  0  0  0  0  0
    2.3336   -3.7554   -7.1061 C   0  0  0  0  0  0  0  0  0  0  0  0
    2.5519   -5.3424   -6.6182 S   0  0  0  0  0  0  0  0  0  0  0  0
    2.4589   -5.9298   -8.2147 C   0  0  0  0  0  0  0  0  0  0  0  0
    2.5785   -7.6259   -8.6513 Cl  0  0  0  0  0  0  0  0  0  0  0  0
    2.2546   -4.8761   -9.1156 C   0  0  0  0  0  0  0  0  0  0  0  0
    2.1956   -3.6472   -8.4501 C   0  0  0  0  0  0  0  0  0  0  0  0
    2.0406   -2.2250   -8.8383 C   0  0  0  0  0  0  0  0  0  0  0  0
    1.6464   -1.7723  -10.0568 C   0  0  0  0  0  0  0  0  0  0  0  0
    1.3245   -0.3925  -10.3038 C   0  0  0  0  0  0  0  0  0  0  0  0
    1.0595    0.7183  -10.5071 N   0  0  0  0  0  0  0  0  0  0  0  0
    1.4423   -2.6674  -11.1664 C   0  0  0  0  0  0  0  0  0  0  0  0
    1.2616   -3.3828  -12.0616 N   0  0  0  0  0  0  0  0  0  0  0  0
   -3.3581    1.9594    7.3809 H   0  0  0  0  0  0  0  0  0  0  0  0
   -5.0660   -2.5468    3.3746 H   0  0  0  0  0  0  0  0  0  0  0  0
   -7.3015   -3.5899    3.7052 H   0  0  0  0  0  0  0  0  0  0  0  0
   -7.7491   -1.4846    7.4164 H   0  0  0  0  0  0  0  0  0  0  0  0
   -1.0542    2.3039    8.0631 H   0  0  0  0  0  0  0  0  0  0  0  0
    0.4543    3.0233    7.4094 H   0  0  0  0  0  0  0  0  0  0  0  0
    1.2214    0.7829    6.6436 H   0  0  0  0  0  0  0  0  0  0  0  0
    0.8461    0.7611    8.4009 H   0  0  0  0  0  0  0  0  0  0  0  0
   -0.3102    0.0295    7.2267 H   0  0  0  0  0  0  0  0  0  0  0  0
    5.0339   -0.8227   -6.4503 H   0  0  0  0  0  0  0  0  0  0  0  0
    5.8717    0.0777   -5.1442 H   0  0  0  0  0  0  0  0  0  0  0  0
    4.9742    1.2462   -7.8336 H   0  0  0  0  0  0  0  0  0  0  0  0
    5.7036    2.1972   -6.4833 H   0  0  0  0  0  0  0  0  0  0  0  0
    6.6533    0.9056   -7.3001 H   0  0  0  0  0  0  0  0  0  0  0  0
   -0.8786    1.2021   -0.2696 H   0  0  0  0  0  0  0  0  0  0  0  0
   -1.4073    0.8769    1.3749 H   0  0  0  0  0  0  0  0  0  0  0  0
   -3.1705    1.8187   -0.3358 H   0  0  0  0  0  0  0  0  0  0  0  0
   -2.3959    3.4326   -0.0338 H   0  0  0  0  0  0  0  0  0  0  0  0
   -3.1443    2.5294    1.3147 H   0  0  0  0  0  0  0  0  0  0  0  0
   -0.5129    2.2131   -3.1409 H   0  0  0  0  0  0  0  0  0  0  0  0
   -0.8584    2.9921   -1.5701 H   0  0  0  0  0  0  0  0  0  0  0  0
    1.0579    4.1080   -3.6782 H   0  0  0  0  0  0  0  0  0  0  0  0
    0.7733    4.8046   -2.0265 H   0  0  0  0  0  0  0  0  0  0  0  0
   -0.5720    4.7249   -3.2454 H   0  0  0  0  0  0  0  0  0  0  0  0
    2.4128    0.5314   -8.2477 H   0  0  0  0  0  0  0  0  0  0  0  0
    2.1672   -5.0177  -10.1802 H   0  0  0  0  0  0  0  0  0  0  0  0
  1  2  2  3
  2  3  1  0
  3  4  2  0
  3  5  1  0
  5  6  2  0
  6  7  1  0
  7  8  2  0
  8  9  1  0
  8 10  1  0
 10 11  2  0
 11 12  1  0
 12 13  2  3
 13 14  1  0
 14 15  3  0
 13 16  1  0
 16 17  3  0
  1 18  1  0
 18 19  2  0
 19 20  1  0
 20 21  1  0
 19 22  1  0
 22 23  1  0
 23 24  1  0
 24 25  1  0
 25 26  1  0
 26 27  1  0
 27 28  2  0
 28 29  1  0
 29 30  1  0
 27 31  1  0
 31 32  1  0
 32 33  1  0
 33 34  1  0
 34 35  1  0
 35 36  1  0
 36 37  1  0
 35 38  2  0
 38 39  1  0
 39 40  1  0
 40 41  1  0
 41 42  1  0
 42 43  1  0
 43 44  1  0
 44 45  1  0
 45 46  1  0
 46 47  1  0
 47 48  1  0
 45 49  1  0
 49 50  1  0
 42 51  1  0
 51 52  1  0
 38 53  1  0
 53 54  2  3
 54 55  1  0
 55 56  2  0
 55 57  1  0
 57 58  1  0
 58 59  1  0
 59 60  1  0
 59 61  2  0
 61 62  1  0
 62 63  1  0
 63 64  2  3
 64 65  1  0
 65 66  3  0
 64 67  1  0
 67 68  3  0
 12  2  1  0
 48 18  1  0
 63 54  1  0
 11  5  1  0
 47 22  2  0
 62 57  2  0
 46 24  2  0
 44 25  2  0
 30 26  2  0
 43 31  2  0
 41 32  2  0
 40 34  2  0
  1 69  1  0
  6 70  1  0
  7 71  1  0
 10 72  1  0
 20 73  1  0
 20 74  1  0
 21 75  1  0
 21 76  1  0
 21 77  1  0
 36 78  1  0
 36 79  1  0
 37 80  1  0
 37 81  1  0
 37 82  1  0
 49 83  1  0
 49 84  1  0
 50 85  1  0
 50 86  1  0
 50 87  1  0
 51 88  1  0
 51 89  1  0
 52 90  1  0
 52 91  1  0
 52 92  1  0
 53 93  1  0
 61 94  1  0
M  END

