
     RDKit          3D

100111  0  0  0  0  0  0  0  0999 V2000
    3.6056    0.2683   -7.7972 C   0  0  0  0  0  0  0  0  0  0  0  0
    2.5629    0.0223   -8.6130 C   0  0  0  0  0  0  0  0  0  0  0  0
    1.1651    0.3875   -8.3460 C   0  0  0  0  0  0  0  0  0  0  0  0
    0.7031    0.8770   -7.2804 O   0  0  0  0  0  0  0  0  0  0  0  0
    0.4184    0.2630   -9.5782 C   0  0  0  0  0  0  0  0  0  0  0  0
   -0.9252    0.5699   -9.7992 C   0  0  0  0  0  0  0  0  0  0  0  0
   -1.4325    0.4489  -11.0993 C   0  0  0  0  0  0  0  0  0  0  0  0
   -0.5886    0.0534  -12.1538 C   0  0  0  0  0  0  0  0  0  0  0  0
   -1.3550   -0.0935  -14.1114 I   0  0  0  0  0  0  0  0  0  0  0  0
    0.7635   -0.2411  -11.9109 C   0  0  0  0  0  0  0  0  0  0  0  0
    1.2587   -0.1519  -10.5971 C   0  0  0  0  0  0  0  0  0  0  0  0
    2.6255   -0.4029  -10.0490 C   0  0  0  0  0  0  0  0  0  0  0  0
    3.6337   -1.0917  -10.6509 C   0  0  0  0  0  0  0  0  0  0  0  0
    4.8193   -1.5007   -9.9395 C   0  0  0  0  0  0  0  0  0  0  0  0
    5.7756   -1.8331   -9.3769 N   0  0  0  0  0  0  0  0  0  0  0  0
    3.5588   -1.5602  -12.0112 C   0  0  0  0  0  0  0  0  0  0  0  0
    3.5129   -1.9445  -13.1027 N   0  0  0  0  0  0  0  0  0  0  0  0
    3.4782    0.5492   -6.3551 C   0  0  0  0  0  0  0  0  0  0  0  0
    4.2460    1.4867   -5.6381 C   0  0  0  0  0  0  0  0  0  0  0  0
    5.1805    2.4922   -6.2515 C   0  0  0  0  0  0  0  0  0  0  0  0
    4.3993    3.6766   -6.8082 C   0  0  0  0  0  0  0  0  0  0  0  0
    3.9455    1.4351   -4.2762 C   0  0  0  0  0  0  0  0  0  0  0  0
    4.5147    2.3036   -2.9209 S   0  0  0  0  0  0  0  0  0  0  0  0
    3.4970    1.4102   -1.8994 C   0  0  0  0  0  0  0  0  0  0  0  0
    3.2625    1.2434   -0.5676 C   0  0  0  0  0  0  0  0  0  0  0  0
    3.9053    1.7979    0.5398 C   0  0  0  0  0  0  0  0  0  0  0  0
    3.5728    1.3145    1.8327 C   0  0  0  0  0  0  0  0  0  0  0  0
    4.2245    1.8711    2.8844 N   0  0  0  0  0  0  0  0  0  0  0  0
    5.2047    2.9347    2.0770 S   0  0  0  0  0  0  0  0  0  0  0  0
    4.8635    2.7542    0.4653 N   0  0  0  0  0  0  0  0  0  0  0  0
    2.5842    0.3352    1.9509 C   0  0  0  0  0  0  0  0  0  0  0  0
    1.9602   -0.1559    3.0588 C   0  0  0  0  0  0  0  0  0  0  0  0
    1.9671    0.0960    4.7387 S   0  0  0  0  0  0  0  0  0  0  0  0
    0.5370   -0.8187    4.9018 C   0  0  0  0  0  0  0  0  0  0  0  0
   -0.2687   -1.1443    5.9936 C   0  0  0  0  0  0  0  0  0  0  0  0
    0.0668   -0.7979    7.4187 C   0  0  0  0  0  0  0  0  0  0  0  0
    0.9450   -1.8771    8.0437 C   0  0  0  0  0  0  0  0  0  0  0  0
   -1.3961   -1.8863    5.5852 C   0  0  0  0  0  0  0  0  0  0  0  0
   -1.3426   -2.1238    3.8997 S   0  0  0  0  0  0  0  0  0  0  0  0
    0.0820   -1.2663    3.6876 C   0  0  0  0  0  0  0  0  0  0  0  0
    0.9012   -0.8812    2.6322 C   0  0  0  0  0  0  0  0  0  0  0  0
    0.7809   -0.8959    1.2783 N   0  0  0  0  0  0  0  0  0  0  0  0
    1.8796   -0.1823    0.8441 C   0  0  0  0  0  0  0  0  0  0  0  0
    2.3021    0.2172   -0.4652 C   0  0  0  0  0  0  0  0  0  0  0  0
    2.0389   -0.3050   -1.7187 N   0  0  0  0  0  0  0  0  0  0  0  0
    2.7671    0.4805   -2.5527 C   0  0  0  0  0  0  0  0  0  0  0  0
    3.0283    0.4791   -3.9172 C   0  0  0  0  0  0  0  0  0  0  0  0
    2.5220   -0.3670   -5.2722 S   0  0  0  0  0  0  0  0  0  0  0  0
    1.4335   -1.5829   -2.1142 C   0  0  0  0  0  0  0  0  0  0  0  0
    2.0909   -2.7660   -1.4039 C   0  0  0  0  0  0  0  0  0  0  0  0
   -0.4612   -1.2419    0.5729 C   0  0  0  0  0  0  0  0  0  0  0  0
   -1.0907   -0.0184   -0.0907 C   0  0  0  0  0  0  0  0  0  0  0  0
   -2.4073   -2.4381    6.5048 C   0  0  0  0  0  0  0  0  0  0  0  0
   -3.6276   -1.8948    6.6557 C   0  0  0  0  0  0  0  0  0  0  0  0
   -4.2279   -1.7265    7.9803 C   0  0  0  0  0  0  0  0  0  0  0  0
   -4.0223   -2.4577    8.9863 O   0  0  0  0  0  0  0  0  0  0  0  0
   -4.9897   -0.4909    7.9757 C   0  0  0  0  0  0  0  0  0  0  0  0
   -5.5858    0.1661    9.0481 C   0  0  0  0  0  0  0  0  0  0  0  0
   -6.1726    1.4195    8.8216 C   0  0  0  0  0  0  0  0  0  0  0  0
   -6.1441    2.0017    7.5352 C   0  0  0  0  0  0  0  0  0  0  0  0
   -6.7180    3.3691    7.3236 C   0  0  0  0  0  0  0  0  0  0  0  0
   -5.5176    1.3214    6.4698 C   0  0  0  0  0  0  0  0  0  0  0  0
   -4.9645    0.0550    6.7040 C   0  0  0  0  0  0  0  0  0  0  0  0
   -4.2701   -0.8777    5.7805 C   0  0  0  0  0  0  0  0  0  0  0  0
   -4.6331   -1.0978    4.4950 C   0  0  0  0  0  0  0  0  0  0  0  0
   -5.4121   -0.1470    3.7427 C   0  0  0  0  0  0  0  0  0  0  0  0
   -6.0398    0.6103    3.1310 N   0  0  0  0  0  0  0  0  0  0  0  0
   -4.4569   -2.3912    3.8835 C   0  0  0  0  0  0  0  0  0  0  0  0
   -4.3183   -3.4293    3.3945 N   0  0  0  0  0  0  0  0  0  0  0  0
    4.6061    0.2779   -8.1951 H   0  0  0  0  0  0  0  0  0  0  0  0
   -1.5607    0.9002   -8.9880 H   0  0  0  0  0  0  0  0  0  0  0  0
   -2.4730    0.6807  -11.2899 H   0  0  0  0  0  0  0  0  0  0  0  0
    1.3920   -0.4983  -12.7453 H   0  0  0  0  0  0  0  0  0  0  0  0
    5.7690    2.0192   -7.0670 H   0  0  0  0  0  0  0  0  0  0  0  0
    5.9033    2.8588   -5.4895 H   0  0  0  0  0  0  0  0  0  0  0  0
    5.1008    4.4222   -7.2385 H   0  0  0  0  0  0  0  0  0  0  0  0
    3.7082    3.3363   -7.6095 H   0  0  0  0  0  0  0  0  0  0  0  0
    3.8127    4.1642   -6.0009 H   0  0  0  0  0  0  0  0  0  0  0  0
    0.6024    0.1741    7.4530 H   0  0  0  0  0  0  0  0  0  0  0  0
   -0.8637   -0.6861    8.0174 H   0  0  0  0  0  0  0  0  0  0  0  0
    0.4163   -2.8556    8.0489 H   0  0  0  0  0  0  0  0  0  0  0  0
    1.8932   -1.9778    7.4711 H   0  0  0  0  0  0  0  0  0  0  0  0
    1.1926   -1.5988    9.0892 H   0  0  0  0  0  0  0  0  0  0  0  0
    0.3387   -1.5487   -2.0045 H   0  0  0  0  0  0  0  0  0  0  0  0
    1.5736   -1.7557   -3.1958 H   0  0  0  0  0  0  0  0  0  0  0  0
    1.9984   -2.6869   -0.3048 H   0  0  0  0  0  0  0  0  0  0  0  0
    1.6075   -3.7104   -1.7352 H   0  0  0  0  0  0  0  0  0  0  0  0
    3.1693   -2.8129   -1.6656 H   0  0  0  0  0  0  0  0  0  0  0  0
   -1.2139   -1.6303    1.2811 H   0  0  0  0  0  0  0  0  0  0  0  0
   -0.3062   -2.0888   -0.1118 H   0  0  0  0  0  0  0  0  0  0  0  0
   -2.0428   -0.3091   -0.5800 H   0  0  0  0  0  0  0  0  0  0  0  0
   -0.4222    0.4182   -0.8570 H   0  0  0  0  0  0  0  0  0  0  0  0
   -1.3055    0.7605    0.6738 H   0  0  0  0  0  0  0  0  0  0  0  0
   -2.0144   -3.0246    7.3254 H   0  0  0  0  0  0  0  0  0  0  0  0
   -5.5777   -0.2695   10.0393 H   0  0  0  0  0  0  0  0  0  0  0  0
   -6.6281    1.9456    9.6500 H   0  0  0  0  0  0  0  0  0  0  0  0
   -5.9936    4.1360    7.6647 H   0  0  0  0  0  0  0  0  0  0  0  0
   -7.6626    3.4785    7.8961 H   0  0  0  0  0  0  0  0  0  0  0  0
   -6.9409    3.5452    6.2513 H   0  0  0  0  0  0  0  0  0  0  0  0
   -5.4455    1.7882    5.4984 H   0  0  0  0  0  0  0  0  0  0  0  0
  1  2  2  3
  2  3  1  0
  3  4  2  0
  3  5  1  0
  5  6  2  0
  6  7  1  0
  7  8  2  0
  8  9  1  0
  8 10  1  0
 10 11  2  0
 11 12  1  0
 12 13  2  3
 13 14  1  0
 14 15  3  0
 13 16  1  0
 16 17  3  0
  1 18  1  0
 18 19  2  0
 19 20  1  0
 20 21  1  0
 19 22  1  0
 22 23  1  0
 23 24  1  0
 24 25  1  0
 25 26  1  0
 26 27  1  0
 27 28  2  0
 28 29  1  0
 29 30  1  0
 27 31  1  0
 31 32  1  0
 32 33  1  0
 33 34  1  0
 34 35  1  0
 35 36  1  0
 36 37  1  0
 35 38  2  0
 38 39  1  0
 39 40  1  0
 40 41  1  0
 41 42  1  0
 42 43  1  0
 43 44  1  0
 44 45  1  0
 45 46  1  0
 46 47  1  0
 47 48  1  0
 45 49  1  0
 49 50  1  0
 42 51  1  0
 51 52  1  0
 38 53  1  0
 53 54  2  3
 54 55  1  0
 55 56  2  0
 55 57  1  0
 57 58  2  0
 58 59  1  0
 59 60  2  0
 60 61  1  0
 60 62  1  0
 62 63  2  0
 63 64  1  0
 64 65  2  3
 65 66  1  0
 66 67  3  0
 65 68  1  0
 68 69  3  0
 12  2  1  0
 48 18  1  0
 64 54  1  0
 11  5  1  0
 47 22  2  0
 63 57  1  0
 46 24  2  0
 44 25  2  0
 30 26  2  0
 43 31  2  0
 41 32  2  0
 40 34  2  0
  1 70  1  0
  6 71  1  0
  7 72  1  0
 10 73  1  0
 20 74  1  0
 20 75  1  0
 21 76  1  0
 21 77  1  0
 21 78  1  0
 36 79  1  0
 36 80  1  0
 37 81  1  0
 37 82  1  0
 37 83  1  0
 49 84  1  0
 49 85  1  0
 50 86  1  0
 50 87  1  0
 50 88  1  0
 51 89  1  0
 51 90  1  0
 52 91  1  0
 52 92  1  0
 52 93  1  0
 53 94  1  0
 58 95  1  0
 59 96  1  0
 61 97  1  0
 61 98  1  0
 61 99  1  0
 62100  1  0
M  END

