
     RDKit          3D

 97108  0  0  0  0  0  0  0  0999 V2000
   -0.6777    2.4957    7.2937 C   0  0  0  0  0  0  0  0  0  0  0  0
    0.3443    1.6101    7.4304 C   0  0  0  0  0  0  0  0  0  0  0  0
    1.5866    1.8762    8.1480 C   0  0  0  0  0  0  0  0  0  0  0  0
    1.7775    2.7077    9.0994 O   0  0  0  0  0  0  0  0  0  0  0  0
    2.6346    1.0596    7.5524 C   0  0  0  0  0  0  0  0  0  0  0  0
    4.0067    0.9835    7.8320 C   0  0  0  0  0  0  0  0  0  0  0  0
    4.8054    0.0987    7.0794 C   0  0  0  0  0  0  0  0  0  0  0  0
    4.2392   -0.6305    6.0170 C   0  0  0  0  0  0  0  0  0  0  0  0
    5.4377   -1.9179    4.8422 I   0  0  0  0  0  0  0  0  0  0  0  0
    2.8668   -0.5323    5.7425 C   0  0  0  0  0  0  0  0  0  0  0  0
    2.0814    0.3228    6.5244 C   0  0  0  0  0  0  0  0  0  0  0  0
    0.6122    0.4927    6.4945 C   0  0  0  0  0  0  0  0  0  0  0  0
   -0.2309   -0.5221    6.3142 C   0  0  0  0  0  0  0  0  0  0  0  0
   -1.3527   -0.7564    7.2029 C   0  0  0  0  0  0  0  0  0  0  0  0
   -2.2391   -0.9777    7.9151 N   0  0  0  0  0  0  0  0  0  0  0  0
   -0.0569   -1.4351    5.2193 C   0  0  0  0  0  0  0  0  0  0  0  0
    0.0430   -2.1452    4.3060 N   0  0  0  0  0  0  0  0  0  0  0  0
   -1.4880    2.5206    6.0653 C   0  0  0  0  0  0  0  0  0  0  0  0
   -2.7725    1.9564    5.8710 C   0  0  0  0  0  0  0  0  0  0  0  0
   -3.7405    1.6185    6.9708 C   0  0  0  0  0  0  0  0  0  0  0  0
   -4.9340    2.5638    6.9680 C   0  0  0  0  0  0  0  0  0  0  0  0
   -3.0534    1.8278    4.5061 C   0  0  0  0  0  0  0  0  0  0  0  0
   -4.2604    0.9882    3.6191 S   0  0  0  0  0  0  0  0  0  0  0  0
   -3.4644    1.3143    2.1547 C   0  0  0  0  0  0  0  0  0  0  0  0
   -3.5429    1.0039    0.8276 C   0  0  0  0  0  0  0  0  0  0  0  0
   -4.4536    0.1992    0.1509 C   0  0  0  0  0  0  0  0  0  0  0  0
   -4.3117    0.0305   -1.2557 C   0  0  0  0  0  0  0  0  0  0  0  0
   -5.2281   -0.7470   -1.8682 N   0  0  0  0  0  0  0  0  0  0  0  0
   -6.1623   -1.1864   -0.5641 S   0  0  0  0  0  0  0  0  0  0  0  0
   -5.4864   -0.4363    0.7470 N   0  0  0  0  0  0  0  0  0  0  0  0
   -3.2770    0.6956   -1.9140 C   0  0  0  0  0  0  0  0  0  0  0  0
   -2.9547    0.6888   -3.2409 C   0  0  0  0  0  0  0  0  0  0  0  0
   -2.9273   -0.5376   -4.4092 S   0  0  0  0  0  0  0  0  0  0  0  0
   -1.5695    0.0976   -5.2076 C   0  0  0  0  0  0  0  0  0  0  0  0
   -0.6393   -0.4437   -6.1141 C   0  0  0  0  0  0  0  0  0  0  0  0
   -0.6938   -1.8763   -6.5688 C   0  0  0  0  0  0  0  0  0  0  0  0
   -0.3140   -2.8269   -5.4379 C   0  0  0  0  0  0  0  0  0  0  0  0
    0.5234    0.3742   -6.2130 C   0  0  0  0  0  0  0  0  0  0  0  0
    0.3516    1.6629   -5.1181 S   0  0  0  0  0  0  0  0  0  0  0  0
   -1.1587    1.2199   -4.5485 C   0  0  0  0  0  0  0  0  0  0  0  0
   -1.8696    1.5007   -3.3837 C   0  0  0  0  0  0  0  0  0  0  0  0
   -1.4034    1.9542   -2.1798 N   0  0  0  0  0  0  0  0  0  0  0  0
   -2.3204    1.4953   -1.2425 C   0  0  0  0  0  0  0  0  0  0  0  0
   -2.4350    1.6385    0.2031 C   0  0  0  0  0  0  0  0  0  0  0  0
   -1.6843    2.2906    1.1712 N   0  0  0  0  0  0  0  0  0  0  0  0
   -2.3446    2.0347    2.3277 C   0  0  0  0  0  0  0  0  0  0  0  0
   -2.0869    2.3067    3.6576 C   0  0  0  0  0  0  0  0  0  0  0  0
   -0.8033    2.8940    4.5566 S   0  0  0  0  0  0  0  0  0  0  0  0
   -0.4963    3.1615    1.1224 C   0  0  0  0  0  0  0  0  0  0  0  0
    0.7820    2.3729    1.4488 C   0  0  0  0  0  0  0  0  0  0  0  0
    0.0090    2.2912   -1.9858 C   0  0  0  0  0  0  0  0  0  0  0  0
    0.3159    3.7375   -2.3924 C   0  0  0  0  0  0  0  0  0  0  0  0
    1.8962   -0.0672   -6.5039 C   0  0  0  0  0  0  0  0  0  0  0  0
    2.3214   -0.6984   -7.6058 C   0  0  0  0  0  0  0  0  0  0  0  0
    1.9719   -0.2342   -8.9680 C   0  0  0  0  0  0  0  0  0  0  0  0
    0.9422    0.4222   -9.2971 O   0  0  0  0  0  0  0  0  0  0  0  0
    3.1431   -0.4103   -9.8336 C   0  0  0  0  0  0  0  0  0  0  0  0
    3.3550    0.1176  -11.1180 C   0  0  0  0  0  0  0  0  0  0  0  0
    4.6527    0.0732  -11.6516 C   0  0  0  0  0  0  0  0  0  0  0  0
    4.9907    0.7794  -13.2356 Cl  0  0  0  0  0  0  0  0  0  0  0  0
    5.7155   -0.4571  -10.8875 C   0  0  0  0  0  0  0  0  0  0  0  0
    6.9867   -0.3940  -11.3517 F   0  0  0  0  0  0  0  0  0  0  0  0
    5.4820   -0.9704   -9.5979 C   0  0  0  0  0  0  0  0  0  0  0  0
    4.1771   -0.9381   -9.0936 C   0  0  0  0  0  0  0  0  0  0  0  0
    3.7214   -1.1796   -7.7110 C   0  0  0  0  0  0  0  0  0  0  0  0
    4.3421   -1.9348   -6.7692 C   0  0  0  0  0  0  0  0  0  0  0  0
    5.5063   -2.7542   -7.0568 C   0  0  0  0  0  0  0  0  0  0  0  0
    6.4140   -3.4473   -7.2771 N   0  0  0  0  0  0  0  0  0  0  0  0
    3.7621   -2.1092   -5.4544 C   0  0  0  0  0  0  0  0  0  0  0  0
    3.3338   -2.2488   -4.3788 N   0  0  0  0  0  0  0  0  0  0  0  0
   -0.7975    3.2891    8.0196 H   0  0  0  0  0  0  0  0  0  0  0  0
    4.4492    1.5740    8.6189 H   0  0  0  0  0  0  0  0  0  0  0  0
    5.8659    0.0028    7.3033 H   0  0  0  0  0  0  0  0  0  0  0  0
    2.4609   -1.0921    4.9218 H   0  0  0  0  0  0  0  0  0  0  0  0
   -3.2486    1.7035    7.9554 H   0  0  0  0  0  0  0  0  0  0  0  0
   -4.1052    0.5792    6.8458 H   0  0  0  0  0  0  0  0  0  0  0  0
   -5.5970    2.3768    6.1010 H   0  0  0  0  0  0  0  0  0  0  0  0
   -5.5193    2.4163    7.9010 H   0  0  0  0  0  0  0  0  0  0  0  0
   -4.5974    3.6253    6.9273 H   0  0  0  0  0  0  0  0  0  0  0  0
   -0.0061   -2.0240   -7.4082 H   0  0  0  0  0  0  0  0  0  0  0  0
   -1.7074   -2.1267   -6.9432 H   0  0  0  0  0  0  0  0  0  0  0  0
   -1.1125   -2.8588   -4.6648 H   0  0  0  0  0  0  0  0  0  0  0  0
   -0.1799   -3.8614   -5.8198 H   0  0  0  0  0  0  0  0  0  0  0  0
    0.6379   -2.5039   -4.9668 H   0  0  0  0  0  0  0  0  0  0  0  0
   -0.4536    3.6928    0.1686 H   0  0  0  0  0  0  0  0  0  0  0  0
   -0.5979    3.9726    1.8672 H   0  0  0  0  0  0  0  0  0  0  0  0
    0.9263    2.2518    2.5478 H   0  0  0  0  0  0  0  0  0  0  0  0
    0.7373    1.3286    1.0243 H   0  0  0  0  0  0  0  0  0  0  0  0
    1.6722    2.8871    1.0176 H   0  0  0  0  0  0  0  0  0  0  0  0
    0.6546    1.5847   -2.5144 H   0  0  0  0  0  0  0  0  0  0  0  0
    0.3162    2.0555   -0.9739 H   0  0  0  0  0  0  0  0  0  0  0  0
    0.8470    4.2204   -1.5673 H   0  0  0  0  0  0  0  0  0  0  0  0
    1.0138    3.7813   -3.2568 H   0  0  0  0  0  0  0  0  0  0  0  0
   -0.6342    4.3253   -2.5361 H   0  0  0  0  0  0  0  0  0  0  0  0
    2.6614    0.4531   -5.9243 H   0  0  0  0  0  0  0  0  0  0  0  0
    2.5467    0.5693  -11.6793 H   0  0  0  0  0  0  0  0  0  0  0  0
    6.3325   -1.2721   -8.9932 H   0  0  0  0  0  0  0  0  0  0  0  0
  1  2  2  3
  2  3  1  0
  3  4  2  0
  3  5  1  0
  5  6  2  0
  6  7  1  0
  7  8  2  0
  8  9  1  0
  8 10  1  0
 10 11  2  0
 11 12  1  0
 12 13  2  3
 13 14  1  0
 14 15  3  0
 13 16  1  0
 16 17  3  0
  1 18  1  0
 18 19  2  0
 19 20  1  0
 20 21  1  0
 19 22  1  0
 22 23  1  0
 23 24  1  0
 24 25  1  0
 25 26  1  0
 26 27  1  0
 27 28  2  0
 28 29  1  0
 29 30  1  0
 27 31  1  0
 31 32  1  0
 32 33  1  0
 33 34  1  0
 34 35  1  0
 35 36  1  0
 36 37  1  0
 35 38  2  0
 38 39  1  0
 39 40  1  0
 40 41  1  0
 41 42  1  0
 42 43  1  0
 43 44  1  0
 44 45  1  0
 45 46  1  0
 46 47  1  0
 47 48  1  0
 45 49  1  0
 49 50  1  0
 42 51  1  0
 51 52  1  0
 38 53  1  0
 53 54  2  3
 54 55  1  0
 55 56  2  0
 55 57  1  0
 57 58  2  0
 58 59  1  0
 59 60  1  0
 59 61  2  0
 61 62  1  0
 61 63  1  0
 63 64  2  0
 64 65  1  0
 65 66  2  3
 66 67  1  0
 67 68  3  0
 66 69  1  0
 69 70  3  0
 12  2  1  0
 48 18  1  0
 65 54  1  0
 11  5  1  0
 47 22  2  0
 64 57  1  0
 46 24  2  0
 44 25  2  0
 30 26  2  0
 43 31  2  0
 41 32  2  0
 40 34  2  0
  1 71  1  0
  6 72  1  0
  7 73  1  0
 10 74  1  0
 20 75  1  0
 20 76  1  0
 21 77  1  0
 21 78  1  0
 21 79  1  0
 36 80  1  0
 36 81  1  0
 37 82  1  0
 37 83  1  0
 37 84  1  0
 49 85  1  0
 49 86  1  0
 50 87  1  0
 50 88  1  0
 50 89  1  0
 51 90  1  0
 51 91  1  0
 52 92  1  0
 52 93  1  0
 52 94  1  0
 53 95  1  0
 58 96  1  0
 63 97  1  0
M  END

