
     RDKit          3D

118129  0  0  0  0  0  0  0  0999 V2000
   -0.8489    0.1149    4.4487 C   0  0  0  0  0  0  0  0  0  0  0  0
   -2.1402    0.3970    4.7219 C   0  0  0  0  0  0  0  0  0  0  0  0
   -2.9701    1.3122    3.9319 C   0  0  0  0  0  0  0  0  0  0  0  0
   -2.5598    2.2347    3.1699 O   0  0  0  0  0  0  0  0  0  0  0  0
   -4.3533    0.9226    4.1153 C   0  0  0  0  0  0  0  0  0  0  0  0
   -5.4751    1.4177    3.4524 C   0  0  0  0  0  0  0  0  0  0  0  0
   -6.7051    0.7740    3.6566 C   0  0  0  0  0  0  0  0  0  0  0  0
   -6.7836   -0.3645    4.4759 C   0  0  0  0  0  0  0  0  0  0  0  0
   -8.6164   -1.3873    4.6831 I   0  0  0  0  0  0  0  0  0  0  0  0
   -5.6407   -0.8427    5.1419 C   0  0  0  0  0  0  0  0  0  0  0  0
   -4.4223   -0.1586    4.9800 C   0  0  0  0  0  0  0  0  0  0  0  0
   -3.0619   -0.4541    5.5205 C   0  0  0  0  0  0  0  0  0  0  0  0
   -2.7569   -1.2158    6.6001 C   0  0  0  0  0  0  0  0  0  0  0  0
   -3.7410   -2.0087    7.2942 C   0  0  0  0  0  0  0  0  0  0  0  0
   -4.5211   -2.6588    7.8423 N   0  0  0  0  0  0  0  0  0  0  0  0
   -1.4588   -1.1657    7.2214 C   0  0  0  0  0  0  0  0  0  0  0  0
   -0.4281   -1.1157    7.7407 N   0  0  0  0  0  0  0  0  0  0  0  0
   -0.2606    0.4951    3.1516 C   0  0  0  0  0  0  0  0  0  0  0  0
   -0.8442   -0.0098    1.9822 C   0  0  0  0  0  0  0  0  0  0  0  0
   -0.3076    0.3105    0.7244 C   0  0  0  0  0  0  0  0  0  0  0  0
    0.8572    1.1184    0.6343 C   0  0  0  0  0  0  0  0  0  0  0  0
    1.4233    1.6521    1.8195 C   0  0  0  0  0  0  0  0  0  0  0  0
    0.8371    1.3578    3.0681 C   0  0  0  0  0  0  0  0  0  0  0  0
    1.2934    1.9924    4.1792 N   0  0  0  0  0  0  0  0  0  0  0  0
    2.3217    2.8763    4.1369 C   0  0  0  0  0  0  0  0  0  0  0  0
    2.6297    3.6186    5.3712 C   0  0  0  0  0  0  0  0  0  0  0  0
    3.8892    3.9276    5.8955 C   0  0  0  0  0  0  0  0  0  0  0  0
    3.8279    4.6477    7.0943 C   0  0  0  0  0  0  0  0  0  0  0  0
    2.5254    4.9075    7.5168 C   0  0  0  0  0  0  0  0  0  0  0  0
    2.1361    5.6290    8.7693 C   0  0  0  0  0  0  0  0  0  0  0  0
    1.6703    4.6452    9.8386 C   0  0  0  0  0  0  0  0  0  0  0  0
    1.4505    4.2201    6.4173 S   0  0  0  0  0  0  0  0  0  0  0  0
    2.9575    3.1179    2.8986 C   0  0  0  0  0  0  0  0  0  0  0  0
    4.0457    4.0915    2.7613 C   0  0  0  0  0  0  0  0  0  0  0  0
    3.9076    5.4735    2.8180 C   0  0  0  0  0  0  0  0  0  0  0  0
    5.1337    6.1478    2.7997 C   0  0  0  0  0  0  0  0  0  0  0  0
    6.2337    5.2972    2.7189 C   0  0  0  0  0  0  0  0  0  0  0  0
    7.6552    5.7288    2.9210 C   0  0  0  0  0  0  0  0  0  0  0  0
    8.6418    4.8372    2.1709 C   0  0  0  0  0  0  0  0  0  0  0  0
    5.6798    3.7019    2.6879 S   0  0  0  0  0  0  0  0  0  0  0  0
    2.4813    2.5077    1.7786 N   0  0  0  0  0  0  0  0  0  0  0  0
    1.3943    1.4104   -0.6378 C   0  0  0  0  0  0  0  0  0  0  0  0
    0.7793    0.9310   -1.8060 C   0  0  0  0  0  0  0  0  0  0  0  0
   -0.3996    0.1720   -1.7117 C   0  0  0  0  0  0  0  0  0  0  0  0
   -1.0417   -0.2719   -2.8280 N   0  0  0  0  0  0  0  0  0  0  0  0
   -2.2058   -0.9838   -2.7661 C   0  0  0  0  0  0  0  0  0  0  0  0
   -2.8711   -1.3203   -4.0400 C   0  0  0  0  0  0  0  0  0  0  0  0
   -4.2388   -1.2741   -4.3053 C   0  0  0  0  0  0  0  0  0  0  0  0
   -4.5556   -1.5986   -5.6286 C   0  0  0  0  0  0  0  0  0  0  0  0
   -3.4415   -1.8474   -6.4207 C   0  0  0  0  0  0  0  0  0  0  0  0
   -3.4584   -2.2707   -7.8562 C   0  0  0  0  0  0  0  0  0  0  0  0
   -3.5512   -3.7899   -7.9674 C   0  0  0  0  0  0  0  0  0  0  0  0
   -2.0635   -1.7004   -5.4675 S   0  0  0  0  0  0  0  0  0  0  0  0
   -2.7468   -1.2793   -1.4920 C   0  0  0  0  0  0  0  0  0  0  0  0
   -2.0943   -0.8441   -0.3856 N   0  0  0  0  0  0  0  0  0  0  0  0
   -0.9410   -0.1329   -0.4528 C   0  0  0  0  0  0  0  0  0  0  0  0
   -3.9981   -2.0253   -1.2755 C   0  0  0  0  0  0  0  0  0  0  0  0
   -4.3531   -3.2416   -1.8526 C   0  0  0  0  0  0  0  0  0  0  0  0
   -5.5747   -3.7366   -1.3778 C   0  0  0  0  0  0  0  0  0  0  0  0
   -6.1750   -2.9155   -0.4227 C   0  0  0  0  0  0  0  0  0  0  0  0
   -7.4316   -3.1997    0.3475 C   0  0  0  0  0  0  0  0  0  0  0  0
   -8.5248   -3.8088   -0.5301 C   0  0  0  0  0  0  0  0  0  0  0  0
   -5.1676   -1.6024   -0.1417 S   0  0  0  0  0  0  0  0  0  0  0  0
    1.3622    1.2439   -3.1206 C   0  0  0  0  0  0  0  0  0  0  0  0
    2.3024    0.4732   -3.6986 C   0  0  0  0  0  0  0  0  0  0  0  0
    2.8227   -0.7811   -3.1312 C   0  0  0  0  0  0  0  0  0  0  0  0
    2.5625   -1.2603   -1.9942 O   0  0  0  0  0  0  0  0  0  0  0  0
    3.6623   -1.4157   -4.1168 C   0  0  0  0  0  0  0  0  0  0  0  0
    4.3022   -2.6543   -4.0272 C   0  0  0  0  0  0  0  0  0  0  0  0
    5.0137   -3.1223   -5.1416 C   0  0  0  0  0  0  0  0  0  0  0  0
    5.8323   -4.6674   -5.0666 Cl  0  0  0  0  0  0  0  0  0  0  0  0
    5.0523   -2.3557   -6.3199 C   0  0  0  0  0  0  0  0  0  0  0  0
    5.7202   -2.8083   -7.4075 F   0  0  0  0  0  0  0  0  0  0  0  0
    4.3969   -1.1178   -6.3858 C   0  0  0  0  0  0  0  0  0  0  0  0
    3.7206   -0.6337   -5.2553 C   0  0  0  0  0  0  0  0  0  0  0  0
    2.9444    0.6263   -5.0461 C   0  0  0  0  0  0  0  0  0  0  0  0
    2.9550    1.7295   -5.8448 C   0  0  0  0  0  0  0  0  0  0  0  0
    3.7596    1.8165   -7.0407 C   0  0  0  0  0  0  0  0  0  0  0  0
    4.4069    1.9054   -7.9960 N   0  0  0  0  0  0  0  0  0  0  0  0
    2.2219    2.9305   -5.5480 C   0  0  0  0  0  0  0  0  0  0  0  0
    1.6306    3.9007   -5.3236 N   0  0  0  0  0  0  0  0  0  0  0  0
   -0.3218   -0.6534    4.9920 H   0  0  0  0  0  0  0  0  0  0  0  0
   -5.4024    2.2639    2.7825 H   0  0  0  0  0  0  0  0  0  0  0  0
   -7.5903    1.1439    3.1575 H   0  0  0  0  0  0  0  0  0  0  0  0
   -5.7181   -1.7545    5.7042 H   0  0  0  0  0  0  0  0  0  0  0  0
   -1.7373   -0.6397    2.0782 H   0  0  0  0  0  0  0  0  0  0  0  0
    4.8269    3.6206    5.4427 H   0  0  0  0  0  0  0  0  0  0  0  0
    4.7086    4.9544    7.6371 H   0  0  0  0  0  0  0  0  0  0  0  0
    1.3162    6.3410    8.5374 H   0  0  0  0  0  0  0  0  0  0  0  0
    3.0018    6.2098    9.1511 H   0  0  0  0  0  0  0  0  0  0  0  0
    1.4435    5.2017   10.7750 H   0  0  0  0  0  0  0  0  0  0  0  0
    2.4656    3.8978   10.0552 H   0  0  0  0  0  0  0  0  0  0  0  0
    0.7466    4.1273    9.5042 H   0  0  0  0  0  0  0  0  0  0  0  0
    2.9528    5.9786    2.9095 H   0  0  0  0  0  0  0  0  0  0  0  0
    5.2188    7.2256    2.8834 H   0  0  0  0  0  0  0  0  0  0  0  0
    7.8861    5.6834    4.0058 H   0  0  0  0  0  0  0  0  0  0  0  0
    7.7800    6.7779    2.5819 H   0  0  0  0  0  0  0  0  0  0  0  0
    8.4020    4.8185    1.0850 H   0  0  0  0  0  0  0  0  0  0  0  0
    9.6708    5.2303    2.3045 H   0  0  0  0  0  0  0  0  0  0  0  0
    8.6125    3.8016    2.5787 H   0  0  0  0  0  0  0  0  0  0  0  0
    2.2929    2.0130   -0.7300 H   0  0  0  0  0  0  0  0  0  0  0  0
   -4.9964   -1.0097   -3.5785 H   0  0  0  0  0  0  0  0  0  0  0  0
   -5.5767   -1.6558   -5.9945 H   0  0  0  0  0  0  0  0  0  0  0  0
   -2.5291   -1.9166   -8.3523 H   0  0  0  0  0  0  0  0  0  0  0  0
   -4.3270   -1.8083   -8.3689 H   0  0  0  0  0  0  0  0  0  0  0  0
   -4.5409   -4.1465   -7.6114 H   0  0  0  0  0  0  0  0  0  0  0  0
   -3.4257   -4.0803   -9.0288 H   0  0  0  0  0  0  0  0  0  0  0  0
   -2.7447   -4.2716   -7.3734 H   0  0  0  0  0  0  0  0  0  0  0  0
   -3.7476   -3.7623   -2.5847 H   0  0  0  0  0  0  0  0  0  0  0  0
   -5.9888   -4.6774   -1.7102 H   0  0  0  0  0  0  0  0  0  0  0  0
   -7.8140   -2.2481    0.7782 H   0  0  0  0  0  0  0  0  0  0  0  0
   -7.1979   -3.8878    1.1916 H   0  0  0  0  0  0  0  0  0  0  0  0
   -9.4718   -3.8801    0.0481 H   0  0  0  0  0  0  0  0  0  0  0  0
   -8.6985   -3.1762   -1.4275 H   0  0  0  0  0  0  0  0  0  0  0  0
   -8.2320   -4.8357   -0.8478 H   0  0  0  0  0  0  0  0  0  0  0  0
    0.9289    2.0853   -3.6201 H   0  0  0  0  0  0  0  0  0  0  0  0
    4.2362   -3.2417   -3.1172 H   0  0  0  0  0  0  0  0  0  0  0  0
    4.4041   -0.5910   -7.3224 H   0  0  0  0  0  0  0  0  0  0  0  0
  1  2  2  3
  2  3  1  0
  3  4  2  0
  3  5  1  0
  5  6  2  0
  6  7  1  0
  7  8  2  0
  8  9  1  0
  8 10  1  0
 10 11  2  0
 11 12  1  0
 12 13  2  3
 13 14  1  0
 14 15  3  0
 13 16  1  0
 16 17  3  0
  1 18  1  0
 18 19  2  0
 19 20  1  0
 20 21  2  0
 21 22  1  0
 22 23  2  0
 23 24  1  0
 24 25  2  0
 25 26  1  0
 26 27  2  0
 27 28  1  0
 28 29  2  0
 29 30  1  0
 30 31  1  0
 29 32  1  0
 25 33  1  0
 33 34  1  0
 34 35  2  0
 35 36  1  0
 36 37  2  0
 37 38  1  0
 38 39  1  0
 37 40  1  0
 33 41  2  0
 21 42  1  0
 42 43  2  0
 43 44  1  0
 44 45  2  0
 45 46  1  0
 46 47  1  0
 47 48  2  0
 48 49  1  0
 49 50  2  0
 50 51  1  0
 51 52  1  0
 50 53  1  0
 46 54  2  0
 54 55  1  0
 55 56  2  0
 54 57  1  0
 57 58  2  0
 58 59  1  0
 59 60  2  0
 60 61  1  0
 61 62  1  0
 60 63  1  0
 43 64  1  0
 64 65  2  3
 65 66  1  0
 66 67  2  0
 66 68  1  0
 68 69  2  0
 69 70  1  0
 70 71  1  0
 70 72  2  0
 72 73  1  0
 72 74  1  0
 74 75  2  0
 75 76  1  0
 76 77  2  3
 77 78  1  0
 78 79  3  0
 77 80  1  0
 80 81  3  0
 12  2  1  0
 23 18  1  0
 32 26  1  0
 40 34  1  0
 56 44  1  0
 63 57  1  0
 76 65  1  0
 11  5  1  0
 56 20  1  0
 75 68  1  0
 41 22  1  0
 53 47  1  0
  1 82  1  0
  6 83  1  0
  7 84  1  0
 10 85  1  0
 19 86  1  0
 27 87  1  0
 28 88  1  0
 30 89  1  0
 30 90  1  0
 31 91  1  0
 31 92  1  0
 31 93  1  0
 35 94  1  0
 36 95  1  0
 38 96  1  0
 38 97  1  0
 39 98  1  0
 39 99  1  0
 39100  1  0
 42101  1  0
 48102  1  0
 49103  1  0
 51104  1  0
 51105  1  0
 52106  1  0
 52107  1  0
 52108  1  0
 58109  1  0
 59110  1  0
 61111  1  0
 61112  1  0
 62113  1  0
 62114  1  0
 62115  1  0
 64116  1  0
 69117  1  0
 74118  1  0
M  END

