
     RDKit          3D

112123  0  0  0  0  0  0  0  0999 V2000
   -3.8117    6.6014    0.4321 C   0  0  0  0  0  0  0  0  0  0  0  0
   -4.5139    6.8925    1.5457 C   0  0  0  0  0  0  0  0  0  0  0  0
   -5.0723    5.9212    2.4958 C   0  0  0  0  0  0  0  0  0  0  0  0
   -4.7468    4.7099    2.6117 O   0  0  0  0  0  0  0  0  0  0  0  0
   -6.0513    6.6026    3.3165 C   0  0  0  0  0  0  0  0  0  0  0  0
   -6.9139    6.0576    4.2698 C   0  0  0  0  0  0  0  0  0  0  0  0
   -6.8708    4.7383    4.5774 F   0  0  0  0  0  0  0  0  0  0  0  0
   -7.8394    6.9025    4.8967 C   0  0  0  0  0  0  0  0  0  0  0  0
   -7.9027    8.2622    4.5463 C   0  0  0  0  0  0  0  0  0  0  0  0
   -7.0332    8.7931    3.5803 C   0  0  0  0  0  0  0  0  0  0  0  0
   -6.0826    7.9472    2.9816 C   0  0  0  0  0  0  0  0  0  0  0  0
   -5.0426    8.2311    1.9515 C   0  0  0  0  0  0  0  0  0  0  0  0
   -4.5069    9.4444    1.6599 C   0  0  0  0  0  0  0  0  0  0  0  0
   -5.0107   10.6724    2.2251 C   0  0  0  0  0  0  0  0  0  0  0  0
   -5.3962   11.6693    2.6689 N   0  0  0  0  0  0  0  0  0  0  0  0
   -3.3075    9.5968    0.8750 C   0  0  0  0  0  0  0  0  0  0  0  0
   -2.3421    9.7307    0.2501 N   0  0  0  0  0  0  0  0  0  0  0  0
   -3.3787    5.2410    0.0625 C   0  0  0  0  0  0  0  0  0  0  0  0
   -4.3241    4.2201   -0.2016 C   0  0  0  0  0  0  0  0  0  0  0  0
   -3.9070    2.9257   -0.5548 C   0  0  0  0  0  0  0  0  0  0  0  0
   -2.5369    2.6853   -0.6432 C   0  0  0  0  0  0  0  0  0  0  0  0
   -1.7856    1.5621   -0.9293 C   0  0  0  0  0  0  0  0  0  0  0  0
   -0.5043    1.9496   -0.9806 C   0  0  0  0  0  0  0  0  0  0  0  0
   -0.3275    3.2642   -0.7116 N   0  0  0  0  0  0  0  0  0  0  0  0
   -1.5976    3.7000   -0.4655 C   0  0  0  0  0  0  0  0  0  0  0  0
   -2.0032    4.9927   -0.1164 C   0  0  0  0  0  0  0  0  0  0  0  0
    0.9218    4.0232   -0.6442 C   0  0  0  0  0  0  0  0  0  0  0  0
    1.7092    3.6335    0.6019 C   0  0  0  0  0  0  0  0  0  0  0  0
    0.2082    0.9251   -1.5466 C   0  0  0  0  0  0  0  0  0  0  0  0
    1.4968    0.8089   -2.0652 C   0  0  0  0  0  0  0  0  0  0  0  0
    1.8829   -0.3228   -2.7295 C   0  0  0  0  0  0  0  0  0  0  0  0
    3.1587   -0.1697   -3.1096 N   0  0  0  0  0  0  0  0  0  0  0  0
    3.5042    1.0427   -2.6847 N   0  0  0  0  0  0  0  0  0  0  0  0
    4.8429    1.5956   -2.8459 C   0  0  0  0  0  0  0  0  0  0  0  0
    5.7584    1.0829   -1.7425 C   0  0  0  0  0  0  0  0  0  0  0  0
    2.5262    1.6658   -2.0347 N   0  0  0  0  0  0  0  0  0  0  0  0
    1.0089   -1.4128   -2.8688 C   0  0  0  0  0  0  0  0  0  0  0  0
   -0.2855   -1.3477   -2.3038 C   0  0  0  0  0  0  0  0  0  0  0  0
   -0.7299   -0.1152   -1.7278 C   0  0  0  0  0  0  0  0  0  0  0  0
   -1.9986    0.3091   -1.4006 N   0  0  0  0  0  0  0  0  0  0  0  0
   -3.2810   -0.1707   -1.9375 C   0  0  0  0  0  0  0  0  0  0  0  0
   -4.2829   -0.4960   -0.8222 C   0  0  0  0  0  0  0  0  0  0  0  0
   -0.7803   -2.6120   -2.1050 N   0  0  0  0  0  0  0  0  0  0  0  0
   -1.7526   -3.0301   -1.0887 C   0  0  0  0  0  0  0  0  0  0  0  0
   -2.8829   -3.8516   -1.7117 C   0  0  0  0  0  0  0  0  0  0  0  0
    0.1730   -3.4279   -2.6380 C   0  0  0  0  0  0  0  0  0  0  0  0
    1.2309   -2.7503   -3.1497 C   0  0  0  0  0  0  0  0  0  0  0  0
    2.3630   -3.5020   -3.1854 N   0  0  0  0  0  0  0  0  0  0  0  0
    3.6952   -3.1290   -3.6755 C   0  0  0  0  0  0  0  0  0  0  0  0
    3.6253   -2.6292   -5.1189 C   0  0  0  0  0  0  0  0  0  0  0  0
    1.9925   -4.6871   -2.6216 C   0  0  0  0  0  0  0  0  0  0  0  0
    0.6470   -4.6803   -2.2625 C   0  0  0  0  0  0  0  0  0  0  0  0
    0.0912   -5.7115   -1.4967 C   0  0  0  0  0  0  0  0  0  0  0  0
    0.9309   -6.7496   -1.0722 C   0  0  0  0  0  0  0  0  0  0  0  0
    2.3096   -6.7387   -1.3849 C   0  0  0  0  0  0  0  0  0  0  0  0
    2.8385   -5.7236   -2.2086 C   0  0  0  0  0  0  0  0  0  0  0  0
    3.1940   -7.7477   -0.7672 C   0  0  0  0  0  0  0  0  0  0  0  0
    4.1570   -7.4404    0.1314 C   0  0  0  0  0  0  0  0  0  0  0  0
    4.4074   -6.0917    0.6905 C   0  0  0  0  0  0  0  0  0  0  0  0
    3.9666   -4.9924    0.2536 O   0  0  0  0  0  0  0  0  0  0  0  0
    5.2692   -6.2402    1.8372 C   0  0  0  0  0  0  0  0  0  0  0  0
    5.6053   -7.5610    2.0054 C   0  0  0  0  0  0  0  0  0  0  0  0
    6.4981   -7.7914    3.0511 C   0  0  0  0  0  0  0  0  0  0  0  0
    6.8247   -6.2797    3.7448 S   0  0  0  0  0  0  0  0  0  0  0  0
    5.8377   -5.3524    2.7352 C   0  0  0  0  0  0  0  0  0  0  0  0
    5.7183   -3.8637    2.7316 C   0  0  0  0  0  0  0  0  0  0  0  0
    4.9760   -8.4007    0.9560 C   0  0  0  0  0  0  0  0  0  0  0  0
    5.1516   -9.7360    0.7918 C   0  0  0  0  0  0  0  0  0  0  0  0
    5.8392  -10.5357    1.7748 C   0  0  0  0  0  0  0  0  0  0  0  0
    6.3827  -11.1853    2.5696 N   0  0  0  0  0  0  0  0  0  0  0  0
    4.6427  -10.4621   -0.3420 C   0  0  0  0  0  0  0  0  0  0  0  0
    4.2359  -11.0580   -1.2497 N   0  0  0  0  0  0  0  0  0  0  0  0
   -3.5236    7.3802   -0.2565 H   0  0  0  0  0  0  0  0  0  0  0  0
   -8.5220    6.5030    5.6363 H   0  0  0  0  0  0  0  0  0  0  0  0
   -8.6339    8.9016    5.0173 H   0  0  0  0  0  0  0  0  0  0  0  0
   -7.1485    9.8266    3.3007 H   0  0  0  0  0  0  0  0  0  0  0  0
   -5.3825    4.4304   -0.1223 H   0  0  0  0  0  0  0  0  0  0  0  0
   -4.6417    2.1595   -0.7411 H   0  0  0  0  0  0  0  0  0  0  0  0
   -1.2820    5.7814    0.0480 H   0  0  0  0  0  0  0  0  0  0  0  0
    0.7215    5.1149   -0.6157 H   0  0  0  0  0  0  0  0  0  0  0  0
    1.5217    3.8524   -1.5595 H   0  0  0  0  0  0  0  0  0  0  0  0
    1.0891    3.7935    1.5080 H   0  0  0  0  0  0  0  0  0  0  0  0
    2.6261    4.2550    0.6788 H   0  0  0  0  0  0  0  0  0  0  0  0
    2.0070    2.5661    0.5537 H   0  0  0  0  0  0  0  0  0  0  0  0
    4.7972    2.7049   -2.8042 H   0  0  0  0  0  0  0  0  0  0  0  0
    5.2515    1.2973   -3.8353 H   0  0  0  0  0  0  0  0  0  0  0  0
    5.8415   -0.0258   -1.8013 H   0  0  0  0  0  0  0  0  0  0  0  0
    5.3543    1.3706   -0.7476 H   0  0  0  0  0  0  0  0  0  0  0  0
    6.7704    1.5265   -1.8612 H   0  0  0  0  0  0  0  0  0  0  0  0
   -3.7062    0.6173   -2.5962 H   0  0  0  0  0  0  0  0  0  0  0  0
   -3.1218   -1.0495   -2.5884 H   0  0  0  0  0  0  0  0  0  0  0  0
   -3.9988   -0.0094    0.1366 H   0  0  0  0  0  0  0  0  0  0  0  0
   -5.2896   -0.1283   -1.1130 H   0  0  0  0  0  0  0  0  0  0  0  0
   -4.3738   -1.5873   -0.6566 H   0  0  0  0  0  0  0  0  0  0  0  0
   -2.1600   -2.1640   -0.5449 H   0  0  0  0  0  0  0  0  0  0  0  0
   -1.2370   -3.6245   -0.3078 H   0  0  0  0  0  0  0  0  0  0  0  0
   -2.4875   -4.6084   -2.4191 H   0  0  0  0  0  0  0  0  0  0  0  0
   -3.4446   -4.3760   -0.9085 H   0  0  0  0  0  0  0  0  0  0  0  0
   -3.5930   -3.2144   -2.2724 H   0  0  0  0  0  0  0  0  0  0  0  0
    4.1578   -2.3846   -3.0012 H   0  0  0  0  0  0  0  0  0  0  0  0
    4.3742   -4.0076   -3.6750 H   0  0  0  0  0  0  0  0  0  0  0  0
    3.1860   -3.4190   -5.7649 H   0  0  0  0  0  0  0  0  0  0  0  0
    3.0000   -1.7184   -5.1970 H   0  0  0  0  0  0  0  0  0  0  0  0
    4.6460   -2.3987   -5.4821 H   0  0  0  0  0  0  0  0  0  0  0  0
   -0.9430   -5.7212   -1.1938 H   0  0  0  0  0  0  0  0  0  0  0  0
    0.5248   -7.5333   -0.4421 H   0  0  0  0  0  0  0  0  0  0  0  0
    3.8997   -5.7133   -2.4185 H   0  0  0  0  0  0  0  0  0  0  0  0
    2.9249   -8.7705   -0.9563 H   0  0  0  0  0  0  0  0  0  0  0  0
    6.9364   -8.7265    3.3629 H   0  0  0  0  0  0  0  0  0  0  0  0
    6.1419   -3.4467    3.6685 H   0  0  0  0  0  0  0  0  0  0  0  0
    6.2753   -3.4449    1.8658 H   0  0  0  0  0  0  0  0  0  0  0  0
    4.6507   -3.5657    2.6555 H   0  0  0  0  0  0  0  0  0  0  0  0
  1  2  2  3
  2  3  1  0
  3  4  2  0
  3  5  1  0
  5  6  2  0
  6  7  1  0
  6  8  1  0
  8  9  2  0
  9 10  1  0
 10 11  2  0
 11 12  1  0
 12 13  2  3
 13 14  1  0
 14 15  3  0
 13 16  1  0
 16 17  3  0
  1 18  1  0
 18 19  2  0
 19 20  1  0
 20 21  2  0
 21 22  1  0
 22 23  2  0
 23 24  1  0
 24 25  1  0
 25 26  2  0
 24 27  1  0
 27 28  1  0
 23 29  1  0
 29 30  1  0
 30 31  1  0
 31 32  2  0
 32 33  1  0
 33 34  1  0
 34 35  1  0
 33 36  1  0
 31 37  1  0
 37 38  2  0
 38 39  1  0
 39 40  1  0
 40 41  1  0
 41 42  1  0
 38 43  1  0
 43 44  1  0
 44 45  1  0
 43 46  1  0
 46 47  2  0
 47 48  1  0
 48 49  1  0
 49 50  1  0
 48 51  1  0
 51 52  2  0
 52 53  1  0
 53 54  2  0
 54 55  1  0
 55 56  2  0
 55 57  1  0
 57 58  2  3
 58 59  1  0
 59 60  2  0
 59 61  1  0
 61 62  1  0
 62 63  2  0
 63 64  1  0
 64 65  1  0
 65 66  1  0
 62 67  1  0
 67 68  2  3
 68 69  1  0
 69 70  3  0
 68 71  1  0
 71 72  3  0
 12  2  1  0
 26 18  1  0
 39 29  2  0
 52 46  1  0
 67 58  1  0
 11  5  1  0
 25 21  1  0
 36 30  2  0
 47 37  1  0
 56 51  1  0
 65 61  2  0
 40 22  1  0
  1 73  1  0
  8 74  1  0
  9 75  1  0
 10 76  1  0
 19 77  1  0
 20 78  1  0
 26 79  1  0
 27 80  1  0
 27 81  1  0
 28 82  1  0
 28 83  1  0
 28 84  1  0
 34 85  1  0
 34 86  1  0
 35 87  1  0
 35 88  1  0
 35 89  1  0
 41 90  1  0
 41 91  1  0
 42 92  1  0
 42 93  1  0
 42 94  1  0
 44 95  1  0
 44 96  1  0
 45 97  1  0
 45 98  1  0
 45 99  1  0
 49100  1  0
 49101  1  0
 50102  1  0
 50103  1  0
 50104  1  0
 53105  1  0
 54106  1  0
 56107  1  0
 57108  1  0
 63109  1  0
 66110  1  0
 66111  1  0
 66112  1  0
M  END

