
     RDKit          3D

117130  0  0  0  0  0  0  0  0999 V2000
   -6.6489    0.2963   -0.6912 C   0  0  0  0  0  0  0  0  0  0  0  0
   -7.5769    0.5931   -1.6219 C   0  0  0  0  0  0  0  0  0  0  0  0
   -8.4630   -0.3778   -2.2654 C   0  0  0  0  0  0  0  0  0  0  0  0
   -8.5118   -1.6140   -2.0169 O   0  0  0  0  0  0  0  0  0  0  0  0
   -9.4073    0.3469   -3.0914 C   0  0  0  0  0  0  0  0  0  0  0  0
  -10.3954   -0.1744   -3.9337 C   0  0  0  0  0  0  0  0  0  0  0  0
  -10.5820   -1.5130   -4.0603 F   0  0  0  0  0  0  0  0  0  0  0  0
  -11.1846    0.7228   -4.6708 C   0  0  0  0  0  0  0  0  0  0  0  0
  -10.9709    2.1056   -4.5662 C   0  0  0  0  0  0  0  0  0  0  0  0
   -9.9750    2.6106   -3.7124 C   0  0  0  0  0  0  0  0  0  0  0  0
   -9.1926    1.7129   -2.9622 C   0  0  0  0  0  0  0  0  0  0  0  0
   -8.0379    1.9549   -2.0434 C   0  0  0  0  0  0  0  0  0  0  0  0
   -7.4241    3.1459   -1.7846 C   0  0  0  0  0  0  0  0  0  0  0  0
   -6.1397    3.2349   -1.1312 C   0  0  0  0  0  0  0  0  0  0  0  0
   -5.1011    3.3204   -0.6213 N   0  0  0  0  0  0  0  0  0  0  0  0
   -7.9660    4.4165   -2.1904 C   0  0  0  0  0  0  0  0  0  0  0  0
   -8.3826    5.4531   -2.5017 N   0  0  0  0  0  0  0  0  0  0  0  0
   -5.8153   -0.9246   -0.6767 C   0  0  0  0  0  0  0  0  0  0  0  0
   -5.3050   -1.6209   -1.8039 C   0  0  0  0  0  0  0  0  0  0  0  0
   -5.6560   -1.3543   -3.2142 C   0  0  0  0  0  0  0  0  0  0  0  0
   -6.3841   -2.3346   -3.9089 C   0  0  0  0  0  0  0  0  0  0  0  0
   -6.8145   -2.1073   -5.2171 C   0  0  0  0  0  0  0  0  0  0  0  0
   -6.4963   -0.9094   -5.8611 C   0  0  0  0  0  0  0  0  0  0  0  0
   -5.7253    0.0538   -5.2031 C   0  0  0  0  0  0  0  0  0  0  0  0
   -5.2885   -0.1552   -3.8812 C   0  0  0  0  0  0  0  0  0  0  0  0
   -4.3656    0.8684   -3.2580 C   0  0  0  0  0  0  0  0  0  0  0  0
   -2.9192    0.6476   -3.7063 C   0  0  0  0  0  0  0  0  0  0  0  0
   -4.2118   -2.4248   -1.4592 C   0  0  0  0  0  0  0  0  0  0  0  0
   -2.9780   -3.1108   -2.4178 S   0  0  0  0  0  0  0  0  0  0  0  0
   -1.9732   -3.2752   -1.0629 C   0  0  0  0  0  0  0  0  0  0  0  0
   -0.6329   -3.3678   -0.8353 C   0  0  0  0  0  0  0  0  0  0  0  0
    0.3981   -3.8039   -1.6686 C   0  0  0  0  0  0  0  0  0  0  0  0
    1.7286   -3.7739   -1.1742 C   0  0  0  0  0  0  0  0  0  0  0  0
    2.7077   -4.1912   -2.0135 N   0  0  0  0  0  0  0  0  0  0  0  0
    1.7891   -4.5867   -3.3324 S   0  0  0  0  0  0  0  0  0  0  0  0
    0.2168   -4.2582   -2.9342 N   0  0  0  0  0  0  0  0  0  0  0  0
    1.9605   -3.2596    0.1057 C   0  0  0  0  0  0  0  0  0  0  0  0
    3.1374   -2.8586    0.6621 C   0  0  0  0  0  0  0  0  0  0  0  0
    4.7491   -2.7179    0.1428 S   0  0  0  0  0  0  0  0  0  0  0  0
    5.0641   -1.5682    1.3561 C   0  0  0  0  0  0  0  0  0  0  0  0
    6.1880   -0.8006    1.6631 C   0  0  0  0  0  0  0  0  0  0  0  0
    7.5173   -1.0247    1.0637 C   0  0  0  0  0  0  0  0  0  0  0  0
    8.0819   -0.1307    0.1172 C   0  0  0  0  0  0  0  0  0  0  0  0
    7.3323    1.0790   -0.3949 C   0  0  0  0  0  0  0  0  0  0  0  0
    6.2847    0.6768   -1.4337 C   0  0  0  0  0  0  0  0  0  0  0  0
    9.3635   -0.4003   -0.3971 C   0  0  0  0  0  0  0  0  0  0  0  0
   10.0765   -1.5230    0.0251 C   0  0  0  0  0  0  0  0  0  0  0  0
    9.5142   -2.4022    0.9508 C   0  0  0  0  0  0  0  0  0  0  0  0
    8.2407   -2.1568    1.4639 C   0  0  0  0  0  0  0  0  0  0  0  0
    5.9144    0.1203    2.6924 C   0  0  0  0  0  0  0  0  0  0  0  0
    4.2944   -0.0818    3.2023 S   0  0  0  0  0  0  0  0  0  0  0  0
    3.9419   -1.2886    2.0918 C   0  0  0  0  0  0  0  0  0  0  0  0
    2.8348   -2.0367    1.6969 C   0  0  0  0  0  0  0  0  0  0  0  0
    1.4934   -1.9025    1.8866 N   0  0  0  0  0  0  0  0  0  0  0  0
    0.9379   -2.7170    0.9147 C   0  0  0  0  0  0  0  0  0  0  0  0
   -0.4157   -2.8715    0.4677 C   0  0  0  0  0  0  0  0  0  0  0  0
   -1.6275   -2.5651    1.0524 N   0  0  0  0  0  0  0  0  0  0  0  0
   -2.5316   -2.7973    0.0682 C   0  0  0  0  0  0  0  0  0  0  0  0
   -3.8231   -2.3349   -0.1447 C   0  0  0  0  0  0  0  0  0  0  0  0
   -4.8171   -1.2606    0.6652 S   0  0  0  0  0  0  0  0  0  0  0  0
   -2.0116   -2.4353    2.4641 C   0  0  0  0  0  0  0  0  0  0  0  0
   -1.3629   -3.5207    3.3286 C   0  0  0  0  0  0  0  0  0  0  0  0
    0.8885   -0.8023    2.6467 C   0  0  0  0  0  0  0  0  0  0  0  0
    0.3589    0.2874    1.7159 C   0  0  0  0  0  0  0  0  0  0  0  0
    6.9494    0.9447    3.3540 C   0  0  0  0  0  0  0  0  0  0  0  0
    6.7400    1.9599    4.2132 C   0  0  0  0  0  0  0  0  0  0  0  0
    7.7253    2.3098    5.2390 C   0  0  0  0  0  0  0  0  0  0  0  0
    8.9466    2.0002    5.2378 O   0  0  0  0  0  0  0  0  0  0  0  0
    7.0313    2.9775    6.3223 C   0  0  0  0  0  0  0  0  0  0  0  0
    7.5149    3.3224    7.5846 C   0  0  0  0  0  0  0  0  0  0  0  0
    6.6161    3.8547    8.5214 C   0  0  0  0  0  0  0  0  0  0  0  0
    5.2553    3.9982    8.1997 C   0  0  0  0  0  0  0  0  0  0  0  0
    4.3933    4.4806    9.1316 F   0  0  0  0  0  0  0  0  0  0  0  0
    4.7854    3.6290    6.9271 C   0  0  0  0  0  0  0  0  0  0  0  0
    5.6998    3.1346    5.9841 C   0  0  0  0  0  0  0  0  0  0  0  0
    5.4791    2.6624    4.5923 C   0  0  0  0  0  0  0  0  0  0  0  0
    4.5579    3.1593    3.7267 C   0  0  0  0  0  0  0  0  0  0  0  0
    4.6691    2.9876    2.2982 C   0  0  0  0  0  0  0  0  0  0  0  0
    4.7323    2.8604    1.1500 N   0  0  0  0  0  0  0  0  0  0  0  0
    3.4875    4.0214    4.1544 C   0  0  0  0  0  0  0  0  0  0  0  0
    2.6238    4.7183    4.4882 N   0  0  0  0  0  0  0  0  0  0  0  0
   -6.3375    1.0523    0.0053 H   0  0  0  0  0  0  0  0  0  0  0  0
  -11.9516    0.3479   -5.3396 H   0  0  0  0  0  0  0  0  0  0  0  0
  -11.5755    2.7916   -5.1454 H   0  0  0  0  0  0  0  0  0  0  0  0
   -9.8387    3.6744   -3.6768 H   0  0  0  0  0  0  0  0  0  0  0  0
   -6.6531   -3.2611   -3.4178 H   0  0  0  0  0  0  0  0  0  0  0  0
   -7.4027   -2.8583   -5.7277 H   0  0  0  0  0  0  0  0  0  0  0  0
   -6.8394   -0.7350   -6.8719 H   0  0  0  0  0  0  0  0  0  0  0  0
   -5.4694    0.9666   -5.7212 H   0  0  0  0  0  0  0  0  0  0  0  0
   -4.6777    1.8933   -3.5554 H   0  0  0  0  0  0  0  0  0  0  0  0
   -4.3948    0.8343   -2.1524 H   0  0  0  0  0  0  0  0  0  0  0  0
   -2.8154    0.8637   -4.7932 H   0  0  0  0  0  0  0  0  0  0  0  0
   -2.6077   -0.3994   -3.5081 H   0  0  0  0  0  0  0  0  0  0  0  0
   -2.2505    1.3280   -3.1360 H   0  0  0  0  0  0  0  0  0  0  0  0
    6.8502    1.6087    0.4513 H   0  0  0  0  0  0  0  0  0  0  0  0
    8.0369    1.7975   -0.8658 H   0  0  0  0  0  0  0  0  0  0  0  0
    5.8036    1.5921   -1.8425 H   0  0  0  0  0  0  0  0  0  0  0  0
    5.4911    0.0540   -0.9709 H   0  0  0  0  0  0  0  0  0  0  0  0
    6.7661    0.1133   -2.2672 H   0  0  0  0  0  0  0  0  0  0  0  0
    9.8178    0.2649   -1.1241 H   0  0  0  0  0  0  0  0  0  0  0  0
   11.0707   -1.7103   -0.3700 H   0  0  0  0  0  0  0  0  0  0  0  0
   10.0707   -3.2719    1.2758 H   0  0  0  0  0  0  0  0  0  0  0  0
    7.8247   -2.8440    2.1891 H   0  0  0  0  0  0  0  0  0  0  0  0
   -1.8493   -1.4108    2.8266 H   0  0  0  0  0  0  0  0  0  0  0  0
   -3.1100   -2.5874    2.5654 H   0  0  0  0  0  0  0  0  0  0  0  0
   -0.2626   -3.4032    3.3848 H   0  0  0  0  0  0  0  0  0  0  0  0
   -1.7697   -3.4723    4.3614 H   0  0  0  0  0  0  0  0  0  0  0  0
   -1.5795   -4.5224    2.9045 H   0  0  0  0  0  0  0  0  0  0  0  0
    1.6328   -0.3368    3.3172 H   0  0  0  0  0  0  0  0  0  0  0  0
    0.1376   -1.1676    3.3544 H   0  0  0  0  0  0  0  0  0  0  0  0
   -0.4731   -0.0948    1.0939 H   0  0  0  0  0  0  0  0  0  0  0  0
    1.1763    0.6468    1.0532 H   0  0  0  0  0  0  0  0  0  0  0  0
   -0.0119    1.1435    2.3180 H   0  0  0  0  0  0  0  0  0  0  0  0
    7.9704    0.5918    3.2370 H   0  0  0  0  0  0  0  0  0  0  0  0
    8.5539    3.1645    7.8486 H   0  0  0  0  0  0  0  0  0  0  0  0
    6.9730    4.1240    9.5099 H   0  0  0  0  0  0  0  0  0  0  0  0
    3.7287    3.6945    6.7207 H   0  0  0  0  0  0  0  0  0  0  0  0
  1  2  2  3
  2  3  1  0
  3  4  2  0
  3  5  1  0
  5  6  2  0
  6  7  1  0
  6  8  1  0
  8  9  2  0
  9 10  1  0
 10 11  2  0
 11 12  1  0
 12 13  2  3
 13 14  1  0
 14 15  3  0
 13 16  1  0
 16 17  3  0
  1 18  1  0
 18 19  2  0
 19 20  1  0
 20 21  2  0
 21 22  1  0
 22 23  2  0
 23 24  1  0
 24 25  2  0
 25 26  1  0
 26 27  1  0
 19 28  1  0
 28 29  1  0
 29 30  1  0
 30 31  1  0
 31 32  1  0
 32 33  1  0
 33 34  2  0
 34 35  1  0
 35 36  1  0
 33 37  1  0
 37 38  1  0
 38 39  1  0
 39 40  1  0
 40 41  1  0
 41 42  1  0
 42 43  2  0
 43 44  1  0
 44 45  1  0
 43 46  1  0
 46 47  2  0
 47 48  1  0
 48 49  2  0
 41 50  2  0
 50 51  1  0
 51 52  1  0
 52 53  1  0
 53 54  1  0
 54 55  1  0
 55 56  1  0
 56 57  1  0
 57 58  1  0
 58 59  1  0
 59 60  1  0
 57 61  1  0
 61 62  1  0
 54 63  1  0
 63 64  1  0
 50 65  1  0
 65 66  2  3
 66 67  1  0
 67 68  2  0
 67 69  1  0
 69 70  2  0
 70 71  1  0
 71 72  2  0
 72 73  1  0
 72 74  1  0
 74 75  2  0
 75 76  1  0
 76 77  2  3
 77 78  1  0
 78 79  3  0
 77 80  1  0
 80 81  3  0
 12  2  1  0
 60 18  1  0
 76 66  1  0
 11  5  1  0
 25 20  1  0
 59 28  2  0
 75 69  1  0
 58 30  2  0
 56 31  2  0
 36 32  2  0
 55 37  2  0
 53 38  2  0
 52 40  2  0
 49 42  1  0
  1 82  1  0
  8 83  1  0
  9 84  1  0
 10 85  1  0
 21 86  1  0
 22 87  1  0
 23 88  1  0
 24 89  1  0
 26 90  1  0
 26 91  1  0
 27 92  1  0
 27 93  1  0
 27 94  1  0
 44 95  1  0
 44 96  1  0
 45 97  1  0
 45 98  1  0
 45 99  1  0
 46100  1  0
 47101  1  0
 48102  1  0
 49103  1  0
 61104  1  0
 61105  1  0
 62106  1  0
 62107  1  0
 62108  1  0
 63109  1  0
 63110  1  0
 64111  1  0
 64112  1  0
 64113  1  0
 65114  1  0
 70115  1  0
 71116  1  0
 74117  1  0
M  END

