
     RDKit          3D

130146  0  0  0  0  0  0  0  0999 V2000
   -3.2644   -0.8867    7.0192 C   0  0  0  0  0  0  0  0  0  0  0  0
   -2.0383   -1.1885    7.4984 C   0  0  0  0  0  0  0  0  0  0  0  0
   -0.7700   -0.8679    6.8272 C   0  0  0  0  0  0  0  0  0  0  0  0
   -0.6262   -0.1693    5.7896 O   0  0  0  0  0  0  0  0  0  0  0  0
    0.3200   -1.3525    7.6372 C   0  0  0  0  0  0  0  0  0  0  0  0
    1.6898   -1.2469    7.3787 C   0  0  0  0  0  0  0  0  0  0  0  0
    2.1457   -0.6610    6.2426 F   0  0  0  0  0  0  0  0  0  0  0  0
    2.5901   -1.7484    8.3244 C   0  0  0  0  0  0  0  0  0  0  0  0
    2.1124   -2.3334    9.5077 C   0  0  0  0  0  0  0  0  0  0  0  0
    0.7329   -2.4170    9.7556 C   0  0  0  0  0  0  0  0  0  0  0  0
   -0.1748   -1.9257    8.7977 C   0  0  0  0  0  0  0  0  0  0  0  0
   -1.6736   -1.8556    8.8006 C   0  0  0  0  0  0  0  0  0  0  0  0
   -2.5103   -2.3403    9.7611 C   0  0  0  0  0  0  0  0  0  0  0  0
   -3.9426   -2.2220    9.7042 C   0  0  0  0  0  0  0  0  0  0  0  0
   -5.0973   -2.1385    9.6762 N   0  0  0  0  0  0  0  0  0  0  0  0
   -2.0418   -3.0591   10.9156 C   0  0  0  0  0  0  0  0  0  0  0  0
   -1.6838   -3.6498   11.8468 N   0  0  0  0  0  0  0  0  0  0  0  0
   -3.5271   -0.4387    5.6402 C   0  0  0  0  0  0  0  0  0  0  0  0
   -4.4087    0.5951    5.2757 C   0  0  0  0  0  0  0  0  0  0  0  0
   -5.1304    1.4706    6.2163 C   0  0  0  0  0  0  0  0  0  0  0  0
   -6.5206    1.3214    6.3227 C   0  0  0  0  0  0  0  0  0  0  0  0
   -7.2560    2.1367    7.1850 C   0  0  0  0  0  0  0  0  0  0  0  0
   -6.6130    3.1198    7.9410 C   0  0  0  0  0  0  0  0  0  0  0  0
   -5.2327    3.2880    7.8368 C   0  0  0  0  0  0  0  0  0  0  0  0
   -4.4708    2.4643    6.9856 C   0  0  0  0  0  0  0  0  0  0  0  0
   -2.9893    2.7364    6.8491 C   0  0  0  0  0  0  0  0  0  0  0  0
   -2.7107    3.6791    5.6814 C   0  0  0  0  0  0  0  0  0  0  0  0
   -4.5060    0.7069    3.8893 C   0  0  0  0  0  0  0  0  0  0  0  0
   -5.1959    1.8771    2.8632 S   0  0  0  0  0  0  0  0  0  0  0  0
   -4.5178    1.1294    1.4942 C   0  0  0  0  0  0  0  0  0  0  0  0
   -4.1023    1.5693    0.2674 C   0  0  0  0  0  0  0  0  0  0  0  0
   -4.2354    2.8322   -0.3350 C   0  0  0  0  0  0  0  0  0  0  0  0
   -3.3820    3.1672   -1.4299 C   0  0  0  0  0  0  0  0  0  0  0  0
   -3.4999    4.4161   -1.9463 N   0  0  0  0  0  0  0  0  0  0  0  0
   -4.6859    5.0146   -0.9560 S   0  0  0  0  0  0  0  0  0  0  0  0
   -5.0773    3.8019    0.1046 N   0  0  0  0  0  0  0  0  0  0  0  0
   -2.4790    2.2065   -1.8921 C   0  0  0  0  0  0  0  0  0  0  0  0
   -1.5262    2.2222   -2.8751 C   0  0  0  0  0  0  0  0  0  0  0  0
   -0.7531    3.3066   -3.9327 S   0  0  0  0  0  0  0  0  0  0  0  0
    0.3524    2.0850   -4.4015 C   0  0  0  0  0  0  0  0  0  0  0  0
    1.5158    2.0842   -5.1683 C   0  0  0  0  0  0  0  0  0  0  0  0
    1.9154    3.1981   -6.0522 C   0  0  0  0  0  0  0  0  0  0  0  0
    2.5382    4.3773   -5.5665 C   0  0  0  0  0  0  0  0  0  0  0  0
    2.9520    4.5366   -4.1250 C   0  0  0  0  0  0  0  0  0  0  0  0
    4.4364    4.2211   -3.9592 C   0  0  0  0  0  0  0  0  0  0  0  0
    2.8534    5.4078   -6.4701 C   0  0  0  0  0  0  0  0  0  0  0  0
    2.5496    5.2848   -7.8273 C   0  0  0  0  0  0  0  0  0  0  0  0
    1.9286    4.1280   -8.3014 C   0  0  0  0  0  0  0  0  0  0  0  0
    1.6175    3.0896   -7.4208 C   0  0  0  0  0  0  0  0  0  0  0  0
    2.1857    0.8476   -5.0628 C   0  0  0  0  0  0  0  0  0  0  0  0
    1.2745   -0.2303   -4.0953 S   0  0  0  0  0  0  0  0  0  0  0  0
    0.0906    0.8993   -3.7677 C   0  0  0  0  0  0  0  0  0  0  0  0
   -0.9714    0.9873   -2.8983 C   0  0  0  0  0  0  0  0  0  0  0  0
   -1.5087    0.1362   -1.9965 N   0  0  0  0  0  0  0  0  0  0  0  0
   -2.3904    0.9302   -1.3176 C   0  0  0  0  0  0  0  0  0  0  0  0
   -3.1255    0.6506   -0.1471 C   0  0  0  0  0  0  0  0  0  0  0  0
   -2.8199   -0.2314    0.8588 N   0  0  0  0  0  0  0  0  0  0  0  0
   -3.7421    0.0544    1.8156 C   0  0  0  0  0  0  0  0  0  0  0  0
   -3.7455   -0.1868    3.1844 C   0  0  0  0  0  0  0  0  0  0  0  0
   -2.9181   -1.1964    4.2355 S   0  0  0  0  0  0  0  0  0  0  0  0
   -1.4764   -0.7540    1.1727 C   0  0  0  0  0  0  0  0  0  0  0  0
   -0.6154    0.3127    1.8527 C   0  0  0  0  0  0  0  0  0  0  0  0
   -1.5619   -1.3262   -2.1478 C   0  0  0  0  0  0  0  0  0  0  0  0
   -2.1856   -1.7218   -3.4859 C   0  0  0  0  0  0  0  0  0  0  0  0
    3.4587    0.5173   -5.7277 C   0  0  0  0  0  0  0  0  0  0  0  0
    4.3456   -0.4046   -5.3035 C   0  0  0  0  0  0  0  0  0  0  0  0
    5.2717   -1.0649   -6.2297 C   0  0  0  0  0  0  0  0  0  0  0  0
    5.5714   -0.6620   -7.3854 O   0  0  0  0  0  0  0  0  0  0  0  0
    5.6971   -2.3193   -5.6455 C   0  0  0  0  0  0  0  0  0  0  0  0
    6.4317   -3.3566   -6.2682 C   0  0  0  0  0  0  0  0  0  0  0  0
    6.5449   -4.5005   -5.4966 C   0  0  0  0  0  0  0  0  0  0  0  0
    5.9646   -4.6258   -4.1935 C   0  0  0  0  0  0  0  0  0  0  0  0
    5.2378   -3.6202   -3.5843 C   0  0  0  0  0  0  0  0  0  0  0  0
    5.1376   -2.4252   -4.3472 C   0  0  0  0  0  0  0  0  0  0  0  0
    4.4120   -1.1710   -4.0183 C   0  0  0  0  0  0  0  0  0  0  0  0
    4.2747   -0.6664   -2.7637 C   0  0  0  0  0  0  0  0  0  0  0  0
    3.8637    0.6869   -2.5031 C   0  0  0  0  0  0  0  0  0  0  0  0
    3.5175    1.7604   -2.2591 N   0  0  0  0  0  0  0  0  0  0  0  0
    4.6732   -1.4049   -1.5928 C   0  0  0  0  0  0  0  0  0  0  0  0
    5.0092   -1.9807   -0.6486 N   0  0  0  0  0  0  0  0  0  0  0  0
    6.4461   -6.0420   -4.0935 C   0  0  0  0  0  0  0  0  0  0  0  0
    5.3932   -7.1780   -4.2641 C   0  0  0  0  0  0  0  0  0  0  0  0
    4.2844   -6.7224   -5.1859 C   0  0  0  0  0  0  0  0  0  0  0  0
    4.8225   -6.6103   -6.4020 C   0  0  0  0  0  0  0  0  0  0  0  0
    6.2785   -6.9906   -6.2664 C   0  0  0  0  0  0  0  0  0  0  0  0
    6.1422   -8.0847   -5.2222 C   0  0  0  0  0  0  0  0  0  0  0  0
    7.0391   -5.9164   -5.4297 C   0  0  0  0  0  0  0  0  0  0  0  0
   -4.1405   -0.9618    7.6302 H   0  0  0  0  0  0  0  0  0  0  0  0
    3.6566   -1.6777    8.1488 H   0  0  0  0  0  0  0  0  0  0  0  0
    2.8154   -2.7119   10.2398 H   0  0  0  0  0  0  0  0  0  0  0  0
    0.4252   -2.8542   10.6874 H   0  0  0  0  0  0  0  0  0  0  0  0
   -7.0376    0.5693    5.7366 H   0  0  0  0  0  0  0  0  0  0  0  0
   -8.3272    2.0123    7.2626 H   0  0  0  0  0  0  0  0  0  0  0  0
   -7.1894    3.7560    8.5994 H   0  0  0  0  0  0  0  0  0  0  0  0
   -4.7553    4.0719    8.4121 H   0  0  0  0  0  0  0  0  0  0  0  0
   -2.4219    1.7978    6.7017 H   0  0  0  0  0  0  0  0  0  0  0  0
   -2.5963    3.1966    7.7843 H   0  0  0  0  0  0  0  0  0  0  0  0
   -1.6279    3.9268    5.6547 H   0  0  0  0  0  0  0  0  0  0  0  0
   -2.9809    3.1927    4.7224 H   0  0  0  0  0  0  0  0  0  0  0  0
   -3.2876    4.6208    5.7934 H   0  0  0  0  0  0  0  0  0  0  0  0
    2.3551    3.8834   -3.4557 H   0  0  0  0  0  0  0  0  0  0  0  0
    2.7657    5.5823   -3.7959 H   0  0  0  0  0  0  0  0  0  0  0  0
    5.0507    4.9572   -4.5189 H   0  0  0  0  0  0  0  0  0  0  0  0
    4.6630    3.2020   -4.3385 H   0  0  0  0  0  0  0  0  0  0  0  0
    4.7126    4.2765   -2.8860 H   0  0  0  0  0  0  0  0  0  0  0  0
    3.3415    6.3082   -6.1200 H   0  0  0  0  0  0  0  0  0  0  0  0
    2.7953    6.0866   -8.5106 H   0  0  0  0  0  0  0  0  0  0  0  0
    1.6888    4.0364   -9.3527 H   0  0  0  0  0  0  0  0  0  0  0  0
    1.1303    2.2004   -7.8049 H   0  0  0  0  0  0  0  0  0  0  0  0
   -0.9357   -1.0742    0.2736 H   0  0  0  0  0  0  0  0  0  0  0  0
   -1.5568   -1.6495    1.8223 H   0  0  0  0  0  0  0  0  0  0  0  0
    0.3992   -0.0929    2.0466 H   0  0  0  0  0  0  0  0  0  0  0  0
   -1.0609    0.6226    2.8210 H   0  0  0  0  0  0  0  0  0  0  0  0
   -0.5300    1.2037    1.1966 H   0  0  0  0  0  0  0  0  0  0  0  0
   -2.1962   -1.7798   -1.3565 H   0  0  0  0  0  0  0  0  0  0  0  0
   -0.5373   -1.7500   -2.0759 H   0  0  0  0  0  0  0  0  0  0  0  0
   -1.5333   -1.4146   -4.3293 H   0  0  0  0  0  0  0  0  0  0  0  0
   -3.1802   -1.2456   -3.6047 H   0  0  0  0  0  0  0  0  0  0  0  0
   -2.3115   -2.8246   -3.5262 H   0  0  0  0  0  0  0  0  0  0  0  0
    3.6210    0.9748   -6.6972 H   0  0  0  0  0  0  0  0  0  0  0  0
    6.8274   -3.2859   -7.2728 H   0  0  0  0  0  0  0  0  0  0  0  0
    4.7484   -3.7780   -2.6355 H   0  0  0  0  0  0  0  0  0  0  0  0
    7.1927   -6.2081   -3.2843 H   0  0  0  0  0  0  0  0  0  0  0  0
    5.0536   -7.6557   -3.3219 H   0  0  0  0  0  0  0  0  0  0  0  0
    3.2372   -6.5802   -4.9376 H   0  0  0  0  0  0  0  0  0  0  0  0
    4.2876   -6.3617   -7.3119 H   0  0  0  0  0  0  0  0  0  0  0  0
    6.7758   -7.2919   -7.2113 H   0  0  0  0  0  0  0  0  0  0  0  0
    5.5387   -8.9571   -5.5708 H   0  0  0  0  0  0  0  0  0  0  0  0
    7.1205   -8.4474   -4.8220 H   0  0  0  0  0  0  0  0  0  0  0  0
    8.1483   -6.0082   -5.4370 H   0  0  0  0  0  0  0  0  0  0  0  0
  1  2  2  3
  2  3  1  0
  3  4  2  0
  3  5  1  0
  5  6  2  0
  6  7  1  0
  6  8  1  0
  8  9  2  0
  9 10  1  0
 10 11  2  0
 11 12  1  0
 12 13  2  3
 13 14  1  0
 14 15  3  0
 13 16  1  0
 16 17  3  0
  1 18  1  0
 18 19  2  0
 19 20  1  0
 20 21  2  0
 21 22  1  0
 22 23  2  0
 23 24  1  0
 24 25  2  0
 25 26  1  0
 26 27  1  0
 19 28  1  0
 28 29  1  0
 29 30  1  0
 30 31  1  0
 31 32  1  0
 32 33  1  0
 33 34  2  0
 34 35  1  0
 35 36  1  0
 33 37  1  0
 37 38  1  0
 38 39  1  0
 39 40  1  0
 40 41  1  0
 41 42  1  0
 42 43  2  0
 43 44  1  0
 44 45  1  0
 43 46  1  0
 46 47  2  0
 47 48  1  0
 48 49  2  0
 41 50  2  0
 50 51  1  0
 51 52  1  0
 52 53  1  0
 53 54  1  0
 54 55  1  0
 55 56  1  0
 56 57  1  0
 57 58  1  0
 58 59  1  0
 59 60  1  0
 57 61  1  0
 61 62  1  0
 54 63  1  0
 63 64  1  0
 50 65  1  0
 65 66  2  3
 66 67  1  0
 67 68  2  0
 67 69  1  0
 69 70  2  0
 70 71  1  0
 71 72  2  0
 72 73  1  0
 73 74  2  0
 74 75  1  0
 75 76  2  3
 76 77  1  0
 77 78  3  0
 76 79  1  0
 79 80  3  0
 72 81  1  0
 81 82  1  0
 82 83  1  0
 83 84  2  0
 84 85  1  0
 85 86  1  0
 85 87  1  0
 12  2  1  0
 60 18  1  0
 75 66  1  0
 87 81  1  0
 11  5  1  0
 25 20  1  0
 59 28  2  0
 74 69  1  0
 86 82  1  0
 58 30  2  0
 87 71  1  0
 56 31  2  0
 36 32  2  0
 55 37  2  0
 53 38  2  0
 52 40  2  0
 49 42  1  0
  1 88  1  0
  8 89  1  0
  9 90  1  0
 10 91  1  0
 21 92  1  0
 22 93  1  0
 23 94  1  0
 24 95  1  0
 26 96  1  0
 26 97  1  0
 27 98  1  0
 27 99  1  0
 27100  1  0
 44101  1  0
 44102  1  0
 45103  1  0
 45104  1  0
 45105  1  0
 46106  1  0
 47107  1  0
 48108  1  0
 49109  1  0
 61110  1  0
 61111  1  0
 62112  1  0
 62113  1  0
 62114  1  0
 63115  1  0
 63116  1  0
 64117  1  0
 64118  1  0
 64119  1  0
 65120  1  0
 70121  1  0
 73122  1  0
 81123  1  0
 82124  1  0
 83125  1  0
 84126  1  0
 85127  1  0
 86128  1  0
 86129  1  0
 87130  1  0
M  END

