
     RDKit          3D

113126  0  0  0  0  0  0  0  0999 V2000
    0.4947   -5.4310   -4.1746 C   0  0  0  0  0  0  0  0  0  0  0  0
    1.5655   -5.6016   -3.3745 C   0  0  0  0  0  0  0  0  0  0  0  0
    2.1866   -4.5641   -2.5392 C   0  0  0  0  0  0  0  0  0  0  0  0
    1.6922   -3.4446   -2.2381 O   0  0  0  0  0  0  0  0  0  0  0  0
    3.5177   -5.0039   -2.1803 C   0  0  0  0  0  0  0  0  0  0  0  0
    4.5092   -4.2925   -1.5013 C   0  0  0  0  0  0  0  0  0  0  0  0
    4.2645   -3.0562   -0.9991 F   0  0  0  0  0  0  0  0  0  0  0  0
    5.7708   -4.8800   -1.3581 C   0  0  0  0  0  0  0  0  0  0  0  0
    6.0300   -6.1431   -1.9177 C   0  0  0  0  0  0  0  0  0  0  0  0
    5.0214   -6.8381   -2.6069 C   0  0  0  0  0  0  0  0  0  0  0  0
    3.7439   -6.2656   -2.7033 C   0  0  0  0  0  0  0  0  0  0  0  0
    2.5104   -6.7583   -3.3773 C   0  0  0  0  0  0  0  0  0  0  0  0
    2.2131   -8.0486   -3.6819 C   0  0  0  0  0  0  0  0  0  0  0  0
    3.1441   -9.1282   -3.4726 C   0  0  0  0  0  0  0  0  0  0  0  0
    3.8775  -10.0094   -3.3049 N   0  0  0  0  0  0  0  0  0  0  0  0
    0.8920   -8.4575   -4.0927 C   0  0  0  0  0  0  0  0  0  0  0  0
   -0.1657   -8.7922   -4.4214 N   0  0  0  0  0  0  0  0  0  0  0  0
   -0.3052   -4.1997   -4.1723 C   0  0  0  0  0  0  0  0  0  0  0  0
   -0.1634   -3.1488   -5.0880 C   0  0  0  0  0  0  0  0  0  0  0  0
    0.7726   -3.1503   -6.2236 C   0  0  0  0  0  0  0  0  0  0  0  0
    2.1090   -2.7853   -5.9949 C   0  0  0  0  0  0  0  0  0  0  0  0
    3.0148   -2.7272   -7.0555 C   0  0  0  0  0  0  0  0  0  0  0  0
    2.5933   -3.0282   -8.3508 C   0  0  0  0  0  0  0  0  0  0  0  0
    1.2656   -3.3952   -8.5902 C   0  0  0  0  0  0  0  0  0  0  0  0
    0.3364   -3.4786   -7.5317 C   0  0  0  0  0  0  0  0  0  0  0  0
   -1.1287   -3.8197   -7.7772 C   0  0  0  0  0  0  0  0  0  0  0  0
   -1.4155   -4.5659   -9.0840 C   0  0  0  0  0  0  0  0  0  0  0  0
   -0.9029   -2.0363   -4.6965 C   0  0  0  0  0  0  0  0  0  0  0  0
   -0.8121   -0.4061   -5.1559 S   0  0  0  0  0  0  0  0  0  0  0  0
   -1.7820    0.0655   -3.8427 C   0  0  0  0  0  0  0  0  0  0  0  0
   -1.8014    1.1862   -3.0561 C   0  0  0  0  0  0  0  0  0  0  0  0
   -1.1023    2.3930   -3.2180 C   0  0  0  0  0  0  0  0  0  0  0  0
   -0.9205    3.2443   -2.0878 C   0  0  0  0  0  0  0  0  0  0  0  0
   -0.1877    4.3703   -2.2714 N   0  0  0  0  0  0  0  0  0  0  0  0
    0.1959    4.1927   -3.8745 S   0  0  0  0  0  0  0  0  0  0  0  0
   -0.5015    2.7750   -4.3726 N   0  0  0  0  0  0  0  0  0  0  0  0
   -1.5071    2.8748   -0.8768 C   0  0  0  0  0  0  0  0  0  0  0  0
   -1.4922    3.4540    0.3578 C   0  0  0  0  0  0  0  0  0  0  0  0
   -0.5728    4.5919    1.2192 S   0  0  0  0  0  0  0  0  0  0  0  0
   -1.2493    4.0508    2.6923 C   0  0  0  0  0  0  0  0  0  0  0  0
   -0.9197    4.2719    4.0285 C   0  0  0  0  0  0  0  0  0  0  0  0
    0.1366    5.1925    4.4766 C   0  0  0  0  0  0  0  0  0  0  0  0
   -0.1615    6.4950    4.9430 C   0  0  0  0  0  0  0  0  0  0  0  0
   -1.5651    7.0532    4.9140 C   0  0  0  0  0  0  0  0  0  0  0  0
   -1.8182    7.8119    3.6137 C   0  0  0  0  0  0  0  0  0  0  0  0
    0.8899    7.3211    5.3837 C   0  0  0  0  0  0  0  0  0  0  0  0
    2.2078    6.8590    5.3753 C   0  0  0  0  0  0  0  0  0  0  0  0
    2.4946    5.5720    4.9184 C   0  0  0  0  0  0  0  0  0  0  0  0
    1.4646    4.7416    4.4706 C   0  0  0  0  0  0  0  0  0  0  0  0
   -1.5753    3.3548    4.8691 C   0  0  0  0  0  0  0  0  0  0  0  0
   -2.5699    2.3208    3.9447 S   0  0  0  0  0  0  0  0  0  0  0  0
   -2.1468    3.0334    2.4906 C   0  0  0  0  0  0  0  0  0  0  0  0
   -2.2690    2.6886    1.1594 C   0  0  0  0  0  0  0  0  0  0  0  0
   -2.8003    1.6152    0.5316 N   0  0  0  0  0  0  0  0  0  0  0  0
   -2.2527    1.6938   -0.7263 C   0  0  0  0  0  0  0  0  0  0  0  0
   -2.2894    0.7719   -1.8044 C   0  0  0  0  0  0  0  0  0  0  0  0
   -2.4218   -0.5942   -1.7719 N   0  0  0  0  0  0  0  0  0  0  0  0
   -2.1243   -0.9872   -3.0399 C   0  0  0  0  0  0  0  0  0  0  0  0
   -1.6167   -2.1904   -3.5341 C   0  0  0  0  0  0  0  0  0  0  0  0
   -1.3375   -3.7250   -2.9052 S   0  0  0  0  0  0  0  0  0  0  0  0
   -2.3036   -1.4692   -0.5984 C   0  0  0  0  0  0  0  0  0  0  0  0
   -3.5426   -2.3523   -0.4561 C   0  0  0  0  0  0  0  0  0  0  0  0
   -4.0424    0.9533    0.9691 C   0  0  0  0  0  0  0  0  0  0  0  0
   -5.1610    1.1233   -0.0570 C   0  0  0  0  0  0  0  0  0  0  0  0
   -1.4417    3.2968    6.3344 C   0  0  0  0  0  0  0  0  0  0  0  0
   -1.2234    2.1635    7.0171 C   0  0  0  0  0  0  0  0  0  0  0  0
   -0.8963    0.8183    6.5065 C   0  0  0  0  0  0  0  0  0  0  0  0
   -0.6069    0.5150    5.3204 O   0  0  0  0  0  0  0  0  0  0  0  0
   -0.8105   -0.0875    7.6468 C   0  0  0  0  0  0  0  0  0  0  0  0
   -0.5459   -1.4555    7.6725 C   0  0  0  0  0  0  0  0  0  0  0  0
   -0.5189   -2.1040    8.9180 C   0  0  0  0  0  0  0  0  0  0  0  0
   -0.7534   -1.3792   10.1050 C   0  0  0  0  0  0  0  0  0  0  0  0
   -1.0073    0.0023   10.0570 C   0  0  0  0  0  0  0  0  0  0  0  0
   -1.0285    0.6251    8.8101 C   0  0  0  0  0  0  0  0  0  0  0  0
   -1.2688    2.0259    8.4759 C   0  0  0  0  0  0  0  0  0  0  0  0
   -1.4963    2.9496    9.3007 O   0  0  0  0  0  0  0  0  0  0  0  0
    0.2676   -6.1488   -4.9474 H   0  0  0  0  0  0  0  0  0  0  0  0
    6.5574   -4.3498   -0.8361 H   0  0  0  0  0  0  0  0  0  0  0  0
    7.0169   -6.5771   -1.8235 H   0  0  0  0  0  0  0  0  0  0  0  0
    5.2682   -7.7760   -3.0734 H   0  0  0  0  0  0  0  0  0  0  0  0
    2.4466   -2.5338   -4.9958 H   0  0  0  0  0  0  0  0  0  0  0  0
    4.0410   -2.4365   -6.8764 H   0  0  0  0  0  0  0  0  0  0  0  0
    3.2936   -2.9660   -9.1762 H   0  0  0  0  0  0  0  0  0  0  0  0
    0.9802   -3.6028   -9.6115 H   0  0  0  0  0  0  0  0  0  0  0  0
   -1.7206   -2.8759   -7.7585 H   0  0  0  0  0  0  0  0  0  0  0  0
   -1.4941   -4.4708   -6.9496 H   0  0  0  0  0  0  0  0  0  0  0  0
   -2.4865   -4.8627   -9.1058 H   0  0  0  0  0  0  0  0  0  0  0  0
   -0.7899   -5.4841   -9.1533 H   0  0  0  0  0  0  0  0  0  0  0  0
   -1.2282   -3.9105   -9.9624 H   0  0  0  0  0  0  0  0  0  0  0  0
   -2.3192    6.2447    5.0195 H   0  0  0  0  0  0  0  0  0  0  0  0
   -1.7205    7.7433    5.7726 H   0  0  0  0  0  0  0  0  0  0  0  0
   -1.5742    7.1773    2.7374 H   0  0  0  0  0  0  0  0  0  0  0  0
   -2.8891    8.0994    3.5551 H   0  0  0  0  0  0  0  0  0  0  0  0
   -1.1981    8.7323    3.5816 H   0  0  0  0  0  0  0  0  0  0  0  0
    0.6858    8.3269    5.7339 H   0  0  0  0  0  0  0  0  0  0  0  0
    3.0068    7.5029    5.7226 H   0  0  0  0  0  0  0  0  0  0  0  0
    3.5167    5.2171    4.9078 H   0  0  0  0  0  0  0  0  0  0  0  0
    1.7011    3.7425    4.1251 H   0  0  0  0  0  0  0  0  0  0  0  0
   -1.4026   -2.1087   -0.6918 H   0  0  0  0  0  0  0  0  0  0  0  0
   -2.1124   -0.8891    0.3190 H   0  0  0  0  0  0  0  0  0  0  0  0
   -4.4516   -1.7376   -0.3211 H   0  0  0  0  0  0  0  0  0  0  0  0
   -3.6818   -2.9712   -1.3646 H   0  0  0  0  0  0  0  0  0  0  0  0
   -3.4254   -3.0224    0.4192 H   0  0  0  0  0  0  0  0  0  0  0  0
   -3.8798   -0.1090    1.2114 H   0  0  0  0  0  0  0  0  0  0  0  0
   -4.3984    1.4158    1.9143 H   0  0  0  0  0  0  0  0  0  0  0  0
   -5.3054    2.1993   -0.2868 H   0  0  0  0  0  0  0  0  0  0  0  0
   -4.9271    0.5788   -0.9925 H   0  0  0  0  0  0  0  0  0  0  0  0
   -6.1078    0.7182    0.3568 H   0  0  0  0  0  0  0  0  0  0  0  0
   -1.5505    4.2264    6.8815 H   0  0  0  0  0  0  0  0  0  0  0  0
   -0.3734   -2.0062    6.7564 H   0  0  0  0  0  0  0  0  0  0  0  0
   -0.3204   -3.1671    8.9659 H   0  0  0  0  0  0  0  0  0  0  0  0
   -0.7321   -1.8886   11.0595 H   0  0  0  0  0  0  0  0  0  0  0  0
   -1.1852    0.5655   10.9647 H   0  0  0  0  0  0  0  0  0  0  0  0
  1  2  2  3
  2  3  1  0
  3  4  2  0
  3  5  1  0
  5  6  2  0
  6  7  1  0
  6  8  1  0
  8  9  2  0
  9 10  1  0
 10 11  2  0
 11 12  1  0
 12 13  2  3
 13 14  1  0
 14 15  3  0
 13 16  1  0
 16 17  3  0
  1 18  1  0
 18 19  2  0
 19 20  1  0
 20 21  2  0
 21 22  1  0
 22 23  2  0
 23 24  1  0
 24 25  2  0
 25 26  1  0
 26 27  1  0
 19 28  1  0
 28 29  1  0
 29 30  1  0
 30 31  1  0
 31 32  1  0
 32 33  1  0
 33 34  2  0
 34 35  1  0
 35 36  1  0
 33 37  1  0
 37 38  1  0
 38 39  1  0
 39 40  1  0
 40 41  1  0
 41 42  1  0
 42 43  2  0
 43 44  1  0
 44 45  1  0
 43 46  1  0
 46 47  2  0
 47 48  1  0
 48 49  2  0
 41 50  2  0
 50 51  1  0
 51 52  1  0
 52 53  1  0
 53 54  1  0
 54 55  1  0
 55 56  1  0
 56 57  1  0
 57 58  1  0
 58 59  1  0
 59 60  1  0
 57 61  1  0
 61 62  1  0
 54 63  1  0
 63 64  1  0
 50 65  1  0
 65 66  2  3
 66 67  1  0
 67 68  2  0
 67 69  1  0
 69 70  2  0
 70 71  1  0
 71 72  2  0
 72 73  1  0
 73 74  2  0
 74 75  1  0
 75 76  2  0
 12  2  1  0
 60 18  1  0
 75 66  1  0
 11  5  1  0
 25 20  1  0
 59 28  2  0
 74 69  1  0
 58 30  2  0
 56 31  2  0
 36 32  2  0
 55 37  2  0
 53 38  2  0
 52 40  2  0
 49 42  1  0
  1 77  1  0
  8 78  1  0
  9 79  1  0
 10 80  1  0
 21 81  1  0
 22 82  1  0
 23 83  1  0
 24 84  1  0
 26 85  1  0
 26 86  1  0
 27 87  1  0
 27 88  1  0
 27 89  1  0
 44 90  1  0
 44 91  1  0
 45 92  1  0
 45 93  1  0
 45 94  1  0
 46 95  1  0
 47 96  1  0
 48 97  1  0
 49 98  1  0
 61 99  1  0
 61100  1  0
 62101  1  0
 62102  1  0
 62103  1  0
 63104  1  0
 63105  1  0
 64106  1  0
 64107  1  0
 64108  1  0
 65109  1  0
 70110  1  0
 71111  1  0
 72112  1  0
 73113  1  0
M  END

