
     RDKit          3D

117130  0  0  0  0  0  0  0  0999 V2000
   -1.2925    4.4957    4.8473 C   0  0  0  0  0  0  0  0  0  0  0  0
   -2.4586    4.6985    4.2048 C   0  0  0  0  0  0  0  0  0  0  0  0
   -2.9102    3.9644    3.0131 C   0  0  0  0  0  0  0  0  0  0  0  0
   -2.2913    3.0378    2.4251 O   0  0  0  0  0  0  0  0  0  0  0  0
   -4.2711    4.3482    2.7215 C   0  0  0  0  0  0  0  0  0  0  0  0
   -5.1021    3.8620    1.7087 C   0  0  0  0  0  0  0  0  0  0  0  0
   -4.6445    2.9740    0.7908 F   0  0  0  0  0  0  0  0  0  0  0  0
   -6.4298    4.3042    1.6656 C   0  0  0  0  0  0  0  0  0  0  0  0
   -6.9105    5.1963    2.6374 C   0  0  0  0  0  0  0  0  0  0  0  0
   -6.0626    5.6630    3.6562 C   0  0  0  0  0  0  0  0  0  0  0  0
   -4.7147    5.2533    3.6720 C   0  0  0  0  0  0  0  0  0  0  0  0
   -3.6088    5.5703    4.6265 C   0  0  0  0  0  0  0  0  0  0  0  0
   -3.6034    6.5655    5.5610 C   0  0  0  0  0  0  0  0  0  0  0  0
   -2.4719    6.8565    6.3995 C   0  0  0  0  0  0  0  0  0  0  0  0
   -1.5712    7.0982    7.0851 N   0  0  0  0  0  0  0  0  0  0  0  0
   -4.7102    7.4700    5.7436 C   0  0  0  0  0  0  0  0  0  0  0  0
   -5.5781    8.2171    5.9006 N   0  0  0  0  0  0  0  0  0  0  0  0
   -0.1862    3.6807    4.3142 C   0  0  0  0  0  0  0  0  0  0  0  0
    0.4004    2.5915    4.9823 C   0  0  0  0  0  0  0  0  0  0  0  0
   -0.1027    2.0378    6.2518 C   0  0  0  0  0  0  0  0  0  0  0  0
   -0.9210    0.9004    6.1935 C   0  0  0  0  0  0  0  0  0  0  0  0
   -1.5343    0.4094    7.3450 C   0  0  0  0  0  0  0  0  0  0  0  0
   -1.3548    1.0607    8.5620 C   0  0  0  0  0  0  0  0  0  0  0  0
   -0.5339    2.1889    8.6397 C   0  0  0  0  0  0  0  0  0  0  0  0
    0.1400    2.6704    7.4987 C   0  0  0  0  0  0  0  0  0  0  0  0
    1.0482    3.8839    7.6087 C   0  0  0  0  0  0  0  0  0  0  0  0
    1.9963    3.8166    8.8105 C   0  0  0  0  0  0  0  0  0  0  0  0
    1.3599    1.9757    4.1833 C   0  0  0  0  0  0  0  0  0  0  0  0
    2.1771    0.4777    4.2920 S   0  0  0  0  0  0  0  0  0  0  0  0
    2.7517    0.6575    2.7049 C   0  0  0  0  0  0  0  0  0  0  0  0
    3.3249   -0.1020    1.7240 C   0  0  0  0  0  0  0  0  0  0  0  0
    3.9217   -1.3635    1.7526 C   0  0  0  0  0  0  0  0  0  0  0  0
    4.3701   -1.9295    0.5242 C   0  0  0  0  0  0  0  0  0  0  0  0
    4.9155   -3.1716    0.5896 N   0  0  0  0  0  0  0  0  0  0  0  0
    4.8028   -3.4469    2.2186 S   0  0  0  0  0  0  0  0  0  0  0  0
    4.0915   -2.1032    2.8767 N   0  0  0  0  0  0  0  0  0  0  0  0
    4.1392   -1.2319   -0.6730 C   0  0  0  0  0  0  0  0  0  0  0  0
    4.0959   -1.7158   -1.9529 C   0  0  0  0  0  0  0  0  0  0  0  0
    4.1480   -3.2848   -2.6059 S   0  0  0  0  0  0  0  0  0  0  0  0
    3.1322   -2.8335   -3.8893 C   0  0  0  0  0  0  0  0  0  0  0  0
    2.4449   -3.5753   -4.8493 C   0  0  0  0  0  0  0  0  0  0  0  0
    2.7022   -4.9943   -5.1518 C   0  0  0  0  0  0  0  0  0  0  0  0
    1.8814   -6.0386   -4.6542 C   0  0  0  0  0  0  0  0  0  0  0  0
    0.7634   -5.7901   -3.6683 C   0  0  0  0  0  0  0  0  0  0  0  0
    1.2357   -6.0389   -2.2384 C   0  0  0  0  0  0  0  0  0  0  0  0
    2.1524   -7.3633   -5.0433 C   0  0  0  0  0  0  0  0  0  0  0  0
    3.2078   -7.6490   -5.9124 C   0  0  0  0  0  0  0  0  0  0  0  0
    4.0179   -6.6190   -6.3918 C   0  0  0  0  0  0  0  0  0  0  0  0
    3.7671   -5.2994   -6.0135 C   0  0  0  0  0  0  0  0  0  0  0  0
    1.4564   -2.7996   -5.4733 C   0  0  0  0  0  0  0  0  0  0  0  0
    1.4735   -1.2192   -4.8404 S   0  0  0  0  0  0  0  0  0  0  0  0
    2.7315   -1.5256   -3.7694 C   0  0  0  0  0  0  0  0  0  0  0  0
    3.2928   -0.8759   -2.6692 C   0  0  0  0  0  0  0  0  0  0  0  0
    2.8576    0.1818   -1.9338 N   0  0  0  0  0  0  0  0  0  0  0  0
    3.4394   -0.0095   -0.7013 C   0  0  0  0  0  0  0  0  0  0  0  0
    3.1444    0.6203    0.5362 C   0  0  0  0  0  0  0  0  0  0  0  0
    2.5841    1.8442    0.7925 N   0  0  0  0  0  0  0  0  0  0  0  0
    2.3262    1.8011    2.1192 C   0  0  0  0  0  0  0  0  0  0  0  0
    1.5471    2.5701    2.9609 C   0  0  0  0  0  0  0  0  0  0  0  0
    0.5238    3.8828    2.7727 S   0  0  0  0  0  0  0  0  0  0  0  0
    2.7093    3.0704   -0.0034 C   0  0  0  0  0  0  0  0  0  0  0  0
    3.6740    4.0637    0.6448 C   0  0  0  0  0  0  0  0  0  0  0  0
    1.6343    0.9388   -2.2477 C   0  0  0  0  0  0  0  0  0  0  0  0
    1.8675    1.9184   -3.4007 C   0  0  0  0  0  0  0  0  0  0  0  0
    0.5564   -3.2719   -6.5346 C   0  0  0  0  0  0  0  0  0  0  0  0
   -0.7821   -3.3608   -6.3930 C   0  0  0  0  0  0  0  0  0  0  0  0
   -1.5433   -2.9352   -5.2100 C   0  0  0  0  0  0  0  0  0  0  0  0
   -1.0668   -2.6491   -4.0792 O   0  0  0  0  0  0  0  0  0  0  0  0
   -2.9557   -2.9388   -5.5335 C   0  0  0  0  0  0  0  0  0  0  0  0
   -3.1251   -3.4009   -6.8314 C   0  0  0  0  0  0  0  0  0  0  0  0
   -4.4172   -3.4504   -7.3817 C   0  0  0  0  0  0  0  0  0  0  0  0
   -5.5135   -3.0556   -6.6025 C   0  0  0  0  0  0  0  0  0  0  0  0
   -5.3326   -2.6014   -5.2872 C   0  0  0  0  0  0  0  0  0  0  0  0
   -6.8752   -2.0735   -4.2833 Br  0  0  0  0  0  0  0  0  0  0  0  0
   -4.0386   -2.5347   -4.7364 C   0  0  0  0  0  0  0  0  0  0  0  0
   -3.7904   -1.9412   -3.0974 Cl  0  0  0  0  0  0  0  0  0  0  0  0
   -1.7965   -3.7635   -7.4228 C   0  0  0  0  0  0  0  0  0  0  0  0
   -1.5766   -4.4473   -8.5807 C   0  0  0  0  0  0  0  0  0  0  0  0
   -2.6221   -4.7624   -9.5172 C   0  0  0  0  0  0  0  0  0  0  0  0
   -3.4498   -5.0082  -10.2926 N   0  0  0  0  0  0  0  0  0  0  0  0
   -0.2771   -4.9306   -8.9743 C   0  0  0  0  0  0  0  0  0  0  0  0
    0.7669   -5.2998   -9.3086 N   0  0  0  0  0  0  0  0  0  0  0  0
   -1.1465    4.8679    5.8423 H   0  0  0  0  0  0  0  0  0  0  0  0
   -7.0968    3.9405    0.8937 H   0  0  0  0  0  0  0  0  0  0  0  0
   -7.9440    5.5156    2.6125 H   0  0  0  0  0  0  0  0  0  0  0  0
   -6.4848    6.2901    4.4181 H   0  0  0  0  0  0  0  0  0  0  0  0
   -1.1104    0.4095    5.2466 H   0  0  0  0  0  0  0  0  0  0  0  0
   -2.1690   -0.4642    7.2871 H   0  0  0  0  0  0  0  0  0  0  0  0
   -1.8587    0.6962    9.4462 H   0  0  0  0  0  0  0  0  0  0  0  0
   -0.4252    2.6821    9.5960 H   0  0  0  0  0  0  0  0  0  0  0  0
    1.6883    3.9830    6.7033 H   0  0  0  0  0  0  0  0  0  0  0  0
    0.4282    4.8049    7.6820 H   0  0  0  0  0  0  0  0  0  0  0  0
    2.4782    2.8150    8.8722 H   0  0  0  0  0  0  0  0  0  0  0  0
    1.4433    4.0243    9.7541 H   0  0  0  0  0  0  0  0  0  0  0  0
    2.7879    4.5883    8.7046 H   0  0  0  0  0  0  0  0  0  0  0  0
    0.3803   -4.7551   -3.7449 H   0  0  0  0  0  0  0  0  0  0  0  0
   -0.0925   -6.4650   -3.8903 H   0  0  0  0  0  0  0  0  0  0  0  0
    0.3992   -5.8569   -1.5326 H   0  0  0  0  0  0  0  0  0  0  0  0
    2.0706   -5.3556   -1.9829 H   0  0  0  0  0  0  0  0  0  0  0  0
    1.5760   -7.0905   -2.1184 H   0  0  0  0  0  0  0  0  0  0  0  0
    1.5467   -8.1796   -4.6664 H   0  0  0  0  0  0  0  0  0  0  0  0
    3.4077   -8.6716   -6.2035 H   0  0  0  0  0  0  0  0  0  0  0  0
    4.8362   -6.8438   -7.0625 H   0  0  0  0  0  0  0  0  0  0  0  0
    4.3969   -4.5097   -6.4063 H   0  0  0  0  0  0  0  0  0  0  0  0
    3.1331    2.8329   -0.9938 H   0  0  0  0  0  0  0  0  0  0  0  0
    1.7123    3.5427   -0.1309 H   0  0  0  0  0  0  0  0  0  0  0  0
    4.6622    3.5843    0.8093 H   0  0  0  0  0  0  0  0  0  0  0  0
    3.8062    4.9387   -0.0215 H   0  0  0  0  0  0  0  0  0  0  0  0
    3.2779    4.4254    1.6155 H   0  0  0  0  0  0  0  0  0  0  0  0
    1.2397    1.4742   -1.3692 H   0  0  0  0  0  0  0  0  0  0  0  0
    0.8258    0.2300   -2.5246 H   0  0  0  0  0  0  0  0  0  0  0  0
    2.3083    1.4039   -4.2761 H   0  0  0  0  0  0  0  0  0  0  0  0
    0.9007    2.3701   -3.7051 H   0  0  0  0  0  0  0  0  0  0  0  0
    2.5612    2.7290   -3.1094 H   0  0  0  0  0  0  0  0  0  0  0  0
    1.0470   -3.5454   -7.4502 H   0  0  0  0  0  0  0  0  0  0  0  0
   -4.6123   -3.7672   -8.3891 H   0  0  0  0  0  0  0  0  0  0  0  0
   -6.5110   -3.1022   -7.0246 H   0  0  0  0  0  0  0  0  0  0  0  0
  1  2  2  3
  2  3  1  0
  3  4  2  0
  3  5  1  0
  5  6  2  0
  6  7  1  0
  6  8  1  0
  8  9  2  0
  9 10  1  0
 10 11  2  0
 11 12  1  0
 12 13  2  3
 13 14  1  0
 14 15  3  0
 13 16  1  0
 16 17  3  0
  1 18  1  0
 18 19  2  0
 19 20  1  0
 20 21  2  0
 21 22  1  0
 22 23  2  0
 23 24  1  0
 24 25  2  0
 25 26  1  0
 26 27  1  0
 19 28  1  0
 28 29  1  0
 29 30  1  0
 30 31  1  0
 31 32  1  0
 32 33  1  0
 33 34  2  0
 34 35  1  0
 35 36  1  0
 33 37  1  0
 37 38  1  0
 38 39  1  0
 39 40  1  0
 40 41  1  0
 41 42  1  0
 42 43  2  0
 43 44  1  0
 44 45  1  0
 43 46  1  0
 46 47  2  0
 47 48  1  0
 48 49  2  0
 41 50  2  0
 50 51  1  0
 51 52  1  0
 52 53  1  0
 53 54  1  0
 54 55  1  0
 55 56  1  0
 56 57  1  0
 57 58  1  0
 58 59  1  0
 59 60  1  0
 57 61  1  0
 61 62  1  0
 54 63  1  0
 63 64  1  0
 50 65  1  0
 65 66  2  3
 66 67  1  0
 67 68  2  0
 67 69  1  0
 69 70  2  0
 70 71  1  0
 71 72  2  0
 72 73  1  0
 73 74  1  0
 73 75  2  0
 75 76  1  0
 70 77  1  0
 77 78  2  3
 78 79  1  0
 79 80  3  0
 78 81  1  0
 81 82  3  0
 12  2  1  0
 60 18  1  0
 77 66  1  0
 11  5  1  0
 25 20  1  0
 59 28  2  0
 75 69  1  0
 58 30  2  0
 56 31  2  0
 36 32  2  0
 55 37  2  0
 53 38  2  0
 52 40  2  0
 49 42  1  0
  1 83  1  0
  8 84  1  0
  9 85  1  0
 10 86  1  0
 21 87  1  0
 22 88  1  0
 23 89  1  0
 24 90  1  0
 26 91  1  0
 26 92  1  0
 27 93  1  0
 27 94  1  0
 27 95  1  0
 44 96  1  0
 44 97  1  0
 45 98  1  0
 45 99  1  0
 45100  1  0
 46101  1  0
 47102  1  0
 48103  1  0
 49104  1  0
 61105  1  0
 61106  1  0
 62107  1  0
 62108  1  0
 62109  1  0
 63110  1  0
 63111  1  0
 64112  1  0
 64113  1  0
 64114  1  0
 65115  1  0
 71116  1  0
 72117  1  0
M  END

