
     RDKit          3D

117130  0  0  0  0  0  0  0  0999 V2000
   -2.3895   -2.2168    7.0582 C   0  0  0  0  0  0  0  0  0  0  0  0
   -1.8474   -3.3909    7.4550 C   0  0  0  0  0  0  0  0  0  0  0  0
   -0.7631   -4.1581    6.8082 C   0  0  0  0  0  0  0  0  0  0  0  0
   -0.1993   -3.9101    5.7099 O   0  0  0  0  0  0  0  0  0  0  0  0
   -0.3157   -5.1878    7.7216 C   0  0  0  0  0  0  0  0  0  0  0  0
    0.7048   -6.1290    7.5318 C   0  0  0  0  0  0  0  0  0  0  0  0
    1.3741   -6.2121    6.3516 F   0  0  0  0  0  0  0  0  0  0  0  0
    1.0175   -6.9971    8.5844 C   0  0  0  0  0  0  0  0  0  0  0  0
    0.3361   -6.8941    9.8099 C   0  0  0  0  0  0  0  0  0  0  0  0
   -0.6792   -5.9382    9.9834 C   0  0  0  0  0  0  0  0  0  0  0  0
   -1.0222   -5.0986    8.9093 C   0  0  0  0  0  0  0  0  0  0  0  0
   -2.0731   -4.0456    8.7915 C   0  0  0  0  0  0  0  0  0  0  0  0
   -3.1589   -3.8936    9.6051 C   0  0  0  0  0  0  0  0  0  0  0  0
   -4.2856   -3.0659    9.2609 C   0  0  0  0  0  0  0  0  0  0  0  0
   -5.1973   -2.4044    8.9956 N   0  0  0  0  0  0  0  0  0  0  0  0
   -3.3452   -4.6548   10.8125 C   0  0  0  0  0  0  0  0  0  0  0  0
   -3.5167   -5.2647   11.7809 N   0  0  0  0  0  0  0  0  0  0  0  0
   -2.3555   -1.5695    5.7206 C   0  0  0  0  0  0  0  0  0  0  0  0
   -2.8708   -0.2775    5.4775 C   0  0  0  0  0  0  0  0  0  0  0  0
   -3.4250    0.6271    6.5032 C   0  0  0  0  0  0  0  0  0  0  0  0
   -4.7384    0.4162    6.9466 C   0  0  0  0  0  0  0  0  0  0  0  0
   -5.3024    1.2551    7.9100 C   0  0  0  0  0  0  0  0  0  0  0  0
   -4.5601    2.3119    8.4367 C   0  0  0  0  0  0  0  0  0  0  0  0
   -3.2521    2.5378    8.0000 C   0  0  0  0  0  0  0  0  0  0  0  0
   -2.6716    1.7074    7.0244 C   0  0  0  0  0  0  0  0  0  0  0  0
   -1.2327    1.9440    6.6237 C   0  0  0  0  0  0  0  0  0  0  0  0
   -0.2830    1.2142    7.5671 C   0  0  0  0  0  0  0  0  0  0  0  0
   -2.8211    0.0587    4.1265 C   0  0  0  0  0  0  0  0  0  0  0  0
   -3.3456    1.4212    3.2365 S   0  0  0  0  0  0  0  0  0  0  0  0
   -2.7823    0.7130    1.8009 C   0  0  0  0  0  0  0  0  0  0  0  0
   -2.8456    0.9138    0.4525 C   0  0  0  0  0  0  0  0  0  0  0  0
   -3.4919    1.8837   -0.3166 C   0  0  0  0  0  0  0  0  0  0  0  0
   -3.4891    1.7400   -1.7367 C   0  0  0  0  0  0  0  0  0  0  0  0
   -4.1056    2.7148   -2.4505 N   0  0  0  0  0  0  0  0  0  0  0  0
   -4.6362    3.6784   -1.2125 S   0  0  0  0  0  0  0  0  0  0  0  0
   -4.1345    2.9616    0.1944 N   0  0  0  0  0  0  0  0  0  0  0  0
   -2.7998    0.6587   -2.3095 C   0  0  0  0  0  0  0  0  0  0  0  0
   -2.3383    0.5090   -3.5870 C   0  0  0  0  0  0  0  0  0  0  0  0
   -2.2533    1.5648   -4.9092 S   0  0  0  0  0  0  0  0  0  0  0  0
   -0.8220    0.8389   -5.4570 C   0  0  0  0  0  0  0  0  0  0  0  0
    0.1317    1.2848   -6.3709 C   0  0  0  0  0  0  0  0  0  0  0  0
   -0.0615    2.4609   -7.2422 C   0  0  0  0  0  0  0  0  0  0  0  0
   -0.8169    2.3851   -8.4384 C   0  0  0  0  0  0  0  0  0  0  0  0
   -1.4372    1.0904   -8.9144 C   0  0  0  0  0  0  0  0  0  0  0  0
   -0.4292    0.2580   -9.7007 C   0  0  0  0  0  0  0  0  0  0  0  0
   -0.9430    3.5354   -9.2393 C   0  0  0  0  0  0  0  0  0  0  0  0
   -0.3641    4.7446   -8.8470 C   0  0  0  0  0  0  0  0  0  0  0  0
    0.3590    4.8189   -7.6572 C   0  0  0  0  0  0  0  0  0  0  0  0
    0.5125    3.6843   -6.8590 C   0  0  0  0  0  0  0  0  0  0  0  0
    1.3567    0.6330   -6.1756 C   0  0  0  0  0  0  0  0  0  0  0  0
    1.2200   -0.4792   -4.8933 S   0  0  0  0  0  0  0  0  0  0  0  0
   -0.4000   -0.1455   -4.5952 C   0  0  0  0  0  0  0  0  0  0  0  0
   -1.2809   -0.3547   -3.5293 C   0  0  0  0  0  0  0  0  0  0  0  0
   -1.0826   -0.8465   -2.2745 N   0  0  0  0  0  0  0  0  0  0  0  0
   -2.0777   -0.2593   -1.5304 C   0  0  0  0  0  0  0  0  0  0  0  0
   -2.2165   -0.1996   -0.1209 C   0  0  0  0  0  0  0  0  0  0  0  0
   -1.9073   -1.1324    0.8333 N   0  0  0  0  0  0  0  0  0  0  0  0
   -2.2346   -0.5110    1.9922 C   0  0  0  0  0  0  0  0  0  0  0  0
   -2.2893   -0.9044    3.3171 C   0  0  0  0  0  0  0  0  0  0  0  0
   -1.8975   -2.2563    4.2203 S   0  0  0  0  0  0  0  0  0  0  0  0
   -1.8300   -2.5864    0.6622 C   0  0  0  0  0  0  0  0  0  0  0  0
   -3.1999   -3.2331    0.8619 C   0  0  0  0  0  0  0  0  0  0  0  0
    0.1998   -1.3757   -1.7806 C   0  0  0  0  0  0  0  0  0  0  0  0
    0.4828   -2.7708   -2.3469 C   0  0  0  0  0  0  0  0  0  0  0  0
    2.6225    1.0256   -6.8097 C   0  0  0  0  0  0  0  0  0  0  0  0
    3.5490    1.7747   -6.1796 C   0  0  0  0  0  0  0  0  0  0  0  0
    3.3744    2.4258   -4.8722 C   0  0  0  0  0  0  0  0  0  0  0  0
    2.4857    2.1723   -4.0167 O   0  0  0  0  0  0  0  0  0  0  0  0
    4.3544    3.4840   -4.7550 C   0  0  0  0  0  0  0  0  0  0  0  0
    4.4731    4.4410   -3.7438 C   0  0  0  0  0  0  0  0  0  0  0  0
    3.6612    4.4153   -2.6573 F   0  0  0  0  0  0  0  0  0  0  0  0
    5.4384    5.4453   -3.8859 C   0  0  0  0  0  0  0  0  0  0  0  0
    6.2478    5.4906   -5.0341 C   0  0  0  0  0  0  0  0  0  0  0  0
    6.1089    4.5246   -6.0428 C   0  0  0  0  0  0  0  0  0  0  0  0
    5.1600    3.4994   -5.8825 C   0  0  0  0  0  0  0  0  0  0  0  0
    4.7770    2.3754   -6.7861 C   0  0  0  0  0  0  0  0  0  0  0  0
    5.5060    1.8705   -7.8146 C   0  0  0  0  0  0  0  0  0  0  0  0
    5.1573    0.6365   -8.4692 C   0  0  0  0  0  0  0  0  0  0  0  0
    4.8839   -0.3569   -8.9981 N   0  0  0  0  0  0  0  0  0  0  0  0
    6.7495    2.4538   -8.2451 C   0  0  0  0  0  0  0  0  0  0  0  0
    7.7526    2.9093   -8.6031 N   0  0  0  0  0  0  0  0  0  0  0  0
   -2.9169   -1.6430    7.7996 H   0  0  0  0  0  0  0  0  0  0  0  0
    1.7931   -7.7411    8.4606 H   0  0  0  0  0  0  0  0  0  0  0  0
    0.6020   -7.5531   10.6274 H   0  0  0  0  0  0  0  0  0  0  0  0
   -1.1463   -5.8660   10.9515 H   0  0  0  0  0  0  0  0  0  0  0  0
   -5.3248   -0.4049    6.5501 H   0  0  0  0  0  0  0  0  0  0  0  0
   -6.3146    1.0820    8.2523 H   0  0  0  0  0  0  0  0  0  0  0  0
   -4.9972    2.9571    9.1876 H   0  0  0  0  0  0  0  0  0  0  0  0
   -2.6847    3.3534    8.4288 H   0  0  0  0  0  0  0  0  0  0  0  0
   -1.0067    3.0321    6.6477 H   0  0  0  0  0  0  0  0  0  0  0  0
   -1.0422    1.6112    5.5851 H   0  0  0  0  0  0  0  0  0  0  0  0
    0.7535    1.2820    7.1766 H   0  0  0  0  0  0  0  0  0  0  0  0
   -0.5593    0.1437    7.6585 H   0  0  0  0  0  0  0  0  0  0  0  0
   -0.3115    1.6851    8.5711 H   0  0  0  0  0  0  0  0  0  0  0  0
   -2.3129    1.3049   -9.5637 H   0  0  0  0  0  0  0  0  0  0  0  0
   -1.8174    0.4987   -8.0569 H   0  0  0  0  0  0  0  0  0  0  0  0
   -0.0590    0.8306  -10.5784 H   0  0  0  0  0  0  0  0  0  0  0  0
    0.4293   -0.0242   -9.0566 H   0  0  0  0  0  0  0  0  0  0  0  0
   -0.9194   -0.6704  -10.0629 H   0  0  0  0  0  0  0  0  0  0  0  0
   -1.4928    3.4950  -10.1717 H   0  0  0  0  0  0  0  0  0  0  0  0
   -0.4778    5.6266   -9.4658 H   0  0  0  0  0  0  0  0  0  0  0  0
    0.8017    5.7575   -7.3513 H   0  0  0  0  0  0  0  0  0  0  0  0
    1.0728    3.7634   -5.9353 H   0  0  0  0  0  0  0  0  0  0  0  0
   -1.0971   -3.0133    1.3830 H   0  0  0  0  0  0  0  0  0  0  0  0
   -1.5084   -2.8408   -0.3582 H   0  0  0  0  0  0  0  0  0  0  0  0
   -3.9342   -2.8015    0.1461 H   0  0  0  0  0  0  0  0  0  0  0  0
   -3.1251   -4.3283    0.6803 H   0  0  0  0  0  0  0  0  0  0  0  0
   -3.5685   -3.0732    1.8980 H   0  0  0  0  0  0  0  0  0  0  0  0
    0.2238   -1.4132   -0.6742 H   0  0  0  0  0  0  0  0  0  0  0  0
    1.0233   -0.6850   -2.0662 H   0  0  0  0  0  0  0  0  0  0  0  0
    1.4406   -3.1499   -1.9320 H   0  0  0  0  0  0  0  0  0  0  0  0
   -0.3228   -3.4864   -2.0941 H   0  0  0  0  0  0  0  0  0  0  0  0
    0.5694   -2.7447   -3.4524 H   0  0  0  0  0  0  0  0  0  0  0  0
    2.7066    0.8240   -7.8644 H   0  0  0  0  0  0  0  0  0  0  0  0
    5.5490    6.1994   -3.1192 H   0  0  0  0  0  0  0  0  0  0  0  0
    6.9754    6.2846   -5.1482 H   0  0  0  0  0  0  0  0  0  0  0  0
    6.7105    4.6222   -6.9296 H   0  0  0  0  0  0  0  0  0  0  0  0
  1  2  2  3
  2  3  1  0
  3  4  2  0
  3  5  1  0
  5  6  2  0
  6  7  1  0
  6  8  1  0
  8  9  2  0
  9 10  1  0
 10 11  2  0
 11 12  1  0
 12 13  2  3
 13 14  1  0
 14 15  3  0
 13 16  1  0
 16 17  3  0
  1 18  1  0
 18 19  2  0
 19 20  1  0
 20 21  2  0
 21 22  1  0
 22 23  2  0
 23 24  1  0
 24 25  2  0
 25 26  1  0
 26 27  1  0
 19 28  1  0
 28 29  1  0
 29 30  1  0
 30 31  1  0
 31 32  1  0
 32 33  1  0
 33 34  2  0
 34 35  1  0
 35 36  1  0
 33 37  1  0
 37 38  1  0
 38 39  1  0
 39 40  1  0
 40 41  1  0
 41 42  1  0
 42 43  2  0
 43 44  1  0
 44 45  1  0
 43 46  1  0
 46 47  2  0
 47 48  1  0
 48 49  2  0
 41 50  2  0
 50 51  1  0
 51 52  1  0
 52 53  1  0
 53 54  1  0
 54 55  1  0
 55 56  1  0
 56 57  1  0
 57 58  1  0
 58 59  1  0
 59 60  1  0
 57 61  1  0
 61 62  1  0
 54 63  1  0
 63 64  1  0
 50 65  1  0
 65 66  2  3
 66 67  1  0
 67 68  2  0
 67 69  1  0
 69 70  2  0
 70 71  1  0
 70 72  1  0
 72 73  2  0
 73 74  1  0
 74 75  2  0
 75 76  1  0
 76 77  2  3
 77 78  1  0
 78 79  3  0
 77 80  1  0
 80 81  3  0
 12  2  1  0
 60 18  1  0
 76 66  1  0
 11  5  1  0
 25 20  1  0
 59 28  2  0
 75 69  1  0
 58 30  2  0
 56 31  2  0
 36 32  2  0
 55 37  2  0
 53 38  2  0
 52 40  2  0
 49 42  1  0
  1 82  1  0
  8 83  1  0
  9 84  1  0
 10 85  1  0
 21 86  1  0
 22 87  1  0
 23 88  1  0
 24 89  1  0
 26 90  1  0
 26 91  1  0
 27 92  1  0
 27 93  1  0
 27 94  1  0
 44 95  1  0
 44 96  1  0
 45 97  1  0
 45 98  1  0
 45 99  1  0
 46100  1  0
 47101  1  0
 48102  1  0
 49103  1  0
 61104  1  0
 61105  1  0
 62106  1  0
 62107  1  0
 62108  1  0
 63109  1  0
 63110  1  0
 64111  1  0
 64112  1  0
 64113  1  0
 65114  1  0
 72115  1  0
 73116  1  0
 74117  1  0
M  END

