
     RDKit          3D

121133  0  0  0  0  0  0  0  0999 V2000
    1.3730   -7.0165    2.9078 C   0  0  0  0  0  0  0  0  0  0  0  0
    2.4418   -6.3364    2.4242 C   0  0  0  0  0  0  0  0  0  0  0  0
    2.8546   -5.0043    2.8899 C   0  0  0  0  0  0  0  0  0  0  0  0
    2.1232   -4.0842    3.4590 O   0  0  0  0  0  0  0  0  0  0  0  0
    4.1216   -4.7529    2.3171 C   0  0  0  0  0  0  0  0  0  0  0  0
    5.0044   -3.7107    2.6886 C   0  0  0  0  0  0  0  0  0  0  0  0
    4.6844   -2.7372    3.6295 F   0  0  0  0  0  0  0  0  0  0  0  0
    6.1809   -3.5496    1.9341 C   0  0  0  0  0  0  0  0  0  0  0  0
    6.4807   -4.4865    0.9219 C   0  0  0  0  0  0  0  0  0  0  0  0
    5.6428   -5.5879    0.6872 C   0  0  0  0  0  0  0  0  0  0  0  0
    4.4095   -5.7325    1.3674 C   0  0  0  0  0  0  0  0  0  0  0  0
    3.2516   -6.7667    1.1341 C   0  0  0  0  0  0  0  0  0  0  0  0
    3.4121   -7.3142   -0.0825 C   0  0  0  0  0  0  0  0  0  0  0  0
    3.2189   -6.3713   -1.2313 C   0  0  0  0  0  0  0  0  0  0  0  0
    3.0244   -5.6247   -2.0893 N   0  0  0  0  0  0  0  0  0  0  0  0
    3.5921   -8.7066   -0.3947 C   0  0  0  0  0  0  0  0  0  0  0  0
    3.8159   -9.8285   -0.6373 N   0  0  0  0  0  0  0  0  0  0  0  0
    0.2491   -6.2734    3.5102 C   0  0  0  0  0  0  0  0  0  0  0  0
    0.1941   -5.7376    4.8536 C   0  0  0  0  0  0  0  0  0  0  0  0
    0.6746   -6.4462    6.1207 C   0  0  0  0  0  0  0  0  0  0  0  0
   -0.0751   -7.5914    6.4476 C   0  0  0  0  0  0  0  0  0  0  0  0
    0.1836   -8.3714    7.5808 C   0  0  0  0  0  0  0  0  0  0  0  0
    1.2164   -7.9551    8.4656 C   0  0  0  0  0  0  0  0  0  0  0  0
    1.9474   -6.7801    8.2141 C   0  0  0  0  0  0  0  0  0  0  0  0
    1.6778   -5.9434    7.0654 C   0  0  0  0  0  0  0  0  0  0  0  0
    2.5551   -4.7246    6.8495 C   0  0  0  0  0  0  0  0  0  0  0  0
    3.8304   -5.0371    5.9884 C   0  0  0  0  0  0  0  0  0  0  0  0
   -0.6372   -4.6141    4.8721 C   0  0  0  0  0  0  0  0  0  0  0  0
   -0.3894   -3.0934    5.7101 S   0  0  0  0  0  0  0  0  0  0  0  0
   -1.2443   -2.2070    4.5207 C   0  0  0  0  0  0  0  0  0  0  0  0
   -1.3847   -0.9250    3.9492 C   0  0  0  0  0  0  0  0  0  0  0  0
   -0.8109    0.2627    4.4045 C   0  0  0  0  0  0  0  0  0  0  0  0
   -0.8929    1.4313    3.5490 C   0  0  0  0  0  0  0  0  0  0  0  0
   -0.3441    2.5656    4.0079 N   0  0  0  0  0  0  0  0  0  0  0  0
    0.1782    2.0023    5.4881 S   0  0  0  0  0  0  0  0  0  0  0  0
   -0.1662    0.3888    5.6165 N   0  0  0  0  0  0  0  0  0  0  0  0
   -1.4607    1.2884    2.2685 C   0  0  0  0  0  0  0  0  0  0  0  0
   -1.5127    2.1680    1.2030 C   0  0  0  0  0  0  0  0  0  0  0  0
   -0.9563    3.7499    0.8448 S   0  0  0  0  0  0  0  0  0  0  0  0
   -1.6532    3.5989   -0.7036 C   0  0  0  0  0  0  0  0  0  0  0  0
   -1.5589    4.4061   -1.8181 C   0  0  0  0  0  0  0  0  0  0  0  0
   -0.6259    5.5483   -1.8895 C   0  0  0  0  0  0  0  0  0  0  0  0
    0.6882    5.4427   -2.3916 C   0  0  0  0  0  0  0  0  0  0  0  0
    1.1857    4.0442   -2.7641 C   0  0  0  0  0  0  0  0  0  0  0  0
    2.6813    3.8925   -3.1029 C   0  0  0  0  0  0  0  0  0  0  0  0
    1.4811    6.5906   -2.5452 C   0  0  0  0  0  0  0  0  0  0  0  0
    0.9516    7.8682   -2.2090 C   0  0  0  0  0  0  0  0  0  0  0  0
   -0.3689    7.9885   -1.7838 C   0  0  0  0  0  0  0  0  0  0  0  0
   -1.1553    6.8379   -1.6660 C   0  0  0  0  0  0  0  0  0  0  0  0
   -2.2195    3.8311   -2.9524 C   0  0  0  0  0  0  0  0  0  0  0  0
   -2.7803    2.2696   -2.6104 S   0  0  0  0  0  0  0  0  0  0  0  0
   -2.2201    2.3790   -0.9659 C   0  0  0  0  0  0  0  0  0  0  0  0
   -2.1080    1.5403    0.1665 C   0  0  0  0  0  0  0  0  0  0  0  0
   -2.4175    0.2904    0.4943 N   0  0  0  0  0  0  0  0  0  0  0  0
   -1.9893    0.0792    1.7675 C   0  0  0  0  0  0  0  0  0  0  0  0
   -1.9478   -1.0867    2.6496 C   0  0  0  0  0  0  0  0  0  0  0  0
   -2.1201   -2.4334    2.4526 N   0  0  0  0  0  0  0  0  0  0  0  0
   -1.6885   -3.0408    3.5172 C   0  0  0  0  0  0  0  0  0  0  0  0
   -1.2923   -4.3837    3.6900 C   0  0  0  0  0  0  0  0  0  0  0  0
   -0.7753   -5.4205    2.5111 S   0  0  0  0  0  0  0  0  0  0  0  0
   -2.7665   -3.1385    1.3304 C   0  0  0  0  0  0  0  0  0  0  0  0
   -1.7635   -3.2518    0.1622 C   0  0  0  0  0  0  0  0  0  0  0  0
   -3.5537   -0.3131   -0.2736 C   0  0  0  0  0  0  0  0  0  0  0  0
   -4.8874    0.0426    0.3826 C   0  0  0  0  0  0  0  0  0  0  0  0
   -2.1885    4.6277   -4.2160 C   0  0  0  0  0  0  0  0  0  0  0  0
   -2.7175    4.6202   -5.5128 C   0  0  0  0  0  0  0  0  0  0  0  0
   -3.4932    3.5140   -6.1503 C   0  0  0  0  0  0  0  0  0  0  0  0
   -3.5953    2.4263   -5.5169 O   0  0  0  0  0  0  0  0  0  0  0  0
   -4.0536    3.6073   -7.5080 N   0  0  0  0  0  0  0  0  0  0  0  0
   -4.6571    2.4193   -8.1548 C   0  0  0  0  0  0  0  0  0  0  0  0
   -6.1877    2.4326   -7.9750 C   0  0  0  0  0  0  0  0  0  0  0  0
   -3.9784    4.8745   -8.2654 C   0  0  0  0  0  0  0  0  0  0  0  0
   -4.6182    4.9826   -9.7838 S   0  0  0  0  0  0  0  0  0  0  0  0
   -3.2480    5.9924   -7.6823 N   0  0  0  0  0  0  0  0  0  0  0  0
   -3.1298    7.2946   -8.3816 C   0  0  0  0  0  0  0  0  0  0  0  0
   -1.8511    7.3072   -9.2248 C   0  0  0  0  0  0  0  0  0  0  0  0
   -2.6066    5.8898   -6.3861 C   0  0  0  0  0  0  0  0  0  0  0  0
   -1.9363    6.9052   -5.9918 O   0  0  0  0  0  0  0  0  0  0  0  0
    1.1364   -7.8701    2.3656 H   0  0  0  0  0  0  0  0  0  0  0  0
    6.8214   -2.7392    2.1194 H   0  0  0  0  0  0  0  0  0  0  0  0
    7.3025   -4.2879    0.2257 H   0  0  0  0  0  0  0  0  0  0  0  0
    5.8155   -6.1319   -0.1832 H   0  0  0  0  0  0  0  0  0  0  0  0
   -0.8591   -8.0184    5.8059 H   0  0  0  0  0  0  0  0  0  0  0  0
   -0.3857   -9.3203    7.7648 H   0  0  0  0  0  0  0  0  0  0  0  0
    1.4248   -8.5526    9.3616 H   0  0  0  0  0  0  0  0  0  0  0  0
    2.7793   -6.5434    8.9322 H   0  0  0  0  0  0  0  0  0  0  0  0
    2.8888   -4.2475    7.8236 H   0  0  0  0  0  0  0  0  0  0  0  0
    1.9841   -3.9646    6.3181 H   0  0  0  0  0  0  0  0  0  0  0  0
    4.7096   -5.1530    6.6918 H   0  0  0  0  0  0  0  0  0  0  0  0
    4.0783   -4.2203    5.3129 H   0  0  0  0  0  0  0  0  0  0  0  0
    3.7580   -5.9899    5.4141 H   0  0  0  0  0  0  0  0  0  0  0  0
    0.9749    3.3216   -1.8910 H   0  0  0  0  0  0  0  0  0  0  0  0
    0.6235    3.6483   -3.6857 H   0  0  0  0  0  0  0  0  0  0  0  0
    2.9468    2.8043   -3.1302 H   0  0  0  0  0  0  0  0  0  0  0  0
    2.8938    4.3635   -4.1041 H   0  0  0  0  0  0  0  0  0  0  0  0
    3.2638    4.3900   -2.3206 H   0  0  0  0  0  0  0  0  0  0  0  0
    2.5238    6.5099   -2.9447 H   0  0  0  0  0  0  0  0  0  0  0  0
    1.5661    8.7356   -2.3198 H   0  0  0  0  0  0  0  0  0  0  0  0
   -0.7756    8.9905   -1.5745 H   0  0  0  0  0  0  0  0  0  0  0  0
   -2.2255    6.9278   -1.3727 H   0  0  0  0  0  0  0  0  0  0  0  0
   -3.8034   -2.7724    1.1099 H   0  0  0  0  0  0  0  0  0  0  0  0
   -3.1394   -4.1572    1.6113 H   0  0  0  0  0  0  0  0  0  0  0  0
   -0.8313   -2.6536    0.3953 H   0  0  0  0  0  0  0  0  0  0  0  0
   -2.1917   -3.0301   -0.8329 H   0  0  0  0  0  0  0  0  0  0  0  0
   -1.4377   -4.3471    0.0398 H   0  0  0  0  0  0  0  0  0  0  0  0
   -3.4304   -1.3709   -0.4312 H   0  0  0  0  0  0  0  0  0  0  0  0
   -3.5529   -0.0291   -1.3671 H   0  0  0  0  0  0  0  0  0  0  0  0
   -5.7081   -0.5515   -0.0994 H   0  0  0  0  0  0  0  0  0  0  0  0
   -5.1265    1.1349    0.1597 H   0  0  0  0  0  0  0  0  0  0  0  0
   -4.8160   -0.1503    1.4890 H   0  0  0  0  0  0  0  0  0  0  0  0
   -1.6260    5.5526   -4.0508 H   0  0  0  0  0  0  0  0  0  0  0  0
   -4.4468    2.3916   -9.2327 H   0  0  0  0  0  0  0  0  0  0  0  0
   -4.2041    1.4999   -7.7702 H   0  0  0  0  0  0  0  0  0  0  0  0
   -6.4792    2.6037   -6.9106 H   0  0  0  0  0  0  0  0  0  0  0  0
   -6.6616    3.2194   -8.5963 H   0  0  0  0  0  0  0  0  0  0  0  0
   -6.5973    1.4743   -8.3482 H   0  0  0  0  0  0  0  0  0  0  0  0
   -3.9857    7.5241   -9.0297 H   0  0  0  0  0  0  0  0  0  0  0  0
   -3.1122    8.0972   -7.5873 H   0  0  0  0  0  0  0  0  0  0  0  0
   -1.6064    8.3490   -9.4871 H   0  0  0  0  0  0  0  0  0  0  0  0
   -0.9598    6.9071   -8.6601 H   0  0  0  0  0  0  0  0  0  0  0  0
   -1.9835    6.7354  -10.1857 H   0  0  0  0  0  0  0  0  0  0  0  0
  1  2  2  3
  2  3  1  0
  3  4  2  0
  3  5  1  0
  5  6  2  0
  6  7  1  0
  6  8  1  0
  8  9  2  0
  9 10  1  0
 10 11  2  0
 11 12  1  0
 12 13  2  3
 13 14  1  0
 14 15  3  0
 13 16  1  0
 16 17  3  0
  1 18  1  0
 18 19  2  0
 19 20  1  0
 20 21  2  0
 21 22  1  0
 22 23  2  0
 23 24  1  0
 24 25  2  0
 25 26  1  0
 26 27  1  0
 19 28  1  0
 28 29  1  0
 29 30  1  0
 30 31  1  0
 31 32  1  0
 32 33  1  0
 33 34  2  0
 34 35  1  0
 35 36  1  0
 33 37  1  0
 37 38  1  0
 38 39  1  0
 39 40  1  0
 40 41  1  0
 41 42  1  0
 42 43  2  0
 43 44  1  0
 44 45  1  0
 43 46  1  0
 46 47  2  0
 47 48  1  0
 48 49  2  0
 41 50  2  0
 50 51  1  0
 51 52  1  0
 52 53  1  0
 53 54  1  0
 54 55  1  0
 55 56  1  0
 56 57  1  0
 57 58  1  0
 58 59  1  0
 59 60  1  0
 57 61  1  0
 61 62  1  0
 54 63  1  0
 63 64  1  0
 50 65  1  0
 65 66  2  3
 66 67  1  0
 67 68  2  0
 67 69  1  0
 69 70  1  0
 70 71  1  0
 69 72  1  0
 72 73  2  0
 72 74  1  0
 74 75  1  0
 75 76  1  0
 74 77  1  0
 77 78  2  0
 12  2  1  0
 60 18  1  0
 77 66  1  0
 11  5  1  0
 25 20  1  0
 59 28  2  0
 58 30  2  0
 56 31  2  0
 36 32  2  0
 55 37  2  0
 53 38  2  0
 52 40  2  0
 49 42  1  0
  1 79  1  0
  8 80  1  0
  9 81  1  0
 10 82  1  0
 21 83  1  0
 22 84  1  0
 23 85  1  0
 24 86  1  0
 26 87  1  0
 26 88  1  0
 27 89  1  0
 27 90  1  0
 27 91  1  0
 44 92  1  0
 44 93  1  0
 45 94  1  0
 45 95  1  0
 45 96  1  0
 46 97  1  0
 47 98  1  0
 48 99  1  0
 49100  1  0
 61101  1  0
 61102  1  0
 62103  1  0
 62104  1  0
 62105  1  0
 63106  1  0
 63107  1  0
 64108  1  0
 64109  1  0
 64110  1  0
 65111  1  0
 70112  1  0
 70113  1  0
 71114  1  0
 71115  1  0
 71116  1  0
 75117  1  0
 75118  1  0
 76119  1  0
 76120  1  0
 76121  1  0
M  END

