
     RDKit          3D

167185  0  0  0  0  0  0  0  0999 V2000
   -1.7406    1.3118   -8.0761 C   0  0  0  0  0  0  0  0  0  0  0  0
   -1.2772    2.4476   -7.5319 C   0  0  0  0  0  0  0  0  0  0  0  0
   -0.8671    2.6131   -6.1346 C   0  0  0  0  0  0  0  0  0  0  0  0
   -0.5702    1.6930   -5.3281 O   0  0  0  0  0  0  0  0  0  0  0  0
   -0.9082    4.0221   -5.8131 C   0  0  0  0  0  0  0  0  0  0  0  0
   -0.7402    4.6313   -4.5693 C   0  0  0  0  0  0  0  0  0  0  0  0
   -0.4126    3.9045   -3.4747 F   0  0  0  0  0  0  0  0  0  0  0  0
   -0.9365    6.0129   -4.4687 C   0  0  0  0  0  0  0  0  0  0  0  0
   -1.3167    6.7550   -5.5989 C   0  0  0  0  0  0  0  0  0  0  0  0
   -1.4922    6.1238   -6.8420 C   0  0  0  0  0  0  0  0  0  0  0  0
   -1.2607    4.7422   -6.9439 C   0  0  0  0  0  0  0  0  0  0  0  0
   -1.3973    3.8201   -8.1035 C   0  0  0  0  0  0  0  0  0  0  0  0
   -1.3835    4.1495   -9.4211 C   0  0  0  0  0  0  0  0  0  0  0  0
   -1.3976    5.5163   -9.8764 C   0  0  0  0  0  0  0  0  0  0  0  0
   -1.4015    6.6095  -10.2588 N   0  0  0  0  0  0  0  0  0  0  0  0
   -1.2274    3.1621  -10.4564 C   0  0  0  0  0  0  0  0  0  0  0  0
   -1.0925    2.3724  -11.2926 N   0  0  0  0  0  0  0  0  0  0  0  0
   -1.7269    0.0332   -7.3615 C   0  0  0  0  0  0  0  0  0  0  0  0
   -0.6140   -0.7969   -7.2272 C   0  0  0  0  0  0  0  0  0  0  0  0
   -0.8966   -1.8988   -6.4150 C   0  0  0  0  0  0  0  0  0  0  0  0
   -0.0180   -2.9517   -5.7566 C   0  0  0  0  0  0  0  0  0  0  0  0
    1.2727   -2.3555   -5.1791 C   0  0  0  0  0  0  0  0  0  0  0  0
    2.5029   -3.0402   -5.2588 C   0  0  0  0  0  0  0  0  0  0  0  0
    3.6599   -2.4981   -4.6986 C   0  0  0  0  0  0  0  0  0  0  0  0
    3.6166   -1.2677   -4.0324 C   0  0  0  0  0  0  0  0  0  0  0  0
    4.8657   -0.6878   -3.4162 C   0  0  0  0  0  0  0  0  0  0  0  0
    4.9461   -1.0341   -1.9409 C   0  0  0  0  0  0  0  0  0  0  0  0
    2.3879   -0.6051   -3.8935 C   0  0  0  0  0  0  0  0  0  0  0  0
    1.2311   -1.1461   -4.4572 C   0  0  0  0  0  0  0  0  0  0  0  0
    0.2243   -4.0545   -6.7955 C   0  0  0  0  0  0  0  0  0  0  0  0
    0.8153   -3.7156   -8.0317 C   0  0  0  0  0  0  0  0  0  0  0  0
    0.9764   -4.6691   -9.0348 C   0  0  0  0  0  0  0  0  0  0  0  0
    0.5867   -5.9947   -8.8185 C   0  0  0  0  0  0  0  0  0  0  0  0
    0.6887   -6.9952   -9.9394 C   0  0  0  0  0  0  0  0  0  0  0  0
   -0.6025   -7.0329  -10.7503 C   0  0  0  0  0  0  0  0  0  0  0  0
    0.0464   -6.3584   -7.5753 C   0  0  0  0  0  0  0  0  0  0  0  0
   -0.1231   -5.4013   -6.5674 C   0  0  0  0  0  0  0  0  0  0  0  0
   -0.9922   -3.3733   -4.6470 C   0  0  0  0  0  0  0  0  0  0  0  0
   -2.2427   -2.7982   -4.8112 C   0  0  0  0  0  0  0  0  0  0  0  0
   -2.1679   -1.9101   -5.9343 C   0  0  0  0  0  0  0  0  0  0  0  0
   -3.0149   -0.5436   -6.4168 S   0  0  0  0  0  0  0  0  0  0  0  0
   -3.0104   -2.5493   -3.3268 S   0  0  0  0  0  0  0  0  0  0  0  0
   -1.7844   -3.3191   -2.4547 C   0  0  0  0  0  0  0  0  0  0  0  0
   -0.7660   -3.6939   -3.3007 C   0  0  0  0  0  0  0  0  0  0  0  0
    0.6328   -3.9980   -2.4101 S   0  0  0  0  0  0  0  0  0  0  0  0
   -0.0898   -3.6305   -0.9074 C   0  0  0  0  0  0  0  0  0  0  0  0
    0.5619   -3.4766    0.3308 C   0  0  0  0  0  0  0  0  0  0  0  0
    1.9879   -3.8046    0.4653 C   0  0  0  0  0  0  0  0  0  0  0  0
    2.5369   -5.0817    0.4161 C   0  0  0  0  0  0  0  0  0  0  0  0
    3.9367   -5.0847    0.4838 C   0  0  0  0  0  0  0  0  0  0  0  0
    4.4838   -3.8083    0.5662 C   0  0  0  0  0  0  0  0  0  0  0  0
    5.9434   -3.4809    0.6448 C   0  0  0  0  0  0  0  0  0  0  0  0
    6.4824   -3.7126    2.0509 C   0  0  0  0  0  0  0  0  0  0  0  0
    3.2358   -2.6818    0.5546 S   0  0  0  0  0  0  0  0  0  0  0  0
   -0.1672   -2.8386    1.3590 C   0  0  0  0  0  0  0  0  0  0  0  0
   -1.4892   -2.3919    1.1295 C   0  0  0  0  0  0  0  0  0  0  0  0
   -2.1803   -2.6729   -0.0612 C   0  0  0  0  0  0  0  0  0  0  0  0
   -3.6520   -2.5360   -0.1530 C   0  0  0  0  0  0  0  0  0  0  0  0
   -4.5145   -3.5662   -0.5201 C   0  0  0  0  0  0  0  0  0  0  0  0
   -5.8687   -3.2403   -0.3962 C   0  0  0  0  0  0  0  0  0  0  0  0
   -6.0769   -1.9456    0.0610 C   0  0  0  0  0  0  0  0  0  0  0  0
   -7.4068   -1.3554    0.4123 C   0  0  0  0  0  0  0  0  0  0  0  0
   -7.7734   -1.6747    1.8592 C   0  0  0  0  0  0  0  0  0  0  0  0
   -4.5818   -1.2168    0.3372 S   0  0  0  0  0  0  0  0  0  0  0  0
   -1.4306   -3.2508   -1.1017 C   0  0  0  0  0  0  0  0  0  0  0  0
   -2.0181   -1.4134    2.4187 S   0  0  0  0  0  0  0  0  0  0  0  0
   -0.6058   -1.6238    3.2959 C   0  0  0  0  0  0  0  0  0  0  0  0
   -0.0877   -1.0400    4.4405 C   0  0  0  0  0  0  0  0  0  0  0  0
    1.1480   -1.5649    4.7467 C   0  0  0  0  0  0  0  0  0  0  0  0
    1.7190   -2.5849    3.5137 S   0  0  0  0  0  0  0  0  0  0  0  0
    0.2697   -2.4494    2.6359 C   0  0  0  0  0  0  0  0  0  0  0  0
    1.7895   -0.6680    5.6667 C   0  0  0  0  0  0  0  0  0  0  0  0
    3.3180   -0.4165    6.3095 S   0  0  0  0  0  0  0  0  0  0  0  0
    2.9010    1.1171    6.9241 C   0  0  0  0  0  0  0  0  0  0  0  0
    1.5693    1.4203    6.6156 C   0  0  0  0  0  0  0  0  0  0  0  0
    0.9705    0.3924    5.8954 C   0  0  0  0  0  0  0  0  0  0  0  0
   -0.2779    0.3538    5.0338 C   0  0  0  0  0  0  0  0  0  0  0  0
   -1.5898    0.4044    5.8217 C   0  0  0  0  0  0  0  0  0  0  0  0
   -1.6356    0.1173    7.2024 C   0  0  0  0  0  0  0  0  0  0  0  0
   -2.8442    0.1710    7.8984 C   0  0  0  0  0  0  0  0  0  0  0  0
   -4.0374    0.4823    7.2318 C   0  0  0  0  0  0  0  0  0  0  0  0
   -5.3233    0.6229    8.0004 C   0  0  0  0  0  0  0  0  0  0  0  0
   -5.5011    2.0634    8.4683 C   0  0  0  0  0  0  0  0  0  0  0  0
   -4.0053    0.7442    5.8563 C   0  0  0  0  0  0  0  0  0  0  0  0
   -2.7987    0.6907    5.1565 C   0  0  0  0  0  0  0  0  0  0  0  0
   -0.1154    1.4909    4.0054 C   0  0  0  0  0  0  0  0  0  0  0  0
    0.6895    1.3292    2.8529 C   0  0  0  0  0  0  0  0  0  0  0  0
    1.0103    2.4162    2.0375 C   0  0  0  0  0  0  0  0  0  0  0  0
    0.5653    3.7034    2.3630 C   0  0  0  0  0  0  0  0  0  0  0  0
    0.9612    4.8793    1.5083 C   0  0  0  0  0  0  0  0  0  0  0  0
    0.0900    4.9715    0.2578 C   0  0  0  0  0  0  0  0  0  0  0  0
   -0.2355    3.8823    3.4978 C   0  0  0  0  0  0  0  0  0  0  0  0
   -0.5548    2.7953    4.3191 C   0  0  0  0  0  0  0  0  0  0  0  0
    3.7890    1.9725    7.7228 C   0  0  0  0  0  0  0  0  0  0  0  0
    3.9019    3.3003    7.5213 C   0  0  0  0  0  0  0  0  0  0  0  0
    3.3975    4.0252    6.3326 C   0  0  0  0  0  0  0  0  0  0  0  0
    3.0084    3.5271    5.2422 O   0  0  0  0  0  0  0  0  0  0  0  0
    3.5463    5.4250    6.6030 C   0  0  0  0  0  0  0  0  0  0  0  0
    3.1011    6.8564    5.8553 S   0  0  0  0  0  0  0  0  0  0  0  0
    3.6576    7.8019    7.1558 C   0  0  0  0  0  0  0  0  0  0  0  0
    3.5389    9.7007    7.2331 Br  0  0  0  0  0  0  0  0  0  0  0  0
    4.1800    6.9890    8.1660 C   0  0  0  0  0  0  0  0  0  0  0  0
    4.1080    5.6369    7.8171 C   0  0  0  0  0  0  0  0  0  0  0  0
    4.4436    4.3453    8.4647 C   0  0  0  0  0  0  0  0  0  0  0  0
    5.1121    4.1902    9.6347 C   0  0  0  0  0  0  0  0  0  0  0  0
    5.5275    5.3192   10.4221 C   0  0  0  0  0  0  0  0  0  0  0  0
    5.8700    6.2185   11.0663 N   0  0  0  0  0  0  0  0  0  0  0  0
    5.5291    2.9071   10.1403 C   0  0  0  0  0  0  0  0  0  0  0  0
    5.8803    1.8830   10.5577 N   0  0  0  0  0  0  0  0  0  0  0  0
   -2.2457    1.3201   -9.0296 H   0  0  0  0  0  0  0  0  0  0  0  0
   -0.8184    6.5084   -3.5144 H   0  0  0  0  0  0  0  0  0  0  0  0
   -1.4954    7.8181   -5.5079 H   0  0  0  0  0  0  0  0  0  0  0  0
   -1.8399    6.7123   -7.6739 H   0  0  0  0  0  0  0  0  0  0  0  0
    0.3616   -0.5711   -7.6325 H   0  0  0  0  0  0  0  0  0  0  0  0
    2.5769   -4.0024   -5.7461 H   0  0  0  0  0  0  0  0  0  0  0  0
    4.5918   -3.0474   -4.7743 H   0  0  0  0  0  0  0  0  0  0  0  0
    4.8608    0.4191   -3.5350 H   0  0  0  0  0  0  0  0  0  0  0  0
    5.7693   -1.0761   -3.9338 H   0  0  0  0  0  0  0  0  0  0  0  0
    4.0649   -0.6284   -1.4008 H   0  0  0  0  0  0  0  0  0  0  0  0
    4.9810   -2.1376   -1.8257 H   0  0  0  0  0  0  0  0  0  0  0  0
    5.8652   -0.5971   -1.4982 H   0  0  0  0  0  0  0  0  0  0  0  0
    2.3252    0.3216   -3.3360 H   0  0  0  0  0  0  0  0  0  0  0  0
    0.2958   -0.6229   -4.3132 H   0  0  0  0  0  0  0  0  0  0  0  0
    1.1446   -2.7042   -8.2290 H   0  0  0  0  0  0  0  0  0  0  0  0
    1.3994   -4.3665   -9.9854 H   0  0  0  0  0  0  0  0  0  0  0  0
    1.5357   -6.7297  -10.6095 H   0  0  0  0  0  0  0  0  0  0  0  0
    0.8946   -8.0066   -9.5275 H   0  0  0  0  0  0  0  0  0  0  0  0
   -0.8426   -6.0251  -11.1513 H   0  0  0  0  0  0  0  0  0  0  0  0
   -0.4839   -7.7336  -11.6041 H   0  0  0  0  0  0  0  0  0  0  0  0
   -1.4405   -7.3840  -10.1151 H   0  0  0  0  0  0  0  0  0  0  0  0
   -0.2450   -7.3834   -7.3903 H   0  0  0  0  0  0  0  0  0  0  0  0
   -0.5370   -5.7200   -5.6246 H   0  0  0  0  0  0  0  0  0  0  0  0
    1.9459   -5.9824    0.3268 H   0  0  0  0  0  0  0  0  0  0  0  0
    4.5302   -5.9900    0.4640 H   0  0  0  0  0  0  0  0  0  0  0  0
    6.5047   -4.1136   -0.0778 H   0  0  0  0  0  0  0  0  0  0  0  0
    6.1041   -2.4172    0.3696 H   0  0  0  0  0  0  0  0  0  0  0  0
    5.9773   -3.0390    2.7738 H   0  0  0  0  0  0  0  0  0  0  0  0
    7.5720   -3.4995    2.0687 H   0  0  0  0  0  0  0  0  0  0  0  0
    6.3233   -4.7679    2.3529 H   0  0  0  0  0  0  0  0  0  0  0  0
   -4.1726   -4.5457   -0.8328 H   0  0  0  0  0  0  0  0  0  0  0  0
   -6.6683   -3.9360   -0.6018 H   0  0  0  0  0  0  0  0  0  0  0  0
   -7.3722   -0.2517    0.2728 H   0  0  0  0  0  0  0  0  0  0  0  0
   -8.1841   -1.7701   -0.2671 H   0  0  0  0  0  0  0  0  0  0  0  0
   -7.0423   -1.2090    2.5506 H   0  0  0  0  0  0  0  0  0  0  0  0
   -7.7895   -2.7712    2.0259 H   0  0  0  0  0  0  0  0  0  0  0  0
   -8.7814   -1.2664    2.0827 H   0  0  0  0  0  0  0  0  0  0  0  0
    1.0818    2.3540    6.8592 H   0  0  0  0  0  0  0  0  0  0  0  0
   -0.7410   -0.1384    7.7517 H   0  0  0  0  0  0  0  0  0  0  0  0
   -2.8508   -0.0246    8.9647 H   0  0  0  0  0  0  0  0  0  0  0  0
   -5.3228   -0.0511    8.8865 H   0  0  0  0  0  0  0  0  0  0  0  0
   -6.1867    0.3359    7.3613 H   0  0  0  0  0  0  0  0  0  0  0  0
   -5.5919    2.7466    7.5966 H   0  0  0  0  0  0  0  0  0  0  0  0
   -4.6322    2.3789    9.0847 H   0  0  0  0  0  0  0  0  0  0  0  0
   -6.4195    2.1494    9.0840 H   0  0  0  0  0  0  0  0  0  0  0  0
   -4.9160    0.9982    5.3276 H   0  0  0  0  0  0  0  0  0  0  0  0
   -2.8054    0.8993    4.0948 H   0  0  0  0  0  0  0  0  0  0  0  0
    1.1067    0.3709    2.5848 H   0  0  0  0  0  0  0  0  0  0  0  0
    1.6344    2.2609    1.1667 H   0  0  0  0  0  0  0  0  0  0  0  0
    0.8726    5.8252    2.0867 H   0  0  0  0  0  0  0  0  0  0  0  0
    2.0287    4.7760    1.2110 H   0  0  0  0  0  0  0  0  0  0  0  0
   -0.9492    5.2353    0.5424 H   0  0  0  0  0  0  0  0  0  0  0  0
    0.0839    4.0064   -0.2894 H   0  0  0  0  0  0  0  0  0  0  0  0
    0.4911    5.7564   -0.4113 H   0  0  0  0  0  0  0  0  0  0  0  0
   -0.5830    4.8721    3.7679 H   0  0  0  0  0  0  0  0  0  0  0  0
   -1.1169    2.9838    5.2252 H   0  0  0  0  0  0  0  0  0  0  0  0
    4.2530    1.4886    8.5624 H   0  0  0  0  0  0  0  0  0  0  0  0
    4.5568    7.3761    9.0980 H   0  0  0  0  0  0  0  0  0  0  0  0
  1  2  2  3
  2  3  1  0
  3  4  2  0
  3  5  1  0
  5  6  2  0
  6  7  1  0
  6  8  1  0
  8  9  2  0
  9 10  1  0
 10 11  2  0
 11 12  1  0
 12 13  2  3
 13 14  1  0
 14 15  3  0
 13 16  1  0
 16 17  3  0
  1 18  1  0
 18 19  2  0
 19 20  1  0
 20 21  1  0
 21 22  1  0
 22 23  2  0
 23 24  1  0
 24 25  2  0
 25 26  1  0
 26 27  1  0
 25 28  1  0
 28 29  2  0
 21 30  1  0
 30 31  2  0
 31 32  1  0
 32 33  2  0
 33 34  1  0
 34 35  1  0
 33 36  1  0
 36 37  2  0
 21 38  1  0
 38 39  2  0
 39 40  1  0
 40 41  1  0
 39 42  1  0
 42 43  1  0
 43 44  2  0
 44 45  1  0
 45 46  1  0
 46 47  2  0
 47 48  1  0
 48 49  2  0
 49 50  1  0
 50 51  2  0
 51 52  1  0
 52 53  1  0
 51 54  1  0
 47 55  1  0
 55 56  2  0
 56 57  1  0
 57 58  1  0
 58 59  2  0
 59 60  1  0
 60 61  2  0
 61 62  1  0
 62 63  1  0
 61 64  1  0
 57 65  2  0
 56 66  1  0
 66 67  1  0
 67 68  1  0
 68 69  2  0
 69 70  1  0
 70 71  1  0
 69 72  1  0
 72 73  1  0
 73 74  1  0
 74 75  2  0
 75 76  1  0
 76 77  1  0
 77 78  1  0
 78 79  2  0
 79 80  1  0
 80 81  2  0
 81 82  1  0
 82 83  1  0
 81 84  1  0
 84 85  2  0
 77 86  1  0
 86 87  2  0
 87 88  1  0
 88 89  2  0
 89 90  1  0
 90 91  1  0
 89 92  1  0
 92 93  2  0
 74 94  1  0
 94 95  2  3
 95 96  1  0
 96 97  2  0
 96 98  1  0
 98 99  1  0
 99100  1  0
100101  1  0
100102  2  0
102103  1  0
103104  1  0
104105  2  3
105106  1  0
106107  3  0
105108  1  0
108109  3  0
 12  2  1  0
 41 18  1  0
 65 43  1  0
 71 67  2  0
 76 72  2  0
 85 78  1  0
 93 86  1  0
104 95  1  0
 11  5  1  0
 40 20  2  0
 65 46  1  0
 77 68  1  0
103 98  2  0
 29 22  1  0
 37 30  1  0
 44 38  1  0
 54 48  1  0
 71 55  1  0
 64 58  1  0
  1110  1  0
  8111  1  0
  9112  1  0
 10113  1  0
 19114  1  0
 23115  1  0
 24116  1  0
 26117  1  0
 26118  1  0
 27119  1  0
 27120  1  0
 27121  1  0
 28122  1  0
 29123  1  0
 31124  1  0
 32125  1  0
 34126  1  0
 34127  1  0
 35128  1  0
 35129  1  0
 35130  1  0
 36131  1  0
 37132  1  0
 49133  1  0
 50134  1  0
 52135  1  0
 52136  1  0
 53137  1  0
 53138  1  0
 53139  1  0
 59140  1  0
 60141  1  0
 62142  1  0
 62143  1  0
 63144  1  0
 63145  1  0
 63146  1  0
 75147  1  0
 79148  1  0
 80149  1  0
 82150  1  0
 82151  1  0
 83152  1  0
 83153  1  0
 83154  1  0
 84155  1  0
 85156  1  0
 87157  1  0
 88158  1  0
 90159  1  0
 90160  1  0
 91161  1  0
 91162  1  0
 91163  1  0
 92164  1  0
 93165  1  0
 94166  1  0
102167  1  0
M  END

