
     RDKit          3D

115127  0  0  0  0  0  0  0  0999 V2000
   -3.8885   -0.5176   -7.5328 C   0  0  0  0  0  0  0  0  0  0  0  0
   -2.8498   -0.5133   -8.3867 C   0  0  0  0  0  0  0  0  0  0  0  0
   -1.4441   -0.7208   -8.0175 C   0  0  0  0  0  0  0  0  0  0  0  0
   -0.9637   -0.6828   -6.8506 O   0  0  0  0  0  0  0  0  0  0  0  0
   -0.7015   -1.0408   -9.2173 C   0  0  0  0  0  0  0  0  0  0  0  0
    0.6347   -1.4295   -9.3354 C   0  0  0  0  0  0  0  0  0  0  0  0
    1.4541   -1.4646   -8.2530 F   0  0  0  0  0  0  0  0  0  0  0  0
    1.1128   -1.8066  -10.5973 C   0  0  0  0  0  0  0  0  0  0  0  0
    0.2482   -1.8132  -11.7056 C   0  0  0  0  0  0  0  0  0  0  0  0
   -1.0928   -1.4238  -11.5692 C   0  0  0  0  0  0  0  0  0  0  0  0
   -1.5553   -1.0046  -10.3125 C   0  0  0  0  0  0  0  0  0  0  0  0
   -2.9132   -0.5623   -9.8802 C   0  0  0  0  0  0  0  0  0  0  0  0
   -3.8888   -0.0501  -10.6719 C   0  0  0  0  0  0  0  0  0  0  0  0
   -5.0539    0.6035  -10.1292 C   0  0  0  0  0  0  0  0  0  0  0  0
   -5.9919    1.1356   -9.7077 N   0  0  0  0  0  0  0  0  0  0  0  0
   -3.7602    0.0280  -12.1060 C   0  0  0  0  0  0  0  0  0  0  0  0
   -3.6648    0.1057  -13.2562 N   0  0  0  0  0  0  0  0  0  0  0  0
   -3.7183   -0.5622   -6.0771 C   0  0  0  0  0  0  0  0  0  0  0  0
   -3.5644    0.8172   -5.0880 S   0  0  0  0  0  0  0  0  0  0  0  0
   -3.4944   -0.1023   -3.6913 C   0  0  0  0  0  0  0  0  0  0  0  0
   -3.5765    0.1105   -2.2789 C   0  0  0  0  0  0  0  0  0  0  0  0
   -3.7166   -1.1115   -1.6706 C   0  0  0  0  0  0  0  0  0  0  0  0
   -3.6803   -2.2641   -2.6656 C   0  0  0  0  0  0  0  0  0  0  0  0
   -3.6097   -1.4361   -3.9462 C   0  0  0  0  0  0  0  0  0  0  0  0
   -3.7599   -1.7312   -5.3039 C   0  0  0  0  0  0  0  0  0  0  0  0
   -4.9568   -3.1438   -2.5933 C   0  0  0  0  0  0  0  0  0  0  0  0
   -6.2686   -2.3483   -2.6079 C   0  0  0  0  0  0  0  0  0  0  0  0
   -2.3794   -3.0809   -2.4453 C   0  0  0  0  0  0  0  0  0  0  0  0
   -2.0567   -4.0785   -3.5601 C   0  0  0  0  0  0  0  0  0  0  0  0
   -3.6867   -0.9867   -0.2913 C   0  0  0  0  0  0  0  0  0  0  0  0
   -3.6115   -2.0729    1.0110 S   0  0  0  0  0  0  0  0  0  0  0  0
   -3.4268   -0.7871    2.1162 C   0  0  0  0  0  0  0  0  0  0  0  0
   -2.9060   -0.6531    3.4523 C   0  0  0  0  0  0  0  0  0  0  0  0
   -2.4582    0.6460    3.6147 C   0  0  0  0  0  0  0  0  0  0  0  0
   -2.6799    1.4907    2.3643 C   0  0  0  0  0  0  0  0  0  0  0  0
   -3.3231    0.4316    1.4886 C   0  0  0  0  0  0  0  0  0  0  0  0
   -3.5063    0.3158    0.1193 C   0  0  0  0  0  0  0  0  0  0  0  0
   -3.3489    1.3909   -1.1921 S   0  0  0  0  0  0  0  0  0  0  0  0
   -3.7106    2.6234    2.6094 C   0  0  0  0  0  0  0  0  0  0  0  0
   -3.2695    3.6605    3.6411 C   0  0  0  0  0  0  0  0  0  0  0  0
   -1.3546    2.0140    1.7330 C   0  0  0  0  0  0  0  0  0  0  0  0
   -0.3358    0.9169    1.3892 C   0  0  0  0  0  0  0  0  0  0  0  0
   -1.5289    0.7360    4.6511 C   0  0  0  0  0  0  0  0  0  0  0  0
   -0.3283    1.8754    5.0104 S   0  0  0  0  0  0  0  0  0  0  0  0
    0.4730    0.7933    6.0364 C   0  0  0  0  0  0  0  0  0  0  0  0
    1.8563    0.6410    6.3672 C   0  0  0  0  0  0  0  0  0  0  0  0
    2.1423   -0.6779    6.5653 C   0  0  0  0  0  0  0  0  0  0  0  0
    0.8902   -1.5525    6.4566 C   0  0  0  0  0  0  0  0  0  0  0  0
    0.9502   -2.6529    5.3466 C   0  0  0  0  0  0  0  0  0  0  0  0
    2.2410   -3.4659    5.2240 C   0  0  0  0  0  0  0  0  0  0  0  0
    0.4235   -2.0673    7.8450 C   0  0  0  0  0  0  0  0  0  0  0  0
    1.3404   -3.1005    8.4998 C   0  0  0  0  0  0  0  0  0  0  0  0
   -0.0961   -0.4596    6.0327 C   0  0  0  0  0  0  0  0  0  0  0  0
   -1.2517   -0.4780    5.2492 C   0  0  0  0  0  0  0  0  0  0  0  0
   -2.1117   -1.7320    4.4921 S   0  0  0  0  0  0  0  0  0  0  0  0
    3.5174   -0.9473    6.5680 C   0  0  0  0  0  0  0  0  0  0  0  0
    4.2706    0.1948    6.2685 C   0  0  0  0  0  0  0  0  0  0  0  0
    3.2361    1.5324    6.0411 S   0  0  0  0  0  0  0  0  0  0  0  0
    5.7139    0.1815    5.9665 C   0  0  0  0  0  0  0  0  0  0  0  0
    6.2486    0.9813    5.0298 C   0  0  0  0  0  0  0  0  0  0  0  0
    5.5893    1.2095    3.7382 C   0  0  0  0  0  0  0  0  0  0  0  0
    4.8624    0.3769    3.1326 O   0  0  0  0  0  0  0  0  0  0  0  0
    5.8599    2.5549    3.2844 C   0  0  0  0  0  0  0  0  0  0  0  0
    5.4191    3.1727    2.1167 C   0  0  0  0  0  0  0  0  0  0  0  0
    5.7823    4.5083    1.8898 C   0  0  0  0  0  0  0  0  0  0  0  0
    5.2539    5.2915    0.4066 Cl  0  0  0  0  0  0  0  0  0  0  0  0
    6.5533    5.2013    2.8497 C   0  0  0  0  0  0  0  0  0  0  0  0
    6.9977    6.8856    2.6068 Cl  0  0  0  0  0  0  0  0  0  0  0  0
    6.9760    4.5538    4.0259 C   0  0  0  0  0  0  0  0  0  0  0  0
    6.6297    3.2088    4.2264 C   0  0  0  0  0  0  0  0  0  0  0  0
    6.9318    2.2726    5.3484 C   0  0  0  0  0  0  0  0  0  0  0  0
    7.7287    2.4870    6.4259 C   0  0  0  0  0  0  0  0  0  0  0  0
    8.4158    3.7308    6.6693 C   0  0  0  0  0  0  0  0  0  0  0  0
    8.9789    4.7177    6.8816 N   0  0  0  0  0  0  0  0  0  0  0  0
    8.0044    1.4357    7.3742 C   0  0  0  0  0  0  0  0  0  0  0  0
    8.2313    0.5923    8.1368 N   0  0  0  0  0  0  0  0  0  0  0  0
   -4.9042   -0.5759   -7.8922 H   0  0  0  0  0  0  0  0  0  0  0  0
    2.1417   -2.1169  -10.7167 H   0  0  0  0  0  0  0  0  0  0  0  0
    0.6114   -2.1381  -12.6726 H   0  0  0  0  0  0  0  0  0  0  0  0
   -1.7433   -1.4927  -12.4279 H   0  0  0  0  0  0  0  0  0  0  0  0
   -3.9137   -2.7280   -5.7030 H   0  0  0  0  0  0  0  0  0  0  0  0
   -4.9292   -3.7552   -1.6662 H   0  0  0  0  0  0  0  0  0  0  0  0
   -4.9749   -3.8445   -3.4552 H   0  0  0  0  0  0  0  0  0  0  0  0
   -6.3717   -1.7534   -1.6773 H   0  0  0  0  0  0  0  0  0  0  0  0
   -6.3146   -1.6712   -3.4866 H   0  0  0  0  0  0  0  0  0  0  0  0
   -7.1220   -3.0546   -2.6612 H   0  0  0  0  0  0  0  0  0  0  0  0
   -1.5129   -2.3873   -2.3530 H   0  0  0  0  0  0  0  0  0  0  0  0
   -2.4526   -3.6355   -1.4854 H   0  0  0  0  0  0  0  0  0  0  0  0
   -2.8936   -4.7881   -3.7255 H   0  0  0  0  0  0  0  0  0  0  0  0
   -1.8271   -3.5443   -4.5065 H   0  0  0  0  0  0  0  0  0  0  0  0
   -1.1589   -4.6645   -3.2767 H   0  0  0  0  0  0  0  0  0  0  0  0
   -3.9247    3.1458    1.6504 H   0  0  0  0  0  0  0  0  0  0  0  0
   -4.6711    2.1853    2.9653 H   0  0  0  0  0  0  0  0  0  0  0  0
   -2.3436    4.1806    3.3212 H   0  0  0  0  0  0  0  0  0  0  0  0
   -4.0672    4.4251    3.7550 H   0  0  0  0  0  0  0  0  0  0  0  0
   -3.1120    3.1881    4.6321 H   0  0  0  0  0  0  0  0  0  0  0  0
   -1.5820    2.5847    0.8091 H   0  0  0  0  0  0  0  0  0  0  0  0
   -0.8612    2.7270    2.4204 H   0  0  0  0  0  0  0  0  0  0  0  0
   -0.0985    0.2925    2.2757 H   0  0  0  0  0  0  0  0  0  0  0  0
   -0.7141    0.2638    0.5757 H   0  0  0  0  0  0  0  0  0  0  0  0
    0.6117    1.3894    1.0472 H   0  0  0  0  0  0  0  0  0  0  0  0
    0.7955   -2.1840    4.3473 H   0  0  0  0  0  0  0  0  0  0  0  0
    0.1093   -3.3635    5.5024 H   0  0  0  0  0  0  0  0  0  0  0  0
    3.0181   -2.8697    4.7038 H   0  0  0  0  0  0  0  0  0  0  0  0
    2.0445   -4.3655    4.6009 H   0  0  0  0  0  0  0  0  0  0  0  0
    2.6236   -3.8136    6.1989 H   0  0  0  0  0  0  0  0  0  0  0  0
   -0.5938   -2.5109    7.7533 H   0  0  0  0  0  0  0  0  0  0  0  0
    0.3308   -1.1996    8.5448 H   0  0  0  0  0  0  0  0  0  0  0  0
    2.3897   -2.7505    8.5106 H   0  0  0  0  0  0  0  0  0  0  0  0
    1.2590   -4.0740    7.9749 H   0  0  0  0  0  0  0  0  0  0  0  0
    1.0212   -3.2549    9.5528 H   0  0  0  0  0  0  0  0  0  0  0  0
    3.9509   -1.9289    6.6844 H   0  0  0  0  0  0  0  0  0  0  0  0
    6.1749   -0.7943    6.0468 H   0  0  0  0  0  0  0  0  0  0  0  0
    4.8143    2.6307    1.3992 H   0  0  0  0  0  0  0  0  0  0  0  0
    7.5453    5.1146    4.7451 H   0  0  0  0  0  0  0  0  0  0  0  0
  1  2  2  3
  2  3  1  0
  3  4  2  0
  3  5  1  0
  5  6  2  0
  6  7  1  0
  6  8  1  0
  8  9  2  0
  9 10  1  0
 10 11  2  0
 11 12  1  0
 12 13  2  3
 13 14  1  0
 14 15  3  0
 13 16  1  0
 16 17  3  0
  1 18  1  0
 18 19  1  0
 19 20  1  0
 20 21  1  0
 21 22  2  0
 22 23  1  0
 23 24  1  0
 24 25  1  0
 23 26  1  0
 26 27  1  0
 23 28  1  0
 28 29  1  0
 22 30  1  0
 30 31  1  0
 31 32  1  0
 32 33  1  0
 33 34  2  0
 34 35  1  0
 35 36  1  0
 36 37  1  0
 37 38  1  0
 35 39  1  0
 39 40  1  0
 35 41  1  0
 41 42  1  0
 34 43  1  0
 43 44  1  0
 44 45  1  0
 45 46  1  0
 46 47  2  0
 47 48  1  0
 48 49  1  0
 49 50  1  0
 48 51  1  0
 51 52  1  0
 48 53  1  0
 53 54  1  0
 54 55  1  0
 47 56  1  0
 56 57  2  0
 57 58  1  0
 57 59  1  0
 59 60  2  3
 60 61  1  0
 61 62  2  0
 61 63  1  0
 63 64  2  0
 64 65  1  0
 65 66  1  0
 65 67  2  0
 67 68  1  0
 67 69  1  0
 69 70  2  0
 70 71  1  0
 71 72  2  3
 72 73  1  0
 73 74  3  0
 72 75  1  0
 75 76  3  0
 12  2  1  0
 25 18  2  0
 37 30  2  0
 54 43  2  0
 71 60  1  0
 11  5  1  0
 24 20  2  0
 36 32  2  0
 53 45  2  0
 70 63  1  0
 38 21  1  0
 58 46  1  0
 55 33  1  0
  1 77  1  0
  8 78  1  0
  9 79  1  0
 10 80  1  0
 25 81  1  0
 26 82  1  0
 26 83  1  0
 27 84  1  0
 27 85  1  0
 27 86  1  0
 28 87  1  0
 28 88  1  0
 29 89  1  0
 29 90  1  0
 29 91  1  0
 39 92  1  0
 39 93  1  0
 40 94  1  0
 40 95  1  0
 40 96  1  0
 41 97  1  0
 41 98  1  0
 42 99  1  0
 42100  1  0
 42101  1  0
 49102  1  0
 49103  1  0
 50104  1  0
 50105  1  0
 50106  1  0
 51107  1  0
 51108  1  0
 52109  1  0
 52110  1  0
 52111  1  0
 56112  1  0
 59113  1  0
 64114  1  0
 69115  1  0
M  END

