
     RDKit          3D

 97108  0  0  0  0  0  0  0  0999 V2000
    1.1718    1.6326   -7.5438 C   0  0  0  0  0  0  0  0  0  0  0  0
    0.7740    2.8432   -7.9893 C   0  0  0  0  0  0  0  0  0  0  0  0
   -0.0639    2.9990   -9.1896 C   0  0  0  0  0  0  0  0  0  0  0  0
   -0.4887    2.0532   -9.9420 O   0  0  0  0  0  0  0  0  0  0  0  0
   -0.4943    4.3728   -9.3008 C   0  0  0  0  0  0  0  0  0  0  0  0
   -1.2619    4.9824  -10.3063 C   0  0  0  0  0  0  0  0  0  0  0  0
   -1.7407    4.2778  -11.3602 F   0  0  0  0  0  0  0  0  0  0  0  0
   -1.4266    6.3786  -10.2540 C   0  0  0  0  0  0  0  0  0  0  0  0
   -0.8787    7.1312   -9.1951 C   0  0  0  0  0  0  0  0  0  0  0  0
   -0.1820    6.4691   -8.1571 C   0  0  0  0  0  0  0  0  0  0  0  0
   -0.0187    5.0717   -8.2126 C   0  0  0  0  0  0  0  0  0  0  0  0
    0.8652    4.2050   -7.3847 C   0  0  0  0  0  0  0  0  0  0  0  0
    1.3041    4.4778   -6.1631 C   0  0  0  0  0  0  0  0  0  0  0  0
    2.7231    4.6959   -6.0406 C   0  0  0  0  0  0  0  0  0  0  0  0
    3.8569    4.9122   -6.0364 N   0  0  0  0  0  0  0  0  0  0  0  0
    0.4820    5.2279   -5.2331 C   0  0  0  0  0  0  0  0  0  0  0  0
   -0.2244    5.6889   -4.4540 N   0  0  0  0  0  0  0  0  0  0  0  0
    1.7196    1.3580   -6.1984 C   0  0  0  0  0  0  0  0  0  0  0  0
    2.9913    0.7938   -5.9605 C   0  0  0  0  0  0  0  0  0  0  0  0
    4.0522    0.6011   -7.0020 C   0  0  0  0  0  0  0  0  0  0  0  0
    4.8237    1.9022   -7.2352 C   0  0  0  0  0  0  0  0  0  0  0  0
    3.1056    0.3667   -4.6502 C   0  0  0  0  0  0  0  0  0  0  0  0
    4.3079   -0.4935   -3.7870 S   0  0  0  0  0  0  0  0  0  0  0  0
    3.2760   -0.6085   -2.4298 C   0  0  0  0  0  0  0  0  0  0  0  0
    3.2040   -1.2118   -1.1897 C   0  0  0  0  0  0  0  0  0  0  0  0
    4.1754   -1.9655   -0.5027 C   0  0  0  0  0  0  0  0  0  0  0  0
    3.8239   -2.5609    0.7585 C   0  0  0  0  0  0  0  0  0  0  0  0
    4.7848   -3.2973    1.3864 N   0  0  0  0  0  0  0  0  0  0  0  0
    6.0119   -3.1115    0.2856 S   0  0  0  0  0  0  0  0  0  0  0  0
    5.4361   -2.1814   -0.9577 N   0  0  0  0  0  0  0  0  0  0  0  0
    2.5279   -2.3600    1.2622 C   0  0  0  0  0  0  0  0  0  0  0  0
    1.9221   -2.9040    2.3772 C   0  0  0  0  0  0  0  0  0  0  0  0
    2.2409   -3.8946    3.7463 S   0  0  0  0  0  0  0  0  0  0  0  0
    0.6224   -3.7274    4.2789 C   0  0  0  0  0  0  0  0  0  0  0  0
   -0.1363   -4.1902    5.3704 C   0  0  0  0  0  0  0  0  0  0  0  0
    0.4595   -4.9434    6.5322 C   0  0  0  0  0  0  0  0  0  0  0  0
    0.5414   -6.4304    6.1778 C   0  0  0  0  0  0  0  0  0  0  0  0
   -1.5200   -3.8724    5.2502 C   0  0  0  0  0  0  0  0  0  0  0  0
   -1.7450   -3.0836    3.7463 S   0  0  0  0  0  0  0  0  0  0  0  0
   -0.1268   -3.0340    3.3545 C   0  0  0  0  0  0  0  0  0  0  0  0
    0.6273   -2.5096    2.3236 C   0  0  0  0  0  0  0  0  0  0  0  0
    0.3445   -1.6873    1.2736 N   0  0  0  0  0  0  0  0  0  0  0  0
    1.5436   -1.5948    0.5733 C   0  0  0  0  0  0  0  0  0  0  0  0
    1.8901   -0.9966   -0.6927 C   0  0  0  0  0  0  0  0  0  0  0  0
    1.1921   -0.2061   -1.6106 N   0  0  0  0  0  0  0  0  0  0  0  0
    2.0716   -0.0157   -2.6240 C   0  0  0  0  0  0  0  0  0  0  0  0
    1.9633    0.5486   -3.8899 C   0  0  0  0  0  0  0  0  0  0  0  0
    0.7424    1.2003   -4.8376 S   0  0  0  0  0  0  0  0  0  0  0  0
    0.0018    0.6324   -1.4700 C   0  0  0  0  0  0  0  0  0  0  0  0
    0.2575    1.7902   -0.4993 C   0  0  0  0  0  0  0  0  0  0  0  0
   -1.0090   -1.2178    1.0037 C   0  0  0  0  0  0  0  0  0  0  0  0
   -1.7186   -2.1728    0.0328 C   0  0  0  0  0  0  0  0  0  0  0  0
   -2.5557   -3.6704    6.3357 C   0  0  0  0  0  0  0  0  0  0  0  0
   -2.4513   -2.8669    7.4229 C   0  0  0  0  0  0  0  0  0  0  0  0
   -3.5886   -1.9954    7.7960 C   0  0  0  0  0  0  0  0  0  0  0  0
   -4.6364   -2.4057    8.3881 O   0  0  0  0  0  0  0  0  0  0  0  0
   -3.1883   -0.6033    7.5375 C   0  0  0  0  0  0  0  0  0  0  0  0
   -3.8978    0.6063    7.5800 C   0  0  0  0  0  0  0  0  0  0  0  0
   -5.5936    0.6500    8.0926 Cl  0  0  0  0  0  0  0  0  0  0  0  0
   -3.2326    1.7953    7.2152 C   0  0  0  0  0  0  0  0  0  0  0  0
   -1.8867    1.7585    6.7755 C   0  0  0  0  0  0  0  0  0  0  0  0
   -1.1700    0.5519    6.7501 C   0  0  0  0  0  0  0  0  0  0  0  0
   -1.8271   -0.6110    7.2367 C   0  0  0  0  0  0  0  0  0  0  0  0
   -1.2975   -1.9379    7.5586 C   0  0  0  0  0  0  0  0  0  0  0  0
   -0.3155   -2.1153    8.4463 C   0  0  0  0  0  0  0  0  0  0  0  0
   -0.5236   -3.0372    9.5301 C   0  0  0  0  0  0  0  0  0  0  0  0
   -0.8255   -3.7646   10.3691 N   0  0  0  0  0  0  0  0  0  0  0  0
    0.8780   -1.2954    8.3926 C   0  0  0  0  0  0  0  0  0  0  0  0
    1.8063   -0.6051    8.3017 N   0  0  0  0  0  0  0  0  0  0  0  0
    0.9089    0.7570   -8.1299 H   0  0  0  0  0  0  0  0  0  0  0  0
   -1.9397    6.9129  -11.0284 H   0  0  0  0  0  0  0  0  0  0  0  0
   -0.9648    8.2126   -9.1845 H   0  0  0  0  0  0  0  0  0  0  0  0
    0.2578    7.0582   -7.3662 H   0  0  0  0  0  0  0  0  0  0  0  0
    4.7821   -0.1830   -6.6713 H   0  0  0  0  0  0  0  0  0  0  0  0
    3.6049    0.2706   -7.9805 H   0  0  0  0  0  0  0  0  0  0  0  0
    5.6663    1.7354   -7.9397 H   0  0  0  0  0  0  0  0  0  0  0  0
    4.1446    2.6332   -7.6991 H   0  0  0  0  0  0  0  0  0  0  0  0
    5.2338    2.3008   -6.2910 H   0  0  0  0  0  0  0  0  0  0  0  0
    1.4806   -4.5210    6.7668 H   0  0  0  0  0  0  0  0  0  0  0  0
   -0.1636   -4.8407    7.4695 H   0  0  0  0  0  0  0  0  0  0  0  0
   -0.4850   -6.8137    6.0073 H   0  0  0  0  0  0  0  0  0  0  0  0
    1.1476   -6.5530    5.2524 H   0  0  0  0  0  0  0  0  0  0  0  0
    1.0015   -6.9895    7.0143 H   0  0  0  0  0  0  0  0  0  0  0  0
   -0.8936    0.0316   -1.2506 H   0  0  0  0  0  0  0  0  0  0  0  0
   -0.2839    1.0953   -2.4390 H   0  0  0  0  0  0  0  0  0  0  0  0
   -0.7038    2.3128   -0.2863 H   0  0  0  0  0  0  0  0  0  0  0  0
    0.6797    1.4164    0.4664 H   0  0  0  0  0  0  0  0  0  0  0  0
    0.9847    2.5056   -0.9758 H   0  0  0  0  0  0  0  0  0  0  0  0
   -1.6250   -1.1844    1.9346 H   0  0  0  0  0  0  0  0  0  0  0  0
   -1.0178   -0.1473    0.7489 H   0  0  0  0  0  0  0  0  0  0  0  0
   -2.8194   -1.9475    0.0360 H   0  0  0  0  0  0  0  0  0  0  0  0
   -1.3171   -2.0754   -0.9987 H   0  0  0  0  0  0  0  0  0  0  0  0
   -1.5390   -3.2331    0.3485 H   0  0  0  0  0  0  0  0  0  0  0  0
   -3.5296   -3.5898    5.8880 H   0  0  0  0  0  0  0  0  0  0  0  0
   -3.7184    2.7470    7.2062 H   0  0  0  0  0  0  0  0  0  0  0  0
   -1.3771    2.6507    6.4433 H   0  0  0  0  0  0  0  0  0  0  0  0
   -0.1447    0.4924    6.4337 H   0  0  0  0  0  0  0  0  0  0  0  0
  1  2  2  3
  2  3  1  0
  3  4  2  0
  3  5  1  0
  5  6  2  0
  6  7  1  0
  6  8  1  0
  8  9  2  0
  9 10  1  0
 10 11  2  0
 11 12  1  0
 12 13  2  3
 13 14  1  0
 14 15  3  0
 13 16  1  0
 16 17  3  0
  1 18  1  0
 18 19  2  0
 19 20  1  0
 20 21  1  0
 19 22  1  0
 22 23  1  0
 23 24  1  0
 24 25  1  0
 25 26  1  0
 26 27  1  0
 27 28  2  0
 28 29  1  0
 29 30  1  0
 27 31  1  0
 31 32  1  0
 32 33  1  0
 33 34  1  0
 34 35  1  0
 35 36  1  0
 36 37  1  0
 35 38  2  0
 38 39  1  0
 39 40  1  0
 40 41  1  0
 41 42  1  0
 42 43  1  0
 43 44  1  0
 44 45  1  0
 45 46  1  0
 46 47  1  0
 47 48  1  0
 45 49  1  0
 49 50  1  0
 42 51  1  0
 51 52  1  0
 38 53  1  0
 53 54  2  3
 54 55  1  0
 55 56  2  0
 55 57  1  0
 57 58  2  0
 58 59  1  0
 58 60  1  0
 60 61  2  0
 61 62  1  0
 62 63  2  0
 63 64  1  0
 64 65  2  3
 65 66  1  0
 66 67  3  0
 65 68  1  0
 68 69  3  0
 12  2  1  0
 48 18  1  0
 64 54  1  0
 11  5  1  0
 47 22  2  0
 63 57  1  0
 46 24  2  0
 44 25  2  0
 30 26  2  0
 43 31  2  0
 41 32  2  0
 40 34  2  0
  1 70  1  0
  8 71  1  0
  9 72  1  0
 10 73  1  0
 20 74  1  0
 20 75  1  0
 21 76  1  0
 21 77  1  0
 21 78  1  0
 36 79  1  0
 36 80  1  0
 37 81  1  0
 37 82  1  0
 37 83  1  0
 49 84  1  0
 49 85  1  0
 50 86  1  0
 50 87  1  0
 50 88  1  0
 51 89  1  0
 51 90  1  0
 52 91  1  0
 52 92  1  0
 52 93  1  0
 53 94  1  0
 60 95  1  0
 61 96  1  0
 62 97  1  0
M  END

