
     RDKit          3D

155171  0  0  0  0  0  0  0  0999 V2000
    4.5221   -0.9994    7.1662 C   0  0  0  0  0  0  0  0  0  0  0  0
    3.2988   -1.2090    7.6888 C   0  0  0  0  0  0  0  0  0  0  0  0
    2.0435   -1.2570    6.9273 C   0  0  0  0  0  0  0  0  0  0  0  0
    1.8720   -0.8971    5.7356 O   0  0  0  0  0  0  0  0  0  0  0  0
    1.0347   -1.8843    7.7522 C   0  0  0  0  0  0  0  0  0  0  0  0
   -0.2539   -2.2842    7.3889 C   0  0  0  0  0  0  0  0  0  0  0  0
   -0.7534   -2.0034    6.1607 F   0  0  0  0  0  0  0  0  0  0  0  0
   -1.0125   -3.0207    8.3098 C   0  0  0  0  0  0  0  0  0  0  0  0
   -0.4614   -3.3684    9.5564 C   0  0  0  0  0  0  0  0  0  0  0  0
    0.8393   -2.9669    9.9008 C   0  0  0  0  0  0  0  0  0  0  0  0
    1.5740   -2.1874    8.9919 C   0  0  0  0  0  0  0  0  0  0  0  0
    2.9734   -1.6793    9.0701 C   0  0  0  0  0  0  0  0  0  0  0  0
    3.6973   -1.4707   10.2024 C   0  0  0  0  0  0  0  0  0  0  0  0
    3.1931   -1.8000   11.5106 C   0  0  0  0  0  0  0  0  0  0  0  0
    2.8063   -2.0533   12.5716 N   0  0  0  0  0  0  0  0  0  0  0  0
    4.9677   -0.7953   10.1960 C   0  0  0  0  0  0  0  0  0  0  0  0
    5.9937   -0.2570   10.2081 N   0  0  0  0  0  0  0  0  0  0  0  0
    4.7273   -0.6604    5.7567 C   0  0  0  0  0  0  0  0  0  0  0  0
    4.6473    0.9249    5.1478 S   0  0  0  0  0  0  0  0  0  0  0  0
    4.6668    0.4147    3.5548 C   0  0  0  0  0  0  0  0  0  0  0  0
    4.0659    0.8805    2.4287 C   0  0  0  0  0  0  0  0  0  0  0  0
    3.0317    2.1912    2.1407 S   0  0  0  0  0  0  0  0  0  0  0  0
    2.3018    1.3406    0.8720 C   0  0  0  0  0  0  0  0  0  0  0  0
    1.3188    1.6415   -0.1203 C   0  0  0  0  0  0  0  0  0  0  0  0
    0.3014    2.5985   -0.0622 C   0  0  0  0  0  0  0  0  0  0  0  0
   -0.7329    2.4812   -1.0026 C   0  0  0  0  0  0  0  0  0  0  0  0
   -2.0865    3.1955   -0.9826 C   0  0  0  0  0  0  0  0  0  0  0  0
   -2.9516    2.8002    0.2262 C   0  0  0  0  0  0  0  0  0  0  0  0
   -2.6311    1.6971    1.0519 C   0  0  0  0  0  0  0  0  0  0  0  0
   -3.4344    1.3617    2.1420 C   0  0  0  0  0  0  0  0  0  0  0  0
   -4.5894    2.0967    2.4247 C   0  0  0  0  0  0  0  0  0  0  0  0
   -5.4716    1.7082    3.5837 C   0  0  0  0  0  0  0  0  0  0  0  0
   -6.3901    0.5502    3.2045 C   0  0  0  0  0  0  0  0  0  0  0  0
   -4.9563    3.1516    1.5757 C   0  0  0  0  0  0  0  0  0  0  0  0
   -4.1442    3.4996    0.4908 C   0  0  0  0  0  0  0  0  0  0  0  0
   -1.8661    4.7090   -1.0955 C   0  0  0  0  0  0  0  0  0  0  0  0
   -1.5769    5.4628    0.0599 C   0  0  0  0  0  0  0  0  0  0  0  0
   -1.3139    6.8309   -0.0239 C   0  0  0  0  0  0  0  0  0  0  0  0
   -1.3095    7.4777   -1.2673 C   0  0  0  0  0  0  0  0  0  0  0  0
   -1.0348    8.9539   -1.3590 C   0  0  0  0  0  0  0  0  0  0  0  0
   -2.3205    9.7531   -1.2050 C   0  0  0  0  0  0  0  0  0  0  0  0
   -1.5854    6.7358   -2.4241 C   0  0  0  0  0  0  0  0  0  0  0  0
   -1.8492    5.3677   -2.3412 C   0  0  0  0  0  0  0  0  0  0  0  0
   -2.6950    2.5613   -2.2162 C   0  0  0  0  0  0  0  0  0  0  0  0
   -1.9021    1.5902   -2.7322 C   0  0  0  0  0  0  0  0  0  0  0  0
   -0.6800    1.4962   -1.9906 C   0  0  0  0  0  0  0  0  0  0  0  0
    0.3166    0.5161   -2.0279 C   0  0  0  0  0  0  0  0  0  0  0  0
    1.3110    0.5805   -1.0307 C   0  0  0  0  0  0  0  0  0  0  0  0
    2.3580   -0.4863   -0.6654 C   0  0  0  0  0  0  0  0  0  0  0  0
    1.7600   -1.8924   -0.5305 C   0  0  0  0  0  0  0  0  0  0  0  0
    2.5648   -3.0342   -0.7390 C   0  0  0  0  0  0  0  0  0  0  0  0
    2.0252   -4.3187   -0.6397 C   0  0  0  0  0  0  0  0  0  0  0  0
    0.6741   -4.4993   -0.3138 C   0  0  0  0  0  0  0  0  0  0  0  0
    0.0966   -5.8841   -0.2158 C   0  0  0  0  0  0  0  0  0  0  0  0
   -0.3229   -6.3898   -1.5905 C   0  0  0  0  0  0  0  0  0  0  0  0
   -0.1316   -3.3753   -0.0861 C   0  0  0  0  0  0  0  0  0  0  0  0
    0.4087   -2.0892   -0.1690 C   0  0  0  0  0  0  0  0  0  0  0  0
    3.4688   -0.4262   -1.7326 C   0  0  0  0  0  0  0  0  0  0  0  0
    4.7768    0.0444   -1.4624 C   0  0  0  0  0  0  0  0  0  0  0  0
    5.7620    0.0412   -2.4530 C   0  0  0  0  0  0  0  0  0  0  0  0
    5.4607   -0.3938   -3.7513 C   0  0  0  0  0  0  0  0  0  0  0  0
    6.5296   -0.4190   -4.8111 C   0  0  0  0  0  0  0  0  0  0  0  0
    7.0670   -1.8332   -5.0159 C   0  0  0  0  0  0  0  0  0  0  0  0
    4.1650   -0.8415   -4.0412 C   0  0  0  0  0  0  0  0  0  0  0  0
    3.1876   -0.8667   -3.0430 C   0  0  0  0  0  0  0  0  0  0  0  0
    2.7852    0.0743    0.6941 C   0  0  0  0  0  0  0  0  0  0  0  0
    3.7692   -0.2162    1.6513 C   0  0  0  0  0  0  0  0  0  0  0  0
    4.0416   -1.3785    2.3181 N   0  0  0  0  0  0  0  0  0  0  0  0
    4.6319   -0.9468    3.4685 C   0  0  0  0  0  0  0  0  0  0  0  0
    4.6689   -1.5877    4.7107 C   0  0  0  0  0  0  0  0  0  0  0  0
    3.1979   -2.5360    2.3166 C   0  0  0  0  0  0  0  0  0  0  0  0
    1.8503   -2.4939    2.7055 C   0  0  0  0  0  0  0  0  0  0  0  0
    1.3828   -3.7709    2.9691 C   0  0  0  0  0  0  0  0  0  0  0  0
   -0.0712   -4.3747    3.5400 S   0  0  0  0  0  0  0  0  0  0  0  0
    0.5057   -5.9840    3.6019 C   0  0  0  0  0  0  0  0  0  0  0  0
   -0.3078   -7.1530    4.0618 C   0  0  0  0  0  0  0  0  0  0  0  0
   -1.2200   -7.6540    2.9501 C   0  0  0  0  0  0  0  0  0  0  0  0
    1.8387   -6.0427    3.1693 C   0  0  0  0  0  0  0  0  0  0  0  0
    2.2889   -4.7722    2.8285 C   0  0  0  0  0  0  0  0  0  0  0  0
    3.7786   -4.1431    2.3775 S   0  0  0  0  0  0  0  0  0  0  0  0
   -2.5753    0.8845   -4.0932 S   0  0  0  0  0  0  0  0  0  0  0  0
   -3.9413    1.8994   -4.0330 C   0  0  0  0  0  0  0  0  0  0  0  0
   -3.8830    2.7449   -2.9195 C   0  0  0  0  0  0  0  0  0  0  0  0
   -5.0815    1.8003   -4.9437 C   0  0  0  0  0  0  0  0  0  0  0  0
   -5.1105    2.3017   -6.1910 C   0  0  0  0  0  0  0  0  0  0  0  0
   -6.2577    2.1350   -7.0802 C   0  0  0  0  0  0  0  0  0  0  0  0
   -7.2938    1.4677   -6.8174 O   0  0  0  0  0  0  0  0  0  0  0  0
   -5.9991    2.8552   -8.3117 C   0  0  0  0  0  0  0  0  0  0  0  0
   -6.7807    2.9452   -9.4706 C   0  0  0  0  0  0  0  0  0  0  0  0
   -8.3586    2.1646   -9.5528 Cl  0  0  0  0  0  0  0  0  0  0  0  0
   -6.2679    3.6620  -10.5701 C   0  0  0  0  0  0  0  0  0  0  0  0
   -7.2287    3.8113  -12.0414 Cl  0  0  0  0  0  0  0  0  0  0  0  0
   -4.9809    4.2414  -10.5033 C   0  0  0  0  0  0  0  0  0  0  0  0
   -4.3308    5.1059  -11.8942 Cl  0  0  0  0  0  0  0  0  0  0  0  0
   -4.2052    4.1210   -9.3293 C   0  0  0  0  0  0  0  0  0  0  0  0
   -2.5405    4.7028   -9.3049 Cl  0  0  0  0  0  0  0  0  0  0  0  0
   -4.7587    3.4599   -8.2180 C   0  0  0  0  0  0  0  0  0  0  0  0
   -4.1301    3.1800   -6.8976 C   0  0  0  0  0  0  0  0  0  0  0  0
   -3.3804    4.0830   -6.2402 C   0  0  0  0  0  0  0  0  0  0  0  0
   -2.0683    3.7031   -5.7929 C   0  0  0  0  0  0  0  0  0  0  0  0
   -1.0034    3.4091   -5.4421 N   0  0  0  0  0  0  0  0  0  0  0  0
   -3.6154    5.4958   -6.4043 C   0  0  0  0  0  0  0  0  0  0  0  0
   -3.8007    6.6321   -6.5338 N   0  0  0  0  0  0  0  0  0  0  0  0
    5.4136   -1.1514    7.7506 H   0  0  0  0  0  0  0  0  0  0  0  0
   -2.0090   -3.3546    8.0464 H   0  0  0  0  0  0  0  0  0  0  0  0
   -1.0372   -3.9739   10.2460 H   0  0  0  0  0  0  0  0  0  0  0  0
    1.2547   -3.3126   10.8353 H   0  0  0  0  0  0  0  0  0  0  0  0
    0.2539    3.3184    0.7453 H   0  0  0  0  0  0  0  0  0  0  0  0
   -1.7715    1.0719    0.8547 H   0  0  0  0  0  0  0  0  0  0  0  0
   -3.1549    0.5210    2.7714 H   0  0  0  0  0  0  0  0  0  0  0  0
   -6.0876    2.5730    3.9077 H   0  0  0  0  0  0  0  0  0  0  0  0
   -4.8405    1.4054    4.4482 H   0  0  0  0  0  0  0  0  0  0  0  0
   -5.7921   -0.3541    2.9557 H   0  0  0  0  0  0  0  0  0  0  0  0
   -7.0224    0.8233    2.3332 H   0  0  0  0  0  0  0  0  0  0  0  0
   -7.0489    0.3082    4.0648 H   0  0  0  0  0  0  0  0  0  0  0  0
   -5.8695    3.7037    1.7517 H   0  0  0  0  0  0  0  0  0  0  0  0
   -4.4574    4.3139   -0.1511 H   0  0  0  0  0  0  0  0  0  0  0  0
   -1.5485    4.9857    1.0334 H   0  0  0  0  0  0  0  0  0  0  0  0
   -1.1043    7.3869    0.8827 H   0  0  0  0  0  0  0  0  0  0  0  0
   -0.5655    9.1925   -2.3368 H   0  0  0  0  0  0  0  0  0  0  0  0
   -0.3131    9.2570   -0.5690 H   0  0  0  0  0  0  0  0  0  0  0  0
   -3.0681    9.4504   -1.9712 H   0  0  0  0  0  0  0  0  0  0  0  0
   -2.1030   10.8358   -1.3234 H   0  0  0  0  0  0  0  0  0  0  0  0
   -2.7500    9.5880   -0.1927 H   0  0  0  0  0  0  0  0  0  0  0  0
   -1.6006    7.2185   -3.3950 H   0  0  0  0  0  0  0  0  0  0  0  0
   -2.0381    4.8329   -3.2566 H   0  0  0  0  0  0  0  0  0  0  0  0
    0.2407   -0.3159   -2.7133 H   0  0  0  0  0  0  0  0  0  0  0  0
    3.6190   -2.9352   -0.9652 H   0  0  0  0  0  0  0  0  0  0  0  0
    2.6677   -5.1748   -0.8012 H   0  0  0  0  0  0  0  0  0  0  0  0
    0.8482   -6.5769    0.2218 H   0  0  0  0  0  0  0  0  0  0  0  0
   -0.7826   -5.8864    0.4614 H   0  0  0  0  0  0  0  0  0  0  0  0
   -1.1140   -5.7362   -2.0211 H   0  0  0  0  0  0  0  0  0  0  0  0
    0.5501   -6.4103   -2.2780 H   0  0  0  0  0  0  0  0  0  0  0  0
   -0.7234   -7.4233   -1.5043 H   0  0  0  0  0  0  0  0  0  0  0  0
   -1.1742   -3.4946    0.1740 H   0  0  0  0  0  0  0  0  0  0  0  0
   -0.2337   -1.2490    0.0543 H   0  0  0  0  0  0  0  0  0  0  0  0
    5.0659    0.4092   -0.4895 H   0  0  0  0  0  0  0  0  0  0  0  0
    6.7659    0.3731   -2.2087 H   0  0  0  0  0  0  0  0  0  0  0  0
    7.3720    0.2549   -4.5384 H   0  0  0  0  0  0  0  0  0  0  0  0
    6.1118   -0.0431   -5.7733 H   0  0  0  0  0  0  0  0  0  0  0  0
    7.8738   -1.8237   -5.7799 H   0  0  0  0  0  0  0  0  0  0  0  0
    7.4728   -2.2423   -4.0626 H   0  0  0  0  0  0  0  0  0  0  0  0
    6.2539   -2.5042   -5.3735 H   0  0  0  0  0  0  0  0  0  0  0  0
    3.9200   -1.1978   -5.0350 H   0  0  0  0  0  0  0  0  0  0  0  0
    2.2148   -1.2630   -3.2912 H   0  0  0  0  0  0  0  0  0  0  0  0
    4.5058   -2.6448    4.8604 H   0  0  0  0  0  0  0  0  0  0  0  0
    1.2758   -1.5893    2.8537 H   0  0  0  0  0  0  0  0  0  0  0  0
    0.3634   -7.9789    4.3915 H   0  0  0  0  0  0  0  0  0  0  0  0
   -0.9230   -6.8492    4.9367 H   0  0  0  0  0  0  0  0  0  0  0  0
   -1.9130   -6.8470    2.6274 H   0  0  0  0  0  0  0  0  0  0  0  0
   -1.8236   -8.5095    3.3222 H   0  0  0  0  0  0  0  0  0  0  0  0
   -0.6198   -7.9945    2.0783 H   0  0  0  0  0  0  0  0  0  0  0  0
    2.4418   -6.9423    3.1328 H   0  0  0  0  0  0  0  0  0  0  0  0
   -4.6482    3.4578   -2.6488 H   0  0  0  0  0  0  0  0  0  0  0  0
   -5.9439    1.2550   -4.5724 H   0  0  0  0  0  0  0  0  0  0  0  0
  1  2  2  3
  2  3  1  0
  3  4  2  0
  3  5  1  0
  5  6  2  0
  6  7  1  0
  6  8  1  0
  8  9  2  0
  9 10  1  0
 10 11  2  0
 11 12  1  0
 12 13  2  3
 13 14  1  0
 14 15  3  0
 13 16  1  0
 16 17  3  0
  1 18  1  0
 18 19  1  0
 19 20  1  0
 20 21  1  0
 21 22  1  0
 22 23  1  0
 23 24  1  0
 24 25  2  0
 25 26  1  0
 26 27  1  0
 27 28  1  0
 28 29  2  0
 29 30  1  0
 30 31  2  0
 31 32  1  0
 32 33  1  0
 31 34  1  0
 34 35  2  0
 27 36  1  0
 36 37  2  0
 37 38  1  0
 38 39  2  0
 39 40  1  0
 40 41  1  0
 39 42  1  0
 42 43  2  0
 27 44  1  0
 44 45  2  0
 45 46  1  0
 46 47  1  0
 47 48  2  0
 48 49  1  0
 49 50  1  0
 50 51  2  0
 51 52  1  0
 52 53  2  0
 53 54  1  0
 54 55  1  0
 53 56  1  0
 56 57  2  0
 49 58  1  0
 58 59  2  0
 59 60  1  0
 60 61  2  0
 61 62  1  0
 62 63  1  0
 61 64  1  0
 64 65  2  0
 49 66  1  0
 66 67  1  0
 67 68  1  0
 68 69  1  0
 69 70  1  0
 68 71  1  0
 71 72  2  0
 72 73  1  0
 73 74  1  0
 74 75  1  0
 75 76  1  0
 76 77  1  0
 75 78  2  0
 78 79  1  0
 79 80  1  0
 45 81  1  0
 81 82  1  0
 82 83  2  0
 82 84  1  0
 84 85  2  3
 85 86  1  0
 86 87  2  0
 86 88  1  0
 88 89  2  0
 89 90  1  0
 89 91  1  0
 91 92  1  0
 91 93  2  0
 93 94  1  0
 93 95  1  0
 95 96  1  0
 95 97  2  0
 97 98  1  0
 98 99  2  3
 99100  1  0
100101  3  0
 99102  1  0
102103  3  0
 12  2  1  0
 70 18  2  0
 80 71  1  0
 98 85  1  0
 11  5  1  0
 69 20  2  0
 79 73  2  0
 97 88  1  0
 67 21  2  0
 66 23  2  0
 48 24  1  0
 57 50  1  0
 65 58  1  0
 46 26  2  0
 35 28  1  0
 43 36  1  0
 83 44  1  0
  1104  1  0
  8105  1  0
  9106  1  0
 10107  1  0
 25108  1  0
 29109  1  0
 30110  1  0
 32111  1  0
 32112  1  0
 33113  1  0
 33114  1  0
 33115  1  0
 34116  1  0
 35117  1  0
 37118  1  0
 38119  1  0
 40120  1  0
 40121  1  0
 41122  1  0
 41123  1  0
 41124  1  0
 42125  1  0
 43126  1  0
 47127  1  0
 51128  1  0
 52129  1  0
 54130  1  0
 54131  1  0
 55132  1  0
 55133  1  0
 55134  1  0
 56135  1  0
 57136  1  0
 59137  1  0
 60138  1  0
 62139  1  0
 62140  1  0
 63141  1  0
 63142  1  0
 63143  1  0
 64144  1  0
 65145  1  0
 70146  1  0
 72147  1  0
 76148  1  0
 76149  1  0
 77150  1  0
 77151  1  0
 77152  1  0
 78153  1  0
 83154  1  0
 84155  1  0
M  END

