
     RDKit          3D

169187  0  0  0  0  0  0  0  0999 V2000
    8.5409    2.0534   -3.4565 C   0  0  0  0  0  0  0  0  0  0  0  0
    8.7871    2.3453   -4.7507 C   0  0  0  0  0  0  0  0  0  0  0  0
    7.7958    2.8358   -5.7126 C   0  0  0  0  0  0  0  0  0  0  0  0
    6.5391    2.8302   -5.5615 O   0  0  0  0  0  0  0  0  0  0  0  0
    8.4905    3.4296   -6.8337 C   0  0  0  0  0  0  0  0  0  0  0  0
    7.9629    4.1140   -7.9342 C   0  0  0  0  0  0  0  0  0  0  0  0
    6.6247    4.1946   -8.1234 F   0  0  0  0  0  0  0  0  0  0  0  0
    8.8400    4.7221   -8.8399 C   0  0  0  0  0  0  0  0  0  0  0  0
   10.2260    4.6352   -8.6319 C   0  0  0  0  0  0  0  0  0  0  0  0
   10.7485    3.9310   -7.5368 C   0  0  0  0  0  0  0  0  0  0  0  0
    9.8612    3.3032   -6.6410 C   0  0  0  0  0  0  0  0  0  0  0  0
   10.1248    2.5167   -5.4015 C   0  0  0  0  0  0  0  0  0  0  0  0
   11.2969    1.9408   -5.0271 C   0  0  0  0  0  0  0  0  0  0  0  0
   11.3665    0.9771   -3.9576 C   0  0  0  0  0  0  0  0  0  0  0  0
   11.3987    0.1838   -3.1208 N   0  0  0  0  0  0  0  0  0  0  0  0
   12.5144    2.0882   -5.7931 C   0  0  0  0  0  0  0  0  0  0  0  0
   13.4956    2.1904   -6.4019 N   0  0  0  0  0  0  0  0  0  0  0  0
    7.2012    2.1667   -2.8745 C   0  0  0  0  0  0  0  0  0  0  0  0
    6.6278    3.5681   -2.0855 S   0  0  0  0  0  0  0  0  0  0  0  0
    5.0615    2.9954   -2.0599 C   0  0  0  0  0  0  0  0  0  0  0  0
    3.7783    3.4507   -1.6232 C   0  0  0  0  0  0  0  0  0  0  0  0
    2.8115    2.5718   -2.1027 C   0  0  0  0  0  0  0  0  0  0  0  0
    3.5206    1.2425   -2.5277 C   0  0  0  0  0  0  0  0  0  0  0  0
    4.9400    1.7741   -2.6333 C   0  0  0  0  0  0  0  0  0  0  0  0
    6.1559    1.2376   -3.0465 C   0  0  0  0  0  0  0  0  0  0  0  0
    2.9412    0.6927   -3.8403 C   0  0  0  0  0  0  0  0  0  0  0  0
    3.6232    0.7655   -5.0703 C   0  0  0  0  0  0  0  0  0  0  0  0
    3.0684    0.1937   -6.2237 C   0  0  0  0  0  0  0  0  0  0  0  0
    1.8081   -0.4179   -6.1920 C   0  0  0  0  0  0  0  0  0  0  0  0
    1.1749   -0.9358   -7.4580 C   0  0  0  0  0  0  0  0  0  0  0  0
    0.9394   -2.4414   -7.4089 C   0  0  0  0  0  0  0  0  0  0  0  0
    1.1324   -0.5044   -4.9710 C   0  0  0  0  0  0  0  0  0  0  0  0
    1.7013    0.0236   -3.8115 C   0  0  0  0  0  0  0  0  0  0  0  0
    3.5880    0.1368   -1.4388 C   0  0  0  0  0  0  0  0  0  0  0  0
    3.7199   -1.2237   -1.8224 C   0  0  0  0  0  0  0  0  0  0  0  0
    3.9188   -2.2323   -0.8642 C   0  0  0  0  0  0  0  0  0  0  0  0
    4.0383   -1.9156    0.4896 C   0  0  0  0  0  0  0  0  0  0  0  0
    4.3946   -2.9893    1.4950 C   0  0  0  0  0  0  0  0  0  0  0  0
    3.3637   -3.0840    2.6093 C   0  0  0  0  0  0  0  0  0  0  0  0
    3.9802   -0.5707    0.8785 C   0  0  0  0  0  0  0  0  0  0  0  0
    3.7514    0.4343   -0.0662 C   0  0  0  0  0  0  0  0  0  0  0  0
    1.6195    2.7243   -1.3709 C   0  0  0  0  0  0  0  0  0  0  0  0
    0.3097    2.7716   -1.9146 C   0  0  0  0  0  0  0  0  0  0  0  0
    0.0546    2.8522   -3.4011 C   0  0  0  0  0  0  0  0  0  0  0  0
    0.0050    4.3054   -3.8682 C   0  0  0  0  0  0  0  0  0  0  0  0
   -0.7649    3.1018   -1.0611 C   0  0  0  0  0  0  0  0  0  0  0  0
   -0.5292    3.3796    0.2984 C   0  0  0  0  0  0  0  0  0  0  0  0
   -1.5659    3.5286    1.2222 C   0  0  0  0  0  0  0  0  0  0  0  0
   -3.2209    3.6145    0.8895 S   0  0  0  0  0  0  0  0  0  0  0  0
   -3.6989    3.4721    2.4895 C   0  0  0  0  0  0  0  0  0  0  0  0
   -4.8019    2.6630    2.9363 C   0  0  0  0  0  0  0  0  0  0  0  0
   -4.2924    1.7536    3.8171 C   0  0  0  0  0  0  0  0  0  0  0  0
   -2.9438    2.2019    4.3758 C   0  0  0  0  0  0  0  0  0  0  0  0
   -3.2373    2.8724    5.7268 C   0  0  0  0  0  0  0  0  0  0  0  0
   -2.8776    4.2150    5.9950 C   0  0  0  0  0  0  0  0  0  0  0  0
   -3.2650    4.8298    7.1893 C   0  0  0  0  0  0  0  0  0  0  0  0
   -4.0164    4.1280    8.1415 C   0  0  0  0  0  0  0  0  0  0  0  0
   -4.5676    4.8393    9.3432 C   0  0  0  0  0  0  0  0  0  0  0  0
   -5.8600    5.5563    8.9665 C   0  0  0  0  0  0  0  0  0  0  0  0
   -4.3395    2.7858    7.9023 C   0  0  0  0  0  0  0  0  0  0  0  0
   -3.9567    2.1632    6.7137 C   0  0  0  0  0  0  0  0  0  0  0  0
   -1.9797    1.0175    4.4451 C   0  0  0  0  0  0  0  0  0  0  0  0
   -1.7244    0.2532    3.2850 C   0  0  0  0  0  0  0  0  0  0  0  0
   -0.9556   -0.9067    3.3482 C   0  0  0  0  0  0  0  0  0  0  0  0
   -0.3963   -1.3204    4.5636 C   0  0  0  0  0  0  0  0  0  0  0  0
    0.3555   -2.6181    4.6457 C   0  0  0  0  0  0  0  0  0  0  0  0
   -0.5685   -3.7608    5.0504 C   0  0  0  0  0  0  0  0  0  0  0  0
   -0.5902   -0.5531    5.7116 C   0  0  0  0  0  0  0  0  0  0  0  0
   -1.3706    0.6066    5.6592 C   0  0  0  0  0  0  0  0  0  0  0  0
   -2.5851    3.2289    3.2895 C   0  0  0  0  0  0  0  0  0  0  0  0
   -1.3523    3.4061    2.6002 C   0  0  0  0  0  0  0  0  0  0  0  0
   -0.0219    3.4279    3.1003 C   0  0  0  0  0  0  0  0  0  0  0  0
    0.3360    3.3765    4.5605 C   0  0  0  0  0  0  0  0  0  0  0  0
    0.9992    4.6666    5.0416 C   0  0  0  0  0  0  0  0  0  0  0  0
    1.0387    3.5261    2.1717 C   0  0  0  0  0  0  0  0  0  0  0  0
    0.7900    3.4539    0.7852 C   0  0  0  0  0  0  0  0  0  0  0  0
    1.8246    3.3351   -0.1365 C   0  0  0  0  0  0  0  0  0  0  0  0
    3.3613    4.0384   -0.0867 S   0  0  0  0  0  0  0  0  0  0  0  0
   -4.8674    0.4751    3.7029 C   0  0  0  0  0  0  0  0  0  0  0  0
   -5.8639    0.4464    2.7189 C   0  0  0  0  0  0  0  0  0  0  0  0
   -6.0339    1.9822    2.0373 S   0  0  0  0  0  0  0  0  0  0  0  0
   -6.6826   -0.7094    2.3183 C   0  0  0  0  0  0  0  0  0  0  0  0
   -6.2796   -1.7451    1.5589 C   0  0  0  0  0  0  0  0  0  0  0  0
   -7.1479   -2.8887    1.3019 C   0  0  0  0  0  0  0  0  0  0  0  0
   -8.3657   -2.9711    1.6125 O   0  0  0  0  0  0  0  0  0  0  0  0
   -6.3993   -3.9129    0.6102 C   0  0  0  0  0  0  0  0  0  0  0  0
   -6.9274   -5.0754   -0.0099 C   0  0  0  0  0  0  0  0  0  0  0  0
   -6.0069   -5.7749   -0.7675 C   0  0  0  0  0  0  0  0  0  0  0  0
   -4.6343   -5.3819   -0.8771 C   0  0  0  0  0  0  0  0  0  0  0  0
   -4.1156   -4.2526   -0.2701 C   0  0  0  0  0  0  0  0  0  0  0  0
   -5.0502   -3.4843    0.4758 C   0  0  0  0  0  0  0  0  0  0  0  0
   -4.9375   -2.0843    0.9742 C   0  0  0  0  0  0  0  0  0  0  0  0
   -4.0222   -1.1967    0.5051 C   0  0  0  0  0  0  0  0  0  0  0  0
   -2.6709   -1.5866    0.1825 C   0  0  0  0  0  0  0  0  0  0  0  0
   -1.5797   -1.8741   -0.0899 N   0  0  0  0  0  0  0  0  0  0  0  0
   -4.4305    0.0618   -0.0439 C   0  0  0  0  0  0  0  0  0  0  0  0
   -4.7488    1.0644   -0.5161 N   0  0  0  0  0  0  0  0  0  0  0  0
   -4.3568   -6.5330   -1.7959 C   0  0  0  0  0  0  0  0  0  0  0  0
   -3.5884   -7.7582   -1.2129 C   0  0  0  0  0  0  0  0  0  0  0  0
   -3.9090   -7.9116    0.2527 C   0  0  0  0  0  0  0  0  0  0  0  0
   -5.1833   -8.2847    0.3280 C   0  0  0  0  0  0  0  0  0  0  0  0
   -5.6927   -8.3640   -1.0927 C   0  0  0  0  0  0  0  0  0  0  0  0
   -4.4388   -8.8840   -1.7711 C   0  0  0  0  0  0  0  0  0  0  0  0
   -5.7686   -6.9320   -1.6982 C   0  0  0  0  0  0  0  0  0  0  0  0
    9.3519    1.9023   -2.7626 H   0  0  0  0  0  0  0  0  0  0  0  0
    8.4441    5.2787   -9.6811 H   0  0  0  0  0  0  0  0  0  0  0  0
   10.8994    5.1188   -9.3218 H   0  0  0  0  0  0  0  0  0  0  0  0
   11.8170    3.9177   -7.4050 H   0  0  0  0  0  0  0  0  0  0  0  0
    6.2737    0.2517   -3.5017 H   0  0  0  0  0  0  0  0  0  0  0  0
    4.5814    1.2541   -5.1724 H   0  0  0  0  0  0  0  0  0  0  0  0
    3.6253    0.2411   -7.1441 H   0  0  0  0  0  0  0  0  0  0  0  0
    0.2068   -0.4203   -7.6105 H   0  0  0  0  0  0  0  0  0  0  0  0
    1.8302   -0.7303   -8.3316 H   0  0  0  0  0  0  0  0  0  0  0  0
    1.8911   -2.9790   -7.2494 H   0  0  0  0  0  0  0  0  0  0  0  0
    0.2381   -2.7093   -6.5873 H   0  0  0  0  0  0  0  0  0  0  0  0
    0.5006   -2.7847   -8.3701 H   0  0  0  0  0  0  0  0  0  0  0  0
    0.1439   -0.9473   -4.9106 H   0  0  0  0  0  0  0  0  0  0  0  0
    1.1454   -0.0435   -2.8840 H   0  0  0  0  0  0  0  0  0  0  0  0
    3.7079   -1.5129   -2.8597 H   0  0  0  0  0  0  0  0  0  0  0  0
    3.9897   -3.2728   -1.1847 H   0  0  0  0  0  0  0  0  0  0  0  0
    4.4559   -3.9870    0.9954 H   0  0  0  0  0  0  0  0  0  0  0  0
    5.3995   -2.7734    1.9273 H   0  0  0  0  0  0  0  0  0  0  0  0
    3.2378   -2.1084    3.1365 H   0  0  0  0  0  0  0  0  0  0  0  0
    3.6826   -3.8454    3.3559 H   0  0  0  0  0  0  0  0  0  0  0  0
    2.4012   -3.4067    2.1661 H   0  0  0  0  0  0  0  0  0  0  0  0
    4.1000   -0.2914    1.9162 H   0  0  0  0  0  0  0  0  0  0  0  0
    3.8101    1.4448    0.2879 H   0  0  0  0  0  0  0  0  0  0  0  0
   -0.9072    2.3444   -3.6543 H   0  0  0  0  0  0  0  0  0  0  0  0
    0.8641    2.3666   -3.9914 H   0  0  0  0  0  0  0  0  0  0  0  0
   -0.7406    4.8817   -3.2930 H   0  0  0  0  0  0  0  0  0  0  0  0
   -0.2756    4.3457   -4.9397 H   0  0  0  0  0  0  0  0  0  0  0  0
    1.0092    4.7663   -3.7420 H   0  0  0  0  0  0  0  0  0  0  0  0
   -1.7667    3.1524   -1.4634 H   0  0  0  0  0  0  0  0  0  0  0  0
   -2.3128    4.8010    5.2827 H   0  0  0  0  0  0  0  0  0  0  0  0
   -3.0077    5.8644    7.3552 H   0  0  0  0  0  0  0  0  0  0  0  0
   -3.8280    5.5736    9.7253 H   0  0  0  0  0  0  0  0  0  0  0  0
   -4.7770    4.1185   10.1620 H   0  0  0  0  0  0  0  0  0  0  0  0
   -6.2641    6.1037    9.8480 H   0  0  0  0  0  0  0  0  0  0  0  0
   -6.6203    4.8175    8.6191 H   0  0  0  0  0  0  0  0  0  0  0  0
   -5.6748    6.2872    8.1467 H   0  0  0  0  0  0  0  0  0  0  0  0
   -4.9284    2.2307    8.6207 H   0  0  0  0  0  0  0  0  0  0  0  0
   -4.2502    1.1340    6.5441 H   0  0  0  0  0  0  0  0  0  0  0  0
   -2.1603    0.5336    2.3330 H   0  0  0  0  0  0  0  0  0  0  0  0
   -0.8082   -1.4977    2.4567 H   0  0  0  0  0  0  0  0  0  0  0  0
    0.7935   -2.8541    3.6589 H   0  0  0  0  0  0  0  0  0  0  0  0
    1.1897   -2.5383    5.3722 H   0  0  0  0  0  0  0  0  0  0  0  0
   -0.9714   -3.6098    6.0813 H   0  0  0  0  0  0  0  0  0  0  0  0
   -0.0070   -4.7229    5.0120 H   0  0  0  0  0  0  0  0  0  0  0  0
   -1.4246   -3.8282    4.3362 H   0  0  0  0  0  0  0  0  0  0  0  0
   -0.1547   -0.8574    6.6521 H   0  0  0  0  0  0  0  0  0  0  0  0
   -1.4942    1.1783    6.5694 H   0  0  0  0  0  0  0  0  0  0  0  0
   -0.5421    3.1893    5.1871 H   0  0  0  0  0  0  0  0  0  0  0  0
    1.0359    2.5283    4.7241 H   0  0  0  0  0  0  0  0  0  0  0  0
    1.1427    4.6210    6.1431 H   0  0  0  0  0  0  0  0  0  0  0  0
    2.0014    4.7883    4.5645 H   0  0  0  0  0  0  0  0  0  0  0  0
    0.3595    5.5465    4.7933 H   0  0  0  0  0  0  0  0  0  0  0  0
    2.0664    3.5439    2.5379 H   0  0  0  0  0  0  0  0  0  0  0  0
   -4.5034   -0.4060    4.1993 H   0  0  0  0  0  0  0  0  0  0  0  0
   -7.7208   -0.6753    2.6318 H   0  0  0  0  0  0  0  0  0  0  0  0
   -7.9713   -5.3539    0.0519 H   0  0  0  0  0  0  0  0  0  0  0  0
   -3.0766   -3.9985   -0.4034 H   0  0  0  0  0  0  0  0  0  0  0  0
   -4.0512   -6.2250   -2.8177 H   0  0  0  0  0  0  0  0  0  0  0  0
   -2.5082   -7.8029   -1.4714 H   0  0  0  0  0  0  0  0  0  0  0  0
   -3.2300   -7.8036    1.0932 H   0  0  0  0  0  0  0  0  0  0  0  0
   -5.7284   -8.5272    1.2429 H   0  0  0  0  0  0  0  0  0  0  0  0
   -6.6049   -8.9884   -1.2398 H   0  0  0  0  0  0  0  0  0  0  0  0
   -4.5033   -8.8787   -2.8904 H   0  0  0  0  0  0  0  0  0  0  0  0
   -4.1216   -9.8896   -1.4180 H   0  0  0  0  0  0  0  0  0  0  0  0
   -6.3124   -6.8582   -2.6584 H   0  0  0  0  0  0  0  0  0  0  0  0
  1  2  2  3
  2  3  1  0
  3  4  2  0
  3  5  1  0
  5  6  2  0
  6  7  1  0
  6  8  1  0
  8  9  2  0
  9 10  1  0
 10 11  2  0
 11 12  1  0
 12 13  2  3
 13 14  1  0
 14 15  3  0
 13 16  1  0
 16 17  3  0
  1 18  1  0
 18 19  1  0
 19 20  1  0
 20 21  1  0
 21 22  2  0
 22 23  1  0
 23 24  1  0
 24 25  1  0
 23 26  1  0
 26 27  2  0
 27 28  1  0
 28 29  2  0
 29 30  1  0
 30 31  1  0
 29 32  1  0
 32 33  2  0
 23 34  1  0
 34 35  2  0
 35 36  1  0
 36 37  2  0
 37 38  1  0
 38 39  1  0
 37 40  1  0
 40 41  2  0
 22 42  1  0
 42 43  2  0
 43 44  1  0
 44 45  1  0
 43 46  1  0
 46 47  2  0
 47 48  1  0
 48 49  1  0
 49 50  1  0
 50 51  1  0
 51 52  2  0
 52 53  1  0
 53 54  1  0
 54 55  2  0
 55 56  1  0
 56 57  2  0
 57 58  1  0
 58 59  1  0
 57 60  1  0
 60 61  2  0
 53 62  1  0
 62 63  2  0
 63 64  1  0
 64 65  2  0
 65 66  1  0
 66 67  1  0
 65 68  1  0
 68 69  2  0
 53 70  1  0
 70 71  1  0
 71 72  1  0
 72 73  1  0
 73 74  1  0
 72 75  2  0
 75 76  1  0
 76 77  2  0
 77 78  1  0
 52 79  1  0
 79 80  2  0
 80 81  1  0
 80 82  1  0
 82 83  2  3
 83 84  1  0
 84 85  2  0
 84 86  1  0
 86 87  2  0
 87 88  1  0
 88 89  2  0
 89 90  1  0
 90 91  2  0
 91 92  1  0
 92 93  2  3
 93 94  1  0
 94 95  3  0
 93 96  1  0
 96 97  3  0
 89 98  1  0
 98 99  1  0
 99100  1  0
100101  2  0
101102  1  0
102103  1  0
102104  1  0
 12  2  1  0
 25 18  2  0
 33 26  1  0
 41 34  1  0
 77 42  1  0
 92 83  1  0
104 98  1  0
 11  5  1  0
 24 20  2  0
 76 47  1  0
 91 86  1  0
103 99  1  0
 78 21  1  0
104 88  1  0
 71 48  2  0
 70 50  2  0
 81 51  1  0
 61 54  1  0
 69 62  1  0
  1105  1  0
  8106  1  0
  9107  1  0
 10108  1  0
 25109  1  0
 27110  1  0
 28111  1  0
 30112  1  0
 30113  1  0
 31114  1  0
 31115  1  0
 31116  1  0
 32117  1  0
 33118  1  0
 35119  1  0
 36120  1  0
 38121  1  0
 38122  1  0
 39123  1  0
 39124  1  0
 39125  1  0
 40126  1  0
 41127  1  0
 44128  1  0
 44129  1  0
 45130  1  0
 45131  1  0
 45132  1  0
 46133  1  0
 55134  1  0
 56135  1  0
 58136  1  0
 58137  1  0
 59138  1  0
 59139  1  0
 59140  1  0
 60141  1  0
 61142  1  0
 63143  1  0
 64144  1  0
 66145  1  0
 66146  1  0
 67147  1  0
 67148  1  0
 67149  1  0
 68150  1  0
 69151  1  0
 73152  1  0
 73153  1  0
 74154  1  0
 74155  1  0
 74156  1  0
 75157  1  0
 79158  1  0
 82159  1  0
 87160  1  0
 90161  1  0
 98162  1  0
 99163  1  0
100164  1  0
101165  1  0
102166  1  0
103167  1  0
103168  1  0
104169  1  0
M  END

