
     RDKit          3D

103114  0  0  0  0  0  0  0  0999 V2000
   -1.6174    6.0936    2.7021 C   0  0  0  0  0  0  0  0  0  0  0  0
   -2.8806    5.6652    2.8362 C   0  0  0  0  0  0  0  0  0  0  0  0
   -3.3180    4.2668    3.0070 C   0  0  0  0  0  0  0  0  0  0  0  0
   -2.5369    3.2705    2.8738 O   0  0  0  0  0  0  0  0  0  0  0  0
   -4.7096    4.1956    3.3385 C   0  0  0  0  0  0  0  0  0  0  0  0
   -5.5205    3.0907    3.5964 C   0  0  0  0  0  0  0  0  0  0  0  0
   -6.8595    3.3231    3.9139 C   0  0  0  0  0  0  0  0  0  0  0  0
   -7.6937    2.2777    4.1716 F   0  0  0  0  0  0  0  0  0  0  0  0
   -7.3449    4.5886    3.9719 C   0  0  0  0  0  0  0  0  0  0  0  0
   -6.5068    5.6607    3.7167 C   0  0  0  0  0  0  0  0  0  0  0  0
   -5.1714    5.4412    3.3951 C   0  0  0  0  0  0  0  0  0  0  0  0
   -4.0705    6.4764    3.0826 C   0  0  0  0  0  0  0  0  0  0  0  0
   -4.3282    7.6572    3.1495 C   0  0  0  0  0  0  0  0  0  0  0  0
   -4.7453    8.9349    3.2511 C   0  0  0  0  0  0  0  0  0  0  0  0
   -5.1148   10.0839    3.3561 N   0  0  0  0  0  0  0  0  0  0  0  0
   -3.7179    7.9877    1.5072 C   0  0  0  0  0  0  0  0  0  0  0  0
   -3.3180    8.1988    0.4859 N   0  0  0  0  0  0  0  0  0  0  0  0
   -0.6025    5.0249    2.7588 C   0  0  0  0  0  0  0  0  0  0  0  0
   -0.2007    4.4165    3.9362 C   0  0  0  0  0  0  0  0  0  0  0  0
   -0.6508    4.9724    5.2508 C   0  0  0  0  0  0  0  0  0  0  0  0
    0.1455    6.2104    5.5175 C   0  0  0  0  0  0  0  0  0  0  0  0
    0.5507    3.3518    3.7463 C   0  0  0  0  0  0  0  0  0  0  0  0
    1.2481    1.8765    5.0451 Se  0  0  0  0  0  2  0  0  0  0  0  0
    1.8825    0.9413    3.5233 C   0  0  0  0  0  0  0  0  0  0  0  0
    2.4254   -0.3089    3.2293 C   0  0  0  0  0  0  0  0  0  0  0  0
    2.7823   -1.3845    4.0353 C   0  0  0  0  0  0  0  0  0  0  0  0
    3.1614   -2.5373    3.4582 C   0  0  0  0  0  0  0  0  0  0  0  0
    3.4877   -3.5492    4.2768 N   0  0  0  0  0  0  0  0  0  0  0  0
    3.2744   -2.9197    5.8155 S   0  0  0  0  0  0  0  0  0  0  0  0
    2.7710   -1.3818    5.3878 N   0  0  0  0  0  0  0  0  0  0  0  0
    3.1522   -2.6020    2.0631 C   0  0  0  0  0  0  0  0  0  0  0  0
    3.2261   -3.6556    1.2043 C   0  0  0  0  0  0  0  0  0  0  0  0
    3.4646   -5.5706    1.1103 Se  0  0  0  0  0  2  0  0  0  0  0  0
    3.0786   -5.5622   -0.8569 C   0  0  0  0  0  0  0  0  0  0  0  0
    2.9193   -6.5027   -1.7697 C   0  0  0  0  0  0  0  0  0  0  0  0
    3.0621   -7.9895   -1.5204 C   0  0  0  0  0  0  0  0  0  0  0  0
    4.4884   -8.3125   -1.2876 C   0  0  0  0  0  0  0  0  0  0  0  0
    2.5200   -6.0689   -2.9659 C   0  0  0  0  0  0  0  0  0  0  0  0
    2.4147   -4.3427   -2.6996 S   0  0  0  0  0  0  0  0  0  0  0  0
    2.8862   -4.2878   -1.0066 C   0  0  0  0  0  0  0  0  0  0  0  0
    2.9448   -3.3395   -0.0645 C   0  0  0  0  0  0  0  0  0  0  0  0
    2.6629   -1.9393    0.0128 N   0  0  0  0  0  0  0  0  0  0  0  0
    2.7993   -1.5369    1.2531 C   0  0  0  0  0  0  0  0  0  0  0  0
    2.4351   -0.3060    1.8585 C   0  0  0  0  0  0  0  0  0  0  0  0
    1.9791    0.8411    1.3871 N   0  0  0  0  0  0  0  0  0  0  0  0
    1.5801    1.6766    2.4329 C   0  0  0  0  0  0  0  0  0  0  0  0
    0.9129    2.8775    2.6081 C   0  0  0  0  0  0  0  0  0  0  0  0
    0.0977    4.0894    1.5546 S   0  0  0  0  0  0  0  0  0  0  0  0
    2.2559    1.4232    0.0732 C   0  0  0  0  0  0  0  0  0  0  0  0
    3.2148    2.6718    0.2509 C   0  0  0  0  0  0  0  0  0  0  0  0
    2.0327   -1.3004   -1.1200 C   0  0  0  0  0  0  0  0  0  0  0  0
    3.0389   -0.9147   -2.1508 C   0  0  0  0  0  0  0  0  0  0  0  0
    2.0684   -6.6160   -4.2798 C   0  0  0  0  0  0  0  0  0  0  0  0
    0.8060   -6.1743   -4.6006 C   0  0  0  0  0  0  0  0  0  0  0  0
   -0.0081   -5.3080   -3.7236 C   0  0  0  0  0  0  0  0  0  0  0  0
    0.1983   -5.0197   -2.5032 O   0  0  0  0  0  0  0  0  0  0  0  0
   -1.1473   -4.8016   -4.4693 C   0  0  0  0  0  0  0  0  0  0  0  0
   -2.1137   -3.8602   -4.1045 C   0  0  0  0  0  0  0  0  0  0  0  0
   -3.0546   -3.3941   -5.0112 C   0  0  0  0  0  0  0  0  0  0  0  0
   -3.9553   -2.4714   -4.6624 O   0  0  0  0  0  0  0  0  0  0  0  0
   -5.0092   -2.3380   -3.8584 C   0  0  0  0  0  0  0  0  0  0  0  0
   -5.3661   -3.2863   -3.1333 O   0  0  0  0  0  0  0  0  0  0  0  0
   -5.8001   -1.0443   -3.8035 C   0  0  0  0  0  0  0  0  0  0  0  0
   -2.9824   -3.9189   -6.2929 C   0  0  0  0  0  0  0  0  0  0  0  0
   -1.9954   -4.8727   -6.6384 C   0  0  0  0  0  0  0  0  0  0  0  0
   -1.0858   -5.3123   -5.7394 C   0  0  0  0  0  0  0  0  0  0  0  0
    0.1427   -6.1968   -5.8603 C   0  0  0  0  0  0  0  0  0  0  0  0
    0.5554   -6.6229   -7.0267 C   0  0  0  0  0  0  0  0  0  0  0  0
    1.6201   -7.1294   -7.6119 C   0  0  0  0  0  0  0  0  0  0  0  0
    2.5612   -7.5655   -8.1197 N   0  0  0  0  0  0  0  0  0  0  0  0
   -0.8156   -7.0893   -7.8212 C   0  0  0  0  0  0  0  0  0  0  0  0
   -1.6361   -7.3671   -8.3161 N   0  0  0  0  0  0  0  0  0  0  0  0
   -1.4080    7.1049    2.5627 H   0  0  0  0  0  0  0  0  0  0  0  0
   -5.1055    2.0946    3.5315 H   0  0  0  0  0  0  0  0  0  0  0  0
   -8.3662    4.7811    4.2314 H   0  0  0  0  0  0  0  0  0  0  0  0
   -6.8820    6.6637    3.7610 H   0  0  0  0  0  0  0  0  0  0  0  0
   -1.7548    5.1579    5.2544 H   0  0  0  0  0  0  0  0  0  0  0  0
   -0.4805    4.2177    6.0605 H   0  0  0  0  0  0  0  0  0  0  0  0
   -0.3467    6.8330    6.2715 H   0  0  0  0  0  0  0  0  0  0  0  0
    0.3723    6.7783    4.5756 H   0  0  0  0  0  0  0  0  0  0  0  0
    1.1332    5.8750    5.9629 H   0  0  0  0  0  0  0  0  0  0  0  0
    2.5659   -8.5796   -2.2814 H   0  0  0  0  0  0  0  0  0  0  0  0
    2.5071   -8.2122   -0.5458 H   0  0  0  0  0  0  0  0  0  0  0  0
    4.6095   -9.4066   -1.3016 H   0  0  0  0  0  0  0  0  0  0  0  0
    5.1820   -7.8808   -2.0164 H   0  0  0  0  0  0  0  0  0  0  0  0
    4.8252   -7.9834   -0.2500 H   0  0  0  0  0  0  0  0  0  0  0  0
    1.5074    1.7181   -0.5596 H   0  0  0  0  0  0  0  0  0  0  0  0
    3.1058    0.7755   -0.3010 H   0  0  0  0  0  0  0  0  0  0  0  0
    2.8249    3.3898    0.9289 H   0  0  0  0  0  0  0  0  0  0  0  0
    3.6385    2.9576   -0.7116 H   0  0  0  0  0  0  0  0  0  0  0  0
    4.1269    2.2729    0.8118 H   0  0  0  0  0  0  0  0  0  0  0  0
    1.4019   -2.1006   -1.7147 H   0  0  0  0  0  0  0  0  0  0  0  0
    1.3408   -0.5298   -0.9193 H   0  0  0  0  0  0  0  0  0  0  0  0
    3.0890   -1.6165   -3.0195 H   0  0  0  0  0  0  0  0  0  0  0  0
    4.0837   -0.9667   -1.7314 H   0  0  0  0  0  0  0  0  0  0  0  0
    2.9583    0.1095   -2.5537 H   0  0  0  0  0  0  0  0  0  0  0  0
    2.5896   -7.2205   -4.9092 H   0  0  0  0  0  0  0  0  0  0  0  0
   -2.1487   -3.4770   -3.0982 H   0  0  0  0  0  0  0  0  0  0  0  0
   -6.6696   -1.2194   -3.1634 H   0  0  0  0  0  0  0  0  0  0  0  0
   -5.1682   -0.2193   -3.4019 H   0  0  0  0  0  0  0  0  0  0  0  0
   -6.1174   -0.7959   -4.8425 H   0  0  0  0  0  0  0  0  0  0  0  0
   -3.7101   -3.5836   -7.0033 H   0  0  0  0  0  0  0  0  0  0  0  0
   -2.0521   -5.1416   -7.6636 H   0  0  0  0  0  0  0  0  0  0  0  0
  1  2  2  3
  2  3  1  0
  3  4  2  0
  3  5  1  0
  5  6  2  0
  6  7  1  0
  7  8  1  0
  7  9  2  0
  9 10  1  0
 10 11  2  0
 11 12  1  0
 12 13  2  3
 13 14  1  0
 14 15  3  0
 13 16  1  0
 16 17  3  0
  1 18  1  0
 18 19  2  0
 19 20  1  0
 20 21  1  0
 19 22  1  0
 22 23  1  0
 23 24  1  0
 24 25  1  0
 25 26  1  0
 26 27  1  0
 27 28  2  0
 28 29  1  0
 29 30  1  0
 27 31  1  0
 31 32  1  0
 32 33  1  0
 33 34  1  0
 34 35  1  0
 35 36  1  0
 36 37  1  0
 35 38  2  0
 38 39  1  0
 39 40  1  0
 40 41  1  0
 41 42  1  0
 42 43  1  0
 43 44  1  0
 44 45  1  0
 45 46  1  0
 46 47  1  0
 47 48  1  0
 45 49  1  0
 49 50  1  0
 42 51  1  0
 51 52  1  0
 38 53  1  0
 53 54  2  3
 54 55  1  0
 55 56  2  0
 55 57  1  0
 57 58  2  0
 58 59  1  0
 59 60  1  0
 60 61  1  0
 61 62  2  0
 61 63  1  0
 59 64  2  0
 64 65  1  0
 65 66  2  0
 66 67  1  0
 67 68  2  3
 68 69  1  0
 69 70  3  0
 68 71  1  0
 71 72  3  0
 12  2  1  0
 48 18  1  0
 67 54  1  0
 11  5  1  0
 47 22  2  0
 66 57  1  0
 46 24  2  0
 44 25  2  0
 30 26  2  0
 43 31  2  0
 41 32  2  0
 40 34  2  0
  1 73  1  0
  6 74  1  0
  9 75  1  0
 10 76  1  0
 20 77  1  0
 20 78  1  0
 21 79  1  0
 21 80  1  0
 21 81  1  0
 36 82  1  0
 36 83  1  0
 37 84  1  0
 37 85  1  0
 37 86  1  0
 49 87  1  0
 49 88  1  0
 50 89  1  0
 50 90  1  0
 50 91  1  0
 51 92  1  0
 51 93  1  0
 52 94  1  0
 52 95  1  0
 52 96  1  0
 53 97  1  0
 58 98  1  0
 63 99  1  0
 63100  1  0
 63101  1  0
 64102  1  0
 65103  1  0
M  END

