
     RDKit          3D

 91102  0  0  0  0  0  0  0  0999 V2000
    2.5885    2.9879    6.2284 C   0  0  0  0  0  0  0  0  0  0  0  0
    2.9216    4.2840    6.0552 C   0  0  0  0  0  0  0  0  0  0  0  0
    2.2900    5.3636    6.8104 C   0  0  0  0  0  0  0  0  0  0  0  0
    1.5582    5.2283    7.8299 O   0  0  0  0  0  0  0  0  0  0  0  0
    2.5215    6.6102    6.1135 C   0  0  0  0  0  0  0  0  0  0  0  0
    2.0560    7.8827    6.4508 C   0  0  0  0  0  0  0  0  0  0  0  0
    2.3952    8.9508    5.6128 C   0  0  0  0  0  0  0  0  0  0  0  0
    1.9664   10.2018    5.9096 F   0  0  0  0  0  0  0  0  0  0  0  0
    3.1806    8.7288    4.4649 C   0  0  0  0  0  0  0  0  0  0  0  0
    3.6475    7.4371    4.1485 C   0  0  0  0  0  0  0  0  0  0  0  0
    3.3127    6.3755    4.9970 C   0  0  0  0  0  0  0  0  0  0  0  0
    3.7043    4.9351    4.9527 C   0  0  0  0  0  0  0  0  0  0  0  0
    4.8285    4.4387    4.3617 C   0  0  0  0  0  0  0  0  0  0  0  0
    5.4274    3.1992    4.7924 C   0  0  0  0  0  0  0  0  0  0  0  0
    5.9138    2.2101    5.1295 N   0  0  0  0  0  0  0  0  0  0  0  0
    5.5846    5.1687    3.3787 C   0  0  0  0  0  0  0  0  0  0  0  0
    6.2069    5.7395    2.5906 N   0  0  0  0  0  0  0  0  0  0  0  0
    2.7343    1.9693    5.1638 C   0  0  0  0  0  0  0  0  0  0  0  0
    3.2587    0.6657    5.3194 C   0  0  0  0  0  0  0  0  0  0  0  0
    3.6930    0.0651    6.6281 C   0  0  0  0  0  0  0  0  0  0  0  0
    2.4948   -0.5376    7.3504 C   0  0  0  0  0  0  0  0  0  0  0  0
    3.2579   -0.0211    4.1041 C   0  0  0  0  0  0  0  0  0  0  0  0
    2.6999    0.6691    3.0525 C   0  0  0  0  0  0  0  0  0  0  0  0
    2.2179    2.1958    3.5490 S   0  0  0  0  0  0  0  0  0  0  0  0
    2.6559   -0.0683    1.8795 C   0  0  0  0  0  0  0  0  0  0  0  0
    3.2091   -1.3007    2.0485 C   0  0  0  0  0  0  0  0  0  0  0  0
    3.6945   -1.6005    3.6466 S   0  0  0  0  0  0  0  0  0  0  0  0
    2.8387   -2.0554    0.9735 C   0  0  0  0  0  0  0  0  0  0  0  0
    2.9132   -3.4378    0.7519 C   0  0  0  0  0  0  0  0  0  0  0  0
    3.5899   -4.3020    1.5522 N   0  0  0  0  0  0  0  0  0  0  0  0
    3.2648   -5.7277    0.7699 S   0  0  0  0  0  0  0  0  0  0  0  0
    2.3141   -5.3430   -0.5278 N   0  0  0  0  0  0  0  0  0  0  0  0
    2.2265   -3.9982   -0.3601 C   0  0  0  0  0  0  0  0  0  0  0  0
    1.5052   -3.1443   -1.1927 C   0  0  0  0  0  0  0  0  0  0  0  0
    0.7588   -3.3789   -2.3044 C   0  0  0  0  0  0  0  0  0  0  0  0
    0.2887   -4.6693   -3.3054 S   0  0  0  0  0  0  0  0  0  0  0  0
   -0.5823   -3.5868   -4.3073 C   0  0  0  0  0  0  0  0  0  0  0  0
   -1.4336   -3.7875   -5.3880 C   0  0  0  0  0  0  0  0  0  0  0  0
   -2.0975   -2.5986   -5.7233 C   0  0  0  0  0  0  0  0  0  0  0  0
   -1.5578   -1.3073   -4.7371 S   0  0  0  0  0  0  0  0  0  0  0  0
   -0.5065   -2.2909   -3.8576 C   0  0  0  0  0  0  0  0  0  0  0  0
    0.2917   -2.1791   -2.7278 C   0  0  0  0  0  0  0  0  0  0  0  0
    0.7533   -1.1386   -1.9958 N   0  0  0  0  0  0  0  0  0  0  0  0
    0.9979    0.1996   -2.5512 C   0  0  0  0  0  0  0  0  0  0  0  0
    1.8288    0.1387   -3.8374 C   0  0  0  0  0  0  0  0  0  0  0  0
    1.4421   -1.7553   -0.9876 C   0  0  0  0  0  0  0  0  0  0  0  0
    2.0672   -1.2017    0.1578 C   0  0  0  0  0  0  0  0  0  0  0  0
    1.8857    0.0203    0.7629 N   0  0  0  0  0  0  0  0  0  0  0  0
    0.7280    0.9091    0.6350 C   0  0  0  0  0  0  0  0  0  0  0  0
    1.1549    2.3329    0.2566 C   0  0  0  0  0  0  0  0  0  0  0  0
   -3.0235   -2.4925   -6.8556 C   0  0  0  0  0  0  0  0  0  0  0  0
   -4.3065   -2.0888   -6.8405 C   0  0  0  0  0  0  0  0  0  0  0  0
   -5.0119   -1.7626   -8.0825 C   0  0  0  0  0  0  0  0  0  0  0  0
   -4.5797   -1.9693   -9.2490 O   0  0  0  0  0  0  0  0  0  0  0  0
   -6.2494   -1.0787   -7.7519 C   0  0  0  0  0  0  0  0  0  0  0  0
   -7.1870   -0.5217   -8.6267 C   0  0  0  0  0  0  0  0  0  0  0  0
   -8.2871    0.1519   -8.0842 C   0  0  0  0  0  0  0  0  0  0  0  0
   -9.2120    0.6940   -8.9133 F   0  0  0  0  0  0  0  0  0  0  0  0
   -8.4181    0.2871   -6.6879 C   0  0  0  0  0  0  0  0  0  0  0  0
   -9.4735    0.9830   -6.1735 F   0  0  0  0  0  0  0  0  0  0  0  0
   -7.4577   -0.2740   -5.8274 C   0  0  0  0  0  0  0  0  0  0  0  0
   -6.3777   -0.9906   -6.3765 C   0  0  0  0  0  0  0  0  0  0  0  0
   -5.2476   -1.7319   -5.7183 C   0  0  0  0  0  0  0  0  0  0  0  0
   -5.3055   -2.2514   -4.4568 C   0  0  0  0  0  0  0  0  0  0  0  0
   -4.3502   -3.1854   -3.9162 C   0  0  0  0  0  0  0  0  0  0  0  0
   -3.6191   -3.9381   -3.4285 N   0  0  0  0  0  0  0  0  0  0  0  0
   -6.4580   -2.0622   -3.6000 C   0  0  0  0  0  0  0  0  0  0  0  0
   -7.3873   -1.9410   -2.9051 N   0  0  0  0  0  0  0  0  0  0  0  0
    2.0358    2.7260    7.1258 H   0  0  0  0  0  0  0  0  0  0  0  0
    1.4691    8.0263    7.3553 H   0  0  0  0  0  0  0  0  0  0  0  0
    3.4230    9.5572    3.8177 H   0  0  0  0  0  0  0  0  0  0  0  0
    4.2167    7.2969    3.2417 H   0  0  0  0  0  0  0  0  0  0  0  0
    4.1698    0.8455    7.2624 H   0  0  0  0  0  0  0  0  0  0  0  0
    4.4413   -0.7339    6.4447 H   0  0  0  0  0  0  0  0  0  0  0  0
    1.7517    0.2568    7.5817 H   0  0  0  0  0  0  0  0  0  0  0  0
    2.0167   -1.3312    6.7362 H   0  0  0  0  0  0  0  0  0  0  0  0
    2.8272   -1.0051    8.2992 H   0  0  0  0  0  0  0  0  0  0  0  0
   -1.6067   -4.7545   -5.8550 H   0  0  0  0  0  0  0  0  0  0  0  0
    0.0326    0.7206   -2.7323 H   0  0  0  0  0  0  0  0  0  0  0  0
    1.5981    0.7978   -1.8513 H   0  0  0  0  0  0  0  0  0  0  0  0
    1.1942   -0.1611   -4.6909 H   0  0  0  0  0  0  0  0  0  0  0  0
    2.6480   -0.6006   -3.7391 H   0  0  0  0  0  0  0  0  0  0  0  0
    2.2707    1.1300   -4.0370 H   0  0  0  0  0  0  0  0  0  0  0  0
    0.0090    0.4994   -0.1014 H   0  0  0  0  0  0  0  0  0  0  0  0
    0.1765    0.9330    1.6000 H   0  0  0  0  0  0  0  0  0  0  0  0
    0.5458    2.6850   -0.5969 H   0  0  0  0  0  0  0  0  0  0  0  0
    2.2278    2.3806   -0.0322 H   0  0  0  0  0  0  0  0  0  0  0  0
    0.9510    3.0297    1.1033 H   0  0  0  0  0  0  0  0  0  0  0  0
   -2.5758   -2.7408   -7.8238 H   0  0  0  0  0  0  0  0  0  0  0  0
   -7.0755   -0.5960   -9.7023 H   0  0  0  0  0  0  0  0  0  0  0  0
   -7.5456   -0.1010   -4.7714 H   0  0  0  0  0  0  0  0  0  0  0  0
  1  2  2  3
  2  3  1  0
  3  4  2  0
  3  5  1  0
  5  6  2  0
  6  7  1  0
  7  8  1  0
  7  9  2  0
  9 10  1  0
 10 11  2  0
 11 12  1  0
 12 13  2  3
 13 14  1  0
 14 15  3  0
 13 16  1  0
 16 17  3  0
  1 18  1  0
 18 19  2  0
 19 20  1  0
 20 21  1  0
 19 22  1  0
 22 23  2  0
 23 24  1  0
 23 25  1  0
 25 26  2  0
 26 27  1  0
 26 28  1  0
 28 29  1  0
 29 30  2  0
 30 31  1  0
 31 32  1  0
 32 33  2  0
 33 34  1  0
 34 35  1  0
 35 36  1  0
 36 37  1  0
 37 38  1  0
 38 39  2  0
 39 40  1  0
 40 41  1  0
 41 42  1  0
 42 43  1  0
 43 44  1  0
 44 45  1  0
 43 46  1  0
 46 47  1  0
 47 48  1  0
 48 49  1  0
 49 50  1  0
 39 51  1  0
 51 52  2  3
 52 53  1  0
 53 54  2  0
 53 55  1  0
 55 56  2  0
 56 57  1  0
 57 58  1  0
 57 59  2  0
 59 60  1  0
 59 61  1  0
 61 62  2  0
 62 63  1  0
 63 64  2  3
 64 65  1  0
 65 66  3  0
 64 67  1  0
 67 68  3  0
 12  2  1  0
 24 18  1  0
 48 25  1  0
 63 52  1  0
 11  5  1  0
 27 22  1  0
 47 28  2  0
 62 55  1  0
 33 29  1  0
 46 34  2  0
 42 35  2  0
 41 37  2  0
  1 69  1  0
  6 70  1  0
  9 71  1  0
 10 72  1  0
 20 73  1  0
 20 74  1  0
 21 75  1  0
 21 76  1  0
 21 77  1  0
 38 78  1  0
 44 79  1  0
 44 80  1  0
 45 81  1  0
 45 82  1  0
 45 83  1  0
 49 84  1  0
 49 85  1  0
 50 86  1  0
 50 87  1  0
 50 88  1  0
 51 89  1  0
 56 90  1  0
 61 91  1  0
M  END

