
     RDKit          3D

110124  0  0  0  0  0  0  0  0999 V2000
    0.7068   -7.8103   -2.8902 C   0  0  0  0  0  0  0  0  0  0  0  0
    1.7939   -7.1155   -3.3347 C   0  0  0  0  0  0  0  0  0  0  0  0
    2.2970   -5.8720   -2.6270 C   0  0  0  0  0  0  0  0  0  0  0  0
    1.9236   -5.2990   -1.6352 O   0  0  0  0  0  0  0  0  0  0  0  0
    3.4229   -5.3898   -3.4417 C   0  0  0  0  0  0  0  0  0  0  0  0
    4.2509   -4.2933   -3.3267 C   0  0  0  0  0  0  0  0  0  0  0  0
    5.2689   -3.9389   -4.1120 C   0  0  0  0  0  0  0  0  0  0  0  0
    6.0825   -2.8564   -3.9690 F   0  0  0  0  0  0  0  0  0  0  0  0
    5.5240   -4.8168   -5.2429 C   0  0  0  0  0  0  0  0  0  0  0  0
    4.6769   -5.9136   -5.3764 C   0  0  0  0  0  0  0  0  0  0  0  0
    3.6534   -6.2168   -4.5474 C   0  0  0  0  0  0  0  0  0  0  0  0
    2.6352   -7.2827   -4.4477 C   0  0  0  0  0  0  0  0  0  0  0  0
    2.7278   -8.3691   -5.3436 C   0  0  0  0  0  0  0  0  0  0  0  0
    3.3994   -8.4601   -6.2305 C   0  0  0  0  0  0  0  0  0  0  0  0
    4.3438   -8.5901   -7.4340 N   0  0  0  0  0  0  0  0  0  0  0  0
    1.8145   -9.5431   -4.9351 C   0  0  0  0  0  0  0  0  0  0  0  0
    1.1131  -10.4674   -4.6181 N   0  0  0  0  0  0  0  0  0  0  0  0
    0.1521   -7.1421   -1.6455 C   0  0  0  0  0  0  0  0  0  0  0  0
    0.0415   -7.6445   -0.3982 C   0  0  0  0  0  0  0  0  0  0  0  0
    0.0622   -9.1643   -0.1713 C   0  0  0  0  0  0  0  0  0  0  0  0
   -1.3938   -9.6508   -0.4916 C   0  0  0  0  0  0  0  0  0  0  0  0
   -0.2243   -6.7747    0.6344 C   0  0  0  0  0  0  0  0  0  0  0  0
   -0.2197   -6.7418    2.3684 S   0  0  0  0  0  0  0  0  0  0  0  0
   -0.3956   -5.0374    2.5888 C   0  0  0  0  0  0  0  0  0  0  0  0
   -0.3905   -3.9719    3.4904 C   0  0  0  0  0  0  0  0  0  0  0  0
   -0.1072   -4.0464    4.8552 C   0  0  0  0  0  0  0  0  0  0  0  0
    0.1253   -2.9047    5.5051 C   0  0  0  0  0  0  0  0  0  0  0  0
    0.4145   -2.9195    6.8050 N   0  0  0  0  0  0  0  0  0  0  0  0
    0.3867   -4.6267    7.3190 Se  0  0  0  0  0  2  0  0  0  0  0  0
   -0.0592   -5.2229    5.5258 N   0  0  0  0  0  0  0  0  0  0  0  0
    0.0498   -1.7143    4.7609 C   0  0  0  0  0  0  0  0  0  0  0  0
    0.2002   -0.4033    5.1568 C   0  0  0  0  0  0  0  0  0  0  0  0
    0.6389    0.6640    6.3939 S   0  0  0  0  0  0  0  0  0  0  0  0
    0.4850    2.1804    5.5461 C   0  0  0  0  0  0  0  0  0  0  0  0
    0.5413    3.5406    5.7875 C   0  0  0  0  0  0  0  0  0  0  0  0
    1.1097    4.0412    7.1191 C   0  0  0  0  0  0  0  0  0  0  0  0
    2.6187    3.9910    7.0299 C   0  0  0  0  0  0  0  0  0  0  0  0
    0.1841    4.3452    4.8151 C   0  0  0  0  0  0  0  0  0  0  0  0
   -0.2085    3.2889    3.5443 S   0  0  0  0  0  0  0  0  0  0  0  0
    0.0929    1.7697    4.3457 C   0  0  0  0  0  0  0  0  0  0  0  0
   -0.0566    0.4182    4.0987 C   0  0  0  0  0  0  0  0  0  0  0  0
   -0.3518   -0.4062    2.9986 N   0  0  0  0  0  0  0  0  0  0  0  0
   -0.2763   -1.6434    3.3943 C   0  0  0  0  0  0  0  0  0  0  0  0
   -0.4725   -2.8545    2.7412 C   0  0  0  0  0  0  0  0  0  0  0  0
   -0.5208   -3.1933    1.4061 N   0  0  0  0  0  0  0  0  0  0  0  0
   -0.4701   -4.5576    1.3269 C   0  0  0  0  0  0  0  0  0  0  0  0
   -0.3780   -5.4942    0.3356 C   0  0  0  0  0  0  0  0  0  0  0  0
   -0.1476   -5.5147   -1.4440 S   0  0  0  0  0  0  0  0  0  0  0  0
   -0.5016   -2.3665    0.2400 C   0  0  0  0  0  0  0  0  0  0  0  0
   -1.8136   -2.1057   -0.3465 C   0  0  0  0  0  0  0  0  0  0  0  0
   -0.8955    0.1584    1.7826 C   0  0  0  0  0  0  0  0  0  0  0  0
   -2.4207    0.2263    1.8884 C   0  0  0  0  0  0  0  0  0  0  0  0
   -0.1567    5.8018    4.8300 C   0  0  0  0  0  0  0  0  0  0  0  0
   -0.1667    6.4701    3.6697 C   0  0  0  0  0  0  0  0  0  0  0  0
    0.1501    5.9667    2.3771 C   0  0  0  0  0  0  0  0  0  0  0  0
    0.9930    5.0357    2.1054 O   0  0  0  0  0  0  0  0  0  0  0  0
   -0.6000    6.6577    1.3681 C   0  0  0  0  0  0  0  0  0  0  0  0
   -0.6627    6.4339   -0.0297 C   0  0  0  0  0  0  0  0  0  0  0  0
   -1.5361    7.1969   -0.7825 C   0  0  0  0  0  0  0  0  0  0  0  0
   -2.3369    8.1727   -0.1854 C   0  0  0  0  0  0  0  0  0  0  0  0
   -2.2376    8.3666    1.1950 C   0  0  0  0  0  0  0  0  0  0  0  0
   -1.3738    7.5891    1.8709 C   0  0  0  0  0  0  0  0  0  0  0  0
   -1.1650    7.5643    3.4457 C   0  0  0  0  0  0  0  0  0  0  0  0
   -1.7482    8.3687    4.0995 C   0  0  0  0  0  0  0  0  0  0  0  0
   -2.4262    9.3076    4.8756 C   0  0  0  0  0  0  0  0  0  0  0  0
   -3.0362   10.1332    5.5524 N   0  0  0  0  0  0  0  0  0  0  0  0
   -0.5411    8.3946    5.2562 C   0  0  0  0  0  0  0  0  0  0  0  0
    0.5118    8.4201    6.2935 N   0  0  0  0  0  0  0  0  0  0  0  0
   -2.9720    8.4599   -1.4615 C   0  0  0  0  0  0  0  0  0  0  0  0
   -2.5231    9.7228   -2.1527 C   0  0  0  0  0  0  0  0  0  0  0  0
   -2.8728    9.5663   -3.6160 C   0  0  0  0  0  0  0  0  0  0  0  0
   -2.0386    8.6990   -4.1498 C   0  0  0  0  0  0  0  0  0  0  0  0
   -1.1704    8.1863   -3.0458 C   0  0  0  0  0  0  0  0  0  0  0  0
   -1.0194    9.4874   -2.2170 C   0  0  0  0  0  0  0  0  0  0  0  0
   -2.0341    7.4391   -2.1566 C   0  0  0  0  0  0  0  0  0  0  0  0
    0.2421   -8.6081   -3.2519 H   0  0  0  0  0  0  0  0  0  0  0  0
    4.0822   -3.6309   -2.4274 H   0  0  0  0  0  0  0  0  0  0  0  0
    6.3391   -4.5773   -5.8992 H   0  0  0  0  0  0  0  0  0  0  0  0
    4.8993   -6.5171   -6.2139 H   0  0  0  0  0  0  0  0  0  0  0  0
    0.3100   -9.4079    0.8333 H   0  0  0  0  0  0  0  0  0  0  0  0
    0.6814   -9.6866   -0.8494 H   0  0  0  0  0  0  0  0  0  0  0  0
   -1.8580  -10.1105    0.3866 H   0  0  0  0  0  0  0  0  0  0  0  0
   -1.4255  -10.3283   -1.3251 H   0  0  0  0  0  0  0  0  0  0  0  0
   -2.0300   -8.7394   -0.7573 H   0  0  0  0  0  0  0  0  0  0  0  0
    0.7826    3.3582    7.8981 H   0  0  0  0  0  0  0  0  0  0  0  0
    0.8091    5.1175    7.2419 H   0  0  0  0  0  0  0  0  0  0  0  0
    3.1789    4.1379    7.9604 H   0  0  0  0  0  0  0  0  0  0  0  0
    3.0360    4.7125    6.2413 H   0  0  0  0  0  0  0  0  0  0  0  0
    2.9435    2.9888    6.5905 H   0  0  0  0  0  0  0  0  0  0  0  0
    0.2582   -1.6188    0.2119 H   0  0  0  0  0  0  0  0  0  0  0  0
    0.0352   -3.0069   -0.6310 H   0  0  0  0  0  0  0  0  0  0  0  0
   -1.9465   -1.0545   -0.7396 H   0  0  0  0  0  0  0  0  0  0  0  0
   -2.6963   -2.3903    0.3097 H   0  0  0  0  0  0  0  0  0  0  0  0
   -2.0594   -2.7536   -1.2772 H   0  0  0  0  0  0  0  0  0  0  0  0
   -0.6530    1.3162    1.8510 H   0  0  0  0  0  0  0  0  0  0  0  0
   -0.4445    0.0205    0.8272 H   0  0  0  0  0  0  0  0  0  0  0  0
   -2.7294    1.2552    2.2543 H   0  0  0  0  0  0  0  0  0  0  0  0
   -2.9588    0.0535    0.9959 H   0  0  0  0  0  0  0  0  0  0  0  0
   -2.7898   -0.4378    2.7318 H   0  0  0  0  0  0  0  0  0  0  0  0
   -0.3754    6.1826    5.7566 H   0  0  0  0  0  0  0  0  0  0  0  0
   -0.0159    5.6622   -0.4639 H   0  0  0  0  0  0  0  0  0  0  0  0
   -2.8939    9.1291    1.6649 H   0  0  0  0  0  0  0  0  0  0  0  0
   -4.0481    8.2047   -1.5648 H   0  0  0  0  0  0  0  0  0  0  0  0
   -2.8364   10.6332   -1.7009 H   0  0  0  0  0  0  0  0  0  0  0  0
   -3.6641   10.0156   -4.2020 H   0  0  0  0  0  0  0  0  0  0  0  0
   -1.9398    8.3304   -5.1933 H   0  0  0  0  0  0  0  0  0  0  0  0
   -0.2222    7.7642   -3.3875 H   0  0  0  0  0  0  0  0  0  0  0  0
   -0.4802   10.2285   -2.7765 H   0  0  0  0  0  0  0  0  0  0  0  0
   -0.5756    9.2817   -1.2114 H   0  0  0  0  0  0  0  0  0  0  0  0
   -2.6407    6.6076   -2.6071 H   0  0  0  0  0  0  0  0  0  0  0  0
  1  2  2  3
  2  3  1  0
  3  4  2  0
  3  5  1  0
  5  6  2  0
  6  7  1  0
  7  8  1  0
  7  9  2  0
  9 10  1  0
 10 11  2  0
 11 12  1  0
 12 13  2  3
 13 14  1  0
 14 15  3  0
 13 16  1  0
 16 17  3  0
  1 18  1  0
 18 19  2  0
 19 20  1  0
 20 21  1  0
 19 22  1  0
 22 23  1  0
 23 24  1  0
 24 25  1  0
 25 26  1  0
 26 27  1  0
 27 28  2  0
 28 29  1  0
 29 30  1  0
 27 31  1  0
 31 32  1  0
 32 33  1  0
 33 34  1  0
 34 35  1  0
 35 36  1  0
 36 37  1  0
 35 38  2  0
 38 39  1  0
 39 40  1  0
 40 41  1  0
 41 42  1  0
 42 43  1  0
 43 44  1  0
 44 45  1  0
 45 46  1  0
 46 47  1  0
 47 48  1  0
 45 49  1  0
 49 50  1  0
 42 51  1  0
 51 52  1  0
 38 53  1  0
 53 54  2  3
 54 55  1  0
 55 56  2  0
 55 57  1  0
 57 58  2  0
 58 59  1  0
 59 60  2  0
 60 61  1  0
 61 62  2  0
 62 63  1  0
 63 64  2  3
 64 65  1  0
 65 66  3  0
 64 67  1  0
 67 68  3  0
 60 69  1  0
 69 70  1  0
 70 71  1  0
 71 72  2  0
 72 73  1  0
 73 74  1  0
 73 75  1  0
 12  2  1  0
 48 18  1  0
 63 54  1  0
 75 69  1  0
 11  5  1  0
 47 22  2  0
 62 57  1  0
 74 70  1  0
 46 24  2  0
 75 59  1  0
 44 25  2  0
 30 26  2  0
 43 31  2  0
 41 32  2  0
 40 34  2  0
  1 76  1  0
  6 77  1  0
  9 78  1  0
 10 79  1  0
 20 80  1  0
 20 81  1  0
 21 82  1  0
 21 83  1  0
 21 84  1  0
 36 85  1  0
 36 86  1  0
 37 87  1  0
 37 88  1  0
 37 89  1  0
 49 90  1  0
 49 91  1  0
 50 92  1  0
 50 93  1  0
 50 94  1  0
 51 95  1  0
 51 96  1  0
 52 97  1  0
 52 98  1  0
 52 99  1  0
 53100  1  0
 58101  1  0
 61102  1  0
 69103  1  0
 70104  1  0
 71105  1  0
 72106  1  0
 73107  1  0
 74108  1  0
 74109  1  0
 75110  1  0
M  END

