
     RDKit          3D

107120  0  0  0  0  0  0  0  0999 V2000
   -6.8794    2.7272   -1.2196 C   0  0  0  0  0  0  0  0  0  0  0  0
   -7.0540    2.3883   -2.5071 C   0  0  0  0  0  0  0  0  0  0  0  0
   -5.9667    2.0489   -3.4396 C   0  0  0  0  0  0  0  0  0  0  0  0
   -4.7502    2.3605   -3.3200 O   0  0  0  0  0  0  0  0  0  0  0  0
   -6.5299    1.2654   -4.5181 C   0  0  0  0  0  0  0  0  0  0  0  0
   -5.8479    0.6090   -5.5434 C   0  0  0  0  0  0  0  0  0  0  0  0
   -6.5824   -0.1695   -6.4453 C   0  0  0  0  0  0  0  0  0  0  0  0
   -5.9490   -0.8090   -7.4591 F   0  0  0  0  0  0  0  0  0  0  0  0
   -7.9769   -0.2880   -6.2970 C   0  0  0  0  0  0  0  0  0  0  0  0
   -8.6449    0.3598   -5.2429 C   0  0  0  0  0  0  0  0  0  0  0  0
   -7.9019    1.1494   -4.3473 C   0  0  0  0  0  0  0  0  0  0  0  0
   -8.3257    1.9247   -3.1437 C   0  0  0  0  0  0  0  0  0  0  0  0
   -9.5915    2.2512   -2.7765 C   0  0  0  0  0  0  0  0  0  0  0  0
  -10.7625    1.7496   -3.4558 C   0  0  0  0  0  0  0  0  0  0  0  0
  -11.7123    1.3532   -3.9869 N   0  0  0  0  0  0  0  0  0  0  0  0
   -9.8555    3.2259   -1.7473 C   0  0  0  0  0  0  0  0  0  0  0  0
  -10.0746    4.0150   -0.9265 N   0  0  0  0  0  0  0  0  0  0  0  0
   -5.5528    2.8578   -0.6114 C   0  0  0  0  0  0  0  0  0  0  0  0
   -4.7039    4.3370   -0.5007 S   0  0  0  0  0  0  0  0  0  0  0  0
   -3.4323    3.6194    0.3133 C   0  0  0  0  0  0  0  0  0  0  0  0
   -2.1968    3.9331    0.7987 C   0  0  0  0  0  0  0  0  0  0  0  0
   -1.4344    5.1051    0.7783 C   0  0  0  0  0  0  0  0  0  0  0  0
   -0.0937    5.0584    1.2931 C   0  0  0  0  0  0  0  0  0  0  0  0
    0.6177    6.2105    1.2548 N   0  0  0  0  0  0  0  0  0  0  0  0
   -0.5074    7.2051    0.5465 S   0  0  0  0  0  0  0  0  0  0  0  0
   -1.8663    6.2868    0.2806 N   0  0  0  0  0  0  0  0  0  0  0  0
    0.3684    3.8625    1.8585 C   0  0  0  0  0  0  0  0  0  0  0  0
    1.5014    3.5392    2.5562 C   0  0  0  0  0  0  0  0  0  0  0  0
    3.0621    4.1333    2.8567 S   0  0  0  0  0  0  0  0  0  0  0  0
    3.4887    2.6715    3.6440 C   0  0  0  0  0  0  0  0  0  0  0  0
    4.7255    2.0997    3.9600 C   0  0  0  0  0  0  0  0  0  0  0  0
    6.0404    2.8218    3.8426 C   0  0  0  0  0  0  0  0  0  0  0  0
    6.3554    3.5595    5.1368 C   0  0  0  0  0  0  0  0  0  0  0  0
    4.5758    0.7348    4.2857 C   0  0  0  0  0  0  0  0  0  0  0  0
    2.9431    0.2693    4.1242 S   0  0  0  0  0  0  0  0  0  0  0  0
    2.4253    1.8018    3.7014 C   0  0  0  0  0  0  0  0  0  0  0  0
    1.3089    2.2954    3.0586 C   0  0  0  0  0  0  0  0  0  0  0  0
    0.1070    1.7544    2.7393 N   0  0  0  0  0  0  0  0  0  0  0  0
   -0.4394    2.7159    1.9268 C   0  0  0  0  0  0  0  0  0  0  0  0
   -1.6998    2.7292    1.2984 C   0  0  0  0  0  0  0  0  0  0  0  0
   -2.5081    1.6726    0.9834 N   0  0  0  0  0  0  0  0  0  0  0  0
   -3.6105    2.2901    0.4716 C   0  0  0  0  0  0  0  0  0  0  0  0
   -4.8259    1.8015   -0.0255 C   0  0  0  0  0  0  0  0  0  0  0  0
   -5.4040    0.4399    0.2746 C   0  0  0  0  0  0  0  0  0  0  0  0
   -5.3622   -0.4960   -0.9306 C   0  0  0  0  0  0  0  0  0  0  0  0
   -2.0024    0.3722    0.4935 C   0  0  0  0  0  0  0  0  0  0  0  0
   -1.6780    0.4375   -1.0085 C   0  0  0  0  0  0  0  0  0  0  0  0
   -0.6310    0.8484    3.6362 C   0  0  0  0  0  0  0  0  0  0  0  0
   -1.4706    1.6353    4.6467 C   0  0  0  0  0  0  0  0  0  0  0  0
    5.6610   -0.2542    4.3469 C   0  0  0  0  0  0  0  0  0  0  0  0
    6.2013   -0.7927    3.2363 C   0  0  0  0  0  0  0  0  0  0  0  0
    5.7557   -0.5148    1.8646 C   0  0  0  0  0  0  0  0  0  0  0  0
    5.0589    0.4648    1.4809 O   0  0  0  0  0  0  0  0  0  0  0  0
    6.2100   -1.5790    1.0081 C   0  0  0  0  0  0  0  0  0  0  0  0
    5.8694   -1.7732   -0.3501 C   0  0  0  0  0  0  0  0  0  0  0  0
    6.3335   -2.9641   -0.8775 C   0  0  0  0  0  0  0  0  0  0  0  0
    7.0908   -3.9141   -0.1167 C   0  0  0  0  0  0  0  0  0  0  0  0
    7.4308   -3.7261    1.2144 C   0  0  0  0  0  0  0  0  0  0  0  0
    6.9874   -2.4936    1.7706 C   0  0  0  0  0  0  0  0  0  0  0  0
    7.1075   -1.9791    3.1656 C   0  0  0  0  0  0  0  0  0  0  0  0
    8.0140   -2.3670    4.1003 C   0  0  0  0  0  0  0  0  0  0  0  0
    8.2119   -1.6384    5.3276 C   0  0  0  0  0  0  0  0  0  0  0  0
    8.3841   -1.0608    6.3206 N   0  0  0  0  0  0  0  0  0  0  0  0
    8.9201   -3.4647    3.8906 C   0  0  0  0  0  0  0  0  0  0  0  0
    9.6520   -4.3537    3.7427 N   0  0  0  0  0  0  0  0  0  0  0  0
    7.1199   -4.8539   -1.2853 C   0  0  0  0  0  0  0  0  0  0  0  0
    6.1927   -6.1093   -1.2335 C   0  0  0  0  0  0  0  0  0  0  0  0
    4.9493   -5.7991   -0.4293 C   0  0  0  0  0  0  0  0  0  0  0  0
    4.2462   -4.9166   -1.1380 C   0  0  0  0  0  0  0  0  0  0  0  0
    5.0315   -4.6565   -2.4030 C   0  0  0  0  0  0  0  0  0  0  0  0
    5.5979   -6.0491   -2.6260 C   0  0  0  0  0  0  0  0  0  0  0  0
    6.3422   -3.8821   -2.0658 C   0  0  0  0  0  0  0  0  0  0  0  0
   -7.7071    2.7026   -0.5308 H   0  0  0  0  0  0  0  0  0  0  0  0
   -4.7723    0.7001   -5.6429 H   0  0  0  0  0  0  0  0  0  0  0  0
   -8.5388   -0.8909   -7.0004 H   0  0  0  0  0  0  0  0  0  0  0  0
   -9.7099    0.2120   -5.1525 H   0  0  0  0  0  0  0  0  0  0  0  0
    5.9972    3.5524    3.0049 H   0  0  0  0  0  0  0  0  0  0  0  0
    6.8624    2.1062    3.6220 H   0  0  0  0  0  0  0  0  0  0  0  0
    5.5461    4.2885    5.3708 H   0  0  0  0  0  0  0  0  0  0  0  0
    6.4701    2.8398    5.9777 H   0  0  0  0  0  0  0  0  0  0  0  0
    7.3082    4.1191    5.0258 H   0  0  0  0  0  0  0  0  0  0  0  0
   -6.4556    0.5523    0.6072 H   0  0  0  0  0  0  0  0  0  0  0  0
   -4.8706   -0.0257    1.1245 H   0  0  0  0  0  0  0  0  0  0  0  0
   -6.1171   -0.1850   -1.6874 H   0  0  0  0  0  0  0  0  0  0  0  0
   -4.3567   -0.5109   -1.4037 H   0  0  0  0  0  0  0  0  0  0  0  0
   -5.6221   -1.5253   -0.5966 H   0  0  0  0  0  0  0  0  0  0  0  0
   -1.0557    0.0900    0.9924 H   0  0  0  0  0  0  0  0  0  0  0  0
   -2.7394   -0.4360    0.6957 H   0  0  0  0  0  0  0  0  0  0  0  0
   -2.5171    0.8845   -1.5940 H   0  0  0  0  0  0  0  0  0  0  0  0
   -0.7798    1.0820   -1.1791 H   0  0  0  0  0  0  0  0  0  0  0  0
   -1.4552   -0.5866   -1.3878 H   0  0  0  0  0  0  0  0  0  0  0  0
   -1.3051    0.1772    3.0855 H   0  0  0  0  0  0  0  0  0  0  0  0
    0.0764    0.1961    4.1990 H   0  0  0  0  0  0  0  0  0  0  0  0
   -2.2710    2.1984    4.1213 H   0  0  0  0  0  0  0  0  0  0  0  0
   -0.8309    2.3465    5.2069 H   0  0  0  0  0  0  0  0  0  0  0  0
   -1.9494    0.9377    5.3640 H   0  0  0  0  0  0  0  0  0  0  0  0
    5.8855   -0.6640    5.3194 H   0  0  0  0  0  0  0  0  0  0  0  0
    5.2579   -1.0817   -0.9173 H   0  0  0  0  0  0  0  0  0  0  0  0
    7.9342   -4.5024    1.7698 H   0  0  0  0  0  0  0  0  0  0  0  0
    8.1457   -5.0422   -1.6785 H   0  0  0  0  0  0  0  0  0  0  0  0
    6.6991   -7.0613   -0.9684 H   0  0  0  0  0  0  0  0  0  0  0  0
    4.6456   -6.2523    0.5090 H   0  0  0  0  0  0  0  0  0  0  0  0
    3.2682   -4.5251   -0.8761 H   0  0  0  0  0  0  0  0  0  0  0  0
    4.4412   -4.2453   -3.2495 H   0  0  0  0  0  0  0  0  0  0  0  0
    4.8152   -6.8226   -2.8123 H   0  0  0  0  0  0  0  0  0  0  0  0
    6.3613   -6.0915   -3.4368 H   0  0  0  0  0  0  0  0  0  0  0  0
    6.8893   -3.4731   -2.9414 H   0  0  0  0  0  0  0  0  0  0  0  0
  1  2  2  3
  2  3  1  0
  3  4  2  0
  3  5  1  0
  5  6  2  0
  6  7  1  0
  7  8  1  0
  7  9  2  0
  9 10  1  0
 10 11  2  0
 11 12  1  0
 12 13  2  3
 13 14  1  0
 14 15  3  0
 13 16  1  0
 16 17  3  0
  1 18  1  0
 18 19  1  0
 19 20  1  0
 20 21  1  0
 21 22  1  0
 22 23  1  0
 23 24  2  0
 24 25  1  0
 25 26  1  0
 23 27  1  0
 27 28  1  0
 28 29  1  0
 29 30  1  0
 30 31  1  0
 31 32  1  0
 32 33  1  0
 31 34  2  0
 34 35  1  0
 35 36  1  0
 36 37  1  0
 37 38  1  0
 38 39  1  0
 39 40  1  0
 40 41  1  0
 41 42  1  0
 42 43  1  0
 43 44  1  0
 44 45  1  0
 41 46  1  0
 46 47  1  0
 38 48  1  0
 48 49  1  0
 34 50  1  0
 50 51  2  3
 51 52  1  0
 52 53  2  0
 52 54  1  0
 54 55  2  0
 55 56  1  0
 56 57  2  0
 57 58  1  0
 58 59  2  0
 59 60  1  0
 60 61  2  3
 61 62  1  0
 62 63  3  0
 61 64  1  0
 64 65  3  0
 57 66  1  0
 66 67  1  0
 67 68  1  0
 68 69  2  0
 69 70  1  0
 70 71  1  0
 70 72  1  0
 12  2  1  0
 43 18  2  0
 60 51  1  0
 72 66  1  0
 11  5  1  0
 42 20  2  0
 59 54  1  0
 71 67  1  0
 40 21  2  0
 72 56  1  0
 26 22  2  0
 39 27  2  0
 37 28  2  0
 36 30  2  0
  1 73  1  0
  6 74  1  0
  9 75  1  0
 10 76  1  0
 32 77  1  0
 32 78  1  0
 33 79  1  0
 33 80  1  0
 33 81  1  0
 44 82  1  0
 44 83  1  0
 45 84  1  0
 45 85  1  0
 45 86  1  0
 46 87  1  0
 46 88  1  0
 47 89  1  0
 47 90  1  0
 47 91  1  0
 48 92  1  0
 48 93  1  0
 49 94  1  0
 49 95  1  0
 49 96  1  0
 50 97  1  0
 55 98  1  0
 58 99  1  0
 66100  1  0
 67101  1  0
 68102  1  0
 69103  1  0
 70104  1  0
 71105  1  0
 71106  1  0
 72107  1  0
M  END

