
     RDKit          3D

 85 96  0  0  0  0  0  0  0  0999 V2000
   -6.3280    1.2912   -4.6728 C   0  0  0  0  0  0  0  0  0  0  0  0
   -5.4117    0.6572   -5.4553 C   0  0  0  0  0  0  0  0  0  0  0  0
   -4.2158   -0.0086   -5.0408 C   0  0  0  0  0  0  0  0  0  0  0  0
   -3.7931   -0.3594   -3.9456 O   0  0  0  0  0  0  0  0  0  0  0  0
   -3.4029   -0.3088   -6.2956 C   0  0  0  0  0  0  0  0  0  0  0  0
   -2.2354   -0.9248   -6.4742 C   0  0  0  0  0  0  0  0  0  0  0  0
   -1.6421   -1.1145   -7.7000 C   0  0  0  0  0  0  0  0  0  0  0  0
   -0.4476   -1.7278   -7.8698 F   0  0  0  0  0  0  0  0  0  0  0  0
   -2.3477   -0.6229   -8.7769 C   0  0  0  0  0  0  0  0  0  0  0  0
   -3.5543    0.0090   -8.6359 C   0  0  0  0  0  0  0  0  0  0  0  0
   -4.1496    0.2027   -7.4188 C   0  0  0  0  0  0  0  0  0  0  0  0
   -5.3824    0.8064   -6.8997 C   0  0  0  0  0  0  0  0  0  0  0  0
   -5.9970    1.9013   -7.5385 C   0  0  0  0  0  0  0  0  0  0  0  0
   -6.1625    2.2642   -8.7756 C   0  0  0  0  0  0  0  0  0  0  0  0
   -6.3001    2.5989   -9.8865 N   0  0  0  0  0  0  0  0  0  0  0  0
   -5.8054    2.9760   -6.3997 C   0  0  0  0  0  0  0  0  0  0  0  0
   -5.6510    3.7750   -5.5345 N   0  0  0  0  0  0  0  0  0  0  0  0
   -6.0419    1.3397   -3.1929 C   0  0  0  0  0  0  0  0  0  0  0  0
   -5.9715    2.4685   -2.4918 C   0  0  0  0  0  0  0  0  0  0  0  0
   -5.3919    2.4717   -1.2056 C   0  0  0  0  0  0  0  0  0  0  0  0
   -4.8240    3.7460   -0.1537 S   0  0  0  0  0  0  0  0  0  0  0  0
   -3.9652    2.7017    0.9309 C   0  0  0  0  0  0  0  0  0  0  0  0
   -2.9565    2.7334    1.9140 C   0  0  0  0  0  0  0  0  0  0  0  0
   -2.2752    3.8464    2.4540 C   0  0  0  0  0  0  0  0  0  0  0  0
   -1.1400    3.6091    3.1408 C   0  0  0  0  0  0  0  0  0  0  0  0
   -0.5374    4.7141    3.6830 N   0  0  0  0  0  0  0  0  0  0  0  0
   -1.5142    5.9878    3.2323 S   0  0  0  0  0  0  0  0  0  0  0  0
   -2.6582    5.1344    2.3844 N   0  0  0  0  0  0  0  0  0  0  0  0
   -0.7140    2.2727    3.2569 C   0  0  0  0  0  0  0  0  0  0  0  0
    0.4720    1.7922    3.7267 C   0  0  0  0  0  0  0  0  0  0  0  0
    0.5447    0.4461    3.5295 C   0  0  0  0  0  0  0  0  0  0  0  0
   -0.6574    0.0704    2.9037 N   0  0  0  0  0  0  0  0  0  0  0  0
   -0.9727   -1.3003    2.7066 C   0  0  0  0  0  0  0  0  0  0  0  0
   -0.3656   -2.0306    1.5511 C   0  0  0  0  0  0  0  0  0  0  0  0
   -1.3920    1.1884    2.7412 C   0  0  0  0  0  0  0  0  0  0  0  0
   -2.5814    1.4178    2.0263 C   0  0  0  0  0  0  0  0  0  0  0  0
   -3.3099    0.6360    1.1912 N   0  0  0  0  0  0  0  0  0  0  0  0
   -4.1504    1.4919    0.5000 C   0  0  0  0  0  0  0  0  0  0  0  0
   -4.9269    1.3787   -0.6681 C   0  0  0  0  0  0  0  0  0  0  0  0
   -5.3071    0.0581   -2.0857 Se  0  0  0  0  0  2  0  0  0  0  0  0
   -3.3820   -0.7770    1.0543 C   0  0  0  0  0  0  0  0  0  0  0  0
   -4.3384   -1.4540    2.0511 C   0  0  0  0  0  0  0  0  0  0  0  0
    1.6899   -0.0975    3.8743 C   0  0  0  0  0  0  0  0  0  0  0  0
    2.7018    0.5521    4.3765 C   0  0  0  0  0  0  0  0  0  0  0  0
    1.9867    2.1902    4.3881 S   0  0  0  0  0  0  0  0  0  0  0  0
    3.9069    0.0600    4.6883 C   0  0  0  0  0  0  0  0  0  0  0  0
    4.2848   -1.2058    4.5206 C   0  0  0  0  0  0  0  0  0  0  0  0
    2.5997   -1.9338    3.7679 Se  0  0  0  0  0  2  0  0  0  0  0  0
    5.4783   -1.9489    4.7275 C   0  0  0  0  0  0  0  0  0  0  0  0
    6.0517   -2.5481    3.6622 C   0  0  0  0  0  0  0  0  0  0  0  0
    5.7490   -2.6198    2.3575 C   0  0  0  0  0  0  0  0  0  0  0  0
    4.6033   -2.1549    1.8006 O   0  0  0  0  0  0  0  0  0  0  0  0
    6.7526   -3.2599    1.5242 C   0  0  0  0  0  0  0  0  0  0  0  0
    6.8253   -3.4030    0.1394 C   0  0  0  0  0  0  0  0  0  0  0  0
    7.9513   -3.9331   -0.3983 C   0  0  0  0  0  0  0  0  0  0  0  0
    8.0349   -4.1023   -1.7602 F   0  0  0  0  0  0  0  0  0  0  0  0
    8.9825   -4.3141    0.4093 C   0  0  0  0  0  0  0  0  0  0  0  0
   10.0843   -4.8216   -0.1802 F   0  0  0  0  0  0  0  0  0  0  0  0
    8.9220   -4.1694    1.8237 C   0  0  0  0  0  0  0  0  0  0  0  0
    7.7225   -3.6097    2.3560 C   0  0  0  0  0  0  0  0  0  0  0  0
    7.4417   -3.2301    3.8101 C   0  0  0  0  0  0  0  0  0  0  0  0
    8.1533   -3.4385    4.7957 C   0  0  0  0  0  0  0  0  0  0  0  0
    7.8410   -3.0322    6.1908 C   0  0  0  0  0  0  0  0  0  0  0  0
    7.6015   -2.6949    7.3361 N   0  0  0  0  0  0  0  0  0  0  0  0
    9.3645   -4.2217    4.7526 C   0  0  0  0  0  0  0  0  0  0  0  0
   10.4192   -4.8829    4.7023 N   0  0  0  0  0  0  0  0  0  0  0  0
   -7.2053    1.6706   -5.0514 H   0  0  0  0  0  0  0  0  0  0  0  0
   -1.6957   -1.3532   -5.5867 H   0  0  0  0  0  0  0  0  0  0  0  0
   -1.8722   -0.7422   -9.7903 H   0  0  0  0  0  0  0  0  0  0  0  0
   -4.0884    0.3861   -9.4844 H   0  0  0  0  0  0  0  0  0  0  0  0
   -6.3533    3.4203   -2.9482 H   0  0  0  0  0  0  0  0  0  0  0  0
   -0.4466   -1.8805    3.6175 H   0  0  0  0  0  0  0  0  0  0  0  0
   -1.9584   -1.6471    2.8956 H   0  0  0  0  0  0  0  0  0  0  0  0
   -0.1955   -1.3726    0.6957 H   0  0  0  0  0  0  0  0  0  0  0  0
   -1.0767   -2.8611    1.2060 H   0  0  0  0  0  0  0  0  0  0  0  0
    0.6271   -2.5222    1.7551 H   0  0  0  0  0  0  0  0  0  0  0  0
   -2.5737   -1.3501    0.6846 H   0  0  0  0  0  0  0  0  0  0  0  0
   -4.0442   -0.9583    0.0758 H   0  0  0  0  0  0  0  0  0  0  0  0
   -4.0360   -2.5316    2.0476 H   0  0  0  0  0  0  0  0  0  0  0  0
   -4.2349   -0.9973    3.0574 H   0  0  0  0  0  0  0  0  0  0  0  0
   -5.3847   -1.4135    1.7452 H   0  0  0  0  0  0  0  0  0  0  0  0
    4.7292    0.7355    5.1487 H   0  0  0  0  0  0  0  0  0  0  0  0
    5.8886   -2.0124    5.6638 H   0  0  0  0  0  0  0  0  0  0  0  0
    6.0099   -3.0978   -0.4888 H   0  0  0  0  0  0  0  0  0  0  0  0
    9.7461   -4.4443    2.3468 H   0  0  0  0  0  0  0  0  0  0  0  0
  1  2  2  3
  2  3  1  0
  3  4  2  0
  3  5  1  0
  5  6  2  0
  6  7  1  0
  7  8  1  0
  7  9  2  0
  9 10  1  0
 10 11  2  0
 11 12  1  0
 12 13  2  3
 13 14  1  0
 14 15  3  0
 13 16  1  0
 16 17  3  0
  1 18  1  0
 18 19  2  0
 19 20  1  0
 20 21  1  0
 21 22  1  0
 22 23  1  0
 23 24  1  0
 24 25  1  0
 25 26  2  0
 26 27  1  0
 27 28  1  0
 25 29  1  0
 29 30  1  0
 30 31  2  0
 31 32  1  0
 32 33  1  0
 33 34  1  0
 32 35  1  0
 35 36  1  0
 36 37  1  0
 37 38  1  0
 38 39  1  0
 39 40  1  0
 37 41  1  0
 41 42  1  0
 31 43  1  0
 43 44  2  0
 44 45  1  0
 44 46  1  0
 46 47  2  0
 47 48  1  0
 47 49  1  0
 49 50  2  3
 50 51  1  0
 51 52  2  0
 51 53  1  0
 53 54  2  0
 54 55  1  0
 55 56  1  0
 55 57  2  0
 57 58  1  0
 57 59  1  0
 59 60  2  0
 60 61  1  0
 61 62  2  3
 62 63  1  0
 63 64  3  0
 62 65  1  0
 65 66  3  0
 12  2  1  0
 40 18  1  0
 48 43  1  0
 61 50  1  0
 11  5  1  0
 39 20  2  0
 60 53  1  0
 38 22  2  0
 36 23  2  0
 28 24  2  0
 35 29  2  0
 45 30  1  0
  1 67  1  0
  6 68  1  0
  9 69  1  0
 10 70  1  0
 19 71  1  0
 33 72  1  0
 33 73  1  0
 34 74  1  0
 34 75  1  0
 34 76  1  0
 41 77  1  0
 41 78  1  0
 42 79  1  0
 42 80  1  0
 42 81  1  0
 46 82  1  0
 49 83  1  0
 54 84  1  0
 59 85  1  0
M  END

