
     RDKit          3D

 97108  0  0  0  0  0  0  0  0999 V2000
   -4.9408    3.9399   -1.4951 C   0  0  0  0  0  0  0  0  0  0  0  0
   -6.1235    3.6419   -1.1448 C   0  0  0  0  0  0  0  0  0  0  0  0
   -7.0600    2.8802   -2.0022 C   0  0  0  0  0  0  0  0  0  0  0  0
   -6.9229    2.7645   -3.2347 O   0  0  0  0  0  0  0  0  0  0  0  0
   -8.1126    2.3375   -1.1544 C   0  0  0  0  0  0  0  0  0  0  0  0
   -9.2338    1.5670   -1.4789 C   0  0  0  0  0  0  0  0  0  0  0  0
  -10.1458    1.1616   -0.5587 C   0  0  0  0  0  0  0  0  0  0  0  0
  -11.2184    0.4060   -0.8994 F   0  0  0  0  0  0  0  0  0  0  0  0
   -9.9576    1.5176    0.7271 C   0  0  0  0  0  0  0  0  0  0  0  0
   -8.8750    2.2725    1.0695 C   0  0  0  0  0  0  0  0  0  0  0  0
   -7.8968    2.7147    0.1589 C   0  0  0  0  0  0  0  0  0  0  0  0
   -6.6830    3.5221    0.2352 C   0  0  0  0  0  0  0  0  0  0  0  0
   -6.2582    4.1122    1.3072 C   0  0  0  0  0  0  0  0  0  0  0  0
   -5.2302    5.0439    1.5042 C   0  0  0  0  0  0  0  0  0  0  0  0
   -4.3315    5.8430    1.6788 N   0  0  0  0  0  0  0  0  0  0  0  0
   -6.5376    3.3752    2.5612 C   0  0  0  0  0  0  0  0  0  0  0  0
   -6.7936    2.7373    3.6611 N   0  0  0  0  0  0  0  0  0  0  0  0
   -3.8700    3.9201   -2.3651 C   0  0  0  0  0  0  0  0  0  0  0  0
   -3.3197    4.1413   -3.5703 C   0  0  0  0  0  0  0  0  0  0  0  0
   -4.0489    4.9095   -4.5894 C   0  0  0  0  0  0  0  0  0  0  0  0
   -4.0066    6.4270   -4.3304 C   0  0  0  0  0  0  0  0  0  0  0  0
   -2.0862    3.5546   -3.5492 C   0  0  0  0  0  0  0  0  0  0  0  0
   -1.1638    2.7757   -5.2268 S   0  0  0  0  0  0  0  0  0  0  0  0
    0.1316    2.0366   -4.2584 C   0  0  0  0  0  0  0  0  0  0  0  0
    1.2278    1.2100   -4.1814 C   0  0  0  0  0  0  0  0  0  0  0  0
    1.7752    0.3972   -5.1821 C   0  0  0  0  0  0  0  0  0  0  0  0
    2.6457   -0.5774   -4.8611 C   0  0  0  0  0  0  0  0  0  0  0  0
    3.1830   -1.3844   -5.7764 N   0  0  0  0  0  0  0  0  0  0  0  0
    2.3076   -0.6274   -7.4181 Se  0  0  0  0  0  2  0  0  0  0  0  0
    1.4611    0.5409   -6.4871 N   0  0  0  0  0  0  0  0  0  0  0  0
    2.9924   -0.7327   -3.5007 C   0  0  0  0  0  0  0  0  0  0  0  0
    3.6484   -1.7888   -2.8348 C   0  0  0  0  0  0  0  0  0  0  0  0
    4.3804   -3.3144   -2.9200 S   0  0  0  0  0  0  0  0  0  0  0  0
    4.4939   -3.6930   -1.1947 C   0  0  0  0  0  0  0  0  0  0  0  0
    4.8859   -4.7799   -0.5540 C   0  0  0  0  0  0  0  0  0  0  0  0
    5.5292   -6.0791   -0.7123 C   0  0  0  0  0  0  0  0  0  0  0  0
    4.4649   -7.0697   -1.2862 C   0  0  0  0  0  0  0  0  0  0  0  0
    4.6227   -4.5872    0.8941 C   0  0  0  0  0  0  0  0  0  0  0  0
    3.9499   -3.0609    0.9615 S   0  0  0  0  0  0  0  0  0  0  0  0
    3.9656   -2.6227   -0.6758 C   0  0  0  0  0  0  0  0  0  0  0  0
    3.5223   -1.6043   -1.4819 C   0  0  0  0  0  0  0  0  0  0  0  0
    2.8335   -0.4102   -1.3340 N   0  0  0  0  0  0  0  0  0  0  0  0
    2.4928    0.0882   -2.5181 C   0  0  0  0  0  0  0  0  0  0  0  0
    1.5674    1.0960   -2.8267 C   0  0  0  0  0  0  0  0  0  0  0  0
    0.7259    1.8227   -2.0764 N   0  0  0  0  0  0  0  0  0  0  0  0
   -0.1765    2.4059   -2.8797 C   0  0  0  0  0  0  0  0  0  0  0  0
   -1.2947    3.0781   -3.2754 C   0  0  0  0  0  0  0  0  0  0  0  0
   -2.5095    2.9822   -1.5669 S   0  0  0  0  0  0  0  0  0  0  0  0
    0.7153    2.0775   -0.6568 C   0  0  0  0  0  0  0  0  0  0  0  0
   -0.1262    1.2681    0.2394 C   0  0  0  0  0  0  0  0  0  0  0  0
    2.8822    0.3059   -0.0716 C   0  0  0  0  0  0  0  0  0  0  0  0
    4.0143    1.3442   -0.0805 C   0  0  0  0  0  0  0  0  0  0  0  0
    4.9108   -5.5121    2.0015 C   0  0  0  0  0  0  0  0  0  0  0  0
    5.2856   -4.8994    3.1496 C   0  0  0  0  0  0  0  0  0  0  0  0
    5.4267   -3.4546    3.3322 C   0  0  0  0  0  0  0  0  0  0  0  0
    5.3702   -2.5190    2.5416 O   0  0  0  0  0  0  0  0  0  0  0  0
    5.6907   -3.2298    4.8117 C   0  0  0  0  0  0  0  0  0  0  0  0
    5.8954   -1.9854    5.4629 C   0  0  0  0  0  0  0  0  0  0  0  0
    6.1316   -1.9269    6.7961 C   0  0  0  0  0  0  0  0  0  0  0  0
    6.3189   -0.7861    7.4294 F   0  0  0  0  0  0  0  0  0  0  0  0
    6.1577   -3.1267    7.4471 C   0  0  0  0  0  0  0  0  0  0  0  0
    5.9619   -4.3424    6.8538 C   0  0  0  0  0  0  0  0  0  0  0  0
    5.7118   -4.3915    5.4400 C   0  0  0  0  0  0  0  0  0  0  0  0
    5.4734   -5.4875    4.4815 C   0  0  0  0  0  0  0  0  0  0  0  0
    5.4616   -6.7799    4.7994 C   0  0  0  0  0  0  0  0  0  0  0  0
    5.2649   -7.8520    3.8313 C   0  0  0  0  0  0  0  0  0  0  0  0
    5.1057   -8.6943    3.0898 N   0  0  0  0  0  0  0  0  0  0  0  0
    5.4271   -7.2135    6.1767 C   0  0  0  0  0  0  0  0  0  0  0  0
    5.4110   -7.5681    7.3388 N   0  0  0  0  0  0  0  0  0  0  0  0
   -4.5981    4.7322   -0.5989 H   0  0  0  0  0  0  0  0  0  0  0  0
   -9.3097    1.3410   -2.5406 H   0  0  0  0  0  0  0  0  0  0  0  0
  -10.6887    1.1837    1.4797 H   0  0  0  0  0  0  0  0  0  0  0  0
   -8.7500    2.5697    2.1221 H   0  0  0  0  0  0  0  0  0  0  0  0
   -3.7576    4.7272   -5.6208 H   0  0  0  0  0  0  0  0  0  0  0  0
   -5.1370    4.5528   -4.5600 H   0  0  0  0  0  0  0  0  0  0  0  0
   -4.8567    6.8863   -4.9192 H   0  0  0  0  0  0  0  0  0  0  0  0
   -4.1357    6.6391   -3.2651 H   0  0  0  0  0  0  0  0  0  0  0  0
   -3.0656    6.8331   -4.6495 H   0  0  0  0  0  0  0  0  0  0  0  0
    6.3214   -6.1108   -1.4983 H   0  0  0  0  0  0  0  0  0  0  0  0
    5.9158   -6.5820    0.1444 H   0  0  0  0  0  0  0  0  0  0  0  0
    3.7649   -7.4001   -0.5408 H   0  0  0  0  0  0  0  0  0  0  0  0
    4.0068   -6.6061   -2.1574 H   0  0  0  0  0  0  0  0  0  0  0  0
    5.0379   -7.9354   -1.6400 H   0  0  0  0  0  0  0  0  0  0  0  0
    0.0936    3.1218   -0.5969 H   0  0  0  0  0  0  0  0  0  0  0  0
    1.6221    2.5529   -0.2397 H   0  0  0  0  0  0  0  0  0  0  0  0
   -0.2198    0.2314   -0.0669 H   0  0  0  0  0  0  0  0  0  0  0  0
   -1.1603    1.6271    0.4652 H   0  0  0  0  0  0  0  0  0  0  0  0
    0.3025    1.3063    1.3209 H   0  0  0  0  0  0  0  0  0  0  0  0
    2.0830    0.3881    0.5631 H   0  0  0  0  0  0  0  0  0  0  0  0
    3.4879   -0.4607    0.6398 H   0  0  0  0  0  0  0  0  0  0  0  0
    3.8495    2.1789   -0.7558 H   0  0  0  0  0  0  0  0  0  0  0  0
    4.2672    1.6539    0.9819 H   0  0  0  0  0  0  0  0  0  0  0  0
    4.9431    0.8557   -0.4411 H   0  0  0  0  0  0  0  0  0  0  0  0
    4.8213   -6.5229    1.8614 H   0  0  0  0  0  0  0  0  0  0  0  0
    5.8463   -1.0716    4.8854 H   0  0  0  0  0  0  0  0  0  0  0  0
    6.3497   -3.0848    8.5064 H   0  0  0  0  0  0  0  0  0  0  0  0
    6.0143   -5.2038    7.4080 H   0  0  0  0  0  0  0  0  0  0  0  0
  1  2  2  3
  2  3  1  0
  3  4  2  0
  3  5  1  0
  5  6  2  0
  6  7  1  0
  7  8  1  0
  7  9  2  0
  9 10  1  0
 10 11  2  0
 11 12  1  0
 12 13  2  3
 13 14  1  0
 14 15  3  0
 13 16  1  0
 16 17  3  0
  1 18  1  0
 18 19  2  0
 19 20  1  0
 20 21  1  0
 19 22  1  0
 22 23  1  0
 23 24  1  0
 24 25  1  0
 25 26  1  0
 26 27  1  0
 27 28  2  0
 28 29  1  0
 29 30  1  0
 27 31  1  0
 31 32  1  0
 32 33  1  0
 33 34  1  0
 34 35  1  0
 35 36  1  0
 36 37  1  0
 35 38  2  0
 38 39  1  0
 39 40  1  0
 40 41  1  0
 41 42  1  0
 42 43  1  0
 43 44  1  0
 44 45  1  0
 45 46  1  0
 46 47  1  0
 47 48  1  0
 45 49  1  0
 49 50  1  0
 42 51  1  0
 51 52  1  0
 38 53  1  0
 53 54  2  3
 54 55  1  0
 55 56  2  0
 55 57  1  0
 57 58  2  0
 58 59  1  0
 59 60  1  0
 59 61  2  0
 61 62  1  0
 62 63  2  0
 63 64  1  0
 64 65  2  3
 65 66  1  0
 66 67  3  0
 65 68  1  0
 68 69  3  0
 12  2  1  0
 48 18  1  0
 64 54  1  0
 11  5  1  0
 47 22  2  0
 63 57  1  0
 46 24  2  0
 44 25  2  0
 30 26  2  0
 43 31  2  0
 41 32  2  0
 40 34  2  0
  1 70  1  0
  6 71  1  0
  9 72  1  0
 10 73  1  0
 20 74  1  0
 20 75  1  0
 21 76  1  0
 21 77  1  0
 21 78  1  0
 36 79  1  0
 36 80  1  0
 37 81  1  0
 37 82  1  0
 37 83  1  0
 49 84  1  0
 49 85  1  0
 50 86  1  0
 50 87  1  0
 50 88  1  0
 51 89  1  0
 51 90  1  0
 52 91  1  0
 52 92  1  0
 52 93  1  0
 53 94  1  0
 58 95  1  0
 61 96  1  0
 62 97  1  0
M  END

