
     RDKit          3D

 92102  0  0  0  0  0  0  0  0999 V2000
    5.5739   -2.0826   -3.8176 C   0  0  0  0  0  0  0  0  0  0  0  0
    4.4253   -1.9612   -4.5762 C   0  0  0  0  0  0  0  0  0  0  0  0
    3.1060   -1.9062   -4.0316 C   0  0  0  0  0  0  0  0  0  0  0  0
    2.6903   -1.7585   -2.8281 O   0  0  0  0  0  0  0  0  0  0  0  0
    2.1588   -2.0691   -5.0981 C   0  0  0  0  0  0  0  0  0  0  0  0
    0.7661   -2.0029   -5.0853 C   0  0  0  0  0  0  0  0  0  0  0  0
    0.0929   -2.0897   -6.2804 C   0  0  0  0  0  0  0  0  0  0  0  0
   -1.3018   -2.0275   -6.2817 F   0  0  0  0  0  0  0  0  0  0  0  0
    0.7313   -2.2375   -7.4766 C   0  0  0  0  0  0  0  0  0  0  0  0
    2.1645   -2.2995   -7.4309 C   0  0  0  0  0  0  0  0  0  0  0  0
    2.8544   -2.2214   -6.2745 C   0  0  0  0  0  0  0  0  0  0  0  0
    4.3769   -2.1511   -5.9594 C   0  0  0  0  0  0  0  0  0  0  0  0
    5.1959   -1.8546   -7.0424 C   0  0  0  0  0  0  0  0  0  0  0  0
    6.2010   -1.2650   -7.0502 C   0  0  0  0  0  0  0  0  0  0  0  0
    7.4523   -0.5150   -7.0514 N   0  0  0  0  0  0  0  0  0  0  0  0
    4.7212   -2.8902   -8.0670 C   0  0  0  0  0  0  0  0  0  0  0  0
    4.3214   -3.7530   -8.9222 N   0  0  0  0  0  0  0  0  0  0  0  0
    5.2817   -2.1651   -2.3492 C   0  0  0  0  0  0  0  0  0  0  0  0
    5.1546   -3.3170   -1.6295 C   0  0  0  0  0  0  0  0  0  0  0  0
    5.5577   -4.6486   -2.1721 C   0  0  0  0  0  0  0  0  0  0  0  0
    4.3401   -5.5329   -2.4753 C   0  0  0  0  0  0  0  0  0  0  0  0
    4.5368   -3.1380   -0.3919 C   0  0  0  0  0  0  0  0  0  0  0  0
    3.7326   -4.2092    0.7401 S   0  0  0  0  0  0  0  0  0  0  0  0
    2.9089   -3.0007    1.6635 C   0  0  0  0  0  0  0  0  0  0  0  0
    1.9166   -2.7629    2.6001 C   0  0  0  0  0  0  0  0  0  0  0  0
    0.9859   -3.6930    3.1482 C   0  0  0  0  0  0  0  0  0  0  0  0
   -0.1573   -3.2545    3.6695 C   0  0  0  0  0  0  0  0  0  0  0  0
   -1.0688   -4.0651    4.2052 N   0  0  0  0  0  0  0  0  0  0  0  0
    0.0258   -5.8943    3.8619 Se  0  0  0  0  0  2  0  0  0  0  0  0
    1.2260   -4.9901    3.1673 N   0  0  0  0  0  0  0  0  0  0  0  0
   -0.3613   -1.8529    3.6627 C   0  0  0  0  0  0  0  0  0  0  0  0
   -1.5234   -1.1401    3.9475 C   0  0  0  0  0  0  0  0  0  0  0  0
   -3.2127   -1.2216    4.3251 S   0  0  0  0  0  0  0  0  0  0  0  0
   -3.5977    0.4817    4.0863 C   0  0  0  0  0  0  0  0  0  0  0  0
   -4.7082    1.3391    4.0756 C   0  0  0  0  0  0  0  0  0  0  0  0
   -6.1089    0.7824    4.3652 C   0  0  0  0  0  0  0  0  0  0  0  0
   -6.5556   -0.0192    3.1194 C   0  0  0  0  0  0  0  0  0  0  0  0
   -4.5218    2.5952    3.7456 C   0  0  0  0  0  0  0  0  0  0  0  0
   -2.7945    2.6234    3.4429 S   0  0  0  0  0  0  0  0  0  0  0  0
   -2.4352    0.9575    3.7585 C   0  0  0  0  0  0  0  0  0  0  0  0
   -1.3376    0.1572    3.6739 C   0  0  0  0  0  0  0  0  0  0  0  0
   -0.0060    0.2477    3.2092 N   0  0  0  0  0  0  0  0  0  0  0  0
    0.5365   -0.9384    3.1825 C   0  0  0  0  0  0  0  0  0  0  0  0
    1.7509   -1.4229    2.5949 C   0  0  0  0  0  0  0  0  0  0  0  0
    2.5737   -0.8177    1.7187 N   0  0  0  0  0  0  0  0  0  0  0  0
    3.3063   -1.8364    1.0925 C   0  0  0  0  0  0  0  0  0  0  0  0
    4.1558   -1.9686    0.0177 C   0  0  0  0  0  0  0  0  0  0  0  0
    4.6394   -0.9541   -1.3668 S   0  0  0  0  0  0  0  0  0  0  0  0
    2.8251    0.5383    1.3378 C   0  0  0  0  0  0  0  0  0  0  0  0
    2.0383    1.1392    0.1995 C   0  0  0  0  0  0  0  0  0  0  0  0
    0.5706    1.5414    3.0415 C   0  0  0  0  0  0  0  0  0  0  0  0
    0.8766    1.9154    4.5909 C   0  0  0  0  0  0  0  0  0  0  0  0
   -5.2757    3.8265    3.5000 C   0  0  0  0  0  0  0  0  0  0  0  0
   -4.8266    4.6835    2.6024 C   0  0  0  0  0  0  0  0  0  0  0  0
   -3.2657    4.2841    1.7077 S   0  0  0  0  0  0  0  0  0  0  0  0
   -2.8909    6.0056    1.3557 C   0  0  0  0  0  0  0  0  0  0  0  0
   -1.4006    6.6354    1.0771 S   0  0  0  0  0  0  0  0  0  0  0  0
   -4.1836    6.6186    1.3725 N   0  0  0  0  0  0  0  0  0  0  0  0
   -4.3556    7.8941    0.6574 C   0  0  0  0  0  0  0  0  0  0  0  0
   -4.6823    7.7318   -0.7842 C   0  0  0  0  0  0  0  0  0  0  0  0
   -5.1969    5.9219    2.0449 C   0  0  0  0  0  0  0  0  0  0  0  0
   -6.4181    6.3559    2.1661 O   0  0  0  0  0  0  0  0  0  0  0  0
    6.4849   -2.0718   -4.2410 H   0  0  0  0  0  0  0  0  0  0  0  0
    0.1739   -1.8427   -4.1951 H   0  0  0  0  0  0  0  0  0  0  0  0
    0.2751   -2.3317   -8.4361 H   0  0  0  0  0  0  0  0  0  0  0  0
    2.5583   -2.3451   -8.4618 H   0  0  0  0  0  0  0  0  0  0  0  0
    6.0418   -4.4599   -3.1720 H   0  0  0  0  0  0  0  0  0  0  0  0
    6.2708   -5.2225   -1.5359 H   0  0  0  0  0  0  0  0  0  0  0  0
    4.1199   -6.1167   -1.5178 H   0  0  0  0  0  0  0  0  0  0  0  0
    4.5591   -6.1551   -3.3531 H   0  0  0  0  0  0  0  0  0  0  0  0
    3.4581   -4.9010   -2.6269 H   0  0  0  0  0  0  0  0  0  0  0  0
   -6.8393    1.5913    4.4446 H   0  0  0  0  0  0  0  0  0  0  0  0
   -6.0825    0.1532    5.2605 H   0  0  0  0  0  0  0  0  0  0  0  0
   -6.7031    0.6058    2.2628 H   0  0  0  0  0  0  0  0  0  0  0  0
   -7.3824   -0.7114    3.3287 H   0  0  0  0  0  0  0  0  0  0  0  0
   -5.6710   -0.7345    2.9076 H   0  0  0  0  0  0  0  0  0  0  0  0
    3.1256    1.2330    2.1755 H   0  0  0  0  0  0  0  0  0  0  0  0
    3.8891    0.5611    0.8591 H   0  0  0  0  0  0  0  0  0  0  0  0
    2.5292    1.0345   -0.7969 H   0  0  0  0  0  0  0  0  0  0  0  0
    1.9104    2.2479    0.3237 H   0  0  0  0  0  0  0  0  0  0  0  0
    0.9942    0.6706    0.0504 H   0  0  0  0  0  0  0  0  0  0  0  0
    1.4250    1.8018    2.6179 H   0  0  0  0  0  0  0  0  0  0  0  0
   -0.2708    2.3470    2.8469 H   0  0  0  0  0  0  0  0  0  0  0  0
   -0.0998    2.2231    5.0527 H   0  0  0  0  0  0  0  0  0  0  0  0
    1.6708    2.6635    4.6294 H   0  0  0  0  0  0  0  0  0  0  0  0
    1.2207    0.9810    5.0240 H   0  0  0  0  0  0  0  0  0  0  0  0
   -6.1587    4.0264    4.0747 H   0  0  0  0  0  0  0  0  0  0  0  0
   -5.1115    8.5545    1.1602 H   0  0  0  0  0  0  0  0  0  0  0  0
   -3.3855    8.4744    0.7441 H   0  0  0  0  0  0  0  0  0  0  0  0
   -4.2574    8.6342   -1.3470 H   0  0  0  0  0  0  0  0  0  0  0  0
   -5.8123    7.7765   -1.0107 H   0  0  0  0  0  0  0  0  0  0  0  0
   -4.1928    6.8758   -1.2563 H   0  0  0  0  0  0  0  0  0  0  0  0
  1  2  2  3
  2  3  1  0
  3  4  2  0
  3  5  1  0
  5  6  2  0
  6  7  1  0
  7  8  1  0
  7  9  2  0
  9 10  1  0
 10 11  2  0
 11 12  1  0
 12 13  2  3
 13 14  1  0
 14 15  3  0
 13 16  1  0
 16 17  3  0
  1 18  1  0
 18 19  2  0
 19 20  1  0
 20 21  1  0
 19 22  1  0
 22 23  1  0
 23 24  1  0
 24 25  1  0
 25 26  1  0
 26 27  1  0
 27 28  2  0
 28 29  1  0
 29 30  1  0
 27 31  1  0
 31 32  1  0
 32 33  1  0
 33 34  1  0
 34 35  1  0
 35 36  1  0
 36 37  1  0
 35 38  2  0
 38 39  1  0
 39 40  1  0
 40 41  1  0
 41 42  1  0
 42 43  1  0
 43 44  1  0
 44 45  1  0
 45 46  1  0
 46 47  1  0
 47 48  1  0
 45 49  1  0
 49 50  1  0
 42 51  1  0
 51 52  1  0
 38 53  1  0
 53 54  2  3
 54 55  1  0
 55 56  1  0
 56 57  2  0
 56 58  1  0
 58 59  1  0
 59 60  1  0
 58 61  1  0
 61 62  2  0
 12  2  1  0
 48 18  1  0
 61 54  1  0
 11  5  1  0
 47 22  2  0
 46 24  2  0
 44 25  2  0
 30 26  2  0
 43 31  2  0
 41 32  2  0
 40 34  2  0
  1 63  1  0
  6 64  1  0
  9 65  1  0
 10 66  1  0
 20 67  1  0
 20 68  1  0
 21 69  1  0
 21 70  1  0
 21 71  1  0
 36 72  1  0
 36 73  1  0
 37 74  1  0
 37 75  1  0
 37 76  1  0
 49 77  1  0
 49 78  1  0
 50 79  1  0
 50 80  1  0
 50 81  1  0
 51 82  1  0
 51 83  1  0
 52 84  1  0
 52 85  1  0
 52 86  1  0
 53 87  1  0
 59 88  1  0
 59 89  1  0
 60 90  1  0
 60 91  1  0
 60 92  1  0
M  END

