
     RDKit          3D

 98109  0  0  0  0  0  0  0  0999 V2000
   -7.2818    4.7664   -1.1181 C   0  0  0  0  0  0  0  0  0  0  0  0
   -7.7900    3.5793   -0.8486 C   0  0  0  0  0  0  0  0  0  0  0  0
   -9.0911    2.9672   -0.8036 C   0  0  0  0  0  0  0  0  0  0  0  0
  -10.1088    3.5347   -1.3586 O   0  0  0  0  0  0  0  0  0  0  0  0
   -9.1410    1.7200   -0.1020 C   0  0  0  0  0  0  0  0  0  0  0  0
  -10.1568    0.7561    0.0842 C   0  0  0  0  0  0  0  0  0  0  0  0
   -9.8763   -0.4376    0.7234 C   0  0  0  0  0  0  0  0  0  0  0  0
  -10.8095   -1.3846    0.9128 F   0  0  0  0  0  0  0  0  0  0  0  0
   -8.5864   -0.7058    1.2002 C   0  0  0  0  0  0  0  0  0  0  0  0
   -7.6290    0.2740    0.9984 C   0  0  0  0  0  0  0  0  0  0  0  0
   -7.8626    1.4431    0.3749 C   0  0  0  0  0  0  0  0  0  0  0  0
   -6.9806    2.5932   -0.0358 C   0  0  0  0  0  0  0  0  0  0  0  0
   -6.2244    2.9902    1.1282 C   0  0  0  0  0  0  0  0  0  0  0  0
   -6.4845    4.4342    1.4116 C   0  0  0  0  0  0  0  0  0  0  0  0
   -6.6985    5.5329    1.6187 N   0  0  0  0  0  0  0  0  0  0  0  0
   -5.4137    2.2166    1.9121 C   0  0  0  0  0  0  0  0  0  0  0  0
   -4.7608    1.5695    2.5441 N   0  0  0  0  0  0  0  0  0  0  0  0
   -5.7677    4.8397   -1.0671 C   0  0  0  0  0  0  0  0  0  0  0  0
   -4.8418    5.7552   -0.7985 C   0  0  0  0  0  0  0  0  0  0  0  0
   -5.2532    7.2318   -0.8808 C   0  0  0  0  0  0  0  0  0  0  0  0
   -5.2471    7.6212   -2.3636 C   0  0  0  0  0  0  0  0  0  0  0  0
   -3.5524    5.3438   -0.6098 C   0  0  0  0  0  0  0  0  0  0  0  0
   -2.0681    6.0351    0.0038 S   0  0  0  0  0  0  0  0  0  0  0  0
   -1.1561    4.5699    0.0960 C   0  0  0  0  0  0  0  0  0  0  0  0
    0.0227    3.9951    0.5438 C   0  0  0  0  0  0  0  0  0  0  0  0
    1.1632    4.5157    1.1668 C   0  0  0  0  0  0  0  0  0  0  0  0
    2.1460    3.7075    1.5910 C   0  0  0  0  0  0  0  0  0  0  0  0
    3.2359    4.1880    2.1783 N   0  0  0  0  0  0  0  0  0  0  0  0
    2.8561    6.1070    2.1453 Se  0  0  0  0  0  2  0  0  0  0  0  0
    1.3095    5.8522    1.3511 N   0  0  0  0  0  0  0  0  0  0  0  0
    1.9474    2.3142    1.3817 C   0  0  0  0  0  0  0  0  0  0  0  0
    2.7264    1.2541    1.7785 C   0  0  0  0  0  0  0  0  0  0  0  0
    4.2037    0.7319    2.5421 S   0  0  0  0  0  0  0  0  0  0  0  0
    3.9859   -0.9697    2.3894 C   0  0  0  0  0  0  0  0  0  0  0  0
    4.6775   -2.1249    2.6772 C   0  0  0  0  0  0  0  0  0  0  0  0
    6.0286   -2.1541    3.4170 C   0  0  0  0  0  0  0  0  0  0  0  0
    5.8324   -1.9244    4.8818 C   0  0  0  0  0  0  0  0  0  0  0  0
    4.1061   -3.2867    2.2985 C   0  0  0  0  0  0  0  0  0  0  0  0
    2.6569   -2.7606    1.5818 S   0  0  0  0  0  0  0  0  0  0  0  0
    2.8340   -1.0564    1.7820 C   0  0  0  0  0  0  0  0  0  0  0  0
    2.1391    0.0781    1.4459 C   0  0  0  0  0  0  0  0  0  0  0  0
    0.9323    0.4110    0.8072 N   0  0  0  0  0  0  0  0  0  0  0  0
    0.8505    1.7430    0.7790 C   0  0  0  0  0  0  0  0  0  0  0  0
   -0.1506    2.6355    0.3328 C   0  0  0  0  0  0  0  0  0  0  0  0
   -1.3288    2.4140   -0.2123 N   0  0  0  0  0  0  0  0  0  0  0  0
   -2.0069    3.6289   -0.3599 C   0  0  0  0  0  0  0  0  0  0  0  0
   -3.2364    4.0885   -0.7030 C   0  0  0  0  0  0  0  0  0  0  0  0
   -4.7756    3.3889   -1.0889 S   0  0  0  0  0  0  0  0  0  0  0  0
   -1.8354    1.2013   -0.8013 C   0  0  0  0  0  0  0  0  0  0  0  0
   -1.3582    1.0932   -2.2677 C   0  0  0  0  0  0  0  0  0  0  0  0
    0.0027   -0.6159    0.4618 C   0  0  0  0  0  0  0  0  0  0  0  0
    0.2533   -1.2565   -0.8436 C   0  0  0  0  0  0  0  0  0  0  0  0
    4.6139   -4.7096    2.2703 C   0  0  0  0  0  0  0  0  0  0  0  0
    5.4783   -5.0144    1.3074 C   0  0  0  0  0  0  0  0  0  0  0  0
    5.9265   -4.0417    0.3234 C   0  0  0  0  0  0  0  0  0  0  0  0
    5.5655   -2.8463    0.2213 O   0  0  0  0  0  0  0  0  0  0  0  0
    6.8829   -4.6361   -0.5666 C   0  0  0  0  0  0  0  0  0  0  0  0
    7.5558   -4.1399   -1.6557 C   0  0  0  0  0  0  0  0  0  0  0  0
    7.3924   -2.8080   -2.0658 O   0  0  0  0  0  0  0  0  0  0  0  0
    8.4017   -4.9532   -2.3683 C   0  0  0  0  0  0  0  0  0  0  0  0
    8.5858   -6.2551   -1.9998 C   0  0  0  0  0  0  0  0  0  0  0  0
    7.9011   -6.7842   -0.8855 C   0  0  0  0  0  0  0  0  0  0  0  0
    7.0566   -6.0029   -0.1696 C   0  0  0  0  0  0  0  0  0  0  0  0
    6.1689   -6.2386    1.0116 C   0  0  0  0  0  0  0  0  0  0  0  0
    5.8917   -7.4279    1.4723 C   0  0  0  0  0  0  0  0  0  0  0  0
    4.7164   -7.6665    2.3967 C   0  0  0  0  0  0  0  0  0  0  0  0
    3.8679   -7.8390    3.0877 N   0  0  0  0  0  0  0  0  0  0  0  0
    6.6106   -8.5692    1.2191 C   0  0  0  0  0  0  0  0  0  0  0  0
    7.2665   -9.6160    0.9983 N   0  0  0  0  0  0  0  0  0  0  0  0
   -7.8392    5.6081   -1.3366 H   0  0  0  0  0  0  0  0  0  0  0  0
  -11.1604    0.9127   -0.2517 H   0  0  0  0  0  0  0  0  0  0  0  0
   -8.3723   -1.6226    1.6694 H   0  0  0  0  0  0  0  0  0  0  0  0
   -6.6201   -0.0031    1.3668 H   0  0  0  0  0  0  0  0  0  0  0  0
   -4.5062    7.8586   -0.3763 H   0  0  0  0  0  0  0  0  0  0  0  0
   -6.2456    7.3900   -0.5153 H   0  0  0  0  0  0  0  0  0  0  0  0
   -4.3514    8.2428   -2.5841 H   0  0  0  0  0  0  0  0  0  0  0  0
   -6.1576    8.1903   -2.6247 H   0  0  0  0  0  0  0  0  0  0  0  0
   -5.1652    6.7563   -3.0186 H   0  0  0  0  0  0  0  0  0  0  0  0
    6.6234   -1.2697    3.0603 H   0  0  0  0  0  0  0  0  0  0  0  0
    6.5808   -3.0358    3.1376 H   0  0  0  0  0  0  0  0  0  0  0  0
    6.3339   -0.9911    5.2671 H   0  0  0  0  0  0  0  0  0  0  0  0
    4.7438   -1.6791    5.0564 H   0  0  0  0  0  0  0  0  0  0  0  0
    6.0167   -2.8043    5.5177 H   0  0  0  0  0  0  0  0  0  0  0  0
   -2.0800    0.3349   -0.2900 H   0  0  0  0  0  0  0  0  0  0  0  0
   -2.9775    1.4693   -1.0644 H   0  0  0  0  0  0  0  0  0  0  0  0
   -1.6202    0.1527   -2.7394 H   0  0  0  0  0  0  0  0  0  0  0  0
   -1.7831    1.9076   -2.9069 H   0  0  0  0  0  0  0  0  0  0  0  0
   -0.2390    1.2997   -2.2534 H   0  0  0  0  0  0  0  0  0  0  0  0
    0.2623   -1.5612    1.2056 H   0  0  0  0  0  0  0  0  0  0  0  0
   -0.9760   -0.5031    0.8783 H   0  0  0  0  0  0  0  0  0  0  0  0
    0.9317   -0.6454   -1.5127 H   0  0  0  0  0  0  0  0  0  0  0  0
    0.8242   -2.2475   -0.7703 H   0  0  0  0  0  0  0  0  0  0  0  0
   -0.6602   -1.5241   -1.4039 H   0  0  0  0  0  0  0  0  0  0  0  0
    4.2246   -5.3100    3.0341 H   0  0  0  0  0  0  0  0  0  0  0  0
    6.7562   -2.2284   -1.5819 H   0  0  0  0  0  0  0  0  0  0  0  0
    8.8932   -4.4620   -3.2172 H   0  0  0  0  0  0  0  0  0  0  0  0
    9.2478   -6.8831   -2.5659 H   0  0  0  0  0  0  0  0  0  0  0  0
    8.0821   -7.7962   -0.6635 H   0  0  0  0  0  0  0  0  0  0  0  0
  1  2  2  3
  2  3  1  0
  3  4  2  0
  3  5  1  0
  5  6  2  0
  6  7  1  0
  7  8  1  0
  7  9  2  0
  9 10  1  0
 10 11  2  0
 11 12  1  0
 12 13  2  3
 13 14  1  0
 14 15  3  0
 13 16  1  0
 16 17  3  0
  1 18  1  0
 18 19  2  0
 19 20  1  0
 20 21  1  0
 19 22  1  0
 22 23  1  0
 23 24  1  0
 24 25  1  0
 25 26  1  0
 26 27  1  0
 27 28  2  0
 28 29  1  0
 29 30  1  0
 27 31  1  0
 31 32  1  0
 32 33  1  0
 33 34  1  0
 34 35  1  0
 35 36  1  0
 36 37  1  0
 35 38  2  0
 38 39  1  0
 39 40  1  0
 40 41  1  0
 41 42  1  0
 42 43  1  0
 43 44  1  0
 44 45  1  0
 45 46  1  0
 46 47  1  0
 47 48  1  0
 45 49  1  0
 49 50  1  0
 42 51  1  0
 51 52  1  0
 38 53  1  0
 53 54  2  3
 54 55  1  0
 55 56  2  0
 55 57  1  0
 57 58  2  0
 58 59  1  0
 58 60  1  0
 60 61  2  0
 61 62  1  0
 62 63  2  0
 63 64  1  0
 64 65  2  3
 65 66  1  0
 66 67  3  0
 65 68  1  0
 68 69  3  0
 12  2  1  0
 48 18  1  0
 64 54  1  0
 11  5  1  0
 47 22  2  0
 63 57  1  0
 46 24  2  0
 44 25  2  0
 30 26  2  0
 43 31  2  0
 41 32  2  0
 40 34  2  0
  1 70  1  0
  6 71  1  0
  9 72  1  0
 10 73  1  0
 20 74  1  0
 20 75  1  0
 21 76  1  0
 21 77  1  0
 21 78  1  0
 36 79  1  0
 36 80  1  0
 37 81  1  0
 37 82  1  0
 37 83  1  0
 49 84  1  0
 49 85  1  0
 50 86  1  0
 50 87  1  0
 50 88  1  0
 51 89  1  0
 51 90  1  0
 52 91  1  0
 52 92  1  0
 52 93  1  0
 53 94  1  0
 59 95  1  0
 60 96  1  0
 61 97  1  0
 62 98  1  0
M  END

