
     RDKit          3D

175192  0  0  0  0  0  0  0  0999 V2000
    2.3490   -3.0420    8.9012 C   0  0  0  0  0  0  0  0  0  0  0  0
    3.5565   -2.5701    9.2592 C   0  0  0  0  0  0  0  0  0  0  0  0
    4.4862   -1.8477    8.3762 C   0  0  0  0  0  0  0  0  0  0  0  0
    4.2076   -1.2989    7.2767 O   0  0  0  0  0  0  0  0  0  0  0  0
    5.8185   -1.9698    8.9275 C   0  0  0  0  0  0  0  0  0  0  0  0
    7.0239   -1.5685    8.3515 C   0  0  0  0  0  0  0  0  0  0  0  0
    8.2172   -1.9100    8.9995 C   0  0  0  0  0  0  0  0  0  0  0  0
    9.4071   -1.5469    8.4631 F   0  0  0  0  0  0  0  0  0  0  0  0
    8.1870   -2.6678   10.1843 C   0  0  0  0  0  0  0  0  0  0  0  0
    6.9619   -3.0752   10.7403 C   0  0  0  0  0  0  0  0  0  0  0  0
    5.7708   -2.6895   10.1103 C   0  0  0  0  0  0  0  0  0  0  0  0
    4.3550   -3.0022   10.4389 C   0  0  0  0  0  0  0  0  0  0  0  0
    3.8578   -3.3641   11.6514 C   0  0  0  0  0  0  0  0  0  0  0  0
    2.4411   -3.3342   11.9294 C   0  0  0  0  0  0  0  0  0  0  0  0
    1.3083   -3.2967   12.1424 N   0  0  0  0  0  0  0  0  0  0  0  0
    4.7051   -3.6347   12.7832 C   0  0  0  0  0  0  0  0  0  0  0  0
    5.3716   -3.8492   13.7055 N   0  0  0  0  0  0  0  0  0  0  0  0
    1.6888   -2.6818    7.6464 C   0  0  0  0  0  0  0  0  0  0  0  0
    1.2544   -1.3958    7.2910 C   0  0  0  0  0  0  0  0  0  0  0  0
    0.6997   -1.4062    6.0210 C   0  0  0  0  0  0  0  0  0  0  0  0
    0.1712   -0.1734    4.9818 S   0  0  0  0  0  0  0  0  0  0  0  0
   -0.0780   -1.3053    3.7415 C   0  0  0  0  0  0  0  0  0  0  0  0
   -0.3350   -1.2440    2.3333 C   0  0  0  0  0  0  0  0  0  0  0  0
   -0.4539   -0.1377    1.4985 C   0  0  0  0  0  0  0  0  0  0  0  0
   -0.6353   -0.3995    0.1327 C   0  0  0  0  0  0  0  0  0  0  0  0
   -0.5378    0.5917   -1.0134 C   0  0  0  0  0  0  0  0  0  0  0  0
   -1.6565    1.6202   -0.7577 C   0  0  0  0  0  0  0  0  0  0  0  0
   -3.0024    1.3136   -1.0631 C   0  0  0  0  0  0  0  0  0  0  0  0
   -4.0274    2.2222   -0.7854 C   0  0  0  0  0  0  0  0  0  0  0  0
   -3.7423    3.4286   -0.1333 C   0  0  0  0  0  0  0  0  0  0  0  0
   -4.8383    4.4216    0.1521 C   0  0  0  0  0  0  0  0  0  0  0  0
   -5.6698    3.9864    1.3539 C   0  0  0  0  0  0  0  0  0  0  0  0
   -2.4380    3.6734    0.3097 C   0  0  0  0  0  0  0  0  0  0  0  0
   -1.4147    2.7731    0.0187 C   0  0  0  0  0  0  0  0  0  0  0  0
    0.8959    1.1383   -1.1304 C   0  0  0  0  0  0  0  0  0  0  0  0
    1.1666    2.4421   -1.5902 C   0  0  0  0  0  0  0  0  0  0  0  0
    2.4765    2.9296   -1.6316 C   0  0  0  0  0  0  0  0  0  0  0  0
    3.5498    2.1152   -1.2541 C   0  0  0  0  0  0  0  0  0  0  0  0
    4.9509    2.6625   -1.1935 C   0  0  0  0  0  0  0  0  0  0  0  0
    5.3418    2.9820    0.2475 C   0  0  0  0  0  0  0  0  0  0  0  0
    3.3032    0.7871   -0.8916 C   0  0  0  0  0  0  0  0  0  0  0  0
    1.9962    0.2973   -0.8562 C   0  0  0  0  0  0  0  0  0  0  0  0
   -0.7946   -0.3503   -2.1926 C   0  0  0  0  0  0  0  0  0  0  0  0
   -1.0726   -1.6246   -1.7356 C   0  0  0  0  0  0  0  0  0  0  0  0
   -0.8449   -1.6991   -0.3162 C   0  0  0  0  0  0  0  0  0  0  0  0
   -0.5431   -2.8101    0.4888 C   0  0  0  0  0  0  0  0  0  0  0  0
   -0.2185   -2.5452    1.8340 C   0  0  0  0  0  0  0  0  0  0  0  0
    0.4414   -3.4639    2.8703 C   0  0  0  0  0  0  0  0  0  0  0  0
   -0.2498   -4.8280    2.9199 C   0  0  0  0  0  0  0  0  0  0  0  0
    0.1149   -5.8166    1.9865 C   0  0  0  0  0  0  0  0  0  0  0  0
   -0.4361   -7.0948    2.0483 C   0  0  0  0  0  0  0  0  0  0  0  0
   -1.3972   -7.4090    3.0173 C   0  0  0  0  0  0  0  0  0  0  0  0
   -1.9509   -8.8067    3.0959 C   0  0  0  0  0  0  0  0  0  0  0  0
   -2.9199   -9.0861    1.9488 C   0  0  0  0  0  0  0  0  0  0  0  0
   -1.8237   -6.4062    3.9057 C   0  0  0  0  0  0  0  0  0  0  0  0
   -1.2578   -5.1263    3.8548 C   0  0  0  0  0  0  0  0  0  0  0  0
    1.9705   -3.5738    2.6651 C   0  0  0  0  0  0  0  0  0  0  0  0
    2.7033   -4.5768    3.3393 C   0  0  0  0  0  0  0  0  0  0  0  0
    4.1028   -4.5546    3.3666 C   0  0  0  0  0  0  0  0  0  0  0  0
    4.8100   -3.5345    2.7145 C   0  0  0  0  0  0  0  0  0  0  0  0
    6.3055   -3.4419    2.8411 C   0  0  0  0  0  0  0  0  0  0  0  0
    6.7007   -2.3891    3.8825 C   0  0  0  0  0  0  0  0  0  0  0  0
    4.1000   -2.5447    2.0265 C   0  0  0  0  0  0  0  0  0  0  0  0
    2.7012   -2.5612    2.0047 C   0  0  0  0  0  0  0  0  0  0  0  0
    0.2525   -2.5866    4.0909 C   0  0  0  0  0  0  0  0  0  0  0  0
    0.6984   -2.6300    5.4007 C   0  0  0  0  0  0  0  0  0  0  0  0
    1.3907   -3.7953    6.3908 S   0  0  0  0  0  0  0  0  0  0  0  0
   -2.2470   -2.3898   -2.7014 S   0  0  0  0  0  0  0  0  0  0  0  0
   -2.1982   -1.1328   -3.8298 C   0  0  0  0  0  0  0  0  0  0  0  0
   -2.8571   -0.7962   -5.0643 C   0  0  0  0  0  0  0  0  0  0  0  0
   -2.2755    0.3788   -5.5006 C   0  0  0  0  0  0  0  0  0  0  0  0
   -1.0689    0.7948   -4.6505 C   0  0  0  0  0  0  0  0  0  0  0  0
   -1.3393   -0.1332   -3.4692 C   0  0  0  0  0  0  0  0  0  0  0  0
   -1.1087    2.2825   -4.2849 C   0  0  0  0  0  0  0  0  0  0  0  0
   -2.2728    2.8265   -3.7114 C   0  0  0  0  0  0  0  0  0  0  0  0
   -2.3294    4.1695   -3.3284 C   0  0  0  0  0  0  0  0  0  0  0  0
   -1.2374    5.0150   -3.5624 C   0  0  0  0  0  0  0  0  0  0  0  0
   -1.2461    6.4301   -3.0521 C   0  0  0  0  0  0  0  0  0  0  0  0
   -0.6885    6.4901   -1.6320 C   0  0  0  0  0  0  0  0  0  0  0  0
   -0.1070    4.5052   -4.2121 C   0  0  0  0  0  0  0  0  0  0  0  0
   -0.0427    3.1567   -4.5739 C   0  0  0  0  0  0  0  0  0  0  0  0
    0.2156    0.3604   -5.3840 C   0  0  0  0  0  0  0  0  0  0  0  0
    1.3384   -0.1248   -4.6814 C   0  0  0  0  0  0  0  0  0  0  0  0
    2.4356   -0.6571   -5.3618 C   0  0  0  0  0  0  0  0  0  0  0  0
    2.4728   -0.6590   -6.7605 C   0  0  0  0  0  0  0  0  0  0  0  0
    3.6179   -1.3098   -7.4931 C   0  0  0  0  0  0  0  0  0  0  0  0
    3.2059   -2.6664   -8.0602 C   0  0  0  0  0  0  0  0  0  0  0  0
    1.4068   -0.0921   -7.4739 C   0  0  0  0  0  0  0  0  0  0  0  0
    0.3027    0.4384   -6.7914 C   0  0  0  0  0  0  0  0  0  0  0  0
   -3.1382    1.2226   -6.2107 C   0  0  0  0  0  0  0  0  0  0  0  0
   -4.4526    0.7667   -6.2131 C   0  0  0  0  0  0  0  0  0  0  0  0
   -4.5115   -0.6937   -5.3497 S   0  0  0  0  0  0  0  0  0  0  0  0
   -5.5708    1.7194   -6.2742 C   0  0  0  0  0  0  0  0  0  0  0  0
   -6.7589    1.5004   -6.8687 C   0  0  0  0  0  0  0  0  0  0  0  0
   -7.1410    0.2822   -7.5816 C   0  0  0  0  0  0  0  0  0  0  0  0
   -6.3708   -0.6347   -7.9681 O   0  0  0  0  0  0  0  0  0  0  0  0
   -8.5581    0.3403   -7.8530 C   0  0  0  0  0  0  0  0  0  0  0  0
   -9.3683   -0.6362   -8.4329 C   0  0  0  0  0  0  0  0  0  0  0  0
  -10.7434   -0.3816   -8.5543 C   0  0  0  0  0  0  0  0  0  0  0  0
  -11.5591   -1.3115   -9.1098 F   0  0  0  0  0  0  0  0  0  0  0  0
  -11.2831    0.8257   -8.0771 C   0  0  0  0  0  0  0  0  0  0  0  0
  -10.4537    1.7938   -7.4958 C   0  0  0  0  0  0  0  0  0  0  0  0
   -9.0723    1.5451   -7.4007 C   0  0  0  0  0  0  0  0  0  0  0  0
   -7.9699    2.3851   -6.8436 C   0  0  0  0  0  0  0  0  0  0  0  0
   -8.0276    3.7104   -6.5135 C   0  0  0  0  0  0  0  0  0  0  0  0
   -9.2369    4.4810   -6.6024 C   0  0  0  0  0  0  0  0  0  0  0  0
  -10.2015    5.1166   -6.6540 N   0  0  0  0  0  0  0  0  0  0  0  0
   -6.8825    4.4855   -6.1034 C   0  0  0  0  0  0  0  0  0  0  0  0
   -5.9707    5.1176   -5.7700 N   0  0  0  0  0  0  0  0  0  0  0  0
    1.8787   -3.8193    9.4849 H   0  0  0  0  0  0  0  0  0  0  0  0
    7.0400   -1.0295    7.4140 H   0  0  0  0  0  0  0  0  0  0  0  0
    9.1148   -2.9648   10.6549 H   0  0  0  0  0  0  0  0  0  0  0  0
    6.9723   -3.7199   11.5986 H   0  0  0  0  0  0  0  0  0  0  0  0
    1.3775   -0.5125    7.9012 H   0  0  0  0  0  0  0  0  0  0  0  0
   -0.3487    0.8666    1.8797 H   0  0  0  0  0  0  0  0  0  0  0  0
   -3.2666    0.3771   -1.5279 H   0  0  0  0  0  0  0  0  0  0  0  0
   -5.0426    1.9822   -1.0744 H   0  0  0  0  0  0  0  0  0  0  0  0
   -5.4954    4.5252   -0.7370 H   0  0  0  0  0  0  0  0  0  0  0  0
   -4.4016    5.4232    0.3586 H   0  0  0  0  0  0  0  0  0  0  0  0
   -5.0133    3.6936    2.2037 H   0  0  0  0  0  0  0  0  0  0  0  0
   -6.3245    3.1358    1.0788 H   0  0  0  0  0  0  0  0  0  0  0  0
   -6.3082    4.8321    1.6904 H   0  0  0  0  0  0  0  0  0  0  0  0
   -2.2182    4.5661    0.8842 H   0  0  0  0  0  0  0  0  0  0  0  0
   -0.4337    2.9837    0.4205 H   0  0  0  0  0  0  0  0  0  0  0  0
    0.3644    3.1003   -1.8804 H   0  0  0  0  0  0  0  0  0  0  0  0
    2.6446    3.9558   -1.9362 H   0  0  0  0  0  0  0  0  0  0  0  0
    5.6630    1.9188   -1.6122 H   0  0  0  0  0  0  0  0  0  0  0  0
    5.0374    3.5906   -1.8022 H   0  0  0  0  0  0  0  0  0  0  0  0
    6.3937    3.3249    0.2818 H   0  0  0  0  0  0  0  0  0  0  0  0
    5.2394    2.0840    0.8900 H   0  0  0  0  0  0  0  0  0  0  0  0
    4.6907    3.7870    0.6515 H   0  0  0  0  0  0  0  0  0  0  0  0
    4.1213    0.1352   -0.6162 H   0  0  0  0  0  0  0  0  0  0  0  0
    1.8523   -0.7425   -0.5967 H   0  0  0  0  0  0  0  0  0  0  0  0
   -0.4861   -3.8071    0.0711 H   0  0  0  0  0  0  0  0  0  0  0  0
    0.8556   -5.6060    1.2248 H   0  0  0  0  0  0  0  0  0  0  0  0
   -0.1049   -7.8480    1.3449 H   0  0  0  0  0  0  0  0  0  0  0  0
   -2.4716   -8.9775    4.0673 H   0  0  0  0  0  0  0  0  0  0  0  0
   -1.1079   -9.5320    3.0408 H   0  0  0  0  0  0  0  0  0  0  0  0
   -2.4343   -8.8945    0.9693 H   0  0  0  0  0  0  0  0  0  0  0  0
   -3.2283  -10.1544    1.9791 H   0  0  0  0  0  0  0  0  0  0  0  0
   -3.8266   -8.4482    2.0488 H   0  0  0  0  0  0  0  0  0  0  0  0
   -2.5772   -6.6216    4.6531 H   0  0  0  0  0  0  0  0  0  0  0  0
   -1.6021   -4.3794    4.5616 H   0  0  0  0  0  0  0  0  0  0  0  0
    2.1936   -5.3506    3.8968 H   0  0  0  0  0  0  0  0  0  0  0  0
    4.6323   -5.3226    3.9143 H   0  0  0  0  0  0  0  0  0  0  0  0
    6.7550   -3.1769    1.8600 H   0  0  0  0  0  0  0  0  0  0  0  0
    6.7339   -4.4241    3.1554 H   0  0  0  0  0  0  0  0  0  0  0  0
    7.7715   -2.5079    4.1271 H   0  0  0  0  0  0  0  0  0  0  0  0
    6.5248   -1.3668    3.4875 H   0  0  0  0  0  0  0  0  0  0  0  0
    6.1237   -2.5326    4.8202 H   0  0  0  0  0  0  0  0  0  0  0  0
    4.6293   -1.7401    1.5316 H   0  0  0  0  0  0  0  0  0  0  0  0
    2.1997   -1.7404    1.5151 H   0  0  0  0  0  0  0  0  0  0  0  0
   -3.1457    2.2077   -3.5511 H   0  0  0  0  0  0  0  0  0  0  0  0
   -3.2227    4.5456   -2.8456 H   0  0  0  0  0  0  0  0  0  0  0  0
   -0.6316    7.0770   -3.7154 H   0  0  0  0  0  0  0  0  0  0  0  0
   -2.2828    6.8391   -3.0574 H   0  0  0  0  0  0  0  0  0  0  0  0
   -1.3628    5.9537   -0.9320 H   0  0  0  0  0  0  0  0  0  0  0  0
    0.3253    6.0359   -1.5876 H   0  0  0  0  0  0  0  0  0  0  0  0
   -0.6109    7.5498   -1.3039 H   0  0  0  0  0  0  0  0  0  0  0  0
    0.7441    5.1451   -4.4116 H   0  0  0  0  0  0  0  0  0  0  0  0
    0.8566    2.8021   -5.0587 H   0  0  0  0  0  0  0  0  0  0  0  0
    1.3629   -0.1317   -3.6096 H   0  0  0  0  0  0  0  0  0  0  0  0
    3.2548   -1.0755   -4.7906 H   0  0  0  0  0  0  0  0  0  0  0  0
    4.4812   -1.4564   -6.8113 H   0  0  0  0  0  0  0  0  0  0  0  0
    3.9560   -0.6543   -8.3244 H   0  0  0  0  0  0  0  0  0  0  0  0
    4.0914   -3.1695   -8.5051 H   0  0  0  0  0  0  0  0  0  0  0  0
    2.8027   -3.3136   -7.2519 H   0  0  0  0  0  0  0  0  0  0  0  0
    2.4344   -2.5332   -8.8496 H   0  0  0  0  0  0  0  0  0  0  0  0
    1.4240   -0.0611   -8.5571 H   0  0  0  0  0  0  0  0  0  0  0  0
   -0.5017    0.8641   -7.3752 H   0  0  0  0  0  0  0  0  0  0  0  0
   -2.8719    2.2365   -6.4829 H   0  0  0  0  0  0  0  0  0  0  0  0
   -5.3905    2.6179   -5.7177 H   0  0  0  0  0  0  0  0  0  0  0  0
   -8.9465   -1.5675   -8.7808 H   0  0  0  0  0  0  0  0  0  0  0  0
  -12.3445    1.0074   -8.1522 H   0  0  0  0  0  0  0  0  0  0  0  0
  -10.9113    2.6898   -7.1151 H   0  0  0  0  0  0  0  0  0  0  0  0
  1  2  2  3
  2  3  1  0
  3  4  2  0
  3  5  1  0
  5  6  2  0
  6  7  1  0
  7  8  1  0
  7  9  2  0
  9 10  1  0
 10 11  2  0
 11 12  1  0
 12 13  2  3
 13 14  1  0
 14 15  3  0
 13 16  1  0
 16 17  3  0
  1 18  1  0
 18 19  2  0
 19 20  1  0
 20 21  1  0
 21 22  1  0
 22 23  1  0
 23 24  2  0
 24 25  1  0
 25 26  1  0
 26 27  1  0
 27 28  2  0
 28 29  1  0
 29 30  2  0
 30 31  1  0
 31 32  1  0
 30 33  1  0
 33 34  2  0
 26 35  1  0
 35 36  2  0
 36 37  1  0
 37 38  2  0
 38 39  1  0
 39 40  1  0
 38 41  1  0
 41 42  2  0
 26 43  1  0
 43 44  2  0
 44 45  1  0
 45 46  1  0
 46 47  2  0
 47 48  1  0
 48 49  1  0
 49 50  2  0
 50 51  1  0
 51 52  2  0
 52 53  1  0
 53 54  1  0
 52 55  1  0
 55 56  2  0
 48 57  1  0
 57 58  2  0
 58 59  1  0
 59 60  2  0
 60 61  1  0
 61 62  1  0
 60 63  1  0
 63 64  2  0
 48 65  1  0
 65 66  1  0
 66 67  1  0
 44 68  1  0
 68 69  1  0
 69 70  1  0
 70 71  2  0
 71 72  1  0
 72 73  1  0
 72 74  1  0
 74 75  2  0
 75 76  1  0
 76 77  2  0
 77 78  1  0
 78 79  1  0
 77 80  1  0
 80 81  2  0
 72 82  1  0
 82 83  2  0
 83 84  1  0
 84 85  2  0
 85 86  1  0
 86 87  1  0
 85 88  1  0
 88 89  2  0
 71 90  1  0
 90 91  2  0
 91 92  1  0
 91 93  1  0
 93 94  2  3
 94 95  1  0
 95 96  2  0
 95 97  1  0
 97 98  2  0
 98 99  1  0
 99100  1  0
 99101  2  0
101102  1  0
102103  2  0
103104  1  0
104105  2  3
105106  1  0
106107  3  0
105108  1  0
108109  3  0
 12  2  1  0
 67 18  1  0
 73 69  2  0
 81 74  1  0
 89 82  1  0
104 94  1  0
 11  5  1  0
 66 20  2  0
 92 70  1  0
103 97  1  0
 65 22  2  0
 47 23  1  0
 56 49  1  0
 64 57  1  0
 45 25  2  0
 34 27  1  0
 42 35  1  0
 73 43  1  0
  1110  1  0
  6111  1  0
  9112  1  0
 10113  1  0
 19114  1  0
 24115  1  0
 28116  1  0
 29117  1  0
 31118  1  0
 31119  1  0
 32120  1  0
 32121  1  0
 32122  1  0
 33123  1  0
 34124  1  0
 36125  1  0
 37126  1  0
 39127  1  0
 39128  1  0
 40129  1  0
 40130  1  0
 40131  1  0
 41132  1  0
 42133  1  0
 46134  1  0
 50135  1  0
 51136  1  0
 53137  1  0
 53138  1  0
 54139  1  0
 54140  1  0
 54141  1  0
 55142  1  0
 56143  1  0
 58144  1  0
 59145  1  0
 61146  1  0
 61147  1  0
 62148  1  0
 62149  1  0
 62150  1  0
 63151  1  0
 64152  1  0
 75153  1  0
 76154  1  0
 78155  1  0
 78156  1  0
 79157  1  0
 79158  1  0
 79159  1  0
 80160  1  0
 81161  1  0
 83162  1  0
 84163  1  0
 86164  1  0
 86165  1  0
 87166  1  0
 87167  1  0
 87168  1  0
 88169  1  0
 89170  1  0
 90171  1  0
 93172  1  0
 98173  1  0
101174  1  0
102175  1  0
M  END

