
     RDKit          3D

 97108  0  0  0  0  0  0  0  0999 V2000
   -6.8442   -1.3427   -2.4918 C   0  0  0  0  0  0  0  0  0  0  0  0
   -7.6020   -2.2046   -3.0083 C   0  0  0  0  0  0  0  0  0  0  0  0
   -8.9883   -2.0240   -3.3640 C   0  0  0  0  0  0  0  0  0  0  0  0
   -9.7869   -1.0960   -3.1331 O   0  0  0  0  0  0  0  0  0  0  0  0
   -9.4625   -3.2206   -4.1542 C   0  0  0  0  0  0  0  0  0  0  0  0
  -10.6691   -3.4961   -4.7029 C   0  0  0  0  0  0  0  0  0  0  0  0
  -10.8936   -4.6931   -5.4227 C   0  0  0  0  0  0  0  0  0  0  0  0
  -12.1124   -4.9337   -5.9611 F   0  0  0  0  0  0  0  0  0  0  0  0
   -9.8411   -5.5382   -5.5251 C   0  0  0  0  0  0  0  0  0  0  0  0
   -8.6010   -5.2474   -4.9611 C   0  0  0  0  0  0  0  0  0  0  0  0
   -8.3917   -4.0876   -4.2714 C   0  0  0  0  0  0  0  0  0  0  0  0
   -7.1844   -3.5335   -3.5921 C   0  0  0  0  0  0  0  0  0  0  0  0
   -5.9592   -4.0521   -3.6209 C   0  0  0  0  0  0  0  0  0  0  0  0
   -4.7846   -3.4720   -3.1013 C   0  0  0  0  0  0  0  0  0  0  0  0
   -3.8220   -3.0139   -2.6871 N   0  0  0  0  0  0  0  0  0  0  0  0
   -5.7837   -5.4682   -4.0127 C   0  0  0  0  0  0  0  0  0  0  0  0
   -5.6410   -6.6106   -4.3265 N   0  0  0  0  0  0  0  0  0  0  0  0
   -6.1418   -0.3230   -1.9445 C   0  0  0  0  0  0  0  0  0  0  0  0
   -5.9950    1.0430   -2.2896 C   0  0  0  0  0  0  0  0  0  0  0  0
   -6.9955    1.5718   -3.2708 C   0  0  0  0  0  0  0  0  0  0  0  0
   -8.3000    1.9045   -2.6193 C   0  0  0  0  0  0  0  0  0  0  0  0
   -5.0252    1.7669   -1.6696 C   0  0  0  0  0  0  0  0  0  0  0  0
   -4.3682    3.4480   -1.9103 S   0  0  0  0  0  0  0  0  0  0  0  0
   -3.0689    3.3465   -0.7848 C   0  0  0  0  0  0  0  0  0  0  0  0
   -1.9414    3.9968   -0.3112 C   0  0  0  0  0  0  0  0  0  0  0  0
   -1.2793    5.1818   -0.6936 C   0  0  0  0  0  0  0  0  0  0  0  0
   -0.0294    5.4587   -0.2450 C   0  0  0  0  0  0  0  0  0  0  0  0
    0.5347    6.5921   -0.6672 N   0  0  0  0  0  0  0  0  0  0  0  0
   -0.6271    7.2766   -1.6709 S   0  0  0  0  0  0  0  0  0  0  0  0
   -1.8002    6.1143   -1.5296 N   0  0  0  0  0  0  0  0  0  0  0  0
    0.5820    4.5333    0.6142 C   0  0  0  0  0  0  0  0  0  0  0  0
    1.9021    4.4567    1.1311 C   0  0  0  0  0  0  0  0  0  0  0  0
    3.4900    4.9814    1.1632 S   0  0  0  0  0  0  0  0  0  0  0  0
    4.3006    3.6947    2.0431 C   0  0  0  0  0  0  0  0  0  0  0  0
    5.4988    3.1942    2.2914 C   0  0  0  0  0  0  0  0  0  0  0  0
    6.7481    4.2184    2.1436 C   0  0  0  0  0  0  0  0  0  0  0  0
    6.7421    4.3981    0.6330 C   0  0  0  0  0  0  0  0  0  0  0  0
    5.9168    2.0816    2.7123 C   0  0  0  0  0  0  0  0  0  0  0  0
    4.0580    1.2229    2.9135 Se  0  0  0  0  0  2  0  0  0  0  0  0
    3.1859    2.9351    2.2421 C   0  0  0  0  0  0  0  0  0  0  0  0
    1.9795    3.2308    1.8417 C   0  0  0  0  0  0  0  0  0  0  0  0
    0.7607    2.6877    1.7519 N   0  0  0  0  0  0  0  0  0  0  0  0
   -0.0647    3.4185    1.0052 C   0  0  0  0  0  0  0  0  0  0  0  0
   -1.3518    3.0844    0.5399 C   0  0  0  0  0  0  0  0  0  0  0  0
   -2.0853    1.9586    0.5594 N   0  0  0  0  0  0  0  0  0  0  0  0
   -3.1727    2.1082   -0.2796 C   0  0  0  0  0  0  0  0  0  0  0  0
   -4.2049    1.3583   -0.7868 C   0  0  0  0  0  0  0  0  0  0  0  0
   -4.7476   -0.5097   -0.6043 Se  0  0  0  0  0  2  0  0  0  0  0  0
   -1.7031    0.6300    0.9866 C   0  0  0  0  0  0  0  0  0  0  0  0
   -1.6631   -0.4848   -0.0149 C   0  0  0  0  0  0  0  0  0  0  0  0
    0.2721    1.7994    2.8643 C   0  0  0  0  0  0  0  0  0  0  0  0
    0.8192    0.4517    2.9772 C   0  0  0  0  0  0  0  0  0  0  0  0
    6.9375    1.1060    3.0652 C   0  0  0  0  0  0  0  0  0  0  0  0
    6.8406   -0.0169    2.3034 C   0  0  0  0  0  0  0  0  0  0  0  0
    5.8666   -0.2350    1.2048 C   0  0  0  0  0  0  0  0  0  0  0  0
    5.1481    0.6509    0.6823 O   0  0  0  0  0  0  0  0  0  0  0  0
    5.8386   -1.6193    0.7982 C   0  0  0  0  0  0  0  0  0  0  0  0
    5.0575   -2.2612   -0.1820 C   0  0  0  0  0  0  0  0  0  0  0  0
    5.1775   -3.5959   -0.3910 C   0  0  0  0  0  0  0  0  0  0  0  0
    4.1737   -4.3516   -1.6219 Cl  0  0  0  0  0  0  0  0  0  0  0  0
    6.0761   -4.3062    0.3739 C   0  0  0  0  0  0  0  0  0  0  0  0
    6.1512   -5.6554    0.1777 F   0  0  0  0  0  0  0  0  0  0  0  0
    6.8492   -3.6492    1.3394 C   0  0  0  0  0  0  0  0  0  0  0  0
    6.7509   -2.3119    1.5741 C   0  0  0  0  0  0  0  0  0  0  0  0
    7.4108   -1.3391    2.5336 C   0  0  0  0  0  0  0  0  0  0  0  0
    8.2851   -1.6915    3.3553 C   0  0  0  0  0  0  0  0  0  0  0  0
    8.7869   -3.0577    3.4816 C   0  0  0  0  0  0  0  0  0  0  0  0
    9.2220   -4.2036    3.5760 N   0  0  0  0  0  0  0  0  0  0  0  0
    8.9185   -0.8834    4.3914 C   0  0  0  0  0  0  0  0  0  0  0  0
    9.4116   -0.2260    5.2064 N   0  0  0  0  0  0  0  0  0  0  0  0
   -6.1181   -2.3341   -1.8700 H   0  0  0  0  0  0  0  0  0  0  0  0
  -11.5350   -2.8312   -4.6681 H   0  0  0  0  0  0  0  0  0  0  0  0
   -9.9755   -6.4705   -6.0815 H   0  0  0  0  0  0  0  0  0  0  0  0
   -7.8643   -5.9998   -5.1543 H   0  0  0  0  0  0  0  0  0  0  0  0
   -6.6150    2.3844   -3.8881 H   0  0  0  0  0  0  0  0  0  0  0  0
   -7.2569    0.7378   -4.0098 H   0  0  0  0  0  0  0  0  0  0  0  0
   -9.1229    1.6926   -3.3723 H   0  0  0  0  0  0  0  0  0  0  0  0
   -8.5154    1.3040   -1.7429 H   0  0  0  0  0  0  0  0  0  0  0  0
   -8.3535    2.9924   -2.3451 H   0  0  0  0  0  0  0  0  0  0  0  0
    7.6258    3.7381    2.4996 H   0  0  0  0  0  0  0  0  0  0  0  0
    6.5018    5.1438    2.6072 H   0  0  0  0  0  0  0  0  0  0  0  0
    7.6168    4.9526    0.2783 H   0  0  0  0  0  0  0  0  0  0  0  0
    6.6185    3.4430    0.0965 H   0  0  0  0  0  0  0  0  0  0  0  0
    5.8777    5.0726    0.3265 H   0  0  0  0  0  0  0  0  0  0  0  0
   -2.1552    0.3237    1.8856 H   0  0  0  0  0  0  0  0  0  0  0  0
   -0.5530    0.8167    1.0158 H   0  0  0  0  0  0  0  0  0  0  0  0
   -0.5742   -0.8828   -0.0025 H   0  0  0  0  0  0  0  0  0  0  0  0
   -2.1930   -1.3932    0.2877 H   0  0  0  0  0  0  0  0  0  0  0  0
   -1.7395   -0.1297   -1.0230 H   0  0  0  0  0  0  0  0  0  0  0  0
   -0.7874    1.9915    3.0919 H   0  0  0  0  0  0  0  0  0  0  0  0
    0.7285    2.3598    3.7868 H   0  0  0  0  0  0  0  0  0  0  0  0
   -0.1054   -0.2129    3.1679 H   0  0  0  0  0  0  0  0  0  0  0  0
    1.3188   -0.0366    2.1346 H   0  0  0  0  0  0  0  0  0  0  0  0
    1.3742    0.3048    3.9201 H   0  0  0  0  0  0  0  0  0  0  0  0
    7.6512    1.1949    3.7956 H   0  0  0  0  0  0  0  0  0  0  0  0
    4.3681   -1.6574   -0.7782 H   0  0  0  0  0  0  0  0  0  0  0  0
    7.5127   -4.2338    1.9172 H   0  0  0  0  0  0  0  0  0  0  0  0
  1  2  2  3
  2  3  1  0
  3  4  2  0
  3  5  1  0
  5  6  2  0
  6  7  1  0
  7  8  1  0
  7  9  2  0
  9 10  1  0
 10 11  2  0
 11 12  1  0
 12 13  2  3
 13 14  1  0
 14 15  3  0
 13 16  1  0
 16 17  3  0
  1 18  1  0
 18 19  2  0
 19 20  1  0
 20 21  1  0
 19 22  1  0
 22 23  1  0
 23 24  1  0
 24 25  1  0
 25 26  1  0
 26 27  1  0
 27 28  2  0
 28 29  1  0
 29 30  1  0
 27 31  1  0
 31 32  1  0
 32 33  1  0
 33 34  1  0
 34 35  1  0
 35 36  1  0
 36 37  1  0
 35 38  2  0
 38 39  1  0
 39 40  1  0
 40 41  1  0
 41 42  1  0
 42 43  1  0
 43 44  1  0
 44 45  1  0
 45 46  1  0
 46 47  1  0
 47 48  1  0
 45 49  1  0
 49 50  1  0
 42 51  1  0
 51 52  1  0
 38 53  1  0
 53 54  2  3
 54 55  1  0
 55 56  2  0
 55 57  1  0
 57 58  2  0
 58 59  1  0
 59 60  1  0
 59 61  2  0
 61 62  1  0
 61 63  1  0
 63 64  2  0
 64 65  1  0
 65 66  2  3
 66 67  1  0
 67 68  3  0
 66 69  1  0
 69 70  3  0
 12  2  1  0
 48 18  1  0
 65 54  1  0
 11  5  1  0
 47 22  2  0
 64 57  1  0
 46 24  2  0
 44 25  2  0
 30 26  2  0
 43 31  2  0
 41 32  2  0
 40 34  2  0
  1 71  1  0
  6 72  1  0
  9 73  1  0
 10 74  1  0
 20 75  1  0
 20 76  1  0
 21 77  1  0
 21 78  1  0
 21 79  1  0
 36 80  1  0
 36 81  1  0
 37 82  1  0
 37 83  1  0
 37 84  1  0
 49 85  1  0
 49 86  1  0
 50 87  1  0
 50 88  1  0
 50 89  1  0
 51 90  1  0
 51 91  1  0
 52 92  1  0
 52 93  1  0
 52 94  1  0
 53 95  1  0
 58 96  1  0
 63 97  1  0
M  END

