
     RDKit          3D

 99110  0  0  0  0  0  0  0  0999 V2000
   -3.7228    5.6629    1.5676 C   0  0  0  0  0  0  0  0  0  0  0  0
   -3.9760    5.0670    2.7530 C   0  0  0  0  0  0  0  0  0  0  0  0
   -3.4652    3.7595    3.1960 C   0  0  0  0  0  0  0  0  0  0  0  0
   -2.5142    3.1094    2.6892 O   0  0  0  0  0  0  0  0  0  0  0  0
   -4.2130    3.3517    4.3628 C   0  0  0  0  0  0  0  0  0  0  0  0
   -4.1508    2.1349    5.0422 C   0  0  0  0  0  0  0  0  0  0  0  0
   -5.0248    1.9219    6.1152 C   0  0  0  0  0  0  0  0  0  0  0  0
   -4.9955    0.7437    6.7865 F   0  0  0  0  0  0  0  0  0  0  0  0
   -5.9566    2.9140    6.4697 C   0  0  0  0  0  0  0  0  0  0  0  0
   -6.0096    4.1315    5.7680 C   0  0  0  0  0  0  0  0  0  0  0  0
   -5.0956    4.3541    4.7235 C   0  0  0  0  0  0  0  0  0  0  0  0
   -4.9270    5.5263    3.8130 C   0  0  0  0  0  0  0  0  0  0  0  0
   -5.3484    6.7993    4.0582 C   0  0  0  0  0  0  0  0  0  0  0  0
   -6.0676    7.1550    5.2539 C   0  0  0  0  0  0  0  0  0  0  0  0
   -6.6289    7.4651    6.2150 N   0  0  0  0  0  0  0  0  0  0  0  0
   -4.9574    7.9255    3.2489 C   0  0  0  0  0  0  0  0  0  0  0  0
   -4.6462    8.8481    2.6192 N   0  0  0  0  0  0  0  0  0  0  0  0
   -2.8080    5.1253    0.5498 C   0  0  0  0  0  0  0  0  0  0  0  0
   -1.7563    5.8291   -0.0674 C   0  0  0  0  0  0  0  0  0  0  0  0
   -1.2499    7.0805    0.3085 O   0  0  0  0  0  0  0  0  0  0  0  0
   -1.0838    7.5095    1.6627 C   0  0  0  0  0  0  0  0  0  0  0  0
   -0.1634    6.5664    2.4278 C   0  0  0  0  0  0  0  0  0  0  0  0
   -1.1856    5.0922   -1.0992 C   0  0  0  0  0  0  0  0  0  0  0  0
    0.2824    5.2756   -1.9263 S   0  0  0  0  0  0  0  0  0  0  0  0
    0.1444    3.7236   -2.6007 C   0  0  0  0  0  0  0  0  0  0  0  0
    1.0556    2.7793   -2.9778 C   0  0  0  0  0  0  0  0  0  0  0  0
    2.4459    2.9054   -3.0940 C   0  0  0  0  0  0  0  0  0  0  0  0
    3.2442    1.7333   -3.0834 C   0  0  0  0  0  0  0  0  0  0  0  0
    4.5904    1.8989   -3.1510 N   0  0  0  0  0  0  0  0  0  0  0  0
    4.6632    3.5515   -3.2098 S   0  0  0  0  0  0  0  0  0  0  0  0
    3.1000    4.0923   -3.1428 N   0  0  0  0  0  0  0  0  0  0  0  0
    2.6085    0.4965   -3.0088 C   0  0  0  0  0  0  0  0  0  0  0  0
    3.1187   -0.7661   -2.9767 C   0  0  0  0  0  0  0  0  0  0  0  0
    4.6112   -1.5601   -2.8357 S   0  0  0  0  0  0  0  0  0  0  0  0
    3.8287   -3.0824   -2.8097 C   0  0  0  0  0  0  0  0  0  0  0  0
    4.2497   -4.4036   -2.6003 C   0  0  0  0  0  0  0  0  0  0  0  0
    5.5562   -4.8394   -2.3452 O   0  0  0  0  0  0  0  0  0  0  0  0
    6.6389   -3.9706   -2.0201 C   0  0  0  0  0  0  0  0  0  0  0  0
    7.8405   -4.8023   -1.6037 C   0  0  0  0  0  0  0  0  0  0  0  0
    3.1558   -5.2780   -2.5959 C   0  0  0  0  0  0  0  0  0  0  0  0
    1.6967   -4.4237   -2.8080 S   0  0  0  0  0  0  0  0  0  0  0  0
    2.4663   -2.9381   -2.9390 C   0  0  0  0  0  0  0  0  0  0  0  0
    2.0684   -1.6135   -3.0128 C   0  0  0  0  0  0  0  0  0  0  0  0
    0.8708   -0.9837   -3.0562 N   0  0  0  0  0  0  0  0  0  0  0  0
    1.2070    0.3516   -2.9727 C   0  0  0  0  0  0  0  0  0  0  0  0
    0.4098    1.5321   -2.8455 C   0  0  0  0  0  0  0  0  0  0  0  0
   -0.8434    1.7107   -2.2945 N   0  0  0  0  0  0  0  0  0  0  0  0
   -0.9618    3.0593   -2.1665 C   0  0  0  0  0  0  0  0  0  0  0  0
   -1.7251    3.8492   -1.3050 C   0  0  0  0  0  0  0  0  0  0  0  0
   -2.9803    3.6076   -0.2127 S   0  0  0  0  0  0  0  0  0  0  0  0
   -1.7071    0.7448   -1.6049 C   0  0  0  0  0  0  0  0  0  0  0  0
   -1.0363    0.1988   -0.3457 C   0  0  0  0  0  0  0  0  0  0  0  0
   -0.3598   -1.6327   -3.5323 C   0  0  0  0  0  0  0  0  0  0  0  0
   -0.9753   -0.9000   -4.7271 C   0  0  0  0  0  0  0  0  0  0  0  0
    3.2197   -6.6983   -2.2473 C   0  0  0  0  0  0  0  0  0  0  0  0
    3.0225   -7.1375   -0.9897 C   0  0  0  0  0  0  0  0  0  0  0  0
    2.6720   -6.2910    0.1614 C   0  0  0  0  0  0  0  0  0  0  0  0
    2.7700   -5.0367    0.2179 O   0  0  0  0  0  0  0  0  0  0  0  0
    2.1833   -7.1429    1.2294 C   0  0  0  0  0  0  0  0  0  0  0  0
    1.5979   -6.7749    2.4488 C   0  0  0  0  0  0  0  0  0  0  0  0
    1.4292   -5.0910    2.9305 Cl  0  0  0  0  0  0  0  0  0  0  0  0
    1.0772   -7.7839    3.2687 C   0  0  0  0  0  0  0  0  0  0  0  0
    1.1197   -9.1251    2.8557 C   0  0  0  0  0  0  0  0  0  0  0  0
    1.7023   -9.4763    1.6288 C   0  0  0  0  0  0  0  0  0  0  0  0
    2.2649   -8.4696    0.8255 C   0  0  0  0  0  0  0  0  0  0  0  0
    2.8915   -8.5554   -0.5272 C   0  0  0  0  0  0  0  0  0  0  0  0
    3.4102   -9.6637   -1.1142 C   0  0  0  0  0  0  0  0  0  0  0  0
    4.1534   -9.6179   -2.3450 C   0  0  0  0  0  0  0  0  0  0  0  0
    4.7556   -9.5950   -3.3330 N   0  0  0  0  0  0  0  0  0  0  0  0
    3.3796  -10.9561   -0.4841 C   0  0  0  0  0  0  0  0  0  0  0  0
    3.3725  -12.0057    0.0077 N   0  0  0  0  0  0  0  0  0  0  0  0
   -4.1955    6.5930    1.3032 H   0  0  0  0  0  0  0  0  0  0  0  0
   -3.4548    1.3678    4.7383 H   0  0  0  0  0  0  0  0  0  0  0  0
   -6.6500    2.7245    7.2832 H   0  0  0  0  0  0  0  0  0  0  0  0
   -6.7813    4.8390    6.0278 H   0  0  0  0  0  0  0  0  0  0  0  0
   -0.6278    8.5185    1.6509 H   0  0  0  0  0  0  0  0  0  0  0  0
   -2.0597    7.5962    2.1732 H   0  0  0  0  0  0  0  0  0  0  0  0
    0.0250    6.9648    3.4460 H   0  0  0  0  0  0  0  0  0  0  0  0
    0.8034    6.4809    1.8917 H   0  0  0  0  0  0  0  0  0  0  0  0
   -0.6160    5.5598    2.5163 H   0  0  0  0  0  0  0  0  0  0  0  0
    6.3465   -3.3108   -1.1702 H   0  0  0  0  0  0  0  0  0  0  0  0
    6.9118   -3.3492   -2.8982 H   0  0  0  0  0  0  0  0  0  0  0  0
    8.6762   -4.1353   -1.2960 H   0  0  0  0  0  0  0  0  0  0  0  0
    8.1749   -5.4476   -2.4389 H   0  0  0  0  0  0  0  0  0  0  0  0
    7.5703   -5.4465   -0.7459 H   0  0  0  0  0  0  0  0  0  0  0  0
   -2.6684    1.2160   -1.3221 H   0  0  0  0  0  0  0  0  0  0  0  0
   -2.0354   -0.0432   -2.2870 H   0  0  0  0  0  0  0  0  0  0  0  0
   -0.0861   -0.3285   -0.5876 H   0  0  0  0  0  0  0  0  0  0  0  0
   -1.7182   -0.5226    0.1478 H   0  0  0  0  0  0  0  0  0  0  0  0
   -0.8190    1.0387    0.3542 H   0  0  0  0  0  0  0  0  0  0  0  0
   -0.1330   -2.6551   -3.9029 H   0  0  0  0  0  0  0  0  0  0  0  0
   -1.0596   -1.7968   -2.6980 H   0  0  0  0  0  0  0  0  0  0  0  0
   -1.8649   -1.4617   -5.0847 H   0  0  0  0  0  0  0  0  0  0  0  0
   -0.2326   -0.8464   -5.5551 H   0  0  0  0  0  0  0  0  0  0  0  0
   -1.2947    0.1293   -4.4631 H   0  0  0  0  0  0  0  0  0  0  0  0
    3.3178   -7.3810   -3.0725 H   0  0  0  0  0  0  0  0  0  0  0  0
    0.6109   -7.5299    4.2119 H   0  0  0  0  0  0  0  0  0  0  0  0
    0.6844   -9.8938    3.4840 H   0  0  0  0  0  0  0  0  0  0  0  0
    1.6599  -10.5058    1.3173 H   0  0  0  0  0  0  0  0  0  0  0  0
  1  2  2  3
  2  3  1  0
  3  4  2  0
  3  5  1  0
  5  6  2  0
  6  7  1  0
  7  8  1  0
  7  9  2  0
  9 10  1  0
 10 11  2  0
 11 12  1  0
 12 13  2  3
 13 14  1  0
 14 15  3  0
 13 16  1  0
 16 17  3  0
  1 18  1  0
 18 19  2  0
 19 20  1  0
 20 21  1  0
 21 22  1  0
 19 23  1  0
 23 24  1  0
 24 25  1  0
 25 26  1  0
 26 27  1  0
 27 28  1  0
 28 29  2  0
 29 30  1  0
 30 31  1  0
 28 32  1  0
 32 33  1  0
 33 34  1  0
 34 35  1  0
 35 36  1  0
 36 37  1  0
 37 38  1  0
 38 39  1  0
 36 40  2  0
 40 41  1  0
 41 42  1  0
 42 43  1  0
 43 44  1  0
 44 45  1  0
 45 46  1  0
 46 47  1  0
 47 48  1  0
 48 49  1  0
 49 50  1  0
 47 51  1  0
 51 52  1  0
 44 53  1  0
 53 54  1  0
 40 55  1  0
 55 56  2  3
 56 57  1  0
 57 58  2  0
 57 59  1  0
 59 60  2  0
 60 61  1  0
 60 62  1  0
 62 63  2  0
 63 64  1  0
 64 65  2  0
 65 66  1  0
 66 67  2  3
 67 68  1  0
 68 69  3  0
 67 70  1  0
 70 71  3  0
 12  2  1  0
 50 18  1  0
 66 56  1  0
 11  5  1  0
 49 23  2  0
 65 59  1  0
 48 25  2  0
 46 26  2  0
 31 27  2  0
 45 32  2  0
 43 33  2  0
 42 35  2  0
  1 72  1  0
  6 73  1  0
  9 74  1  0
 10 75  1  0
 21 76  1  0
 21 77  1  0
 22 78  1  0
 22 79  1  0
 22 80  1  0
 38 81  1  0
 38 82  1  0
 39 83  1  0
 39 84  1  0
 39 85  1  0
 51 86  1  0
 51 87  1  0
 52 88  1  0
 52 89  1  0
 52 90  1  0
 53 91  1  0
 53 92  1  0
 54 93  1  0
 54 94  1  0
 54 95  1  0
 55 96  1  0
 62 97  1  0
 63 98  1  0
 64 99  1  0
M  END

