
     RDKit          3D

103114  0  0  0  0  0  0  0  0999 V2000
   -6.1688    4.6041    2.8423 C   0  0  0  0  0  0  0  0  0  0  0  0
   -7.3539    4.0605    2.5041 C   0  0  0  0  0  0  0  0  0  0  0  0
   -7.6570    3.4217    1.2171 C   0  0  0  0  0  0  0  0  0  0  0  0
   -6.8206    3.0498    0.3507 O   0  0  0  0  0  0  0  0  0  0  0  0
   -9.0915    3.2927    1.0937 C   0  0  0  0  0  0  0  0  0  0  0  0
   -9.8264    2.8651   -0.0129 C   0  0  0  0  0  0  0  0  0  0  0  0
  -11.2246    2.9238    0.0529 C   0  0  0  0  0  0  0  0  0  0  0  0
  -11.9688    2.5252   -1.0082 F   0  0  0  0  0  0  0  0  0  0  0  0
  -11.8555    3.4327    1.2037 C   0  0  0  0  0  0  0  0  0  0  0  0
  -11.0962    3.8638    2.3037 C   0  0  0  0  0  0  0  0  0  0  0  0
   -9.6969    3.7585    2.2492 C   0  0  0  0  0  0  0  0  0  0  0  0
   -8.6530    4.1545    3.2412 C   0  0  0  0  0  0  0  0  0  0  0  0
   -8.8314    4.3497    4.5731 C   0  0  0  0  0  0  0  0  0  0  0  0
  -10.1225    4.2585    5.2034 C   0  0  0  0  0  0  0  0  0  0  0  0
  -11.1514    4.1868    5.7311 N   0  0  0  0  0  0  0  0  0  0  0  0
   -7.7315    4.5052    5.4882 C   0  0  0  0  0  0  0  0  0  0  0  0
   -6.8563    4.6234    6.2359 N   0  0  0  0  0  0  0  0  0  0  0  0
   -4.9946    4.5832    1.9560 C   0  0  0  0  0  0  0  0  0  0  0  0
   -4.8221    5.3556    0.7900 C   0  0  0  0  0  0  0  0  0  0  0  0
   -5.8027    6.3735    0.2721 C   0  0  0  0  0  0  0  0  0  0  0  0
   -5.5846    7.7208    0.9503 C   0  0  0  0  0  0  0  0  0  0  0  0
   -3.5636    5.1263    0.2340 C   0  0  0  0  0  0  0  0  0  0  0  0
   -2.7949    5.6822   -1.1829 S   0  0  0  0  0  0  0  0  0  0  0  0
   -1.4264    4.7439   -0.8296 C   0  0  0  0  0  0  0  0  0  0  0  0
   -0.3296    4.2796   -1.4905 C   0  0  0  0  0  0  0  0  0  0  0  0
    0.0657    4.4766   -2.8174 C   0  0  0  0  0  0  0  0  0  0  0  0
    1.0944    3.6567   -3.3545 C   0  0  0  0  0  0  0  0  0  0  0  0
    1.4127    3.8400   -4.6604 N   0  0  0  0  0  0  0  0  0  0  0  0
    0.3384    5.0412   -5.0438 S   0  0  0  0  0  0  0  0  0  0  0  0
   -0.5238    5.3552   -3.6648 N   0  0  0  0  0  0  0  0  0  0  0  0
    1.7026    2.7177   -2.5210 C   0  0  0  0  0  0  0  0  0  0  0  0
    2.7120    1.8330   -2.7588 C   0  0  0  0  0  0  0  0  0  0  0  0
    3.6175    1.2118   -4.0563 S   0  0  0  0  0  0  0  0  0  0  0  0
    4.3826    0.0995   -3.0095 C   0  0  0  0  0  0  0  0  0  0  0  0
    5.2170   -0.9978   -3.2349 C   0  0  0  0  0  0  0  0  0  0  0  0
    5.7055   -1.3883   -4.6044 C   0  0  0  0  0  0  0  0  0  0  0  0
    4.7588   -2.3940   -5.2495 C   0  0  0  0  0  0  0  0  0  0  0  0
    5.3916   -1.7562   -2.0532 C   0  0  0  0  0  0  0  0  0  0  0  0
    4.5208   -1.0148   -0.7804 S   0  0  0  0  0  0  0  0  0  0  0  0
    3.9330    0.2293   -1.7233 C   0  0  0  0  0  0  0  0  0  0  0  0
    2.9785    1.2211   -1.5878 C   0  0  0  0  0  0  0  0  0  0  0  0
    2.2100    1.6586   -0.5622 N   0  0  0  0  0  0  0  0  0  0  0  0
    1.3523    2.5540   -1.1643 C   0  0  0  0  0  0  0  0  0  0  0  0
    0.2349    3.2909   -0.6603 C   0  0  0  0  0  0  0  0  0  0  0  0
   -0.5762    3.0764    0.4369 N   0  0  0  0  0  0  0  0  0  0  0  0
   -1.5557    4.0100    0.3001 C   0  0  0  0  0  0  0  0  0  0  0  0
   -2.7842    4.2238    0.9150 C   0  0  0  0  0  0  0  0  0  0  0  0
   -3.6030    3.6535    2.2651 S   0  0  0  0  0  0  0  0  0  0  0  0
   -0.6673    1.9111    1.3272 C   0  0  0  0  0  0  0  0  0  0  0  0
   -0.9104    0.6179    0.5472 C   0  0  0  0  0  0  0  0  0  0  0  0
    2.5850    1.4881    0.8490 C   0  0  0  0  0  0  0  0  0  0  0  0
    2.7869    2.8320    1.5525 C   0  0  0  0  0  0  0  0  0  0  0  0
    6.1465   -3.0337   -1.9731 C   0  0  0  0  0  0  0  0  0  0  0  0
    6.0123   -3.9735   -1.0152 C   0  0  0  0  0  0  0  0  0  0  0  0
    5.0286   -3.9415    0.3453 S   0  0  0  0  0  0  0  0  0  0  0  0
    5.4250   -5.4889    0.8970 C   0  0  0  0  0  0  0  0  0  0  0  0
    4.8333   -6.0489    1.9868 C   0  0  0  0  0  0  0  0  0  0  0  0
    4.9913   -7.4215    2.3929 C   0  0  0  0  0  0  0  0  0  0  0  0
    5.1050   -8.5259    2.7201 N   0  0  0  0  0  0  0  0  0  0  0  0
    3.9035   -5.2820    2.7783 C   0  0  0  0  0  0  0  0  0  0  0  0
    3.1584   -4.6681    3.4156 N   0  0  0  0  0  0  0  0  0  0  0  0
    6.3472   -6.0505    0.0428 N   0  0  0  0  0  0  0  0  0  0  0  0
    6.9773   -7.3798    0.1475 C   0  0  0  0  0  0  0  0  0  0  0  0
    6.2339   -8.4298   -0.6517 C   0  0  0  0  0  0  0  0  0  0  0  0
    6.9455   -9.5235   -1.1806 C   0  0  0  0  0  0  0  0  0  0  0  0
    6.2822  -10.5177   -1.9052 C   0  0  0  0  0  0  0  0  0  0  0  0
    4.9001  -10.4431   -2.0970 C   0  0  0  0  0  0  0  0  0  0  0  0
    4.1787   -9.3759   -1.5578 C   0  0  0  0  0  0  0  0  0  0  0  0
    4.8360   -8.3765   -0.8344 C   0  0  0  0  0  0  0  0  0  0  0  0
    6.6556   -5.2137   -1.0048 C   0  0  0  0  0  0  0  0  0  0  0  0
    7.4564   -5.5577   -1.9184 O   0  0  0  0  0  0  0  0  0  0  0  0
   -6.0471    5.1367    3.7686 H   0  0  0  0  0  0  0  0  0  0  0  0
   -9.3283    2.5233   -0.9104 H   0  0  0  0  0  0  0  0  0  0  0  0
  -12.9336    3.5103    1.2362 H   0  0  0  0  0  0  0  0  0  0  0  0
  -11.6074    4.3000    3.1458 H   0  0  0  0  0  0  0  0  0  0  0  0
   -6.8447    6.0386    0.4581 H   0  0  0  0  0  0  0  0  0  0  0  0
   -5.6859    6.4878   -0.8262 H   0  0  0  0  0  0  0  0  0  0  0  0
   -4.5589    8.0935    0.7408 H   0  0  0  0  0  0  0  0  0  0  0  0
   -5.7227    7.6302    2.0474 H   0  0  0  0  0  0  0  0  0  0  0  0
   -6.3228    8.4548    0.5668 H   0  0  0  0  0  0  0  0  0  0  0  0
    6.7293   -1.8147   -4.5489 H   0  0  0  0  0  0  0  0  0  0  0  0
    5.7689   -0.4884   -5.2525 H   0  0  0  0  0  0  0  0  0  0  0  0
    5.1498   -2.6876   -6.2442 H   0  0  0  0  0  0  0  0  0  0  0  0
    4.6726   -3.3032   -4.6210 H   0  0  0  0  0  0  0  0  0  0  0  0
    3.7548   -1.9421   -5.3845 H   0  0  0  0  0  0  0  0  0  0  0  0
    0.2000    1.8561    2.0018 H   0  0  0  0  0  0  0  0  0  0  0  0
   -1.5130    2.0286    2.0267 H   0  0  0  0  0  0  0  0  0  0  0  0
   -1.0347   -0.2237    1.2618 H   0  0  0  0  0  0  0  0  0  0  0  0
   -1.8374    0.7116   -0.0587 H   0  0  0  0  0  0  0  0  0  0  0  0
   -0.0601    0.3791   -0.1239 H   0  0  0  0  0  0  0  0  0  0  0  0
    1.8822    0.8151    1.3657 H   0  0  0  0  0  0  0  0  0  0  0  0
    3.5598    0.9610    0.9199 H   0  0  0  0  0  0  0  0  0  0  0  0
    1.8519    3.4280    1.5868 H   0  0  0  0  0  0  0  0  0  0  0  0
    3.5640    3.4229    1.0159 H   0  0  0  0  0  0  0  0  0  0  0  0
    3.1228    2.6560    2.5971 H   0  0  0  0  0  0  0  0  0  0  0  0
    6.8185   -3.2540   -2.7928 H   0  0  0  0  0  0  0  0  0  0  0  0
    7.1188   -7.6908    1.1966 H   0  0  0  0  0  0  0  0  0  0  0  0
    8.0205   -7.3122   -0.2266 H   0  0  0  0  0  0  0  0  0  0  0  0
    8.0156   -9.6000   -1.0438 H   0  0  0  0  0  0  0  0  0  0  0  0
    6.8388  -11.3558   -2.3074 H   0  0  0  0  0  0  0  0  0  0  0  0
    4.3894  -11.2132   -2.6609 H   0  0  0  0  0  0  0  0  0  0  0  0
    3.1063   -9.3255   -1.6966 H   0  0  0  0  0  0  0  0  0  0  0  0
    4.2448   -7.5733   -0.4207 H   0  0  0  0  0  0  0  0  0  0  0  0
  1  2  2  3
  2  3  1  0
  3  4  2  0
  3  5  1  0
  5  6  2  0
  6  7  1  0
  7  8  1  0
  7  9  2  0
  9 10  1  0
 10 11  2  0
 11 12  1  0
 12 13  2  3
 13 14  1  0
 14 15  3  0
 13 16  1  0
 16 17  3  0
  1 18  1  0
 18 19  2  0
 19 20  1  0
 20 21  1  0
 19 22  1  0
 22 23  1  0
 23 24  1  0
 24 25  1  0
 25 26  1  0
 26 27  1  0
 27 28  2  0
 28 29  1  0
 29 30  1  0
 27 31  1  0
 31 32  1  0
 32 33  1  0
 33 34  1  0
 34 35  1  0
 35 36  1  0
 36 37  1  0
 35 38  2  0
 38 39  1  0
 39 40  1  0
 40 41  1  0
 41 42  1  0
 42 43  1  0
 43 44  1  0
 44 45  1  0
 45 46  1  0
 46 47  1  0
 47 48  1  0
 45 49  1  0
 49 50  1  0
 42 51  1  0
 51 52  1  0
 38 53  1  0
 53 54  2  3
 54 55  1  0
 55 56  1  0
 56 57  2  3
 57 58  1  0
 58 59  3  0
 57 60  1  0
 60 61  3  0
 56 62  1  0
 62 63  1  0
 63 64  1  0
 64 65  2  0
 65 66  1  0
 66 67  2  0
 67 68  1  0
 68 69  2  0
 62 70  1  0
 70 71  2  0
 12  2  1  0
 48 18  1  0
 70 54  1  0
 11  5  1  0
 47 22  2  0
 69 64  1  0
 46 24  2  0
 44 25  2  0
 30 26  2  0
 43 31  2  0
 41 32  2  0
 40 34  2  0
  1 72  1  0
  6 73  1  0
  9 74  1  0
 10 75  1  0
 20 76  1  0
 20 77  1  0
 21 78  1  0
 21 79  1  0
 21 80  1  0
 36 81  1  0
 36 82  1  0
 37 83  1  0
 37 84  1  0
 37 85  1  0
 49 86  1  0
 49 87  1  0
 50 88  1  0
 50 89  1  0
 50 90  1  0
 51 91  1  0
 51 92  1  0
 52 93  1  0
 52 94  1  0
 52 95  1  0
 53 96  1  0
 63 97  1  0
 63 98  1  0
 65 99  1  0
 66100  1  0
 67101  1  0
 68102  1  0
 69103  1  0
M  END

