
     RDKit          3D

 97108  0  0  0  0  0  0  0  0999 V2000
    4.1094   -6.7142    2.8079 C   0  0  0  0  0  0  0  0  0  0  0  0
    3.7328   -7.8996    2.2905 C   0  0  0  0  0  0  0  0  0  0  0  0
    3.0884   -8.0820    0.9859 C   0  0  0  0  0  0  0  0  0  0  0  0
    2.5387   -7.1810    0.2962 O   0  0  0  0  0  0  0  0  0  0  0  0
    3.1756   -9.4792    0.6177 C   0  0  0  0  0  0  0  0  0  0  0  0
    2.6856  -10.1001   -0.5345 C   0  0  0  0  0  0  0  0  0  0  0  0
    2.8496  -11.4854   -0.6663 C   0  0  0  0  0  0  0  0  0  0  0  0
    2.3691  -12.1226   -1.7650 F   0  0  0  0  0  0  0  0  0  0  0  0
    3.4798  -12.2242    0.3547 C   0  0  0  0  0  0  0  0  0  0  0  0
    3.9488  -11.5844    1.5131 C   0  0  0  0  0  0  0  0  0  0  0  0
    3.8167  -10.1888    1.6241 C   0  0  0  0  0  0  0  0  0  0  0  0
    4.1649   -9.2632    2.7450 C   0  0  0  0  0  0  0  0  0  0  0  0
    4.7249   -9.5948    3.9432 C   0  0  0  0  0  0  0  0  0  0  0  0
    5.3540  -10.8624    4.1846 C   0  0  0  0  0  0  0  0  0  0  0  0
    5.8819  -11.8759    4.3748 N   0  0  0  0  0  0  0  0  0  0  0  0
    4.7245   -8.7043    5.0668 C   0  0  0  0  0  0  0  0  0  0  0  0
    4.7169   -7.9927    5.9813 N   0  0  0  0  0  0  0  0  0  0  0  0
    3.9279   -5.4326    2.1181 C   0  0  0  0  0  0  0  0  0  0  0  0
    4.9403   -4.7466    1.4188 C   0  0  0  0  0  0  0  0  0  0  0  0
    6.3150   -5.2902    1.1502 C   0  0  0  0  0  0  0  0  0  0  0  0
    7.2270   -5.1000    2.3551 C   0  0  0  0  0  0  0  0  0  0  0  0
    4.4854   -3.4980    0.9986 C   0  0  0  0  0  0  0  0  0  0  0  0
    5.1968   -2.2102    0.1348 S   0  0  0  0  0  0  0  0  0  0  0  0
    3.7589   -1.3195    0.2112 C   0  0  0  0  0  0  0  0  0  0  0  0
    3.2686   -0.1043   -0.1522 C   0  0  0  0  0  0  0  0  0  0  0  0
    3.8988    0.9886   -0.7438 C   0  0  0  0  0  0  0  0  0  0  0  0
    3.1404    2.1737   -0.9557 C   0  0  0  0  0  0  0  0  0  0  0  0
    3.7826    3.2077   -1.5496 N   0  0  0  0  0  0  0  0  0  0  0  0
    5.2850    2.5367   -1.7456 S   0  0  0  0  0  0  0  0  0  0  0  0
    5.2027    1.0082   -1.1220 N   0  0  0  0  0  0  0  0  0  0  0  0
    1.7822    2.1799   -0.6071 C   0  0  0  0  0  0  0  0  0  0  0  0
    0.7940    3.0706   -0.9238 C   0  0  0  0  0  0  0  0  0  0  0  0
    0.6225    4.4738   -1.8738 S   0  0  0  0  0  0  0  0  0  0  0  0
   -1.0783    4.2874   -1.8800 C   0  0  0  0  0  0  0  0  0  0  0  0
   -2.1056    4.9524   -2.5592 C   0  0  0  0  0  0  0  0  0  0  0  0
   -1.8891    6.0900   -3.5226 C   0  0  0  0  0  0  0  0  0  0  0  0
   -1.5125    5.5718   -4.9084 C   0  0  0  0  0  0  0  0  0  0  0  0
   -3.3325    4.2923   -2.3664 C   0  0  0  0  0  0  0  0  0  0  0  0
   -3.0975    2.8823   -1.4468 S   0  0  0  0  0  0  0  0  0  0  0  0
   -1.4627    3.1577   -1.1998 C   0  0  0  0  0  0  0  0  0  0  0  0
   -0.3880    2.4681   -0.6506 C   0  0  0  0  0  0  0  0  0  0  0  0
   -0.2388    1.2201   -0.1318 N   0  0  0  0  0  0  0  0  0  0  0  0
    1.1291    1.0606   -0.0475 C   0  0  0  0  0  0  0  0  0  0  0  0
    1.9314   -0.0797    0.2791 C   0  0  0  0  0  0  0  0  0  0  0  0
    1.6493   -1.2248    1.0008 N   0  0  0  0  0  0  0  0  0  0  0  0
    2.7799   -1.9628    0.8791 C   0  0  0  0  0  0  0  0  0  0  0  0
    3.1882   -3.2097    1.3435 C   0  0  0  0  0  0  0  0  0  0  0  0
    2.5082   -4.4911    2.1987 S   0  0  0  0  0  0  0  0  0  0  0  0
    0.5975   -1.5020    1.9928 C   0  0  0  0  0  0  0  0  0  0  0  0
    0.4165   -0.3483    2.9795 C   0  0  0  0  0  0  0  0  0  0  0  0
   -1.3100    0.2223   -0.0780 C   0  0  0  0  0  0  0  0  0  0  0  0
   -1.1093   -0.8647   -1.1349 C   0  0  0  0  0  0  0  0  0  0  0  0
   -4.5554    4.4734   -3.1433 C   0  0  0  0  0  0  0  0  0  0  0  0
   -5.4564    5.4636   -3.0637 C   0  0  0  0  0  0  0  0  0  0  0  0
   -6.5800    5.5135   -4.0077 C   0  0  0  0  0  0  0  0  0  0  0  0
   -6.8567    4.6431   -4.8799 O   0  0  0  0  0  0  0  0  0  0  0  0
   -7.2841    6.7654   -3.8399 C   0  0  0  0  0  0  0  0  0  0  0  0
   -8.3527    7.2626   -4.5950 C   0  0  0  0  0  0  0  0  0  0  0  0
   -8.8026    8.5667   -4.3223 C   0  0  0  0  0  0  0  0  0  0  0  0
  -10.2688    9.2936   -5.3067 Br  0  0  0  0  0  0  0  0  0  0  0  0
   -8.1433    9.3570   -3.3663 C   0  0  0  0  0  0  0  0  0  0  0  0
   -7.0756    8.8299   -2.6274 C   0  0  0  0  0  0  0  0  0  0  0  0
   -6.6786    7.4979   -2.8390 C   0  0  0  0  0  0  0  0  0  0  0  0
   -5.5860    6.6970   -2.1965 C   0  0  0  0  0  0  0  0  0  0  0  0
   -5.0894    6.9449   -0.9522 C   0  0  0  0  0  0  0  0  0  0  0  0
   -4.1320    6.1179   -0.2623 C   0  0  0  0  0  0  0  0  0  0  0  0
   -3.3492    5.5093    0.3527 N   0  0  0  0  0  0  0  0  0  0  0  0
   -5.6023    8.0096   -0.1218 C   0  0  0  0  0  0  0  0  0  0  0  0
   -6.0294    8.8404    0.5691 N   0  0  0  0  0  0  0  0  0  0  0  0
    4.7436   -6.6704    3.6711 H   0  0  0  0  0  0  0  0  0  0  0  0
    2.1942   -9.5259   -1.3062 H   0  0  0  0  0  0  0  0  0  0  0  0
    3.5815  -13.2908    0.2517 H   0  0  0  0  0  0  0  0  0  0  0  0
    4.3618  -12.1921    2.2932 H   0  0  0  0  0  0  0  0  0  0  0  0
    6.2381   -6.3703    0.9180 H   0  0  0  0  0  0  0  0  0  0  0  0
    6.7613   -4.7807    0.2652 H   0  0  0  0  0  0  0  0  0  0  0  0
    6.8243   -5.6497    3.2352 H   0  0  0  0  0  0  0  0  0  0  0  0
    7.3097   -4.0224    2.6075 H   0  0  0  0  0  0  0  0  0  0  0  0
    8.2369   -5.4951    2.1101 H   0  0  0  0  0  0  0  0  0  0  0  0
   -1.0780    6.7508   -3.1456 H   0  0  0  0  0  0  0  0  0  0  0  0
   -2.8106    6.7117   -3.6005 H   0  0  0  0  0  0  0  0  0  0  0  0
   -1.3566    6.4297   -5.5959 H   0  0  0  0  0  0  0  0  0  0  0  0
   -2.3210    4.9199   -5.3078 H   0  0  0  0  0  0  0  0  0  0  0  0
   -0.5639    4.9929   -4.8661 H   0  0  0  0  0  0  0  0  0  0  0  0
   -0.3355   -1.8249    1.5007 H   0  0  0  0  0  0  0  0  0  0  0  0
    0.8719   -2.3693    2.6269 H   0  0  0  0  0  0  0  0  0  0  0  0
   -0.3907   -0.5992    3.6995 H   0  0  0  0  0  0  0  0  0  0  0  0
    1.3592   -0.1873    3.5450 H   0  0  0  0  0  0  0  0  0  0  0  0
    0.1491    0.6007    2.4784 H   0  0  0  0  0  0  0  0  0  0  0  0
   -2.3004    0.6862   -0.2655 H   0  0  0  0  0  0  0  0  0  0  0  0
   -1.4309   -0.1765    0.9384 H   0  0  0  0  0  0  0  0  0  0  0  0
   -1.0575   -0.3988   -2.1365 H   0  0  0  0  0  0  0  0  0  0  0  0
   -1.9681   -1.5681   -1.1169 H   0  0  0  0  0  0  0  0  0  0  0  0
   -0.1796   -1.4378   -0.9485 H   0  0  0  0  0  0  0  0  0  0  0  0
   -4.7583    3.6728   -3.8478 H   0  0  0  0  0  0  0  0  0  0  0  0
   -8.8165    6.6652   -5.3715 H   0  0  0  0  0  0  0  0  0  0  0  0
   -8.4660   10.3822   -3.1895 H   0  0  0  0  0  0  0  0  0  0  0  0
   -6.5615    9.4832   -1.9480 H   0  0  0  0  0  0  0  0  0  0  0  0
  1  2  2  3
  2  3  1  0
  3  4  2  0
  3  5  1  0
  5  6  2  0
  6  7  1  0
  7  8  1  0
  7  9  2  0
  9 10  1  0
 10 11  2  0
 11 12  1  0
 12 13  2  3
 13 14  1  0
 14 15  3  0
 13 16  1  0
 16 17  3  0
  1 18  1  0
 18 19  2  0
 19 20  1  0
 20 21  1  0
 19 22  1  0
 22 23  1  0
 23 24  1  0
 24 25  1  0
 25 26  1  0
 26 27  1  0
 27 28  2  0
 28 29  1  0
 29 30  1  0
 27 31  1  0
 31 32  1  0
 32 33  1  0
 33 34  1  0
 34 35  1  0
 35 36  1  0
 36 37  1  0
 35 38  2  0
 38 39  1  0
 39 40  1  0
 40 41  1  0
 41 42  1  0
 42 43  1  0
 43 44  1  0
 44 45  1  0
 45 46  1  0
 46 47  1  0
 47 48  1  0
 45 49  1  0
 49 50  1  0
 42 51  1  0
 51 52  1  0
 38 53  1  0
 53 54  2  3
 54 55  1  0
 55 56  2  0
 55 57  1  0
 57 58  2  0
 58 59  1  0
 59 60  1  0
 59 61  2  0
 61 62  1  0
 62 63  2  0
 63 64  1  0
 64 65  2  3
 65 66  1  0
 66 67  3  0
 65 68  1  0
 68 69  3  0
 12  2  1  0
 48 18  1  0
 64 54  1  0
 11  5  1  0
 47 22  2  0
 63 57  1  0
 46 24  2  0
 44 25  2  0
 30 26  2  0
 43 31  2  0
 41 32  2  0
 40 34  2  0
  1 70  1  0
  6 71  1  0
  9 72  1  0
 10 73  1  0
 20 74  1  0
 20 75  1  0
 21 76  1  0
 21 77  1  0
 21 78  1  0
 36 79  1  0
 36 80  1  0
 37 81  1  0
 37 82  1  0
 37 83  1  0
 49 84  1  0
 49 85  1  0
 50 86  1  0
 50 87  1  0
 50 88  1  0
 51 89  1  0
 51 90  1  0
 52 91  1  0
 52 92  1  0
 52 93  1  0
 53 94  1  0
 58 95  1  0
 61 96  1  0
 62 97  1  0
M  END

