
     RDKit          3D

 97108  0  0  0  0  0  0  0  0999 V2000
    2.1929    0.5730   -7.4442 C   0  0  0  0  0  0  0  0  0  0  0  0
    3.4972    0.6123   -7.7788 C   0  0  0  0  0  0  0  0  0  0  0  0
    4.5637    1.2224   -6.9639 C   0  0  0  0  0  0  0  0  0  0  0  0
    4.4559    1.6507   -5.7796 O   0  0  0  0  0  0  0  0  0  0  0  0
    5.7604    1.3002   -7.7707 C   0  0  0  0  0  0  0  0  0  0  0  0
    6.9661    1.9261   -7.4616 C   0  0  0  0  0  0  0  0  0  0  0  0
    7.9400    2.0203   -8.4596 C   0  0  0  0  0  0  0  0  0  0  0  0
    9.1199    2.6263   -8.1936 F   0  0  0  0  0  0  0  0  0  0  0  0
    7.6888    1.5180   -9.7449 C   0  0  0  0  0  0  0  0  0  0  0  0
    6.4701    0.8892  -10.0359 C   0  0  0  0  0  0  0  0  0  0  0  0
    5.5169    0.7467   -9.0180 C   0  0  0  0  0  0  0  0  0  0  0  0
    4.1381    0.1821   -9.0637 C   0  0  0  0  0  0  0  0  0  0  0  0
    3.6645   -0.7138   -9.9704 C   0  0  0  0  0  0  0  0  0  0  0  0
    2.3501   -1.2856   -9.8941 C   0  0  0  0  0  0  0  0  0  0  0  0
    1.2960   -1.7610   -9.8414 N   0  0  0  0  0  0  0  0  0  0  0  0
    4.4926   -1.2549  -11.0122 C   0  0  0  0  0  0  0  0  0  0  0  0
    5.1561   -1.7201  -11.8347 N   0  0  0  0  0  0  0  0  0  0  0  0
    1.6970    1.0896   -6.1607 C   0  0  0  0  0  0  0  0  0  0  0  0
    1.4785    2.4483   -5.8576 C   0  0  0  0  0  0  0  0  0  0  0  0
    1.5251    3.5702   -6.8568 C   0  0  0  0  0  0  0  0  0  0  0  0
    0.2467    3.6110   -7.6844 C   0  0  0  0  0  0  0  0  0  0  0  0
    1.1448    2.6009   -4.5144 C   0  0  0  0  0  0  0  0  0  0  0  0
    0.7660    3.9470   -3.5337 S   0  0  0  0  0  0  0  0  0  0  0  0
    0.6237    2.9406   -2.1749 C   0  0  0  0  0  0  0  0  0  0  0  0
    0.1109    3.0043   -0.9126 C   0  0  0  0  0  0  0  0  0  0  0  0
   -0.5050    4.0489   -0.2063 C   0  0  0  0  0  0  0  0  0  0  0  0
   -1.1608    3.7540    1.0249 C   0  0  0  0  0  0  0  0  0  0  0  0
   -1.7562    4.7853    1.6727 N   0  0  0  0  0  0  0  0  0  0  0  0
   -1.4029    6.0136    0.6168 S   0  0  0  0  0  0  0  0  0  0  0  0
   -0.5361    5.3388   -0.6239 N   0  0  0  0  0  0  0  0  0  0  0  0
   -1.1450    2.4343    1.4897 C   0  0  0  0  0  0  0  0  0  0  0  0
   -1.5740    1.8726    2.6582 C   0  0  0  0  0  0  0  0  0  0  0  0
   -2.2858    2.3296    4.1296 S   0  0  0  0  0  0  0  0  0  0  0  0
   -2.0004    0.7762    4.7816 C   0  0  0  0  0  0  0  0  0  0  0  0
   -2.2772    0.1744    6.0065 C   0  0  0  0  0  0  0  0  0  0  0  0
   -3.0131    0.8520    7.1271 C   0  0  0  0  0  0  0  0  0  0  0  0
   -4.5180    0.6619    6.9699 C   0  0  0  0  0  0  0  0  0  0  0  0
   -1.8871   -1.1765    5.9931 C   0  0  0  0  0  0  0  0  0  0  0  0
   -1.1265   -1.5673    4.5123 S   0  0  0  0  0  0  0  0  0  0  0  0
   -1.3508   -0.0309    3.8841 C   0  0  0  0  0  0  0  0  0  0  0  0
   -1.1053    0.6004    2.6769 C   0  0  0  0  0  0  0  0  0  0  0  0
   -0.3643    0.2834    1.5853 N   0  0  0  0  0  0  0  0  0  0  0  0
   -0.4695    1.4077    0.8099 C   0  0  0  0  0  0  0  0  0  0  0  0
    0.0900    1.6783   -0.4582 C   0  0  0  0  0  0  0  0  0  0  0  0
    0.4349    0.8028   -1.4560 N   0  0  0  0  0  0  0  0  0  0  0  0
    0.8242    1.6306   -2.4598 C   0  0  0  0  0  0  0  0  0  0  0  0
    1.0988    1.4299   -3.8016 C   0  0  0  0  0  0  0  0  0  0  0  0
    1.4701    0.1192   -4.7764 S   0  0  0  0  0  0  0  0  0  0  0  0
   -0.1520   -0.5269   -1.6889 C   0  0  0  0  0  0  0  0  0  0  0  0
   -1.5663   -0.3842   -2.2433 C   0  0  0  0  0  0  0  0  0  0  0  0
    0.7712   -0.6557    1.6080 C   0  0  0  0  0  0  0  0  0  0  0  0
    1.8340   -0.2228    2.6205 C   0  0  0  0  0  0  0  0  0  0  0  0
   -2.1027   -2.1288    7.0908 C   0  0  0  0  0  0  0  0  0  0  0  0
   -2.9368   -3.1809    6.9923 C   0  0  0  0  0  0  0  0  0  0  0  0
   -3.9074   -3.4028    5.9097 C   0  0  0  0  0  0  0  0  0  0  0  0
   -3.9752   -2.7664    4.8224 O   0  0  0  0  0  0  0  0  0  0  0  0
   -4.8775   -4.3805    6.3571 C   0  0  0  0  0  0  0  0  0  0  0  0
   -6.0410   -4.8066    5.7127 C   0  0  0  0  0  0  0  0  0  0  0  0
   -6.3479   -4.3644    4.4666 F   0  0  0  0  0  0  0  0  0  0  0  0
   -6.9031   -5.6781    6.3895 C   0  0  0  0  0  0  0  0  0  0  0  0
   -6.6019   -6.0847    7.7007 C   0  0  0  0  0  0  0  0  0  0  0  0
   -5.4344   -5.6349    8.3388 C   0  0  0  0  0  0  0  0  0  0  0  0
   -4.5529   -4.7963    7.6382 C   0  0  0  0  0  0  0  0  0  0  0  0
   -3.2786   -4.1541    8.0713 C   0  0  0  0  0  0  0  0  0  0  0  0
   -2.4802   -4.5416    9.1013 C   0  0  0  0  0  0  0  0  0  0  0  0
   -1.1495   -4.0167    9.2773 C   0  0  0  0  0  0  0  0  0  0  0  0
   -0.0765   -3.6122    9.4340 N   0  0  0  0  0  0  0  0  0  0  0  0
   -2.8476   -5.5963   10.0204 C   0  0  0  0  0  0  0  0  0  0  0  0
   -3.1255   -6.4413   10.7643 N   0  0  0  0  0  0  0  0  0  0  0  0
    1.4408    0.2136   -8.1279 H   0  0  0  0  0  0  0  0  0  0  0  0
    7.1371    2.3548   -6.4847 H   0  0  0  0  0  0  0  0  0  0  0  0
    8.4274    1.6289  -10.5242 H   0  0  0  0  0  0  0  0  0  0  0  0
    6.2820    0.5621  -11.0408 H   0  0  0  0  0  0  0  0  0  0  0  0
    1.6587    4.5427   -6.3417 H   0  0  0  0  0  0  0  0  0  0  0  0
    2.3923    3.4332   -7.5318 H   0  0  0  0  0  0  0  0  0  0  0  0
    0.1264    2.6639   -8.2541 H   0  0  0  0  0  0  0  0  0  0  0  0
    0.2931    4.4560   -8.4087 H   0  0  0  0  0  0  0  0  0  0  0  0
   -0.6345    3.7519   -7.0239 H   0  0  0  0  0  0  0  0  0  0  0  0
   -2.7761    1.9391    7.1343 H   0  0  0  0  0  0  0  0  0  0  0  0
   -2.6940    0.4284    8.1026 H   0  0  0  0  0  0  0  0  0  0  0  0
   -5.0485    1.1816    7.7995 H   0  0  0  0  0  0  0  0  0  0  0  0
   -4.8659    1.0912    6.0024 H   0  0  0  0  0  0  0  0  0  0  0  0
   -4.7758   -0.4210    7.0003 H   0  0  0  0  0  0  0  0  0  0  0  0
    0.4788   -1.0989   -2.4018 H   0  0  0  0  0  0  0  0  0  0  0  0
   -0.2200   -1.1297   -0.7660 H   0  0  0  0  0  0  0  0  0  0  0  0
   -2.2307    0.0240   -1.4484 H   0  0  0  0  0  0  0  0  0  0  0  0
   -1.5912    0.3089   -3.1185 H   0  0  0  0  0  0  0  0  0  0  0  0
   -1.9400   -1.3797   -2.5597 H   0  0  0  0  0  0  0  0  0  0  0  0
    0.4118   -1.6771    1.8567 H   0  0  0  0  0  0  0  0  0  0  0  0
    1.2925   -0.6888    0.6324 H   0  0  0  0  0  0  0  0  0  0  0  0
    1.4356   -0.2644    3.6566 H   0  0  0  0  0  0  0  0  0  0  0  0
    2.7034   -0.9149    2.5618 H   0  0  0  0  0  0  0  0  0  0  0  0
    2.1843    0.8118    2.4042 H   0  0  0  0  0  0  0  0  0  0  0  0
   -1.6515   -1.8786    8.0382 H   0  0  0  0  0  0  0  0  0  0  0  0
   -7.8148   -6.0135    5.9104 H   0  0  0  0  0  0  0  0  0  0  0  0
   -7.2831   -6.7362    8.2321 H   0  0  0  0  0  0  0  0  0  0  0  0
   -5.2735   -5.9263    9.3610 H   0  0  0  0  0  0  0  0  0  0  0  0
  1  2  2  3
  2  3  1  0
  3  4  2  0
  3  5  1  0
  5  6  2  0
  6  7  1  0
  7  8  1  0
  7  9  2  0
  9 10  1  0
 10 11  2  0
 11 12  1  0
 12 13  2  3
 13 14  1  0
 14 15  3  0
 13 16  1  0
 16 17  3  0
  1 18  1  0
 18 19  2  0
 19 20  1  0
 20 21  1  0
 19 22  1  0
 22 23  1  0
 23 24  1  0
 24 25  1  0
 25 26  1  0
 26 27  1  0
 27 28  2  0
 28 29  1  0
 29 30  1  0
 27 31  1  0
 31 32  1  0
 32 33  1  0
 33 34  1  0
 34 35  1  0
 35 36  1  0
 36 37  1  0
 35 38  2  0
 38 39  1  0
 39 40  1  0
 40 41  1  0
 41 42  1  0
 42 43  1  0
 43 44  1  0
 44 45  1  0
 45 46  1  0
 46 47  1  0
 47 48  1  0
 45 49  1  0
 49 50  1  0
 42 51  1  0
 51 52  1  0
 38 53  1  0
 53 54  2  3
 54 55  1  0
 55 56  2  0
 55 57  1  0
 57 58  2  0
 58 59  1  0
 58 60  1  0
 60 61  2  0
 61 62  1  0
 62 63  2  0
 63 64  1  0
 64 65  2  3
 65 66  1  0
 66 67  3  0
 65 68  1  0
 68 69  3  0
 12  2  1  0
 48 18  1  0
 64 54  1  0
 11  5  1  0
 47 22  2  0
 63 57  1  0
 46 24  2  0
 44 25  2  0
 30 26  2  0
 43 31  2  0
 41 32  2  0
 40 34  2  0
  1 70  1  0
  6 71  1  0
  9 72  1  0
 10 73  1  0
 20 74  1  0
 20 75  1  0
 21 76  1  0
 21 77  1  0
 21 78  1  0
 36 79  1  0
 36 80  1  0
 37 81  1  0
 37 82  1  0
 37 83  1  0
 49 84  1  0
 49 85  1  0
 50 86  1  0
 50 87  1  0
 50 88  1  0
 51 89  1  0
 51 90  1  0
 52 91  1  0
 52 92  1  0
 52 93  1  0
 53 94  1  0
 60 95  1  0
 61 96  1  0
 62 97  1  0
M  END

