
     RDKit          3D

 97108  0  0  0  0  0  0  0  0999 V2000
    7.0422    1.8192    3.5004 C   0  0  0  0  0  0  0  0  0  0  0  0
    7.3208    0.6086    4.0153 C   0  0  0  0  0  0  0  0  0  0  0  0
    8.1610    0.4659    5.2072 C   0  0  0  0  0  0  0  0  0  0  0  0
    9.0898    1.2409    5.5577 O   0  0  0  0  0  0  0  0  0  0  0  0
    7.6519   -0.6436    5.9885 C   0  0  0  0  0  0  0  0  0  0  0  0
    8.0156   -1.0485    7.2723 C   0  0  0  0  0  0  0  0  0  0  0  0
    7.2915   -2.0894    7.8704 C   0  0  0  0  0  0  0  0  0  0  0  0
    7.6187   -2.5060    9.1162 F   0  0  0  0  0  0  0  0  0  0  0  0
    6.2133   -2.6861    7.1894 C   0  0  0  0  0  0  0  0  0  0  0  0
    5.8578   -2.2580    5.9008 C   0  0  0  0  0  0  0  0  0  0  0  0
    6.6075   -1.2385    5.3007 C   0  0  0  0  0  0  0  0  0  0  0  0
    6.4676   -0.6067    3.9663 C   0  0  0  0  0  0  0  0  0  0  0  0
    6.1578   -1.2762    2.8300 C   0  0  0  0  0  0  0  0  0  0  0  0
    5.5232   -2.5677    2.8418 C   0  0  0  0  0  0  0  0  0  0  0  0
    5.0204   -3.6097    2.8363 N   0  0  0  0  0  0  0  0  0  0  0  0
    6.6733   -0.8485    1.5518 C   0  0  0  0  0  0  0  0  0  0  0  0
    7.0901   -0.5168    0.5237 N   0  0  0  0  0  0  0  0  0  0  0  0
    5.6861    2.2074    3.0670 C   0  0  0  0  0  0  0  0  0  0  0  0
    4.8475    3.0823    3.7854 C   0  0  0  0  0  0  0  0  0  0  0  0
    5.1844    3.7172    5.1059 C   0  0  0  0  0  0  0  0  0  0  0  0
    5.8106    5.0905    4.8985 C   0  0  0  0  0  0  0  0  0  0  0  0
    3.6519    3.3044    3.1024 C   0  0  0  0  0  0  0  0  0  0  0  0
    2.2518    4.2157    3.4533 S   0  0  0  0  0  0  0  0  0  0  0  0
    1.5255    3.6805    2.0147 C   0  0  0  0  0  0  0  0  0  0  0  0
    0.3742    3.8535    1.3079 C   0  0  0  0  0  0  0  0  0  0  0  0
   -0.7171    4.6922    1.5428 C   0  0  0  0  0  0  0  0  0  0  0  0
   -1.7744    4.7152    0.5928 C   0  0  0  0  0  0  0  0  0  0  0  0
   -2.8288    5.5250    0.8673 N   0  0  0  0  0  0  0  0  0  0  0  0
   -2.3159    6.1781    2.2999 S   0  0  0  0  0  0  0  0  0  0  0  0
   -0.8429    5.4971    2.6294 N   0  0  0  0  0  0  0  0  0  0  0  0
   -1.6952    3.8728   -0.5227 C   0  0  0  0  0  0  0  0  0  0  0  0
   -2.6684    3.5212   -1.4117 C   0  0  0  0  0  0  0  0  0  0  0  0
   -4.3449    3.7570   -1.5375 S   0  0  0  0  0  0  0  0  0  0  0  0
   -4.4910    2.3885   -2.5388 C   0  0  0  0  0  0  0  0  0  0  0  0
   -5.5960    1.7051   -3.0511 C   0  0  0  0  0  0  0  0  0  0  0  0
   -7.0196    2.1561   -2.8802 C   0  0  0  0  0  0  0  0  0  0  0  0
   -7.6343    1.5489   -1.6259 C   0  0  0  0  0  0  0  0  0  0  0  0
   -5.2045    0.4772   -3.6105 C   0  0  0  0  0  0  0  0  0  0  0  0
   -3.5114    0.3049   -3.5074 S   0  0  0  0  0  0  0  0  0  0  0  0
   -3.2805    1.7629   -2.7126 C   0  0  0  0  0  0  0  0  0  0  0  0
   -2.2332    2.4172   -2.0659 C   0  0  0  0  0  0  0  0  0  0  0  0
   -0.9861    2.0342   -1.6781 N   0  0  0  0  0  0  0  0  0  0  0  0
   -0.6218    2.9801   -0.7391 C   0  0  0  0  0  0  0  0  0  0  0  0
    0.4927    3.0401    0.1607 C   0  0  0  0  0  0  0  0  0  0  0  0
    1.7512    2.4727    0.1170 N   0  0  0  0  0  0  0  0  0  0  0  0
    2.3156    2.8620    1.2890 C   0  0  0  0  0  0  0  0  0  0  0  0
    3.5404    2.6476    1.9044 C   0  0  0  0  0  0  0  0  0  0  0  0
    4.9227    1.7504    1.6119 S   0  0  0  0  0  0  0  0  0  0  0  0
    2.5180    1.9310   -1.0130 C   0  0  0  0  0  0  0  0  0  0  0  0
    2.4431    2.8423   -2.2409 C   0  0  0  0  0  0  0  0  0  0  0  0
   -0.4163    0.7089   -1.9497 C   0  0  0  0  0  0  0  0  0  0  0  0
   -0.4344   -0.1752   -0.7049 C   0  0  0  0  0  0  0  0  0  0  0  0
   -6.1096   -0.5032   -4.2291 C   0  0  0  0  0  0  0  0  0  0  0  0
   -6.1530   -1.8054   -3.8851 C   0  0  0  0  0  0  0  0  0  0  0  0
   -5.3342   -2.4525   -2.8383 C   0  0  0  0  0  0  0  0  0  0  0  0
   -4.7214   -1.8941   -1.8907 O   0  0  0  0  0  0  0  0  0  0  0  0
   -5.4546   -3.8705   -3.0347 C   0  0  0  0  0  0  0  0  0  0  0  0
   -4.7217   -5.2426   -2.4171 S   0  0  0  0  0  0  0  0  0  0  0  0
   -5.5678   -6.2657   -3.4835 C   0  0  0  0  0  0  0  0  0  0  0  0
   -5.3481   -7.7380   -3.5839 C   0  0  0  0  0  0  0  0  0  0  0  0
   -6.3909   -5.5201   -4.3371 C   0  0  0  0  0  0  0  0  0  0  0  0
   -6.3093   -4.1566   -4.0454 C   0  0  0  0  0  0  0  0  0  0  0  0
   -6.8838   -2.9102   -4.6001 C   0  0  0  0  0  0  0  0  0  0  0  0
   -7.9492   -2.8279   -5.4322 C   0  0  0  0  0  0  0  0  0  0  0  0
   -8.6043   -1.5838   -5.7349 C   0  0  0  0  0  0  0  0  0  0  0  0
   -9.1444   -0.5909   -5.9809 N   0  0  0  0  0  0  0  0  0  0  0  0
   -8.5715   -4.0052   -5.9881 C   0  0  0  0  0  0  0  0  0  0  0  0
   -9.0772   -4.9429   -6.4419 N   0  0  0  0  0  0  0  0  0  0  0  0
    7.6929    2.6402    3.7794 H   0  0  0  0  0  0  0  0  0  0  0  0
    8.8258   -0.5602    7.7978 H   0  0  0  0  0  0  0  0  0  0  0  0
    5.6450   -3.4722    7.6687 H   0  0  0  0  0  0  0  0  0  0  0  0
    4.9998   -2.7000    5.4150 H   0  0  0  0  0  0  0  0  0  0  0  0
    4.2630    3.8236    5.7146 H   0  0  0  0  0  0  0  0  0  0  0  0
    5.8850    3.0734    5.6777 H   0  0  0  0  0  0  0  0  0  0  0  0
    6.7556    5.0044    4.3197 H   0  0  0  0  0  0  0  0  0  0  0  0
    6.0382    5.5467    5.8852 H   0  0  0  0  0  0  0  0  0  0  0  0
    5.1070    5.7558    4.3539 H   0  0  0  0  0  0  0  0  0  0  0  0
   -7.6205    1.8610   -3.7668 H   0  0  0  0  0  0  0  0  0  0  0  0
   -7.0571    3.2628   -2.8069 H   0  0  0  0  0  0  0  0  0  0  0  0
   -7.0572    1.8536   -0.7279 H   0  0  0  0  0  0  0  0  0  0  0  0
   -8.6800    1.9023   -1.5158 H   0  0  0  0  0  0  0  0  0  0  0  0
   -7.6437    0.4420   -1.6969 H   0  0  0  0  0  0  0  0  0  0  0  0
    3.5892    1.8723   -0.7471 H   0  0  0  0  0  0  0  0  0  0  0  0
    2.2431    0.8833   -1.2067 H   0  0  0  0  0  0  0  0  0  0  0  0
    3.0676    2.4247   -3.0539 H   0  0  0  0  0  0  0  0  0  0  0  0
    1.4084    2.9400   -2.6171 H   0  0  0  0  0  0  0  0  0  0  0  0
    2.8191    3.8518   -1.9823 H   0  0  0  0  0  0  0  0  0  0  0  0
   -0.9930    0.1917   -2.7343 H   0  0  0  0  0  0  0  0  0  0  0  0
    0.5714    0.7915   -2.4173 H   0  0  0  0  0  0  0  0  0  0  0  0
    0.2093    0.2426    0.0937 H   0  0  0  0  0  0  0  0  0  0  0  0
   -0.0664   -1.1891   -0.9661 H   0  0  0  0  0  0  0  0  0  0  0  0
   -1.4726   -0.2605   -0.3213 H   0  0  0  0  0  0  0  0  0  0  0  0
   -6.7206   -0.1208   -5.0250 H   0  0  0  0  0  0  0  0  0  0  0  0
   -6.2758   -8.2410   -3.9270 H   0  0  0  0  0  0  0  0  0  0  0  0
   -5.0651   -8.1493   -2.5935 H   0  0  0  0  0  0  0  0  0  0  0  0
   -4.5316   -7.9439   -4.3080 H   0  0  0  0  0  0  0  0  0  0  0  0
   -6.9715   -5.9554   -5.1350 H   0  0  0  0  0  0  0  0  0  0  0  0
  1  2  2  3
  2  3  1  0
  3  4  2  0
  3  5  1  0
  5  6  2  0
  6  7  1  0
  7  8  1  0
  7  9  2  0
  9 10  1  0
 10 11  2  0
 11 12  1  0
 12 13  2  3
 13 14  1  0
 14 15  3  0
 13 16  1  0
 16 17  3  0
  1 18  1  0
 18 19  2  0
 19 20  1  0
 20 21  1  0
 19 22  1  0
 22 23  1  0
 23 24  1  0
 24 25  1  0
 25 26  1  0
 26 27  1  0
 27 28  2  0
 28 29  1  0
 29 30  1  0
 27 31  1  0
 31 32  1  0
 32 33  1  0
 33 34  1  0
 34 35  1  0
 35 36  1  0
 36 37  1  0
 35 38  2  0
 38 39  1  0
 39 40  1  0
 40 41  1  0
 41 42  1  0
 42 43  1  0
 43 44  1  0
 44 45  1  0
 45 46  1  0
 46 47  1  0
 47 48  1  0
 45 49  1  0
 49 50  1  0
 42 51  1  0
 51 52  1  0
 38 53  1  0
 53 54  2  3
 54 55  1  0
 55 56  2  0
 55 57  1  0
 57 58  1  0
 58 59  1  0
 59 60  1  0
 59 61  2  0
 61 62  1  0
 62 63  1  0
 63 64  2  3
 64 65  1  0
 65 66  3  0
 64 67  1  0
 67 68  3  0
 12  2  1  0
 48 18  1  0
 63 54  1  0
 11  5  1  0
 47 22  2  0
 62 57  2  0
 46 24  2  0
 44 25  2  0
 30 26  2  0
 43 31  2  0
 41 32  2  0
 40 34  2  0
  1 69  1  0
  6 70  1  0
  9 71  1  0
 10 72  1  0
 20 73  1  0
 20 74  1  0
 21 75  1  0
 21 76  1  0
 21 77  1  0
 36 78  1  0
 36 79  1  0
 37 80  1  0
 37 81  1  0
 37 82  1  0
 49 83  1  0
 49 84  1  0
 50 85  1  0
 50 86  1  0
 50 87  1  0
 51 88  1  0
 51 89  1  0
 52 90  1  0
 52 91  1  0
 52 92  1  0
 53 93  1  0
 60 94  1  0
 60 95  1  0
 60 96  1  0
 61 97  1  0
M  END

