
     RDKit          3D

 97108  0  0  0  0  0  0  0  0999 V2000
    1.0850    6.6392   -2.3367 C   0  0  0  0  0  0  0  0  0  0  0  0
    0.8272    7.8501   -2.8714 C   0  0  0  0  0  0  0  0  0  0  0  0
   -0.1056    8.8356   -2.3165 C   0  0  0  0  0  0  0  0  0  0  0  0
   -0.7537    8.7190   -1.2446 O   0  0  0  0  0  0  0  0  0  0  0  0
   -0.0017   10.0494   -3.0912 C   0  0  0  0  0  0  0  0  0  0  0  0
   -0.7568   11.2172   -2.9651 C   0  0  0  0  0  0  0  0  0  0  0  0
   -0.5220   12.2630   -3.8650 C   0  0  0  0  0  0  0  0  0  0  0  0
   -1.2432   13.4110   -3.7728 F   0  0  0  0  0  0  0  0  0  0  0  0
    0.4653   12.1308   -4.8555 C   0  0  0  0  0  0  0  0  0  0  0  0
    1.2231   10.9505   -4.9673 C   0  0  0  0  0  0  0  0  0  0  0  0
    0.9828    9.8999   -4.0642 C   0  0  0  0  0  0  0  0  0  0  0  0
    1.5508    8.5177   -3.9976 C   0  0  0  0  0  0  0  0  0  0  0  0
    2.3922    7.9250   -4.8897 C   0  0  0  0  0  0  0  0  0  0  0  0
    2.5863    6.4992   -4.9307 C   0  0  0  0  0  0  0  0  0  0  0  0
    2.7415    5.3518   -4.9755 N   0  0  0  0  0  0  0  0  0  0  0  0
    3.0884    8.6526   -5.9165 C   0  0  0  0  0  0  0  0  0  0  0  0
    3.6583    9.2280   -6.7460 N   0  0  0  0  0  0  0  0  0  0  0  0
    0.1754    5.8817   -1.4593 C   0  0  0  0  0  0  0  0  0  0  0  0
   -1.2080    5.6246   -1.6672 C   0  0  0  0  0  0  0  0  0  0  0  0
   -2.0632    6.1787   -2.7827 C   0  0  0  0  0  0  0  0  0  0  0  0
   -3.2823    6.9206   -2.2372 C   0  0  0  0  0  0  0  0  0  0  0  0
   -1.6411    4.5518   -0.8827 C   0  0  0  0  0  0  0  0  0  0  0  0
   -3.0433    3.5777   -0.9637 S   0  0  0  0  0  0  0  0  0  0  0  0
   -2.3157    2.4012    0.0069 C   0  0  0  0  0  0  0  0  0  0  0  0
   -2.5231    1.1018    0.3497 C   0  0  0  0  0  0  0  0  0  0  0  0
   -3.6705    0.3087    0.2748 C   0  0  0  0  0  0  0  0  0  0  0  0
   -3.6059   -1.0221    0.7669 C   0  0  0  0  0  0  0  0  0  0  0  0
   -4.7348   -1.7660    0.6689 N   0  0  0  0  0  0  0  0  0  0  0  0
   -5.7518   -0.6518   -0.0168 S   0  0  0  0  0  0  0  0  0  0  0  0
   -4.8611    0.7268   -0.2242 N   0  0  0  0  0  0  0  0  0  0  0  0
   -2.3753   -1.5109    1.2215 C   0  0  0  0  0  0  0  0  0  0  0  0
   -1.9897   -2.7916    1.4711 C   0  0  0  0  0  0  0  0  0  0  0  0
   -2.6890   -4.3348    1.4280 S   0  0  0  0  0  0  0  0  0  0  0  0
   -1.1478   -5.0563    1.4534 C   0  0  0  0  0  0  0  0  0  0  0  0
   -0.7298   -6.3833    1.3659 C   0  0  0  0  0  0  0  0  0  0  0  0
   -1.6691   -7.5571    1.3630 C   0  0  0  0  0  0  0  0  0  0  0  0
   -2.2193   -7.8333   -0.0302 C   0  0  0  0  0  0  0  0  0  0  0  0
    0.6689   -6.4675    1.2529 C   0  0  0  0  0  0  0  0  0  0  0  0
    1.3283   -4.8899    1.2264 S   0  0  0  0  0  0  0  0  0  0  0  0
   -0.1482   -4.1181    1.4176 C   0  0  0  0  0  0  0  0  0  0  0  0
   -0.6366   -2.8139    1.4575 C   0  0  0  0  0  0  0  0  0  0  0  0
   -0.0885   -1.5829    1.2787 N   0  0  0  0  0  0  0  0  0  0  0  0
   -1.1874   -0.7504    1.1851 C   0  0  0  0  0  0  0  0  0  0  0  0
   -1.2915    0.6384    0.8540 C   0  0  0  0  0  0  0  0  0  0  0  0
   -0.3846    1.6749    0.9211 N   0  0  0  0  0  0  0  0  0  0  0  0
   -1.0537    2.7146    0.3591 C   0  0  0  0  0  0  0  0  0  0  0  0
   -0.6654    3.9581   -0.1239 C   0  0  0  0  0  0  0  0  0  0  0  0
    0.8019    4.7226   -0.3724 S   0  0  0  0  0  0  0  0  0  0  0  0
    0.7820    1.8499    1.7994 C   0  0  0  0  0  0  0  0  0  0  0  0
    0.5009    1.3561    3.2188 C   0  0  0  0  0  0  0  0  0  0  0  0
    1.3174   -1.3442    0.9297 C   0  0  0  0  0  0  0  0  0  0  0  0
    1.4673   -0.8677   -0.5126 C   0  0  0  0  0  0  0  0  0  0  0  0
    1.3943   -7.7116    0.9318 C   0  0  0  0  0  0  0  0  0  0  0  0
    2.5688   -8.0961    1.4493 C   0  0  0  0  0  0  0  0  0  0  0  0
    3.4415   -7.3194    2.3369 C   0  0  0  0  0  0  0  0  0  0  0  0
    3.1082   -6.3354    3.0457 O   0  0  0  0  0  0  0  0  0  0  0  0
    4.7569   -7.9270    2.3199 C   0  0  0  0  0  0  0  0  0  0  0  0
    5.9375   -7.4540    2.8916 C   0  0  0  0  0  0  0  0  0  0  0  0
    7.1228   -8.1708    2.6728 C   0  0  0  0  0  0  0  0  0  0  0  0
    8.6277   -7.5875    3.3594 Cl  0  0  0  0  0  0  0  0  0  0  0  0
    7.1074   -9.3287    1.8824 C   0  0  0  0  0  0  0  0  0  0  0  0
    5.9101   -9.7888    1.3126 C   0  0  0  0  0  0  0  0  0  0  0  0
    4.7247   -9.0799    1.5571 C   0  0  0  0  0  0  0  0  0  0  0  0
    3.3354   -9.3238    1.0817 C   0  0  0  0  0  0  0  0  0  0  0  0
    2.8249  -10.5155    0.6676 C   0  0  0  0  0  0  0  0  0  0  0  0
    3.6406  -11.6865    0.4747 C   0  0  0  0  0  0  0  0  0  0  0  0
    4.2761  -12.6424    0.3167 N   0  0  0  0  0  0  0  0  0  0  0  0
    1.4092  -10.7450    0.5434 C   0  0  0  0  0  0  0  0  0  0  0  0
    0.2717  -10.9366    0.4318 N   0  0  0  0  0  0  0  0  0  0  0  0
    2.0326    6.1614   -2.5286 H   0  0  0  0  0  0  0  0  0  0  0  0
   -1.5222   11.3047   -2.2038 H   0  0  0  0  0  0  0  0  0  0  0  0
    0.6301   12.9452   -5.5455 H   0  0  0  0  0  0  0  0  0  0  0  0
    1.9556   10.8830   -5.7527 H   0  0  0  0  0  0  0  0  0  0  0  0
   -1.4940    6.8547   -3.4515 H   0  0  0  0  0  0  0  0  0  0  0  0
   -2.4126    5.3368   -3.4233 H   0  0  0  0  0  0  0  0  0  0  0  0
   -3.0149    7.5533   -1.3666 H   0  0  0  0  0  0  0  0  0  0  0  0
   -3.7051    7.5725   -3.0353 H   0  0  0  0  0  0  0  0  0  0  0  0
   -4.0621    6.1954   -1.9228 H   0  0  0  0  0  0  0  0  0  0  0  0
   -1.1435   -8.4587    1.7445 H   0  0  0  0  0  0  0  0  0  0  0  0
   -2.5135   -7.3514    2.0533 H   0  0  0  0  0  0  0  0  0  0  0  0
   -1.3971   -8.0939   -0.7271 H   0  0  0  0  0  0  0  0  0  0  0  0
   -2.9209   -8.6932    0.0137 H   0  0  0  0  0  0  0  0  0  0  0  0
   -2.7566   -6.9399   -0.4178 H   0  0  0  0  0  0  0  0  0  0  0  0
    1.0217    2.9319    1.8866 H   0  0  0  0  0  0  0  0  0  0  0  0
    1.6865    1.4018    1.3533 H   0  0  0  0  0  0  0  0  0  0  0  0
   -0.4553    1.7838    3.5835 H   0  0  0  0  0  0  0  0  0  0  0  0
    0.4411    0.2547    3.2564 H   0  0  0  0  0  0  0  0  0  0  0  0
    1.3108    1.6872    3.9003 H   0  0  0  0  0  0  0  0  0  0  0  0
    1.9000   -2.2801    1.0300 H   0  0  0  0  0  0  0  0  0  0  0  0
    1.7937   -0.6740    1.6597 H   0  0  0  0  0  0  0  0  0  0  0  0
    2.5467   -0.7971   -0.7680 H   0  0  0  0  0  0  0  0  0  0  0  0
    0.9696   -1.5836   -1.1985 H   0  0  0  0  0  0  0  0  0  0  0  0
    1.0082    0.1221   -0.6623 H   0  0  0  0  0  0  0  0  0  0  0  0
    0.9015   -8.3413    0.2165 H   0  0  0  0  0  0  0  0  0  0  0  0
    5.9441   -6.5396    3.4715 H   0  0  0  0  0  0  0  0  0  0  0  0
    8.0249   -9.8671    1.6927 H   0  0  0  0  0  0  0  0  0  0  0  0
    5.9412  -10.6459    0.6683 H   0  0  0  0  0  0  0  0  0  0  0  0
  1  2  2  3
  2  3  1  0
  3  4  2  0
  3  5  1  0
  5  6  2  0
  6  7  1  0
  7  8  1  0
  7  9  2  0
  9 10  1  0
 10 11  2  0
 11 12  1  0
 12 13  2  3
 13 14  1  0
 14 15  3  0
 13 16  1  0
 16 17  3  0
  1 18  1  0
 18 19  2  0
 19 20  1  0
 20 21  1  0
 19 22  1  0
 22 23  1  0
 23 24  1  0
 24 25  1  0
 25 26  1  0
 26 27  1  0
 27 28  2  0
 28 29  1  0
 29 30  1  0
 27 31  1  0
 31 32  1  0
 32 33  1  0
 33 34  1  0
 34 35  1  0
 35 36  1  0
 36 37  1  0
 35 38  2  0
 38 39  1  0
 39 40  1  0
 40 41  1  0
 41 42  1  0
 42 43  1  0
 43 44  1  0
 44 45  1  0
 45 46  1  0
 46 47  1  0
 47 48  1  0
 45 49  1  0
 49 50  1  0
 42 51  1  0
 51 52  1  0
 38 53  1  0
 53 54  2  3
 54 55  1  0
 55 56  2  0
 55 57  1  0
 57 58  2  0
 58 59  1  0
 59 60  1  0
 59 61  2  0
 61 62  1  0
 62 63  2  0
 63 64  1  0
 64 65  2  3
 65 66  1  0
 66 67  3  0
 65 68  1  0
 68 69  3  0
 12  2  1  0
 48 18  1  0
 64 54  1  0
 11  5  1  0
 47 22  2  0
 63 57  1  0
 46 24  2  0
 44 25  2  0
 30 26  2  0
 43 31  2  0
 41 32  2  0
 40 34  2  0
  1 70  1  0
  6 71  1  0
  9 72  1  0
 10 73  1  0
 20 74  1  0
 20 75  1  0
 21 76  1  0
 21 77  1  0
 21 78  1  0
 36 79  1  0
 36 80  1  0
 37 81  1  0
 37 82  1  0
 37 83  1  0
 49 84  1  0
 49 85  1  0
 50 86  1  0
 50 87  1  0
 50 88  1  0
 51 89  1  0
 51 90  1  0
 52 91  1  0
 52 92  1  0
 52 93  1  0
 53 94  1  0
 58 95  1  0
 61 96  1  0
 62 97  1  0
M  END

