
     RDKit          3D

 97108  0  0  0  0  0  0  0  0999 V2000
    1.5540    2.6121    6.6542 C   0  0  0  0  0  0  0  0  0  0  0  0
    2.2922    1.5421    7.0016 C   0  0  0  0  0  0  0  0  0  0  0  0
    2.5152    0.3453    6.1777 C   0  0  0  0  0  0  0  0  0  0  0  0
    1.8379   -0.0190    5.1798 O   0  0  0  0  0  0  0  0  0  0  0  0
    3.6418   -0.3762    6.7275 C   0  0  0  0  0  0  0  0  0  0  0  0
    4.2909   -1.4906    6.1984 C   0  0  0  0  0  0  0  0  0  0  0  0
    5.4244   -1.9777    6.8633 C   0  0  0  0  0  0  0  0  0  0  0  0
    6.0870   -3.0527    6.3709 F   0  0  0  0  0  0  0  0  0  0  0  0
    5.8987   -1.3315    8.0196 C   0  0  0  0  0  0  0  0  0  0  0  0
    5.2342   -0.2042    8.5313 C   0  0  0  0  0  0  0  0  0  0  0  0
    4.0753    0.2514    7.8841 C   0  0  0  0  0  0  0  0  0  0  0  0
    3.1817    1.4036    8.1943 C   0  0  0  0  0  0  0  0  0  0  0  0
    3.0315    2.0121    9.4006 C   0  0  0  0  0  0  0  0  0  0  0  0
    1.9488    2.9196    9.6768 C   0  0  0  0  0  0  0  0  0  0  0  0
    1.0742    3.6406    9.9149 N   0  0  0  0  0  0  0  0  0  0  0  0
    3.8371    1.6690   10.5417 C   0  0  0  0  0  0  0  0  0  0  0  0
    4.4783    1.3985   11.4677 N   0  0  0  0  0  0  0  0  0  0  0  0
    0.7876    2.6920    5.4025 C   0  0  0  0  0  0  0  0  0  0  0  0
   -0.6155    2.7529    5.3193 C   0  0  0  0  0  0  0  0  0  0  0  0
   -1.5546    2.6422    6.4870 C   0  0  0  0  0  0  0  0  0  0  0  0
   -1.8131    1.1771    6.8219 C   0  0  0  0  0  0  0  0  0  0  0  0
   -1.0259    2.7511    3.9868 C   0  0  0  0  0  0  0  0  0  0  0  0
   -2.5560    2.6727    3.2276 S   0  0  0  0  0  0  0  0  0  0  0  0
   -1.8135    2.5826    1.7013 C   0  0  0  0  0  0  0  0  0  0  0  0
   -2.1389    2.5173    0.3755 C   0  0  0  0  0  0  0  0  0  0  0  0
   -3.3597    2.5742   -0.3052 C   0  0  0  0  0  0  0  0  0  0  0  0
   -3.3451    2.5267   -1.7337 C   0  0  0  0  0  0  0  0  0  0  0  0
   -4.5477    2.5589   -2.3603 N   0  0  0  0  0  0  0  0  0  0  0  0
   -5.5449    2.6700   -1.0407 S   0  0  0  0  0  0  0  0  0  0  0  0
   -4.5701    2.6672    0.2998 N   0  0  0  0  0  0  0  0  0  0  0  0
   -2.1126    2.3862   -2.3955 C   0  0  0  0  0  0  0  0  0  0  0  0
   -1.8375    1.9949   -3.6761 C   0  0  0  0  0  0  0  0  0  0  0  0
   -2.7649    1.3425   -4.9404 S   0  0  0  0  0  0  0  0  0  0  0  0
   -1.4144    0.5137   -5.5593 C   0  0  0  0  0  0  0  0  0  0  0  0
   -1.2726   -0.4714   -6.5391 C   0  0  0  0  0  0  0  0  0  0  0  0
   -2.3678   -0.9046   -7.4727 C   0  0  0  0  0  0  0  0  0  0  0  0
   -2.2089   -0.2322   -8.8308 C   0  0  0  0  0  0  0  0  0  0  0  0
    0.0170   -1.0321   -6.4963 C   0  0  0  0  0  0  0  0  0  0  0  0
    0.9220   -0.3322   -5.2389 S   0  0  0  0  0  0  0  0  0  0  0  0
   -0.3099    0.7050   -4.7680 C   0  0  0  0  0  0  0  0  0  0  0  0
   -0.5492    1.5389   -3.6819 C   0  0  0  0  0  0  0  0  0  0  0  0
    0.0439    1.6235   -2.4605 N   0  0  0  0  0  0  0  0  0  0  0  0
   -0.9050    2.2522   -1.6943 C   0  0  0  0  0  0  0  0  0  0  0  0
   -0.9118    2.4365   -0.2970 C   0  0  0  0  0  0  0  0  0  0  0  0
    0.1432    2.5844    0.5618 N   0  0  0  0  0  0  0  0  0  0  0  0
   -0.4604    2.6209    1.7732 C   0  0  0  0  0  0  0  0  0  0  0  0
   -0.0041    2.7292    3.0714 C   0  0  0  0  0  0  0  0  0  0  0  0
    1.4843    2.6965    3.8386 S   0  0  0  0  0  0  0  0  0  0  0  0
    1.4415    3.2076    0.2597 C   0  0  0  0  0  0  0  0  0  0  0  0
    1.4140    4.7040    0.5618 C   0  0  0  0  0  0  0  0  0  0  0  0
    1.0337    0.6478   -1.9719 C   0  0  0  0  0  0  0  0  0  0  0  0
    0.3706   -0.6915   -1.6516 C   0  0  0  0  0  0  0  0  0  0  0  0
    0.4627   -2.2127   -7.2485 C   0  0  0  0  0  0  0  0  0  0  0  0
    0.1330   -3.4656   -6.8800 C   0  0  0  0  0  0  0  0  0  0  0  0
   -0.5599   -3.8329   -5.6364 C   0  0  0  0  0  0  0  0  0  0  0  0
   -1.1560   -3.0503   -4.8483 O   0  0  0  0  0  0  0  0  0  0  0  0
   -0.3905   -5.2518   -5.4212 C   0  0  0  0  0  0  0  0  0  0  0  0
   -0.7777   -6.0034   -4.3118 C   0  0  0  0  0  0  0  0  0  0  0  0
   -0.4299   -7.3598   -4.2695 C   0  0  0  0  0  0  0  0  0  0  0  0
   -0.7919   -8.1175   -3.2032 F   0  0  0  0  0  0  0  0  0  0  0  0
    0.3111   -7.9311   -5.3188 C   0  0  0  0  0  0  0  0  0  0  0  0
    0.6722   -9.2360   -5.2550 F   0  0  0  0  0  0  0  0  0  0  0  0
    0.6962   -7.1542   -6.4256 C   0  0  0  0  0  0  0  0  0  0  0  0
    0.3160   -5.8023   -6.4764 C   0  0  0  0  0  0  0  0  0  0  0  0
    0.5919   -4.7478   -7.4966 C   0  0  0  0  0  0  0  0  0  0  0  0
    0.9509   -4.9444   -8.7907 C   0  0  0  0  0  0  0  0  0  0  0  0
    0.9356   -3.8811   -9.7627 C   0  0  0  0  0  0  0  0  0  0  0  0
    0.9212   -3.0292  -10.5486 N   0  0  0  0  0  0  0  0  0  0  0  0
    1.2418   -6.2488   -9.3259 C   0  0  0  0  0  0  0  0  0  0  0  0
    1.4762   -7.2894   -9.7781 N   0  0  0  0  0  0  0  0  0  0  0  0
    1.5185    3.4905    7.2787 H   0  0  0  0  0  0  0  0  0  0  0  0
    3.9383   -1.9628    5.2897 H   0  0  0  0  0  0  0  0  0  0  0  0
    6.7906   -1.6972    8.5112 H   0  0  0  0  0  0  0  0  0  0  0  0
    5.6528    0.3012    9.3866 H   0  0  0  0  0  0  0  0  0  0  0  0
   -1.1213    3.1525    7.3739 H   0  0  0  0  0  0  0  0  0  0  0  0
   -2.5196    3.1374    6.2426 H   0  0  0  0  0  0  0  0  0  0  0  0
   -2.5186    1.1083    7.6756 H   0  0  0  0  0  0  0  0  0  0  0  0
   -2.2563    0.6547    5.9489 H   0  0  0  0  0  0  0  0  0  0  0  0
   -0.8636    0.6738    7.1021 H   0  0  0  0  0  0  0  0  0  0  0  0
   -3.3614   -0.6417   -7.0509 H   0  0  0  0  0  0  0  0  0  0  0  0
   -2.3433   -2.0082   -7.6006 H   0  0  0  0  0  0  0  0  0  0  0  0
   -3.0283   -0.5593   -9.5041 H   0  0  0  0  0  0  0  0  0  0  0  0
   -1.2390   -0.5180   -9.2925 H   0  0  0  0  0  0  0  0  0  0  0  0
   -2.2548    0.8732   -8.7209 H   0  0  0  0  0  0  0  0  0  0  0  0
    1.6881    3.1113   -0.8142 H   0  0  0  0  0  0  0  0  0  0  0  0
    2.2389    2.7204    0.8572 H   0  0  0  0  0  0  0  0  0  0  0  0
    1.2331    4.8837    1.6393 H   0  0  0  0  0  0  0  0  0  0  0  0
    0.6157    5.2003   -0.0295 H   0  0  0  0  0  0  0  0  0  0  0  0
    2.3942    5.1579    0.2920 H   0  0  0  0  0  0  0  0  0  0  0  0
    1.5343    0.9884   -1.0531 H   0  0  0  0  0  0  0  0  0  0  0  0
    1.8328    0.5043   -2.7284 H   0  0  0  0  0  0  0  0  0  0  0  0
   -0.3979   -0.5595   -0.8593 H   0  0  0  0  0  0  0  0  0  0  0  0
    1.1334   -1.4112   -1.2902 H   0  0  0  0  0  0  0  0  0  0  0  0
   -0.1120   -1.1200   -2.5536 H   0  0  0  0  0  0  0  0  0  0  0  0
    1.1564   -2.0379   -8.0534 H   0  0  0  0  0  0  0  0  0  0  0  0
   -1.3196   -5.5480   -3.4921 H   0  0  0  0  0  0  0  0  0  0  0  0
    1.3012   -7.6100   -7.1893 H   0  0  0  0  0  0  0  0  0  0  0  0
  1  2  2  3
  2  3  1  0
  3  4  2  0
  3  5  1  0
  5  6  2  0
  6  7  1  0
  7  8  1  0
  7  9  2  0
  9 10  1  0
 10 11  2  0
 11 12  1  0
 12 13  2  3
 13 14  1  0
 14 15  3  0
 13 16  1  0
 16 17  3  0
  1 18  1  0
 18 19  2  0
 19 20  1  0
 20 21  1  0
 19 22  1  0
 22 23  1  0
 23 24  1  0
 24 25  1  0
 25 26  1  0
 26 27  1  0
 27 28  2  0
 28 29  1  0
 29 30  1  0
 27 31  1  0
 31 32  1  0
 32 33  1  0
 33 34  1  0
 34 35  1  0
 35 36  1  0
 36 37  1  0
 35 38  2  0
 38 39  1  0
 39 40  1  0
 40 41  1  0
 41 42  1  0
 42 43  1  0
 43 44  1  0
 44 45  1  0
 45 46  1  0
 46 47  1  0
 47 48  1  0
 45 49  1  0
 49 50  1  0
 42 51  1  0
 51 52  1  0
 38 53  1  0
 53 54  2  3
 54 55  1  0
 55 56  2  0
 55 57  1  0
 57 58  2  0
 58 59  1  0
 59 60  1  0
 59 61  2  0
 61 62  1  0
 61 63  1  0
 63 64  2  0
 64 65  1  0
 65 66  2  3
 66 67  1  0
 67 68  3  0
 66 69  1  0
 69 70  3  0
 12  2  1  0
 48 18  1  0
 65 54  1  0
 11  5  1  0
 47 22  2  0
 64 57  1  0
 46 24  2  0
 44 25  2  0
 30 26  2  0
 43 31  2  0
 41 32  2  0
 40 34  2  0
  1 71  1  0
  6 72  1  0
  9 73  1  0
 10 74  1  0
 20 75  1  0
 20 76  1  0
 21 77  1  0
 21 78  1  0
 21 79  1  0
 36 80  1  0
 36 81  1  0
 37 82  1  0
 37 83  1  0
 37 84  1  0
 49 85  1  0
 49 86  1  0
 50 87  1  0
 50 88  1  0
 50 89  1  0
 51 90  1  0
 51 91  1  0
 52 92  1  0
 52 93  1  0
 52 94  1  0
 53 95  1  0
 58 96  1  0
 63 97  1  0
M  END

