
     RDKit          3D

 90100  0  0  0  0  0  0  0  0999 V2000
    0.2010    1.8981    6.3528 C   0  0  0  0  0  0  0  0  0  0  0  0
    0.7637    1.2249    7.3707 C   0  0  0  0  0  0  0  0  0  0  0  0
    0.5442   -0.1920    7.6439 C   0  0  0  0  0  0  0  0  0  0  0  0
   -0.0192   -1.0144    6.8619 O   0  0  0  0  0  0  0  0  0  0  0  0
    0.9444   -0.4638    9.0137 C   0  0  0  0  0  0  0  0  0  0  0  0
    0.9011   -1.6866    9.7172 C   0  0  0  0  0  0  0  0  0  0  0  0
    1.3885   -1.7136   11.0345 C   0  0  0  0  0  0  0  0  0  0  0  0
    1.3381   -2.8604   11.7649 F   0  0  0  0  0  0  0  0  0  0  0  0
    1.9815   -0.5679   11.5912 C   0  0  0  0  0  0  0  0  0  0  0  0
    2.0173    0.6516   10.8737 C   0  0  0  0  0  0  0  0  0  0  0  0
    1.4495    0.7054    9.5868 C   0  0  0  0  0  0  0  0  0  0  0  0
    1.4128    1.8104    8.5811 C   0  0  0  0  0  0  0  0  0  0  0  0
    2.2011    2.9125    8.6202 C   0  0  0  0  0  0  0  0  0  0  0  0
    2.6758    3.5154    7.3923 C   0  0  0  0  0  0  0  0  0  0  0  0
    3.0512    3.9644    6.3960 N   0  0  0  0  0  0  0  0  0  0  0  0
    2.4731    3.6126    9.8473 C   0  0  0  0  0  0  0  0  0  0  0  0
    2.6529    4.1883   10.8355 N   0  0  0  0  0  0  0  0  0  0  0  0
   -0.0823    1.2545    5.0555 C   0  0  0  0  0  0  0  0  0  0  0  0
   -1.3436    0.9465    4.5146 C   0  0  0  0  0  0  0  0  0  0  0  0
   -1.1870    0.3970    3.2383 C   0  0  0  0  0  0  0  0  0  0  0  0
   -2.2630   -0.0806    2.0211 S   0  0  0  0  0  0  0  0  0  0  0  0
   -1.0244   -0.4276    0.8891 C   0  0  0  0  0  0  0  0  0  0  0  0
   -1.1597   -0.8390   -0.4636 C   0  0  0  0  0  0  0  0  0  0  0  0
   -2.4728   -1.2254   -1.0001 C   0  0  0  0  0  0  0  0  0  0  0  0
   -2.7612   -2.4346   -1.6475 C   0  0  0  0  0  0  0  0  0  0  0  0
   -4.0924   -2.5412   -2.0617 C   0  0  0  0  0  0  0  0  0  0  0  0
   -4.6734   -3.9364   -2.9325 Cl  0  0  0  0  0  0  0  0  0  0  0  0
   -4.8712   -1.4343   -1.7243 C   0  0  0  0  0  0  0  0  0  0  0  0
   -6.3223   -1.2272   -2.0176 C   0  0  0  0  0  0  0  0  0  0  0  0
   -6.5229   -0.7596   -3.4540 C   0  0  0  0  0  0  0  0  0  0  0  0
   -3.8945   -0.3187   -0.9356 S   0  0  0  0  0  0  0  0  0  0  0  0
    0.0559   -1.0319   -1.1836 C   0  0  0  0  0  0  0  0  0  0  0  0
    1.3079   -0.8745   -0.5502 C   0  0  0  0  0  0  0  0  0  0  0  0
    1.4275   -0.4206    0.7726 C   0  0  0  0  0  0  0  0  0  0  0  0
    2.7524   -0.1042    1.3332 C   0  0  0  0  0  0  0  0  0  0  0  0
    3.6653    1.2385    0.8914 S   0  0  0  0  0  0  0  0  0  0  0  0
    4.8410    1.0793    2.0962 C   0  0  0  0  0  0  0  0  0  0  0  0
    5.9368    2.0938    2.2593 C   0  0  0  0  0  0  0  0  0  0  0  0
    6.4218    2.4019    3.7089 C   0  0  0  0  0  0  0  0  0  0  0  0
    4.5266   -0.1051    2.8351 C   0  0  0  0  0  0  0  0  0  0  0  0
    3.3474   -0.7439    2.4241 C   0  0  0  0  0  0  0  0  0  0  0  0
    5.4616   -0.8073    4.1586 Cl  0  0  0  0  0  0  0  0  0  0  0  0
    0.2432   -0.2124    1.4856 C   0  0  0  0  0  0  0  0  0  0  0  0
    0.1023    0.2726    2.7871 C   0  0  0  0  0  0  0  0  0  0  0  0
    1.1468    0.8640    3.9603 S   0  0  0  0  0  0  0  0  0  0  0  0
    2.5928   -1.1461   -1.6437 S   0  0  0  0  0  0  0  0  0  0  0  0
    1.5594   -1.4679   -2.9121 C   0  0  0  0  0  0  0  0  0  0  0  0
    1.8009   -1.5506   -4.2762 C   0  0  0  0  0  0  0  0  0  0  0  0
    0.5998   -1.4421   -4.9833 C   0  0  0  0  0  0  0  0  0  0  0  0
   -0.7266   -1.3224   -3.9210 S   0  0  0  0  0  0  0  0  0  0  0  0
    0.2447   -1.3443   -2.5419 C   0  0  0  0  0  0  0  0  0  0  0  0
    0.5107   -1.5627   -6.4303 C   0  0  0  0  0  0  0  0  0  0  0  0
    0.3958   -0.5693   -7.3454 C   0  0  0  0  0  0  0  0  0  0  0  0
    0.4332   -0.8663   -8.7840 C   0  0  0  0  0  0  0  0  0  0  0  0
    0.6871   -1.9846   -9.3212 O   0  0  0  0  0  0  0  0  0  0  0  0
    0.1822    0.3364   -9.5346 C   0  0  0  0  0  0  0  0  0  0  0  0
    0.3069    0.5262  -10.9087 C   0  0  0  0  0  0  0  0  0  0  0  0
    0.0729    1.8128  -11.4238 C   0  0  0  0  0  0  0  0  0  0  0  0
    0.1182    2.0993  -13.1595 Cl  0  0  0  0  0  0  0  0  0  0  0  0
   -0.1058    2.8962  -10.5448 C   0  0  0  0  0  0  0  0  0  0  0  0
   -0.2040    4.1600  -11.0178 F   0  0  0  0  0  0  0  0  0  0  0  0
   -0.0974    2.6978   -9.1599 C   0  0  0  0  0  0  0  0  0  0  0  0
   -0.0460    1.3843   -8.6652 C   0  0  0  0  0  0  0  0  0  0  0  0
    0.0788    0.9123   -7.2512 C   0  0  0  0  0  0  0  0  0  0  0  0
   -0.0806    1.7201   -6.1677 C   0  0  0  0  0  0  0  0  0  0  0  0
    0.5421    1.5285   -4.8789 C   0  0  0  0  0  0  0  0  0  0  0  0
    1.0304    1.4223   -3.8387 N   0  0  0  0  0  0  0  0  0  0  0  0
   -0.9141    2.8801   -6.2272 C   0  0  0  0  0  0  0  0  0  0  0  0
   -1.5876    3.8110   -6.2377 N   0  0  0  0  0  0  0  0  0  0  0  0
    0.1018    2.9891    6.4091 H   0  0  0  0  0  0  0  0  0  0  0  0
    0.4916   -2.5897    9.2569 H   0  0  0  0  0  0  0  0  0  0  0  0
    2.4064   -0.6250   12.5815 H   0  0  0  0  0  0  0  0  0  0  0  0
    2.4974    1.5154   11.3158 H   0  0  0  0  0  0  0  0  0  0  0  0
   -2.2766    1.1200    5.0344 H   0  0  0  0  0  0  0  0  0  0  0  0
   -2.0376   -3.2214   -1.8369 H   0  0  0  0  0  0  0  0  0  0  0  0
   -6.7503   -0.4667   -1.3252 H   0  0  0  0  0  0  0  0  0  0  0  0
   -6.8736   -2.1742   -1.8622 H   0  0  0  0  0  0  0  0  0  0  0  0
   -6.0079    0.2102   -3.6329 H   0  0  0  0  0  0  0  0  0  0  0  0
   -6.1232   -1.5112   -4.1683 H   0  0  0  0  0  0  0  0  0  0  0  0
   -7.6081   -0.6316   -3.6244 H   0  0  0  0  0  0  0  0  0  0  0  0
    6.8197    1.8323    1.6320 H   0  0  0  0  0  0  0  0  0  0  0  0
    5.5305    3.0463    1.8771 H   0  0  0  0  0  0  0  0  0  0  0  0
    5.8359    3.2423    4.1650 H   0  0  0  0  0  0  0  0  0  0  0  0
    6.4196    1.5303    4.3483 H   0  0  0  0  0  0  0  0  0  0  0  0
    7.4769    2.7166    3.6361 H   0  0  0  0  0  0  0  0  0  0  0  0
    2.9178   -1.6037    2.9642 H   0  0  0  0  0  0  0  0  0  0  0  0
    2.7717   -1.6652   -4.7269 H   0  0  0  0  0  0  0  0  0  0  0  0
    0.7330   -2.5552   -6.7928 H   0  0  0  0  0  0  0  0  0  0  0  0
    0.5576   -0.2931  -11.5731 H   0  0  0  0  0  0  0  0  0  0  0  0
   -0.1290    3.5638   -8.5173 H   0  0  0  0  0  0  0  0  0  0  0  0
  1  2  2  3
  2  3  1  0
  3  4  2  0
  3  5  1  0
  5  6  2  0
  6  7  1  0
  7  8  1  0
  7  9  2  0
  9 10  1  0
 10 11  2  0
 11 12  1  0
 12 13  2  3
 13 14  1  0
 14 15  3  0
 13 16  1  0
 16 17  3  0
  1 18  1  0
 18 19  2  0
 19 20  1  0
 20 21  1  0
 21 22  1  0
 22 23  2  0
 23 24  1  0
 24 25  2  0
 25 26  1  0
 26 27  1  0
 26 28  2  0
 28 29  1  0
 29 30  1  0
 28 31  1  0
 23 32  1  0
 32 33  2  0
 33 34  1  0
 34 35  1  0
 35 36  1  0
 36 37  1  0
 37 38  1  0
 38 39  1  0
 37 40  2  0
 40 41  1  0
 40 42  1  0
 34 43  2  0
 43 44  1  0
 44 45  1  0
 33 46  1  0
 46 47  1  0
 47 48  1  0
 48 49  2  0
 49 50  1  0
 50 51  1  0
 49 52  1  0
 52 53  2  3
 53 54  1  0
 54 55  2  0
 54 56  1  0
 56 57  2  0
 57 58  1  0
 58 59  1  0
 58 60  2  0
 60 61  1  0
 60 62  1  0
 62 63  2  0
 63 64  1  0
 64 65  2  3
 65 66  1  0
 66 67  3  0
 65 68  1  0
 68 69  3  0
 12  2  1  0
 45 18  1  0
 51 47  2  0
 64 53  1  0
 11  5  1  0
 44 20  2  0
 63 56  1  0
 43 22  1  0
 31 24  1  0
 51 32  1  0
 41 35  2  0
  1 70  1  0
  6 71  1  0
  9 72  1  0
 10 73  1  0
 19 74  1  0
 25 75  1  0
 29 76  1  0
 29 77  1  0
 30 78  1  0
 30 79  1  0
 30 80  1  0
 38 81  1  0
 38 82  1  0
 39 83  1  0
 39 84  1  0
 39 85  1  0
 41 86  1  0
 48 87  1  0
 52 88  1  0
 57 89  1  0
 62 90  1  0
M  END

