
     RDKit          3D

 90100  0  0  0  0  0  0  0  0999 V2000
    3.1492    4.4407   -4.6393 C   0  0  0  0  0  0  0  0  0  0  0  0
    4.4743    4.3368   -4.4095 C   0  0  0  0  0  0  0  0  0  0  0  0
    5.1103    3.3102   -3.5672 C   0  0  0  0  0  0  0  0  0  0  0  0
    4.5356    2.5408   -2.7533 O   0  0  0  0  0  0  0  0  0  0  0  0
    6.5186    3.2647   -3.8819 C   0  0  0  0  0  0  0  0  0  0  0  0
    7.4721    2.3681   -3.4032 C   0  0  0  0  0  0  0  0  0  0  0  0
    8.7764    2.4458   -3.9080 C   0  0  0  0  0  0  0  0  0  0  0  0
    9.7229    1.5809   -3.4684 F   0  0  0  0  0  0  0  0  0  0  0  0
    9.0957    3.3934   -4.8935 C   0  0  0  0  0  0  0  0  0  0  0  0
    8.1119    4.2681   -5.3851 C   0  0  0  0  0  0  0  0  0  0  0  0
    6.8105    4.2034   -4.8557 C   0  0  0  0  0  0  0  0  0  0  0  0
    5.5807    4.9895   -5.1808 C   0  0  0  0  0  0  0  0  0  0  0  0
    5.5061    6.1385   -5.8930 C   0  0  0  0  0  0  0  0  0  0  0  0
    4.3172    6.9434   -5.9369 C   0  0  0  0  0  0  0  0  0  0  0  0
    3.3611    7.5942   -5.9826 N   0  0  0  0  0  0  0  0  0  0  0  0
    6.6247    6.6868   -6.6132 C   0  0  0  0  0  0  0  0  0  0  0  0
    7.5123    7.1406   -7.2028 N   0  0  0  0  0  0  0  0  0  0  0  0
    2.1487    3.6457   -3.9250 C   0  0  0  0  0  0  0  0  0  0  0  0
    1.4158    2.6087   -4.5015 C   0  0  0  0  0  0  0  0  0  0  0  0
    0.6249    1.9876   -3.5480 C   0  0  0  0  0  0  0  0  0  0  0  0
   -0.3307    0.6119   -3.5911 S   0  0  0  0  0  0  0  0  0  0  0  0
   -0.6581    0.6677   -1.9189 C   0  0  0  0  0  0  0  0  0  0  0  0
   -1.3680   -0.2761   -1.1656 C   0  0  0  0  0  0  0  0  0  0  0  0
   -1.9756   -1.4409   -1.8129 C   0  0  0  0  0  0  0  0  0  0  0  0
   -3.2518   -1.4899   -2.3616 C   0  0  0  0  0  0  0  0  0  0  0  0
   -3.5679   -2.7376   -2.8981 C   0  0  0  0  0  0  0  0  0  0  0  0
   -5.1244   -3.0889   -3.6342 Cl  0  0  0  0  0  0  0  0  0  0  0  0
   -2.5262   -3.6607   -2.7964 C   0  0  0  0  0  0  0  0  0  0  0  0
   -2.5664   -5.1068   -3.1951 C   0  0  0  0  0  0  0  0  0  0  0  0
   -3.1618   -5.9517   -2.0754 C   0  0  0  0  0  0  0  0  0  0  0  0
   -1.2262   -2.9304   -2.0164 S   0  0  0  0  0  0  0  0  0  0  0  0
   -1.4349   -0.0642    0.2246 C   0  0  0  0  0  0  0  0  0  0  0  0
   -0.8266    1.0608    0.8205 C   0  0  0  0  0  0  0  0  0  0  0  0
   -0.1037    2.0014    0.0659 C   0  0  0  0  0  0  0  0  0  0  0  0
    0.5611    3.1356    0.7124 C   0  0  0  0  0  0  0  0  0  0  0  0
    2.1024    3.0966    1.3797 S   0  0  0  0  0  0  0  0  0  0  0  0
    2.1179    4.7077    1.8509 C   0  0  0  0  0  0  0  0  0  0  0  0
    3.2959    5.3983    2.4627 C   0  0  0  0  0  0  0  0  0  0  0  0
    4.1631    6.0449    1.3850 C   0  0  0  0  0  0  0  0  0  0  0  0
    0.9099    5.2954    1.4750 C   0  0  0  0  0  0  0  0  0  0  0  0
    0.0340    4.4087    0.8420 C   0  0  0  0  0  0  0  0  0  0  0  0
    0.5182    6.9824    1.7524 Cl  0  0  0  0  0  0  0  0  0  0  0  0
   -0.0260    1.7782   -1.3258 C   0  0  0  0  0  0  0  0  0  0  0  0
    0.6945    2.4982   -2.2852 C   0  0  0  0  0  0  0  0  0  0  0  0
    1.7895    3.7760   -2.2637 S   0  0  0  0  0  0  0  0  0  0  0  0
   -1.0254    1.0106    2.5187 S   0  0  0  0  0  0  0  0  0  0  0  0
   -1.8866   -0.4376    2.4791 C   0  0  0  0  0  0  0  0  0  0  0  0
   -2.3632   -1.2975    3.4669 C   0  0  0  0  0  0  0  0  0  0  0  0
   -2.8929   -2.4602    2.8875 C   0  0  0  0  0  0  0  0  0  0  0  0
   -2.7225   -2.3994    1.1925 S   0  0  0  0  0  0  0  0  0  0  0  0
   -2.0174   -0.8795    1.1938 C   0  0  0  0  0  0  0  0  0  0  0  0
   -3.2754   -3.6808    3.6067 C   0  0  0  0  0  0  0  0  0  0  0  0
   -4.1694   -3.7308    4.6107 C   0  0  0  0  0  0  0  0  0  0  0  0
   -5.1273   -2.6705    4.9514 C   0  0  0  0  0  0  0  0  0  0  0  0
   -5.0755   -1.4639    4.5907 O   0  0  0  0  0  0  0  0  0  0  0  0
   -6.2423   -3.2731    5.6517 C   0  0  0  0  0  0  0  0  0  0  0  0
   -7.4488   -2.6710    6.0268 C   0  0  0  0  0  0  0  0  0  0  0  0
   -8.4569   -3.4803    6.5674 C   0  0  0  0  0  0  0  0  0  0  0  0
   -9.6474   -2.9331    6.9310 F   0  0  0  0  0  0  0  0  0  0  0  0
   -8.2485   -4.8683    6.7079 C   0  0  0  0  0  0  0  0  0  0  0  0
   -7.0314   -5.4547    6.3183 C   0  0  0  0  0  0  0  0  0  0  0  0
   -6.0181   -4.6325    5.7948 C   0  0  0  0  0  0  0  0  0  0  0  0
   -4.6726   -4.9771    5.2602 C   0  0  0  0  0  0  0  0  0  0  0  0
   -3.9586   -6.1101    5.4940 C   0  0  0  0  0  0  0  0  0  0  0  0
   -2.5671   -6.2066    5.1498 C   0  0  0  0  0  0  0  0  0  0  0  0
   -1.4440   -6.2837    4.8794 N   0  0  0  0  0  0  0  0  0  0  0  0
   -4.4933   -7.2391    6.2042 C   0  0  0  0  0  0  0  0  0  0  0  0
   -4.9089   -8.1524    6.7773 N   0  0  0  0  0  0  0  0  0  0  0  0
    2.7856    4.9937   -5.4892 H   0  0  0  0  0  0  0  0  0  0  0  0
    7.2052    1.6246   -2.6645 H   0  0  0  0  0  0  0  0  0  0  0  0
   10.1027    3.4324   -5.2911 H   0  0  0  0  0  0  0  0  0  0  0  0
    8.3910    4.9499   -6.1675 H   0  0  0  0  0  0  0  0  0  0  0  0
    1.4864    2.3033   -5.5350 H   0  0  0  0  0  0  0  0  0  0  0  0
   -3.9386   -0.6540   -2.3584 H   0  0  0  0  0  0  0  0  0  0  0  0
   -1.5406   -5.4649   -3.4174 H   0  0  0  0  0  0  0  0  0  0  0  0
   -3.1766   -5.2321   -4.1137 H   0  0  0  0  0  0  0  0  0  0  0  0
   -3.1843   -7.0178   -2.3794 H   0  0  0  0  0  0  0  0  0  0  0  0
   -2.5517   -5.8559   -1.1524 H   0  0  0  0  0  0  0  0  0  0  0  0
   -4.2023   -5.6220   -1.8624 H   0  0  0  0  0  0  0  0  0  0  0  0
    3.9061    4.6586    3.0226 H   0  0  0  0  0  0  0  0  0  0  0  0
    2.9596    6.1677    3.1875 H   0  0  0  0  0  0  0  0  0  0  0  0
    4.5121    5.2761    0.6618 H   0  0  0  0  0  0  0  0  0  0  0  0
    5.0613    6.5023    1.8504 H   0  0  0  0  0  0  0  0  0  0  0  0
    3.5980    6.8391    0.8411 H   0  0  0  0  0  0  0  0  0  0  0  0
   -0.9439    4.6938    0.4771 H   0  0  0  0  0  0  0  0  0  0  0  0
   -2.2747   -1.1194    4.5360 H   0  0  0  0  0  0  0  0  0  0  0  0
   -2.9025   -4.5957    3.1982 H   0  0  0  0  0  0  0  0  0  0  0  0
   -7.6085   -1.6121    5.8823 H   0  0  0  0  0  0  0  0  0  0  0  0
   -9.0449   -5.4926    7.0982 H   0  0  0  0  0  0  0  0  0  0  0  0
   -6.9281   -6.5212    6.3889 H   0  0  0  0  0  0  0  0  0  0  0  0
  1  2  2  3
  2  3  1  0
  3  4  2  0
  3  5  1  0
  5  6  2  0
  6  7  1  0
  7  8  1  0
  7  9  2  0
  9 10  1  0
 10 11  2  0
 11 12  1  0
 12 13  2  3
 13 14  1  0
 14 15  3  0
 13 16  1  0
 16 17  3  0
  1 18  1  0
 18 19  2  0
 19 20  1  0
 20 21  1  0
 21 22  1  0
 22 23  2  0
 23 24  1  0
 24 25  2  0
 25 26  1  0
 26 27  1  0
 26 28  2  0
 28 29  1  0
 29 30  1  0
 28 31  1  0
 23 32  1  0
 32 33  2  0
 33 34  1  0
 34 35  1  0
 35 36  1  0
 36 37  1  0
 37 38  1  0
 38 39  1  0
 37 40  2  0
 40 41  1  0
 40 42  1  0
 34 43  2  0
 43 44  1  0
 44 45  1  0
 33 46  1  0
 46 47  1  0
 47 48  1  0
 48 49  2  0
 49 50  1  0
 50 51  1  0
 49 52  1  0
 52 53  2  3
 53 54  1  0
 54 55  2  0
 54 56  1  0
 56 57  2  0
 57 58  1  0
 58 59  1  0
 58 60  2  0
 60 61  1  0
 61 62  2  0
 62 63  1  0
 63 64  2  3
 64 65  1  0
 65 66  3  0
 64 67  1  0
 67 68  3  0
 12  2  1  0
 45 18  1  0
 51 47  2  0
 63 53  1  0
 11  5  1  0
 44 20  2  0
 62 56  1  0
 43 22  1  0
 31 24  1  0
 51 32  1  0
 41 35  2  0
  1 69  1  0
  6 70  1  0
  9 71  1  0
 10 72  1  0
 19 73  1  0
 25 74  1  0
 29 75  1  0
 29 76  1  0
 30 77  1  0
 30 78  1  0
 30 79  1  0
 38 80  1  0
 38 81  1  0
 39 82  1  0
 39 83  1  0
 39 84  1  0
 41 85  1  0
 48 86  1  0
 52 87  1  0
 57 88  1  0
 60 89  1  0
 61 90  1  0
M  END

