
     RDKit          3D

101115  0  0  0  0  0  0  0  0999 V2000
    0.7554   -2.7462    8.0380 C   0  0  0  0  0  0  0  0  0  0  0  0
    0.4052   -1.4337    8.1101 C   0  0  0  0  0  0  0  0  0  0  0  0
    0.8781   -0.3973    7.1698 C   0  0  0  0  0  0  0  0  0  0  0  0
    1.6634   -0.5807    6.2087 O   0  0  0  0  0  0  0  0  0  0  0  0
    0.2957    0.8896    7.5260 C   0  0  0  0  0  0  0  0  0  0  0  0
    0.4147    2.1424    6.9384 C   0  0  0  0  0  0  0  0  0  0  0  0
   -0.2550    3.2391    7.4229 C   0  0  0  0  0  0  0  0  0  0  0  0
   -0.1384    4.5848    6.8019 C   0  0  0  0  0  0  0  0  0  0  0  0
   -1.0566    3.0563    8.5230 C   0  0  0  0  0  0  0  0  0  0  0  0
   -1.7295    4.1344    9.0085 F   0  0  0  0  0  0  0  0  0  0  0  0
   -1.1722    1.7888    9.1158 C   0  0  0  0  0  0  0  0  0  0  0  0
   -0.4969    0.6921    8.6172 C   0  0  0  0  0  0  0  0  0  0  0  0
   -0.4704   -0.7516    9.0340 C   0  0  0  0  0  0  0  0  0  0  0  0
   -1.1978   -1.2717    9.9572 C   0  0  0  0  0  0  0  0  0  0  0  0
   -2.0567   -0.4817   10.8702 C   0  0  0  0  0  0  0  0  0  0  0  0
   -2.7014    0.1372   11.5766 N   0  0  0  0  0  0  0  0  0  0  0  0
   -1.3804   -2.7066   10.1731 C   0  0  0  0  0  0  0  0  0  0  0  0
   -1.5366   -3.8256   10.3530 N   0  0  0  0  0  0  0  0  0  0  0  0
    1.6507   -3.0241    6.9013 C   0  0  0  0  0  0  0  0  0  0  0  0
    2.9591   -3.0746    6.6338 C   0  0  0  0  0  0  0  0  0  0  0  0
    3.4531   -3.1525    5.3717 C   0  0  0  0  0  0  0  0  0  0  0  0
    5.1233   -2.9748    4.6947 S   0  0  0  0  0  0  0  0  0  0  0  0
    4.6573   -2.9833    3.0206 C   0  0  0  0  0  0  0  0  0  0  0  0
    5.0720   -2.7692    1.7163 C   0  0  0  0  0  0  0  0  0  0  0  0
    6.3339   -2.3411    1.2544 C   0  0  0  0  0  0  0  0  0  0  0  0
    6.4281   -1.8934   -0.0269 C   0  0  0  0  0  0  0  0  0  0  0  0
    7.6629   -1.4973   -0.4116 N   0  0  0  0  0  0  0  0  0  0  0  0
    8.6207   -1.7380    0.9330 S   0  0  0  0  0  0  0  0  0  0  0  0
    7.4512   -2.3367    1.9716 N   0  0  0  0  0  0  0  0  0  0  0  0
    5.2857   -1.8969   -0.8056 C   0  0  0  0  0  0  0  0  0  0  0  0
    5.0543   -1.3535   -2.0585 C   0  0  0  0  0  0  0  0  0  0  0  0
    3.7628   -1.4760   -2.3836 C   0  0  0  0  0  0  0  0  0  0  0  0
    3.1415   -2.1284   -1.3066 N   0  0  0  0  0  0  0  0  0  0  0  0
    1.8317   -2.6869   -1.4611 C   0  0  0  0  0  0  0  0  0  0  0  0
    0.6339   -1.8577   -1.4071 C   0  0  0  0  0  0  0  0  0  0  0  0
    4.0582   -2.3520   -0.3685 C   0  0  0  0  0  0  0  0  0  0  0  0
    3.9232   -2.7998    0.9604 C   0  0  0  0  0  0  0  0  0  0  0  0
    2.8651   -3.0212    1.7460 N   0  0  0  0  0  0  0  0  0  0  0  0
    3.2927   -3.1317    3.0595 C   0  0  0  0  0  0  0  0  0  0  0  0
    2.8770   -3.1971    4.2688 C   0  0  0  0  0  0  0  0  0  0  0  0
    0.8671   -3.1172    5.1376 Se  0  0  0  0  0  2  0  0  0  0  0  0
    1.4639   -3.1046    1.4711 C   0  0  0  0  0  0  0  0  0  0  0  0
    0.9803   -4.4738    1.2118 C   0  0  0  0  0  0  0  0  0  0  0  0
    3.4309   -0.8343   -3.4680 C   0  0  0  0  0  0  0  0  0  0  0  0
    4.1523   -0.1286   -4.2357 C   0  0  0  0  0  0  0  0  0  0  0  0
    5.6943   -0.3477   -3.3335 S   0  0  0  0  0  0  0  0  0  0  0  0
    3.7788    0.6450   -5.2811 C   0  0  0  0  0  0  0  0  0  0  0  0
    2.5212    0.7944   -5.6931 C   0  0  0  0  0  0  0  0  0  0  0  0
    1.6049   -0.3803   -4.4090 Se  0  0  0  0  0  2  0  0  0  0  0  0
    1.6674    1.4452   -6.6406 C   0  0  0  0  0  0  0  0  0  0  0  0
    0.5168    2.0190   -6.2023 C   0  0  0  0  0  0  0  0  0  0  0  0
   -0.4510    2.6647   -7.1207 C   0  0  0  0  0  0  0  0  0  0  0  0
   -0.2966    2.8788   -8.3293 O   0  0  0  0  0  0  0  0  0  0  0  0
   -1.6487    3.0039   -6.3183 C   0  0  0  0  0  0  0  0  0  0  0  0
   -2.8443    3.5692   -6.7219 C   0  0  0  0  0  0  0  0  0  0  0  0
   -3.8584    3.7620   -5.8211 C   0  0  0  0  0  0  0  0  0  0  0  0
   -3.6834    3.3900   -4.5091 C   0  0  0  0  0  0  0  0  0  0  0  0
   -2.4748    2.8153   -4.0952 C   0  0  0  0  0  0  0  0  0  0  0  0
   -1.4871    2.6382   -5.0216 C   0  0  0  0  0  0  0  0  0  0  0  0
   -0.1020    2.0188   -4.9029 C   0  0  0  0  0  0  0  0  0  0  0  0
    0.5067    2.0673   -3.7104 C   0  0  0  0  0  0  0  0  0  0  0  0
   -0.1197    1.9995   -2.4174 C   0  0  0  0  0  0  0  0  0  0  0  0
   -0.6226    1.9551   -1.4049 N   0  0  0  0  0  0  0  0  0  0  0  0
    1.8368    2.6500   -3.6689 C   0  0  0  0  0  0  0  0  0  0  0  0
    2.9554    3.1622   -3.6394 N   0  0  0  0  0  0  0  0  0  0  0  0
   -5.0191    3.8098   -4.0126 C   0  0  0  0  0  0  0  0  0  0  0  0
   -6.0084    2.7370   -3.7006 C   0  0  0  0  0  0  0  0  0  0  0  0
   -5.6109    1.5324   -4.4482 C   0  0  0  0  0  0  0  0  0  0  0  0
   -5.6833    1.8513   -5.7367 C   0  0  0  0  0  0  0  0  0  0  0  0
   -6.3075    3.2222   -5.8647 C   0  0  0  0  0  0  0  0  0  0  0  0
   -7.1710    3.2055   -4.6063 C   0  0  0  0  0  0  0  0  0  0  0  0
   -5.2333    4.2043   -5.4543 C   0  0  0  0  0  0  0  0  0  0  0  0
    0.4608   -3.4978    8.6831 H   0  0  0  0  0  0  0  0  0  0  0  0
    1.0515    2.2748    6.0830 H   0  0  0  0  0  0  0  0  0  0  0  0
    0.8859    4.5973    6.3296 H   0  0  0  0  0  0  0  0  0  0  0  0
   -0.1420    5.3603    7.5988 H   0  0  0  0  0  0  0  0  0  0  0  0
   -0.8546    4.7823    6.0076 H   0  0  0  0  0  0  0  0  0  0  0  0
   -1.8227    1.7698    9.9620 H   0  0  0  0  0  0  0  0  0  0  0  0
    3.6150   -3.0567    7.5668 H   0  0  0  0  0  0  0  0  0  0  0  0
    1.7643   -3.7267   -1.0793 H   0  0  0  0  0  0  0  0  0  0  0  0
    1.8453   -3.0300   -2.5962 H   0  0  0  0  0  0  0  0  0  0  0  0
   -0.1696   -2.4088   -0.7919 H   0  0  0  0  0  0  0  0  0  0  0  0
    0.7165   -0.8764   -0.9528 H   0  0  0  0  0  0  0  0  0  0  0  0
    0.0858   -1.8202   -2.4004 H   0  0  0  0  0  0  0  0  0  0  0  0
    0.8833   -2.8797    2.4926 H   0  0  0  0  0  0  0  0  0  0  0  0
    1.0661   -2.2388    0.9655 H   0  0  0  0  0  0  0  0  0  0  0  0
    1.8537   -5.1045    0.8472 H   0  0  0  0  0  0  0  0  0  0  0  0
    0.6159   -5.0371    2.1095 H   0  0  0  0  0  0  0  0  0  0  0  0
    0.1431   -4.5282    0.4742 H   0  0  0  0  0  0  0  0  0  0  0  0
    4.5409    1.2426   -5.9147 H   0  0  0  0  0  0  0  0  0  0  0  0
    1.8950    1.4996   -7.6748 H   0  0  0  0  0  0  0  0  0  0  0  0
   -2.9393    3.8529   -7.7861 H   0  0  0  0  0  0  0  0  0  0  0  0
   -2.3721    2.5292   -3.0642 H   0  0  0  0  0  0  0  0  0  0  0  0
   -4.9961    4.6569   -3.2973 H   0  0  0  0  0  0  0  0  0  0  0  0
   -6.3290    2.6010   -2.6900 H   0  0  0  0  0  0  0  0  0  0  0  0
   -5.3180    0.5886   -4.0092 H   0  0  0  0  0  0  0  0  0  0  0  0
   -5.3553    1.2335   -6.5356 H   0  0  0  0  0  0  0  0  0  0  0  0
   -6.8169    3.3900   -6.7832 H   0  0  0  0  0  0  0  0  0  0  0  0
   -7.5094    4.2046   -4.2902 H   0  0  0  0  0  0  0  0  0  0  0  0
   -7.9236    2.4263   -4.6297 H   0  0  0  0  0  0  0  0  0  0  0  0
   -5.4170    5.2579   -5.6454 H   0  0  0  0  0  0  0  0  0  0  0  0
  1  2  2  3
  2  3  1  0
  3  4  2  0
  3  5  1  0
  5  6  2  0
  6  7  1  0
  7  8  1  0
  7  9  2  0
  9 10  1  0
  9 11  1  0
 11 12  2  0
 12 13  1  0
 13 14  2  3
 14 15  1  0
 15 16  3  0
 14 17  1  0
 17 18  3  0
  1 19  1  0
 19 20  2  0
 20 21  1  0
 21 22  1  0
 22 23  1  0
 23 24  1  0
 24 25  1  0
 25 26  1  0
 26 27  2  0
 27 28  1  0
 28 29  1  0
 26 30  1  0
 30 31  1  0
 31 32  2  0
 32 33  1  0
 33 34  1  0
 34 35  1  0
 33 36  1  0
 36 37  1  0
 37 38  1  0
 38 39  1  0
 39 40  1  0
 40 41  1  0
 38 42  1  0
 42 43  1  0
 32 44  1  0
 44 45  2  0
 45 46  1  0
 45 47  1  0
 47 48  2  0
 48 49  1  0
 48 50  1  0
 50 51  2  3
 51 52  1  0
 52 53  2  0
 52 54  1  0
 54 55  2  0
 55 56  1  0
 56 57  2  0
 57 58  1  0
 58 59  2  0
 59 60  1  0
 60 61  2  3
 61 62  1  0
 62 63  3  0
 61 64  1  0
 64 65  3  0
 57 66  1  0
 66 67  1  0
 67 68  1  0
 68 69  2  0
 69 70  1  0
 70 71  1  0
 70 72  1  0
 13  2  1  0
 41 19  1  0
 49 44  1  0
 60 51  1  0
 72 66  1  0
 12  5  1  0
 40 21  2  0
 59 54  1  0
 71 67  1  0
 39 23  2  0
 72 56  1  0
 37 24  2  0
 29 25  2  0
 36 30  2  0
 46 31  1  0
  1 73  1  0
  6 74  1  0
  8 75  1  0
  8 76  1  0
  8 77  1  0
 11 78  1  0
 20 79  1  0
 34 80  1  0
 34 81  1  0
 35 82  1  0
 35 83  1  0
 35 84  1  0
 42 85  1  0
 42 86  1  0
 43 87  1  0
 43 88  1  0
 43 89  1  0
 47 90  1  0
 50 91  1  0
 55 92  1  0
 58 93  1  0
 66 94  1  0
 67 95  1  0
 68 96  1  0
 69 97  1  0
 70 98  1  0
 71 99  1  0
 71100  1  0
 72101  1  0
M  END

