
     RDKit          3D

107121  0  0  0  0  0  0  0  0999 V2000
   -0.1009   -8.3763   -2.9873 C   0  0  0  0  0  0  0  0  0  0  0  0
   -0.8023   -7.7209   -3.9496 C   0  0  0  0  0  0  0  0  0  0  0  0
   -0.3975   -7.7668   -5.3532 C   0  0  0  0  0  0  0  0  0  0  0  0
    0.2614   -8.6969   -5.8967 O   0  0  0  0  0  0  0  0  0  0  0  0
   -0.7411   -6.4906   -5.9679 C   0  0  0  0  0  0  0  0  0  0  0  0
   -0.2732   -5.9734   -7.1756 C   0  0  0  0  0  0  0  0  0  0  0  0
   -0.5716   -4.6245   -7.4884 C   0  0  0  0  0  0  0  0  0  0  0  0
    0.1254   -3.9162   -8.5960 C   0  0  0  0  0  0  0  0  0  0  0  0
   -1.3859   -3.8728   -6.6144 C   0  0  0  0  0  0  0  0  0  0  0  0
   -1.6736   -2.5646   -6.8824 F   0  0  0  0  0  0  0  0  0  0  0  0
   -1.8097   -4.4018   -5.3865 C   0  0  0  0  0  0  0  0  0  0  0  0
   -1.4369   -5.7117   -5.0447 C   0  0  0  0  0  0  0  0  0  0  0  0
   -1.6199   -6.4777   -3.7715 C   0  0  0  0  0  0  0  0  0  0  0  0
   -2.4734   -6.1955   -2.7490 C   0  0  0  0  0  0  0  0  0  0  0  0
   -2.6968   -7.1846   -1.7186 C   0  0  0  0  0  0  0  0  0  0  0  0
   -2.7420   -8.0285   -0.9337 N   0  0  0  0  0  0  0  0  0  0  0  0
   -3.0270   -4.8795   -2.5557 C   0  0  0  0  0  0  0  0  0  0  0  0
   -3.4535   -3.8154   -2.3765 N   0  0  0  0  0  0  0  0  0  0  0  0
    0.2593   -7.7520   -1.6935 C   0  0  0  0  0  0  0  0  0  0  0  0
    0.2156   -8.3565   -0.4116 C   0  0  0  0  0  0  0  0  0  0  0  0
   -0.1170   -9.8014   -0.1533 C   0  0  0  0  0  0  0  0  0  0  0  0
    1.1621  -10.6267   -0.0428 C   0  0  0  0  0  0  0  0  0  0  0  0
    0.5383   -7.4342    0.5863 C   0  0  0  0  0  0  0  0  0  0  0  0
    0.9010   -6.2046    0.1089 C   0  0  0  0  0  0  0  0  0  0  0  0
    0.7777   -6.1346   -1.5525 S   0  0  0  0  0  0  0  0  0  0  0  0
    1.0797   -5.2704    1.1065 C   0  0  0  0  0  0  0  0  0  0  0  0
    0.8361   -5.7646    2.3320 C   0  0  0  0  0  0  0  0  0  0  0  0
    0.4097   -7.4171    2.2976 S   0  0  0  0  0  0  0  0  0  0  0  0
    0.9675   -4.7089    3.2070 C   0  0  0  0  0  0  0  0  0  0  0  0
    0.7856   -4.6294    4.5891 C   0  0  0  0  0  0  0  0  0  0  0  0
    0.4676   -5.6892    5.3732 N   0  0  0  0  0  0  0  0  0  0  0  0
    0.3865   -4.9308    6.8453 S   0  0  0  0  0  0  0  0  0  0  0  0
    0.7128   -3.3264    6.5755 N   0  0  0  0  0  0  0  0  0  0  0  0
    0.9179   -3.3615    5.2339 C   0  0  0  0  0  0  0  0  0  0  0  0
    1.2106   -2.2418    4.4517 C   0  0  0  0  0  0  0  0  0  0  0  0
    1.2240   -0.9094    4.7840 C   0  0  0  0  0  0  0  0  0  0  0  0
    0.8969    0.1200    6.1069 S   0  0  0  0  0  0  0  0  0  0  0  0
    1.0266    1.5011    5.1000 C   0  0  0  0  0  0  0  0  0  0  0  0
    0.9229    2.8813    5.3107 C   0  0  0  0  0  0  0  0  0  0  0  0
    1.0976    3.5928    4.1005 C   0  0  0  0  0  0  0  0  0  0  0  0
    1.4927    2.4981    2.8624 S   0  0  0  0  0  0  0  0  0  0  0  0
    1.2884    1.1364    3.8121 C   0  0  0  0  0  0  0  0  0  0  0  0
    1.3978   -0.2309    3.6267 C   0  0  0  0  0  0  0  0  0  0  0  0
    1.4752   -1.0286    2.5301 N   0  0  0  0  0  0  0  0  0  0  0  0
    1.3711   -0.5350    1.1515 C   0  0  0  0  0  0  0  0  0  0  0  0
    0.0193   -0.8848    0.5243 C   0  0  0  0  0  0  0  0  0  0  0  0
    1.3939   -2.3047    3.0519 C   0  0  0  0  0  0  0  0  0  0  0  0
    1.3080   -3.5889    2.4170 C   0  0  0  0  0  0  0  0  0  0  0  0
    1.4624   -3.9741    1.1004 N   0  0  0  0  0  0  0  0  0  0  0  0
    2.3916   -3.4625    0.0796 C   0  0  0  0  0  0  0  0  0  0  0  0
    3.7836   -3.2007    0.6710 C   0  0  0  0  0  0  0  0  0  0  0  0
    1.2011    5.0687    3.9965 C   0  0  0  0  0  0  0  0  0  0  0  0
    0.6773    5.8565    3.0277 C   0  0  0  0  0  0  0  0  0  0  0  0
    0.8094    7.3213    3.0389 C   0  0  0  0  0  0  0  0  0  0  0  0
    1.5378    8.0049    3.8063 O   0  0  0  0  0  0  0  0  0  0  0  0
    0.0140    7.8657    1.9564 C   0  0  0  0  0  0  0  0  0  0  0  0
   -0.0205    9.2056    1.4922 C   0  0  0  0  0  0  0  0  0  0  0  0
   -0.7164    9.3580    0.2965 C   0  0  0  0  0  0  0  0  0  0  0  0
   -1.3533    8.2662   -0.3873 C   0  0  0  0  0  0  0  0  0  0  0  0
   -1.3531    6.9635    0.0801 C   0  0  0  0  0  0  0  0  0  0  0  0
   -0.6326    6.7908    1.2867 C   0  0  0  0  0  0  0  0  0  0  0  0
   -0.2701    5.4914    1.9158 C   0  0  0  0  0  0  0  0  0  0  0  0
   -0.1251    4.4101    1.1420 C   0  0  0  0  0  0  0  0  0  0  0  0
   -1.2970    3.7632    0.5977 C   0  0  0  0  0  0  0  0  0  0  0  0
   -2.2373    3.2372    0.1718 N   0  0  0  0  0  0  0  0  0  0  0  0
    1.0614    4.2892    0.3322 C   0  0  0  0  0  0  0  0  0  0  0  0
    1.9996    4.1938   -0.3303 N   0  0  0  0  0  0  0  0  0  0  0  0
   -1.7590    9.1849   -1.5056 C   0  0  0  0  0  0  0  0  0  0  0  0
   -3.2574    9.6061   -1.6049 C   0  0  0  0  0  0  0  0  0  0  0  0
   -3.8789    9.6395   -0.2261 C   0  0  0  0  0  0  0  0  0  0  0  0
   -3.3055   10.6538    0.4246 C   0  0  0  0  0  0  0  0  0  0  0  0
   -2.3142   11.2775   -0.5325 C   0  0  0  0  0  0  0  0  0  0  0  0
   -3.0912   11.0984   -1.8303 C   0  0  0  0  0  0  0  0  0  0  0  0
   -1.1246   10.3050   -0.7964 C   0  0  0  0  0  0  0  0  0  0  0  0
    0.4416   -9.2755   -3.2448 H   0  0  0  0  0  0  0  0  0  0  0  0
    0.3686   -6.5772   -7.8118 H   0  0  0  0  0  0  0  0  0  0  0  0
    0.6622   -3.0282   -8.1897 H   0  0  0  0  0  0  0  0  0  0  0  0
   -0.6189   -3.5786   -9.3513 H   0  0  0  0  0  0  0  0  0  0  0  0
    0.8734   -4.5632   -9.0878 H   0  0  0  0  0  0  0  0  0  0  0  0
   -2.3438   -3.7583   -4.7097 H   0  0  0  0  0  0  0  0  0  0  0  0
   -0.7552  -10.2119   -0.9750 H   0  0  0  0  0  0  0  0  0  0  0  0
   -0.6866   -9.8813    0.7991 H   0  0  0  0  0  0  0  0  0  0  0  0
    0.9033  -11.6809    0.1948 H   0  0  0  0  0  0  0  0  0  0  0  0
    1.7243  -10.5976   -1.0052 H   0  0  0  0  0  0  0  0  0  0  0  0
    1.8160  -10.2343    0.7635 H   0  0  0  0  0  0  0  0  0  0  0  0
    0.7549    3.3429    6.2759 H   0  0  0  0  0  0  0  0  0  0  0  0
    1.4684    0.5625    1.1022 H   0  0  0  0  0  0  0  0  0  0  0  0
    2.2318   -0.8580    0.5520 H   0  0  0  0  0  0  0  0  0  0  0  0
   -0.1560   -1.9768    0.5062 H   0  0  0  0  0  0  0  0  0  0  0  0
   -0.0219   -0.4917   -0.5134 H   0  0  0  0  0  0  0  0  0  0  0  0
   -0.7970   -0.4146    1.1223 H   0  0  0  0  0  0  0  0  0  0  0  0
    2.5455   -4.2092   -0.7346 H   0  0  0  0  0  0  0  0  0  0  0  0
    1.9697   -2.6047   -0.4715 H   0  0  0  0  0  0  0  0  0  0  0  0
    4.0967   -4.0737    1.2792 H   0  0  0  0  0  0  0  0  0  0  0  0
    3.7959   -2.2975    1.3215 H   0  0  0  0  0  0  0  0  0  0  0  0
    4.5291   -3.0857   -0.1584 H   0  0  0  0  0  0  0  0  0  0  0  0
    1.7249    5.5641    4.8073 H   0  0  0  0  0  0  0  0  0  0  0  0
    0.5021   10.0309    1.9808 H   0  0  0  0  0  0  0  0  0  0  0  0
   -1.8164    6.1526   -0.4785 H   0  0  0  0  0  0  0  0  0  0  0  0
   -1.2738    8.9415   -2.4814 H   0  0  0  0  0  0  0  0  0  0  0  0
   -3.8487    9.0706   -2.3784 H   0  0  0  0  0  0  0  0  0  0  0  0
   -4.6623    8.9895    0.1628 H   0  0  0  0  0  0  0  0  0  0  0  0
   -3.5511   10.9795    1.4345 H   0  0  0  0  0  0  0  0  0  0  0  0
   -2.0291   12.3182   -0.2940 H   0  0  0  0  0  0  0  0  0  0  0  0
   -4.0613   11.6606   -1.8616 H   0  0  0  0  0  0  0  0  0  0  0  0
   -2.4992   11.3549   -2.7474 H   0  0  0  0  0  0  0  0  0  0  0  0
   -0.2686   10.7486   -1.3514 H   0  0  0  0  0  0  0  0  0  0  0  0
  1  2  2  3
  2  3  1  0
  3  4  2  0
  3  5  1  0
  5  6  2  0
  6  7  1  0
  7  8  1  0
  7  9  2  0
  9 10  1  0
  9 11  1  0
 11 12  2  0
 12 13  1  0
 13 14  2  3
 14 15  1  0
 15 16  3  0
 14 17  1  0
 17 18  3  0
  1 19  1  0
 19 20  2  0
 20 21  1  0
 21 22  1  0
 20 23  1  0
 23 24  2  0
 24 25  1  0
 24 26  1  0
 26 27  2  0
 27 28  1  0
 27 29  1  0
 29 30  1  0
 30 31  2  0
 31 32  1  0
 32 33  1  0
 33 34  2  0
 34 35  1  0
 35 36  1  0
 36 37  1  0
 37 38  1  0
 38 39  1  0
 39 40  2  0
 40 41  1  0
 41 42  1  0
 42 43  1  0
 43 44  1  0
 44 45  1  0
 45 46  1  0
 44 47  1  0
 47 48  1  0
 48 49  1  0
 49 50  1  0
 50 51  1  0
 40 52  1  0
 52 53  2  3
 53 54  1  0
 54 55  2  0
 54 56  1  0
 56 57  2  0
 57 58  1  0
 58 59  2  0
 59 60  1  0
 60 61  2  0
 61 62  1  0
 62 63  2  3
 63 64  1  0
 64 65  3  0
 63 66  1  0
 66 67  3  0
 59 68  1  0
 68 69  1  0
 69 70  1  0
 70 71  2  0
 71 72  1  0
 72 73  1  0
 72 74  1  0
 13  2  1  0
 25 19  1  0
 49 26  1  0
 62 53  1  0
 74 68  1  0
 12  5  1  0
 28 23  1  0
 48 29  2  0
 61 56  1  0
 73 69  1  0
 34 30  1  0
 47 35  2  0
 74 58  1  0
 43 36  2  0
 42 38  2  0
  1 75  1  0
  6 76  1  0
  8 77  1  0
  8 78  1  0
  8 79  1  0
 11 80  1  0
 21 81  1  0
 21 82  1  0
 22 83  1  0
 22 84  1  0
 22 85  1  0
 39 86  1  0
 45 87  1  0
 45 88  1  0
 46 89  1  0
 46 90  1  0
 46 91  1  0
 50 92  1  0
 50 93  1  0
 51 94  1  0
 51 95  1  0
 51 96  1  0
 52 97  1  0
 57 98  1  0
 60 99  1  0
 68100  1  0
 69101  1  0
 70102  1  0
 71103  1  0
 72104  1  0
 73105  1  0
 73106  1  0
 74107  1  0
M  END

