
     RDKit          3D

122136  0  0  0  0  0  0  0  0999 V2000
   -2.9888    2.8914   -5.5965 C   0  0  0  0  0  0  0  0  0  0  0  0
   -4.2468    3.3646   -5.5178 C   0  0  0  0  0  0  0  0  0  0  0  0
   -5.3417    2.8088   -4.7142 C   0  0  0  0  0  0  0  0  0  0  0  0
   -5.4588    1.6167   -4.3241 O   0  0  0  0  0  0  0  0  0  0  0  0
   -6.3351    3.8442   -4.5287 C   0  0  0  0  0  0  0  0  0  0  0  0
   -7.4733    3.8125   -3.7238 C   0  0  0  0  0  0  0  0  0  0  0  0
   -8.2578    4.9764   -3.6187 C   0  0  0  0  0  0  0  0  0  0  0  0
   -9.5031    4.9775   -2.7819 C   0  0  0  0  0  0  0  0  0  0  0  0
   -7.8795    6.1399   -4.3272 C   0  0  0  0  0  0  0  0  0  0  0  0
   -8.6175    7.2739   -4.2245 F   0  0  0  0  0  0  0  0  0  0  0  0
   -6.7289    6.1443   -5.1321 C   0  0  0  0  0  0  0  0  0  0  0  0
   -5.9714    4.9692   -5.2471 C   0  0  0  0  0  0  0  0  0  0  0  0
   -4.7283    4.6867   -6.0204 C   0  0  0  0  0  0  0  0  0  0  0  0
   -4.2854    5.3546   -7.1175 C   0  0  0  0  0  0  0  0  0  0  0  0
   -4.9002    6.5687   -7.5859 C   0  0  0  0  0  0  0  0  0  0  0  0
   -5.3861    7.5444   -7.9756 N   0  0  0  0  0  0  0  0  0  0  0  0
   -3.2643    4.8178   -7.9787 C   0  0  0  0  0  0  0  0  0  0  0  0
   -2.4476    4.3884   -8.6766 N   0  0  0  0  0  0  0  0  0  0  0  0
   -2.4760    1.7241   -4.8552 C   0  0  0  0  0  0  0  0  0  0  0  0
   -1.4954    0.8355   -5.3407 C   0  0  0  0  0  0  0  0  0  0  0  0
   -0.9401    0.8413   -6.7382 C   0  0  0  0  0  0  0  0  0  0  0  0
    0.3086    1.7135   -6.8256 C   0  0  0  0  0  0  0  0  0  0  0  0
   -1.0516   -0.0200   -4.3305 C   0  0  0  0  0  0  0  0  0  0  0  0
   -1.6426    0.1744   -3.1097 C   0  0  0  0  0  0  0  0  0  0  0  0
   -2.7315    1.4393   -3.1896 S   0  0  0  0  0  0  0  0  0  0  0  0
   -1.1387   -0.6657   -2.1315 C   0  0  0  0  0  0  0  0  0  0  0  0
   -0.1909   -1.4977   -2.6201 C   0  0  0  0  0  0  0  0  0  0  0  0
    0.1075   -1.2715   -4.2775 S   0  0  0  0  0  0  0  0  0  0  0  0
    0.1175   -2.3807   -1.6281 C   0  0  0  0  0  0  0  0  0  0  0  0
    0.9289   -3.5174   -1.6330 C   0  0  0  0  0  0  0  0  0  0  0  0
    1.6620   -3.8712   -2.7191 N   0  0  0  0  0  0  0  0  0  0  0  0
    2.4787   -4.9598   -2.6950 C   0  0  0  0  0  0  0  0  0  0  0  0
    3.2586   -5.3034   -3.9300 C   0  0  0  0  0  0  0  0  0  0  0  0
    2.5512   -5.7440   -1.5184 C   0  0  0  0  0  0  0  0  0  0  0  0
    3.4590   -6.9332   -1.4150 C   0  0  0  0  0  0  0  0  0  0  0  0
    1.8124   -5.3830   -0.4326 N   0  0  0  0  0  0  0  0  0  0  0  0
    0.9953   -4.2984   -0.4612 C   0  0  0  0  0  0  0  0  0  0  0  0
    0.2497   -3.8977    0.6635 C   0  0  0  0  0  0  0  0  0  0  0  0
    0.3836   -4.2849    1.9715 C   0  0  0  0  0  0  0  0  0  0  0  0
    1.6687   -5.0392    2.7891 S   0  0  0  0  0  0  0  0  0  0  0  0
    1.3855   -4.1469    4.2047 C   0  0  0  0  0  0  0  0  0  0  0  0
    2.2227   -3.8623    5.2924 C   0  0  0  0  0  0  0  0  0  0  0  0
    3.5383   -4.5517    5.5357 C   0  0  0  0  0  0  0  0  0  0  0  0
    3.3219   -5.9611    6.0759 C   0  0  0  0  0  0  0  0  0  0  0  0
    1.7738   -2.7214    5.9837 C   0  0  0  0  0  0  0  0  0  0  0  0
    0.3931   -2.1035    5.2207 S   0  0  0  0  0  0  0  0  0  0  0  0
    0.3430   -3.2694    4.0192 C   0  0  0  0  0  0  0  0  0  0  0  0
   -0.2135   -3.3193    2.7356 C   0  0  0  0  0  0  0  0  0  0  0  0
   -0.7620   -2.3288    1.9755 N   0  0  0  0  0  0  0  0  0  0  0  0
   -0.9767   -0.9577    2.4556 C   0  0  0  0  0  0  0  0  0  0  0  0
   -2.2112   -0.8764    3.3596 C   0  0  0  0  0  0  0  0  0  0  0  0
   -0.5208   -2.7236    0.6829 C   0  0  0  0  0  0  0  0  0  0  0  0
   -0.6534   -1.9896   -0.5233 C   0  0  0  0  0  0  0  0  0  0  0  0
   -1.4890   -0.9479   -0.8528 N   0  0  0  0  0  0  0  0  0  0  0  0
   -2.8053   -0.6326   -0.2833 C   0  0  0  0  0  0  0  0  0  0  0  0
   -2.9132    0.8436    0.1227 C   0  0  0  0  0  0  0  0  0  0  0  0
    2.5929   -1.8614    6.8469 C   0  0  0  0  0  0  0  0  0  0  0  0
    3.3704   -0.8898    6.3240 C   0  0  0  0  0  0  0  0  0  0  0  0
    3.5675   -0.6487    4.8860 C   0  0  0  0  0  0  0  0  0  0  0  0
    3.4839   -1.5038    3.9651 O   0  0  0  0  0  0  0  0  0  0  0  0
    3.8861    0.7454    4.6880 C   0  0  0  0  0  0  0  0  0  0  0  0
    3.9666    1.4309    3.4549 C   0  0  0  0  0  0  0  0  0  0  0  0
    4.1208    2.7972    3.5851 C   0  0  0  0  0  0  0  0  0  0  0  0
    4.1872    3.4600    4.8526 C   0  0  0  0  0  0  0  0  0  0  0  0
    4.1166    2.7907    6.0651 C   0  0  0  0  0  0  0  0  0  0  0  0
    3.9852    1.3778    5.9528 C   0  0  0  0  0  0  0  0  0  0  0  0
    3.8123    0.3538    7.0216 C   0  0  0  0  0  0  0  0  0  0  0  0
    4.1791    0.4644    8.3224 C   0  0  0  0  0  0  0  0  0  0  0  0
    4.1820   -0.6707    9.2107 C   0  0  0  0  0  0  0  0  0  0  0  0
    4.1919   -1.5792    9.9293 N   0  0  0  0  0  0  0  0  0  0  0  0
    4.7630    1.6641    8.8579 C   0  0  0  0  0  0  0  0  0  0  0  0
    5.2463    2.6207    9.2971 N   0  0  0  0  0  0  0  0  0  0  0  0
    4.3034    4.7897    4.1673 C   0  0  0  0  0  0  0  0  0  0  0  0
    5.7131    5.4497    4.1673 C   0  0  0  0  0  0  0  0  0  0  0  0
    5.6661    6.5285    3.1113 C   0  0  0  0  0  0  0  0  0  0  0  0
    5.6168    5.9018    1.9303 C   0  0  0  0  0  0  0  0  0  0  0  0
    5.6273    4.4217    2.2302 C   0  0  0  0  0  0  0  0  0  0  0  0
    6.5656    4.4352    3.4258 C   0  0  0  0  0  0  0  0  0  0  0  0
    4.2439    4.1087    2.8700 C   0  0  0  0  0  0  0  0  0  0  0  0
   -2.2486    3.4329   -6.1613 H   0  0  0  0  0  0  0  0  0  0  0  0
   -7.7297    2.9123   -3.1798 H   0  0  0  0  0  0  0  0  0  0  0  0
  -10.3916    4.9893   -3.4455 H   0  0  0  0  0  0  0  0  0  0  0  0
   -9.5526    4.0781   -2.1304 H   0  0  0  0  0  0  0  0  0  0  0  0
   -9.5235    5.8776   -2.1312 H   0  0  0  0  0  0  0  0  0  0  0  0
   -6.4398    7.0621   -5.6146 H   0  0  0  0  0  0  0  0  0  0  0  0
   -1.7062    1.2190   -7.4481 H   0  0  0  0  0  0  0  0  0  0  0  0
   -0.6844   -0.1957   -7.0439 H   0  0  0  0  0  0  0  0  0  0  0  0
    1.1104    1.3041   -6.1753 H   0  0  0  0  0  0  0  0  0  0  0  0
    0.6735    1.7310   -7.8729 H   0  0  0  0  0  0  0  0  0  0  0  0
    0.0806    2.7541   -6.5130 H   0  0  0  0  0  0  0  0  0  0  0  0
    4.3258   -5.4668   -3.6786 H   0  0  0  0  0  0  0  0  0  0  0  0
    2.8421   -6.2229   -4.3919 H   0  0  0  0  0  0  0  0  0  0  0  0
    3.2003   -4.4747   -4.6674 H   0  0  0  0  0  0  0  0  0  0  0  0
    3.2527   -7.4992   -0.4812 H   0  0  0  0  0  0  0  0  0  0  0  0
    3.3046   -7.6129   -2.2764 H   0  0  0  0  0  0  0  0  0  0  0  0
    4.5158   -6.5938   -1.3945 H   0  0  0  0  0  0  0  0  0  0  0  0
    4.1130   -4.6020    4.5861 H   0  0  0  0  0  0  0  0  0  0  0  0
    4.1518   -3.9819    6.2679 H   0  0  0  0  0  0  0  0  0  0  0  0
    4.3036   -6.4587    6.2132 H   0  0  0  0  0  0  0  0  0  0  0  0
    2.7153   -6.5625    5.3664 H   0  0  0  0  0  0  0  0  0  0  0  0
    2.8062   -5.9183    7.0586 H   0  0  0  0  0  0  0  0  0  0  0  0
   -0.0801   -0.6121    3.0098 H   0  0  0  0  0  0  0  0  0  0  0  0
   -1.0563   -0.2459    1.6219 H   0  0  0  0  0  0  0  0  0  0  0  0
   -2.1835   -1.6556    4.1430 H   0  0  0  0  0  0  0  0  0  0  0  0
   -3.1421   -1.0191    2.7801 H   0  0  0  0  0  0  0  0  0  0  0  0
   -2.2519    0.1200    3.8464 H   0  0  0  0  0  0  0  0  0  0  0  0
   -3.5886   -0.8626   -1.0364 H   0  0  0  0  0  0  0  0  0  0  0  0
   -3.0198   -1.2957    0.5745 H   0  0  0  0  0  0  0  0  0  0  0  0
   -1.9735    1.3962   -0.0962 H   0  0  0  0  0  0  0  0  0  0  0  0
   -3.7481    1.3322   -0.4228 H   0  0  0  0  0  0  0  0  0  0  0  0
   -3.1278    0.9345    1.2074 H   0  0  0  0  0  0  0  0  0  0  0  0
    2.3257   -1.8436    7.8904 H   0  0  0  0  0  0  0  0  0  0  0  0
    3.8685    0.9412    2.4950 H   0  0  0  0  0  0  0  0  0  0  0  0
    4.1069    3.3320    6.9965 H   0  0  0  0  0  0  0  0  0  0  0  0
    3.4491    5.4734    4.3676 H   0  0  0  0  0  0  0  0  0  0  0  0
    6.0951    5.7757    5.1570 H   0  0  0  0  0  0  0  0  0  0  0  0
    5.7486    7.6002    3.2581 H   0  0  0  0  0  0  0  0  0  0  0  0
    5.6578    6.3775    0.9551 H   0  0  0  0  0  0  0  0  0  0  0  0
    5.9248    3.7662    1.3845 H   0  0  0  0  0  0  0  0  0  0  0  0
    6.6629    3.4551    3.9417 H   0  0  0  0  0  0  0  0  0  0  0  0
    7.5893    4.8125    3.1823 H   0  0  0  0  0  0  0  0  0  0  0  0
    3.3548    4.3658    2.2504 H   0  0  0  0  0  0  0  0  0  0  0  0
  1  2  2  3
  2  3  1  0
  3  4  2  0
  3  5  1  0
  5  6  2  0
  6  7  1  0
  7  8  1  0
  7  9  2  0
  9 10  1  0
  9 11  1  0
 11 12  2  0
 12 13  1  0
 13 14  2  3
 14 15  1  0
 15 16  3  0
 14 17  1  0
 17 18  3  0
  1 19  1  0
 19 20  2  0
 20 21  1  0
 21 22  1  0
 20 23  1  0
 23 24  2  0
 24 25  1  0
 24 26  1  0
 26 27  2  0
 27 28  1  0
 27 29  1  0
 29 30  2  0
 30 31  1  0
 31 32  2  0
 32 33  1  0
 32 34  1  0
 34 35  1  0
 34 36  2  0
 36 37  1  0
 37 38  2  0
 38 39  1  0
 39 40  1  0
 40 41  1  0
 41 42  1  0
 42 43  1  0
 43 44  1  0
 42 45  2  0
 45 46  1  0
 46 47  1  0
 47 48  1  0
 48 49  1  0
 49 50  1  0
 50 51  1  0
 49 52  1  0
 52 53  2  0
 53 54  1  0
 54 55  1  0
 55 56  1  0
 45 57  1  0
 57 58  2  3
 58 59  1  0
 59 60  2  0
 59 61  1  0
 61 62  2  0
 62 63  1  0
 63 64  2  0
 64 65  1  0
 65 66  2  0
 66 67  1  0
 67 68  2  3
 68 69  1  0
 69 70  3  0
 68 71  1  0
 71 72  3  0
 64 73  1  0
 73 74  1  0
 74 75  1  0
 75 76  2  0
 76 77  1  0
 77 78  1  0
 77 79  1  0
 13  2  1  0
 25 19  1  0
 54 26  1  0
 67 58  1  0
 79 73  1  0
 12  5  1  0
 28 23  1  0
 53 29  1  0
 66 61  1  0
 78 74  1  0
 37 30  1  0
 52 38  1  0
 79 63  1  0
 48 39  2  0
 47 41  2  0
  1 80  1  0
  6 81  1  0
  8 82  1  0
  8 83  1  0
  8 84  1  0
 11 85  1  0
 21 86  1  0
 21 87  1  0
 22 88  1  0
 22 89  1  0
 22 90  1  0
 33 91  1  0
 33 92  1  0
 33 93  1  0
 35 94  1  0
 35 95  1  0
 35 96  1  0
 43 97  1  0
 43 98  1  0
 44 99  1  0
 44100  1  0
 44101  1  0
 50102  1  0
 50103  1  0
 51104  1  0
 51105  1  0
 51106  1  0
 55107  1  0
 55108  1  0
 56109  1  0
 56110  1  0
 56111  1  0
 57112  1  0
 62113  1  0
 65114  1  0
 73115  1  0
 74116  1  0
 75117  1  0
 76118  1  0
 77119  1  0
 78120  1  0
 78121  1  0
 79122  1  0
M  END

