
     RDKit          3D

221244  0  0  0  0  0  0  0  0999 V2000
    0.3562    7.3898    5.4134 C   0  0  0  0  0  0  0  0  0  0  0  0
   -0.4954    6.6524    6.1568 C   0  0  0  0  0  0  0  0  0  0  0  0
   -0.8384    5.2427    5.9113 C   0  0  0  0  0  0  0  0  0  0  0  0
   -0.1423    4.3864    5.2983 O   0  0  0  0  0  0  0  0  0  0  0  0
   -2.1351    4.9811    6.4982 C   0  0  0  0  0  0  0  0  0  0  0  0
   -2.8546    3.7867    6.4699 C   0  0  0  0  0  0  0  0  0  0  0  0
   -4.1176    3.7467    7.0910 C   0  0  0  0  0  0  0  0  0  0  0  0
   -4.9276    2.4794    7.0883 C   0  0  0  0  0  0  0  0  0  0  0  0
   -4.6136    4.9029    7.7316 C   0  0  0  0  0  0  0  0  0  0  0  0
   -5.8297    4.8742    8.3412 F   0  0  0  0  0  0  0  0  0  0  0  0
   -3.8671    6.0883    7.7513 C   0  0  0  0  0  0  0  0  0  0  0  0
   -2.6083    6.1151    7.1273 C   0  0  0  0  0  0  0  0  0  0  0  0
   -1.5811    7.1981    7.0310 C   0  0  0  0  0  0  0  0  0  0  0  0
   -1.5611    8.3702    7.7132 C   0  0  0  0  0  0  0  0  0  0  0  0
   -0.3531    9.1502    7.8321 C   0  0  0  0  0  0  0  0  0  0  0  0
    0.6139    9.7778    7.9175 N   0  0  0  0  0  0  0  0  0  0  0  0
   -2.7137    8.9052    8.3813 C   0  0  0  0  0  0  0  0  0  0  0  0
   -3.6507    9.3699    8.8927 N   0  0  0  0  0  0  0  0  0  0  0  0
    1.1897    6.8364    4.3394 C   0  0  0  0  0  0  0  0  0  0  0  0
    2.4207    5.6727    4.5228 S   0  0  0  0  0  0  0  0  0  0  0  0
    2.7125    5.5927    2.8697 C   0  0  0  0  0  0  0  0  0  0  0  0
    3.3034    4.6629    1.9610 C   0  0  0  0  0  0  0  0  0  0  0  0
    2.8124    4.9089    0.7053 C   0  0  0  0  0  0  0  0  0  0  0  0
    1.8960    6.1218    0.6748 C   0  0  0  0  0  0  0  0  0  0  0  0
    1.8730    6.4072    2.1718 C   0  0  0  0  0  0  0  0  0  0  0  0
    1.0140    7.1504    2.9854 C   0  0  0  0  0  0  0  0  0  0  0  0
    0.4615    5.8450    0.2119 C   0  0  0  0  0  0  0  0  0  0  0  0
   -0.1196    4.5600    0.3100 C   0  0  0  0  0  0  0  0  0  0  0  0
   -1.4765    4.3639    0.0382 C   0  0  0  0  0  0  0  0  0  0  0  0
   -2.2967    5.4496   -0.3003 C   0  0  0  0  0  0  0  0  0  0  0  0
   -3.7703    5.2482   -0.5298 C   0  0  0  0  0  0  0  0  0  0  0  0
   -4.0433    4.8058   -1.9575 C   0  0  0  0  0  0  0  0  0  0  0  0
   -1.7340    6.7265   -0.4082 C   0  0  0  0  0  0  0  0  0  0  0  0
   -0.3772    6.9243   -0.1379 C   0  0  0  0  0  0  0  0  0  0  0  0
    2.6273    7.2072   -0.1231 C   0  0  0  0  0  0  0  0  0  0  0  0
    2.4841    7.2715   -1.5234 C   0  0  0  0  0  0  0  0  0  0  0  0
    3.2469    8.1688   -2.2818 C   0  0  0  0  0  0  0  0  0  0  0  0
    4.2007    8.9909   -1.6624 C   0  0  0  0  0  0  0  0  0  0  0  0
    5.0643    9.9206   -2.4752 C   0  0  0  0  0  0  0  0  0  0  0  0
    4.8216   11.3796   -2.1030 C   0  0  0  0  0  0  0  0  0  0  0  0
    4.3876    8.8955   -0.2764 C   0  0  0  0  0  0  0  0  0  0  0  0
    3.6086    8.0197    0.4840 C   0  0  0  0  0  0  0  0  0  0  0  0
    3.1559    3.8953   -0.1791 C   0  0  0  0  0  0  0  0  0  0  0  0
    2.6062    3.3983   -1.7100 S   0  0  0  0  0  0  0  0  0  0  0  0
    3.4409    1.9169   -1.6040 C   0  0  0  0  0  0  0  0  0  0  0  0
    3.1884    0.5904   -2.1376 C   0  0  0  0  0  0  0  0  0  0  0  0
    2.3704    0.1962   -3.2121 C   0  0  0  0  0  0  0  0  0  0  0  0
    1.9636   -1.1546   -3.2573 C   0  0  0  0  0  0  0  0  0  0  0  0
    0.8948   -1.7990   -4.1576 C   0  0  0  0  0  0  0  0  0  0  0  0
   -0.2486   -0.7944   -4.3742 C   0  0  0  0  0  0  0  0  0  0  0  0
   -0.9072   -0.2473   -3.2531 C   0  0  0  0  0  0  0  0  0  0  0  0
   -1.8969    0.7214   -3.3985 C   0  0  0  0  0  0  0  0  0  0  0  0
   -2.2462    1.1858   -4.6755 C   0  0  0  0  0  0  0  0  0  0  0  0
   -3.2578    2.2853   -4.8336 C   0  0  0  0  0  0  0  0  0  0  0  0
   -2.5648    3.6421   -4.8901 C   0  0  0  0  0  0  0  0  0  0  0  0
   -1.5764    0.6821   -5.7945 C   0  0  0  0  0  0  0  0  0  0  0  0
   -0.5854   -0.2922   -5.6476 C   0  0  0  0  0  0  0  0  0  0  0  0
    1.4889   -2.3648   -5.4526 C   0  0  0  0  0  0  0  0  0  0  0  0
    0.7283   -3.2530   -6.2343 C   0  0  0  0  0  0  0  0  0  0  0  0
    1.2513   -3.8241   -7.3995 C   0  0  0  0  0  0  0  0  0  0  0  0
    2.5504   -3.5087   -7.8146 C   0  0  0  0  0  0  0  0  0  0  0  0
    3.1064   -4.1195   -9.0705 C   0  0  0  0  0  0  0  0  0  0  0  0
    2.6516   -3.3356  -10.2944 C   0  0  0  0  0  0  0  0  0  0  0  0
    3.3038   -2.5909   -7.0716 C   0  0  0  0  0  0  0  0  0  0  0  0
    2.7820   -2.0208   -5.9071 C   0  0  0  0  0  0  0  0  0  0  0  0
    0.4879   -2.9612   -3.2606 C   0  0  0  0  0  0  0  0  0  0  0  0
    1.2903   -3.0285   -2.1363 C   0  0  0  0  0  0  0  0  0  0  0  0
    2.2825   -1.9980   -2.1997 C   0  0  0  0  0  0  0  0  0  0  0  0
    3.1619   -1.6368   -1.1819 C   0  0  0  0  0  0  0  0  0  0  0  0
    3.6423   -0.3247   -1.1803 C   0  0  0  0  0  0  0  0  0  0  0  0
    4.3891    0.3530   -0.0458 C   0  0  0  0  0  0  0  0  0  0  0  0
    3.8093   -0.1316    1.2941 C   0  0  0  0  0  0  0  0  0  0  0  0
    4.4644   -1.1143    2.0632 C   0  0  0  0  0  0  0  0  0  0  0  0
    3.8632   -1.6441    3.2129 C   0  0  0  0  0  0  0  0  0  0  0  0
    2.5812   -1.2348    3.5956 C   0  0  0  0  0  0  0  0  0  0  0  0
    1.9328   -1.8050    4.8222 C   0  0  0  0  0  0  0  0  0  0  0  0
    2.4936   -1.1644    6.0973 C   0  0  0  0  0  0  0  0  0  0  0  0
    1.9048   -0.2794    2.8178 C   0  0  0  0  0  0  0  0  0  0  0  0
    2.4992    0.2426    1.6704 C   0  0  0  0  0  0  0  0  0  0  0  0
    5.9114    0.2500   -0.1756 C   0  0  0  0  0  0  0  0  0  0  0  0
    6.5324   -0.1712   -1.3781 C   0  0  0  0  0  0  0  0  0  0  0  0
    7.8976    0.0305   -1.5871 C   0  0  0  0  0  0  0  0  0  0  0  0
    8.6782    0.6543   -0.6068 C   0  0  0  0  0  0  0  0  0  0  0  0
   10.0995    1.0442   -0.9019 C   0  0  0  0  0  0  0  0  0  0  0  0
   10.1517    2.4480   -1.4974 C   0  0  0  0  0  0  0  0  0  0  0  0
    8.0880    1.0365    0.6057 C   0  0  0  0  0  0  0  0  0  0  0  0
    6.7229    0.8334    0.8206 C   0  0  0  0  0  0  0  0  0  0  0  0
    4.0414    1.7806   -0.3742 C   0  0  0  0  0  0  0  0  0  0  0  0
    3.8917    2.9022    0.4225 C   0  0  0  0  0  0  0  0  0  0  0  0
    4.1170    3.1859    2.0812 S   0  0  0  0  0  0  0  0  0  0  0  0
    0.3819   -3.4327   -0.7578 S   0  0  0  0  0  0  0  0  0  0  0  0
   -0.9997   -3.7178   -1.6661 C   0  0  0  0  0  0  0  0  0  0  0  0
   -2.3116   -4.0217   -1.3649 C   0  0  0  0  0  0  0  0  0  0  0  0
   -3.0473   -4.2526   -2.4920 C   0  0  0  0  0  0  0  0  0  0  0  0
   -2.1943   -3.8214   -3.9018 S   0  0  0  0  0  0  0  0  0  0  0  0
   -0.7819   -3.4830   -2.9980 C   0  0  0  0  0  0  0  0  0  0  0  0
   -4.3367   -4.7744   -2.1030 C   0  0  0  0  0  0  0  0  0  0  0  0
   -5.1066   -6.1826   -2.6043 S   0  0  0  0  0  0  0  0  0  0  0  0
   -5.6801   -6.6070   -1.0630 C   0  0  0  0  0  0  0  0  0  0  0  0
   -5.1661   -5.7164   -0.1327 C   0  0  0  0  0  0  0  0  0  0  0  0
   -4.3692   -4.7358   -0.7154 C   0  0  0  0  0  0  0  0  0  0  0  0
   -3.1503   -4.0388   -0.1100 C   0  0  0  0  0  0  0  0  0  0  0  0
   -2.4109   -4.8247    0.9758 C   0  0  0  0  0  0  0  0  0  0  0  0
   -1.8110   -4.1695    2.0754 C   0  0  0  0  0  0  0  0  0  0  0  0
   -1.0781   -4.8829    3.0208 C   0  0  0  0  0  0  0  0  0  0  0  0
   -0.9112   -6.2707    2.8900 C   0  0  0  0  0  0  0  0  0  0  0  0
   -0.1042   -7.0287    3.9044 C   0  0  0  0  0  0  0  0  0  0  0  0
    1.2900   -7.3263    3.3745 C   0  0  0  0  0  0  0  0  0  0  0  0
   -1.4740   -6.9280    1.7847 C   0  0  0  0  0  0  0  0  0  0  0  0
   -2.1966   -6.2105    0.8265 C   0  0  0  0  0  0  0  0  0  0  0  0
   -3.5780   -2.6322    0.3271 C   0  0  0  0  0  0  0  0  0  0  0  0
   -4.6558   -2.4777    1.2280 C   0  0  0  0  0  0  0  0  0  0  0  0
   -5.1081   -1.2056    1.5988 C   0  0  0  0  0  0  0  0  0  0  0  0
   -4.4758   -0.0535    1.0969 C   0  0  0  0  0  0  0  0  0  0  0  0
   -4.9876    1.3112    1.4293 C   0  0  0  0  0  0  0  0  0  0  0  0
   -6.0083    1.7681    0.3912 C   0  0  0  0  0  0  0  0  0  0  0  0
   -3.3946   -0.1945    0.2267 C   0  0  0  0  0  0  0  0  0  0  0  0
   -2.9365   -1.4610   -0.1420 C   0  0  0  0  0  0  0  0  0  0  0  0
   -6.3293   -7.8635   -0.6480 C   0  0  0  0  0  0  0  0  0  0  0  0
   -5.5611   -8.8459   -0.1494 C   0  0  0  0  0  0  0  0  0  0  0  0
   -4.2312   -9.1997   -0.6893 C   0  0  0  0  0  0  0  0  0  0  0  0
   -3.8740   -9.1056   -1.8904 O   0  0  0  0  0  0  0  0  0  0  0  0
   -3.4356   -9.7424    0.3888 C   0  0  0  0  0  0  0  0  0  0  0  0
   -4.1628   -9.6974    1.5571 C   0  0  0  0  0  0  0  0  0  0  0  0
   -3.5729  -10.8543    2.6599 S   0  0  0  0  0  0  0  0  0  0  0  0
   -2.3245  -11.3486    1.6197 C   0  0  0  0  0  0  0  0  0  0  0  0
   -1.6425  -12.5626    1.5857 C   0  0  0  0  0  0  0  0  0  0  0  0
   -1.2190  -12.8818    0.2945 C   0  0  0  0  0  0  0  0  0  0  0  0
   -1.7749  -11.6784   -0.7733 S   0  0  0  0  0  0  0  0  0  0  0  0
   -2.4364  -10.7100    0.4116 C   0  0  0  0  0  0  0  0  0  0  0  0
   -5.5317   -9.2420    1.2924 C   0  0  0  0  0  0  0  0  0  0  0  0
   -6.5186   -9.1800    2.2108 C   0  0  0  0  0  0  0  0  0  0  0  0
   -6.2285   -9.2009    3.6239 C   0  0  0  0  0  0  0  0  0  0  0  0
   -6.0053   -9.1562    4.7497 N   0  0  0  0  0  0  0  0  0  0  0  0
   -7.9134   -9.0549    1.8440 C   0  0  0  0  0  0  0  0  0  0  0  0
   -9.0510   -8.9832    1.5846 N   0  0  0  0  0  0  0  0  0  0  0  0
    0.3057    8.4690    5.4610 H   0  0  0  0  0  0  0  0  0  0  0  0
   -2.4433    2.9192    5.9688 H   0  0  0  0  0  0  0  0  0  0  0  0
   -5.9224    2.6702    6.6413 H   0  0  0  0  0  0  0  0  0  0  0  0
   -5.0554    2.1252    8.1299 H   0  0  0  0  0  0  0  0  0  0  0  0
   -4.4269    1.6784    6.4952 H   0  0  0  0  0  0  0  0  0  0  0  0
   -4.2901    6.9480    8.2455 H   0  0  0  0  0  0  0  0  0  0  0  0
    0.2391    7.8049    2.6103 H   0  0  0  0  0  0  0  0  0  0  0  0
    0.4620    3.7052    0.6315 H   0  0  0  0  0  0  0  0  0  0  0  0
   -1.8906    3.3654    0.1208 H   0  0  0  0  0  0  0  0  0  0  0  0
   -4.3220    6.1923   -0.3280 H   0  0  0  0  0  0  0  0  0  0  0  0
   -4.1639    4.4804    0.1745 H   0  0  0  0  0  0  0  0  0  0  0  0
   -3.5716    3.8197   -2.1390 H   0  0  0  0  0  0  0  0  0  0  0  0
   -5.1373    4.7084   -2.1207 H   0  0  0  0  0  0  0  0  0  0  0  0
   -3.6445    5.5530   -2.6772 H   0  0  0  0  0  0  0  0  0  0  0  0
   -2.3498    7.5782   -0.6714 H   0  0  0  0  0  0  0  0  0  0  0  0
    0.0101    7.9351   -0.1669 H   0  0  0  0  0  0  0  0  0  0  0  0
    1.7936    6.6156   -2.0367 H   0  0  0  0  0  0  0  0  0  0  0  0
    3.1055    8.2013   -3.3551 H   0  0  0  0  0  0  0  0  0  0  0  0
    4.8661    9.7908   -3.5622 H   0  0  0  0  0  0  0  0  0  0  0  0
    6.1359    9.6734   -2.3007 H   0  0  0  0  0  0  0  0  0  0  0  0
    5.4161   12.0356   -2.7741 H   0  0  0  0  0  0  0  0  0  0  0  0
    5.1371   11.5784   -1.0567 H   0  0  0  0  0  0  0  0  0  0  0  0
    3.7460   11.6392   -2.2156 H   0  0  0  0  0  0  0  0  0  0  0  0
    5.1480    9.4860    0.2173 H   0  0  0  0  0  0  0  0  0  0  0  0
    3.8066    7.9619    1.5436 H   0  0  0  0  0  0  0  0  0  0  0  0
    1.9882    0.9239   -3.9204 H   0  0  0  0  0  0  0  0  0  0  0  0
   -0.6192   -0.5555   -2.2577 H   0  0  0  0  0  0  0  0  0  0  0  0
   -2.3687    1.1373   -2.5166 H   0  0  0  0  0  0  0  0  0  0  0  0
   -3.9761    2.2663   -3.9881 H   0  0  0  0  0  0  0  0  0  0  0  0
   -3.8425    2.1291   -5.7683 H   0  0  0  0  0  0  0  0  0  0  0  0
   -3.3313    4.4451   -4.9111 H   0  0  0  0  0  0  0  0  0  0  0  0
   -1.9184    3.7835   -3.9989 H   0  0  0  0  0  0  0  0  0  0  0  0
   -1.9487    3.7184   -5.8072 H   0  0  0  0  0  0  0  0  0  0  0  0
   -1.8017    1.0619   -6.7883 H   0  0  0  0  0  0  0  0  0  0  0  0
   -0.0731   -0.6303   -6.5436 H   0  0  0  0  0  0  0  0  0  0  0  0
   -0.2842   -3.5061   -5.9506 H   0  0  0  0  0  0  0  0  0  0  0  0
    0.6392   -4.5073   -7.9755 H   0  0  0  0  0  0  0  0  0  0  0  0
    4.2203   -4.1419   -9.0325 H   0  0  0  0  0  0  0  0  0  0  0  0
    2.7619   -5.1732   -9.1603 H   0  0  0  0  0  0  0  0  0  0  0  0
    3.0247   -3.8337  -11.2138 H   0  0  0  0  0  0  0  0  0  0  0  0
    1.5429   -3.2931  -10.3397 H   0  0  0  0  0  0  0  0  0  0  0  0
    3.0581   -2.3047  -10.2599 H   0  0  0  0  0  0  0  0  0  0  0  0
    4.3052   -2.3191   -7.3897 H   0  0  0  0  0  0  0  0  0  0  0  0
    3.4046   -1.3211   -5.3656 H   0  0  0  0  0  0  0  0  0  0  0  0
    3.3590   -2.3110   -0.3570 H   0  0  0  0  0  0  0  0  0  0  0  0
    5.4368   -1.4867    1.7726 H   0  0  0  0  0  0  0  0  0  0  0  0
    4.3986   -2.3857    3.7955 H   0  0  0  0  0  0  0  0  0  0  0  0
    0.8290   -1.6442    4.7844 H   0  0  0  0  0  0  0  0  0  0  0  0
    2.0927   -2.9073    4.8572 H   0  0  0  0  0  0  0  0  0  0  0  0
    1.7167   -1.1803    6.8925 H   0  0  0  0  0  0  0  0  0  0  0  0
    2.8014   -0.1104    5.9157 H   0  0  0  0  0  0  0  0  0  0  0  0
    3.3723   -1.7465    6.4552 H   0  0  0  0  0  0  0  0  0  0  0  0
    0.9063    0.0424    3.0925 H   0  0  0  0  0  0  0  0  0  0  0  0
    1.9257    0.9330    1.0644 H   0  0  0  0  0  0  0  0  0  0  0  0
    5.9595   -0.5999   -2.1865 H   0  0  0  0  0  0  0  0  0  0  0  0
    8.3365   -0.2602   -2.5293 H   0  0  0  0  0  0  0  0  0  0  0  0
   10.7091    1.0141    0.0307 H   0  0  0  0  0  0  0  0  0  0  0  0
   10.5571    0.3301   -1.6219 H   0  0  0  0  0  0  0  0  0  0  0  0
   11.2037    2.7507   -1.6663 H   0  0  0  0  0  0  0  0  0  0  0  0
    9.6778    3.1805   -0.8070 H   0  0  0  0  0  0  0  0  0  0  0  0
    9.6109    2.4751   -2.4694 H   0  0  0  0  0  0  0  0  0  0  0  0
    8.6731    1.5354    1.3684 H   0  0  0  0  0  0  0  0  0  0  0  0
    6.2805    1.1933    1.7451 H   0  0  0  0  0  0  0  0  0  0  0  0
   -5.2250   -5.8845    0.9399 H   0  0  0  0  0  0  0  0  0  0  0  0
   -1.9075   -3.0994    2.2104 H   0  0  0  0  0  0  0  0  0  0  0  0
   -0.6521   -4.3596    3.8608 H   0  0  0  0  0  0  0  0  0  0  0  0
   -0.0153   -6.4424    4.8487 H   0  0  0  0  0  0  0  0  0  0  0  0
   -0.6179   -7.9842    4.1496 H   0  0  0  0  0  0  0  0  0  0  0  0
    1.2335   -8.0144    2.4962 H   0  0  0  0  0  0  0  0  0  0  0  0
    1.8963   -7.8188    4.1640 H   0  0  0  0  0  0  0  0  0  0  0  0
    1.8120   -6.3894    3.0669 H   0  0  0  0  0  0  0  0  0  0  0  0
   -1.3452   -8.0014    1.6665 H   0  0  0  0  0  0  0  0  0  0  0  0
   -2.5628   -6.7361   -0.0437 H   0  0  0  0  0  0  0  0  0  0  0  0
   -5.1636   -3.3508    1.6232 H   0  0  0  0  0  0  0  0  0  0  0  0
   -5.9678   -1.1159    2.2608 H   0  0  0  0  0  0  0  0  0  0  0  0
   -5.4625    1.3154    2.4378 H   0  0  0  0  0  0  0  0  0  0  0  0
   -4.1444    2.0393    1.4604 H   0  0  0  0  0  0  0  0  0  0  0  0
   -5.5616    1.7627   -0.6229 H   0  0  0  0  0  0  0  0  0  0  0  0
   -6.8973    1.1000    0.4097 H   0  0  0  0  0  0  0  0  0  0  0  0
   -6.3466    2.8038    0.6247 H   0  0  0  0  0  0  0  0  0  0  0  0
   -2.8954    0.6775   -0.1734 H   0  0  0  0  0  0  0  0  0  0  0  0
   -2.1059   -1.5168   -0.8137 H   0  0  0  0  0  0  0  0  0  0  0  0
   -7.2837   -7.6774   -0.1972 H   0  0  0  0  0  0  0  0  0  0  0  0
   -1.5847  -13.2514    2.4245 H   0  0  0  0  0  0  0  0  0  0  0  0
   -0.8605  -13.8561    0.0148 H   0  0  0  0  0  0  0  0  0  0  0  0
  1  2  2  3
  2  3  1  0
  3  4  2  0
  3  5  1  0
  5  6  2  0
  6  7  1  0
  7  8  1  0
  7  9  2  0
  9 10  1  0
  9 11  1  0
 11 12  2  0
 12 13  1  0
 13 14  2  3
 14 15  1  0
 15 16  3  0
 14 17  1  0
 17 18  3  0
  1 19  1  0
 19 20  1  0
 20 21  1  0
 21 22  1  0
 22 23  2  0
 23 24  1  0
 24 25  1  0
 25 26  1  0
 24 27  1  0
 27 28  2  0
 28 29  1  0
 29 30  2  0
 30 31  1  0
 31 32  1  0
 30 33  1  0
 33 34  2  0
 24 35  1  0
 35 36  2  0
 36 37  1  0
 37 38  2  0
 38 39  1  0
 39 40  1  0
 38 41  1  0
 41 42  2  0
 23 43  1  0
 43 44  1  0
 44 45  1  0
 45 46  1  0
 46 47  2  0
 47 48  1  0
 48 49  1  0
 49 50  1  0
 50 51  2  0
 51 52  1  0
 52 53  2  0
 53 54  1  0
 54 55  1  0
 53 56  1  0
 56 57  2  0
 49 58  1  0
 58 59  2  0
 59 60  1  0
 60 61  2  0
 61 62  1  0
 62 63  1  0
 61 64  1  0
 64 65  2  0
 49 66  1  0
 66 67  2  0
 67 68  1  0
 68 69  1  0
 69 70  2  0
 70 71  1  0
 71 72  1  0
 72 73  2  0
 73 74  1  0
 74 75  2  0
 75 76  1  0
 76 77  1  0
 75 78  1  0
 78 79  2  0
 71 80  1  0
 80 81  2  0
 81 82  1  0
 82 83  2  0
 83 84  1  0
 84 85  1  0
 83 86  1  0
 86 87  2  0
 71 88  1  0
 88 89  1  0
 89 90  1  0
 67 91  1  0
 91 92  1  0
 92 93  1  0
 93 94  2  0
 94 95  1  0
 95 96  1  0
 94 97  1  0
 97 98  1  0
 98 99  1  0
 99100  2  0
100101  1  0
101102  1  0
102103  1  0
103104  2  0
104105  1  0
105106  2  0
106107  1  0
107108  1  0
106109  1  0
109110  2  0
102111  1  0
111112  2  0
112113  1  0
113114  2  0
114115  1  0
115116  1  0
114117  1  0
117118  2  0
 99119  1  0
119120  2  3
120121  1  0
121122  2  0
121123  1  0
123124  2  0
124125  1  0
125126  1  0
126127  1  0
127128  2  0
128129  1  0
129130  1  0
124131  1  0
131132  2  3
132133  1  0
133134  3  0
132135  1  0
135136  3  0
 13  2  1  0
 26 19  2  0
 34 27  1  0
 42 35  1  0
 89 43  2  0
 96 92  2  0
101 97  2  0
110103  1  0
118111  1  0
131120  1  0
 12  5  1  0
 25 21  2  0
 88 45  2  0
102 93  1  0
130123  1  0
 90 22  1  0
130126  2  0
 70 46  1  0
 79 72  1  0
 87 80  1  0
 68 48  2  0
 57 50  1  0
 65 58  1  0
 96 66  1  0
  1137  1  0
  6138  1  0
  8139  1  0
  8140  1  0
  8141  1  0
 11142  1  0
 26143  1  0
 28144  1  0
 29145  1  0
 31146  1  0
 31147  1  0
 32148  1  0
 32149  1  0
 32150  1  0
 33151  1  0
 34152  1  0
 36153  1  0
 37154  1  0
 39155  1  0
 39156  1  0
 40157  1  0
 40158  1  0
 40159  1  0
 41160  1  0
 42161  1  0
 47162  1  0
 51163  1  0
 52164  1  0
 54165  1  0
 54166  1  0
 55167  1  0
 55168  1  0
 55169  1  0
 56170  1  0
 57171  1  0
 59172  1  0
 60173  1  0
 62174  1  0
 62175  1  0
 63176  1  0
 63177  1  0
 63178  1  0
 64179  1  0
 65180  1  0
 69181  1  0
 73182  1  0
 74183  1  0
 76184  1  0
 76185  1  0
 77186  1  0
 77187  1  0
 77188  1  0
 78189  1  0
 79190  1  0
 81191  1  0
 82192  1  0
 84193  1  0
 84194  1  0
 85195  1  0
 85196  1  0
 85197  1  0
 86198  1  0
 87199  1  0
100200  1  0
104201  1  0
105202  1  0
107203  1  0
107204  1  0
108205  1  0
108206  1  0
108207  1  0
109208  1  0
110209  1  0
112210  1  0
113211  1  0
115212  1  0
115213  1  0
116214  1  0
116215  1  0
116216  1  0
117217  1  0
118218  1  0
119219  1  0
127220  1  0
128221  1  0
M  END

