
     RDKit          3D

119134  0  0  0  0  0  0  0  0999 V2000
    2.9828    6.9172   -5.9604 C   0  0  0  0  0  0  0  0  0  0  0  0
    3.4236    6.8122   -7.2296 C   0  0  0  0  0  0  0  0  0  0  0  0
    4.2017    7.9298   -7.8129 C   0  0  0  0  0  0  0  0  0  0  0  0
    4.5143    9.0031   -7.2391 O   0  0  0  0  0  0  0  0  0  0  0  0
    4.5402    7.6128   -9.1766 C   0  0  0  0  0  0  0  0  0  0  0  0
    5.2432    8.4352  -10.0772 C   0  0  0  0  0  0  0  0  0  0  0  0
    5.4305    7.9810  -11.3904 C   0  0  0  0  0  0  0  0  0  0  0  0
    6.1860    8.8261  -12.3694 C   0  0  0  0  0  0  0  0  0  0  0  0
    4.8610    6.7499  -11.7893 C   0  0  0  0  0  0  0  0  0  0  0  0
    4.9873    6.3209  -13.0707 F   0  0  0  0  0  0  0  0  0  0  0  0
    4.1634    5.9495  -10.8649 C   0  0  0  0  0  0  0  0  0  0  0  0
    4.0335    6.3852   -9.5293 C   0  0  0  0  0  0  0  0  0  0  0  0
    3.3389    5.7676   -8.3410 C   0  0  0  0  0  0  0  0  0  0  0  0
    2.8043    4.5082   -8.3170 C   0  0  0  0  0  0  0  0  0  0  0  0
    2.1153    3.8985   -7.2253 C   0  0  0  0  0  0  0  0  0  0  0  0
    1.5364    3.3210   -6.4111 N   0  0  0  0  0  0  0  0  0  0  0  0
    2.9196    3.5872   -9.4179 C   0  0  0  0  0  0  0  0  0  0  0  0
    3.0234    2.8363  -10.3019 N   0  0  0  0  0  0  0  0  0  0  0  0
    2.4000    5.8900   -5.1083 C   0  0  0  0  0  0  0  0  0  0  0  0
    0.7711    5.8174   -4.6321 S   0  0  0  0  0  0  0  0  0  0  0  0
    0.9717    4.5235   -3.5704 C   0  0  0  0  0  0  0  0  0  0  0  0
    0.0298    3.7403   -2.8717 C   0  0  0  0  0  0  0  0  0  0  0  0
   -1.6735    3.9435   -2.7066 S   0  0  0  0  0  0  0  0  0  0  0  0
   -1.7923    2.5699   -1.6990 C   0  0  0  0  0  0  0  0  0  0  0  0
   -2.7421    1.7738   -1.0749 C   0  0  0  0  0  0  0  0  0  0  0  0
   -4.1232    1.9120   -0.8597 C   0  0  0  0  0  0  0  0  0  0  0  0
   -4.7993    0.9015   -0.0857 C   0  0  0  0  0  0  0  0  0  0  0  0
   -6.0996    1.1078    0.1910 N   0  0  0  0  0  0  0  0  0  0  0  0
   -6.3102    2.5541   -0.5697 S   0  0  0  0  0  0  0  0  0  0  0  0
   -4.8576    2.9788   -1.2515 N   0  0  0  0  0  0  0  0  0  0  0  0
   -4.0629   -0.1872    0.4213 C   0  0  0  0  0  0  0  0  0  0  0  0
   -4.3529   -1.1467    1.3663 C   0  0  0  0  0  0  0  0  0  0  0  0
   -5.5984   -1.3766    2.5154 S   0  0  0  0  0  0  0  0  0  0  0  0
   -4.5930   -2.3804    3.4775 C   0  0  0  0  0  0  0  0  0  0  0  0
   -4.7667   -2.8129    4.8036 C   0  0  0  0  0  0  0  0  0  0  0  0
   -3.6748   -3.3007    5.5291 C   0  0  0  0  0  0  0  0  0  0  0  0
   -2.4668   -3.5774    4.8612 C   0  0  0  0  0  0  0  0  0  0  0  0
   -1.4104   -4.3010    5.2635 N   0  0  0  0  0  0  0  0  0  0  0  0
   -0.7802   -4.6477    4.1465 N   0  0  0  0  0  0  0  0  0  0  0  0
    0.5104   -5.3235    4.0978 C   0  0  0  0  0  0  0  0  0  0  0  0
    1.6328   -4.3965    4.5766 C   0  0  0  0  0  0  0  0  0  0  0  0
   -1.3630   -4.1412    3.0664 N   0  0  0  0  0  0  0  0  0  0  0  0
   -2.4228   -3.4514    3.5248 C   0  0  0  0  0  0  0  0  0  0  0  0
   -3.3203   -2.5698    2.8611 C   0  0  0  0  0  0  0  0  0  0  0  0
   -3.1817   -1.7537    1.7237 C   0  0  0  0  0  0  0  0  0  0  0  0
   -2.0940   -1.1261    1.1362 N   0  0  0  0  0  0  0  0  0  0  0  0
   -2.6945   -0.2648    0.2396 C   0  0  0  0  0  0  0  0  0  0  0  0
   -2.0238    0.6782   -0.5788 C   0  0  0  0  0  0  0  0  0  0  0  0
   -0.7194    0.7374   -0.9715 N   0  0  0  0  0  0  0  0  0  0  0  0
   -0.5899    1.9564   -1.5444 C   0  0  0  0  0  0  0  0  0  0  0  0
    0.4788    2.6152   -2.1430 C   0  0  0  0  0  0  0  0  0  0  0  0
    1.8626    2.3594   -2.0656 C   0  0  0  0  0  0  0  0  0  0  0  0
    2.7535    3.1594   -2.6983 C   0  0  0  0  0  0  0  0  0  0  0  0
    2.3459    4.2221   -3.5086 C   0  0  0  0  0  0  0  0  0  0  0  0
    3.1602    5.0087   -4.3422 C   0  0  0  0  0  0  0  0  0  0  0  0
    3.9948    2.7615   -2.3568 N   0  0  0  0  0  0  0  0  0  0  0  0
    3.8234    1.7356   -1.5365 N   0  0  0  0  0  0  0  0  0  0  0  0
    4.9143    1.0364   -0.8627 C   0  0  0  0  0  0  0  0  0  0  0  0
    5.0981    1.5887    0.5510 C   0  0  0  0  0  0  0  0  0  0  0  0
    2.5436    1.4688   -1.3211 N   0  0  0  0  0  0  0  0  0  0  0  0
    0.1150   -0.4469   -1.2786 C   0  0  0  0  0  0  0  0  0  0  0  0
    0.4244   -0.6285   -2.7732 C   0  0  0  0  0  0  0  0  0  0  0  0
   -0.7369   -0.8359    1.6770 C   0  0  0  0  0  0  0  0  0  0  0  0
   -0.5034   -1.1443    3.1598 C   0  0  0  0  0  0  0  0  0  0  0  0
   -4.0292   -3.9758    6.6919 C   0  0  0  0  0  0  0  0  0  0  0  0
   -5.4062   -4.0918    6.8811 C   0  0  0  0  0  0  0  0  0  0  0  0
   -6.1743   -3.3433    5.5658 S   0  0  0  0  0  0  0  0  0  0  0  0
   -5.9249   -5.2616    7.5993 C   0  0  0  0  0  0  0  0  0  0  0  0
   -5.4586   -5.6588    8.7973 C   0  0  0  0  0  0  0  0  0  0  0  0
   -4.5350   -4.8274    9.5911 C   0  0  0  0  0  0  0  0  0  0  0  0
   -4.5395   -3.5614    9.6523 O   0  0  0  0  0  0  0  0  0  0  0  0
   -3.4642   -5.6614   10.0970 C   0  0  0  0  0  0  0  0  0  0  0  0
   -2.1784   -5.2230   10.4249 C   0  0  0  0  0  0  0  0  0  0  0  0
   -1.1654   -6.1841   10.6368 C   0  0  0  0  0  0  0  0  0  0  0  0
    0.2559   -5.7547   10.8317 C   0  0  0  0  0  0  0  0  0  0  0  0
   -1.4877   -7.5643   10.5063 C   0  0  0  0  0  0  0  0  0  0  0  0
   -0.5274   -8.5090   10.6793 F   0  0  0  0  0  0  0  0  0  0  0  0
   -2.7700   -7.9649   10.0865 C   0  0  0  0  0  0  0  0  0  0  0  0
   -3.7591   -6.9887    9.8480 C   0  0  0  0  0  0  0  0  0  0  0  0
   -5.0560   -7.0793    9.1313 C   0  0  0  0  0  0  0  0  0  0  0  0
   -5.7707   -8.2183    8.8946 C   0  0  0  0  0  0  0  0  0  0  0  0
   -7.0506   -8.1844    8.2406 C   0  0  0  0  0  0  0  0  0  0  0  0
   -8.0746   -8.1152    7.7118 N   0  0  0  0  0  0  0  0  0  0  0  0
   -5.3867   -9.5118    9.3794 C   0  0  0  0  0  0  0  0  0  0  0  0
   -5.0600  -10.5475    9.7837 N   0  0  0  0  0  0  0  0  0  0  0  0
    3.2298    7.8290   -5.4026 H   0  0  0  0  0  0  0  0  0  0  0  0
    5.6292    9.3972   -9.7400 H   0  0  0  0  0  0  0  0  0  0  0  0
    5.4710    9.3239  -13.0481 H   0  0  0  0  0  0  0  0  0  0  0  0
    6.8695    8.1947  -12.9733 H   0  0  0  0  0  0  0  0  0  0  0  0
    6.7888    9.6043  -11.8440 H   0  0  0  0  0  0  0  0  0  0  0  0
    3.7339    5.0417  -11.2461 H   0  0  0  0  0  0  0  0  0  0  0  0
    0.4629   -6.2202    4.7460 H   0  0  0  0  0  0  0  0  0  0  0  0
    0.7186   -5.6414    3.0605 H   0  0  0  0  0  0  0  0  0  0  0  0
    2.5607   -5.0084    4.6716 H   0  0  0  0  0  0  0  0  0  0  0  0
    1.3876   -3.9643    5.5690 H   0  0  0  0  0  0  0  0  0  0  0  0
    1.8298   -3.5906    3.8323 H   0  0  0  0  0  0  0  0  0  0  0  0
    4.2443    4.9203   -4.3923 H   0  0  0  0  0  0  0  0  0  0  0  0
    5.8473    1.1746   -1.4336 H   0  0  0  0  0  0  0  0  0  0  0  0
    4.6646   -0.0369   -0.8122 H   0  0  0  0  0  0  0  0  0  0  0  0
    4.1569    1.4966    1.1310 H   0  0  0  0  0  0  0  0  0  0  0  0
    5.3990    2.6565    0.5141 H   0  0  0  0  0  0  0  0  0  0  0  0
    5.8847    1.0007    1.0755 H   0  0  0  0  0  0  0  0  0  0  0  0
   -0.4373   -1.3706   -0.9809 H   0  0  0  0  0  0  0  0  0  0  0  0
    1.0655   -0.4119   -0.6841 H   0  0  0  0  0  0  0  0  0  0  0  0
    1.5283   -0.6394   -2.9295 H   0  0  0  0  0  0  0  0  0  0  0  0
   -0.0295    0.1721   -3.4089 H   0  0  0  0  0  0  0  0  0  0  0  0
    0.0041   -1.6045   -3.1513 H   0  0  0  0  0  0  0  0  0  0  0  0
    0.0530   -1.3808    1.0882 H   0  0  0  0  0  0  0  0  0  0  0  0
   -0.6081    0.2681    1.7023 H   0  0  0  0  0  0  0  0  0  0  0  0
   -1.4038   -1.0165    3.7894 H   0  0  0  0  0  0  0  0  0  0  0  0
    0.2670   -0.4621    3.5651 H   0  0  0  0  0  0  0  0  0  0  0  0
   -0.0220   -2.1508    3.2396 H   0  0  0  0  0  0  0  0  0  0  0  0
   -3.2770   -4.5784    7.2260 H   0  0  0  0  0  0  0  0  0  0  0  0
   -6.4176   -5.9646    6.9597 H   0  0  0  0  0  0  0  0  0  0  0  0
   -1.9321   -4.1453   10.4151 H   0  0  0  0  0  0  0  0  0  0  0  0
    0.3225   -4.7086   11.2176 H   0  0  0  0  0  0  0  0  0  0  0  0
    0.7809   -6.4346   11.5379 H   0  0  0  0  0  0  0  0  0  0  0  0
    0.7859   -5.8069    9.8512 H   0  0  0  0  0  0  0  0  0  0  0  0
   -2.9120   -9.0126    9.8750 H   0  0  0  0  0  0  0  0  0  0  0  0
  1  2  2  3
  2  3  1  0
  3  4  2  0
  3  5  1  0
  5  6  2  0
  6  7  1  0
  7  8  1  0
  7  9  2  0
  9 10  1  0
  9 11  1  0
 11 12  2  0
 12 13  1  0
 13 14  2  3
 14 15  1  0
 15 16  3  0
 14 17  1  0
 17 18  3  0
  1 19  1  0
 19 20  1  0
 20 21  1  0
 21 22  1  0
 22 23  1  0
 23 24  1  0
 24 25  1  0
 25 26  1  0
 26 27  1  0
 27 28  2  0
 28 29  1  0
 29 30  1  0
 27 31  1  0
 31 32  1  0
 32 33  1  0
 33 34  1  0
 34 35  1  0
 35 36  2  0
 36 37  1  0
 37 38  2  0
 38 39  1  0
 39 40  1  0
 40 41  1  0
 39 42  1  0
 42 43  2  0
 43 44  1  0
 44 45  1  0
 45 46  1  0
 46 47  1  0
 47 48  1  0
 48 49  1  0
 49 50  1  0
 50 51  1  0
 51 52  1  0
 52 53  1  0
 53 54  1  0
 54 55  1  0
 53 56  2  0
 56 57  1  0
 57 58  1  0
 58 59  1  0
 57 60  1  0
 49 61  1  0
 61 62  1  0
 46 63  1  0
 63 64  1  0
 36 65  1  0
 65 66  2  0
 66 67  1  0
 66 68  1  0
 68 69  2  3
 69 70  1  0
 70 71  2  0
 70 72  1  0
 72 73  2  0
 73 74  1  0
 74 75  1  0
 74 76  2  0
 76 77  1  0
 76 78  1  0
 78 79  2  0
 79 80  1  0
 80 81  2  3
 81 82  1  0
 82 83  3  0
 81 84  1  0
 84 85  3  0
 13  2  1  0
 55 19  2  0
 80 69  1  0
 12  5  1  0
 54 21  2  0
 79 72  1  0
 51 22  2  0
 60 52  2  0
 50 24  2  0
 48 25  2  0
 30 26  2  0
 47 31  2  0
 45 32  2  0
 44 34  2  0
 67 35  1  0
 43 37  1  0
  1 86  1  0
  6 87  1  0
  8 88  1  0
  8 89  1  0
  8 90  1  0
 11 91  1  0
 40 92  1  0
 40 93  1  0
 41 94  1  0
 41 95  1  0
 41 96  1  0
 55 97  1  0
 58 98  1  0
 58 99  1  0
 59100  1  0
 59101  1  0
 59102  1  0
 61103  1  0
 61104  1  0
 62105  1  0
 62106  1  0
 62107  1  0
 63108  1  0
 63109  1  0
 64110  1  0
 64111  1  0
 64112  1  0
 65113  1  0
 68114  1  0
 73115  1  0
 75116  1  0
 75117  1  0
 75118  1  0
 78119  1  0
M  END

