
     RDKit          3D

114127  0  0  0  0  0  0  0  0999 V2000
   -4.0277    2.7747   -5.4876 C   0  0  0  0  0  0  0  0  0  0  0  0
   -4.3400    3.7164   -6.3933 C   0  0  0  0  0  0  0  0  0  0  0  0
   -3.4938    4.8786   -6.7583 C   0  0  0  0  0  0  0  0  0  0  0  0
   -2.4201    5.2332   -6.2098 O   0  0  0  0  0  0  0  0  0  0  0  0
   -4.0580    5.4663   -7.9531 C   0  0  0  0  0  0  0  0  0  0  0  0
   -3.7018    6.5211   -8.7908 C   0  0  0  0  0  0  0  0  0  0  0  0
   -4.6020    6.6372   -9.8548 C   0  0  0  0  0  0  0  0  0  0  0  0
   -5.7958    5.4312   -9.7275 S   0  0  0  0  0  0  0  0  0  0  0  0
   -5.1589    4.7760   -8.3189 C   0  0  0  0  0  0  0  0  0  0  0  0
   -5.4616    3.6749   -7.3901 C   0  0  0  0  0  0  0  0  0  0  0  0
   -6.5914    2.9339   -7.3834 C   0  0  0  0  0  0  0  0  0  0  0  0
   -6.9221    2.0395   -6.3069 C   0  0  0  0  0  0  0  0  0  0  0  0
   -7.1916    1.3206   -5.4386 N   0  0  0  0  0  0  0  0  0  0  0  0
   -7.5828    3.0773   -8.4212 C   0  0  0  0  0  0  0  0  0  0  0  0
   -8.3796    3.1952   -9.2560 N   0  0  0  0  0  0  0  0  0  0  0  0
   -2.9438    2.9212   -4.5071 C   0  0  0  0  0  0  0  0  0  0  0  0
   -2.8567    3.9051   -3.5044 C   0  0  0  0  0  0  0  0  0  0  0  0
   -3.8821    4.9329   -3.2350 C   0  0  0  0  0  0  0  0  0  0  0  0
   -3.5603    6.2783   -3.4758 C   0  0  0  0  0  0  0  0  0  0  0  0
   -4.4981    7.2855   -3.2475 C   0  0  0  0  0  0  0  0  0  0  0  0
   -5.7650    6.9611   -2.7628 C   0  0  0  0  0  0  0  0  0  0  0  0
   -6.0926    5.6312   -2.4908 C   0  0  0  0  0  0  0  0  0  0  0  0
   -5.1649    4.5999   -2.7249 C   0  0  0  0  0  0  0  0  0  0  0  0
   -5.5344    3.1891   -2.3166 C   0  0  0  0  0  0  0  0  0  0  0  0
   -5.0727    2.8871   -0.8954 C   0  0  0  0  0  0  0  0  0  0  0  0
   -1.7453    3.6883   -2.6886 C   0  0  0  0  0  0  0  0  0  0  0  0
   -1.1882    4.4320   -1.2594 S   0  0  0  0  0  0  0  0  0  0  0  0
    0.0366    3.2600   -1.1038 C   0  0  0  0  0  0  0  0  0  0  0  0
    0.8428    2.7921   -0.1075 C   0  0  0  0  0  0  0  0  0  0  0  0
    0.9959    3.2539    1.2052 C   0  0  0  0  0  0  0  0  0  0  0  0
    1.6771    2.4304    2.1439 C   0  0  0  0  0  0  0  0  0  0  0  0
    1.7675    2.8868    3.4189 N   0  0  0  0  0  0  0  0  0  0  0  0
    0.9588    4.3254    3.2530 S   0  0  0  0  0  0  0  0  0  0  0  0
    0.4903    4.4264    1.6664 N   0  0  0  0  0  0  0  0  0  0  0  0
    2.1848    1.2040    1.7130 C   0  0  0  0  0  0  0  0  0  0  0  0
    2.8338    0.2222    2.3984 C   0  0  0  0  0  0  0  0  0  0  0  0
    3.2922   -0.1665    3.9886 S   0  0  0  0  0  0  0  0  0  0  0  0
    3.8604   -1.6932    3.4688 C   0  0  0  0  0  0  0  0  0  0  0  0
    4.3504   -2.8172    4.1373 C   0  0  0  0  0  0  0  0  0  0  0  0
    4.6815   -2.8384    5.5770 C   0  0  0  0  0  0  0  0  0  0  0  0
    3.6904   -2.8008    6.5955 C   0  0  0  0  0  0  0  0  0  0  0  0
    2.2064   -2.7825    6.2870 C   0  0  0  0  0  0  0  0  0  0  0  0
    1.5009   -1.5800    6.9177 C   0  0  0  0  0  0  0  0  0  0  0  0
    4.0996   -2.8515    7.9440 C   0  0  0  0  0  0  0  0  0  0  0  0
    5.4537   -2.8978    8.2787 C   0  0  0  0  0  0  0  0  0  0  0  0
    6.4217   -2.9153    7.2764 C   0  0  0  0  0  0  0  0  0  0  0  0
    6.0393   -2.8850    5.9340 C   0  0  0  0  0  0  0  0  0  0  0  0
    4.5330   -3.8989    3.2486 C   0  0  0  0  0  0  0  0  0  0  0  0
    4.1328   -3.4071    1.6596 S   0  0  0  0  0  0  0  0  0  0  0  0
    3.7057   -1.8526    2.1154 C   0  0  0  0  0  0  0  0  0  0  0  0
    3.1229   -0.7501    1.5115 C   0  0  0  0  0  0  0  0  0  0  0  0
    2.7406   -0.4568    0.2464 N   0  0  0  0  0  0  0  0  0  0  0  0
    2.0753    0.7448    0.3828 C   0  0  0  0  0  0  0  0  0  0  0  0
    1.3152    1.5330   -0.5425 C   0  0  0  0  0  0  0  0  0  0  0  0
    0.7331    1.2094   -1.7519 N   0  0  0  0  0  0  0  0  0  0  0  0
   -0.0101    2.3057   -2.0609 C   0  0  0  0  0  0  0  0  0  0  0  0
   -1.0280    2.5520   -2.9799 C   0  0  0  0  0  0  0  0  0  0  0  0
   -1.7194    1.7614   -4.2894 S   0  0  0  0  0  0  0  0  0  0  0  0
    0.5520   -0.1001   -2.3840 C   0  0  0  0  0  0  0  0  0  0  0  0
   -0.2366   -1.0493   -1.4893 C   0  0  0  0  0  0  0  0  0  0  0  0
    3.3451   -1.0947   -0.9327 C   0  0  0  0  0  0  0  0  0  0  0  0
    4.0673   -0.0802   -1.8230 C   0  0  0  0  0  0  0  0  0  0  0  0
    5.0876   -5.2193    3.6161 C   0  0  0  0  0  0  0  0  0  0  0  0
    4.8356   -6.3796    2.9794 C   0  0  0  0  0  0  0  0  0  0  0  0
    5.7612   -7.5113    3.0165 C   0  0  0  0  0  0  0  0  0  0  0  0
    6.7055   -7.6749    3.8352 O   0  0  0  0  0  0  0  0  0  0  0  0
    5.4642   -8.3678    1.8856 C   0  0  0  0  0  0  0  0  0  0  0  0
    6.1660   -9.4893    1.4452 C   0  0  0  0  0  0  0  0  0  0  0  0
    5.7387  -10.1263    0.2675 C   0  0  0  0  0  0  0  0  0  0  0  0
    6.6113  -11.5500   -0.2891 Cl  0  0  0  0  0  0  0  0  0  0  0  0
    4.6386   -9.6145   -0.4579 C   0  0  0  0  0  0  0  0  0  0  0  0
    4.1049  -10.3758   -1.9482 Cl  0  0  0  0  0  0  0  0  0  0  0  0
    3.9636   -8.4722    0.0012 C   0  0  0  0  0  0  0  0  0  0  0  0
    4.3724   -7.8702    1.1994 C   0  0  0  0  0  0  0  0  0  0  0  0
    3.8265   -6.6941    1.9251 C   0  0  0  0  0  0  0  0  0  0  0  0
    2.5248   -6.3182    1.9376 C   0  0  0  0  0  0  0  0  0  0  0  0
    1.9672   -5.5635    3.0303 C   0  0  0  0  0  0  0  0  0  0  0  0
    1.5034   -4.9717    3.9089 N   0  0  0  0  0  0  0  0  0  0  0  0
    1.5727   -6.7950    0.9707 C   0  0  0  0  0  0  0  0  0  0  0  0
    0.7943   -7.1682    0.2005 N   0  0  0  0  0  0  0  0  0  0  0  0
   -4.5421    1.8269   -5.4889 H   0  0  0  0  0  0  0  0  0  0  0  0
   -2.8383    7.1559   -8.6447 H   0  0  0  0  0  0  0  0  0  0  0  0
   -4.5446    7.3746  -10.6436 H   0  0  0  0  0  0  0  0  0  0  0  0
   -2.5795    6.5499   -3.8413 H   0  0  0  0  0  0  0  0  0  0  0  0
   -4.2471    8.3184   -3.4524 H   0  0  0  0  0  0  0  0  0  0  0  0
   -6.4922    7.7430   -2.5813 H   0  0  0  0  0  0  0  0  0  0  0  0
   -7.0719    5.4037   -2.0858 H   0  0  0  0  0  0  0  0  0  0  0  0
   -6.6359    3.0499   -2.3743 H   0  0  0  0  0  0  0  0  0  0  0  0
   -5.0972    2.4412   -3.0048 H   0  0  0  0  0  0  0  0  0  0  0  0
   -3.9875    3.0843   -0.7838 H   0  0  0  0  0  0  0  0  0  0  0  0
   -5.6339    3.5114   -0.1711 H   0  0  0  0  0  0  0  0  0  0  0  0
   -5.2639    1.8193   -0.6669 H   0  0  0  0  0  0  0  0  0  0  0  0
    1.7448   -3.7169    6.6696 H   0  0  0  0  0  0  0  0  0  0  0  0
    2.0109   -2.7506    5.1979 H   0  0  0  0  0  0  0  0  0  0  0  0
    2.0573   -0.6421    6.7045 H   0  0  0  0  0  0  0  0  0  0  0  0
    1.4083   -1.7104    8.0170 H   0  0  0  0  0  0  0  0  0  0  0  0
    0.4761   -1.4830    6.4975 H   0  0  0  0  0  0  0  0  0  0  0  0
    3.3675   -2.8532    8.7415 H   0  0  0  0  0  0  0  0  0  0  0  0
    5.7531   -2.9192    9.3197 H   0  0  0  0  0  0  0  0  0  0  0  0
    7.4718   -2.9505    7.5441 H   0  0  0  0  0  0  0  0  0  0  0  0
    6.8095   -2.8997    5.1707 H   0  0  0  0  0  0  0  0  0  0  0  0
    1.5074   -0.5102   -2.7199 H   0  0  0  0  0  0  0  0  0  0  0  0
   -0.0036   -0.0032   -3.3324 H   0  0  0  0  0  0  0  0  0  0  0  0
    0.3014   -1.2507   -0.5411 H   0  0  0  0  0  0  0  0  0  0  0  0
   -0.3943   -2.0141   -2.0152 H   0  0  0  0  0  0  0  0  0  0  0  0
   -1.2266   -0.6027   -1.2505 H   0  0  0  0  0  0  0  0  0  0  0  0
    4.1273   -1.8083   -0.6101 H   0  0  0  0  0  0  0  0  0  0  0  0
    2.6139   -1.7262   -1.4594 H   0  0  0  0  0  0  0  0  0  0  0  0
    4.8675    0.4266   -1.2484 H   0  0  0  0  0  0  0  0  0  0  0  0
    3.3800    0.6926   -2.2102 H   0  0  0  0  0  0  0  0  0  0  0  0
    4.5278   -0.6057   -2.6853 H   0  0  0  0  0  0  0  0  0  0  0  0
    5.8476   -5.2207    4.3843 H   0  0  0  0  0  0  0  0  0  0  0  0
    7.0224   -9.8627    2.0007 H   0  0  0  0  0  0  0  0  0  0  0  0
    3.1619   -8.0663   -0.5855 H   0  0  0  0  0  0  0  0  0  0  0  0
  1  2  2  3
  2  3  1  0
  3  4  2  0
  3  5  1  0
  5  6  1  0
  6  7  2  0
  7  8  1  0
  8  9  1  0
  9 10  1  0
 10 11  2  3
 11 12  1  0
 12 13  3  0
 11 14  1  0
 14 15  3  0
  1 16  1  0
 16 17  2  0
 17 18  1  0
 18 19  2  0
 19 20  1  0
 20 21  2  0
 21 22  1  0
 22 23  2  0
 23 24  1  0
 24 25  1  0
 17 26  1  0
 26 27  1  0
 27 28  1  0
 28 29  1  0
 29 30  1  0
 30 31  1  0
 31 32  2  0
 32 33  1  0
 33 34  1  0
 31 35  1  0
 35 36  1  0
 36 37  1  0
 37 38  1  0
 38 39  1  0
 39 40  1  0
 40 41  2  0
 41 42  1  0
 42 43  1  0
 41 44  1  0
 44 45  2  0
 45 46  1  0
 46 47  2  0
 39 48  2  0
 48 49  1  0
 49 50  1  0
 50 51  1  0
 51 52  1  0
 52 53  1  0
 53 54  1  0
 54 55  1  0
 55 56  1  0
 56 57  1  0
 57 58  1  0
 55 59  1  0
 59 60  1  0
 52 61  1  0
 61 62  1  0
 48 63  1  0
 63 64  2  3
 64 65  1  0
 65 66  2  0
 65 67  1  0
 67 68  2  0
 68 69  1  0
 69 70  1  0
 69 71  2  0
 71 72  1  0
 71 73  1  0
 73 74  2  0
 74 75  1  0
 75 76  2  3
 76 77  1  0
 77 78  3  0
 76 79  1  0
 79 80  3  0
 10  2  1  0
 58 16  1  0
 75 64  1  0
  9  5  2  0
 23 18  1  0
 57 26  2  0
 74 67  1  0
 56 28  2  0
 54 29  2  0
 34 30  2  0
 53 35  2  0
 51 36  2  0
 50 38  2  0
 47 40  1  0
  1 81  1  0
  6 82  1  0
  7 83  1  0
 19 84  1  0
 20 85  1  0
 21 86  1  0
 22 87  1  0
 24 88  1  0
 24 89  1  0
 25 90  1  0
 25 91  1  0
 25 92  1  0
 42 93  1  0
 42 94  1  0
 43 95  1  0
 43 96  1  0
 43 97  1  0
 44 98  1  0
 45 99  1  0
 46100  1  0
 47101  1  0
 59102  1  0
 59103  1  0
 60104  1  0
 60105  1  0
 60106  1  0
 61107  1  0
 61108  1  0
 62109  1  0
 62110  1  0
 62111  1  0
 63112  1  0
 68113  1  0
 73114  1  0
M  END

