
     RDKit          3D

114127  0  0  0  0  0  0  0  0999 V2000
   -5.6868   -1.1432    5.7815 C   0  0  0  0  0  0  0  0  0  0  0  0
   -6.4665   -0.0486    5.7487 C   0  0  0  0  0  0  0  0  0  0  0  0
   -7.9350   -0.1424    5.8608 C   0  0  0  0  0  0  0  0  0  0  0  0
   -8.5921   -1.1114    6.3340 O   0  0  0  0  0  0  0  0  0  0  0  0
   -8.4891    1.0253    5.2169 C   0  0  0  0  0  0  0  0  0  0  0  0
   -9.7716    1.4232    4.8310 C   0  0  0  0  0  0  0  0  0  0  0  0
   -9.7266    2.6174    4.1091 C   0  0  0  0  0  0  0  0  0  0  0  0
   -8.1064    3.1405    3.9554 S   0  0  0  0  0  0  0  0  0  0  0  0
   -7.4837    1.8410    4.8194 C   0  0  0  0  0  0  0  0  0  0  0  0
   -6.1690    1.3106    5.1988 C   0  0  0  0  0  0  0  0  0  0  0  0
   -5.0589    2.0517    5.3913 C   0  0  0  0  0  0  0  0  0  0  0  0
   -3.9564    1.5602    6.1805 C   0  0  0  0  0  0  0  0  0  0  0  0
   -3.0745    1.1570    6.8092 N   0  0  0  0  0  0  0  0  0  0  0  0
   -4.9655    3.3993    4.8921 C   0  0  0  0  0  0  0  0  0  0  0  0
   -4.8903    4.4831    4.4835 N   0  0  0  0  0  0  0  0  0  0  0  0
   -4.4648   -1.3569    4.9651 C   0  0  0  0  0  0  0  0  0  0  0  0
   -3.6820   -2.5315    4.9898 C   0  0  0  0  0  0  0  0  0  0  0  0
   -3.8101   -3.6100    5.9873 C   0  0  0  0  0  0  0  0  0  0  0  0
   -2.9065   -3.6302    7.0608 C   0  0  0  0  0  0  0  0  0  0  0  0
   -3.0070   -4.6077    8.0520 C   0  0  0  0  0  0  0  0  0  0  0  0
   -4.0155   -5.5655    7.9873 C   0  0  0  0  0  0  0  0  0  0  0  0
   -4.9171   -5.5663    6.9212 C   0  0  0  0  0  0  0  0  0  0  0  0
   -4.8316   -4.5880    5.9141 C   0  0  0  0  0  0  0  0  0  0  0  0
   -5.7949   -4.6598    4.7491 C   0  0  0  0  0  0  0  0  0  0  0  0
   -5.2823   -5.6182    3.6804 C   0  0  0  0  0  0  0  0  0  0  0  0
   -2.7368   -2.5430    3.9621 C   0  0  0  0  0  0  0  0  0  0  0  0
   -1.5683   -3.6727    3.4429 S   0  0  0  0  0  0  0  0  0  0  0  0
   -1.1430   -2.6649    2.1404 C   0  0  0  0  0  0  0  0  0  0  0  0
   -0.1235   -2.5403    1.2454 C   0  0  0  0  0  0  0  0  0  0  0  0
    0.9937   -3.3468    1.0105 C   0  0  0  0  0  0  0  0  0  0  0  0
    1.9977   -2.8774    0.1154 C   0  0  0  0  0  0  0  0  0  0  0  0
    3.0621   -3.6876   -0.0990 N   0  0  0  0  0  0  0  0  0  0  0  0
    2.6480   -4.9548    0.8879 S   0  0  0  0  0  0  0  0  0  0  0  0
    1.1974   -4.5586    1.5822 N   0  0  0  0  0  0  0  0  0  0  0  0
    1.8238   -1.6274   -0.4949 C   0  0  0  0  0  0  0  0  0  0  0  0
    2.5223   -1.0112   -1.4898 C   0  0  0  0  0  0  0  0  0  0  0  0
    3.8293   -1.3429   -2.5261 S   0  0  0  0  0  0  0  0  0  0  0  0
    3.4783    0.0543   -3.4438 C   0  0  0  0  0  0  0  0  0  0  0  0
    4.0694    0.6479   -4.5598 C   0  0  0  0  0  0  0  0  0  0  0  0
    5.1960    0.0774   -5.3306 C   0  0  0  0  0  0  0  0  0  0  0  0
    6.4749   -0.1712   -4.7624 C   0  0  0  0  0  0  0  0  0  0  0  0
    6.8361    0.2149   -3.3473 C   0  0  0  0  0  0  0  0  0  0  0  0
    7.9489    1.2554   -3.3113 C   0  0  0  0  0  0  0  0  0  0  0  0
    7.4619   -0.7905   -5.5570 C   0  0  0  0  0  0  0  0  0  0  0  0
    7.2156   -1.1051   -6.8946 C   0  0  0  0  0  0  0  0  0  0  0  0
    5.9743   -0.8202   -7.4596 C   0  0  0  0  0  0  0  0  0  0  0  0
    4.9690   -0.2437   -6.6831 C   0  0  0  0  0  0  0  0  0  0  0  0
    3.3636    1.8035   -4.9366 C   0  0  0  0  0  0  0  0  0  0  0  0
    2.0351    2.0603   -3.9023 S   0  0  0  0  0  0  0  0  0  0  0  0
    2.3630    0.6996   -2.9729 C   0  0  0  0  0  0  0  0  0  0  0  0
    1.8163    0.0816   -1.8577 C   0  0  0  0  0  0  0  0  0  0  0  0
    0.6465    0.2130   -1.1811 N   0  0  0  0  0  0  0  0  0  0  0  0
    0.6906   -0.8230   -0.2729 C   0  0  0  0  0  0  0  0  0  0  0  0
   -0.2759   -1.2644    0.6757 C   0  0  0  0  0  0  0  0  0  0  0  0
   -1.3097   -0.5786    1.2712 N   0  0  0  0  0  0  0  0  0  0  0  0
   -1.8409   -1.5033    2.1138 C   0  0  0  0  0  0  0  0  0  0  0  0
   -2.7516   -1.4374    3.1561 C   0  0  0  0  0  0  0  0  0  0  0  0
   -3.9644   -0.4019    3.6406 S   0  0  0  0  0  0  0  0  0  0  0  0
   -1.3504    0.8655    1.5363 C   0  0  0  0  0  0  0  0  0  0  0  0
   -2.6288    1.5167    1.0085 C   0  0  0  0  0  0  0  0  0  0  0  0
   -0.5345    0.8947   -1.7278 C   0  0  0  0  0  0  0  0  0  0  0  0
   -1.5639   -0.1066   -2.2448 C   0  0  0  0  0  0  0  0  0  0  0  0
    3.7301    2.6869   -6.0515 C   0  0  0  0  0  0  0  0  0  0  0  0
    4.7317    3.5814   -5.9506 C   0  0  0  0  0  0  0  0  0  0  0  0
    5.4508    3.9023   -4.7011 C   0  0  0  0  0  0  0  0  0  0  0  0
    5.1330    3.5581   -3.5327 O   0  0  0  0  0  0  0  0  0  0  0  0
    6.5822    4.7267   -5.0474 C   0  0  0  0  0  0  0  0  0  0  0  0
    6.5953    4.9614   -6.4015 C   0  0  0  0  0  0  0  0  0  0  0  0
    7.6588    5.7537   -6.8333 C   0  0  0  0  0  0  0  0  0  0  0  0
    8.5539    6.1416   -5.4491 S   0  0  0  0  0  0  0  0  0  0  0  0
    7.6074    5.3112   -4.3239 C   0  0  0  0  0  0  0  0  0  0  0  0
    7.8199    5.2614   -2.8486 C   0  0  0  0  0  0  0  0  0  0  0  0
    5.4303    4.3194   -7.0603 C   0  0  0  0  0  0  0  0  0  0  0  0
    5.0848    4.4313   -8.3684 C   0  0  0  0  0  0  0  0  0  0  0  0
    3.8646    3.8941   -8.9113 C   0  0  0  0  0  0  0  0  0  0  0  0
    2.8860    3.4724   -9.3644 N   0  0  0  0  0  0  0  0  0  0  0  0
    5.8960    5.1610   -9.3075 C   0  0  0  0  0  0  0  0  0  0  0  0
    6.5331    5.7452  -10.0770 N   0  0  0  0  0  0  0  0  0  0  0  0
   -6.0920   -2.0293    6.2584 H   0  0  0  0  0  0  0  0  0  0  0  0
  -10.6764    0.8557    5.0239 H   0  0  0  0  0  0  0  0  0  0  0  0
  -10.5926    3.1202    3.6885 H   0  0  0  0  0  0  0  0  0  0  0  0
   -2.1289   -2.8762    7.1320 H   0  0  0  0  0  0  0  0  0  0  0  0
   -2.3130   -4.6066    8.8830 H   0  0  0  0  0  0  0  0  0  0  0  0
   -4.0935   -6.3152    8.7612 H   0  0  0  0  0  0  0  0  0  0  0  0
   -5.6897   -6.3234    6.8833 H   0  0  0  0  0  0  0  0  0  0  0  0
   -6.7918   -5.0041    5.1009 H   0  0  0  0  0  0  0  0  0  0  0  0
   -5.9536   -3.6615    4.2889 H   0  0  0  0  0  0  0  0  0  0  0  0
   -4.2771   -5.3048    3.3253 H   0  0  0  0  0  0  0  0  0  0  0  0
   -5.9823   -5.6167    2.8170 H   0  0  0  0  0  0  0  0  0  0  0  0
   -5.2157   -6.6525    4.0825 H   0  0  0  0  0  0  0  0  0  0  0  0
    7.1618   -0.6959   -2.7977 H   0  0  0  0  0  0  0  0  0  0  0  0
    5.9761    0.6402   -2.7933 H   0  0  0  0  0  0  0  0  0  0  0  0
    7.6459    2.1531   -3.8910 H   0  0  0  0  0  0  0  0  0  0  0  0
    8.1447    1.5541   -2.2616 H   0  0  0  0  0  0  0  0  0  0  0  0
    8.8859    0.8400   -3.7410 H   0  0  0  0  0  0  0  0  0  0  0  0
    8.4342   -1.0227   -5.1400 H   0  0  0  0  0  0  0  0  0  0  0  0
    7.9936   -1.5605   -7.4943 H   0  0  0  0  0  0  0  0  0  0  0  0
    5.7857   -1.0614   -8.4987 H   0  0  0  0  0  0  0  0  0  0  0  0
    4.0007   -0.0594   -7.1338 H   0  0  0  0  0  0  0  0  0  0  0  0
   -1.2772    1.0461    2.6303 H   0  0  0  0  0  0  0  0  0  0  0  0
   -0.4532    1.3599    1.1096 H   0  0  0  0  0  0  0  0  0  0  0  0
   -2.4597    2.6039    0.8790 H   0  0  0  0  0  0  0  0  0  0  0  0
   -3.4608    1.4015    1.7239 H   0  0  0  0  0  0  0  0  0  0  0  0
   -2.9384    1.0758    0.0432 H   0  0  0  0  0  0  0  0  0  0  0  0
   -0.2515    1.5358   -2.5796 H   0  0  0  0  0  0  0  0  0  0  0  0
   -0.9682    1.5930   -1.0047 H   0  0  0  0  0  0  0  0  0  0  0  0
   -2.0098   -0.6806   -1.4127 H   0  0  0  0  0  0  0  0  0  0  0  0
   -2.3784    0.4282   -2.7747 H   0  0  0  0  0  0  0  0  0  0  0  0
   -1.0805   -0.8089   -2.9551 H   0  0  0  0  0  0  0  0  0  0  0  0
    3.2696    2.4516   -6.9929 H   0  0  0  0  0  0  0  0  0  0  0  0
    7.8884    6.0768   -7.8358 H   0  0  0  0  0  0  0  0  0  0  0  0
    6.9560    5.7304   -2.3319 H   0  0  0  0  0  0  0  0  0  0  0  0
    7.9170    4.2078   -2.5175 H   0  0  0  0  0  0  0  0  0  0  0  0
    8.7447    5.8106   -2.5742 H   0  0  0  0  0  0  0  0  0  0  0  0
  1  2  2  3
  2  3  1  0
  3  4  2  0
  3  5  1  0
  5  6  1  0
  6  7  2  0
  7  8  1  0
  8  9  1  0
  9 10  1  0
 10 11  2  3
 11 12  1  0
 12 13  3  0
 11 14  1  0
 14 15  3  0
  1 16  1  0
 16 17  2  0
 17 18  1  0
 18 19  2  0
 19 20  1  0
 20 21  2  0
 21 22  1  0
 22 23  2  0
 23 24  1  0
 24 25  1  0
 17 26  1  0
 26 27  1  0
 27 28  1  0
 28 29  1  0
 29 30  1  0
 30 31  1  0
 31 32  2  0
 32 33  1  0
 33 34  1  0
 31 35  1  0
 35 36  1  0
 36 37  1  0
 37 38  1  0
 38 39  1  0
 39 40  1  0
 40 41  2  0
 41 42  1  0
 42 43  1  0
 41 44  1  0
 44 45  2  0
 45 46  1  0
 46 47  2  0
 39 48  2  0
 48 49  1  0
 49 50  1  0
 50 51  1  0
 51 52  1  0
 52 53  1  0
 53 54  1  0
 54 55  1  0
 55 56  1  0
 56 57  1  0
 57 58  1  0
 55 59  1  0
 59 60  1  0
 52 61  1  0
 61 62  1  0
 48 63  1  0
 63 64  2  3
 64 65  1  0
 65 66  2  0
 65 67  1  0
 67 68  1  0
 68 69  2  0
 69 70  1  0
 70 71  1  0
 71 72  1  0
 68 73  1  0
 73 74  2  3
 74 75  1  0
 75 76  3  0
 74 77  1  0
 77 78  3  0
 10  2  1  0
 58 16  1  0
 73 64  1  0
  9  5  2  0
 23 18  1  0
 57 26  2  0
 71 67  2  0
 56 28  2  0
 54 29  2  0
 34 30  2  0
 53 35  2  0
 51 36  2  0
 50 38  2  0
 47 40  1  0
  1 79  1  0
  6 80  1  0
  7 81  1  0
 19 82  1  0
 20 83  1  0
 21 84  1  0
 22 85  1  0
 24 86  1  0
 24 87  1  0
 25 88  1  0
 25 89  1  0
 25 90  1  0
 42 91  1  0
 42 92  1  0
 43 93  1  0
 43 94  1  0
 43 95  1  0
 44 96  1  0
 45 97  1  0
 46 98  1  0
 47 99  1  0
 59100  1  0
 59101  1  0
 60102  1  0
 60103  1  0
 60104  1  0
 61105  1  0
 61106  1  0
 62107  1  0
 62108  1  0
 62109  1  0
 63110  1  0
 69111  1  0
 72112  1  0
 72113  1  0
 72114  1  0
M  END

