
     RDKit          3D

127143  0  0  0  0  0  0  0  0999 V2000
    2.1905   -1.3750   -7.0190 C   0  0  0  0  0  0  0  0  0  0  0  0
    2.6616   -2.0195   -8.1014 C   0  0  0  0  0  0  0  0  0  0  0  0
    2.4850   -3.4593   -8.3967 C   0  0  0  0  0  0  0  0  0  0  0  0
    1.6255   -4.2342   -7.9014 O   0  0  0  0  0  0  0  0  0  0  0  0
    3.4379   -3.8100   -9.4217 C   0  0  0  0  0  0  0  0  0  0  0  0
    3.8473   -4.9994  -10.0157 C   0  0  0  0  0  0  0  0  0  0  0  0
    4.8866   -4.7722  -10.9250 C   0  0  0  0  0  0  0  0  0  0  0  0
    5.2657   -3.1121  -10.9554 S   0  0  0  0  0  0  0  0  0  0  0  0
    4.0989   -2.6998   -9.8192 C   0  0  0  0  0  0  0  0  0  0  0  0
    3.6464   -1.4937   -9.1084 C   0  0  0  0  0  0  0  0  0  0  0  0
    4.0163   -0.2232   -9.3876 C   0  0  0  0  0  0  0  0  0  0  0  0
    4.9765    0.0624  -10.4223 C   0  0  0  0  0  0  0  0  0  0  0  0
    5.7415    0.3032  -11.2559 N   0  0  0  0  0  0  0  0  0  0  0  0
    3.4178    0.9232   -8.7548 C   0  0  0  0  0  0  0  0  0  0  0  0
    2.9449    1.8489   -8.2471 N   0  0  0  0  0  0  0  0  0  0  0  0
    1.5166   -2.0305   -5.8845 C   0  0  0  0  0  0  0  0  0  0  0  0
    2.0033   -3.1129   -5.1136 C   0  0  0  0  0  0  0  0  0  0  0  0
    3.2627   -3.8482   -5.3663 C   0  0  0  0  0  0  0  0  0  0  0  0
    4.4546   -3.1543   -5.6349 C   0  0  0  0  0  0  0  0  0  0  0  0
    5.6063   -3.8495   -6.0111 C   0  0  0  0  0  0  0  0  0  0  0  0
    5.5856   -5.2477   -6.1177 C   0  0  0  0  0  0  0  0  0  0  0  0
    6.8222   -5.9921   -6.5424 C   0  0  0  0  0  0  0  0  0  0  0  0
    7.7330   -6.2553   -5.3492 C   0  0  0  0  0  0  0  0  0  0  0  0
    4.4125   -5.9457   -5.7893 C   0  0  0  0  0  0  0  0  0  0  0  0
    3.2606   -5.2510   -5.4124 C   0  0  0  0  0  0  0  0  0  0  0  0
    1.1892   -3.3320   -3.9988 C   0  0  0  0  0  0  0  0  0  0  0  0
    1.3442   -4.3329   -2.6219 S   0  0  0  0  0  0  0  0  0  0  0  0
    0.0191   -3.5635   -1.8920 C   0  0  0  0  0  0  0  0  0  0  0  0
   -0.6905   -3.5999   -0.7315 C   0  0  0  0  0  0  0  0  0  0  0  0
   -0.6316   -4.4568    0.3669 C   0  0  0  0  0  0  0  0  0  0  0  0
   -1.5343   -4.2380    1.4471 C   0  0  0  0  0  0  0  0  0  0  0  0
   -1.4285   -5.0742    2.5099 N   0  0  0  0  0  0  0  0  0  0  0  0
   -0.1987   -6.0481    1.9822 S   0  0  0  0  0  0  0  0  0  0  0  0
    0.2412   -5.4865    0.4878 N   0  0  0  0  0  0  0  0  0  0  0  0
   -2.4195   -3.1510    1.3862 C   0  0  0  0  0  0  0  0  0  0  0  0
   -3.0588   -2.5115    2.4134 C   0  0  0  0  0  0  0  0  0  0  0  0
   -2.8339   -2.5689    4.0980 S   0  0  0  0  0  0  0  0  0  0  0  0
   -3.2198   -0.9251    4.2647 C   0  0  0  0  0  0  0  0  0  0  0  0
   -3.0024   -0.0229    5.3108 C   0  0  0  0  0  0  0  0  0  0  0  0
   -2.4208   -0.4195    6.6010 C   0  0  0  0  0  0  0  0  0  0  0  0
   -3.2206   -0.4848    7.7499 C   0  0  0  0  0  0  0  0  0  0  0  0
   -2.6641   -0.8896    8.9681 C   0  0  0  0  0  0  0  0  0  0  0  0
   -1.2992   -1.2131    9.0514 C   0  0  0  0  0  0  0  0  0  0  0  0
   -0.7058   -1.6903   10.3490 C   0  0  0  0  0  0  0  0  0  0  0  0
   -0.6728   -3.2151   10.4012 C   0  0  0  0  0  0  0  0  0  0  0  0
   -0.5018   -1.1426    7.8971 C   0  0  0  0  0  0  0  0  0  0  0  0
   -1.0611   -0.7514    6.6790 C   0  0  0  0  0  0  0  0  0  0  0  0
   -3.1333    1.3114    4.8817 C   0  0  0  0  0  0  0  0  0  0  0  0
   -3.4221    1.3107    3.2021 S   0  0  0  0  0  0  0  0  0  0  0  0
   -3.4650   -0.3550    3.0426 C   0  0  0  0  0  0  0  0  0  0  0  0
   -3.3480   -1.2489    1.9761 C   0  0  0  0  0  0  0  0  0  0  0  0
   -2.9484   -1.0430    0.6906 N   0  0  0  0  0  0  0  0  0  0  0  0
   -2.4282   -2.2538    0.3030 C   0  0  0  0  0  0  0  0  0  0  0  0
   -1.6147   -2.5493   -0.8259 C   0  0  0  0  0  0  0  0  0  0  0  0
   -1.5553   -1.9445   -2.0582 N   0  0  0  0  0  0  0  0  0  0  0  0
   -0.5144   -2.5811   -2.6537 C   0  0  0  0  0  0  0  0  0  0  0  0
    0.1388   -2.4558   -3.8693 C   0  0  0  0  0  0  0  0  0  0  0  0
    0.1557   -1.3495   -5.1229 S   0  0  0  0  0  0  0  0  0  0  0  0
   -2.6939   -1.3849   -2.8034 C   0  0  0  0  0  0  0  0  0  0  0  0
   -2.3682   -0.0206   -3.4240 C   0  0  0  0  0  0  0  0  0  0  0  0
   -2.5903    0.2776    0.1588 C   0  0  0  0  0  0  0  0  0  0  0  0
   -1.1460    0.6363    0.5025 C   0  0  0  0  0  0  0  0  0  0  0  0
   -2.6103    2.4858    5.6104 C   0  0  0  0  0  0  0  0  0  0  0  0
   -3.0405    3.7488    5.4177 C   0  0  0  0  0  0  0  0  0  0  0  0
   -4.1898    4.1466    4.5959 C   0  0  0  0  0  0  0  0  0  0  0  0
   -5.2055    3.4434    4.3457 O   0  0  0  0  0  0  0  0  0  0  0  0
   -4.0091    5.5188    4.1807 C   0  0  0  0  0  0  0  0  0  0  0  0
   -4.7686    6.2234    3.2192 C   0  0  0  0  0  0  0  0  0  0  0  0
   -4.2457    7.4609    2.8951 C   0  0  0  0  0  0  0  0  0  0  0  0
   -3.0404    7.9794    3.4716 C   0  0  0  0  0  0  0  0  0  0  0  0
   -2.2967    7.2966    4.4208 C   0  0  0  0  0  0  0  0  0  0  0  0
   -2.8354    6.0320    4.7917 C   0  0  0  0  0  0  0  0  0  0  0  0
   -2.2754    4.9999    5.7073 C   0  0  0  0  0  0  0  0  0  0  0  0
   -1.4072    5.2111    6.7292 C   0  0  0  0  0  0  0  0  0  0  0  0
   -0.8477    6.5075    7.0091 C   0  0  0  0  0  0  0  0  0  0  0  0
   -0.3959    7.5443    7.2509 N   0  0  0  0  0  0  0  0  0  0  0  0
   -1.0923    4.1919    7.6981 C   0  0  0  0  0  0  0  0  0  0  0  0
   -0.8356    3.3800    8.4829 N   0  0  0  0  0  0  0  0  0  0  0  0
   -3.1264    9.1959    2.5961 C   0  0  0  0  0  0  0  0  0  0  0  0
   -2.1489    9.2517    1.3840 C   0  0  0  0  0  0  0  0  0  0  0  0
   -2.6858   10.3259    0.4679 C   0  0  0  0  0  0  0  0  0  0  0  0
   -3.8160    9.8430   -0.0628 C   0  0  0  0  0  0  0  0  0  0  0  0
   -4.0020    8.4598    0.5115 C   0  0  0  0  0  0  0  0  0  0  0  0
   -2.5448    8.0328    0.5666 C   0  0  0  0  0  0  0  0  0  0  0  0
   -4.3643    8.6674    2.0123 C   0  0  0  0  0  0  0  0  0  0  0  0
    2.3575   -0.3230   -6.8884 H   0  0  0  0  0  0  0  0  0  0  0  0
    3.4326   -5.9727   -9.7880 H   0  0  0  0  0  0  0  0  0  0  0  0
    5.3798   -5.5375  -11.5080 H   0  0  0  0  0  0  0  0  0  0  0  0
    4.4878   -2.0734   -5.5729 H   0  0  0  0  0  0  0  0  0  0  0  0
    6.5109   -3.2969   -6.2323 H   0  0  0  0  0  0  0  0  0  0  0  0
    7.3765   -5.4018   -7.3041 H   0  0  0  0  0  0  0  0  0  0  0  0
    6.5459   -6.9609   -7.0122 H   0  0  0  0  0  0  0  0  0  0  0  0
    8.0577   -5.2935   -4.8950 H   0  0  0  0  0  0  0  0  0  0  0  0
    8.6353   -6.8113   -5.6819 H   0  0  0  0  0  0  0  0  0  0  0  0
    7.2018   -6.8628   -4.5860 H   0  0  0  0  0  0  0  0  0  0  0  0
    4.3866   -7.0273   -5.8432 H   0  0  0  0  0  0  0  0  0  0  0  0
    2.3533   -5.8046   -5.2059 H   0  0  0  0  0  0  0  0  0  0  0  0
   -4.2737   -0.2398    7.6979 H   0  0  0  0  0  0  0  0  0  0  0  0
   -3.2983   -0.9570    9.8434 H   0  0  0  0  0  0  0  0  0  0  0  0
    0.3303   -1.2978   10.4572 H   0  0  0  0  0  0  0  0  0  0  0  0
   -1.2946   -1.3079   11.2098 H   0  0  0  0  0  0  0  0  0  0  0  0
   -1.7045   -3.6220   10.3478 H   0  0  0  0  0  0  0  0  0  0  0  0
   -0.0752   -3.6176    9.5549 H   0  0  0  0  0  0  0  0  0  0  0  0
   -0.2054   -3.5453   11.3540 H   0  0  0  0  0  0  0  0  0  0  0  0
    0.5473   -1.4038    7.9402 H   0  0  0  0  0  0  0  0  0  0  0  0
   -0.4371   -0.7081    5.7956 H   0  0  0  0  0  0  0  0  0  0  0  0
   -3.5861   -1.3035   -2.1463 H   0  0  0  0  0  0  0  0  0  0  0  0
   -2.9885   -2.0918   -3.6108 H   0  0  0  0  0  0  0  0  0  0  0  0
   -2.2605   -0.1124   -4.5221 H   0  0  0  0  0  0  0  0  0  0  0  0
   -1.4340    0.4048   -2.9979 H   0  0  0  0  0  0  0  0  0  0  0  0
   -3.2016    0.6895   -3.2333 H   0  0  0  0  0  0  0  0  0  0  0  0
   -2.7286    0.3261   -0.9184 H   0  0  0  0  0  0  0  0  0  0  0  0
   -3.2800    1.0512    0.5477 H   0  0  0  0  0  0  0  0  0  0  0  0
   -0.9762    0.5550    1.5970 H   0  0  0  0  0  0  0  0  0  0  0  0
   -0.4464   -0.0487   -0.0227 H   0  0  0  0  0  0  0  0  0  0  0  0
   -0.9323    1.6776    0.1807 H   0  0  0  0  0  0  0  0  0  0  0  0
   -1.7198    2.2997    6.1875 H   0  0  0  0  0  0  0  0  0  0  0  0
   -5.6440    5.8114    2.7322 H   0  0  0  0  0  0  0  0  0  0  0  0
   -1.3553    7.6885    4.7719 H   0  0  0  0  0  0  0  0  0  0  0  0
   -3.2503   10.1475    3.1605 H   0  0  0  0  0  0  0  0  0  0  0  0
   -1.0710    9.3385    1.6358 H   0  0  0  0  0  0  0  0  0  0  0  0
   -2.2111   11.2644    0.2053 H   0  0  0  0  0  0  0  0  0  0  0  0
   -4.4139   10.3222   -0.8312 H   0  0  0  0  0  0  0  0  0  0  0  0
   -4.6820    7.7945   -0.0601 H   0  0  0  0  0  0  0  0  0  0  0  0
   -2.0573    7.9943   -0.4378 H   0  0  0  0  0  0  0  0  0  0  0  0
   -2.3705    7.0625    1.0822 H   0  0  0  0  0  0  0  0  0  0  0  0
   -5.2698    9.2828    2.2123 H   0  0  0  0  0  0  0  0  0  0  0  0
  1  2  2  3
  2  3  1  0
  3  4  2  0
  3  5  1  0
  5  6  1  0
  6  7  2  0
  7  8  1  0
  8  9  1  0
  9 10  1  0
 10 11  2  3
 11 12  1  0
 12 13  3  0
 11 14  1  0
 14 15  3  0
  1 16  1  0
 16 17  2  0
 17 18  1  0
 18 19  2  0
 19 20  1  0
 20 21  2  0
 21 22  1  0
 22 23  1  0
 21 24  1  0
 24 25  2  0
 17 26  1  0
 26 27  1  0
 27 28  1  0
 28 29  1  0
 29 30  1  0
 30 31  1  0
 31 32  2  0
 32 33  1  0
 33 34  1  0
 31 35  1  0
 35 36  1  0
 36 37  1  0
 37 38  1  0
 38 39  1  0
 39 40  1  0
 40 41  2  0
 41 42  1  0
 42 43  2  0
 43 44  1  0
 44 45  1  0
 43 46  1  0
 46 47  2  0
 39 48  2  0
 48 49  1  0
 49 50  1  0
 50 51  1  0
 51 52  1  0
 52 53  1  0
 53 54  1  0
 54 55  1  0
 55 56  1  0
 56 57  1  0
 57 58  1  0
 55 59  1  0
 59 60  1  0
 52 61  1  0
 61 62  1  0
 48 63  1  0
 63 64  2  3
 64 65  1  0
 65 66  2  0
 65 67  1  0
 67 68  2  0
 68 69  1  0
 69 70  2  0
 70 71  1  0
 71 72  2  0
 72 73  1  0
 73 74  2  3
 74 75  1  0
 75 76  3  0
 74 77  1  0
 77 78  3  0
 70 79  1  0
 79 80  1  0
 80 81  1  0
 81 82  2  0
 82 83  1  0
 83 84  1  0
 83 85  1  0
 10  2  1  0
 58 16  1  0
 73 64  1  0
 85 79  1  0
  9  5  2  0
 25 18  1  0
 57 26  2  0
 72 67  1  0
 84 80  1  0
 56 28  2  0
 85 69  1  0
 54 29  2  0
 34 30  2  0
 53 35  2  0
 51 36  2  0
 50 38  2  0
 47 40  1  0
  1 86  1  0
  6 87  1  0
  7 88  1  0
 19 89  1  0
 20 90  1  0
 22 91  1  0
 22 92  1  0
 23 93  1  0
 23 94  1  0
 23 95  1  0
 24 96  1  0
 25 97  1  0
 41 98  1  0
 42 99  1  0
 44100  1  0
 44101  1  0
 45102  1  0
 45103  1  0
 45104  1  0
 46105  1  0
 47106  1  0
 59107  1  0
 59108  1  0
 60109  1  0
 60110  1  0
 60111  1  0
 61112  1  0
 61113  1  0
 62114  1  0
 62115  1  0
 62116  1  0
 63117  1  0
 68118  1  0
 71119  1  0
 79120  1  0
 80121  1  0
 81122  1  0
 82123  1  0
 83124  1  0
 84125  1  0
 84126  1  0
 85127  1  0
M  END

