
     RDKit          3D

 94105  0  0  0  0  0  0  0  0999 V2000
    3.6596   -1.4072    6.7695 C   0  0  0  0  0  0  0  0  0  0  0  0
    4.8074   -1.0304    7.3641 C   0  0  0  0  0  0  0  0  0  0  0  0
    5.4934    0.2761    7.1722 C   0  0  0  0  0  0  0  0  0  0  0  0
    5.2064    1.1761    6.3380 O   0  0  0  0  0  0  0  0  0  0  0  0
    6.6001    0.3263    8.1018 C   0  0  0  0  0  0  0  0  0  0  0  0
    7.6105    1.2497    8.3755 C   0  0  0  0  0  0  0  0  0  0  0  0
    8.4996    0.7493    9.3320 C   0  0  0  0  0  0  0  0  0  0  0  0
    8.0119   -0.8151    9.7925 S   0  0  0  0  0  0  0  0  0  0  0  0
    6.6592   -0.8332    8.7960 C   0  0  0  0  0  0  0  0  0  0  0  0
    5.6119   -1.7898    8.3911 C   0  0  0  0  0  0  0  0  0  0  0  0
    5.5105   -3.0698    8.8163 C   0  0  0  0  0  0  0  0  0  0  0  0
    6.3732   -3.5836    9.8488 C   0  0  0  0  0  0  0  0  0  0  0  0
    7.0607   -3.9943   10.6838 N   0  0  0  0  0  0  0  0  0  0  0  0
    4.5847   -4.0097    8.2496 C   0  0  0  0  0  0  0  0  0  0  0  0
    3.8550   -4.7814    7.7916 N   0  0  0  0  0  0  0  0  0  0  0  0
    2.9172   -0.5559    5.8263 C   0  0  0  0  0  0  0  0  0  0  0  0
    2.2496    0.6518    6.1243 C   0  0  0  0  0  0  0  0  0  0  0  0
    2.0901    1.2543    7.4940 C   0  0  0  0  0  0  0  0  0  0  0  0
    0.8422    0.7131    8.1787 C   0  0  0  0  0  0  0  0  0  0  0  0
    1.6011    1.1448    4.9910 C   0  0  0  0  0  0  0  0  0  0  0  0
    0.5936    2.4939    4.7237 S   0  0  0  0  0  0  0  0  0  0  0  0
    0.3846    2.0314    3.1013 C   0  0  0  0  0  0  0  0  0  0  0  0
   -0.4513    2.3252    2.0670 C   0  0  0  0  0  0  0  0  0  0  0  0
   -1.4936    3.2506    1.9908 C   0  0  0  0  0  0  0  0  0  0  0  0
   -2.3471    3.2214    0.8564 C   0  0  0  0  0  0  0  0  0  0  0  0
   -3.3518    4.1319    0.8144 N   0  0  0  0  0  0  0  0  0  0  0  0
   -3.0773    4.9158    2.2527 S   0  0  0  0  0  0  0  0  0  0  0  0
   -1.7741    4.1716    2.9469 N   0  0  0  0  0  0  0  0  0  0  0  0
   -2.1009    2.2816   -0.1450 C   0  0  0  0  0  0  0  0  0  0  0  0
   -2.6436    2.1687   -1.3884 C   0  0  0  0  0  0  0  0  0  0  0  0
   -3.7512    3.0069   -2.3600 S   0  0  0  0  0  0  0  0  0  0  0  0
   -3.2271    2.1438   -3.7345 C   0  0  0  0  0  0  0  0  0  0  0  0
   -3.6185    2.1425   -5.0726 C   0  0  0  0  0  0  0  0  0  0  0  0
   -4.6964    3.0276   -5.6472 C   0  0  0  0  0  0  0  0  0  0  0  0
   -4.0804    4.1841   -6.4296 C   0  0  0  0  0  0  0  0  0  0  0  0
   -2.8528    1.2134   -5.8056 C   0  0  0  0  0  0  0  0  0  0  0  0
   -1.7032    0.4539   -4.8013 S   0  0  0  0  0  0  0  0  0  0  0  0
   -2.2050    1.2747   -3.4273 C   0  0  0  0  0  0  0  0  0  0  0  0
   -1.8860    1.2829   -2.0744 C   0  0  0  0  0  0  0  0  0  0  0  0
   -0.8670    0.7738   -1.3322 N   0  0  0  0  0  0  0  0  0  0  0  0
   -1.0329    1.3650   -0.0976 C   0  0  0  0  0  0  0  0  0  0  0  0
   -0.2289    1.3315    1.0897 C   0  0  0  0  0  0  0  0  0  0  0  0
    0.6517    0.3859    1.5726 N   0  0  0  0  0  0  0  0  0  0  0  0
    1.0218    0.8836    2.7829 C   0  0  0  0  0  0  0  0  0  0  0  0
    1.7211    0.3703    3.8682 C   0  0  0  0  0  0  0  0  0  0  0  0
    2.6391   -0.9916    4.2040 S   0  0  0  0  0  0  0  0  0  0  0  0
    0.7169   -1.0438    1.2482 C   0  0  0  0  0  0  0  0  0  0  0  0
   -0.6035   -1.7275    1.5603 C   0  0  0  0  0  0  0  0  0  0  0  0
    0.3339    0.1676   -1.9101 C   0  0  0  0  0  0  0  0  0  0  0  0
    0.1088   -1.3085   -2.2477 C   0  0  0  0  0  0  0  0  0  0  0  0
   -3.0943    0.8314   -7.2070 C   0  0  0  0  0  0  0  0  0  0  0  0
   -4.1558    0.0876   -7.5735 C   0  0  0  0  0  0  0  0  0  0  0  0
   -5.1867   -0.4218   -6.6568 C   0  0  0  0  0  0  0  0  0  0  0  0
   -5.0861   -0.5423   -5.4041 O   0  0  0  0  0  0  0  0  0  0  0  0
   -6.3438   -0.8017   -7.4350 C   0  0  0  0  0  0  0  0  0  0  0  0
   -7.5765   -1.2579   -6.9670 C   0  0  0  0  0  0  0  0  0  0  0  0
   -8.5848   -1.5450   -7.9039 C   0  0  0  0  0  0  0  0  0  0  0  0
   -9.7964   -1.9810   -7.4785 F   0  0  0  0  0  0  0  0  0  0  0  0
   -8.3498   -1.3515   -9.2772 C   0  0  0  0  0  0  0  0  0  0  0  0
   -9.3342   -1.6252  -10.1729 F   0  0  0  0  0  0  0  0  0  0  0  0
   -7.1003   -0.8798   -9.7271 C   0  0  0  0  0  0  0  0  0  0  0  0
   -6.0834   -0.6251   -8.7862 C   0  0  0  0  0  0  0  0  0  0  0  0
   -4.6736   -0.1513   -8.9618 C   0  0  0  0  0  0  0  0  0  0  0  0
   -3.9613   -0.1020  -10.1140 C   0  0  0  0  0  0  0  0  0  0  0  0
   -2.5328    0.0868  -10.1386 C   0  0  0  0  0  0  0  0  0  0  0  0
   -1.3855    0.2237  -10.1929 N   0  0  0  0  0  0  0  0  0  0  0  0
   -4.5620   -0.3132  -11.4043 C   0  0  0  0  0  0  0  0  0  0  0  0
   -5.0362   -0.4678  -12.4537 N   0  0  0  0  0  0  0  0  0  0  0  0
    3.2345   -2.3814    6.9476 H   0  0  0  0  0  0  0  0  0  0  0  0
    7.7087    2.2145    7.8928 H   0  0  0  0  0  0  0  0  0  0  0  0
    9.3805    1.2607    9.7078 H   0  0  0  0  0  0  0  0  0  0  0  0
    2.0110    2.3613    7.4138 H   0  0  0  0  0  0  0  0  0  0  0  0
    2.9740    1.0315    8.1253 H   0  0  0  0  0  0  0  0  0  0  0  0
    0.7343    1.1853    9.1767 H   0  0  0  0  0  0  0  0  0  0  0  0
   -0.0649    0.9465    7.5743 H   0  0  0  0  0  0  0  0  0  0  0  0
    0.9225   -0.3893    8.3020 H   0  0  0  0  0  0  0  0  0  0  0  0
   -5.3363    3.4375   -4.8327 H   0  0  0  0  0  0  0  0  0  0  0  0
   -5.3493    2.4359   -6.3195 H   0  0  0  0  0  0  0  0  0  0  0  0
   -3.5128    3.7921   -7.3051 H   0  0  0  0  0  0  0  0  0  0  0  0
   -3.4023    4.7788   -5.7783 H   0  0  0  0  0  0  0  0  0  0  0  0
   -4.8836    4.8525   -6.7996 H   0  0  0  0  0  0  0  0  0  0  0  0
    1.5132   -1.5406    1.8305 H   0  0  0  0  0  0  0  0  0  0  0  0
    1.0004   -1.2164    0.2092 H   0  0  0  0  0  0  0  0  0  0  0  0
   -1.4145   -1.3038    0.9392 H   0  0  0  0  0  0  0  0  0  0  0  0
   -0.8590   -1.6012    2.6285 H   0  0  0  0  0  0  0  0  0  0  0  0
   -0.5223   -2.8106    1.3465 H   0  0  0  0  0  0  0  0  0  0  0  0
    0.6115    0.7021   -2.8400 H   0  0  0  0  0  0  0  0  0  0  0  0
    1.2076    0.3120   -1.2465 H   0  0  0  0  0  0  0  0  0  0  0  0
    1.0901   -1.8012   -2.4117 H   0  0  0  0  0  0  0  0  0  0  0  0
   -0.4362   -1.8361   -1.4432 H   0  0  0  0  0  0  0  0  0  0  0  0
   -0.4879   -1.4240   -3.1675 H   0  0  0  0  0  0  0  0  0  0  0  0
   -2.4449    1.2820   -7.9412 H   0  0  0  0  0  0  0  0  0  0  0  0
   -7.7527   -1.3857   -5.9029 H   0  0  0  0  0  0  0  0  0  0  0  0
   -6.9680   -0.7262  -10.7848 H   0  0  0  0  0  0  0  0  0  0  0  0
  1  2  2  3
  2  3  1  0
  3  4  2  0
  3  5  1  0
  5  6  1  0
  6  7  2  0
  7  8  1  0
  8  9  1  0
  9 10  1  0
 10 11  2  3
 11 12  1  0
 12 13  3  0
 11 14  1  0
 14 15  3  0
  1 16  1  0
 16 17  2  0
 17 18  1  0
 18 19  1  0
 17 20  1  0
 20 21  1  0
 21 22  1  0
 22 23  1  0
 23 24  1  0
 24 25  1  0
 25 26  2  0
 26 27  1  0
 27 28  1  0
 25 29  1  0
 29 30  1  0
 30 31  1  0
 31 32  1  0
 32 33  1  0
 33 34  1  0
 34 35  1  0
 33 36  2  0
 36 37  1  0
 37 38  1  0
 38 39  1  0
 39 40  1  0
 40 41  1  0
 41 42  1  0
 42 43  1  0
 43 44  1  0
 44 45  1  0
 45 46  1  0
 43 47  1  0
 47 48  1  0
 40 49  1  0
 49 50  1  0
 36 51  1  0
 51 52  2  3
 52 53  1  0
 53 54  2  0
 53 55  1  0
 55 56  2  0
 56 57  1  0
 57 58  1  0
 57 59  2  0
 59 60  1  0
 59 61  1  0
 61 62  2  0
 62 63  1  0
 63 64  2  3
 64 65  1  0
 65 66  3  0
 64 67  1  0
 67 68  3  0
 10  2  1  0
 46 16  1  0
 63 52  1  0
  9  5  2  0
 45 20  2  0
 62 55  1  0
 44 22  2  0
 42 23  2  0
 28 24  2  0
 41 29  2  0
 39 30  2  0
 38 32  2  0
  1 69  1  0
  6 70  1  0
  7 71  1  0
 18 72  1  0
 18 73  1  0
 19 74  1  0
 19 75  1  0
 19 76  1  0
 34 77  1  0
 34 78  1  0
 35 79  1  0
 35 80  1  0
 35 81  1  0
 47 82  1  0
 47 83  1  0
 48 84  1  0
 48 85  1  0
 48 86  1  0
 49 87  1  0
 49 88  1  0
 50 89  1  0
 50 90  1  0
 50 91  1  0
 51 92  1  0
 56 93  1  0
 61 94  1  0
M  END

