
     RDKit          3D

145159  0  0  0  0  0  0  0  0999 V2000
    4.2305   -3.2893    5.7930 C   0  0  0  0  0  0  0  0  0  0  0  0
    4.1679   -2.9172    7.0855 C   0  0  0  0  0  0  0  0  0  0  0  0
    3.1616   -2.0137    7.6920 C   0  0  0  0  0  0  0  0  0  0  0  0
    2.2855   -1.3338    7.0930 O   0  0  0  0  0  0  0  0  0  0  0  0
    3.4355   -1.9252    9.1046 C   0  0  0  0  0  0  0  0  0  0  0  0
    2.8265   -1.2858   10.1815 C   0  0  0  0  0  0  0  0  0  0  0  0
    3.5125   -1.5579   11.3684 C   0  0  0  0  0  0  0  0  0  0  0  0
    4.8414   -2.5772   11.0468 S   0  0  0  0  0  0  0  0  0  0  0  0
    4.5405   -2.6493    9.3931 C   0  0  0  0  0  0  0  0  0  0  0  0
    5.1065   -3.3009    8.2027 C   0  0  0  0  0  0  0  0  0  0  0  0
    6.2173   -4.0734    8.1954 C   0  0  0  0  0  0  0  0  0  0  0  0
    6.9974   -4.2712    9.3948 C   0  0  0  0  0  0  0  0  0  0  0  0
    7.6340   -4.4274   10.3528 N   0  0  0  0  0  0  0  0  0  0  0  0
    6.7409   -4.7075    7.0146 C   0  0  0  0  0  0  0  0  0  0  0  0
    7.1761   -5.2326    6.0772 N   0  0  0  0  0  0  0  0  0  0  0  0
    3.1863   -3.0123    4.7909 C   0  0  0  0  0  0  0  0  0  0  0  0
    3.4913   -2.5005    3.2000 S   0  0  0  0  0  0  0  0  0  0  0  0
    1.8658   -2.4895    2.7731 C   0  0  0  0  0  0  0  0  0  0  0  0
    1.0762   -1.8008    1.8015 C   0  0  0  0  0  0  0  0  0  0  0  0
   -0.2158   -1.6920    2.3397 C   0  0  0  0  0  0  0  0  0  0  0  0
   -0.3818   -2.5618    3.5797 C   0  0  0  0  0  0  0  0  0  0  0  0
   -1.0292   -3.9233    3.2549 C   0  0  0  0  0  0  0  0  0  0  0  0
   -1.6648   -4.1811    2.0117 C   0  0  0  0  0  0  0  0  0  0  0  0
   -2.0606   -5.4748    1.6724 C   0  0  0  0  0  0  0  0  0  0  0  0
   -1.8419   -6.5364    2.5580 C   0  0  0  0  0  0  0  0  0  0  0  0
   -2.1255   -7.9500    2.1200 C   0  0  0  0  0  0  0  0  0  0  0  0
   -0.9338   -8.4979    1.3261 C   0  0  0  0  0  0  0  0  0  0  0  0
   -1.2833   -6.2827    3.8216 C   0  0  0  0  0  0  0  0  0  0  0  0
   -0.9055   -4.9861    4.1729 C   0  0  0  0  0  0  0  0  0  0  0  0
   -1.0805   -1.7872    4.6915 C   0  0  0  0  0  0  0  0  0  0  0  0
   -2.4298   -2.0340    5.0082 C   0  0  0  0  0  0  0  0  0  0  0  0
   -3.0999   -1.2427    5.9457 C   0  0  0  0  0  0  0  0  0  0  0  0
   -2.4529   -0.1368    6.5351 C   0  0  0  0  0  0  0  0  0  0  0  0
   -3.2208    0.7884    7.4469 C   0  0  0  0  0  0  0  0  0  0  0  0
   -4.2553    1.5943    6.6708 C   0  0  0  0  0  0  0  0  0  0  0  0
   -1.1099    0.1305    6.2217 C   0  0  0  0  0  0  0  0  0  0  0  0
   -0.4330   -0.6835    5.3096 C   0  0  0  0  0  0  0  0  0  0  0  0
    1.0922   -2.8168    3.8409 C   0  0  0  0  0  0  0  0  0  0  0  0
    1.8079   -3.1589    4.9859 C   0  0  0  0  0  0  0  0  0  0  0  0
   -1.1890   -0.9203    1.6838 C   0  0  0  0  0  0  0  0  0  0  0  0
   -0.8460   -0.4142    0.4256 C   0  0  0  0  0  0  0  0  0  0  0  0
   -1.6441    0.2887   -0.5315 C   0  0  0  0  0  0  0  0  0  0  0  0
   -1.0308    0.3212   -1.7619 C   0  0  0  0  0  0  0  0  0  0  0  0
    0.1968   -0.6090   -1.7343 C   0  0  0  0  0  0  0  0  0  0  0  0
    0.3400   -0.7621   -0.2174 C   0  0  0  0  0  0  0  0  0  0  0  0
    1.3735   -1.4016    0.4970 C   0  0  0  0  0  0  0  0  0  0  0  0
   -0.1444   -2.0354   -2.2400 C   0  0  0  0  0  0  0  0  0  0  0  0
    0.8722   -3.0123   -2.2866 C   0  0  0  0  0  0  0  0  0  0  0  0
    0.5854   -4.3390   -2.6147 C   0  0  0  0  0  0  0  0  0  0  0  0
   -0.7344   -4.7328   -2.8806 C   0  0  0  0  0  0  0  0  0  0  0  0
   -1.0376   -6.1485   -3.2865 C   0  0  0  0  0  0  0  0  0  0  0  0
   -0.8434   -6.3247   -4.7884 C   0  0  0  0  0  0  0  0  0  0  0  0
   -1.7615   -3.7890   -2.7922 C   0  0  0  0  0  0  0  0  0  0  0  0
   -1.4682   -2.4581   -2.4676 C   0  0  0  0  0  0  0  0  0  0  0  0
    1.4639   -0.0026   -2.3625 C   0  0  0  0  0  0  0  0  0  0  0  0
    2.1592    1.0330   -1.7184 C   0  0  0  0  0  0  0  0  0  0  0  0
    3.3294    1.5634   -2.2810 C   0  0  0  0  0  0  0  0  0  0  0  0
    3.7993    1.0986   -3.5241 C   0  0  0  0  0  0  0  0  0  0  0  0
    4.9964    1.7377   -4.1779 C   0  0  0  0  0  0  0  0  0  0  0  0
    4.6788    3.1527   -4.6449 C   0  0  0  0  0  0  0  0  0  0  0  0
    3.1037    0.0801   -4.1808 C   0  0  0  0  0  0  0  0  0  0  0  0
    1.9618   -0.4768   -3.5966 C   0  0  0  0  0  0  0  0  0  0  0  0
   -1.9288    0.8255   -2.7245 C   0  0  0  0  0  0  0  0  0  0  0  0
   -3.1401    1.1750   -2.1709 C   0  0  0  0  0  0  0  0  0  0  0  0
   -3.2168    0.9127   -0.5030 S   0  0  0  0  0  0  0  0  0  0  0  0
   -3.7391    2.0702   -3.0103 C   0  0  0  0  0  0  0  0  0  0  0  0
   -4.5850    3.4775   -2.6900 S   0  0  0  0  0  0  0  0  0  0  0  0
   -3.9439    4.3203   -4.0199 C   0  0  0  0  0  0  0  0  0  0  0  0
   -2.9743    3.5155   -4.6472 C   0  0  0  0  0  0  0  0  0  0  0  0
   -2.8558    2.2639   -4.0332 C   0  0  0  0  0  0  0  0  0  0  0  0
   -1.7154    1.5179   -3.8855 N   0  0  0  0  0  0  0  0  0  0  0  0
   -0.4237    1.8990   -4.4593 C   0  0  0  0  0  0  0  0  0  0  0  0
    0.2309    3.0158   -3.6290 C   0  0  0  0  0  0  0  0  0  0  0  0
   -3.9187    5.7972   -4.0809 C   0  0  0  0  0  0  0  0  0  0  0  0
   -3.5002    6.4436   -5.1808 C   0  0  0  0  0  0  0  0  0  0  0  0
   -3.6356    5.9000   -6.7692 S   0  0  0  0  0  0  0  0  0  0  0  0
   -2.5396    7.0194   -7.4093 C   0  0  0  0  0  0  0  0  0  0  0  0
   -2.1413    7.0125   -8.7122 C   0  0  0  0  0  0  0  0  0  0  0  0
   -1.0515    7.8055   -9.2173 C   0  0  0  0  0  0  0  0  0  0  0  0
   -0.1188    8.3901   -9.6169 N   0  0  0  0  0  0  0  0  0  0  0  0
   -2.6852    6.0418   -9.6274 C   0  0  0  0  0  0  0  0  0  0  0  0
   -3.1185    5.2684  -10.3741 N   0  0  0  0  0  0  0  0  0  0  0  0
   -2.0682    7.8352   -6.4028 N   0  0  0  0  0  0  0  0  0  0  0  0
   -0.8988    8.6652   -6.4721 C   0  0  0  0  0  0  0  0  0  0  0  0
   -0.9867    9.9984   -6.8969 C   0  0  0  0  0  0  0  0  0  0  0  0
    0.1766   10.7612   -7.0360 C   0  0  0  0  0  0  0  0  0  0  0  0
    1.4215   10.2060   -6.7367 C   0  0  0  0  0  0  0  0  0  0  0  0
    1.5107    8.8833   -6.2896 C   0  0  0  0  0  0  0  0  0  0  0  0
    0.3514    8.1195   -6.1553 C   0  0  0  0  0  0  0  0  0  0  0  0
   -2.6465    7.5495   -5.1924 C   0  0  0  0  0  0  0  0  0  0  0  0
   -2.3382    8.1772   -4.1417 O   0  0  0  0  0  0  0  0  0  0  0  0
    5.0763   -3.8226    5.4062 H   0  0  0  0  0  0  0  0  0  0  0  0
    1.9442   -0.6654   10.1147 H   0  0  0  0  0  0  0  0  0  0  0  0
    3.2350   -1.1928   12.3434 H   0  0  0  0  0  0  0  0  0  0  0  0
   -1.8422   -3.4030    1.2873 H   0  0  0  0  0  0  0  0  0  0  0  0
   -2.4996   -5.6534    0.6960 H   0  0  0  0  0  0  0  0  0  0  0  0
   -2.2982   -8.6042    3.0018 H   0  0  0  0  0  0  0  0  0  0  0  0
   -3.0364   -7.9902    1.4901 H   0  0  0  0  0  0  0  0  0  0  0  0
   -1.1132   -9.5584    1.0628 H   0  0  0  0  0  0  0  0  0  0  0  0
   -0.0020   -8.4249    1.9222 H   0  0  0  0  0  0  0  0  0  0  0  0
   -0.8175   -7.9197    0.3889 H   0  0  0  0  0  0  0  0  0  0  0  0
   -1.1068   -7.0904    4.5197 H   0  0  0  0  0  0  0  0  0  0  0  0
   -0.4817   -4.8202    5.1529 H   0  0  0  0  0  0  0  0  0  0  0  0
   -2.9803   -2.8341    4.5313 H   0  0  0  0  0  0  0  0  0  0  0  0
   -4.1448   -1.4369    6.1665 H   0  0  0  0  0  0  0  0  0  0  0  0
   -2.5322    1.4955    7.9542 H   0  0  0  0  0  0  0  0  0  0  0  0
   -3.7200    0.2111    8.2491 H   0  0  0  0  0  0  0  0  0  0  0  0
   -5.0028    0.9202    6.2059 H   0  0  0  0  0  0  0  0  0  0  0  0
   -3.7578    2.1832    5.8694 H   0  0  0  0  0  0  0  0  0  0  0  0
   -4.7947    2.2919    7.3480 H   0  0  0  0  0  0  0  0  0  0  0  0
   -0.5973    0.9640    6.6678 H   0  0  0  0  0  0  0  0  0  0  0  0
    0.5989   -0.4419    5.0564 H   0  0  0  0  0  0  0  0  0  0  0  0
    1.3378   -3.4821    5.9160 H   0  0  0  0  0  0  0  0  0  0  0  0
   -2.1931   -0.8048    2.0858 H   0  0  0  0  0  0  0  0  0  0  0  0
    2.3219   -1.6360    0.0363 H   0  0  0  0  0  0  0  0  0  0  0  0
    1.8984   -2.7594   -2.0694 H   0  0  0  0  0  0  0  0  0  0  0  0
    1.3915   -5.0514   -2.6796 H   0  0  0  0  0  0  0  0  0  0  0  0
   -0.3645   -6.8517   -2.7573 H   0  0  0  0  0  0  0  0  0  0  0  0
   -2.0778   -6.4152   -3.0077 H   0  0  0  0  0  0  0  0  0  0  0  0
    0.2346   -6.2793   -5.0474 H   0  0  0  0  0  0  0  0  0  0  0  0
   -1.3975   -5.5396   -5.3494 H   0  0  0  0  0  0  0  0  0  0  0  0
   -1.2353   -7.3142   -5.1021 H   0  0  0  0  0  0  0  0  0  0  0  0
   -2.7909   -4.0770   -2.9663 H   0  0  0  0  0  0  0  0  0  0  0  0
   -2.3067   -1.7988   -2.3440 H   0  0  0  0  0  0  0  0  0  0  0  0
    1.8135    1.4273   -0.7741 H   0  0  0  0  0  0  0  0  0  0  0  0
    3.8635    2.3561   -1.7706 H   0  0  0  0  0  0  0  0  0  0  0  0
    5.3392    1.1473   -5.0496 H   0  0  0  0  0  0  0  0  0  0  0  0
    5.8433    1.7728   -3.4558 H   0  0  0  0  0  0  0  0  0  0  0  0
    5.5471    3.5665   -5.2142 H   0  0  0  0  0  0  0  0  0  0  0  0
    4.4716    3.8138   -3.7765 H   0  0  0  0  0  0  0  0  0  0  0  0
    3.7993    3.1477   -5.3185 H   0  0  0  0  0  0  0  0  0  0  0  0
    3.4105   -0.2682   -5.1634 H   0  0  0  0  0  0  0  0  0  0  0  0
    1.4090   -1.2188   -4.1635 H   0  0  0  0  0  0  0  0  0  0  0  0
   -2.2268    3.9085   -5.3365 H   0  0  0  0  0  0  0  0  0  0  0  0
    0.2307    1.0135   -4.5283 H   0  0  0  0  0  0  0  0  0  0  0  0
   -0.5514    2.2289   -5.5050 H   0  0  0  0  0  0  0  0  0  0  0  0
   -0.1846    3.9884   -3.9441 H   0  0  0  0  0  0  0  0  0  0  0  0
    0.0506    2.8907   -2.5486 H   0  0  0  0  0  0  0  0  0  0  0  0
    1.3303    3.0420   -3.8236 H   0  0  0  0  0  0  0  0  0  0  0  0
   -3.8629    6.3070   -3.1350 H   0  0  0  0  0  0  0  0  0  0  0  0
   -1.9425   10.4254   -7.1662 H   0  0  0  0  0  0  0  0  0  0  0  0
    0.1097   11.7876   -7.3785 H   0  0  0  0  0  0  0  0  0  0  0  0
    2.3246   10.7956   -6.8342 H   0  0  0  0  0  0  0  0  0  0  0  0
    2.4783    8.4506   -6.0634 H   0  0  0  0  0  0  0  0  0  0  0  0
    0.4178    7.0853   -5.8234 H   0  0  0  0  0  0  0  0  0  0  0  0
  1  2  2  3
  2  3  1  0
  3  4  2  0
  3  5  1  0
  5  6  1  0
  6  7  2  0
  7  8  1  0
  8  9  1  0
  9 10  1  0
 10 11  2  3
 11 12  1  0
 12 13  3  0
 11 14  1  0
 14 15  3  0
  1 16  1  0
 16 17  1  0
 17 18  1  0
 18 19  1  0
 19 20  2  0
 20 21  1  0
 21 22  1  0
 22 23  2  0
 23 24  1  0
 24 25  2  0
 25 26  1  0
 26 27  1  0
 25 28  1  0
 28 29  2  0
 21 30  1  0
 30 31  2  0
 31 32  1  0
 32 33  2  0
 33 34  1  0
 34 35  1  0
 33 36  1  0
 36 37  2  0
 21 38  1  0
 38 39  1  0
 20 40  1  0
 40 41  2  0
 41 42  1  0
 42 43  2  0
 43 44  1  0
 44 45  1  0
 45 46  2  0
 44 47  1  0
 47 48  2  0
 48 49  1  0
 49 50  2  0
 50 51  1  0
 51 52  1  0
 50 53  1  0
 53 54  2  0
 44 55  1  0
 55 56  2  0
 56 57  1  0
 57 58  2  0
 58 59  1  0
 59 60  1  0
 58 61  1  0
 61 62  2  0
 43 63  1  0
 63 64  2  0
 64 65  1  0
 64 66  1  0
 66 67  1  0
 67 68  1  0
 68 69  2  0
 69 70  1  0
 70 71  1  0
 71 72  1  0
 72 73  1  0
 68 74  1  0
 74 75  2  3
 75 76  1  0
 76 77  1  0
 77 78  2  3
 78 79  1  0
 79 80  3  0
 78 81  1  0
 81 82  3  0
 77 83  1  0
 83 84  1  0
 84 85  2  0
 85 86  1  0
 86 87  2  0
 87 88  1  0
 88 89  2  0
 83 90  1  0
 90 91  2  0
 10  2  1  0
 39 16  2  0
 45 41  1  0
 54 47  1  0
 62 55  1  0
 71 63  1  0
 90 75  1  0
  9  5  2  0
 38 18  2  0
 65 42  1  0
 70 66  2  0
 89 84  1  0
 46 19  1  0
 29 22  1  0
 37 30  1  0
  1 92  1  0
  6 93  1  0
  7 94  1  0
 23 95  1  0
 24 96  1  0
 26 97  1  0
 26 98  1  0
 27 99  1  0
 27100  1  0
 27101  1  0
 28102  1  0
 29103  1  0
 31104  1  0
 32105  1  0
 34106  1  0
 34107  1  0
 35108  1  0
 35109  1  0
 35110  1  0
 36111  1  0
 37112  1  0
 39113  1  0
 40114  1  0
 46115  1  0
 48116  1  0
 49117  1  0
 51118  1  0
 51119  1  0
 52120  1  0
 52121  1  0
 52122  1  0
 53123  1  0
 54124  1  0
 56125  1  0
 57126  1  0
 59127  1  0
 59128  1  0
 60129  1  0
 60130  1  0
 60131  1  0
 61132  1  0
 62133  1  0
 69134  1  0
 72135  1  0
 72136  1  0
 73137  1  0
 73138  1  0
 73139  1  0
 74140  1  0
 85141  1  0
 86142  1  0
 87143  1  0
 88144  1  0
 89145  1  0
M  END

