
     RDKit          3D

123136  0  0  0  0  0  0  0  0999 V2000
    7.3851    0.6037   -1.4858 C   0  0  0  0  0  0  0  0  0  0  0  0
    7.6935   -0.5299   -2.1568 C   0  0  0  0  0  0  0  0  0  0  0  0
    6.8648   -1.7362   -2.2735 C   0  0  0  0  0  0  0  0  0  0  0  0
    6.1013   -2.2062   -1.3885 O   0  0  0  0  0  0  0  0  0  0  0  0
    7.2025   -2.4029   -3.5110 C   0  0  0  0  0  0  0  0  0  0  0  0
    6.5182   -3.4391   -4.1422 C   0  0  0  0  0  0  0  0  0  0  0  0
    6.9267   -3.8436   -5.4264 C   0  0  0  0  0  0  0  0  0  0  0  0
    6.1675   -4.9415   -6.1243 C   0  0  0  0  0  0  0  0  0  0  0  0
    8.0282   -3.1909   -6.0496 C   0  0  0  0  0  0  0  0  0  0  0  0
    8.4554   -3.5497   -7.4483 C   0  0  0  0  0  0  0  0  0  0  0  0
    8.6857   -2.1315   -5.3831 C   0  0  0  0  0  0  0  0  0  0  0  0
    8.2797   -1.7688   -4.0923 C   0  0  0  0  0  0  0  0  0  0  0  0
    8.7486   -0.6676   -3.2069 C   0  0  0  0  0  0  0  0  0  0  0  0
    9.9699   -0.0764   -3.2232 C   0  0  0  0  0  0  0  0  0  0  0  0
   10.4031    0.8213   -2.1810 C   0  0  0  0  0  0  0  0  0  0  0  0
   10.7581    1.5421   -1.3489 N   0  0  0  0  0  0  0  0  0  0  0  0
   10.9718   -0.4150   -4.1997 C   0  0  0  0  0  0  0  0  0  0  0  0
   11.7895   -0.6851   -4.9735 N   0  0  0  0  0  0  0  0  0  0  0  0
    6.0700    0.9051   -0.8604 C   0  0  0  0  0  0  0  0  0  0  0  0
    5.8227    1.9474    0.0660 C   0  0  0  0  0  0  0  0  0  0  0  0
    6.8421    2.8443    0.6520 C   0  0  0  0  0  0  0  0  0  0  0  0
    7.5144    3.7401   -0.2006 C   0  0  0  0  0  0  0  0  0  0  0  0
    8.4385    4.6533    0.3113 C   0  0  0  0  0  0  0  0  0  0  0  0
    8.6921    4.6973    1.6814 C   0  0  0  0  0  0  0  0  0  0  0  0
    8.0289    3.8225    2.5447 C   0  0  0  0  0  0  0  0  0  0  0  0
    7.0998    2.8894    2.0472 C   0  0  0  0  0  0  0  0  0  0  0  0
    6.4626    1.9256    3.0291 C   0  0  0  0  0  0  0  0  0  0  0  0
    7.4639    0.8722    3.4918 C   0  0  0  0  0  0  0  0  0  0  0  0
    4.4513    2.1107    0.2861 C   0  0  0  0  0  0  0  0  0  0  0  0
    3.5203    3.2528    1.1496 S   0  0  0  0  0  0  0  0  0  0  0  0
    2.0762    2.5211    0.6206 C   0  0  0  0  0  0  0  0  0  0  0  0
    0.7297    2.7736    0.5783 C   0  0  0  0  0  0  0  0  0  0  0  0
   -0.0478    3.8505    1.0235 C   0  0  0  0  0  0  0  0  0  0  0  0
   -1.4343    3.8850    0.6687 C   0  0  0  0  0  0  0  0  0  0  0  0
   -2.1610    4.9270    1.1379 N   0  0  0  0  0  0  0  0  0  0  0  0
   -0.9740    5.7546    1.9458 S   0  0  0  0  0  0  0  0  0  0  0  0
    0.4239    4.8810    1.7671 N   0  0  0  0  0  0  0  0  0  0  0  0
   -1.9715    2.8186   -0.0752 C   0  0  0  0  0  0  0  0  0  0  0  0
   -3.2690    2.4264   -0.2723 C   0  0  0  0  0  0  0  0  0  0  0  0
   -4.8038    2.9419    0.2465 S   0  0  0  0  0  0  0  0  0  0  0  0
   -5.4416    1.3817    0.0137 C   0  0  0  0  0  0  0  0  0  0  0  0
   -6.6604    0.7991    0.3564 C   0  0  0  0  0  0  0  0  0  0  0  0
   -7.8464    1.5732    0.7714 C   0  0  0  0  0  0  0  0  0  0  0  0
   -8.9553    1.7441   -0.0951 C   0  0  0  0  0  0  0  0  0  0  0  0
   -8.9648    1.2087   -1.5109 C   0  0  0  0  0  0  0  0  0  0  0  0
   -8.3704    2.2269   -2.4764 C   0  0  0  0  0  0  0  0  0  0  0  0
  -10.0542    2.5015    0.3465 C   0  0  0  0  0  0  0  0  0  0  0  0
  -10.0732    3.0479    1.6329 C   0  0  0  0  0  0  0  0  0  0  0  0
   -8.9824    2.8691    2.4856 C   0  0  0  0  0  0  0  0  0  0  0  0
   -7.8731    2.1366    2.0564 C   0  0  0  0  0  0  0  0  0  0  0  0
   -6.6050   -0.6135    0.2957 C   0  0  0  0  0  0  0  0  0  0  0  0
   -5.0387   -1.0666   -0.2118 S   0  0  0  0  0  0  0  0  0  0  0  0
   -4.4720    0.4990   -0.3774 C   0  0  0  0  0  0  0  0  0  0  0  0
   -3.2370    1.1021   -0.5828 C   0  0  0  0  0  0  0  0  0  0  0  0
   -1.9764    0.6087   -0.6676 N   0  0  0  0  0  0  0  0  0  0  0  0
   -1.1928    1.7097   -0.4405 C   0  0  0  0  0  0  0  0  0  0  0  0
    0.1960    1.7573   -0.2229 C   0  0  0  0  0  0  0  0  0  0  0  0
    1.1794    1.0056   -0.8011 N   0  0  0  0  0  0  0  0  0  0  0  0
    2.3023    1.4684   -0.2047 C   0  0  0  0  0  0  0  0  0  0  0  0
    3.6499    1.2511   -0.4149 C   0  0  0  0  0  0  0  0  0  0  0  0
    4.5736    0.2648   -1.3863 S   0  0  0  0  0  0  0  0  0  0  0  0
    1.1347    0.4021   -2.1453 C   0  0  0  0  0  0  0  0  0  0  0  0
    1.6028    1.3986   -3.2095 C   0  0  0  0  0  0  0  0  0  0  0  0
   -1.6221   -0.7971   -0.4102 C   0  0  0  0  0  0  0  0  0  0  0  0
   -1.6077   -1.0895    1.0881 C   0  0  0  0  0  0  0  0  0  0  0  0
   -7.6666   -1.4849    0.8670 C   0  0  0  0  0  0  0  0  0  0  0  0
   -7.7008   -2.8327    0.9393 C   0  0  0  0  0  0  0  0  0  0  0  0
   -6.7041   -3.7973    0.4616 C   0  0  0  0  0  0  0  0  0  0  0  0
   -6.0198   -3.7124   -0.5911 O   0  0  0  0  0  0  0  0  0  0  0  0
   -6.7945   -4.9864    1.2847 C   0  0  0  0  0  0  0  0  0  0  0  0
   -5.9400   -6.0905    1.3166 C   0  0  0  0  0  0  0  0  0  0  0  0
   -4.8818   -6.1840    0.4748 F   0  0  0  0  0  0  0  0  0  0  0  0
   -6.1773   -7.0919    2.2687 C   0  0  0  0  0  0  0  0  0  0  0  0
   -7.2534   -6.9724    3.1691 C   0  0  0  0  0  0  0  0  0  0  0  0
   -8.1081   -5.8589    3.1129 C   0  0  0  0  0  0  0  0  0  0  0  0
   -7.8720   -4.8716    2.1419 C   0  0  0  0  0  0  0  0  0  0  0  0
   -8.5925   -3.6016    1.8594 C   0  0  0  0  0  0  0  0  0  0  0  0
   -9.8882   -3.3222    2.1520 C   0  0  0  0  0  0  0  0  0  0  0  0
  -10.5866   -2.2186    1.5413 C   0  0  0  0  0  0  0  0  0  0  0  0
  -11.1595   -1.3406    1.0461 N   0  0  0  0  0  0  0  0  0  0  0  0
  -10.7173   -4.2113    2.9238 C   0  0  0  0  0  0  0  0  0  0  0  0
  -11.3973   -4.9182    3.5361 N   0  0  0  0  0  0  0  0  0  0  0  0
    8.0662    1.4308   -1.5344 H   0  0  0  0  0  0  0  0  0  0  0  0
    5.6573   -3.8862   -3.6578 H   0  0  0  0  0  0  0  0  0  0  0  0
    6.8393   -5.8088   -6.3013 H   0  0  0  0  0  0  0  0  0  0  0  0
    5.7766   -4.5749   -7.0969 H   0  0  0  0  0  0  0  0  0  0  0  0
    5.3087   -5.2934   -5.5192 H   0  0  0  0  0  0  0  0  0  0  0  0
    7.7132   -3.1537   -8.1731 H   0  0  0  0  0  0  0  0  0  0  0  0
    9.4503   -3.1192   -7.6904 H   0  0  0  0  0  0  0  0  0  0  0  0
    8.5304   -4.6502   -7.5646 H   0  0  0  0  0  0  0  0  0  0  0  0
    9.4612   -1.5860   -5.8980 H   0  0  0  0  0  0  0  0  0  0  0  0
    7.3133    3.7387   -1.2640 H   0  0  0  0  0  0  0  0  0  0  0  0
    8.9488    5.3346   -0.3536 H   0  0  0  0  0  0  0  0  0  0  0  0
    9.4058    5.4077    2.0758 H   0  0  0  0  0  0  0  0  0  0  0  0
    8.2426    3.8713    3.6060 H   0  0  0  0  0  0  0  0  0  0  0  0
    5.5821    1.4061    2.6017 H   0  0  0  0  0  0  0  0  0  0  0  0
    6.0928    2.4881    3.9150 H   0  0  0  0  0  0  0  0  0  0  0  0
    8.2729    1.3430    4.0928 H   0  0  0  0  0  0  0  0  0  0  0  0
    6.9492    0.1244    4.1328 H   0  0  0  0  0  0  0  0  0  0  0  0
    7.9119    0.3487    2.6167 H   0  0  0  0  0  0  0  0  0  0  0  0
  -10.0051    0.9778   -1.8243 H   0  0  0  0  0  0  0  0  0  0  0  0
   -8.3953    0.2594   -1.5855 H   0  0  0  0  0  0  0  0  0  0  0  0
   -8.3070    1.7822   -3.4954 H   0  0  0  0  0  0  0  0  0  0  0  0
   -9.0119    3.1337   -2.5255 H   0  0  0  0  0  0  0  0  0  0  0  0
   -7.3466    2.5155   -2.1548 H   0  0  0  0  0  0  0  0  0  0  0  0
  -10.8997    2.6674   -0.3111 H   0  0  0  0  0  0  0  0  0  0  0  0
  -10.9335    3.6171    1.9602 H   0  0  0  0  0  0  0  0  0  0  0  0
   -8.9972    3.2972    3.4772 H   0  0  0  0  0  0  0  0  0  0  0  0
   -7.0354    1.9974    2.7306 H   0  0  0  0  0  0  0  0  0  0  0  0
    1.7674   -0.5079   -2.1696 H   0  0  0  0  0  0  0  0  0  0  0  0
    0.1011    0.1235   -2.4222 H   0  0  0  0  0  0  0  0  0  0  0  0
    1.4884    0.9458   -4.2172 H   0  0  0  0  0  0  0  0  0  0  0  0
    2.6725    1.6602   -3.0727 H   0  0  0  0  0  0  0  0  0  0  0  0
    1.0012    2.3280   -3.1647 H   0  0  0  0  0  0  0  0  0  0  0  0
   -2.3445   -1.4674   -0.9208 H   0  0  0  0  0  0  0  0  0  0  0  0
   -0.6286   -1.0513   -0.8087 H   0  0  0  0  0  0  0  0  0  0  0  0
   -2.5584   -0.7744    1.5598 H   0  0  0  0  0  0  0  0  0  0  0  0
   -1.4701   -2.1759    1.2508 H   0  0  0  0  0  0  0  0  0  0  0  0
   -0.7682   -0.5494    1.5689 H   0  0  0  0  0  0  0  0  0  0  0  0
   -8.4256   -0.9436    1.4092 H   0  0  0  0  0  0  0  0  0  0  0  0
   -5.5230   -7.9537    2.3261 H   0  0  0  0  0  0  0  0  0  0  0  0
   -7.4196   -7.7466    3.9090 H   0  0  0  0  0  0  0  0  0  0  0  0
   -8.9023   -5.7778    3.8393 H   0  0  0  0  0  0  0  0  0  0  0  0
  1  2  2  3
  2  3  1  0
  3  4  2  0
  3  5  1  0
  5  6  2  0
  6  7  1  0
  7  8  1  0
  7  9  2  0
  9 10  1  0
  9 11  1  0
 11 12  2  0
 12 13  1  0
 13 14  2  3
 14 15  1  0
 15 16  3  0
 14 17  1  0
 17 18  3  0
  1 19  1  0
 19 20  2  0
 20 21  1  0
 21 22  2  0
 22 23  1  0
 23 24  2  0
 24 25  1  0
 25 26  2  0
 26 27  1  0
 27 28  1  0
 20 29  1  0
 29 30  1  0
 30 31  1  0
 31 32  1  0
 32 33  1  0
 33 34  1  0
 34 35  2  0
 35 36  1  0
 36 37  1  0
 34 38  1  0
 38 39  1  0
 39 40  1  0
 40 41  1  0
 41 42  1  0
 42 43  1  0
 43 44  2  0
 44 45  1  0
 45 46  1  0
 44 47  1  0
 47 48  2  0
 48 49  1  0
 49 50  2  0
 42 51  2  0
 51 52  1  0
 52 53  1  0
 53 54  1  0
 54 55  1  0
 55 56  1  0
 56 57  1  0
 57 58  1  0
 58 59  1  0
 59 60  1  0
 60 61  1  0
 58 62  1  0
 62 63  1  0
 55 64  1  0
 64 65  1  0
 51 66  1  0
 66 67  2  3
 67 68  1  0
 68 69  2  0
 68 70  1  0
 70 71  2  0
 71 72  1  0
 71 73  1  0
 73 74  2  0
 74 75  1  0
 75 76  2  0
 76 77  1  0
 77 78  2  3
 78 79  1  0
 79 80  3  0
 78 81  1  0
 81 82  3  0
 13  2  1  0
 61 19  1  0
 77 67  1  0
 12  5  1  0
 26 21  1  0
 60 29  2  0
 76 70  1  0
 59 31  2  0
 57 32  2  0
 37 33  2  0
 56 38  2  0
 54 39  2  0
 53 41  2  0
 50 43  1  0
  1 83  1  0
  6 84  1  0
  8 85  1  0
  8 86  1  0
  8 87  1  0
 10 88  1  0
 10 89  1  0
 10 90  1  0
 11 91  1  0
 22 92  1  0
 23 93  1  0
 24 94  1  0
 25 95  1  0
 27 96  1  0
 27 97  1  0
 28 98  1  0
 28 99  1  0
 28100  1  0
 45101  1  0
 45102  1  0
 46103  1  0
 46104  1  0
 46105  1  0
 47106  1  0
 48107  1  0
 49108  1  0
 50109  1  0
 62110  1  0
 62111  1  0
 63112  1  0
 63113  1  0
 63114  1  0
 64115  1  0
 64116  1  0
 65117  1  0
 65118  1  0
 65119  1  0
 66120  1  0
 73121  1  0
 74122  1  0
 75123  1  0
M  END

