
     RDKit          3D

104118  0  0  0  0  0  0  0  0999 V2000
    2.7448    3.8918    5.3767 C   0  0  0  0  0  0  0  0  0  0  0  0
    1.5482    4.0008    5.9226 C   0  0  0  0  0  0  0  0  0  0  0  0
    0.6239    2.8935    6.1331 C   0  0  0  0  0  0  0  0  0  0  0  0
    0.8452    1.6879    5.9085 O   0  0  0  0  0  0  0  0  0  0  0  0
   -0.6449    3.4439    6.6725 C   0  0  0  0  0  0  0  0  0  0  0  0
   -1.8179    2.8204    6.9889 C   0  0  0  0  0  0  0  0  0  0  0  0
   -2.9362    3.5095    7.4336 C   0  0  0  0  0  0  0  0  0  0  0  0
   -4.2279    2.8021    7.7308 C   0  0  0  0  0  0  0  0  0  0  0  0
   -2.8134    4.8510    7.5500 C   0  0  0  0  0  0  0  0  0  0  0  0
   -3.9834    5.6893    8.0001 C   0  0  0  0  0  0  0  0  0  0  0  0
   -1.6152    5.5053    7.2322 C   0  0  0  0  0  0  0  0  0  0  0  0
   -0.5147    4.7935    6.7896 C   0  0  0  0  0  0  0  0  0  0  0  0
    0.8624    5.2198    6.3222 C   0  0  0  0  0  0  0  0  0  0  0  0
    1.1503    6.4490    6.0981 C   0  0  0  0  0  0  0  0  0  0  0  0
    2.3581    6.8175    5.3011 C   0  0  0  0  0  0  0  0  0  0  0  0
    3.2801    7.1118    4.6984 N   0  0  0  0  0  0  0  0  0  0  0  0
    0.4709    7.6133    6.5334 C   0  0  0  0  0  0  0  0  0  0  0  0
   -0.1034    8.5889    6.9022 N   0  0  0  0  0  0  0  0  0  0  0  0
    3.2726    2.6372    4.8979 C   0  0  0  0  0  0  0  0  0  0  0  0
    3.5955    1.4196    5.0529 C   0  0  0  0  0  0  0  0  0  0  0  0
    3.9722    0.5422    4.0792 C   0  0  0  0  0  0  0  0  0  0  0  0
    4.3809   -1.1972    4.0129 S   0  0  0  0  0  0  0  0  0  0  0  0
    4.5920   -1.3515    2.3291 C   0  0  0  0  0  0  0  0  0  0  0  0
    4.7463   -2.1934    1.2311 C   0  0  0  0  0  0  0  0  0  0  0  0
    4.8027   -3.6042    1.2577 C   0  0  0  0  0  0  0  0  0  0  0  0
    4.6549   -4.2062    0.0450 C   0  0  0  0  0  0  0  0  0  0  0  0
    4.7125   -5.5715    0.0978 N   0  0  0  0  0  0  0  0  0  0  0  0
    4.9535   -5.9435    1.6899 S   0  0  0  0  0  0  0  0  0  0  0  0
    4.9810   -4.3780    2.3096 N   0  0  0  0  0  0  0  0  0  0  0  0
    4.4744   -3.4463   -1.0837 C   0  0  0  0  0  0  0  0  0  0  0  0
    3.9843   -3.8048   -2.3553 C   0  0  0  0  0  0  0  0  0  0  0  0
    3.7027   -2.7180   -3.0964 C   0  0  0  0  0  0  0  0  0  0  0  0
    4.0318   -1.6078   -2.3070 N   0  0  0  0  0  0  0  0  0  0  0  0
    4.1592   -0.3019   -2.8909 C   0  0  0  0  0  0  0  0  0  0  0  0
    5.6520   -0.0058   -3.2123 C   0  0  0  0  0  0  0  0  0  0  0  0
    4.4578   -2.0529   -1.1303 C   0  0  0  0  0  0  0  0  0  0  0  0
    4.5987   -1.3932    0.1257 C   0  0  0  0  0  0  0  0  0  0  0  0
    4.3819   -0.1082    0.4681 N   0  0  0  0  0  0  0  0  0  0  0  0
    4.3742   -0.0928    1.8589 C   0  0  0  0  0  0  0  0  0  0  0  0
    4.0599    0.8219    2.8426 C   0  0  0  0  0  0  0  0  0  0  0  0
    3.5445    2.6987    2.8446 Se  0  0  0  0  0  2  0  0  0  0  0  0
    4.1753    1.0570   -0.2965 C   0  0  0  0  0  0  0  0  0  0  0  0
    2.7514    1.4559   -0.5387 C   0  0  0  0  0  0  0  0  0  0  0  0
    3.0254   -3.0133   -4.1899 C   0  0  0  0  0  0  0  0  0  0  0  0
    2.6458   -4.1360   -4.6133 C   0  0  0  0  0  0  0  0  0  0  0  0
    3.3368   -5.1324   -3.2692 S   0  0  0  0  0  0  0  0  0  0  0  0
    1.7178   -4.3654   -5.5626 C   0  0  0  0  0  0  0  0  0  0  0  0
    0.9531   -3.7548   -6.3127 C   0  0  0  0  0  0  0  0  0  0  0  0
    1.8170   -1.8477   -5.4071 Se  0  0  0  0  0  2  0  0  0  0  0  0
    0.0513   -3.0291   -7.1961 C   0  0  0  0  0  0  0  0  0  0  0  0
   -1.0135   -2.5767   -6.2942 C   0  0  0  0  0  0  0  0  0  0  0  0
   -0.9377   -2.9118   -4.9062 C   0  0  0  0  0  0  0  0  0  0  0  0
   -0.0956   -3.5344   -4.2355 O   0  0  0  0  0  0  0  0  0  0  0  0
   -2.1549   -2.3499   -4.3085 C   0  0  0  0  0  0  0  0  0  0  0  0
   -2.5453   -2.5212   -2.9740 C   0  0  0  0  0  0  0  0  0  0  0  0
   -3.7748   -2.0325   -2.5870 C   0  0  0  0  0  0  0  0  0  0  0  0
   -4.5128   -1.4130   -3.5119 C   0  0  0  0  0  0  0  0  0  0  0  0
   -4.0535   -1.2676   -4.8512 C   0  0  0  0  0  0  0  0  0  0  0  0
   -2.8743   -1.7451   -5.2375 C   0  0  0  0  0  0  0  0  0  0  0  0
   -2.0751   -1.8841   -6.7224 C   0  0  0  0  0  0  0  0  0  0  0  0
   -2.9430   -1.4764   -7.5194 C   0  0  0  0  0  0  0  0  0  0  0  0
   -4.0757   -0.4733   -7.2679 C   0  0  0  0  0  0  0  0  0  0  0  0
   -4.7881    0.1723   -7.1200 N   0  0  0  0  0  0  0  0  0  0  0  0
   -2.8740   -1.7035   -8.9801 C   0  0  0  0  0  0  0  0  0  0  0  0
   -2.8210   -1.9043  -10.1623 N   0  0  0  0  0  0  0  0  0  0  0  0
   -5.5963   -1.0513   -2.5721 C   0  0  0  0  0  0  0  0  0  0  0  0
   -5.5228    0.3488   -2.0143 C   0  0  0  0  0  0  0  0  0  0  0  0
   -6.4192    0.3964   -0.8212 C   0  0  0  0  0  0  0  0  0  0  0  0
   -5.9261   -0.5075    0.0266 C   0  0  0  0  0  0  0  0  0  0  0  0
   -4.5783   -0.9485   -0.4549 C   0  0  0  0  0  0  0  0  0  0  0  0
   -4.1925    0.2727   -1.2563 C   0  0  0  0  0  0  0  0  0  0  0  0
   -4.8361   -1.9146   -1.5491 C   0  0  0  0  0  0  0  0  0  0  0  0
    3.3990    4.7492    5.3152 H   0  0  0  0  0  0  0  0  0  0  0  0
   -1.9057    1.7577    6.9059 H   0  0  0  0  0  0  0  0  0  0  0  0
   -4.9795    3.2910    7.0420 H   0  0  0  0  0  0  0  0  0  0  0  0
   -4.2055    1.7412    7.3889 H   0  0  0  0  0  0  0  0  0  0  0  0
   -4.5425    2.9115    8.7465 H   0  0  0  0  0  0  0  0  0  0  0  0
   -4.9097    5.0385    8.0492 H   0  0  0  0  0  0  0  0  0  0  0  0
   -4.1800    6.4702    7.2373 H   0  0  0  0  0  0  0  0  0  0  0  0
   -3.8677    6.0977    9.0007 H   0  0  0  0  0  0  0  0  0  0  0  0
   -1.5918    6.5707    7.3373 H   0  0  0  0  0  0  0  0  0  0  0  0
    3.5426    1.0339    6.1624 H   0  0  0  0  0  0  0  0  0  0  0  0
    3.8393   -0.4606   -4.0208 H   0  0  0  0  0  0  0  0  0  0  0  0
    3.5229    0.5187   -2.7044 H   0  0  0  0  0  0  0  0  0  0  0  0
    6.0505   -0.6785   -4.0056 H   0  0  0  0  0  0  0  0  0  0  0  0
    6.2561   -0.2249   -2.3209 H   0  0  0  0  0  0  0  0  0  0  0  0
    5.7883    1.0172   -3.6065 H   0  0  0  0  0  0  0  0  0  0  0  0
    4.5386    1.9759    0.4144 H   0  0  0  0  0  0  0  0  0  0  0  0
    4.8176    1.3034   -1.0906 H   0  0  0  0  0  0  0  0  0  0  0  0
    2.2450    1.9661    0.3048 H   0  0  0  0  0  0  0  0  0  0  0  0
    2.7048    2.2677   -1.3436 H   0  0  0  0  0  0  0  0  0  0  0  0
    2.1881    0.6162   -0.9214 H   0  0  0  0  0  0  0  0  0  0  0  0
    1.4799   -5.5581   -5.7989 H   0  0  0  0  0  0  0  0  0  0  0  0
    0.0490   -2.8159   -8.1413 H   0  0  0  0  0  0  0  0  0  0  0  0
   -1.9123   -3.0152   -2.2610 H   0  0  0  0  0  0  0  0  0  0  0  0
   -4.7717   -0.8272   -5.4667 H   0  0  0  0  0  0  0  0  0  0  0  0
   -6.6005   -1.3903   -2.7922 H   0  0  0  0  0  0  0  0  0  0  0  0
   -5.6022    1.1313   -2.7326 H   0  0  0  0  0  0  0  0  0  0  0  0
   -7.2621    1.0305   -0.7236 H   0  0  0  0  0  0  0  0  0  0  0  0
   -6.4414   -0.8399    0.8950 H   0  0  0  0  0  0  0  0  0  0  0  0
   -3.8905   -1.2597    0.3157 H   0  0  0  0  0  0  0  0  0  0  0  0
   -3.3409    0.0731   -1.9436 H   0  0  0  0  0  0  0  0  0  0  0  0
   -4.0371    1.1619   -0.6357 H   0  0  0  0  0  0  0  0  0  0  0  0
   -5.3600   -2.8627   -1.3299 H   0  0  0  0  0  0  0  0  0  0  0  0
  1  2  2  3
  2  3  1  0
  3  4  2  0
  3  5  1  0
  5  6  2  0
  6  7  1  0
  7  8  1  0
  7  9  2  0
  9 10  1  0
  9 11  1  0
 11 12  2  0
 12 13  1  0
 13 14  2  3
 14 15  1  0
 15 16  3  0
 14 17  1  0
 17 18  3  0
  1 19  1  0
 19 20  2  0
 20 21  1  0
 21 22  1  0
 22 23  1  0
 23 24  1  0
 24 25  1  0
 25 26  1  0
 26 27  2  0
 27 28  1  0
 28 29  1  0
 26 30  1  0
 30 31  1  0
 31 32  2  0
 32 33  1  0
 33 34  1  0
 34 35  1  0
 33 36  1  0
 36 37  1  0
 37 38  1  0
 38 39  1  0
 39 40  1  0
 40 41  1  0
 38 42  1  0
 42 43  1  0
 32 44  1  0
 44 45  2  0
 45 46  1  0
 45 47  1  0
 47 48  2  0
 48 49  1  0
 48 50  1  0
 50 51  2  3
 51 52  1  0
 52 53  2  0
 52 54  1  0
 54 55  2  0
 55 56  1  0
 56 57  2  0
 57 58  1  0
 58 59  2  0
 59 60  1  0
 60 61  2  3
 61 62  1  0
 62 63  3  0
 61 64  1  0
 64 65  3  0
 57 66  1  0
 66 67  1  0
 67 68  1  0
 68 69  2  0
 69 70  1  0
 70 71  1  0
 70 72  1  0
 13  2  1  0
 41 19  1  0
 49 44  1  0
 60 51  1  0
 72 66  1  0
 12  5  1  0
 40 21  2  0
 59 54  1  0
 71 67  1  0
 39 23  2  0
 72 56  1  0
 37 24  2  0
 29 25  2  0
 36 30  2  0
 46 31  1  0
  1 73  1  0
  6 74  1  0
  8 75  1  0
  8 76  1  0
  8 77  1  0
 10 78  1  0
 10 79  1  0
 10 80  1  0
 11 81  1  0
 20 82  1  0
 34 83  1  0
 34 84  1  0
 35 85  1  0
 35 86  1  0
 35 87  1  0
 42 88  1  0
 42 89  1  0
 43 90  1  0
 43 91  1  0
 43 92  1  0
 47 93  1  0
 50 94  1  0
 55 95  1  0
 58 96  1  0
 66 97  1  0
 67 98  1  0
 68 99  1  0
 69100  1  0
 70101  1  0
 71102  1  0
 71103  1  0
 72104  1  0
M  END

