
     RDKit          3D

136152  0  0  0  0  0  0  0  0999 V2000
   -6.4275   -1.8858    1.2079 C   0  0  0  0  0  0  0  0  0  0  0  0
   -7.3510   -2.0061    2.1799 C   0  0  0  0  0  0  0  0  0  0  0  0
   -7.8143   -0.9144    3.0429 C   0  0  0  0  0  0  0  0  0  0  0  0
   -7.4185    0.2808    3.0142 O   0  0  0  0  0  0  0  0  0  0  0  0
   -8.9371   -1.3897    3.8202 C   0  0  0  0  0  0  0  0  0  0  0  0
   -9.6295   -0.7081    4.8173 C   0  0  0  0  0  0  0  0  0  0  0  0
  -10.6597   -1.3708    5.5076 C   0  0  0  0  0  0  0  0  0  0  0  0
  -11.3859   -0.6494    6.6119 C   0  0  0  0  0  0  0  0  0  0  0  0
  -10.9656   -2.7223    5.1840 C   0  0  0  0  0  0  0  0  0  0  0  0
  -12.0374   -3.4736    5.9301 C   0  0  0  0  0  0  0  0  0  0  0  0
  -10.2448   -3.3807    4.1633 C   0  0  0  0  0  0  0  0  0  0  0  0
   -9.2343   -2.6932    3.4698 C   0  0  0  0  0  0  0  0  0  0  0  0
   -8.2645   -3.1654    2.4338 C   0  0  0  0  0  0  0  0  0  0  0  0
   -8.1517   -4.4224    1.9310 C   0  0  0  0  0  0  0  0  0  0  0  0
   -9.1918   -5.4093    2.0587 C   0  0  0  0  0  0  0  0  0  0  0  0
  -10.0258   -6.2062    2.1392 N   0  0  0  0  0  0  0  0  0  0  0  0
   -6.9699   -4.8748    1.2414 C   0  0  0  0  0  0  0  0  0  0  0  0
   -6.0240   -5.2495    0.6900 N   0  0  0  0  0  0  0  0  0  0  0  0
   -5.4151   -0.8141    1.1627 C   0  0  0  0  0  0  0  0  0  0  0  0
   -4.5776   -0.4057    2.2252 C   0  0  0  0  0  0  0  0  0  0  0  0
   -4.5694   -0.9833    3.5860 C   0  0  0  0  0  0  0  0  0  0  0  0
   -4.9151   -0.1494    4.6618 C   0  0  0  0  0  0  0  0  0  0  0  0
   -4.9940   -0.6552    5.9583 C   0  0  0  0  0  0  0  0  0  0  0  0
   -4.6962   -1.9950    6.2047 C   0  0  0  0  0  0  0  0  0  0  0  0
   -4.3050   -2.8286    5.1546 C   0  0  0  0  0  0  0  0  0  0  0  0
   -4.2299   -2.3403    3.8367 C   0  0  0  0  0  0  0  0  0  0  0  0
   -3.6675   -3.2529    2.7715 C   0  0  0  0  0  0  0  0  0  0  0  0
   -2.1439   -3.1790    2.7418 C   0  0  0  0  0  0  0  0  0  0  0  0
   -3.6818    0.5760    1.7993 C   0  0  0  0  0  0  0  0  0  0  0  0
   -2.4365    1.4560    2.5732 S   0  0  0  0  0  0  0  0  0  0  0  0
   -2.0131    2.1896    1.1019 C   0  0  0  0  0  0  0  0  0  0  0  0
   -1.1451    3.1183    0.5947 C   0  0  0  0  0  0  0  0  0  0  0  0
   -0.2132    3.9712    1.1904 C   0  0  0  0  0  0  0  0  0  0  0  0
    0.5269    4.8635    0.3534 C   0  0  0  0  0  0  0  0  0  0  0  0
    1.4450    5.6500    0.9681 N   0  0  0  0  0  0  0  0  0  0  0  0
    1.2249    5.1748    2.5382 S   0  0  0  0  0  0  0  0  0  0  0  0
    0.0461    4.0107    2.5199 N   0  0  0  0  0  0  0  0  0  0  0  0
    0.3390    4.8092   -1.0396 C   0  0  0  0  0  0  0  0  0  0  0  0
    1.1949    5.1942   -2.0399 C   0  0  0  0  0  0  0  0  0  0  0  0
    2.8069    5.7329   -2.0236 S   0  0  0  0  0  0  0  0  0  0  0  0
    3.1516    4.9582   -3.4953 C   0  0  0  0  0  0  0  0  0  0  0  0
    4.3676    4.5958   -4.0866 C   0  0  0  0  0  0  0  0  0  0  0  0
    5.7093    5.0235   -3.6193 C   0  0  0  0  0  0  0  0  0  0  0  0
    6.6771    5.5499   -4.5146 C   0  0  0  0  0  0  0  0  0  0  0  0
    6.3317    5.9776   -5.9246 C   0  0  0  0  0  0  0  0  0  0  0  0
    5.9524    7.4518   -5.9576 C   0  0  0  0  0  0  0  0  0  0  0  0
    7.9823    5.7874   -4.0532 C   0  0  0  0  0  0  0  0  0  0  0  0
    8.3350    5.4953   -2.7329 C   0  0  0  0  0  0  0  0  0  0  0  0
    7.3818    4.9926   -1.8492 C   0  0  0  0  0  0  0  0  0  0  0  0
    6.0795    4.7570   -2.2880 C   0  0  0  0  0  0  0  0  0  0  0  0
    4.1794    3.5471   -5.0049 C   0  0  0  0  0  0  0  0  0  0  0  0
    2.5341    3.1300   -5.0831 S   0  0  0  0  0  0  0  0  0  0  0  0
    2.0496    4.2665   -3.9474 C   0  0  0  0  0  0  0  0  0  0  0  0
    0.9284    4.3954   -3.1186 C   0  0  0  0  0  0  0  0  0  0  0  0
   -0.1123    3.5448   -2.8867 N   0  0  0  0  0  0  0  0  0  0  0  0
   -0.5331    3.8770   -1.6246 C   0  0  0  0  0  0  0  0  0  0  0  0
   -1.3893    3.1345   -0.7834 C   0  0  0  0  0  0  0  0  0  0  0  0
   -2.4672    2.3597   -1.1083 N   0  0  0  0  0  0  0  0  0  0  0  0
   -2.7814    1.7690    0.0689 C   0  0  0  0  0  0  0  0  0  0  0  0
   -3.7559    0.8753    0.4652 C   0  0  0  0  0  0  0  0  0  0  0  0
   -4.9486   -0.0312   -0.2805 S   0  0  0  0  0  0  0  0  0  0  0  0
   -3.4201    2.5952   -2.2012 C   0  0  0  0  0  0  0  0  0  0  0  0
   -4.5756    3.4857   -1.7406 C   0  0  0  0  0  0  0  0  0  0  0  0
   -0.2526    2.2213   -3.5183 C   0  0  0  0  0  0  0  0  0  0  0  0
    0.6513    1.1930   -2.8377 C   0  0  0  0  0  0  0  0  0  0  0  0
    5.2446    2.6202   -5.4183 C   0  0  0  0  0  0  0  0  0  0  0  0
    5.7885    1.7290   -4.5636 C   0  0  0  0  0  0  0  0  0  0  0  0
    5.2516    1.3873   -3.2373 C   0  0  0  0  0  0  0  0  0  0  0  0
    4.3593    2.0089   -2.6018 O   0  0  0  0  0  0  0  0  0  0  0  0
    5.8725    0.1704   -2.7806 C   0  0  0  0  0  0  0  0  0  0  0  0
    5.5829   -0.5263   -1.5842 C   0  0  0  0  0  0  0  0  0  0  0  0
    6.2992   -1.6967   -1.4334 C   0  0  0  0  0  0  0  0  0  0  0  0
    7.2459   -2.1660   -2.3994 C   0  0  0  0  0  0  0  0  0  0  0  0
    7.5308   -1.4879   -3.5756 C   0  0  0  0  0  0  0  0  0  0  0  0
    6.8119   -0.2681   -3.7490 C   0  0  0  0  0  0  0  0  0  0  0  0
    6.8694    0.7374   -4.8542 C   0  0  0  0  0  0  0  0  0  0  0  0
    7.8425    0.8593   -5.7969 C   0  0  0  0  0  0  0  0  0  0  0  0
    8.8815   -0.1214   -5.9784 C   0  0  0  0  0  0  0  0  0  0  0  0
    9.7255   -0.8970   -6.1443 N   0  0  0  0  0  0  0  0  0  0  0  0
    8.0082    2.0623   -6.5704 C   0  0  0  0  0  0  0  0  0  0  0  0
    8.1507    3.0295   -7.1871 N   0  0  0  0  0  0  0  0  0  0  0  0
    7.5397   -3.3639   -1.5484 C   0  0  0  0  0  0  0  0  0  0  0  0
    8.8889   -3.3502   -0.7677 C   0  0  0  0  0  0  0  0  0  0  0  0
    8.7705   -4.4283    0.2829 C   0  0  0  0  0  0  0  0  0  0  0  0
    7.8839   -3.9857    1.1833 C   0  0  0  0  0  0  0  0  0  0  0  0
    7.4368   -2.6250    0.7096 C   0  0  0  0  0  0  0  0  0  0  0  0
    8.7540   -2.1334    0.1334 C   0  0  0  0  0  0  0  0  0  0  0  0
    6.5693   -2.8818   -0.5600 C   0  0  0  0  0  0  0  0  0  0  0  0
   -6.3834   -2.6001    0.4037 H   0  0  0  0  0  0  0  0  0  0  0  0
   -9.3581    0.3120    5.0602 H   0  0  0  0  0  0  0  0  0  0  0  0
  -12.4813   -0.6806    6.4318 H   0  0  0  0  0  0  0  0  0  0  0  0
  -11.0832    0.4186    6.6731 H   0  0  0  0  0  0  0  0  0  0  0  0
  -11.1585   -1.1290    7.5866 H   0  0  0  0  0  0  0  0  0  0  0  0
  -13.0165   -2.9745    5.7814 H   0  0  0  0  0  0  0  0  0  0  0  0
  -12.1335   -4.5218    5.5709 H   0  0  0  0  0  0  0  0  0  0  0  0
  -11.7956   -3.5014    7.0124 H   0  0  0  0  0  0  0  0  0  0  0  0
  -10.4692   -4.4111    3.9564 H   0  0  0  0  0  0  0  0  0  0  0  0
   -5.1539    0.8936    4.4896 H   0  0  0  0  0  0  0  0  0  0  0  0
   -5.2839   -0.0092    6.7743 H   0  0  0  0  0  0  0  0  0  0  0  0
   -4.7500   -2.3861    7.2122 H   0  0  0  0  0  0  0  0  0  0  0  0
   -4.0368   -3.8545    5.3743 H   0  0  0  0  0  0  0  0  0  0  0  0
   -4.0524   -3.0104    1.7652 H   0  0  0  0  0  0  0  0  0  0  0  0
   -3.9735   -4.3029    2.9747 H   0  0  0  0  0  0  0  0  0  0  0  0
   -1.8204   -2.1511    2.4686 H   0  0  0  0  0  0  0  0  0  0  0  0
   -1.7226   -3.4432    3.7331 H   0  0  0  0  0  0  0  0  0  0  0  0
   -1.7519   -3.8914    1.9874 H   0  0  0  0  0  0  0  0  0  0  0  0
    7.2051    5.8161   -6.5935 H   0  0  0  0  0  0  0  0  0  0  0  0
    5.4987    5.3839   -6.3496 H   0  0  0  0  0  0  0  0  0  0  0  0
    5.6445    7.7370   -6.9856 H   0  0  0  0  0  0  0  0  0  0  0  0
    5.1086    7.6564   -5.2613 H   0  0  0  0  0  0  0  0  0  0  0  0
    6.8262    8.0761   -5.6662 H   0  0  0  0  0  0  0  0  0  0  0  0
    8.7313    6.2033   -4.7156 H   0  0  0  0  0  0  0  0  0  0  0  0
    9.3469    5.6711   -2.3930 H   0  0  0  0  0  0  0  0  0  0  0  0
    7.6564    4.7727   -0.8274 H   0  0  0  0  0  0  0  0  0  0  0  0
    5.3685    4.3312   -1.5939 H   0  0  0  0  0  0  0  0  0  0  0  0
   -3.8167    1.6244   -2.5648 H   0  0  0  0  0  0  0  0  0  0  0  0
   -2.9334    3.1230   -3.0476 H   0  0  0  0  0  0  0  0  0  0  0  0
   -4.2003    4.5098   -1.5400 H   0  0  0  0  0  0  0  0  0  0  0  0
   -5.3463    3.5345   -2.5358 H   0  0  0  0  0  0  0  0  0  0  0  0
   -5.0451    3.0851   -0.8204 H   0  0  0  0  0  0  0  0  0  0  0  0
   -0.0187    2.2847   -4.5993 H   0  0  0  0  0  0  0  0  0  0  0  0
   -1.2793    1.8402   -3.4583 H   0  0  0  0  0  0  0  0  0  0  0  0
    0.5804    0.2220   -3.3736 H   0  0  0  0  0  0  0  0  0  0  0  0
    0.3402    1.0427   -1.7836 H   0  0  0  0  0  0  0  0  0  0  0  0
    1.7098    1.5248   -2.8457 H   0  0  0  0  0  0  0  0  0  0  0  0
    5.5510    2.6594   -6.4524 H   0  0  0  0  0  0  0  0  0  0  0  0
    4.8629   -0.1820   -0.8530 H   0  0  0  0  0  0  0  0  0  0  0  0
    8.2277   -1.8972   -4.2829 H   0  0  0  0  0  0  0  0  0  0  0  0
    7.2693   -4.3332   -2.0261 H   0  0  0  0  0  0  0  0  0  0  0  0
    9.8065   -3.3913   -1.3902 H   0  0  0  0  0  0  0  0  0  0  0  0
    9.3560   -5.3393    0.3593 H   0  0  0  0  0  0  0  0  0  0  0  0
    7.6229   -4.4765    2.1139 H   0  0  0  0  0  0  0  0  0  0  0  0
    6.9753   -1.9796    1.4862 H   0  0  0  0  0  0  0  0  0  0  0  0
    8.6822   -1.1644   -0.4111 H   0  0  0  0  0  0  0  0  0  0  0  0
    9.5667   -2.0502    0.8936 H   0  0  0  0  0  0  0  0  0  0  0  0
    5.6869   -3.5442   -0.4152 H   0  0  0  0  0  0  0  0  0  0  0  0
  1  2  2  3
  2  3  1  0
  3  4  2  0
  3  5  1  0
  5  6  2  0
  6  7  1  0
  7  8  1  0
  7  9  2  0
  9 10  1  0
  9 11  1  0
 11 12  2  0
 12 13  1  0
 13 14  2  3
 14 15  1  0
 15 16  3  0
 14 17  1  0
 17 18  3  0
  1 19  1  0
 19 20  2  0
 20 21  1  0
 21 22  2  0
 22 23  1  0
 23 24  2  0
 24 25  1  0
 25 26  2  0
 26 27  1  0
 27 28  1  0
 20 29  1  0
 29 30  1  0
 30 31  1  0
 31 32  1  0
 32 33  1  0
 33 34  1  0
 34 35  2  0
 35 36  1  0
 36 37  1  0
 34 38  1  0
 38 39  1  0
 39 40  1  0
 40 41  1  0
 41 42  1  0
 42 43  1  0
 43 44  2  0
 44 45  1  0
 45 46  1  0
 44 47  1  0
 47 48  2  0
 48 49  1  0
 49 50  2  0
 42 51  2  0
 51 52  1  0
 52 53  1  0
 53 54  1  0
 54 55  1  0
 55 56  1  0
 56 57  1  0
 57 58  1  0
 58 59  1  0
 59 60  1  0
 60 61  1  0
 58 62  1  0
 62 63  1  0
 55 64  1  0
 64 65  1  0
 51 66  1  0
 66 67  2  3
 67 68  1  0
 68 69  2  0
 68 70  1  0
 70 71  2  0
 71 72  1  0
 72 73  2  0
 73 74  1  0
 74 75  2  0
 75 76  1  0
 76 77  2  3
 77 78  1  0
 78 79  3  0
 77 80  1  0
 80 81  3  0
 73 82  1  0
 82 83  1  0
 83 84  1  0
 84 85  2  0
 85 86  1  0
 86 87  1  0
 86 88  1  0
 13  2  1  0
 61 19  1  0
 76 67  1  0
 88 82  1  0
 12  5  1  0
 26 21  1  0
 60 29  2  0
 75 70  1  0
 87 83  1  0
 59 31  2  0
 88 72  1  0
 57 32  2  0
 37 33  2  0
 56 38  2  0
 54 39  2  0
 53 41  2  0
 50 43  1  0
  1 89  1  0
  6 90  1  0
  8 91  1  0
  8 92  1  0
  8 93  1  0
 10 94  1  0
 10 95  1  0
 10 96  1  0
 11 97  1  0
 22 98  1  0
 23 99  1  0
 24100  1  0
 25101  1  0
 27102  1  0
 27103  1  0
 28104  1  0
 28105  1  0
 28106  1  0
 45107  1  0
 45108  1  0
 46109  1  0
 46110  1  0
 46111  1  0
 47112  1  0
 48113  1  0
 49114  1  0
 50115  1  0
 62116  1  0
 62117  1  0
 63118  1  0
 63119  1  0
 63120  1  0
 64121  1  0
 64122  1  0
 65123  1  0
 65124  1  0
 65125  1  0
 66126  1  0
 71127  1  0
 74128  1  0
 82129  1  0
 83130  1  0
 84131  1  0
 85132  1  0
 86133  1  0
 87134  1  0
 87135  1  0
 88136  1  0
M  END

