
     RDKit          3D

110121  0  0  0  0  0  0  0  0999 V2000
   -2.4286   -5.1419    6.8756 C   0  0  0  0  0  0  0  0  0  0  0  0
   -2.7043   -6.4182    6.5404 C   0  0  0  0  0  0  0  0  0  0  0  0
   -3.2045   -6.8710    5.2367 C   0  0  0  0  0  0  0  0  0  0  0  0
   -3.8605   -6.1807    4.4086 O   0  0  0  0  0  0  0  0  0  0  0  0
   -2.8772   -8.2683    5.0818 C   0  0  0  0  0  0  0  0  0  0  0  0
   -2.9987   -9.0540    3.9399 C   0  0  0  0  0  0  0  0  0  0  0  0
   -2.4742  -10.3607    3.9525 C   0  0  0  0  0  0  0  0  0  0  0  0
   -2.5755  -11.1977    2.7050 C   0  0  0  0  0  0  0  0  0  0  0  0
   -1.7911  -10.8311    5.1086 C   0  0  0  0  0  0  0  0  0  0  0  0
   -1.1566  -12.1986    5.1361 C   0  0  0  0  0  0  0  0  0  0  0  0
   -1.7110  -10.0144    6.2562 C   0  0  0  0  0  0  0  0  0  0  0  0
   -2.2822   -8.7314    6.2371 C   0  0  0  0  0  0  0  0  0  0  0  0
   -2.2731   -7.6511    7.2655 C   0  0  0  0  0  0  0  0  0  0  0  0
   -2.0747   -7.7991    8.6016 C   0  0  0  0  0  0  0  0  0  0  0  0
   -2.2936   -6.7284    9.5402 C   0  0  0  0  0  0  0  0  0  0  0  0
   -2.4691   -5.8783   10.3067 N   0  0  0  0  0  0  0  0  0  0  0  0
   -1.7533   -9.0710    9.1979 C   0  0  0  0  0  0  0  0  0  0  0  0
   -1.4912  -10.0867    9.6909 N   0  0  0  0  0  0  0  0  0  0  0  0
   -2.4358   -4.0274    5.9121 C   0  0  0  0  0  0  0  0  0  0  0  0
   -2.7963   -2.4061    6.3265 S   0  0  0  0  0  0  0  0  0  0  0  0
   -2.3223   -1.8357    4.8228 C   0  0  0  0  0  0  0  0  0  0  0  0
   -1.9883   -0.6632    4.2122 C   0  0  0  0  0  0  0  0  0  0  0  0
   -1.9079    0.9890    4.5943 S   0  0  0  0  0  0  0  0  0  0  0  0
   -0.9923    1.2425    3.1780 C   0  0  0  0  0  0  0  0  0  0  0  0
   -0.5418    2.3015    2.4408 C   0  0  0  0  0  0  0  0  0  0  0  0
   -0.7270    3.6846    2.5757 C   0  0  0  0  0  0  0  0  0  0  0  0
   -0.3154    4.5404    1.5056 C   0  0  0  0  0  0  0  0  0  0  0  0
   -0.5249    5.8687    1.6633 N   0  0  0  0  0  0  0  0  0  0  0  0
   -1.2375    5.8600    3.1600 S   0  0  0  0  0  0  0  0  0  0  0  0
   -1.3074    4.2775    3.6482 N   0  0  0  0  0  0  0  0  0  0  0  0
    0.2880    3.9626    0.3809 C   0  0  0  0  0  0  0  0  0  0  0  0
    0.8985    4.4948   -0.7159 C   0  0  0  0  0  0  0  0  0  0  0  0
    1.2694    6.0001   -1.3303 S   0  0  0  0  0  0  0  0  0  0  0  0
    2.2411    5.3428   -2.5681 C   0  0  0  0  0  0  0  0  0  0  0  0
    2.3259    3.9351   -2.4547 C   0  0  0  0  0  0  0  0  0  0  0  0
    3.1347    3.0493   -3.3778 C   0  0  0  0  0  0  0  0  0  0  0  0
    2.2481    2.0771   -4.1592 C   0  0  0  0  0  0  0  0  0  0  0  0
    1.5398    3.5002   -1.3705 C   0  0  0  0  0  0  0  0  0  0  0  0
    1.4130    2.3065   -0.7210 N   0  0  0  0  0  0  0  0  0  0  0  0
    0.5398    2.5928    0.2936 C   0  0  0  0  0  0  0  0  0  0  0  0
    0.0272    1.7365    1.2942 C   0  0  0  0  0  0  0  0  0  0  0  0
   -0.1839    0.3834    1.2420 N   0  0  0  0  0  0  0  0  0  0  0  0
   -0.7456    0.1087    2.4539 C   0  0  0  0  0  0  0  0  0  0  0  0
   -1.3273   -1.0120    3.0574 C   0  0  0  0  0  0  0  0  0  0  0  0
   -1.1887   -2.3652    2.9380 N   0  0  0  0  0  0  0  0  0  0  0  0
   -1.8316   -2.8288    4.0424 C   0  0  0  0  0  0  0  0  0  0  0  0
   -1.8539   -4.0864    4.6324 C   0  0  0  0  0  0  0  0  0  0  0  0
   -0.3118   -3.1504    2.0655 C   0  0  0  0  0  0  0  0  0  0  0  0
    1.1559   -2.8220    2.3258 C   0  0  0  0  0  0  0  0  0  0  0  0
   -0.3433   -0.3966    0.0007 C   0  0  0  0  0  0  0  0  0  0  0  0
   -1.8117   -0.7119   -0.2920 C   0  0  0  0  0  0  0  0  0  0  0  0
    2.4772    1.2912   -0.6169 C   0  0  0  0  0  0  0  0  0  0  0  0
    3.6955    1.8588    0.1102 C   0  0  0  0  0  0  0  0  0  0  0  0
    3.0013    6.1821   -3.5060 C   0  0  0  0  0  0  0  0  0  0  0  0
    2.7360    6.2470   -4.8235 C   0  0  0  0  0  0  0  0  0  0  0  0
    1.5373    5.7150   -5.4805 C   0  0  0  0  0  0  0  0  0  0  0  0
    0.6528    4.9934   -4.9495 O   0  0  0  0  0  0  0  0  0  0  0  0
    1.4580    6.2824   -6.8107 C   0  0  0  0  0  0  0  0  0  0  0  0
    0.4316    6.1350   -7.7435 C   0  0  0  0  0  0  0  0  0  0  0  0
    0.4894    6.8736   -8.9412 C   0  0  0  0  0  0  0  0  0  0  0  0
   -0.6289    6.7391   -9.9442 C   0  0  0  0  0  0  0  0  0  0  0  0
    1.5704    7.7721   -9.1604 C   0  0  0  0  0  0  0  0  0  0  0  0
    1.6291    8.6303  -10.3965 C   0  0  0  0  0  0  0  0  0  0  0  0
    2.5820    7.9050   -8.1852 C   0  0  0  0  0  0  0  0  0  0  0  0
    2.5330    7.1230   -7.0237 C   0  0  0  0  0  0  0  0  0  0  0  0
    3.4446    7.0751   -5.8449 C   0  0  0  0  0  0  0  0  0  0  0  0
    4.7453    7.4716   -5.8099 C   0  0  0  0  0  0  0  0  0  0  0  0
    5.6202    7.1645   -4.7057 C   0  0  0  0  0  0  0  0  0  0  0  0
    6.3296    6.9253   -3.8232 N   0  0  0  0  0  0  0  0  0  0  0  0
    5.3899    8.1184   -6.9241 C   0  0  0  0  0  0  0  0  0  0  0  0
    5.9223    8.6332   -7.8123 N   0  0  0  0  0  0  0  0  0  0  0  0
   -2.0384   -4.8990    7.8473 H   0  0  0  0  0  0  0  0  0  0  0  0
   -3.4571   -8.6455    3.0476 H   0  0  0  0  0  0  0  0  0  0  0  0
   -2.8714  -12.2375    2.9581 H   0  0  0  0  0  0  0  0  0  0  0  0
   -3.3393  -10.7951    2.0049 H   0  0  0  0  0  0  0  0  0  0  0  0
   -1.5961  -11.2122    2.1823 H   0  0  0  0  0  0  0  0  0  0  0  0
   -0.5117  -12.3415    4.2425 H   0  0  0  0  0  0  0  0  0  0  0  0
   -1.9507  -12.9743    5.1481 H   0  0  0  0  0  0  0  0  0  0  0  0
   -0.5198  -12.3378    6.0349 H   0  0  0  0  0  0  0  0  0  0  0  0
   -1.1541  -10.3618    7.1097 H   0  0  0  0  0  0  0  0  0  0  0  0
    3.6893    3.6574   -4.1173 H   0  0  0  0  0  0  0  0  0  0  0  0
    3.8979    2.4901   -2.8050 H   0  0  0  0  0  0  0  0  0  0  0  0
    1.6042    1.4805   -3.4859 H   0  0  0  0  0  0  0  0  0  0  0  0
    1.5974    2.6200   -4.8711 H   0  0  0  0  0  0  0  0  0  0  0  0
    2.8885    1.3774   -4.7386 H   0  0  0  0  0  0  0  0  0  0  0  0
   -1.4047   -4.9727    4.2091 H   0  0  0  0  0  0  0  0  0  0  0  0
   -0.5906   -2.9978    1.0062 H   0  0  0  0  0  0  0  0  0  0  0  0
   -0.4577   -4.2355    2.2474 H   0  0  0  0  0  0  0  0  0  0  0  0
    1.7949   -3.4268    1.6508 H   0  0  0  0  0  0  0  0  0  0  0  0
    1.4137   -3.0562    3.3775 H   0  0  0  0  0  0  0  0  0  0  0  0
    1.3651   -1.7495    2.1404 H   0  0  0  0  0  0  0  0  0  0  0  0
    0.0240    0.1725   -0.8729 H   0  0  0  0  0  0  0  0  0  0  0  0
    0.2777   -1.3070    0.0361 H   0  0  0  0  0  0  0  0  0  0  0  0
   -2.2769   -1.2837    0.5309 H   0  0  0  0  0  0  0  0  0  0  0  0
   -2.3762    0.2299   -0.4461 H   0  0  0  0  0  0  0  0  0  0  0  0
   -1.8796   -1.3264   -1.2173 H   0  0  0  0  0  0  0  0  0  0  0  0
    2.1404    0.4163   -0.0332 H   0  0  0  0  0  0  0  0  0  0  0  0
    2.7702    0.9153   -1.6116 H   0  0  0  0  0  0  0  0  0  0  0  0
    4.4844    1.0792    0.1905 H   0  0  0  0  0  0  0  0  0  0  0  0
    4.1080    2.7303   -0.4331 H   0  0  0  0  0  0  0  0  0  0  0  0
    3.4044    2.1781    1.1353 H   0  0  0  0  0  0  0  0  0  0  0  0
    3.7381    6.8316   -3.0679 H   0  0  0  0  0  0  0  0  0  0  0  0
   -0.3991    5.4705   -7.5339 H   0  0  0  0  0  0  0  0  0  0  0  0
   -0.2207    6.4414  -10.9308 H   0  0  0  0  0  0  0  0  0  0  0  0
   -1.1576    7.7083  -10.0463 H   0  0  0  0  0  0  0  0  0  0  0  0
   -1.3654    5.9687   -9.6368 H   0  0  0  0  0  0  0  0  0  0  0  0
    0.7828    9.3498  -10.3896 H   0  0  0  0  0  0  0  0  0  0  0  0
    1.5709    7.9952  -11.3064 H   0  0  0  0  0  0  0  0  0  0  0  0
    2.5744    9.2092  -10.4498 H   0  0  0  0  0  0  0  0  0  0  0  0
    3.3481    8.6463   -8.3230 H   0  0  0  0  0  0  0  0  0  0  0  0
  1  2  2  3
  2  3  1  0
  3  4  2  0
  3  5  1  0
  5  6  2  0
  6  7  1  0
  7  8  1  0
  7  9  2  0
  9 10  1  0
  9 11  1  0
 11 12  2  0
 12 13  1  0
 13 14  2  3
 14 15  1  0
 15 16  3  0
 14 17  1  0
 17 18  3  0
  1 19  1  0
 19 20  1  0
 20 21  1  0
 21 22  1  0
 22 23  1  0
 23 24  1  0
 24 25  1  0
 25 26  1  0
 26 27  1  0
 27 28  2  0
 28 29  1  0
 29 30  1  0
 27 31  1  0
 31 32  1  0
 32 33  1  0
 33 34  1  0
 34 35  2  0
 35 36  1  0
 36 37  1  0
 35 38  1  0
 38 39  1  0
 39 40  1  0
 40 41  1  0
 41 42  1  0
 42 43  1  0
 43 44  1  0
 44 45  1  0
 45 46  1  0
 46 47  1  0
 45 48  1  0
 48 49  1  0
 42 50  1  0
 50 51  1  0
 39 52  1  0
 52 53  1  0
 34 54  1  0
 54 55  2  3
 55 56  1  0
 56 57  2  0
 56 58  1  0
 58 59  2  0
 59 60  1  0
 60 61  1  0
 60 62  2  0
 62 63  1  0
 62 64  1  0
 64 65  2  0
 65 66  1  0
 66 67  2  3
 67 68  1  0
 68 69  3  0
 67 70  1  0
 70 71  3  0
 13  2  1  0
 47 19  2  0
 66 55  1  0
 12  5  1  0
 46 21  2  0
 65 58  1  0
 44 22  2  0
 43 24  2  0
 41 25  2  0
 30 26  2  0
 40 31  2  0
 38 32  2  0
  1 72  1  0
  6 73  1  0
  8 74  1  0
  8 75  1  0
  8 76  1  0
 10 77  1  0
 10 78  1  0
 10 79  1  0
 11 80  1  0
 36 81  1  0
 36 82  1  0
 37 83  1  0
 37 84  1  0
 37 85  1  0
 47 86  1  0
 48 87  1  0
 48 88  1  0
 49 89  1  0
 49 90  1  0
 49 91  1  0
 50 92  1  0
 50 93  1  0
 51 94  1  0
 51 95  1  0
 51 96  1  0
 52 97  1  0
 52 98  1  0
 53 99  1  0
 53100  1  0
 53101  1  0
 54102  1  0
 59103  1  0
 61104  1  0
 61105  1  0
 61106  1  0
 63107  1  0
 63108  1  0
 63109  1  0
 64110  1  0
M  END

