
     RDKit          3D

107119  0  0  0  0  0  0  0  0999 V2000
    4.7209    3.7557   -6.0400 C   0  0  0  0  0  0  0  0  0  0  0  0
    5.7119    2.8665   -6.2804 C   0  0  0  0  0  0  0  0  0  0  0  0
    6.0292    1.7098   -5.4301 C   0  0  0  0  0  0  0  0  0  0  0  0
    5.6667    1.5351   -4.2360 O   0  0  0  0  0  0  0  0  0  0  0  0
    6.8836    0.8146   -6.1756 C   0  0  0  0  0  0  0  0  0  0  0  0
    7.3499   -0.4393   -5.7881 C   0  0  0  0  0  0  0  0  0  0  0  0
    8.1226   -1.1925   -6.6890 C   0  0  0  0  0  0  0  0  0  0  0  0
    8.6319   -2.5522   -6.2735 C   0  0  0  0  0  0  0  0  0  0  0  0
    8.4017   -0.6624   -7.9797 C   0  0  0  0  0  0  0  0  0  0  0  0
    9.2491   -1.4276   -8.9654 C   0  0  0  0  0  0  0  0  0  0  0  0
    7.9256    0.6209   -8.3347 C   0  0  0  0  0  0  0  0  0  0  0  0
    7.1698    1.3624   -7.4132 C   0  0  0  0  0  0  0  0  0  0  0  0
    6.5534    2.7235   -7.5161 C   0  0  0  0  0  0  0  0  0  0  0  0
    6.8122    3.6788   -8.4499 C   0  0  0  0  0  0  0  0  0  0  0  0
    6.3559    5.0377   -8.3133 C   0  0  0  0  0  0  0  0  0  0  0  0
    5.9986    6.1366   -8.2224 N   0  0  0  0  0  0  0  0  0  0  0  0
    7.6543    3.4452   -9.5886 C   0  0  0  0  0  0  0  0  0  0  0  0
    8.3301    3.2703  -10.5127 N   0  0  0  0  0  0  0  0  0  0  0  0
    3.8044    3.6224   -4.8983 C   0  0  0  0  0  0  0  0  0  0  0  0
    3.7508    4.7023   -3.5667 S   0  0  0  0  0  0  0  0  0  0  0  0
    2.7123    3.6826   -2.7261 C   0  0  0  0  0  0  0  0  0  0  0  0
    2.0641    3.5824   -1.5320 C   0  0  0  0  0  0  0  0  0  0  0  0
    1.7723    4.5330   -0.1496 S   0  0  0  0  0  0  0  0  0  0  0  0
    0.8443    3.2521    0.4811 C   0  0  0  0  0  0  0  0  0  0  0  0
    0.1173    2.9987    1.6066 C   0  0  0  0  0  0  0  0  0  0  0  0
   -0.3922    3.8836    2.5638 C   0  0  0  0  0  0  0  0  0  0  0  0
   -1.3506    3.3954    3.4962 C   0  0  0  0  0  0  0  0  0  0  0  0
   -1.8372    4.2791    4.4034 N   0  0  0  0  0  0  0  0  0  0  0  0
   -1.0191    5.6377    3.9223 S   0  0  0  0  0  0  0  0  0  0  0  0
   -0.0672    5.1988    2.6384 N   0  0  0  0  0  0  0  0  0  0  0  0
   -1.6922    2.0391    3.4547 C   0  0  0  0  0  0  0  0  0  0  0  0
   -2.4002    1.2869    4.3319 C   0  0  0  0  0  0  0  0  0  0  0  0
   -3.2513    1.5159    5.7519 S   0  0  0  0  0  0  0  0  0  0  0  0
   -3.3732   -0.1580    6.0296 C   0  0  0  0  0  0  0  0  0  0  0  0
   -2.6901   -0.8921    5.0398 C   0  0  0  0  0  0  0  0  0  0  0  0
   -2.6362   -2.4028    5.0448 C   0  0  0  0  0  0  0  0  0  0  0  0
   -3.6844   -3.0077    4.1176 C   0  0  0  0  0  0  0  0  0  0  0  0
   -2.1658   -0.0172    4.0601 C   0  0  0  0  0  0  0  0  0  0  0  0
   -1.3280   -0.1719    2.9902 N   0  0  0  0  0  0  0  0  0  0  0  0
   -1.1076    1.1231    2.5630 C   0  0  0  0  0  0  0  0  0  0  0  0
   -0.2741    1.6503    1.5246 C   0  0  0  0  0  0  0  0  0  0  0  0
    0.1161    1.1260    0.3108 N   0  0  0  0  0  0  0  0  0  0  0  0
    0.7737    2.1468   -0.3150 C   0  0  0  0  0  0  0  0  0  0  0  0
    1.4188    2.3631   -1.5466 C   0  0  0  0  0  0  0  0  0  0  0  0
    1.5726    1.7233   -2.7532 N   0  0  0  0  0  0  0  0  0  0  0  0
    2.3992    2.5677   -3.4263 C   0  0  0  0  0  0  0  0  0  0  0  0
    2.9804    2.5035   -4.6843 C   0  0  0  0  0  0  0  0  0  0  0  0
    0.6863    0.7673   -3.4285 C   0  0  0  0  0  0  0  0  0  0  0  0
   -0.6810    1.3960   -3.6898 C   0  0  0  0  0  0  0  0  0  0  0  0
   -0.2323   -0.1581   -0.2775 C   0  0  0  0  0  0  0  0  0  0  0  0
    1.0171   -1.0337   -0.4795 C   0  0  0  0  0  0  0  0  0  0  0  0
   -0.3762   -1.2896    2.8510 C   0  0  0  0  0  0  0  0  0  0  0  0
   -0.9752   -2.4900    2.0958 C   0  0  0  0  0  0  0  0  0  0  0  0
   -4.1609   -0.7444    7.1225 C   0  0  0  0  0  0  0  0  0  0  0  0
   -5.4375   -1.1323    6.9505 C   0  0  0  0  0  0  0  0  0  0  0  0
   -6.2201   -0.9679    5.7013 C   0  0  0  0  0  0  0  0  0  0  0  0
   -5.8690   -0.3331    4.6621 O   0  0  0  0  0  0  0  0  0  0  0  0
   -7.4678   -1.6830    5.8723 C   0  0  0  0  0  0  0  0  0  0  0  0
   -7.5165   -2.2236    7.1177 C   0  0  0  0  0  0  0  0  0  0  0  0
   -8.9239   -3.1464    7.3069 S   0  0  0  0  0  0  0  0  0  0  0  0
   -9.4687   -2.8134    5.7314 C   0  0  0  0  0  0  0  0  0  0  0  0
  -10.6266   -3.2725    5.1080 C   0  0  0  0  0  0  0  0  0  0  0  0
  -10.8673   -2.8825    3.7782 C   0  0  0  0  0  0  0  0  0  0  0  0
   -9.9578   -2.0420    3.1013 C   0  0  0  0  0  0  0  0  0  0  0  0
   -8.7874   -1.6019    3.7391 C   0  0  0  0  0  0  0  0  0  0  0  0
   -8.5556   -1.9984    5.0595 C   0  0  0  0  0  0  0  0  0  0  0  0
   -6.3122   -1.9069    7.9074 C   0  0  0  0  0  0  0  0  0  0  0  0
   -6.1247   -2.2230    9.2117 C   0  0  0  0  0  0  0  0  0  0  0  0
   -7.1261   -2.9396    9.9590 C   0  0  0  0  0  0  0  0  0  0  0  0
   -7.9288   -3.5027   10.5694 N   0  0  0  0  0  0  0  0  0  0  0  0
   -4.9616   -1.8205    9.9535 C   0  0  0  0  0  0  0  0  0  0  0  0
   -4.0226   -1.5061   10.5505 N   0  0  0  0  0  0  0  0  0  0  0  0
    4.4908    4.5548   -6.7242 H   0  0  0  0  0  0  0  0  0  0  0  0
    7.0945   -0.8333   -4.8178 H   0  0  0  0  0  0  0  0  0  0  0  0
    8.3737   -2.7776   -5.2199 H   0  0  0  0  0  0  0  0  0  0  0  0
    8.1780   -3.3340   -6.9111 H   0  0  0  0  0  0  0  0  0  0  0  0
    9.7374   -2.5896   -6.3794 H   0  0  0  0  0  0  0  0  0  0  0  0
    8.8652   -2.4613   -9.0791 H   0  0  0  0  0  0  0  0  0  0  0  0
   10.2975   -1.4647   -8.6063 H   0  0  0  0  0  0  0  0  0  0  0  0
    9.2416   -0.9505   -9.9714 H   0  0  0  0  0  0  0  0  0  0  0  0
    8.1156    0.9910   -9.3278 H   0  0  0  0  0  0  0  0  0  0  0  0
   -1.6284   -2.7735    4.8001 H   0  0  0  0  0  0  0  0  0  0  0  0
   -2.8236   -2.7873    6.0688 H   0  0  0  0  0  0  0  0  0  0  0  0
   -3.7534   -2.4488    3.1597 H   0  0  0  0  0  0  0  0  0  0  0  0
   -4.6822   -2.9894    4.6043 H   0  0  0  0  0  0  0  0  0  0  0  0
   -3.4300   -4.0681    3.9023 H   0  0  0  0  0  0  0  0  0  0  0  0
    2.8810    1.6776   -5.3711 H   0  0  0  0  0  0  0  0  0  0  0  0
    0.6050   -0.1690   -2.8721 H   0  0  0  0  0  0  0  0  0  0  0  0
    1.1192    0.4710   -4.4047 H   0  0  0  0  0  0  0  0  0  0  0  0
   -0.5743    2.2408   -4.4020 H   0  0  0  0  0  0  0  0  0  0  0  0
   -1.1289    1.7798   -2.7482 H   0  0  0  0  0  0  0  0  0  0  0  0
   -1.3461    0.6345   -4.1398 H   0  0  0  0  0  0  0  0  0  0  0  0
   -0.7635    0.0178   -1.2226 H   0  0  0  0  0  0  0  0  0  0  0  0
   -0.9934   -0.6586    0.3299 H   0  0  0  0  0  0  0  0  0  0  0  0
    1.8150   -0.4667   -0.9991 H   0  0  0  0  0  0  0  0  0  0  0  0
    0.7498   -1.9318   -1.0772 H   0  0  0  0  0  0  0  0  0  0  0  0
    1.4533   -1.3729    0.4748 H   0  0  0  0  0  0  0  0  0  0  0  0
    0.5328   -0.9263    2.3458 H   0  0  0  0  0  0  0  0  0  0  0  0
   -0.0035   -1.5968    3.8512 H   0  0  0  0  0  0  0  0  0  0  0  0
   -1.9427   -2.2291    1.6283 H   0  0  0  0  0  0  0  0  0  0  0  0
   -0.2774   -2.8240    1.3053 H   0  0  0  0  0  0  0  0  0  0  0  0
   -1.1214   -3.3618    2.7566 H   0  0  0  0  0  0  0  0  0  0  0  0
   -3.6267   -0.9548    8.0265 H   0  0  0  0  0  0  0  0  0  0  0  0
  -11.3259   -3.9076    5.6377 H   0  0  0  0  0  0  0  0  0  0  0  0
  -11.7625   -3.2203    3.2762 H   0  0  0  0  0  0  0  0  0  0  0  0
  -10.1615   -1.7321    2.0851 H   0  0  0  0  0  0  0  0  0  0  0  0
   -8.0888   -0.9626    3.2132 H   0  0  0  0  0  0  0  0  0  0  0  0
  1  2  2  3
  2  3  1  0
  3  4  2  0
  3  5  1  0
  5  6  2  0
  6  7  1  0
  7  8  1  0
  7  9  2  0
  9 10  1  0
  9 11  1  0
 11 12  2  0
 12 13  1  0
 13 14  2  3
 14 15  1  0
 15 16  3  0
 14 17  1  0
 17 18  3  0
  1 19  1  0
 19 20  1  0
 20 21  1  0
 21 22  1  0
 22 23  1  0
 23 24  1  0
 24 25  1  0
 25 26  1  0
 26 27  1  0
 27 28  2  0
 28 29  1  0
 29 30  1  0
 27 31  1  0
 31 32  1  0
 32 33  1  0
 33 34  1  0
 34 35  2  0
 35 36  1  0
 36 37  1  0
 35 38  1  0
 38 39  1  0
 39 40  1  0
 40 41  1  0
 41 42  1  0
 42 43  1  0
 43 44  1  0
 44 45  1  0
 45 46  1  0
 46 47  1  0
 45 48  1  0
 48 49  1  0
 42 50  1  0
 50 51  1  0
 39 52  1  0
 52 53  1  0
 34 54  1  0
 54 55  2  3
 55 56  1  0
 56 57  2  0
 56 58  1  0
 58 59  2  0
 59 60  1  0
 60 61  1  0
 61 62  2  0
 62 63  1  0
 63 64  2  0
 64 65  1  0
 65 66  2  0
 59 67  1  0
 67 68  2  3
 68 69  1  0
 69 70  3  0
 68 71  1  0
 71 72  3  0
 13  2  1  0
 47 19  2  0
 67 55  1  0
 12  5  1  0
 46 21  2  0
 66 58  1  0
 44 22  2  0
 66 61  1  0
 43 24  2  0
 41 25  2  0
 30 26  2  0
 40 31  2  0
 38 32  2  0
  1 73  1  0
  6 74  1  0
  8 75  1  0
  8 76  1  0
  8 77  1  0
 10 78  1  0
 10 79  1  0
 10 80  1  0
 11 81  1  0
 36 82  1  0
 36 83  1  0
 37 84  1  0
 37 85  1  0
 37 86  1  0
 47 87  1  0
 48 88  1  0
 48 89  1  0
 49 90  1  0
 49 91  1  0
 49 92  1  0
 50 93  1  0
 50 94  1  0
 51 95  1  0
 51 96  1  0
 51 97  1  0
 52 98  1  0
 52 99  1  0
 53100  1  0
 53101  1  0
 53102  1  0
 54103  1  0
 62104  1  0
 63105  1  0
 64106  1  0
 65107  1  0
M  END

