
     RDKit          3D

104115  0  0  0  0  0  0  0  0999 V2000
   -0.6861    5.8073   -5.8084 C   0  0  0  0  0  0  0  0  0  0  0  0
    0.6618    5.8498   -5.7713 C   0  0  0  0  0  0  0  0  0  0  0  0
    1.5323    4.8821   -5.0920 C   0  0  0  0  0  0  0  0  0  0  0  0
    1.1764    4.0132   -4.2551 O   0  0  0  0  0  0  0  0  0  0  0  0
    2.8929    5.0926   -5.5409 C   0  0  0  0  0  0  0  0  0  0  0  0
    4.0197    4.3293   -5.2486 C   0  0  0  0  0  0  0  0  0  0  0  0
    5.2490    4.6666   -5.8487 C   0  0  0  0  0  0  0  0  0  0  0  0
    6.4678    3.8392   -5.5363 C   0  0  0  0  0  0  0  0  0  0  0  0
    5.3044    5.7405   -6.7807 C   0  0  0  0  0  0  0  0  0  0  0  0
    6.5959    6.1133   -7.4660 C   0  0  0  0  0  0  0  0  0  0  0  0
    4.1359    6.4804   -7.0634 C   0  0  0  0  0  0  0  0  0  0  0  0
    2.9334    6.1593   -6.4150 C   0  0  0  0  0  0  0  0  0  0  0  0
    1.5739    6.7679   -6.5283 C   0  0  0  0  0  0  0  0  0  0  0  0
    1.2828    8.0151   -6.9870 C   0  0  0  0  0  0  0  0  0  0  0  0
    2.2800    8.8914   -7.5436 C   0  0  0  0  0  0  0  0  0  0  0  0
    3.0652    9.6118   -7.9951 N   0  0  0  0  0  0  0  0  0  0  0  0
   -0.0148    8.6209   -6.8149 C   0  0  0  0  0  0  0  0  0  0  0  0
   -1.0510    9.1174   -6.6740 N   0  0  0  0  0  0  0  0  0  0  0  0
   -1.4797    4.8828   -4.9917 C   0  0  0  0  0  0  0  0  0  0  0  0
   -2.2166    5.3378   -3.5137 S   0  0  0  0  0  0  0  0  0  0  0  0
   -2.6966    3.7646   -3.2040 C   0  0  0  0  0  0  0  0  0  0  0  0
   -3.1279    3.0062   -2.1615 C   0  0  0  0  0  0  0  0  0  0  0  0
   -3.3522    3.2824   -0.5063 S   0  0  0  0  0  0  0  0  0  0  0  0
   -3.1304    1.6210   -0.2434 C   0  0  0  0  0  0  0  0  0  0  0  0
   -2.9365    0.8386    0.8486 C   0  0  0  0  0  0  0  0  0  0  0  0
   -3.2612    1.0641    2.1864 C   0  0  0  0  0  0  0  0  0  0  0  0
   -3.0482    0.0188    3.1192 C   0  0  0  0  0  0  0  0  0  0  0  0
   -3.3841    0.2700    4.4087 N   0  0  0  0  0  0  0  0  0  0  0  0
   -3.9522    1.8173    4.2611 S   0  0  0  0  0  0  0  0  0  0  0  0
   -3.8022    2.2142    2.6608 N   0  0  0  0  0  0  0  0  0  0  0  0
   -2.4632   -1.1700    2.6735 C   0  0  0  0  0  0  0  0  0  0  0  0
   -1.9259   -2.1857    3.3957 C   0  0  0  0  0  0  0  0  0  0  0  0
   -1.6363   -2.4855    5.0121 S   0  0  0  0  0  0  0  0  0  0  0  0
   -0.5190   -3.7253    4.6763 C   0  0  0  0  0  0  0  0  0  0  0  0
   -0.3338   -3.8533    3.2794 C   0  0  0  0  0  0  0  0  0  0  0  0
    0.5096   -4.9617    2.6843 C   0  0  0  0  0  0  0  0  0  0  0  0
   -0.2799   -5.8124    1.6952 C   0  0  0  0  0  0  0  0  0  0  0  0
   -1.1383   -2.9147    2.5823 C   0  0  0  0  0  0  0  0  0  0  0  0
   -1.1148   -2.3987    1.3120 N   0  0  0  0  0  0  0  0  0  0  0  0
   -2.0305   -1.3632    1.3503 C   0  0  0  0  0  0  0  0  0  0  0  0
   -2.3730   -0.3587    0.3792 C   0  0  0  0  0  0  0  0  0  0  0  0
   -2.3022   -0.3379   -1.0010 N   0  0  0  0  0  0  0  0  0  0  0  0
   -2.8002    0.8930   -1.3493 C   0  0  0  0  0  0  0  0  0  0  0  0
   -2.8994    1.6892   -2.5184 C   0  0  0  0  0  0  0  0  0  0  0  0
   -2.4034    1.5998   -3.7940 N   0  0  0  0  0  0  0  0  0  0  0  0
   -2.2644    2.9044   -4.1523 C   0  0  0  0  0  0  0  0  0  0  0  0
   -1.5863    3.4980   -5.2120 C   0  0  0  0  0  0  0  0  0  0  0  0
   -2.6270    0.5328   -4.7775 C   0  0  0  0  0  0  0  0  0  0  0  0
   -3.8286    0.8432   -5.6666 C   0  0  0  0  0  0  0  0  0  0  0  0
   -2.1318   -1.4789   -1.9013 C   0  0  0  0  0  0  0  0  0  0  0  0
   -0.8624   -1.3448   -2.7609 C   0  0  0  0  0  0  0  0  0  0  0  0
    0.0496   -2.4996    0.4183 C   0  0  0  0  0  0  0  0  0  0  0  0
    0.8753   -1.2102    0.3999 C   0  0  0  0  0  0  0  0  0  0  0  0
    0.3717   -4.3088    5.7009 C   0  0  0  0  0  0  0  0  0  0  0  0
   -0.0266   -4.7328    6.9147 C   0  0  0  0  0  0  0  0  0  0  0  0
   -1.3950   -5.1314    7.2690 C   0  0  0  0  0  0  0  0  0  0  0  0
   -2.4315   -4.9685    6.5704 O   0  0  0  0  0  0  0  0  0  0  0  0
   -1.3375   -5.8916    8.4982 C   0  0  0  0  0  0  0  0  0  0  0  0
   -2.3803   -6.5528    9.1454 C   0  0  0  0  0  0  0  0  0  0  0  0
   -2.0913   -7.2962   10.2981 C   0  0  0  0  0  0  0  0  0  0  0  0
   -3.3871   -8.1202   11.1414 Cl  0  0  0  0  0  0  0  0  0  0  0  0
   -0.7658   -7.3825   10.7695 C   0  0  0  0  0  0  0  0  0  0  0  0
   -0.4804   -8.1066   11.8790 F   0  0  0  0  0  0  0  0  0  0  0  0
    0.2739   -6.7285   10.0908 C   0  0  0  0  0  0  0  0  0  0  0  0
   -0.0274   -5.9630    8.9492 C   0  0  0  0  0  0  0  0  0  0  0  0
    0.8570   -5.1799    8.0381 C   0  0  0  0  0  0  0  0  0  0  0  0
    2.1322   -4.7652    8.2814 C   0  0  0  0  0  0  0  0  0  0  0  0
    2.7979   -3.7945    7.4484 C   0  0  0  0  0  0  0  0  0  0  0  0
    3.3371   -3.0184    6.7788 N   0  0  0  0  0  0  0  0  0  0  0  0
    2.8859   -5.1891    9.4331 C   0  0  0  0  0  0  0  0  0  0  0  0
    3.5074   -5.5225   10.3513 N   0  0  0  0  0  0  0  0  0  0  0  0
   -1.2485    6.4849   -6.4254 H   0  0  0  0  0  0  0  0  0  0  0  0
    3.9436    3.4964   -4.5623 H   0  0  0  0  0  0  0  0  0  0  0  0
    6.2854    3.1492   -4.6869 H   0  0  0  0  0  0  0  0  0  0  0  0
    6.7465    3.2317   -6.4218 H   0  0  0  0  0  0  0  0  0  0  0  0
    7.3181    4.4938   -5.2568 H   0  0  0  0  0  0  0  0  0  0  0  0
    7.0070    5.2329   -8.0023 H   0  0  0  0  0  0  0  0  0  0  0  0
    7.3317    6.4653   -6.7132 H   0  0  0  0  0  0  0  0  0  0  0  0
    6.4548    6.9288   -8.2071 H   0  0  0  0  0  0  0  0  0  0  0  0
    4.1708    7.2569   -7.8077 H   0  0  0  0  0  0  0  0  0  0  0  0
    1.4456   -4.5651    2.2425 H   0  0  0  0  0  0  0  0  0  0  0  0
    0.8481   -5.6562    3.4827 H   0  0  0  0  0  0  0  0  0  0  0  0
    0.3724   -6.6173    1.2968 H   0  0  0  0  0  0  0  0  0  0  0  0
   -0.6554   -5.2038    0.8496 H   0  0  0  0  0  0  0  0  0  0  0  0
   -1.1488   -6.2846    2.2019 H   0  0  0  0  0  0  0  0  0  0  0  0
   -1.1221    2.9633   -6.0293 H   0  0  0  0  0  0  0  0  0  0  0  0
   -1.7219    0.4106   -5.4111 H   0  0  0  0  0  0  0  0  0  0  0  0
   -2.8410   -0.4165   -4.2825 H   0  0  0  0  0  0  0  0  0  0  0  0
   -4.1249   -0.0615   -6.2298 H   0  0  0  0  0  0  0  0  0  0  0  0
   -3.5739    1.6427   -6.3859 H   0  0  0  0  0  0  0  0  0  0  0  0
   -4.6874    1.1767   -5.0458 H   0  0  0  0  0  0  0  0  0  0  0  0
   -3.0342   -1.5627   -2.5379 H   0  0  0  0  0  0  0  0  0  0  0  0
   -2.1507   -2.4308   -1.3393 H   0  0  0  0  0  0  0  0  0  0  0  0
   -0.7452   -0.3234   -3.1660 H   0  0  0  0  0  0  0  0  0  0  0  0
    0.0637   -1.5306   -2.1980 H   0  0  0  0  0  0  0  0  0  0  0  0
   -0.9081   -2.0709   -3.6000 H   0  0  0  0  0  0  0  0  0  0  0  0
   -0.2417   -2.8491   -0.5743 H   0  0  0  0  0  0  0  0  0  0  0  0
    0.7298   -3.2902    0.7403 H   0  0  0  0  0  0  0  0  0  0  0  0
    0.3044   -0.3620   -0.0285 H   0  0  0  0  0  0  0  0  0  0  0  0
    1.1909   -0.9461    1.4334 H   0  0  0  0  0  0  0  0  0  0  0  0
    1.7819   -1.3700   -0.2240 H   0  0  0  0  0  0  0  0  0  0  0  0
    1.4141   -4.3621    5.4332 H   0  0  0  0  0  0  0  0  0  0  0  0
   -3.3939   -6.4915    8.7668 H   0  0  0  0  0  0  0  0  0  0  0  0
    1.2768   -6.8470   10.4580 H   0  0  0  0  0  0  0  0  0  0  0  0
  1  2  2  3
  2  3  1  0
  3  4  2  0
  3  5  1  0
  5  6  2  0
  6  7  1  0
  7  8  1  0
  7  9  2  0
  9 10  1  0
  9 11  1  0
 11 12  2  0
 12 13  1  0
 13 14  2  3
 14 15  1  0
 15 16  3  0
 14 17  1  0
 17 18  3  0
  1 19  1  0
 19 20  1  0
 20 21  1  0
 21 22  1  0
 22 23  1  0
 23 24  1  0
 24 25  1  0
 25 26  1  0
 26 27  1  0
 27 28  2  0
 28 29  1  0
 29 30  1  0
 27 31  1  0
 31 32  1  0
 32 33  1  0
 33 34  1  0
 34 35  2  0
 35 36  1  0
 36 37  1  0
 35 38  1  0
 38 39  1  0
 39 40  1  0
 40 41  1  0
 41 42  1  0
 42 43  1  0
 43 44  1  0
 44 45  1  0
 45 46  1  0
 46 47  1  0
 45 48  1  0
 48 49  1  0
 42 50  1  0
 50 51  1  0
 39 52  1  0
 52 53  1  0
 34 54  1  0
 54 55  2  3
 55 56  1  0
 56 57  2  0
 56 58  1  0
 58 59  2  0
 59 60  1  0
 60 61  1  0
 60 62  2  0
 62 63  1  0
 62 64  1  0
 64 65  2  0
 65 66  1  0
 66 67  2  3
 67 68  1  0
 68 69  3  0
 67 70  1  0
 70 71  3  0
 13  2  1  0
 47 19  2  0
 66 55  1  0
 12  5  1  0
 46 21  2  0
 65 58  1  0
 44 22  2  0
 43 24  2  0
 41 25  2  0
 30 26  2  0
 40 31  2  0
 38 32  2  0
  1 72  1  0
  6 73  1  0
  8 74  1  0
  8 75  1  0
  8 76  1  0
 10 77  1  0
 10 78  1  0
 10 79  1  0
 11 80  1  0
 36 81  1  0
 36 82  1  0
 37 83  1  0
 37 84  1  0
 37 85  1  0
 47 86  1  0
 48 87  1  0
 48 88  1  0
 49 89  1  0
 49 90  1  0
 49 91  1  0
 50 92  1  0
 50 93  1  0
 51 94  1  0
 51 95  1  0
 51 96  1  0
 52 97  1  0
 52 98  1  0
 53 99  1  0
 53100  1  0
 53101  1  0
 54102  1  0
 59103  1  0
 64104  1  0
M  END

