
     RDKit          3D

106117  0  0  0  0  0  0  0  0999 V2000
    4.8378    5.4291    0.1290 C   0  0  0  0  0  0  0  0  0  0  0  0
    4.6910    5.3102   -1.2056 C   0  0  0  0  0  0  0  0  0  0  0  0
    3.9204    4.2642   -1.8892 C   0  0  0  0  0  0  0  0  0  0  0  0
    3.5617    3.1574   -1.4047 O   0  0  0  0  0  0  0  0  0  0  0  0
    3.6842    4.6885   -3.2496 C   0  0  0  0  0  0  0  0  0  0  0  0
    2.8838    4.0741   -4.2085 C   0  0  0  0  0  0  0  0  0  0  0  0
    2.7103    4.7040   -5.4558 C   0  0  0  0  0  0  0  0  0  0  0  0
    1.8245    4.0561   -6.4878 C   0  0  0  0  0  0  0  0  0  0  0  0
    3.3319    5.9611   -5.7010 C   0  0  0  0  0  0  0  0  0  0  0  0
    3.1303    6.6818   -7.0081 C   0  0  0  0  0  0  0  0  0  0  0  0
    4.1295    6.5561   -4.6991 C   0  0  0  0  0  0  0  0  0  0  0  0
    4.3239    5.8904   -3.4797 C   0  0  0  0  0  0  0  0  0  0  0  0
    5.0895    6.2920   -2.2618 C   0  0  0  0  0  0  0  0  0  0  0  0
    6.0978    7.2007   -2.1993 C   0  0  0  0  0  0  0  0  0  0  0  0
    6.9353    7.3530   -1.0384 C   0  0  0  0  0  0  0  0  0  0  0  0
    7.6190    7.4857   -0.1132 N   0  0  0  0  0  0  0  0  0  0  0  0
    6.4953    7.9950   -3.3332 C   0  0  0  0  0  0  0  0  0  0  0  0
    6.8307    8.6377   -4.2370 N   0  0  0  0  0  0  0  0  0  0  0  0
    4.2183    4.4947    1.0804 C   0  0  0  0  0  0  0  0  0  0  0  0
    4.9060    3.5870    1.9071 C   0  0  0  0  0  0  0  0  0  0  0  0
    6.4016    3.4661    1.9965 C   0  0  0  0  0  0  0  0  0  0  0  0
    6.9535    4.4338    3.0362 C   0  0  0  0  0  0  0  0  0  0  0  0
    4.0070    2.7826    2.6094 C   0  0  0  0  0  0  0  0  0  0  0  0
    4.1881    1.3765    3.5662 S   0  0  0  0  0  0  0  0  0  0  0  0
    2.5037    1.1632    3.6007 C   0  0  0  0  0  0  0  0  0  0  0  0
    1.5725    0.2674    4.0372 C   0  0  0  0  0  0  0  0  0  0  0  0
    1.6783   -0.8657    4.8464 C   0  0  0  0  0  0  0  0  0  0  0  0
    0.4917   -1.5914    5.1617 C   0  0  0  0  0  0  0  0  0  0  0  0
    0.6371   -2.6943    5.9377 N   0  0  0  0  0  0  0  0  0  0  0  0
    2.2754   -2.6534    6.1820 S   0  0  0  0  0  0  0  0  0  0  0  0
    2.8424   -1.3295    5.3633 N   0  0  0  0  0  0  0  0  0  0  0  0
   -0.7280   -1.1661    4.6146 C   0  0  0  0  0  0  0  0  0  0  0  0
   -1.9138   -1.8362    4.4963 C   0  0  0  0  0  0  0  0  0  0  0  0
   -2.3920   -3.4478    4.7384 S   0  0  0  0  0  0  0  0  0  0  0  0
   -3.6117   -3.3063    3.5604 C   0  0  0  0  0  0  0  0  0  0  0  0
   -4.4307   -4.2491    2.9338 C   0  0  0  0  0  0  0  0  0  0  0  0
   -4.4854   -5.7011    3.3164 C   0  0  0  0  0  0  0  0  0  0  0  0
   -3.4459   -6.5023    2.5400 C   0  0  0  0  0  0  0  0  0  0  0  0
   -5.0336   -3.7006    1.7883 C   0  0  0  0  0  0  0  0  0  0  0  0
   -4.5741   -2.0681    1.6114 S   0  0  0  0  0  0  0  0  0  0  0  0
   -3.5933   -2.0656    2.9726 C   0  0  0  0  0  0  0  0  0  0  0  0
   -2.6225   -1.2213    3.5082 C   0  0  0  0  0  0  0  0  0  0  0  0
   -1.9676   -0.1491    2.9899 N   0  0  0  0  0  0  0  0  0  0  0  0
   -0.8139   -0.0755    3.7303 C   0  0  0  0  0  0  0  0  0  0  0  0
    0.3463    0.7174    3.5188 C   0  0  0  0  0  0  0  0  0  0  0  0
    0.4971    1.9301    2.8865 N   0  0  0  0  0  0  0  0  0  0  0  0
    1.8368    2.1240    2.9252 C   0  0  0  0  0  0  0  0  0  0  0  0
    2.6856    3.0561    2.3621 C   0  0  0  0  0  0  0  0  0  0  0  0
    2.5318    4.2918    1.2451 S   0  0  0  0  0  0  0  0  0  0  0  0
   -0.4721    3.0320    2.7722 C   0  0  0  0  0  0  0  0  0  0  0  0
   -1.2024    3.2749    4.0919 C   0  0  0  0  0  0  0  0  0  0  0  0
   -2.1954    0.3707    1.6377 C   0  0  0  0  0  0  0  0  0  0  0  0
   -3.4065    1.3039    1.6166 C   0  0  0  0  0  0  0  0  0  0  0  0
   -5.8893   -4.4342    0.8418 C   0  0  0  0  0  0  0  0  0  0  0  0
   -5.6010   -4.5757   -0.4679 C   0  0  0  0  0  0  0  0  0  0  0  0
   -4.2996   -4.2934   -1.0928 C   0  0  0  0  0  0  0  0  0  0  0  0
   -3.3130   -3.7231   -0.5563 O   0  0  0  0  0  0  0  0  0  0  0  0
   -4.2769   -4.9092   -2.3998 C   0  0  0  0  0  0  0  0  0  0  0  0
   -3.2138   -4.9654   -3.3021 C   0  0  0  0  0  0  0  0  0  0  0  0
   -3.3701   -5.7107   -4.4840 C   0  0  0  0  0  0  0  0  0  0  0  0
   -2.2659   -5.7599   -5.4992 C   0  0  0  0  0  0  0  0  0  0  0  0
   -4.5907   -6.3705   -4.7348 C   0  0  0  0  0  0  0  0  0  0  0  0
   -5.6440   -6.3062   -3.8081 C   0  0  0  0  0  0  0  0  0  0  0  0
   -5.4824   -5.5439   -2.6388 C   0  0  0  0  0  0  0  0  0  0  0  0
   -6.4104   -5.3046   -1.4948 C   0  0  0  0  0  0  0  0  0  0  0  0
   -7.7566   -5.4945   -1.4840 C   0  0  0  0  0  0  0  0  0  0  0  0
   -8.5944   -5.0234   -0.4132 C   0  0  0  0  0  0  0  0  0  0  0  0
   -9.2761   -4.6436    0.4413 N   0  0  0  0  0  0  0  0  0  0  0  0
   -8.4711   -6.0708   -2.5945 C   0  0  0  0  0  0  0  0  0  0  0  0
   -9.0656   -6.5184   -3.4805 N   0  0  0  0  0  0  0  0  0  0  0  0
    5.3581    6.2647    0.5661 H   0  0  0  0  0  0  0  0  0  0  0  0
    2.3876    3.1361   -3.9811 H   0  0  0  0  0  0  0  0  0  0  0  0
    0.9187    4.6777   -6.6453 H   0  0  0  0  0  0  0  0  0  0  0  0
    2.3705    3.9495   -7.4476 H   0  0  0  0  0  0  0  0  0  0  0  0
    1.4993    3.0414   -6.1696 H   0  0  0  0  0  0  0  0  0  0  0  0
    3.6799    7.6465   -7.0331 H   0  0  0  0  0  0  0  0  0  0  0  0
    2.0515    6.8948   -7.1598 H   0  0  0  0  0  0  0  0  0  0  0  0
    3.5038    6.0549   -7.8448 H   0  0  0  0  0  0  0  0  0  0  0  0
    4.5460    7.5313   -4.8730 H   0  0  0  0  0  0  0  0  0  0  0  0
    6.8587    3.6849    1.0073 H   0  0  0  0  0  0  0  0  0  0  0  0
    6.6836    2.4275    2.2738 H   0  0  0  0  0  0  0  0  0  0  0  0
    6.7348    5.4817    2.7395 H   0  0  0  0  0  0  0  0  0  0  0  0
    6.5026    4.2318    4.0326 H   0  0  0  0  0  0  0  0  0  0  0  0
    8.0537    4.3099    3.1125 H   0  0  0  0  0  0  0  0  0  0  0  0
   -4.2963   -5.8098    4.4058 H   0  0  0  0  0  0  0  0  0  0  0  0
   -5.4979   -6.1095    3.1089 H   0  0  0  0  0  0  0  0  0  0  0  0
   -3.5034   -7.5701    2.8417 H   0  0  0  0  0  0  0  0  0  0  0  0
   -3.6376   -6.4305    1.4473 H   0  0  0  0  0  0  0  0  0  0  0  0
   -2.4245   -6.1222    2.7590 H   0  0  0  0  0  0  0  0  0  0  0  0
    0.0534    3.9743    2.5161 H   0  0  0  0  0  0  0  0  0  0  0  0
   -1.1797    2.8739    1.9456 H   0  0  0  0  0  0  0  0  0  0  0  0
   -1.8534    2.4162    4.3472 H   0  0  0  0  0  0  0  0  0  0  0  0
   -1.8363    4.1823    4.0076 H   0  0  0  0  0  0  0  0  0  0  0  0
   -0.4648    3.4280    4.9076 H   0  0  0  0  0  0  0  0  0  0  0  0
   -2.3715   -0.4725    0.9362 H   0  0  0  0  0  0  0  0  0  0  0  0
   -1.2923    0.8661    1.2385 H   0  0  0  0  0  0  0  0  0  0  0  0
   -3.5321    1.7266    0.5996 H   0  0  0  0  0  0  0  0  0  0  0  0
   -4.3268    0.7506    1.8880 H   0  0  0  0  0  0  0  0  0  0  0  0
   -3.2850    2.1303    2.3406 H   0  0  0  0  0  0  0  0  0  0  0  0
   -6.7333   -4.9485    1.2708 H   0  0  0  0  0  0  0  0  0  0  0  0
   -2.2837   -4.4548   -3.0854 H   0  0  0  0  0  0  0  0  0  0  0  0
   -1.2769   -5.6051   -5.0155 H   0  0  0  0  0  0  0  0  0  0  0  0
   -2.4259   -4.9644   -6.2587 H   0  0  0  0  0  0  0  0  0  0  0  0
   -2.2488   -6.7500   -6.0059 H   0  0  0  0  0  0  0  0  0  0  0  0
   -4.7215   -6.9471   -5.6418 H   0  0  0  0  0  0  0  0  0  0  0  0
   -6.5371   -6.8727   -4.0111 H   0  0  0  0  0  0  0  0  0  0  0  0
  1  2  2  3
  2  3  1  0
  3  4  2  0
  3  5  1  0
  5  6  2  0
  6  7  1  0
  7  8  1  0
  7  9  2  0
  9 10  1  0
  9 11  1  0
 11 12  2  0
 12 13  1  0
 13 14  2  3
 14 15  1  0
 15 16  3  0
 14 17  1  0
 17 18  3  0
  1 19  1  0
 19 20  2  0
 20 21  1  0
 21 22  1  0
 20 23  1  0
 23 24  1  0
 24 25  1  0
 25 26  1  0
 26 27  1  0
 27 28  1  0
 28 29  2  0
 29 30  1  0
 30 31  1  0
 28 32  1  0
 32 33  1  0
 33 34  1  0
 34 35  1  0
 35 36  1  0
 36 37  1  0
 37 38  1  0
 36 39  2  0
 39 40  1  0
 40 41  1  0
 41 42  1  0
 42 43  1  0
 43 44  1  0
 44 45  1  0
 45 46  1  0
 46 47  1  0
 47 48  1  0
 48 49  1  0
 46 50  1  0
 50 51  1  0
 43 52  1  0
 52 53  1  0
 39 54  1  0
 54 55  2  3
 55 56  1  0
 56 57  2  0
 56 58  1  0
 58 59  2  0
 59 60  1  0
 60 61  1  0
 60 62  2  0
 62 63  1  0
 63 64  2  0
 64 65  1  0
 65 66  2  3
 66 67  1  0
 67 68  3  0
 66 69  1  0
 69 70  3  0
 13  2  1  0
 49 19  1  0
 65 55  1  0
 12  5  1  0
 48 23  2  0
 64 58  1  0
 47 25  2  0
 45 26  2  0
 31 27  2  0
 44 32  2  0
 42 33  2  0
 41 35  2  0
  1 71  1  0
  6 72  1  0
  8 73  1  0
  8 74  1  0
  8 75  1  0
 10 76  1  0
 10 77  1  0
 10 78  1  0
 11 79  1  0
 21 80  1  0
 21 81  1  0
 22 82  1  0
 22 83  1  0
 22 84  1  0
 37 85  1  0
 37 86  1  0
 38 87  1  0
 38 88  1  0
 38 89  1  0
 50 90  1  0
 50 91  1  0
 51 92  1  0
 51 93  1  0
 51 94  1  0
 52 95  1  0
 52 96  1  0
 53 97  1  0
 53 98  1  0
 53 99  1  0
 54100  1  0
 59101  1  0
 61102  1  0
 61103  1  0
 61104  1  0
 62105  1  0
 63106  1  0
M  END

