
     RDKit          3D

110121  0  0  0  0  0  0  0  0999 V2000
    4.5479    1.5432    6.3939 C   0  0  0  0  0  0  0  0  0  0  0  0
    5.4887    2.2771    5.7699 C   0  0  0  0  0  0  0  0  0  0  0  0
    5.4092    2.7901    4.3964 C   0  0  0  0  0  0  0  0  0  0  0  0
    4.3658    2.9324    3.7042 O   0  0  0  0  0  0  0  0  0  0  0  0
    6.7374    3.1818    3.9818 C   0  0  0  0  0  0  0  0  0  0  0  0
    7.1556    3.5795    2.7140 C   0  0  0  0  0  0  0  0  0  0  0  0
    8.5255    3.8111    2.4888 C   0  0  0  0  0  0  0  0  0  0  0  0
    8.9843    4.2247    1.1144 C   0  0  0  0  0  0  0  0  0  0  0  0
    9.4555    3.6031    3.5467 C   0  0  0  0  0  0  0  0  0  0  0  0
   10.9337    3.7949    3.3273 C   0  0  0  0  0  0  0  0  0  0  0  0
    8.9929    3.1981    4.8184 C   0  0  0  0  0  0  0  0  0  0  0  0
    7.6188    3.0208    5.0325 C   0  0  0  0  0  0  0  0  0  0  0  0
    6.8768    2.5736    6.2471 C   0  0  0  0  0  0  0  0  0  0  0  0
    7.3118    2.6440    7.5351 C   0  0  0  0  0  0  0  0  0  0  0  0
    6.4465    2.4044    8.6611 C   0  0  0  0  0  0  0  0  0  0  0  0
    5.7587    2.2141    9.5731 N   0  0  0  0  0  0  0  0  0  0  0  0
    8.6287    3.1084    7.8823 C   0  0  0  0  0  0  0  0  0  0  0  0
    9.6823    3.4852    8.1769 N   0  0  0  0  0  0  0  0  0  0  0  0
    3.2864    1.1170    5.7669 C   0  0  0  0  0  0  0  0  0  0  0  0
    2.0063    1.2683    6.3283 C   0  0  0  0  0  0  0  0  0  0  0  0
    1.7089    1.9844    7.6157 C   0  0  0  0  0  0  0  0  0  0  0  0
    1.6956    1.0062    8.7847 C   0  0  0  0  0  0  0  0  0  0  0  0
    1.0368    0.6596    5.5272 C   0  0  0  0  0  0  0  0  0  0  0  0
   -0.6650    0.6963    5.5378 S   0  0  0  0  0  0  0  0  0  0  0  0
   -0.7244   -0.1689    4.0782 C   0  0  0  0  0  0  0  0  0  0  0  0
   -1.5989   -0.2266    3.0350 C   0  0  0  0  0  0  0  0  0  0  0  0
   -2.8833    0.2969    2.8854 C   0  0  0  0  0  0  0  0  0  0  0  0
   -3.4504    0.3980    1.6522 C   0  0  0  0  0  0  0  0  0  0  0  0
   -4.6795    0.9161    1.7804 N   0  0  0  0  0  0  0  0  0  0  0  0
   -4.8101    1.1374    3.0891 N   0  0  0  0  0  0  0  0  0  0  0  0
   -6.0285    1.6643    3.6902 C   0  0  0  0  0  0  0  0  0  0  0  0
   -7.0530    0.5494    3.8660 C   0  0  0  0  0  0  0  0  0  0  0  0
   -3.7416    0.7728    3.7983 N   0  0  0  0  0  0  0  0  0  0  0  0
   -2.7608   -0.0264    0.5188 C   0  0  0  0  0  0  0  0  0  0  0  0
   -3.1687   -0.2392   -0.7614 C   0  0  0  0  0  0  0  0  0  0  0  0
   -4.6543   -0.2633   -1.5783 S   0  0  0  0  0  0  0  0  0  0  0  0
   -3.9922   -1.2479   -2.8005 C   0  0  0  0  0  0  0  0  0  0  0  0
   -4.5555   -1.8953   -3.9013 C   0  0  0  0  0  0  0  0  0  0  0  0
   -6.0177   -1.8294   -4.2486 C   0  0  0  0  0  0  0  0  0  0  0  0
   -6.8004   -2.8818   -3.4700 C   0  0  0  0  0  0  0  0  0  0  0  0
   -3.6191   -2.7600   -4.4999 C   0  0  0  0  0  0  0  0  0  0  0  0
   -2.1628   -2.7423   -3.6209 S   0  0  0  0  0  0  0  0  0  0  0  0
   -2.6897   -1.5869   -2.5261 C   0  0  0  0  0  0  0  0  0  0  0  0
   -2.2102   -0.9967   -1.3608 C   0  0  0  0  0  0  0  0  0  0  0  0
   -1.1629   -1.2748   -0.5350 N   0  0  0  0  0  0  0  0  0  0  0  0
   -1.4843   -0.6105    0.6259 C   0  0  0  0  0  0  0  0  0  0  0  0
   -0.8513   -0.6356    1.9122 C   0  0  0  0  0  0  0  0  0  0  0  0
    0.4811   -0.7252    2.2382 N   0  0  0  0  0  0  0  0  0  0  0  0
    0.5098   -0.4430    3.5692 C   0  0  0  0  0  0  0  0  0  0  0  0
    1.5165    0.0431    4.3991 C   0  0  0  0  0  0  0  0  0  0  0  0
    3.1793    0.2283    4.3141 S   0  0  0  0  0  0  0  0  0  0  0  0
    1.6315   -0.5553    1.3436 C   0  0  0  0  0  0  0  0  0  0  0  0
    2.6116   -1.7259    1.4562 C   0  0  0  0  0  0  0  0  0  0  0  0
   -0.3176   -2.4684   -0.6497 C   0  0  0  0  0  0  0  0  0  0  0  0
    0.7828   -2.2937   -1.7008 C   0  0  0  0  0  0  0  0  0  0  0  0
   -3.8750   -3.6797   -5.6153 C   0  0  0  0  0  0  0  0  0  0  0  0
   -4.0961   -3.2650   -6.8769 C   0  0  0  0  0  0  0  0  0  0  0  0
   -4.2028   -1.8669   -7.3142 C   0  0  0  0  0  0  0  0  0  0  0  0
   -3.8255   -0.8487   -6.6751 O   0  0  0  0  0  0  0  0  0  0  0  0
   -4.8254   -1.8463   -8.6205 C   0  0  0  0  0  0  0  0  0  0  0  0
   -5.2367   -0.7394   -9.3620 C   0  0  0  0  0  0  0  0  0  0  0  0
   -5.9210   -0.9587  -10.5662 C   0  0  0  0  0  0  0  0  0  0  0  0
   -6.4572    0.4126  -11.5196 Cl  0  0  0  0  0  0  0  0  0  0  0  0
   -6.2003   -2.2724  -10.9914 C   0  0  0  0  0  0  0  0  0  0  0  0
   -6.9010   -2.4832  -12.1344 F   0  0  0  0  0  0  0  0  0  0  0  0
   -5.7774   -3.3720  -10.2265 C   0  0  0  0  0  0  0  0  0  0  0  0
   -5.0540   -3.1444   -9.0435 C   0  0  0  0  0  0  0  0  0  0  0  0
   -4.4995   -4.1041   -8.0471 C   0  0  0  0  0  0  0  0  0  0  0  0
   -4.1913   -5.4087   -8.2631 C   0  0  0  0  0  0  0  0  0  0  0  0
   -4.4878   -6.0768   -9.5018 C   0  0  0  0  0  0  0  0  0  0  0  0
   -4.7164   -6.6283  -10.4936 N   0  0  0  0  0  0  0  0  0  0  0  0
   -3.4024   -6.1788   -7.3363 C   0  0  0  0  0  0  0  0  0  0  0  0
   -2.7629   -6.8001   -6.5983 N   0  0  0  0  0  0  0  0  0  0  0  0
    4.7104    1.1662    7.3874 H   0  0  0  0  0  0  0  0  0  0  0  0
    6.4324    3.6882    1.9145 H   0  0  0  0  0  0  0  0  0  0  0  0
    9.6105    3.4213    0.6722 H   0  0  0  0  0  0  0  0  0  0  0  0
    9.5762    5.1621    1.1778 H   0  0  0  0  0  0  0  0  0  0  0  0
    8.1260    4.4090    0.4336 H   0  0  0  0  0  0  0  0  0  0  0  0
   11.1415    4.8510    3.0539 H   0  0  0  0  0  0  0  0  0  0  0  0
   11.2832    3.1272    2.5126 H   0  0  0  0  0  0  0  0  0  0  0  0
   11.5187    3.5560    4.2395 H   0  0  0  0  0  0  0  0  0  0  0  0
    9.7085    2.9868    5.5946 H   0  0  0  0  0  0  0  0  0  0  0  0
    2.4701    2.7719    7.8036 H   0  0  0  0  0  0  0  0  0  0  0  0
    0.7203    2.4864    7.5478 H   0  0  0  0  0  0  0  0  0  0  0  0
    2.6870    0.5160    8.8885 H   0  0  0  0  0  0  0  0  0  0  0  0
    0.9168    0.2291    8.6285 H   0  0  0  0  0  0  0  0  0  0  0  0
    1.4708    1.5517    9.7245 H   0  0  0  0  0  0  0  0  0  0  0  0
   -6.4520    2.4588    3.0382 H   0  0  0  0  0  0  0  0  0  0  0  0
   -5.7970    2.1135    4.6802 H   0  0  0  0  0  0  0  0  0  0  0  0
   -6.6463   -0.2424    4.5318 H   0  0  0  0  0  0  0  0  0  0  0  0
   -7.3046    0.1059    2.8790 H   0  0  0  0  0  0  0  0  0  0  0  0
   -7.9787    0.9618    4.3208 H   0  0  0  0  0  0  0  0  0  0  0  0
   -6.4170   -0.8215   -4.0065 H   0  0  0  0  0  0  0  0  0  0  0  0
   -6.1682   -1.9966   -5.3339 H   0  0  0  0  0  0  0  0  0  0  0  0
   -6.6946   -2.7130   -2.3768 H   0  0  0  0  0  0  0  0  0  0  0  0
   -6.4320   -3.9004   -3.7191 H   0  0  0  0  0  0  0  0  0  0  0  0
   -7.8773   -2.8196   -3.7362 H   0  0  0  0  0  0  0  0  0  0  0  0
    1.2987   -0.4287    0.3040 H   0  0  0  0  0  0  0  0  0  0  0  0
    2.1599    0.3885    1.5957 H   0  0  0  0  0  0  0  0  0  0  0  0
    2.9084   -1.8946    2.5094 H   0  0  0  0  0  0  0  0  0  0  0  0
    2.1720   -2.6665    1.0756 H   0  0  0  0  0  0  0  0  0  0  0  0
    3.5228   -1.5036    0.8615 H   0  0  0  0  0  0  0  0  0  0  0  0
   -0.9428   -3.3484   -0.9167 H   0  0  0  0  0  0  0  0  0  0  0  0
    0.1229   -2.7134    0.3326 H   0  0  0  0  0  0  0  0  0  0  0  0
    1.1992   -1.2680   -1.6999 H   0  0  0  0  0  0  0  0  0  0  0  0
    1.6017   -3.0162   -1.5020 H   0  0  0  0  0  0  0  0  0  0  0  0
    0.3968   -2.4928   -2.7181 H   0  0  0  0  0  0  0  0  0  0  0  0
   -3.9114   -4.7242   -5.3592 H   0  0  0  0  0  0  0  0  0  0  0  0
   -5.0488    0.2658   -9.0051 H   0  0  0  0  0  0  0  0  0  0  0  0
   -6.0527   -4.3614  -10.5497 H   0  0  0  0  0  0  0  0  0  0  0  0
  1  2  2  3
  2  3  1  0
  3  4  2  0
  3  5  1  0
  5  6  2  0
  6  7  1  0
  7  8  1  0
  7  9  2  0
  9 10  1  0
  9 11  1  0
 11 12  2  0
 12 13  1  0
 13 14  2  3
 14 15  1  0
 15 16  3  0
 14 17  1  0
 17 18  3  0
  1 19  1  0
 19 20  2  0
 20 21  1  0
 21 22  1  0
 20 23  1  0
 23 24  1  0
 24 25  1  0
 25 26  1  0
 26 27  1  0
 27 28  1  0
 28 29  2  0
 29 30  1  0
 30 31  1  0
 31 32  1  0
 30 33  1  0
 28 34  1  0
 34 35  1  0
 35 36  1  0
 36 37  1  0
 37 38  1  0
 38 39  1  0
 39 40  1  0
 38 41  2  0
 41 42  1  0
 42 43  1  0
 43 44  1  0
 44 45  1  0
 45 46  1  0
 46 47  1  0
 47 48  1  0
 48 49  1  0
 49 50  1  0
 50 51  1  0
 48 52  1  0
 52 53  1  0
 45 54  1  0
 54 55  1  0
 41 56  1  0
 56 57  2  3
 57 58  1  0
 58 59  2  0
 58 60  1  0
 60 61  2  0
 61 62  1  0
 62 63  1  0
 62 64  2  0
 64 65  1  0
 64 66  1  0
 66 67  2  0
 67 68  1  0
 68 69  2  3
 69 70  1  0
 70 71  3  0
 69 72  1  0
 72 73  3  0
 13  2  1  0
 51 19  1  0
 68 57  1  0
 12  5  1  0
 50 23  2  0
 67 60  1  0
 49 25  2  0
 47 26  2  0
 33 27  2  0
 46 34  2  0
 44 35  2  0
 43 37  2  0
  1 74  1  0
  6 75  1  0
  8 76  1  0
  8 77  1  0
  8 78  1  0
 10 79  1  0
 10 80  1  0
 10 81  1  0
 11 82  1  0
 21 83  1  0
 21 84  1  0
 22 85  1  0
 22 86  1  0
 22 87  1  0
 31 88  1  0
 31 89  1  0
 32 90  1  0
 32 91  1  0
 32 92  1  0
 39 93  1  0
 39 94  1  0
 40 95  1  0
 40 96  1  0
 40 97  1  0
 52 98  1  0
 52 99  1  0
 53100  1  0
 53101  1  0
 53102  1  0
 54103  1  0
 54104  1  0
 55105  1  0
 55106  1  0
 55107  1  0
 56108  1  0
 61109  1  0
 66110  1  0
M  END

