
     RDKit          3D

109120  0  0  0  0  0  0  0  0999 V2000
    2.3615   -4.8756    6.7762 C   0  0  0  0  0  0  0  0  0  0  0  0
    2.8489   -5.7613    5.8834 C   0  0  0  0  0  0  0  0  0  0  0  0
    2.3900   -5.8964    4.4953 C   0  0  0  0  0  0  0  0  0  0  0  0
    1.2860   -5.5154    4.0258 O   0  0  0  0  0  0  0  0  0  0  0  0
    3.4388   -6.5351    3.7301 C   0  0  0  0  0  0  0  0  0  0  0  0
    3.5094   -6.6857    2.3461 C   0  0  0  0  0  0  0  0  0  0  0  0
    4.6881   -7.1954    1.7750 C   0  0  0  0  0  0  0  0  0  0  0  0
    4.7967   -7.3111    0.2783 C   0  0  0  0  0  0  0  0  0  0  0  0
    5.7831   -7.5350    2.6172 C   0  0  0  0  0  0  0  0  0  0  0  0
    7.0802   -8.0253    2.0362 C   0  0  0  0  0  0  0  0  0  0  0  0
    5.6792   -7.3563    4.0151 C   0  0  0  0  0  0  0  0  0  0  0  0
    4.4856   -6.8686    4.5640 C   0  0  0  0  0  0  0  0  0  0  0  0
    4.1351   -6.5175    5.9702 C   0  0  0  0  0  0  0  0  0  0  0  0
    4.7541   -6.9561    7.0979 C   0  0  0  0  0  0  0  0  0  0  0  0
    4.2503   -6.6601    8.4152 C   0  0  0  0  0  0  0  0  0  0  0  0
    3.8495   -6.4091    9.4706 N   0  0  0  0  0  0  0  0  0  0  0  0
    5.9294   -7.7798    7.0670 C   0  0  0  0  0  0  0  0  0  0  0  0
    6.8838   -8.4279    7.0582 N   0  0  0  0  0  0  0  0  0  0  0  0
    1.2550   -3.9683    6.4450 C   0  0  0  0  0  0  0  0  0  0  0  0
   -0.1022   -4.3265    6.3506 C   0  0  0  0  0  0  0  0  0  0  0  0
   -0.6947   -5.6223    6.8375 C   0  0  0  0  0  0  0  0  0  0  0  0
   -1.2854   -5.4265    8.2316 C   0  0  0  0  0  0  0  0  0  0  0  0
   -0.8372   -3.3285    5.7092 C   0  0  0  0  0  0  0  0  0  0  0  0
   -2.3767   -3.3488    4.9752 S   0  0  0  0  0  0  0  0  0  0  0  0
   -2.0380   -1.8826    4.1835 C   0  0  0  0  0  0  0  0  0  0  0  0
   -2.5262   -1.1898    3.1195 C   0  0  0  0  0  0  0  0  0  0  0  0
   -3.6765   -1.4403    2.3712 C   0  0  0  0  0  0  0  0  0  0  0  0
   -3.9175   -0.6633    1.2123 C   0  0  0  0  0  0  0  0  0  0  0  0
   -5.0314   -0.9530    0.4932 N   0  0  0  0  0  0  0  0  0  0  0  0
   -5.6351   -2.1930    1.4064 S   0  0  0  0  0  0  0  0  0  0  0  0
   -4.5821   -2.4040    2.6646 N   0  0  0  0  0  0  0  0  0  0  0  0
   -2.9970    0.3243    0.8681 C   0  0  0  0  0  0  0  0  0  0  0  0
   -2.9515    1.0905   -0.2536 C   0  0  0  0  0  0  0  0  0  0  0  0
   -3.6998    1.1266   -1.7755 S   0  0  0  0  0  0  0  0  0  0  0  0
   -2.5119    2.1981   -2.3621 C   0  0  0  0  0  0  0  0  0  0  0  0
   -2.2146    2.6714   -3.6431 C   0  0  0  0  0  0  0  0  0  0  0  0
   -2.9777    2.2857   -4.8798 C   0  0  0  0  0  0  0  0  0  0  0  0
   -4.3605    2.9243   -4.9221 C   0  0  0  0  0  0  0  0  0  0  0  0
   -0.9971    3.3810   -3.6313 C   0  0  0  0  0  0  0  0  0  0  0  0
   -0.2986    3.3227   -2.0807 S   0  0  0  0  0  0  0  0  0  0  0  0
   -1.5618    2.4555   -1.4064 C   0  0  0  0  0  0  0  0  0  0  0  0
   -1.8154    1.8073   -0.2009 C   0  0  0  0  0  0  0  0  0  0  0  0
   -1.0749    1.5502    0.9073 N   0  0  0  0  0  0  0  0  0  0  0  0
   -1.8014    0.5846    1.5909 C   0  0  0  0  0  0  0  0  0  0  0  0
   -1.5471   -0.2229    2.7732 C   0  0  0  0  0  0  0  0  0  0  0  0
   -0.4616   -0.3696    3.6314 N   0  0  0  0  0  0  0  0  0  0  0  0
   -0.8084   -1.4024    4.4411 C   0  0  0  0  0  0  0  0  0  0  0  0
   -0.1079   -2.2267    5.3193 C   0  0  0  0  0  0  0  0  0  0  0  0
    1.5083   -2.4538    5.7148 S   0  0  0  0  0  0  0  0  0  0  0  0
    0.7083    0.4703    3.9033 C   0  0  0  0  0  0  0  0  0  0  0  0
    0.3081    1.7061    4.7088 C   0  0  0  0  0  0  0  0  0  0  0  0
    0.2275    2.1694    1.1334 C   0  0  0  0  0  0  0  0  0  0  0  0
    1.3423    1.3329    0.5096 C   0  0  0  0  0  0  0  0  0  0  0  0
   -0.2893    3.8994   -4.8110 C   0  0  0  0  0  0  0  0  0  0  0  0
   -0.7088    4.9732   -5.5053 C   0  0  0  0  0  0  0  0  0  0  0  0
   -1.9139    5.7502   -5.2051 C   0  0  0  0  0  0  0  0  0  0  0  0
   -2.5367    5.7835   -4.1092 O   0  0  0  0  0  0  0  0  0  0  0  0
   -2.2331    6.5452   -6.3733 C   0  0  0  0  0  0  0  0  0  0  0  0
   -3.3711    7.3113   -6.5955 C   0  0  0  0  0  0  0  0  0  0  0  0
   -3.5298    7.9392   -7.8460 C   0  0  0  0  0  0  0  0  0  0  0  0
   -4.7772    8.7558   -8.0867 C   0  0  0  0  0  0  0  0  0  0  0  0
   -2.5618    7.7464   -8.8675 C   0  0  0  0  0  0  0  0  0  0  0  0
   -2.7367    8.3626  -10.2290 C   0  0  0  0  0  0  0  0  0  0  0  0
   -1.4376    6.9351   -8.6107 C   0  0  0  0  0  0  0  0  0  0  0  0
   -1.2648    6.3627   -7.3445 C   0  0  0  0  0  0  0  0  0  0  0  0
   -0.1976    5.4635   -6.8236 C   0  0  0  0  0  0  0  0  0  0  0  0
    1.0489    5.2997   -7.3365 C   0  0  0  0  0  0  0  0  0  0  0  0
    2.0783    4.5562   -6.6568 C   0  0  0  0  0  0  0  0  0  0  0  0
    2.9182    3.9634   -6.1265 N   0  0  0  0  0  0  0  0  0  0  0  0
    1.4863    5.9587   -8.5386 C   0  0  0  0  0  0  0  0  0  0  0  0
    1.8589    6.4876   -9.4999 N   0  0  0  0  0  0  0  0  0  0  0  0
    2.8898   -4.6698    7.6849 H   0  0  0  0  0  0  0  0  0  0  0  0
    2.6710   -6.3848    1.7274 H   0  0  0  0  0  0  0  0  0  0  0  0
    5.5854   -6.6201   -0.0919 H   0  0  0  0  0  0  0  0  0  0  0  0
    3.8416   -7.0493   -0.2260 H   0  0  0  0  0  0  0  0  0  0  0  0
    5.0520   -8.3543   -0.0047 H   0  0  0  0  0  0  0  0  0  0  0  0
    7.5248   -7.2359    1.3937 H   0  0  0  0  0  0  0  0  0  0  0  0
    7.8141   -8.2852    2.8270 H   0  0  0  0  0  0  0  0  0  0  0  0
    6.8980   -8.9322    1.4289 H   0  0  0  0  0  0  0  0  0  0  0  0
    6.5388   -7.5487    4.6315 H   0  0  0  0  0  0  0  0  0  0  0  0
    0.0811   -6.4231    6.8734 H   0  0  0  0  0  0  0  0  0  0  0  0
   -1.4964   -5.9571    6.1422 H   0  0  0  0  0  0  0  0  0  0  0  0
   -2.1031   -4.6753    8.1998 H   0  0  0  0  0  0  0  0  0  0  0  0
   -0.5018   -5.0838    8.9400 H   0  0  0  0  0  0  0  0  0  0  0  0
   -1.6985   -6.3879    8.6023 H   0  0  0  0  0  0  0  0  0  0  0  0
   -2.4210    2.5776   -5.7938 H   0  0  0  0  0  0  0  0  0  0  0  0
   -3.0884    1.1830   -4.8965 H   0  0  0  0  0  0  0  0  0  0  0  0
   -4.9145    2.5494   -5.8112 H   0  0  0  0  0  0  0  0  0  0  0  0
   -4.9492    2.6617   -4.0193 H   0  0  0  0  0  0  0  0  0  0  0  0
   -4.2830    4.0242   -4.9987 H   0  0  0  0  0  0  0  0  0  0  0  0
    1.4523   -0.0770    4.5115 H   0  0  0  0  0  0  0  0  0  0  0  0
    1.2684    0.6820    2.9969 H   0  0  0  0  0  0  0  0  0  0  0  0
    1.1655    2.4101    4.7704 H   0  0  0  0  0  0  0  0  0  0  0  0
   -0.5645    2.2166    4.2485 H   0  0  0  0  0  0  0  0  0  0  0  0
    0.0267    1.4046    5.7369 H   0  0  0  0  0  0  0  0  0  0  0  0
    0.3727    2.4035    2.1898 H   0  0  0  0  0  0  0  0  0  0  0  0
    0.2477    3.1753    0.6744 H   0  0  0  0  0  0  0  0  0  0  0  0
    1.2409    0.2631    0.7917 H   0  0  0  0  0  0  0  0  0  0  0  0
    1.2998    1.3957   -0.5963 H   0  0  0  0  0  0  0  0  0  0  0  0
    2.3266    1.7203    0.8460 H   0  0  0  0  0  0  0  0  0  0  0  0
    0.5483    3.3118   -5.1434 H   0  0  0  0  0  0  0  0  0  0  0  0
   -4.1350    7.4030   -5.8193 H   0  0  0  0  0  0  0  0  0  0  0  0
   -5.3356    8.9562   -7.1428 H   0  0  0  0  0  0  0  0  0  0  0  0
   -4.5239    9.7464   -8.5247 H   0  0  0  0  0  0  0  0  0  0  0  0
   -5.4474    8.2103   -8.7800 H   0  0  0  0  0  0  0  0  0  0  0  0
   -2.7831    9.4620  -10.1414 H   0  0  0  0  0  0  0  0  0  0  0  0
   -1.8918    8.1131  -10.8951 H   0  0  0  0  0  0  0  0  0  0  0  0
   -3.6634    7.9896  -10.6990 H   0  0  0  0  0  0  0  0  0  0  0  0
   -0.7522    6.7425   -9.4071 H   0  0  0  0  0  0  0  0  0  0  0  0
  1  2  2  3
  2  3  1  0
  3  4  2  0
  3  5  1  0
  5  6  2  0
  6  7  1  0
  7  8  1  0
  7  9  2  0
  9 10  1  0
  9 11  1  0
 11 12  2  0
 12 13  1  0
 13 14  2  3
 14 15  1  0
 15 16  3  0
 14 17  1  0
 17 18  3  0
  1 19  1  0
 19 20  2  0
 20 21  1  0
 21 22  1  0
 20 23  1  0
 23 24  1  0
 24 25  1  0
 25 26  1  0
 26 27  1  0
 27 28  1  0
 28 29  2  0
 29 30  1  0
 30 31  1  0
 28 32  1  0
 32 33  1  0
 33 34  1  0
 34 35  1  0
 35 36  1  0
 36 37  1  0
 37 38  1  0
 36 39  2  0
 39 40  1  0
 40 41  1  0
 41 42  1  0
 42 43  1  0
 43 44  1  0
 44 45  1  0
 45 46  1  0
 46 47  1  0
 47 48  1  0
 48 49  1  0
 46 50  1  0
 50 51  1  0
 43 52  1  0
 52 53  1  0
 39 54  1  0
 54 55  2  3
 55 56  1  0
 56 57  2  0
 56 58  1  0
 58 59  2  0
 59 60  1  0
 60 61  1  0
 60 62  2  0
 62 63  1  0
 62 64  1  0
 64 65  2  0
 65 66  1  0
 66 67  2  3
 67 68  1  0
 68 69  3  0
 67 70  1  0
 70 71  3  0
 13  2  1  0
 49 19  1  0
 66 55  1  0
 12  5  1  0
 48 23  2  0
 65 58  1  0
 47 25  2  0
 45 26  2  0
 31 27  2  0
 44 32  2  0
 42 33  2  0
 41 35  2  0
  1 72  1  0
  6 73  1  0
  8 74  1  0
  8 75  1  0
  8 76  1  0
 10 77  1  0
 10 78  1  0
 10 79  1  0
 11 80  1  0
 21 81  1  0
 21 82  1  0
 22 83  1  0
 22 84  1  0
 22 85  1  0
 37 86  1  0
 37 87  1  0
 38 88  1  0
 38 89  1  0
 38 90  1  0
 50 91  1  0
 50 92  1  0
 51 93  1  0
 51 94  1  0
 51 95  1  0
 52 96  1  0
 52 97  1  0
 53 98  1  0
 53 99  1  0
 53100  1  0
 54101  1  0
 59102  1  0
 61103  1  0
 61104  1  0
 61105  1  0
 63106  1  0
 63107  1  0
 63108  1  0
 64109  1  0
M  END

