
     RDKit          3D

103114  0  0  0  0  0  0  0  0999 V2000
    1.6025   -2.0963    6.8108 C   0  0  0  0  0  0  0  0  0  0  0  0
    2.8153   -2.6774    6.7069 C   0  0  0  0  0  0  0  0  0  0  0  0
    3.3569   -3.2924    5.4885 C   0  0  0  0  0  0  0  0  0  0  0  0
    2.7039   -3.6296    4.4629 O   0  0  0  0  0  0  0  0  0  0  0  0
    4.7748   -3.4907    5.6689 C   0  0  0  0  0  0  0  0  0  0  0  0
    5.7000   -3.9458    4.7346 C   0  0  0  0  0  0  0  0  0  0  0  0
    7.0596   -4.0014    5.0933 C   0  0  0  0  0  0  0  0  0  0  0  0
    8.0625   -4.4763    4.0751 C   0  0  0  0  0  0  0  0  0  0  0  0
    7.4648   -3.5553    6.3815 C   0  0  0  0  0  0  0  0  0  0  0  0
    8.9126   -3.5811    6.7944 C   0  0  0  0  0  0  0  0  0  0  0  0
    6.4945   -3.1096    7.3054 C   0  0  0  0  0  0  0  0  0  0  0  0
    5.1387   -3.1078    6.9438 C   0  0  0  0  0  0  0  0  0  0  0  0
    3.9294   -2.6764    7.7072 C   0  0  0  0  0  0  0  0  0  0  0  0
    3.8318   -2.5140    9.0535 C   0  0  0  0  0  0  0  0  0  0  0  0
    2.5745   -2.2988    9.7170 C   0  0  0  0  0  0  0  0  0  0  0  0
    1.5698   -2.1296   10.2682 N   0  0  0  0  0  0  0  0  0  0  0  0
    4.9553   -2.6766    9.9415 C   0  0  0  0  0  0  0  0  0  0  0  0
    5.8495   -2.8105   10.6657 N   0  0  0  0  0  0  0  0  0  0  0  0
    0.6618   -2.0348    5.6832 C   0  0  0  0  0  0  0  0  0  0  0  0
   -0.4656   -2.8591    5.5098 C   0  0  0  0  0  0  0  0  0  0  0  0
   -0.8933   -3.9417    6.4615 C   0  0  0  0  0  0  0  0  0  0  0  0
   -0.1785   -5.2514    6.1474 C   0  0  0  0  0  0  0  0  0  0  0  0
   -1.0420   -2.6437    4.2560 C   0  0  0  0  0  0  0  0  0  0  0  0
   -2.3120   -3.3993    3.4011 S   0  0  0  0  0  0  0  0  0  0  0  0
   -1.9888   -2.4404    2.0378 C   0  0  0  0  0  0  0  0  0  0  0  0
   -2.4789   -2.2125    0.7870 C   0  0  0  0  0  0  0  0  0  0  0  0
   -3.6090   -2.7237    0.1431 C   0  0  0  0  0  0  0  0  0  0  0  0
   -3.9544   -2.2128   -1.1386 C   0  0  0  0  0  0  0  0  0  0  0  0
   -5.0645   -2.7218   -1.7285 N   0  0  0  0  0  0  0  0  0  0  0  0
   -5.5334   -3.7931   -0.5546 S   0  0  0  0  0  0  0  0  0  0  0  0
   -4.4261   -3.6691    0.6710 N   0  0  0  0  0  0  0  0  0  0  0  0
   -3.1214   -1.2534   -1.7227 C   0  0  0  0  0  0  0  0  0  0  0  0
   -3.1543   -0.6826   -2.9597 C   0  0  0  0  0  0  0  0  0  0  0  0
   -4.1366   -0.6527   -4.3470 S   0  0  0  0  0  0  0  0  0  0  0  0
   -3.0272    0.3888   -5.1246 C   0  0  0  0  0  0  0  0  0  0  0  0
   -3.0439    1.0624   -6.3452 C   0  0  0  0  0  0  0  0  0  0  0  0
   -4.1761    0.9869   -7.3319 C   0  0  0  0  0  0  0  0  0  0  0  0
   -5.1820    2.1057   -7.0828 C   0  0  0  0  0  0  0  0  0  0  0  0
   -1.9354    1.9239   -6.4471 C   0  0  0  0  0  0  0  0  0  0  0  0
   -0.9475    1.8009   -5.0595 S   0  0  0  0  0  0  0  0  0  0  0  0
   -1.9419    0.6651   -4.3277 C   0  0  0  0  0  0  0  0  0  0  0  0
   -2.0245    0.0485   -3.0882 C   0  0  0  0  0  0  0  0  0  0  0  0
   -1.2215   -0.0082   -1.9951 N   0  0  0  0  0  0  0  0  0  0  0  0
   -1.9462   -0.7729   -1.1045 C   0  0  0  0  0  0  0  0  0  0  0  0
   -1.6658   -1.2047    0.2292 C   0  0  0  0  0  0  0  0  0  0  0  0
   -0.7640   -0.7515    1.1679 N   0  0  0  0  0  0  0  0  0  0  0  0
   -0.9777   -1.5677    2.2300 C   0  0  0  0  0  0  0  0  0  0  0  0
   -0.4305   -1.6772    3.4979 C   0  0  0  0  0  0  0  0  0  0  0  0
    0.8879   -1.0417    4.3146 S   0  0  0  0  0  0  0  0  0  0  0  0
   -0.0606    0.5357    1.2612 C   0  0  0  0  0  0  0  0  0  0  0  0
   -1.0087    1.7142    1.0498 C   0  0  0  0  0  0  0  0  0  0  0  0
    0.2124    0.3201   -2.0246 C   0  0  0  0  0  0  0  0  0  0  0  0
    1.0804   -0.9114   -1.7732 C   0  0  0  0  0  0  0  0  0  0  0  0
   -1.6872    2.8574   -7.5522 C   0  0  0  0  0  0  0  0  0  0  0  0
   -1.7848    4.1911   -7.4158 C   0  0  0  0  0  0  0  0  0  0  0  0
   -2.3978    4.8914   -6.2743 C   0  0  0  0  0  0  0  0  0  0  0  0
   -2.6236    4.4135   -5.1299 O   0  0  0  0  0  0  0  0  0  0  0  0
   -2.7748    6.2194   -6.7089 C   0  0  0  0  0  0  0  0  0  0  0  0
   -3.4876    7.1855   -5.9985 C   0  0  0  0  0  0  0  0  0  0  0  0
   -3.8296    8.3782   -6.6520 C   0  0  0  0  0  0  0  0  0  0  0  0
   -4.5162    9.3402   -5.9853 F   0  0  0  0  0  0  0  0  0  0  0  0
   -3.4863    8.5667   -8.0040 C   0  0  0  0  0  0  0  0  0  0  0  0
   -3.8646    9.7003   -8.6469 F   0  0  0  0  0  0  0  0  0  0  0  0
   -2.7804    7.5739   -8.7064 C   0  0  0  0  0  0  0  0  0  0  0  0
   -2.3985    6.4029   -8.0306 C   0  0  0  0  0  0  0  0  0  0  0  0
   -1.6683    5.1972   -8.5122 C   0  0  0  0  0  0  0  0  0  0  0  0
   -0.8490    5.1155   -9.5932 C   0  0  0  0  0  0  0  0  0  0  0  0
   -0.6889    6.1998  -10.5269 C   0  0  0  0  0  0  0  0  0  0  0  0
   -0.5508    7.0628  -11.2871 N   0  0  0  0  0  0  0  0  0  0  0  0
    0.0390    4.0009   -9.7962 C   0  0  0  0  0  0  0  0  0  0  0  0
    0.7613    3.1131   -9.9567 N   0  0  0  0  0  0  0  0  0  0  0  0
    1.2892   -1.5838    7.7055 H   0  0  0  0  0  0  0  0  0  0  0  0
    5.3687   -4.2292    3.7422 H   0  0  0  0  0  0  0  0  0  0  0  0
    7.5630   -4.9720    3.2138 H   0  0  0  0  0  0  0  0  0  0  0  0
    8.6419   -3.6084    3.6911 H   0  0  0  0  0  0  0  0  0  0  0  0
    8.7561   -5.2156    4.5294 H   0  0  0  0  0  0  0  0  0  0  0  0
    9.5437   -3.1274    6.0037 H   0  0  0  0  0  0  0  0  0  0  0  0
    9.0811   -3.0026    7.7304 H   0  0  0  0  0  0  0  0  0  0  0  0
    9.2300   -4.6300    6.9626 H   0  0  0  0  0  0  0  0  0  0  0  0
    6.8212   -2.7413    8.2620 H   0  0  0  0  0  0  0  0  0  0  0  0
   -0.6641   -3.6410    7.5067 H   0  0  0  0  0  0  0  0  0  0  0  0
   -1.9919   -4.0969    6.3865 H   0  0  0  0  0  0  0  0  0  0  0  0
   -0.5461   -6.0521    6.8242 H   0  0  0  0  0  0  0  0  0  0  0  0
    0.9164   -5.1356    6.2941 H   0  0  0  0  0  0  0  0  0  0  0  0
   -0.3768   -5.5536    5.0952 H   0  0  0  0  0  0  0  0  0  0  0  0
   -4.6923    0.0061   -7.2367 H   0  0  0  0  0  0  0  0  0  0  0  0
   -3.7845    1.0654   -8.3689 H   0  0  0  0  0  0  0  0  0  0  0  0
   -4.6915    3.0952   -7.1910 H   0  0  0  0  0  0  0  0  0  0  0  0
   -6.0033    2.0360   -7.8255 H   0  0  0  0  0  0  0  0  0  0  0  0
   -5.6124    2.0241   -6.0594 H   0  0  0  0  0  0  0  0  0  0  0  0
    0.8214    0.5606    0.6044 H   0  0  0  0  0  0  0  0  0  0  0  0
    0.3668    0.6648    2.2742 H   0  0  0  0  0  0  0  0  0  0  0  0
   -0.4604    2.6626    1.2141 H   0  0  0  0  0  0  0  0  0  0  0  0
   -1.8462    1.6638    1.7745 H   0  0  0  0  0  0  0  0  0  0  0  0
   -1.4282    1.7273    0.0258 H   0  0  0  0  0  0  0  0  0  0  0  0
    0.4354    1.1716   -1.3604 H   0  0  0  0  0  0  0  0  0  0  0  0
    0.4961    0.6858   -3.0289 H   0  0  0  0  0  0  0  0  0  0  0  0
    0.8804   -1.6801   -2.5510 H   0  0  0  0  0  0  0  0  0  0  0  0
    2.1510   -0.6226   -1.8187 H   0  0  0  0  0  0  0  0  0  0  0  0
    0.8835   -1.3598   -0.7804 H   0  0  0  0  0  0  0  0  0  0  0  0
   -1.5430    2.4191   -8.5286 H   0  0  0  0  0  0  0  0  0  0  0  0
   -3.7802    7.0130   -4.9734 H   0  0  0  0  0  0  0  0  0  0  0  0
   -2.5877    7.7176   -9.7588 H   0  0  0  0  0  0  0  0  0  0  0  0
  1  2  2  3
  2  3  1  0
  3  4  2  0
  3  5  1  0
  5  6  2  0
  6  7  1  0
  7  8  1  0
  7  9  2  0
  9 10  1  0
  9 11  1  0
 11 12  2  0
 12 13  1  0
 13 14  2  3
 14 15  1  0
 15 16  3  0
 14 17  1  0
 17 18  3  0
  1 19  1  0
 19 20  2  0
 20 21  1  0
 21 22  1  0
 20 23  1  0
 23 24  1  0
 24 25  1  0
 25 26  1  0
 26 27  1  0
 27 28  1  0
 28 29  2  0
 29 30  1  0
 30 31  1  0
 28 32  1  0
 32 33  1  0
 33 34  1  0
 34 35  1  0
 35 36  1  0
 36 37  1  0
 37 38  1  0
 36 39  2  0
 39 40  1  0
 40 41  1  0
 41 42  1  0
 42 43  1  0
 43 44  1  0
 44 45  1  0
 45 46  1  0
 46 47  1  0
 47 48  1  0
 48 49  1  0
 46 50  1  0
 50 51  1  0
 43 52  1  0
 52 53  1  0
 39 54  1  0
 54 55  2  3
 55 56  1  0
 56 57  2  0
 56 58  1  0
 58 59  2  0
 59 60  1  0
 60 61  1  0
 60 62  2  0
 62 63  1  0
 62 64  1  0
 64 65  2  0
 65 66  1  0
 66 67  2  3
 67 68  1  0
 68 69  3  0
 67 70  1  0
 70 71  3  0
 13  2  1  0
 49 19  1  0
 66 55  1  0
 12  5  1  0
 48 23  2  0
 65 58  1  0
 47 25  2  0
 45 26  2  0
 31 27  2  0
 44 32  2  0
 42 33  2  0
 41 35  2  0
  1 72  1  0
  6 73  1  0
  8 74  1  0
  8 75  1  0
  8 76  1  0
 10 77  1  0
 10 78  1  0
 10 79  1  0
 11 80  1  0
 21 81  1  0
 21 82  1  0
 22 83  1  0
 22 84  1  0
 22 85  1  0
 37 86  1  0
 37 87  1  0
 38 88  1  0
 38 89  1  0
 38 90  1  0
 50 91  1  0
 50 92  1  0
 51 93  1  0
 51 94  1  0
 51 95  1  0
 52 96  1  0
 52 97  1  0
 53 98  1  0
 53 99  1  0
 53100  1  0
 54101  1  0
 59102  1  0
 64103  1  0
M  END

