
     RDKit          3D

109121  0  0  0  0  0  0  0  0999 V2000
   -6.9997    4.5582   -0.8887 C   0  0  0  0  0  0  0  0  0  0  0  0
   -7.8981    3.6914   -0.3888 C   0  0  0  0  0  0  0  0  0  0  0  0
   -7.8177    3.2081    0.9935 C   0  0  0  0  0  0  0  0  0  0  0  0
   -7.5711    3.9190    2.0052 O   0  0  0  0  0  0  0  0  0  0  0  0
   -7.9947    1.7741    0.9995 C   0  0  0  0  0  0  0  0  0  0  0  0
   -7.7264    0.8912    2.0365 C   0  0  0  0  0  0  0  0  0  0  0  0
   -7.7518   -0.4919    1.7778 C   0  0  0  0  0  0  0  0  0  0  0  0
   -7.3803   -1.4308    2.8933 C   0  0  0  0  0  0  0  0  0  0  0  0
   -7.9862   -0.9545    0.4508 C   0  0  0  0  0  0  0  0  0  0  0  0
   -7.9466   -2.4213    0.1161 C   0  0  0  0  0  0  0  0  0  0  0  0
   -8.2610   -0.0257   -0.5792 C   0  0  0  0  0  0  0  0  0  0  0  0
   -8.2766    1.3457   -0.2842 C   0  0  0  0  0  0  0  0  0  0  0  0
   -8.3952    2.5311   -1.1801 C   0  0  0  0  0  0  0  0  0  0  0  0
   -8.8986    2.5827   -2.4384 C   0  0  0  0  0  0  0  0  0  0  0  0
   -9.2520    1.4036   -3.1868 C   0  0  0  0  0  0  0  0  0  0  0  0
   -9.5188    0.4554   -3.8068 N   0  0  0  0  0  0  0  0  0  0  0  0
   -9.1653    3.8453   -3.0861 C   0  0  0  0  0  0  0  0  0  0  0  0
   -9.3838    4.8605   -3.5966 N   0  0  0  0  0  0  0  0  0  0  0  0
   -5.6622    4.6153   -0.2934 C   0  0  0  0  0  0  0  0  0  0  0  0
   -5.0530    5.6904    0.3829 C   0  0  0  0  0  0  0  0  0  0  0  0
   -5.6453    7.0593    0.5204 C   0  0  0  0  0  0  0  0  0  0  0  0
   -5.3959    7.8783   -0.7430 C   0  0  0  0  0  0  0  0  0  0  0  0
   -3.7708    5.3308    0.8180 C   0  0  0  0  0  0  0  0  0  0  0  0
   -2.4915    6.1543    1.6041 S   0  0  0  0  0  0  0  0  0  0  0  0
   -1.5058    4.7687    1.5199 C   0  0  0  0  0  0  0  0  0  0  0  0
   -0.1837    4.4328    1.6371 C   0  0  0  0  0  0  0  0  0  0  0  0
    0.9438    5.1626    2.0253 C   0  0  0  0  0  0  0  0  0  0  0  0
    2.2349    4.5663    1.8779 C   0  0  0  0  0  0  0  0  0  0  0  0
    3.2995    5.3070    2.2653 N   0  0  0  0  0  0  0  0  0  0  0  0
    2.5199    6.6822    2.7580 S   0  0  0  0  0  0  0  0  0  0  0  0
    0.9012    6.4214    2.5246 N   0  0  0  0  0  0  0  0  0  0  0  0
    2.3209    3.2565    1.3806 C   0  0  0  0  0  0  0  0  0  0  0  0
    3.3682    2.3776    1.2727 C   0  0  0  0  0  0  0  0  0  0  0  0
    5.0339    2.2852    1.6014 S   0  0  0  0  0  0  0  0  0  0  0  0
    5.0401    0.6153    1.2265 C   0  0  0  0  0  0  0  0  0  0  0  0
    6.0360   -0.3633    1.1537 C   0  0  0  0  0  0  0  0  0  0  0  0
    7.4689   -0.1385    1.5382 C   0  0  0  0  0  0  0  0  0  0  0  0
    7.6697   -0.4267    3.0245 C   0  0  0  0  0  0  0  0  0  0  0  0
    5.4987   -1.5920    0.7176 C   0  0  0  0  0  0  0  0  0  0  0  0
    3.8061   -1.4478    0.5283 S   0  0  0  0  0  0  0  0  0  0  0  0
    3.7823    0.1719    0.9151 C   0  0  0  0  0  0  0  0  0  0  0  0
    2.8362    1.1786    0.9284 C   0  0  0  0  0  0  0  0  0  0  0  0
    1.4857    1.1976    0.8153 N   0  0  0  0  0  0  0  0  0  0  0  0
    1.1809    2.5208    1.0228 C   0  0  0  0  0  0  0  0  0  0  0  0
   -0.0816    3.1514    1.0753 C   0  0  0  0  0  0  0  0  0  0  0  0
   -1.2617    2.7578    0.5094 N   0  0  0  0  0  0  0  0  0  0  0  0
   -2.1132    3.7430    0.8761 C   0  0  0  0  0  0  0  0  0  0  0  0
   -3.3971    4.0572    0.4818 C   0  0  0  0  0  0  0  0  0  0  0  0
   -4.6121    3.2725   -0.3492 S   0  0  0  0  0  0  0  0  0  0  0  0
   -1.4072    1.9786   -0.7302 C   0  0  0  0  0  0  0  0  0  0  0  0
   -1.3374    2.8785   -1.9627 C   0  0  0  0  0  0  0  0  0  0  0  0
    0.6195    0.0368    1.0881 C   0  0  0  0  0  0  0  0  0  0  0  0
    0.5812   -0.9476   -0.0889 C   0  0  0  0  0  0  0  0  0  0  0  0
    6.2343   -2.8551    0.5341 C   0  0  0  0  0  0  0  0  0  0  0  0
    6.0258   -3.6758   -0.5205 C   0  0  0  0  0  0  0  0  0  0  0  0
    5.1940   -3.3803   -1.6901 C   0  0  0  0  0  0  0  0  0  0  0  0
    4.9490   -2.2313   -2.1403 O   0  0  0  0  0  0  0  0  0  0  0  0
    4.8066   -4.6401   -2.3189 C   0  0  0  0  0  0  0  0  0  0  0  0
    5.4536   -5.6686   -1.6497 C   0  0  0  0  0  0  0  0  0  0  0  0
    5.1005   -6.9998   -1.8922 C   0  0  0  0  0  0  0  0  0  0  0  0
    4.1614   -7.2896   -2.8933 C   0  0  0  0  0  0  0  0  0  0  0  0
    3.5472   -6.2507   -3.6243 C   0  0  0  0  0  0  0  0  0  0  0  0
    2.6133   -6.5496   -4.6299 C   0  0  0  0  0  0  0  0  0  0  0  0
    2.0073   -5.5212   -5.3570 C   0  0  0  0  0  0  0  0  0  0  0  0
    2.3171   -4.1898   -5.0744 C   0  0  0  0  0  0  0  0  0  0  0  0
    3.2319   -3.8731   -4.0662 C   0  0  0  0  0  0  0  0  0  0  0  0
    3.8603   -4.8941   -3.3326 C   0  0  0  0  0  0  0  0  0  0  0  0
    6.3776   -5.1191   -0.6216 C   0  0  0  0  0  0  0  0  0  0  0  0
    7.4691   -5.7393   -0.1114 C   0  0  0  0  0  0  0  0  0  0  0  0
    7.8337   -7.0738   -0.4984 C   0  0  0  0  0  0  0  0  0  0  0  0
    8.1330   -8.1523   -0.8049 N   0  0  0  0  0  0  0  0  0  0  0  0
    8.4203   -5.0587    0.7307 C   0  0  0  0  0  0  0  0  0  0  0  0
    9.1966   -4.5264    1.4079 N   0  0  0  0  0  0  0  0  0  0  0  0
   -7.0063    4.7640   -1.9486 H   0  0  0  0  0  0  0  0  0  0  0  0
   -7.4621    1.2717    3.0131 H   0  0  0  0  0  0  0  0  0  0  0  0
   -6.2969   -1.6513    2.8432 H   0  0  0  0  0  0  0  0  0  0  0  0
   -7.9525   -2.3785    2.8234 H   0  0  0  0  0  0  0  0  0  0  0  0
   -7.6073   -0.9779    3.8869 H   0  0  0  0  0  0  0  0  0  0  0  0
   -7.8605   -2.5882   -0.9797 H   0  0  0  0  0  0  0  0  0  0  0  0
   -7.0626   -2.9041    0.5917 H   0  0  0  0  0  0  0  0  0  0  0  0
   -8.8701   -2.9096    0.4826 H   0  0  0  0  0  0  0  0  0  0  0  0
   -8.3971   -0.3814   -1.5865 H   0  0  0  0  0  0  0  0  0  0  0  0
   -6.7400    6.9773    0.7033 H   0  0  0  0  0  0  0  0  0  0  0  0
   -5.1941    7.5947    1.3878 H   0  0  0  0  0  0  0  0  0  0  0  0
   -5.8452    7.3725   -1.6231 H   0  0  0  0  0  0  0  0  0  0  0  0
   -5.8566    8.8812   -0.6397 H   0  0  0  0  0  0  0  0  0  0  0  0
   -4.3058    7.9966   -0.9150 H   0  0  0  0  0  0  0  0  0  0  0  0
    7.7635    0.9146    1.3284 H   0  0  0  0  0  0  0  0  0  0  0  0
    8.1312   -0.7989    0.9399 H   0  0  0  0  0  0  0  0  0  0  0  0
    7.3858   -1.4799    3.2588 H   0  0  0  0  0  0  0  0  0  0  0  0
    7.0509    0.2642    3.6364 H   0  0  0  0  0  0  0  0  0  0  0  0
    8.7392   -0.2866    3.2901 H   0  0  0  0  0  0  0  0  0  0  0  0
   -2.3673    1.4162   -0.7166 H   0  0  0  0  0  0  0  0  0  0  0  0
   -0.5918    1.2544   -0.8407 H   0  0  0  0  0  0  0  0  0  0  0  0
   -2.1983    3.5844   -1.9904 H   0  0  0  0  0  0  0  0  0  0  0  0
   -1.3779    2.2479   -2.8855 H   0  0  0  0  0  0  0  0  0  0  0  0
   -0.3866    3.4612   -1.9668 H   0  0  0  0  0  0  0  0  0  0  0  0
    0.9927   -0.4842    1.9943 H   0  0  0  0  0  0  0  0  0  0  0  0
   -0.4087    0.3673    1.3367 H   0  0  0  0  0  0  0  0  0  0  0  0
    0.9867   -1.9290    0.2203 H   0  0  0  0  0  0  0  0  0  0  0  0
   -0.4693   -1.1076   -0.4194 H   0  0  0  0  0  0  0  0  0  0  0  0
    1.1738   -0.5663   -0.9477 H   0  0  0  0  0  0  0  0  0  0  0  0
    6.8567   -3.1628    1.3597 H   0  0  0  0  0  0  0  0  0  0  0  0
    5.5043   -7.8066   -1.3019 H   0  0  0  0  0  0  0  0  0  0  0  0
    3.8972   -8.3219   -3.0814 H   0  0  0  0  0  0  0  0  0  0  0  0
    2.3655   -7.5779   -4.8679 H   0  0  0  0  0  0  0  0  0  0  0  0
    1.2957   -5.7581   -6.1400 H   0  0  0  0  0  0  0  0  0  0  0  0
    1.8497   -3.4004   -5.6508 H   0  0  0  0  0  0  0  0  0  0  0  0
    3.4460   -2.8321   -3.8895 H   0  0  0  0  0  0  0  0  0  0  0  0
  1  2  2  3
  2  3  1  0
  3  4  2  0
  3  5  1  0
  5  6  2  0
  6  7  1  0
  7  8  1  0
  7  9  2  0
  9 10  1  0
  9 11  1  0
 11 12  2  0
 12 13  1  0
 13 14  2  3
 14 15  1  0
 15 16  3  0
 14 17  1  0
 17 18  3  0
  1 19  1  0
 19 20  2  0
 20 21  1  0
 21 22  1  0
 20 23  1  0
 23 24  1  0
 24 25  1  0
 25 26  1  0
 26 27  1  0
 27 28  1  0
 28 29  2  0
 29 30  1  0
 30 31  1  0
 28 32  1  0
 32 33  1  0
 33 34  1  0
 34 35  1  0
 35 36  1  0
 36 37  1  0
 37 38  1  0
 36 39  2  0
 39 40  1  0
 40 41  1  0
 41 42  1  0
 42 43  1  0
 43 44  1  0
 44 45  1  0
 45 46  1  0
 46 47  1  0
 47 48  1  0
 48 49  1  0
 46 50  1  0
 50 51  1  0
 43 52  1  0
 52 53  1  0
 39 54  1  0
 54 55  2  3
 55 56  1  0
 56 57  2  0
 56 58  1  0
 58 59  2  0
 59 60  1  0
 60 61  2  0
 61 62  1  0
 62 63  2  0
 63 64  1  0
 64 65  2  0
 65 66  1  0
 66 67  2  0
 59 68  1  0
 68 69  2  3
 69 70  1  0
 70 71  3  0
 69 72  1  0
 72 73  3  0
 13  2  1  0
 49 19  1  0
 68 55  1  0
 12  5  1  0
 48 23  2  0
 67 58  1  0
 47 25  2  0
 67 62  1  0
 45 26  2  0
 31 27  2  0
 44 32  2  0
 42 33  2  0
 41 35  2  0
  1 74  1  0
  6 75  1  0
  8 76  1  0
  8 77  1  0
  8 78  1  0
 10 79  1  0
 10 80  1  0
 10 81  1  0
 11 82  1  0
 21 83  1  0
 21 84  1  0
 22 85  1  0
 22 86  1  0
 22 87  1  0
 37 88  1  0
 37 89  1  0
 38 90  1  0
 38 91  1  0
 38 92  1  0
 50 93  1  0
 50 94  1  0
 51 95  1  0
 51 96  1  0
 51 97  1  0
 52 98  1  0
 52 99  1  0
 53100  1  0
 53101  1  0
 53102  1  0
 54103  1  0
 60104  1  0
 61105  1  0
 63106  1  0
 64107  1  0
 65108  1  0
 66109  1  0
M  END

