
     RDKit          3D

158173  0  0  0  0  0  0  0  0999 V2000
    5.0858    6.3526    0.4603 C   0  0  0  0  0  0  0  0  0  0  0  0
    4.3290    7.4429    0.2234 C   0  0  0  0  0  0  0  0  0  0  0  0
    2.9523    7.4404   -0.2728 C   0  0  0  0  0  0  0  0  0  0  0  0
    2.1124    6.5123   -0.1479 O   0  0  0  0  0  0  0  0  0  0  0  0
    2.6890    8.7250   -0.8870 C   0  0  0  0  0  0  0  0  0  0  0  0
    1.5847    9.1006   -1.6410 C   0  0  0  0  0  0  0  0  0  0  0  0
    1.5851   10.3574   -2.2761 C   0  0  0  0  0  0  0  0  0  0  0  0
    0.4057   10.7321   -3.1366 C   0  0  0  0  0  0  0  0  0  0  0  0
    2.7370   11.1921   -2.1767 C   0  0  0  0  0  0  0  0  0  0  0  0
    2.8130   12.5002   -2.9208 C   0  0  0  0  0  0  0  0  0  0  0  0
    3.8348   10.7799   -1.3914 C   0  0  0  0  0  0  0  0  0  0  0  0
    3.7821    9.5516   -0.7160 C   0  0  0  0  0  0  0  0  0  0  0  0
    4.8102    8.8576    0.1104 C   0  0  0  0  0  0  0  0  0  0  0  0
    5.8416    9.4355    0.7819 C   0  0  0  0  0  0  0  0  0  0  0  0
    6.6433    8.7096    1.7311 C   0  0  0  0  0  0  0  0  0  0  0  0
    7.2977    8.1440    2.5025 N   0  0  0  0  0  0  0  0  0  0  0  0
    6.1037   10.8497    0.7247 C   0  0  0  0  0  0  0  0  0  0  0  0
    6.3303   11.9871    0.6858 N   0  0  0  0  0  0  0  0  0  0  0  0
    4.6609    4.9774    0.1493 C   0  0  0  0  0  0  0  0  0  0  0  0
    3.9576    4.4764   -1.3284 S   0  0  0  0  0  0  0  0  0  0  0  0
    4.0613    2.8590   -0.9289 C   0  0  0  0  0  0  0  0  0  0  0  0
    3.3824    1.7233   -1.2525 C   0  0  0  0  0  0  0  0  0  0  0  0
    1.8866    1.4863   -2.0135 S   0  0  0  0  0  0  0  0  0  0  0  0
    1.6482    0.0718   -1.1101 C   0  0  0  0  0  0  0  0  0  0  0  0
    0.5470   -0.8226   -0.8878 C   0  0  0  0  0  0  0  0  0  0  0  0
   -0.7854   -0.6719   -1.2905 C   0  0  0  0  0  0  0  0  0  0  0  0
   -1.7454   -1.4216   -0.5981 C   0  0  0  0  0  0  0  0  0  0  0  0
   -3.2614   -1.4405   -0.8042 C   0  0  0  0  0  0  0  0  0  0  0  0
   -3.7958   -0.0023   -0.8028 C   0  0  0  0  0  0  0  0  0  0  0  0
   -4.0048    0.7020    0.4056 C   0  0  0  0  0  0  0  0  0  0  0  0
   -4.4522    2.0275    0.3920 C   0  0  0  0  0  0  0  0  0  0  0  0
   -4.6810    2.6882   -0.8227 C   0  0  0  0  0  0  0  0  0  0  0  0
   -5.1657    4.1134   -0.8331 C   0  0  0  0  0  0  0  0  0  0  0  0
   -3.9973    5.0897   -0.7344 C   0  0  0  0  0  0  0  0  0  0  0  0
   -4.4051    2.0233   -2.0258 C   0  0  0  0  0  0  0  0  0  0  0  0
   -3.9568    0.6991   -2.0141 C   0  0  0  0  0  0  0  0  0  0  0  0
   -3.7079   -2.2676   -2.0166 C   0  0  0  0  0  0  0  0  0  0  0  0
   -2.8240   -3.1260   -2.7081 C   0  0  0  0  0  0  0  0  0  0  0  0
   -3.2943   -3.9768   -3.7118 C   0  0  0  0  0  0  0  0  0  0  0  0
   -4.6573   -4.0111   -4.0334 C   0  0  0  0  0  0  0  0  0  0  0  0
   -5.1609   -4.9420   -5.1063 C   0  0  0  0  0  0  0  0  0  0  0  0
   -5.0669   -4.2866   -6.4785 C   0  0  0  0  0  0  0  0  0  0  0  0
   -5.5429   -3.1545   -3.3642 C   0  0  0  0  0  0  0  0  0  0  0  0
   -5.0762   -2.3023   -2.3607 C   0  0  0  0  0  0  0  0  0  0  0  0
   -3.6519   -2.2267    0.4267 C   0  0  0  0  0  0  0  0  0  0  0  0
   -2.5730   -2.6648    1.1142 C   0  0  0  0  0  0  0  0  0  0  0  0
   -1.3659   -2.1900    0.5024 C   0  0  0  0  0  0  0  0  0  0  0  0
   -0.0370   -2.3399    0.9086 C   0  0  0  0  0  0  0  0  0  0  0  0
    0.9560   -1.7042    0.1278 C   0  0  0  0  0  0  0  0  0  0  0  0
    2.5010   -1.6546    0.2630 C   0  0  0  0  0  0  0  0  0  0  0  0
    3.1368   -2.0806    1.5957 C   0  0  0  0  0  0  0  0  0  0  0  0
    4.4097   -1.5986    1.9604 C   0  0  0  0  0  0  0  0  0  0  0  0
    5.0433   -2.0191    3.1335 C   0  0  0  0  0  0  0  0  0  0  0  0
    4.4703   -3.0190    3.9235 C   0  0  0  0  0  0  0  0  0  0  0  0
    5.1256   -3.4488    5.2080 C   0  0  0  0  0  0  0  0  0  0  0  0
    4.4165   -2.8343    6.4132 C   0  0  0  0  0  0  0  0  0  0  0  0
    3.3103   -3.6565    3.4658 C   0  0  0  0  0  0  0  0  0  0  0  0
    2.6977   -3.2350    2.2812 C   0  0  0  0  0  0  0  0  0  0  0  0
    3.1366   -2.5585   -0.8121 C   0  0  0  0  0  0  0  0  0  0  0  0
    2.5158   -3.7540   -1.2320 C   0  0  0  0  0  0  0  0  0  0  0  0
    3.0927   -4.5477   -2.2281 C   0  0  0  0  0  0  0  0  0  0  0  0
    4.3089   -4.1756   -2.8185 C   0  0  0  0  0  0  0  0  0  0  0  0
    4.9345   -5.0234   -3.8943 C   0  0  0  0  0  0  0  0  0  0  0  0
    5.8192   -6.1116   -3.2912 C   0  0  0  0  0  0  0  0  0  0  0  0
    4.9756   -3.0354   -2.3546 C   0  0  0  0  0  0  0  0  0  0  0  0
    4.3993   -2.2392   -1.3636 C   0  0  0  0  0  0  0  0  0  0  0  0
    2.6316   -0.1871   -0.1923 C   0  0  0  0  0  0  0  0  0  0  0  0
    3.5925    0.8371   -0.2116 C   0  0  0  0  0  0  0  0  0  0  0  0
    4.2232    1.4691    0.8307 N   0  0  0  0  0  0  0  0  0  0  0  0
    4.5579    2.6813    0.3160 C   0  0  0  0  0  0  0  0  0  0  0  0
    4.9221    3.8657    0.9624 C   0  0  0  0  0  0  0  0  0  0  0  0
    3.9235    1.3034    2.2272 C   0  0  0  0  0  0  0  0  0  0  0  0
    4.8497    1.3657    3.2583 C   0  0  0  0  0  0  0  0  0  0  0  0
    4.2812    1.1390    4.5137 C   0  0  0  0  0  0  0  0  0  0  0  0
    2.9084    0.9068    4.4627 C   0  0  0  0  0  0  0  0  0  0  0  0
    2.0325    0.5907    5.6393 C   0  0  0  0  0  0  0  0  0  0  0  0
    1.2521   -0.7004    5.4046 C   0  0  0  0  0  0  0  0  0  0  0  0
    2.3925    1.0152    2.8656 S   0  0  0  0  0  0  0  0  0  0  0  0
   -3.0169   -3.4593    2.5236 S   0  0  0  0  0  0  0  0  0  0  0  0
   -4.6783   -3.3042    2.1866 C   0  0  0  0  0  0  0  0  0  0  0  0
   -4.8705   -2.5662    1.0088 C   0  0  0  0  0  0  0  0  0  0  0  0
   -5.7444   -3.7056    3.1197 C   0  0  0  0  0  0  0  0  0  0  0  0
   -6.9275   -4.2200    2.7337 C   0  0  0  0  0  0  0  0  0  0  0  0
   -7.1913   -4.8772    1.4445 C   0  0  0  0  0  0  0  0  0  0  0  0
   -6.4009   -4.9426    0.4661 O   0  0  0  0  0  0  0  0  0  0  0  0
   -8.4596   -5.5802    1.5377 C   0  0  0  0  0  0  0  0  0  0  0  0
   -9.0837   -6.3961    0.5867 C   0  0  0  0  0  0  0  0  0  0  0  0
   -8.3938   -6.6685   -1.0090 Cl  0  0  0  0  0  0  0  0  0  0  0  0
  -10.2855   -7.0243    0.9330 C   0  0  0  0  0  0  0  0  0  0  0  0
  -10.8372   -6.8467    2.2145 C   0  0  0  0  0  0  0  0  0  0  0  0
  -12.4656   -7.7293    2.6778 Br  0  0  0  0  0  0  0  0  0  0  0  0
  -10.1885   -6.0353    3.1605 C   0  0  0  0  0  0  0  0  0  0  0  0
   -9.0025   -5.3798    2.8002 C   0  0  0  0  0  0  0  0  0  0  0  0
   -8.1252   -4.4670    3.5899 C   0  0  0  0  0  0  0  0  0  0  0  0
   -8.4657   -3.7853    4.7174 C   0  0  0  0  0  0  0  0  0  0  0  0
   -7.6395   -2.7417    5.2684 C   0  0  0  0  0  0  0  0  0  0  0  0
   -6.9848   -1.8990    5.7160 N   0  0  0  0  0  0  0  0  0  0  0  0
   -9.7313   -3.9556    5.3800 C   0  0  0  0  0  0  0  0  0  0  0  0
  -10.7448   -4.0765    5.9273 N   0  0  0  0  0  0  0  0  0  0  0  0
    6.1087    6.4520    0.7812 H   0  0  0  0  0  0  0  0  0  0  0  0
    0.7571    8.4100   -1.7634 H   0  0  0  0  0  0  0  0  0  0  0  0
   -0.5083   10.1868   -2.8134 H   0  0  0  0  0  0  0  0  0  0  0  0
    0.1881   11.8170   -3.0606 H   0  0  0  0  0  0  0  0  0  0  0  0
    0.6251   10.4732   -4.1917 H   0  0  0  0  0  0  0  0  0  0  0  0
    3.8359   12.9314   -2.8943 H   0  0  0  0  0  0  0  0  0  0  0  0
    2.1090   13.2269   -2.4646 H   0  0  0  0  0  0  0  0  0  0  0  0
    2.5425   12.3429   -3.9874 H   0  0  0  0  0  0  0  0  0  0  0  0
    4.7199   11.3969   -1.3540 H   0  0  0  0  0  0  0  0  0  0  0  0
   -1.0681    0.0439   -2.0500 H   0  0  0  0  0  0  0  0  0  0  0  0
   -3.8179    0.2351    1.3629 H   0  0  0  0  0  0  0  0  0  0  0  0
   -4.6155    2.5450    1.3305 H   0  0  0  0  0  0  0  0  0  0  0  0
   -5.8577    4.2821    0.0182 H   0  0  0  0  0  0  0  0  0  0  0  0
   -5.7352    4.3165   -1.7654 H   0  0  0  0  0  0  0  0  0  0  0  0
   -3.4513    4.9385    0.2208 H   0  0  0  0  0  0  0  0  0  0  0  0
   -4.3809    6.1327   -0.7648 H   0  0  0  0  0  0  0  0  0  0  0  0
   -3.2942    4.9446   -1.5844 H   0  0  0  0  0  0  0  0  0  0  0  0
   -4.5330    2.5307   -2.9774 H   0  0  0  0  0  0  0  0  0  0  0  0
   -3.7385    0.2226   -2.9610 H   0  0  0  0  0  0  0  0  0  0  0  0
   -1.7722   -3.1654   -2.4628 H   0  0  0  0  0  0  0  0  0  0  0  0
   -2.5979   -4.6256   -4.2250 H   0  0  0  0  0  0  0  0  0  0  0  0
   -4.5632   -5.8798   -5.1062 H   0  0  0  0  0  0  0  0  0  0  0  0
   -6.2164   -5.2283   -4.9071 H   0  0  0  0  0  0  0  0  0  0  0  0
   -5.4318   -4.9921   -7.2540 H   0  0  0  0  0  0  0  0  0  0  0  0
   -5.6993   -3.3706   -6.5099 H   0  0  0  0  0  0  0  0  0  0  0  0
   -4.0156   -4.0150   -6.7086 H   0  0  0  0  0  0  0  0  0  0  0  0
   -6.6007   -3.1699   -3.6030 H   0  0  0  0  0  0  0  0  0  0  0  0
   -5.7934   -1.6834   -1.8359 H   0  0  0  0  0  0  0  0  0  0  0  0
    0.1496   -2.8642    1.8268 H   0  0  0  0  0  0  0  0  0  0  0  0
    4.9483   -0.9187    1.3207 H   0  0  0  0  0  0  0  0  0  0  0  0
    5.9901   -1.5741    3.4125 H   0  0  0  0  0  0  0  0  0  0  0  0
    5.1007   -4.5543    5.2938 H   0  0  0  0  0  0  0  0  0  0  0  0
    6.1928   -3.1425    5.2214 H   0  0  0  0  0  0  0  0  0  0  0  0
    4.4047   -1.7231    6.3392 H   0  0  0  0  0  0  0  0  0  0  0  0
    4.9533   -3.1188    7.3430 H   0  0  0  0  0  0  0  0  0  0  0  0
    3.3711   -3.2074    6.4810 H   0  0  0  0  0  0  0  0  0  0  0  0
    2.9152   -4.5167    3.9926 H   0  0  0  0  0  0  0  0  0  0  0  0
    1.9447   -3.8829    1.8613 H   0  0  0  0  0  0  0  0  0  0  0  0
    1.5778   -4.0804   -0.7984 H   0  0  0  0  0  0  0  0  0  0  0  0
    2.5857   -5.4488   -2.5502 H   0  0  0  0  0  0  0  0  0  0  0  0
    5.5500   -4.3886   -4.5716 H   0  0  0  0  0  0  0  0  0  0  0  0
    4.1433   -5.4940   -4.5158 H   0  0  0  0  0  0  0  0  0  0  0  0
    6.5850   -5.6649   -2.6252 H   0  0  0  0  0  0  0  0  0  0  0  0
    6.3349   -6.6615   -4.1078 H   0  0  0  0  0  0  0  0  0  0  0  0
    5.2023   -6.8280   -2.7060 H   0  0  0  0  0  0  0  0  0  0  0  0
    5.9375   -2.7564   -2.7665 H   0  0  0  0  0  0  0  0  0  0  0  0
    4.9356   -1.3620   -1.0416 H   0  0  0  0  0  0  0  0  0  0  0  0
    5.2927    3.9300    1.9737 H   0  0  0  0  0  0  0  0  0  0  0  0
    5.9067    1.5413    3.1028 H   0  0  0  0  0  0  0  0  0  0  0  0
    4.8630    1.1161    5.4293 H   0  0  0  0  0  0  0  0  0  0  0  0
    2.6595    0.4668    6.5506 H   0  0  0  0  0  0  0  0  0  0  0  0
    1.3246    1.4356    5.8116 H   0  0  0  0  0  0  0  0  0  0  0  0
    1.9392   -1.5229    5.1054 H   0  0  0  0  0  0  0  0  0  0  0  0
    0.7250   -0.9975    6.3377 H   0  0  0  0  0  0  0  0  0  0  0  0
    0.4945   -0.5496    4.6040 H   0  0  0  0  0  0  0  0  0  0  0  0
   -5.8328   -2.2673    0.6197 H   0  0  0  0  0  0  0  0  0  0  0  0
   -5.5302   -3.5702    4.1655 H   0  0  0  0  0  0  0  0  0  0  0  0
  -10.7854   -7.6607    0.2130 H   0  0  0  0  0  0  0  0  0  0  0  0
  -10.6044   -5.9724    4.1473 H   0  0  0  0  0  0  0  0  0  0  0  0
  1  2  2  3
  2  3  1  0
  3  4  2  0
  3  5  1  0
  5  6  2  0
  6  7  1  0
  7  8  1  0
  7  9  2  0
  9 10  1  0
  9 11  1  0
 11 12  2  0
 12 13  1  0
 13 14  2  3
 14 15  1  0
 15 16  3  0
 14 17  1  0
 17 18  3  0
  1 19  1  0
 19 20  1  0
 20 21  1  0
 21 22  1  0
 22 23  1  0
 23 24  1  0
 24 25  1  0
 25 26  2  0
 26 27  1  0
 27 28  1  0
 28 29  1  0
 29 30  2  0
 30 31  1  0
 31 32  2  0
 32 33  1  0
 33 34  1  0
 32 35  1  0
 35 36  2  0
 28 37  1  0
 37 38  2  0
 38 39  1  0
 39 40  2  0
 40 41  1  0
 41 42  1  0
 40 43  1  0
 43 44  2  0
 28 45  1  0
 45 46  2  0
 46 47  1  0
 47 48  1  0
 48 49  2  0
 49 50  1  0
 50 51  1  0
 51 52  2  0
 52 53  1  0
 53 54  2  0
 54 55  1  0
 55 56  1  0
 54 57  1  0
 57 58  2  0
 50 59  1  0
 59 60  2  0
 60 61  1  0
 61 62  2  0
 62 63  1  0
 63 64  1  0
 62 65  1  0
 65 66  2  0
 50 67  1  0
 67 68  1  0
 68 69  1  0
 69 70  1  0
 70 71  1  0
 69 72  1  0
 72 73  2  0
 73 74  1  0
 74 75  2  0
 75 76  1  0
 76 77  1  0
 75 78  1  0
 46 79  1  0
 79 80  1  0
 80 81  2  0
 80 82  1  0
 82 83  2  3
 83 84  1  0
 84 85  2  0
 84 86  1  0
 86 87  2  0
 87 88  1  0
 87 89  1  0
 89 90  2  0
 90 91  1  0
 90 92  1  0
 92 93  2  0
 93 94  1  0
 94 95  2  3
 95 96  1  0
 96 97  3  0
 95 98  1  0
 98 99  3  0
 13  2  1  0
 71 19  2  0
 78 72  1  0
 94 83  1  0
 12  5  1  0
 70 21  2  0
 93 86  1  0
 68 22  2  0
 67 24  2  0
 49 25  1  0
 58 51  1  0
 66 59  1  0
 47 27  2  0
 36 29  1  0
 44 37  1  0
 81 45  1  0
  1100  1  0
  6101  1  0
  8102  1  0
  8103  1  0
  8104  1  0
 10105  1  0
 10106  1  0
 10107  1  0
 11108  1  0
 26109  1  0
 30110  1  0
 31111  1  0
 33112  1  0
 33113  1  0
 34114  1  0
 34115  1  0
 34116  1  0
 35117  1  0
 36118  1  0
 38119  1  0
 39120  1  0
 41121  1  0
 41122  1  0
 42123  1  0
 42124  1  0
 42125  1  0
 43126  1  0
 44127  1  0
 48128  1  0
 52129  1  0
 53130  1  0
 55131  1  0
 55132  1  0
 56133  1  0
 56134  1  0
 56135  1  0
 57136  1  0
 58137  1  0
 60138  1  0
 61139  1  0
 63140  1  0
 63141  1  0
 64142  1  0
 64143  1  0
 64144  1  0
 65145  1  0
 66146  1  0
 71147  1  0
 73148  1  0
 74149  1  0
 76150  1  0
 76151  1  0
 77152  1  0
 77153  1  0
 77154  1  0
 81155  1  0
 82156  1  0
 89157  1  0
 92158  1  0
M  END

