
     RDKit          3D

108121  0  0  0  0  0  0  0  0999 V2000
    2.1227   -6.0721    4.8180 C   0  0  0  0  0  0  0  0  0  0  0  0
    3.3319   -5.6673    5.2607 C   0  0  0  0  0  0  0  0  0  0  0  0
    4.2668   -4.8121    4.5199 C   0  0  0  0  0  0  0  0  0  0  0  0
    4.0033   -4.1306    3.4964 O   0  0  0  0  0  0  0  0  0  0  0  0
    5.5636   -4.8834    5.1672 C   0  0  0  0  0  0  0  0  0  0  0  0
    6.7706   -4.3114    4.7577 C   0  0  0  0  0  0  0  0  0  0  0  0
    6.8299   -3.4987    3.6290 O   0  0  0  0  0  0  0  0  0  0  0  0
    7.9226   -4.5711    5.5184 C   0  0  0  0  0  0  0  0  0  0  0  0
    7.8546   -5.4108    6.6402 C   0  0  0  0  0  0  0  0  0  0  0  0
    6.6329   -5.9850    7.0274 C   0  0  0  0  0  0  0  0  0  0  0  0
    5.4733   -5.6951    6.2872 C   0  0  0  0  0  0  0  0  0  0  0  0
    4.0606   -6.1381    6.4789 C   0  0  0  0  0  0  0  0  0  0  0  0
    3.5119   -6.6297    7.6206 C   0  0  0  0  0  0  0  0  0  0  0  0
    2.0865   -6.7510    7.8049 C   0  0  0  0  0  0  0  0  0  0  0  0
    0.9467   -6.8459    7.9838 N   0  0  0  0  0  0  0  0  0  0  0  0
    4.2956   -6.9500    8.7884 C   0  0  0  0  0  0  0  0  0  0  0  0
    4.9129   -7.2142    9.7320 N   0  0  0  0  0  0  0  0  0  0  0  0
    1.5165   -5.5541    3.5803 C   0  0  0  0  0  0  0  0  0  0  0  0
    1.9790   -6.0666    2.0153 S   0  0  0  0  0  0  0  0  0  0  0  0
    1.0177   -4.9145    1.2838 C   0  0  0  0  0  0  0  0  0  0  0  0
    0.6698   -4.5100    0.0323 C   0  0  0  0  0  0  0  0  0  0  0  0
    0.9306   -5.0289   -1.2432 C   0  0  0  0  0  0  0  0  0  0  0  0
    0.2899   -4.4239   -2.3699 C   0  0  0  0  0  0  0  0  0  0  0  0
    0.5733   -4.9417   -3.5922 N   0  0  0  0  0  0  0  0  0  0  0  0
    1.6097   -6.1547   -3.1422 S   0  0  0  0  0  0  0  0  0  0  0  0
    1.7469   -6.0822   -1.4903 N   0  0  0  0  0  0  0  0  0  0  0  0
   -0.5425   -3.3153   -2.1546 C   0  0  0  0  0  0  0  0  0  0  0  0
   -1.1164   -2.4206   -3.0153 C   0  0  0  0  0  0  0  0  0  0  0  0
   -1.2624   -2.1345   -4.6854 S   0  0  0  0  0  0  0  0  0  0  0  0
   -1.9317   -0.5908   -4.3884 C   0  0  0  0  0  0  0  0  0  0  0  0
   -2.4501    0.4150   -5.2102 C   0  0  0  0  0  0  0  0  0  0  0  0
   -2.5101    0.3055   -6.7086 C   0  0  0  0  0  0  0  0  0  0  0  0
   -3.8332   -0.3038   -7.1544 C   0  0  0  0  0  0  0  0  0  0  0  0
   -2.9360    1.5062   -4.4463 C   0  0  0  0  0  0  0  0  0  0  0  0
   -2.6477    1.1855   -2.7922 S   0  0  0  0  0  0  0  0  0  0  0  0
   -1.9755   -0.3159   -3.0504 C   0  0  0  0  0  0  0  0  0  0  0  0
   -1.5384   -1.3702   -2.2695 C   0  0  0  0  0  0  0  0  0  0  0  0
   -1.2729   -1.5086   -0.9452 N   0  0  0  0  0  0  0  0  0  0  0  0
   -0.7364   -2.7677   -0.8773 C   0  0  0  0  0  0  0  0  0  0  0  0
   -0.2025   -3.4408    0.2403 C   0  0  0  0  0  0  0  0  0  0  0  0
   -0.5166   -3.2917    1.5648 N   0  0  0  0  0  0  0  0  0  0  0  0
    0.3192   -4.1765    2.1767 C   0  0  0  0  0  0  0  0  0  0  0  0
    0.5769   -4.5037    3.5200 C   0  0  0  0  0  0  0  0  0  0  0  0
    0.0841   -3.7684    4.7390 C   0  0  0  0  0  0  0  0  0  0  0  0
   -1.0855   -4.4982    5.3923 C   0  0  0  0  0  0  0  0  0  0  0  0
   -1.8753   -2.9722    2.0420 C   0  0  0  0  0  0  0  0  0  0  0  0
   -2.7848   -4.1949    1.9268 C   0  0  0  0  0  0  0  0  0  0  0  0
   -0.9370   -0.3808   -0.0673 C   0  0  0  0  0  0  0  0  0  0  0  0
    0.4058    0.2290   -0.4618 C   0  0  0  0  0  0  0  0  0  0  0  0
   -3.6685    2.6748   -5.0139 C   0  0  0  0  0  0  0  0  0  0  0  0
   -3.7871    3.9062   -4.4740 C   0  0  0  0  0  0  0  0  0  0  0  0
   -4.0050    5.0888   -5.3143 C   0  0  0  0  0  0  0  0  0  0  0  0
   -4.6322    5.1215   -6.4037 O   0  0  0  0  0  0  0  0  0  0  0  0
   -3.2968    6.2040   -4.7215 C   0  0  0  0  0  0  0  0  0  0  0  0
   -3.0721    7.4845   -5.2740 C   0  0  0  0  0  0  0  0  0  0  0  0
   -2.1797    8.2551   -4.5489 C   0  0  0  0  0  0  0  0  0  0  0  0
   -1.5321    7.7891   -3.3554 C   0  0  0  0  0  0  0  0  0  0  0  0
   -1.7743    6.5454   -2.7937 C   0  0  0  0  0  0  0  0  0  0  0  0
   -2.7183    5.7633   -3.5064 C   0  0  0  0  0  0  0  0  0  0  0  0
   -3.2120    4.4046   -3.1976 C   0  0  0  0  0  0  0  0  0  0  0  0
   -3.6915    4.0700   -1.9785 C   0  0  0  0  0  0  0  0  0  0  0  0
   -3.2413    4.7244   -0.7787 C   0  0  0  0  0  0  0  0  0  0  0  0
   -2.8829    5.2423    0.1923 N   0  0  0  0  0  0  0  0  0  0  0  0
   -4.8230    3.1842   -1.8376 C   0  0  0  0  0  0  0  0  0  0  0  0
   -5.7308    2.4735   -1.7323 N   0  0  0  0  0  0  0  0  0  0  0  0
   -0.7180    9.0464   -3.2909 C   0  0  0  0  0  0  0  0  0  0  0  0
    0.7676    8.9227   -3.7454 C   0  0  0  0  0  0  0  0  0  0  0  0
    1.2532   10.3365   -3.9482 C   0  0  0  0  0  0  0  0  0  0  0  0
    0.6293   10.8064   -5.0318 C   0  0  0  0  0  0  0  0  0  0  0  0
   -0.2509    9.6866   -5.5317 C   0  0  0  0  0  0  0  0  0  0  0  0
    0.6529    8.5111   -5.2048 C   0  0  0  0  0  0  0  0  0  0  0  0
   -1.3992    9.5365   -4.4931 C   0  0  0  0  0  0  0  0  0  0  0  0
    1.5453   -6.7994    5.3641 H   0  0  0  0  0  0  0  0  0  0  0  0
    7.6956   -3.0723    3.3266 H   0  0  0  0  0  0  0  0  0  0  0  0
    8.8690   -4.1338    5.2302 H   0  0  0  0  0  0  0  0  0  0  0  0
    8.7520   -5.6244    7.2070 H   0  0  0  0  0  0  0  0  0  0  0  0
    6.6332   -6.6661    7.8598 H   0  0  0  0  0  0  0  0  0  0  0  0
   -2.3844    1.3057   -7.1761 H   0  0  0  0  0  0  0  0  0  0  0  0
   -1.6772   -0.3337   -7.0704 H   0  0  0  0  0  0  0  0  0  0  0  0
   -3.8627   -0.3692   -8.2618 H   0  0  0  0  0  0  0  0  0  0  0  0
   -3.9385   -1.3290   -6.7428 H   0  0  0  0  0  0  0  0  0  0  0  0
   -4.6878    0.3147   -6.8081 H   0  0  0  0  0  0  0  0  0  0  0  0
    0.9012   -3.6885    5.4810 H   0  0  0  0  0  0  0  0  0  0  0  0
   -0.1902   -2.7256    4.4950 H   0  0  0  0  0  0  0  0  0  0  0  0
   -1.3972   -3.9559    6.3123 H   0  0  0  0  0  0  0  0  0  0  0  0
   -0.7801   -5.5285    5.6844 H   0  0  0  0  0  0  0  0  0  0  0  0
   -1.9560   -4.5519    4.7044 H   0  0  0  0  0  0  0  0  0  0  0  0
   -2.3383   -2.1769    1.4325 H   0  0  0  0  0  0  0  0  0  0  0  0
   -1.8550   -2.6062    3.0893 H   0  0  0  0  0  0  0  0  0  0  0  0
   -2.3789   -5.0436    2.5143 H   0  0  0  0  0  0  0  0  0  0  0  0
   -2.8622   -4.5206    0.8657 H   0  0  0  0  0  0  0  0  0  0  0  0
   -3.8030   -3.9491    2.2985 H   0  0  0  0  0  0  0  0  0  0  0  0
   -1.7321    0.3960   -0.1295 H   0  0  0  0  0  0  0  0  0  0  0  0
   -0.8491   -0.6954    0.9910 H   0  0  0  0  0  0  0  0  0  0  0  0
    0.3786    0.6254   -1.5003 H   0  0  0  0  0  0  0  0  0  0  0  0
    1.2027   -0.5421   -0.3954 H   0  0  0  0  0  0  0  0  0  0  0  0
    0.6633    1.0592    0.2268 H   0  0  0  0  0  0  0  0  0  0  0  0
   -4.0116    2.5630   -6.0327 H   0  0  0  0  0  0  0  0  0  0  0  0
   -3.4944    7.8095   -6.2141 H   0  0  0  0  0  0  0  0  0  0  0  0
   -1.2590    6.2097   -1.9079 H   0  0  0  0  0  0  0  0  0  0  0  0
   -0.8941    9.6519   -2.3733 H   0  0  0  0  0  0  0  0  0  0  0  0
    1.4133    8.2816   -3.1070 H   0  0  0  0  0  0  0  0  0  0  0  0
    2.0392   10.8464   -3.3957 H   0  0  0  0  0  0  0  0  0  0  0  0
    0.8070   11.7659   -5.5054 H   0  0  0  0  0  0  0  0  0  0  0  0
   -0.5731    9.7713   -6.5890 H   0  0  0  0  0  0  0  0  0  0  0  0
    1.6237    8.5385   -5.7538 H   0  0  0  0  0  0  0  0  0  0  0  0
    0.1869    7.5112   -5.3593 H   0  0  0  0  0  0  0  0  0  0  0  0
   -2.0298   10.4407   -4.3341 H   0  0  0  0  0  0  0  0  0  0  0  0
  1  2  2  3
  2  3  1  0
  3  4  2  0
  3  5  1  0
  5  6  2  0
  6  7  1  0
  6  8  1  0
  8  9  2  0
  9 10  1  0
 10 11  2  0
 11 12  1  0
 12 13  2  3
 13 14  1  0
 14 15  3  0
 13 16  1  0
 16 17  3  0
  1 18  1  0
 18 19  1  0
 19 20  1  0
 20 21  1  0
 21 22  1  0
 22 23  1  0
 23 24  2  0
 24 25  1  0
 25 26  1  0
 23 27  1  0
 27 28  1  0
 28 29  1  0
 29 30  1  0
 30 31  1  0
 31 32  1  0
 32 33  1  0
 31 34  2  0
 34 35  1  0
 35 36  1  0
 36 37  1  0
 37 38  1  0
 38 39  1  0
 39 40  1  0
 40 41  1  0
 41 42  1  0
 42 43  1  0
 43 44  1  0
 44 45  1  0
 41 46  1  0
 46 47  1  0
 38 48  1  0
 48 49  1  0
 34 50  1  0
 50 51  2  3
 51 52  1  0
 52 53  2  0
 52 54  1  0
 54 55  2  0
 55 56  1  0
 56 57  2  0
 57 58  1  0
 58 59  2  0
 59 60  1  0
 60 61  2  3
 61 62  1  0
 62 63  3  0
 61 64  1  0
 64 65  3  0
 57 66  1  0
 66 67  1  0
 67 68  1  0
 68 69  2  0
 69 70  1  0
 70 71  1  0
 70 72  1  0
 12  2  1  0
 43 18  2  0
 60 51  1  0
 72 66  1  0
 11  5  1  0
 42 20  2  0
 59 54  1  0
 71 67  1  0
 40 21  2  0
 72 56  1  0
 26 22  2  0
 39 27  2  0
 37 28  2  0
 36 30  2  0
  1 73  1  0
  7 74  1  0
  8 75  1  0
  9 76  1  0
 10 77  1  0
 32 78  1  0
 32 79  1  0
 33 80  1  0
 33 81  1  0
 33 82  1  0
 44 83  1  0
 44 84  1  0
 45 85  1  0
 45 86  1  0
 45 87  1  0
 46 88  1  0
 46 89  1  0
 47 90  1  0
 47 91  1  0
 47 92  1  0
 48 93  1  0
 48 94  1  0
 49 95  1  0
 49 96  1  0
 49 97  1  0
 50 98  1  0
 55 99  1  0
 58100  1  0
 66101  1  0
 67102  1  0
 68103  1  0
 69104  1  0
 70105  1  0
 71106  1  0
 71107  1  0
 72108  1  0
M  END

