
     RDKit          3D

114125  0  0  0  0  0  0  0  0999 V2000
    6.1415    4.2240   -1.4532 C   0  0  0  0  0  0  0  0  0  0  0  0
    5.8683    3.8170   -2.7127 C   0  0  0  0  0  0  0  0  0  0  0  0
    4.9762    2.7087   -3.0999 C   0  0  0  0  0  0  0  0  0  0  0  0
    4.4813    1.8314   -2.3438 O   0  0  0  0  0  0  0  0  0  0  0  0
    4.6595    2.8299   -4.5050 C   0  0  0  0  0  0  0  0  0  0  0  0
    3.8778    1.9740   -5.2890 C   0  0  0  0  0  0  0  0  0  0  0  0
    3.2930    0.8334   -4.7347 O   0  0  0  0  0  0  0  0  0  0  0  0
    3.7174    2.2764   -6.6495 C   0  0  0  0  0  0  0  0  0  0  0  0
    4.3429    3.4107   -7.1991 C   0  0  0  0  0  0  0  0  0  0  0  0
    5.1438    4.2394   -6.3991 C   0  0  0  0  0  0  0  0  0  0  0  0
    5.2863    3.9484   -5.0298 C   0  0  0  0  0  0  0  0  0  0  0  0
    6.1103    4.6026   -3.9684 C   0  0  0  0  0  0  0  0  0  0  0  0
    6.9674    5.6492   -4.1281 C   0  0  0  0  0  0  0  0  0  0  0  0
    7.9873    5.9661   -3.1625 C   0  0  0  0  0  0  0  0  0  0  0  0
    8.8160    6.2214   -2.3955 N   0  0  0  0  0  0  0  0  0  0  0  0
    6.9456    6.5025   -5.2860 C   0  0  0  0  0  0  0  0  0  0  0  0
    6.9179    7.2105   -6.2033 N   0  0  0  0  0  0  0  0  0  0  0  0
    5.7709    3.5091   -0.2173 C   0  0  0  0  0  0  0  0  0  0  0  0
    5.9329    1.8354    0.0858 S   0  0  0  0  0  0  0  0  0  0  0  0
    5.1838    1.9310    1.5804 C   0  0  0  0  0  0  0  0  0  0  0  0
    4.3444    1.1020    2.2809 C   0  0  0  0  0  0  0  0  0  0  0  0
    3.5328    1.9580    3.0329 C   0  0  0  0  0  0  0  0  0  0  0  0
    3.8442    3.2624    2.7975 N   0  0  0  0  0  0  0  0  0  0  0  0
    4.8199    3.2089    1.8605 C   0  0  0  0  0  0  0  0  0  0  0  0
    5.1458    4.1359    0.8696 C   0  0  0  0  0  0  0  0  0  0  0  0
    3.0247    4.4285    3.1275 C   0  0  0  0  0  0  0  0  0  0  0  0
    2.3662    1.4843    3.6461 C   0  0  0  0  0  0  0  0  0  0  0  0
    2.0352    0.1394    3.4218 C   0  0  0  0  0  0  0  0  0  0  0  0
    0.7650   -0.5316    3.6242 C   0  0  0  0  0  0  0  0  0  0  0  0
    0.7939   -1.7090    3.0434 C   0  0  0  0  0  0  0  0  0  0  0  0
    2.1177   -2.0231    2.3716 C   0  0  0  0  0  0  0  0  0  0  0  0
    1.9713   -2.2871    0.8434 C   0  0  0  0  0  0  0  0  0  0  0  0
    1.1942   -1.2118    0.0780 C   0  0  0  0  0  0  0  0  0  0  0  0
    2.7651   -3.2223    3.1131 C   0  0  0  0  0  0  0  0  0  0  0  0
    4.2047   -3.5352    2.7073 C   0  0  0  0  0  0  0  0  0  0  0  0
    2.8411   -0.7155    2.6581 C   0  0  0  0  0  0  0  0  0  0  0  0
    4.0189   -0.2389    2.0533 C   0  0  0  0  0  0  0  0  0  0  0  0
   -0.5574   -2.2270    2.9443 C   0  0  0  0  0  0  0  0  0  0  0  0
   -1.4127   -1.2645    3.4940 C   0  0  0  0  0  0  0  0  0  0  0  0
   -0.6232   -0.0872    4.0411 C   0  0  0  0  0  0  0  0  0  0  0  0
   -1.0637    1.2576    3.3916 C   0  0  0  0  0  0  0  0  0  0  0  0
   -0.8757    1.3214    1.8724 C   0  0  0  0  0  0  0  0  0  0  0  0
   -0.6650   -0.0450    5.5905 C   0  0  0  0  0  0  0  0  0  0  0  0
   -2.0058    0.3844    6.1980 C   0  0  0  0  0  0  0  0  0  0  0  0
   -2.8059   -1.3690    3.3342 C   0  0  0  0  0  0  0  0  0  0  0  0
   -3.2762   -2.5045    2.6790 C   0  0  0  0  0  0  0  0  0  0  0  0
   -4.5100   -2.7873    2.1669 C   0  0  0  0  0  0  0  0  0  0  0  0
   -5.8656   -1.8832    1.7788 S   0  0  0  0  0  0  0  0  0  0  0  0
   -6.3293   -2.9528    0.5303 C   0  0  0  0  0  0  0  0  0  0  0  0
   -5.4035   -4.0007    0.4114 C   0  0  0  0  0  0  0  0  0  0  0  0
   -4.3805   -3.8582    1.3469 C   0  0  0  0  0  0  0  0  0  0  0  0
   -3.1143   -4.3360    1.3383 N   0  0  0  0  0  0  0  0  0  0  0  0
   -2.5559   -5.2775    0.3725 C   0  0  0  0  0  0  0  0  0  0  0  0
   -2.4283   -3.4783    2.1423 C   0  0  0  0  0  0  0  0  0  0  0  0
   -1.0349   -3.3563    2.2579 C   0  0  0  0  0  0  0  0  0  0  0  0
   -7.4534   -2.6900   -0.3800 C   0  0  0  0  0  0  0  0  0  0  0  0
   -7.3233   -2.5877   -1.7183 C   0  0  0  0  0  0  0  0  0  0  0  0
   -6.0786   -2.7525   -2.4835 C   0  0  0  0  0  0  0  0  0  0  0  0
   -4.9053   -2.6437   -2.0372 O   0  0  0  0  0  0  0  0  0  0  0  0
   -6.4197   -2.9750   -3.8713 C   0  0  0  0  0  0  0  0  0  0  0  0
   -5.5789   -3.3406   -4.9262 C   0  0  0  0  0  0  0  0  0  0  0  0
   -4.2030   -3.4573   -4.7303 O   0  0  0  0  0  0  0  0  0  0  0  0
   -6.1589   -3.6048   -6.1781 C   0  0  0  0  0  0  0  0  0  0  0  0
   -7.5512   -3.5275   -6.3449 C   0  0  0  0  0  0  0  0  0  0  0  0
   -8.3775   -3.1674   -5.2674 C   0  0  0  0  0  0  0  0  0  0  0  0
   -7.7896   -2.8580   -4.0303 C   0  0  0  0  0  0  0  0  0  0  0  0
   -8.4186   -2.4799   -2.7320 C   0  0  0  0  0  0  0  0  0  0  0  0
   -9.6392   -1.9034   -2.5691 C   0  0  0  0  0  0  0  0  0  0  0  0
  -10.0832   -1.3622   -1.3095 C   0  0  0  0  0  0  0  0  0  0  0  0
  -10.4484   -0.9162   -0.3024 N   0  0  0  0  0  0  0  0  0  0  0  0
  -10.5163   -1.6372   -3.6787 C   0  0  0  0  0  0  0  0  0  0  0  0
  -11.2284   -1.4035   -4.5610 N   0  0  0  0  0  0  0  0  0  0  0  0
    6.5357    5.2146   -1.2891 H   0  0  0  0  0  0  0  0  0  0  0  0
    2.7398    0.1979   -5.2988 H   0  0  0  0  0  0  0  0  0  0  0  0
    3.1171    1.6330   -7.2818 H   0  0  0  0  0  0  0  0  0  0  0  0
    4.2220    3.6362   -8.2504 H   0  0  0  0  0  0  0  0  0  0  0  0
    5.6318    5.0717   -6.8732 H   0  0  0  0  0  0  0  0  0  0  0  0
    4.8348    5.1722    0.8750 H   0  0  0  0  0  0  0  0  0  0  0  0
    2.6689    4.3585    4.1777 H   0  0  0  0  0  0  0  0  0  0  0  0
    2.1506    4.4803    2.4430 H   0  0  0  0  0  0  0  0  0  0  0  0
    3.6221    5.3595    3.0327 H   0  0  0  0  0  0  0  0  0  0  0  0
    1.6995    2.1479    4.1708 H   0  0  0  0  0  0  0  0  0  0  0  0
    2.9765   -2.3627    0.3783 H   0  0  0  0  0  0  0  0  0  0  0  0
    1.4746   -3.2631    0.6707 H   0  0  0  0  0  0  0  0  0  0  0  0
    0.1303   -1.1853    0.3988 H   0  0  0  0  0  0  0  0  0  0  0  0
    1.6555   -0.2111    0.2196 H   0  0  0  0  0  0  0  0  0  0  0  0
    1.2135   -1.4485   -1.0067 H   0  0  0  0  0  0  0  0  0  0  0  0
    2.1517   -4.1319    2.9396 H   0  0  0  0  0  0  0  0  0  0  0  0
    2.7554   -3.0366    4.2071 H   0  0  0  0  0  0  0  0  0  0  0  0
    4.5682   -4.4123    3.2876 H   0  0  0  0  0  0  0  0  0  0  0  0
    4.2724   -3.7907    1.6290 H   0  0  0  0  0  0  0  0  0  0  0  0
    4.8774   -2.6822    2.9323 H   0  0  0  0  0  0  0  0  0  0  0  0
    4.5848   -0.8376    1.3517 H   0  0  0  0  0  0  0  0  0  0  0  0
   -2.1405    1.4391    3.6003 H   0  0  0  0  0  0  0  0  0  0  0  0
   -0.5155    2.1009    3.8565 H   0  0  0  0  0  0  0  0  0  0  0  0
    0.1948    1.2165    1.5986 H   0  0  0  0  0  0  0  0  0  0  0  0
   -1.4628    0.5223    1.3728 H   0  0  0  0  0  0  0  0  0  0  0  0
   -1.2284    2.3057    1.4949 H   0  0  0  0  0  0  0  0  0  0  0  0
   -0.4116   -1.0491    5.9941 H   0  0  0  0  0  0  0  0  0  0  0  0
    0.1158    0.6564    5.9567 H   0  0  0  0  0  0  0  0  0  0  0  0
   -1.9623    0.2497    7.2966 H   0  0  0  0  0  0  0  0  0  0  0  0
   -2.2040    1.4538    5.9939 H   0  0  0  0  0  0  0  0  0  0  0  0
   -2.8373   -0.2344    5.8221 H   0  0  0  0  0  0  0  0  0  0  0  0
   -3.4808   -0.5817    3.6387 H   0  0  0  0  0  0  0  0  0  0  0  0
   -5.4151   -4.7418   -0.3758 H   0  0  0  0  0  0  0  0  0  0  0  0
   -2.2568   -4.7352   -0.5489 H   0  0  0  0  0  0  0  0  0  0  0  0
   -3.3101   -6.0499    0.1139 H   0  0  0  0  0  0  0  0  0  0  0  0
   -1.6730   -5.7913    0.8052 H   0  0  0  0  0  0  0  0  0  0  0  0
   -0.3628   -4.0602    1.7915 H   0  0  0  0  0  0  0  0  0  0  0  0
   -8.4151   -2.5995    0.0952 H   0  0  0  0  0  0  0  0  0  0  0  0
   -3.5860   -3.7477   -5.4824 H   0  0  0  0  0  0  0  0  0  0  0  0
   -5.5350   -3.8901   -7.0169 H   0  0  0  0  0  0  0  0  0  0  0  0
   -7.9916   -3.7628   -7.3044 H   0  0  0  0  0  0  0  0  0  0  0  0
   -9.4466   -3.1750   -5.4113 H   0  0  0  0  0  0  0  0  0  0  0  0
  1  2  2  3
  2  3  1  0
  3  4  2  0
  3  5  1  0
  5  6  2  0
  6  7  1  0
  6  8  1  0
  8  9  2  0
  9 10  1  0
 10 11  2  0
 11 12  1  0
 12 13  2  3
 13 14  1  0
 14 15  3  0
 13 16  1  0
 16 17  3  0
  1 18  1  0
 18 19  1  0
 19 20  1  0
 20 21  1  0
 21 22  2  0
 22 23  1  0
 23 24  1  0
 24 25  1  0
 23 26  1  0
 22 27  1  0
 27 28  2  0
 28 29  1  0
 29 30  2  0
 30 31  1  0
 31 32  1  0
 32 33  1  0
 31 34  1  0
 34 35  1  0
 31 36  1  0
 36 37  2  0
 30 38  1  0
 38 39  2  0
 39 40  1  0
 40 41  1  0
 41 42  1  0
 40 43  1  0
 43 44  1  0
 39 45  1  0
 45 46  2  0
 46 47  1  0
 47 48  1  0
 48 49  1  0
 49 50  2  0
 50 51  1  0
 51 52  1  0
 52 53  1  0
 52 54  1  0
 54 55  2  0
 49 56  1  0
 56 57  2  3
 57 58  1  0
 58 59  2  0
 58 60  1  0
 60 61  2  0
 61 62  1  0
 61 63  1  0
 63 64  2  0
 64 65  1  0
 65 66  2  0
 66 67  1  0
 67 68  2  3
 68 69  1  0
 69 70  3  0
 68 71  1  0
 71 72  3  0
 12  2  1  0
 25 18  2  0
 36 28  1  0
 55 38  1  0
 67 57  1  0
 11  5  1  0
 24 20  2  0
 40 29  1  0
 54 46  1  0
 66 60  1  0
 37 21  1  0
 51 47  2  0
  1 73  1  0
  7 74  1  0
  8 75  1  0
  9 76  1  0
 10 77  1  0
 25 78  1  0
 26 79  1  0
 26 80  1  0
 26 81  1  0
 27 82  1  0
 32 83  1  0
 32 84  1  0
 33 85  1  0
 33 86  1  0
 33 87  1  0
 34 88  1  0
 34 89  1  0
 35 90  1  0
 35 91  1  0
 35 92  1  0
 37 93  1  0
 41 94  1  0
 41 95  1  0
 42 96  1  0
 42 97  1  0
 42 98  1  0
 43 99  1  0
 43100  1  0
 44101  1  0
 44102  1  0
 44103  1  0
 45104  1  0
 50105  1  0
 53106  1  0
 53107  1  0
 53108  1  0
 55109  1  0
 56110  1  0
 62111  1  0
 63112  1  0
 64113  1  0
 65114  1  0
M  END

