
     RDKit          3D

 99113  0  0  0  0  0  0  0  0999 V2000
   -2.0095   -1.7790   -7.8814 C   0  0  0  0  0  0  0  0  0  0  0  0
   -0.6592   -1.9439   -7.7819 C   0  0  0  0  0  0  0  0  0  0  0  0
    0.3379   -1.1967   -7.0937 C   0  0  0  0  0  0  0  0  0  0  0  0
    0.2381    0.0864   -6.9432 O   0  0  0  0  0  0  0  0  0  0  0  0
    1.4159   -2.0201   -6.6154 C   0  0  0  0  0  0  0  0  0  0  0  0
    2.5737   -1.7396   -5.9355 C   0  0  0  0  0  0  0  0  0  0  0  0
    2.8290   -0.4268   -5.5793 O   0  0  0  0  0  0  0  0  0  0  0  0
    3.4753   -2.7094   -5.6030 C   0  0  0  0  0  0  0  0  0  0  0  0
    3.2499   -4.0113   -5.9521 C   0  0  0  0  0  0  0  0  0  0  0  0
    2.0689   -4.2881   -6.6433 C   0  0  0  0  0  0  0  0  0  0  0  0
    1.1529   -3.3342   -6.9771 C   0  0  0  0  0  0  0  0  0  0  0  0
   -0.1534   -3.3536   -7.7237 C   0  0  0  0  0  0  0  0  0  0  0  0
   -0.6418   -4.4234   -8.2481 C   0  0  0  0  0  0  0  0  0  0  0  0
   -1.7260   -4.7344   -9.0777 C   0  0  0  0  0  0  0  0  0  0  0  0
   -2.6053   -5.0050   -9.7622 N   0  0  0  0  0  0  0  0  0  0  0  0
   -0.4233   -5.6056   -7.2734 C   0  0  0  0  0  0  0  0  0  0  0  0
   -0.2739   -6.5024   -6.5263 N   0  0  0  0  0  0  0  0  0  0  0  0
   -2.5392   -0.6825   -7.0858 C   0  0  0  0  0  0  0  0  0  0  0  0
   -3.0874    0.4404   -6.8237 C   0  0  0  0  0  0  0  0  0  0  0  0
   -3.4019    0.9380   -5.5824 C   0  0  0  0  0  0  0  0  0  0  0  0
   -4.1507    2.4172   -4.9605 S   0  0  0  0  0  0  0  0  0  0  0  0
   -4.0701    2.0720   -3.2838 C   0  0  0  0  0  0  0  0  0  0  0  0
   -4.2491    2.4868   -1.9760 C   0  0  0  0  0  0  0  0  0  0  0  0
   -4.8269    3.6437   -1.4681 C   0  0  0  0  0  0  0  0  0  0  0  0
   -4.8853    3.8082   -0.1268 C   0  0  0  0  0  0  0  0  0  0  0  0
   -5.4720    4.9383    0.3185 N   0  0  0  0  0  0  0  0  0  0  0  0
   -5.9241    5.7405   -1.0723 S   0  0  0  0  0  0  0  0  0  0  0  0
   -5.3796    4.6573   -2.2045 N   0  0  0  0  0  0  0  0  0  0  0  0
   -4.3418    2.8036    0.6743 C   0  0  0  0  0  0  0  0  0  0  0  0
   -4.1296    2.7786    2.0424 C   0  0  0  0  0  0  0  0  0  0  0  0
   -3.4585    1.6862    2.4318 C   0  0  0  0  0  0  0  0  0  0  0  0
   -3.2251    0.9597    1.2359 N   0  0  0  0  0  0  0  0  0  0  0  0
   -2.4014   -0.2043    1.3041 C   0  0  0  0  0  0  0  0  0  0  0  0
   -0.9104    0.2404    1.2942 C   0  0  0  0  0  0  0  0  0  0  0  0
   -3.7566    1.6342    0.2138 C   0  0  0  0  0  0  0  0  0  0  0  0
   -3.7277    1.4797   -1.1726 C   0  0  0  0  0  0  0  0  0  0  0  0
   -3.2757    0.4902   -1.9249 N   0  0  0  0  0  0  0  0  0  0  0  0
   -3.4853    0.8654   -3.2490 C   0  0  0  0  0  0  0  0  0  0  0  0
   -3.1619    0.3193   -4.4789 C   0  0  0  0  0  0  0  0  0  0  0  0
   -2.3505   -1.3104   -5.0976 Se  0  0  0  0  0  2  0  0  0  0  0  0
   -2.7441   -0.7905   -1.5757 C   0  0  0  0  0  0  0  0  0  0  0  0
   -1.2891   -0.8474   -1.6319 C   0  0  0  0  0  0  0  0  0  0  0  0
   -3.1120    1.6429    3.7488 C   0  0  0  0  0  0  0  0  0  0  0  0
   -3.4140    2.5958    4.5642 C   0  0  0  0  0  0  0  0  0  0  0  0
   -4.2770    3.6957    3.4870 S   0  0  0  0  0  0  0  0  0  0  0  0
   -3.0127    2.6951    5.8373 C   0  0  0  0  0  0  0  0  0  0  0  0
   -2.2464    1.8542    6.4844 C   0  0  0  0  0  0  0  0  0  0  0  0
   -2.0432    0.5518    4.8621 Se  0  0  0  0  0  2  0  0  0  0  0  0
   -1.5142    1.5937    7.6764 C   0  0  0  0  0  0  0  0  0  0  0  0
   -0.1697    1.4524    7.5657 C   0  0  0  0  0  0  0  0  0  0  0  0
    0.5388    1.5488    6.2999 C   0  0  0  0  0  0  0  0  0  0  0  0
    0.0247    1.7166    5.1584 O   0  0  0  0  0  0  0  0  0  0  0  0
    1.9713    1.4305    6.5595 C   0  0  0  0  0  0  0  0  0  0  0  0
    3.0074    1.4405    5.6308 C   0  0  0  0  0  0  0  0  0  0  0  0
    4.2863    1.3060    6.1055 C   0  0  0  0  0  0  0  0  0  0  0  0
    4.5604    1.1757    7.4683 C   0  0  0  0  0  0  0  0  0  0  0  0
    3.4972    1.1615    8.3330 C   0  0  0  0  0  0  0  0  0  0  0  0
    2.1927    1.2771    7.9146 C   0  0  0  0  0  0  0  0  0  0  0  0
    0.8557    1.2873    8.5857 C   0  0  0  0  0  0  0  0  0  0  0  0
    0.6287    1.1046    9.8611 C   0  0  0  0  0  0  0  0  0  0  0  0
   -0.6237    1.0280   10.4960 C   0  0  0  0  0  0  0  0  0  0  0  0
   -1.7088    0.9698   11.0362 N   0  0  0  0  0  0  0  0  0  0  0  0
    1.7650    0.9941   10.8222 C   0  0  0  0  0  0  0  0  0  0  0  0
    2.6666    0.9010   11.5938 N   0  0  0  0  0  0  0  0  0  0  0  0
    6.0289    1.2435    7.1427 C   0  0  0  0  0  0  0  0  0  0  0  0
    6.5169    2.7112    7.1511 C   0  0  0  0  0  0  0  0  0  0  0  0
    5.3987    3.5018    6.5587 C   0  0  0  0  0  0  0  0  0  0  0  0
    5.3920    3.4418    5.2500 C   0  0  0  0  0  0  0  0  0  0  0  0
    6.2838    2.2580    4.9582 C   0  0  0  0  0  0  0  0  0  0  0  0
    7.4296    2.6620    5.9210 C   0  0  0  0  0  0  0  0  0  0  0  0
    5.7109    1.0940    5.6854 C   0  0  0  0  0  0  0  0  0  0  0  0
   -2.6397   -2.3658   -8.4619 H   0  0  0  0  0  0  0  0  0  0  0  0
    3.6100   -0.0767   -5.0781 H   0  0  0  0  0  0  0  0  0  0  0  0
    4.4106   -2.4604   -5.0497 H   0  0  0  0  0  0  0  0  0  0  0  0
    3.9546   -4.7666   -5.6862 H   0  0  0  0  0  0  0  0  0  0  0  0
    1.9602   -5.3160   -6.9260 H   0  0  0  0  0  0  0  0  0  0  0  0
   -3.3295    1.0902   -7.7455 H   0  0  0  0  0  0  0  0  0  0  0  0
   -2.5527   -0.6140    2.3964 H   0  0  0  0  0  0  0  0  0  0  0  0
   -2.4950   -1.0822    0.7731 H   0  0  0  0  0  0  0  0  0  0  0  0
   -0.6797    0.7856    2.2679 H   0  0  0  0  0  0  0  0  0  0  0  0
   -0.7768    1.0333    0.5301 H   0  0  0  0  0  0  0  0  0  0  0  0
   -0.2297   -0.5662    1.1403 H   0  0  0  0  0  0  0  0  0  0  0  0
   -3.0745   -1.5250   -2.4611 H   0  0  0  0  0  0  0  0  0  0  0  0
   -3.3452   -1.2814   -0.8254 H   0  0  0  0  0  0  0  0  0  0  0  0
   -0.7743    0.1291   -1.5940 H   0  0  0  0  0  0  0  0  0  0  0  0
   -0.8060   -1.5194   -0.8657 H   0  0  0  0  0  0  0  0  0  0  0  0
   -0.8864   -1.3100   -2.5901 H   0  0  0  0  0  0  0  0  0  0  0  0
   -3.3365    3.5930    6.5239 H   0  0  0  0  0  0  0  0  0  0  0  0
   -2.0147    1.5318    8.5962 H   0  0  0  0  0  0  0  0  0  0  0  0
    2.8104    1.5600    4.5754 H   0  0  0  0  0  0  0  0  0  0  0  0
    3.7394    1.0413    9.3742 H   0  0  0  0  0  0  0  0  0  0  0  0
    6.6549    0.5321    7.6418 H   0  0  0  0  0  0  0  0  0  0  0  0
    6.9927    3.0491    8.0336 H   0  0  0  0  0  0  0  0  0  0  0  0
    4.6596    4.0844    7.1024 H   0  0  0  0  0  0  0  0  0  0  0  0
    4.9251    4.0156    4.4563 H   0  0  0  0  0  0  0  0  0  0  0  0
    6.5778    2.1350    3.9317 H   0  0  0  0  0  0  0  0  0  0  0  0
    7.7523    3.7105    5.6731 H   0  0  0  0  0  0  0  0  0  0  0  0
    8.2357    1.9375    5.9690 H   0  0  0  0  0  0  0  0  0  0  0  0
    5.8874    0.0876    5.2397 H   0  0  0  0  0  0  0  0  0  0  0  0
  1  2  2  3
  2  3  1  0
  3  4  2  0
  3  5  1  0
  5  6  2  0
  6  7  1  0
  6  8  1  0
  8  9  2  0
  9 10  1  0
 10 11  2  0
 11 12  1  0
 12 13  2  3
 13 14  1  0
 14 15  3  0
 13 16  1  0
 16 17  3  0
  1 18  1  0
 18 19  2  0
 19 20  1  0
 20 21  1  0
 21 22  1  0
 22 23  1  0
 23 24  1  0
 24 25  1  0
 25 26  2  0
 26 27  1  0
 27 28  1  0
 25 29  1  0
 29 30  1  0
 30 31  2  0
 31 32  1  0
 32 33  1  0
 33 34  1  0
 32 35  1  0
 35 36  1  0
 36 37  1  0
 37 38  1  0
 38 39  1  0
 39 40  1  0
 37 41  1  0
 41 42  1  0
 31 43  1  0
 43 44  2  0
 44 45  1  0
 44 46  1  0
 46 47  2  0
 47 48  1  0
 47 49  1  0
 49 50  2  3
 50 51  1  0
 51 52  2  0
 51 53  1  0
 53 54  2  0
 54 55  1  0
 55 56  2  0
 56 57  1  0
 57 58  2  0
 58 59  1  0
 59 60  2  3
 60 61  1  0
 61 62  3  0
 60 63  1  0
 63 64  3  0
 56 65  1  0
 65 66  1  0
 66 67  1  0
 67 68  2  0
 68 69  1  0
 69 70  1  0
 69 71  1  0
 12  2  1  0
 40 18  1  0
 48 43  1  0
 59 50  1  0
 71 65  1  0
 11  5  1  0
 39 20  2  0
 58 53  1  0
 70 66  1  0
 38 22  2  0
 71 55  1  0
 36 23  2  0
 28 24  2  0
 35 29  2  0
 45 30  1  0
  1 72  1  0
  7 73  1  0
  8 74  1  0
  9 75  1  0
 10 76  1  0
 19 77  1  0
 33 78  1  0
 33 79  1  0
 34 80  1  0
 34 81  1  0
 34 82  1  0
 41 83  1  0
 41 84  1  0
 42 85  1  0
 42 86  1  0
 42 87  1  0
 46 88  1  0
 49 89  1  0
 54 90  1  0
 57 91  1  0
 65 92  1  0
 66 93  1  0
 67 94  1  0
 68 95  1  0
 69 96  1  0
 70 97  1  0
 70 98  1  0
 71 99  1  0
M  END

