
     RDKit          3D

111125  0  0  0  0  0  0  0  0999 V2000
    8.2993    0.1388    1.2578 C   0  0  0  0  0  0  0  0  0  0  0  0
    8.7512   -1.0055    1.5987 C   0  0  0  0  0  0  0  0  0  0  0  0
    8.2420   -2.3762    1.2401 C   0  0  0  0  0  0  0  0  0  0  0  0
    7.1938   -2.5147    0.5608 O   0  0  0  0  0  0  0  0  0  0  0  0
    9.1415   -3.3685    1.8096 C   0  0  0  0  0  0  0  0  0  0  0  0
    9.0849   -4.7822    1.9065 C   0  0  0  0  0  0  0  0  0  0  0  0
    7.9779   -5.3298    1.1994 O   0  0  0  0  0  0  0  0  0  0  0  0
    9.9154   -5.5170    2.5772 C   0  0  0  0  0  0  0  0  0  0  0  0
   10.9621   -4.9006    3.2573 C   0  0  0  0  0  0  0  0  0  0  0  0
   11.0997   -3.5751    3.2260 C   0  0  0  0  0  0  0  0  0  0  0  0
   10.1386   -2.7502    2.4680 C   0  0  0  0  0  0  0  0  0  0  0  0
   10.0214   -1.2831    2.4022 C   0  0  0  0  0  0  0  0  0  0  0  0
   11.0021   -0.5047    2.7652 C   0  0  0  0  0  0  0  0  0  0  0  0
   12.0080    0.0963    3.1911 C   0  0  0  0  0  0  0  0  0  0  0  0
   12.9676    0.6609    3.5764 N   0  0  0  0  0  0  0  0  0  0  0  0
   10.6449    0.6635    1.4613 C   0  0  0  0  0  0  0  0  0  0  0  0
   10.4252    1.3910    0.6452 N   0  0  0  0  0  0  0  0  0  0  0  0
    7.2149    0.5573    0.4035 C   0  0  0  0  0  0  0  0  0  0  0  0
    7.2553    1.6714   -0.3372 C   0  0  0  0  0  0  0  0  0  0  0  0
    8.1029    2.9326    0.1004 C   0  0  0  0  0  0  0  0  0  0  0  0
    7.0096    3.8273    0.8333 C   0  0  0  0  0  0  0  0  0  0  0  0
    6.3280    1.9652   -1.2204 C   0  0  0  0  0  0  0  0  0  0  0  0
    5.9833    3.3943   -2.4402 Se  0  0  0  0  0  2  0  0  0  0  0  0
    4.2870    2.6252   -2.9338 C   0  0  0  0  0  0  0  0  0  0  0  0
    3.1173    3.0418   -3.5562 C   0  0  0  0  0  0  0  0  0  0  0  0
    2.7359    4.3415   -4.0209 C   0  0  0  0  0  0  0  0  0  0  0  0
    1.5017    4.6533   -4.0892 C   0  0  0  0  0  0  0  0  0  0  0  0
    1.1488    5.8844   -4.5175 N   0  0  0  0  0  0  0  0  0  0  0  0
    2.6874    6.5531   -4.8370 S   0  0  0  0  0  0  0  0  0  0  0  0
    3.6711    5.2172   -4.3886 N   0  0  0  0  0  0  0  0  0  0  0  0
    0.5381    3.6748   -3.7395 C   0  0  0  0  0  0  0  0  0  0  0  0
   -0.7967    3.7203   -3.5475 C   0  0  0  0  0  0  0  0  0  0  0  0
   -2.2903    5.0585   -3.3693 Se  0  0  0  0  0  2  0  0  0  0  0  0
   -3.4926    3.4885   -2.5645 C   0  0  0  0  0  0  0  0  0  0  0  0
   -4.6244    3.5493   -1.9992 C   0  0  0  0  0  0  0  0  0  0  0  0
   -5.6292    4.6771   -1.8819 C   0  0  0  0  0  0  0  0  0  0  0  0
   -5.0949    5.9406   -2.4788 C   0  0  0  0  0  0  0  0  0  0  0  0
   -4.9491    2.3683   -1.3297 C   0  0  0  0  0  0  0  0  0  0  0  0
   -3.5888    1.4278   -1.6693 S   0  0  0  0  0  0  0  0  0  0  0  0
   -2.6127    2.5992   -2.6547 C   0  0  0  0  0  0  0  0  0  0  0  0
   -1.3689    2.5966   -3.0780 C   0  0  0  0  0  0  0  0  0  0  0  0
   -0.1998    1.7523   -3.0220 N   0  0  0  0  0  0  0  0  0  0  0  0
    0.8387    2.4062   -3.3596 C   0  0  0  0  0  0  0  0  0  0  0  0
    2.2264    2.0638   -3.2129 C   0  0  0  0  0  0  0  0  0  0  0  0
    2.8653    1.1087   -2.4158 N   0  0  0  0  0  0  0  0  0  0  0  0
    4.1978    1.5642   -2.2784 C   0  0  0  0  0  0  0  0  0  0  0  0
    5.2573    1.1731   -1.3912 C   0  0  0  0  0  0  0  0  0  0  0  0
    5.7264   -0.0470   -0.2256 S   0  0  0  0  0  0  0  0  0  0  0  0
    2.3747   -0.0344   -1.7419 C   0  0  0  0  0  0  0  0  0  0  0  0
    2.5123   -1.3303   -2.5169 C   0  0  0  0  0  0  0  0  0  0  0  0
   -0.4111    0.3327   -3.0081 C   0  0  0  0  0  0  0  0  0  0  0  0
   -0.7151   -0.0061   -4.5278 C   0  0  0  0  0  0  0  0  0  0  0  0
   -5.9915    2.0133   -0.4421 C   0  0  0  0  0  0  0  0  0  0  0  0
   -6.5650    0.8567   -0.1978 C   0  0  0  0  0  0  0  0  0  0  0  0
   -6.1444   -0.3130   -0.8795 C   0  0  0  0  0  0  0  0  0  0  0  0
   -5.4473   -0.7937   -1.6512 O   0  0  0  0  0  0  0  0  0  0  0  0
   -7.2113   -1.5269   -0.1882 C   0  0  0  0  0  0  0  0  0  0  0  0
   -7.1460   -2.7590   -0.6504 C   0  0  0  0  0  0  0  0  0  0  0  0
   -8.2879   -3.6031    0.0400 C   0  0  0  0  0  0  0  0  0  0  0  0
   -8.8579   -2.7818    0.8272 C   0  0  0  0  0  0  0  0  0  0  0  0
   -8.9282   -1.5701    1.3075 C   0  0  0  0  0  0  0  0  0  0  0  0
   -7.8428   -0.7399    0.6180 C   0  0  0  0  0  0  0  0  0  0  0  0
   -7.6089    0.6498    0.7426 C   0  0  0  0  0  0  0  0  0  0  0  0
   -8.4257    1.6004    1.2715 C   0  0  0  0  0  0  0  0  0  0  0  0
   -9.4415    1.3136    2.2506 C   0  0  0  0  0  0  0  0  0  0  0  0
  -10.3725    1.0681    3.1561 N   0  0  0  0  0  0  0  0  0  0  0  0
   -8.5439    2.7363    0.6776 C   0  0  0  0  0  0  0  0  0  0  0  0
   -8.6738    4.0741   -0.0049 N   0  0  0  0  0  0  0  0  0  0  0  0
   -9.7696   -4.0386    1.2021 C   0  0  0  0  0  0  0  0  0  0  0  0
   -9.2810   -4.6633    2.4701 C   0  0  0  0  0  0  0  0  0  0  0  0
   -7.8515   -4.4495    2.6598 C   0  0  0  0  0  0  0  0  0  0  0  0
   -7.1326   -5.2054    1.7849 C   0  0  0  0  0  0  0  0  0  0  0  0
   -8.1620   -5.8714    0.9817 C   0  0  0  0  0  0  0  0  0  0  0  0
   -9.2397   -6.1651    2.0393 C   0  0  0  0  0  0  0  0  0  0  0  0
   -8.8943   -4.7830    0.1925 C   0  0  0  0  0  0  0  0  0  0  0  0
    8.6200    1.0305    1.8892 H   0  0  0  0  0  0  0  0  0  0  0  0
    7.3563   -4.8269    0.7031 H   0  0  0  0  0  0  0  0  0  0  0  0
    9.9126   -6.5659    2.6989 H   0  0  0  0  0  0  0  0  0  0  0  0
   11.6237   -5.5341    3.8192 H   0  0  0  0  0  0  0  0  0  0  0  0
   11.8857   -2.9697    3.7216 H   0  0  0  0  0  0  0  0  0  0  0  0
    8.4755    3.4535   -0.6825 H   0  0  0  0  0  0  0  0  0  0  0  0
    8.6851    2.6458    0.9779 H   0  0  0  0  0  0  0  0  0  0  0  0
    7.3871    4.2590    1.7185 H   0  0  0  0  0  0  0  0  0  0  0  0
    6.1308    3.2125    1.0931 H   0  0  0  0  0  0  0  0  0  0  0  0
    6.6133    4.5644    0.1004 H   0  0  0  0  0  0  0  0  0  0  0  0
   -5.8615    4.9520   -0.8374 H   0  0  0  0  0  0  0  0  0  0  0  0
   -6.5428    4.3853   -2.4814 H   0  0  0  0  0  0  0  0  0  0  0  0
   -4.1834    6.3091   -1.9929 H   0  0  0  0  0  0  0  0  0  0  0  0
   -5.9053    6.7295   -2.2518 H   0  0  0  0  0  0  0  0  0  0  0  0
   -4.9931    5.8564   -3.5897 H   0  0  0  0  0  0  0  0  0  0  0  0
    1.4980    0.0820   -1.1423 H   0  0  0  0  0  0  0  0  0  0  0  0
    3.0495   -0.2716   -0.8436 H   0  0  0  0  0  0  0  0  0  0  0  0
    3.4991   -1.8349   -2.4036 H   0  0  0  0  0  0  0  0  0  0  0  0
    2.4372   -1.1718   -3.6285 H   0  0  0  0  0  0  0  0  0  0  0  0
    1.7532   -2.0074   -2.1859 H   0  0  0  0  0  0  0  0  0  0  0  0
   -1.4110    0.1253   -2.5680 H   0  0  0  0  0  0  0  0  0  0  0  0
    0.2860   -0.3289   -2.8339 H   0  0  0  0  0  0  0  0  0  0  0  0
   -0.7631   -1.0693   -4.6955 H   0  0  0  0  0  0  0  0  0  0  0  0
   -1.6779    0.5123   -4.7274 H   0  0  0  0  0  0  0  0  0  0  0  0
    0.0548    0.5683   -5.0827 H   0  0  0  0  0  0  0  0  0  0  0  0
   -6.3547    2.8878    0.1664 H   0  0  0  0  0  0  0  0  0  0  0  0
   -6.5844   -3.3032   -1.2890 H   0  0  0  0  0  0  0  0  0  0  0  0
   -9.4617   -1.0383    2.0170 H   0  0  0  0  0  0  0  0  0  0  0  0
  -10.7920   -3.9525    0.9754 H   0  0  0  0  0  0  0  0  0  0  0  0
   -9.9280   -4.4981    3.3705 H   0  0  0  0  0  0  0  0  0  0  0  0
   -7.3448   -3.8308    3.3751 H   0  0  0  0  0  0  0  0  0  0  0  0
   -6.0840   -5.3384    1.7484 H   0  0  0  0  0  0  0  0  0  0  0  0
   -7.8211   -6.7296    0.4112 H   0  0  0  0  0  0  0  0  0  0  0  0
  -10.1495   -6.4694    1.5778 H   0  0  0  0  0  0  0  0  0  0  0  0
   -8.8676   -6.7522    2.8752 H   0  0  0  0  0  0  0  0  0  0  0  0
   -9.5532   -5.2254   -0.6281 H   0  0  0  0  0  0  0  0  0  0  0  0
  1  2  2  3
  2  3  1  0
  3  4  2  0
  3  5  1  0
  5  6  2  0
  6  7  1  0
  6  8  1  0
  8  9  2  0
  9 10  1  0
 10 11  2  0
 11 12  1  0
 12 13  2  3
 13 14  1  0
 14 15  3  0
 13 16  1  0
 16 17  3  0
  1 18  1  0
 18 19  2  0
 19 20  1  0
 20 21  1  0
 19 22  1  0
 22 23  1  0
 23 24  1  0
 24 25  1  0
 25 26  1  0
 26 27  1  0
 27 28  2  0
 28 29  1  0
 29 30  1  0
 27 31  1  0
 31 32  1  0
 32 33  1  0
 33 34  1  0
 34 35  1  0
 35 36  1  0
 36 37  1  0
 35 38  2  0
 38 39  1  0
 39 40  1  0
 40 41  1  0
 41 42  1  0
 42 43  1  0
 43 44  1  0
 44 45  1  0
 45 46  1  0
 46 47  1  0
 47 48  1  0
 45 49  1  0
 49 50  1  0
 42 51  1  0
 51 52  1  0
 38 53  1  0
 53 54  2  3
 54 55  1  0
 55 56  2  0
 55 57  1  0
 57 58  2  0
 58 59  1  0
 59 60  2  0
 60 61  1  0
 61 62  2  0
 62 63  1  0
 63 64  2  3
 64 65  1  0
 65 66  3  0
 64 67  1  0
 67 68  3  0
 60 69  1  0
 69 70  1  0
 70 71  1  0
 71 72  2  0
 72 73  1  0
 73 74  1  0
 73 75  1  0
 12  2  1  0
 48 18  1  0
 63 54  1  0
 75 69  1  0
 11  5  1  0
 47 22  2  0
 62 57  1  0
 74 70  1  0
 46 24  2  0
 75 59  1  0
 44 25  2  0
 30 26  2  0
 43 31  2  0
 41 32  2  0
 40 34  2  0
  1 76  1  0
  7 77  1  0
  8 78  1  0
  9 79  1  0
 10 80  1  0
 20 81  1  0
 20 82  1  0
 21 83  1  0
 21 84  1  0
 21 85  1  0
 36 86  1  0
 36 87  1  0
 37 88  1  0
 37 89  1  0
 37 90  1  0
 49 91  1  0
 49 92  1  0
 50 93  1  0
 50 94  1  0
 50 95  1  0
 51 96  1  0
 51 97  1  0
 52 98  1  0
 52 99  1  0
 52100  1  0
 53101  1  0
 58102  1  0
 61103  1  0
 69104  1  0
 70105  1  0
 71106  1  0
 72107  1  0
 73108  1  0
 74109  1  0
 74110  1  0
 75111  1  0
M  END

