
     RDKit          3D

 93101  0  0  0  0  0  0  0  0999 V2000
   -1.4661    0.6672    5.9148 C   0  0  0  0  0  0  0  0  0  0  0  0
   -0.1772    0.9633    6.1936 C   0  0  0  0  0  0  0  0  0  0  0  0
    0.9524    0.1412    5.7592 C   0  0  0  0  0  0  0  0  0  0  0  0
    1.0555   -1.1025    5.9478 O   0  0  0  0  0  0  0  0  0  0  0  0
    1.9950    0.9877    5.2269 C   0  0  0  0  0  0  0  0  0  0  0  0
    3.1609    0.6151    4.5474 C   0  0  0  0  0  0  0  0  0  0  0  0
    3.4554   -0.7265    4.3321 O   0  0  0  0  0  0  0  0  0  0  0  0
    4.0016    1.6312    4.0695 C   0  0  0  0  0  0  0  0  0  0  0  0
    3.6697    2.9852    4.2929 C   0  0  0  0  0  0  0  0  0  0  0  0
    2.4906    3.3314    4.9673 C   0  0  0  0  0  0  0  0  0  0  0  0
    1.6408    2.3096    5.4250 C   0  0  0  0  0  0  0  0  0  0  0  0
    0.3288    2.3653    6.1428 C   0  0  0  0  0  0  0  0  0  0  0  0
   -0.2919    3.4489    6.6574 C   0  0  0  0  0  0  0  0  0  0  0  0
   -1.3796    3.3317    7.6075 C   0  0  0  0  0  0  0  0  0  0  0  0
   -2.2350    3.2865    8.3901 N   0  0  0  0  0  0  0  0  0  0  0  0
    0.1378    4.7997    6.3597 C   0  0  0  0  0  0  0  0  0  0  0  0
    0.4606    5.8873    6.1097 N   0  0  0  0  0  0  0  0  0  0  0  0
   -1.8597   -0.0538    4.6766 C   0  0  0  0  0  0  0  0  0  0  0  0
   -2.5622    0.5557    3.6043 C   0  0  0  0  0  0  0  0  0  0  0  0
   -3.0797    1.9731    3.6498 C   0  0  0  0  0  0  0  0  0  0  0  0
   -4.4544    2.0205    4.3188 C   0  0  0  0  0  0  0  0  0  0  0  0
   -2.5292   -0.2649    2.4593 C   0  0  0  0  0  0  0  0  0  0  0  0
   -1.8428   -1.4037    2.6360 C   0  0  0  0  0  0  0  0  0  0  0  0
   -1.2363   -1.5638    4.1753 S   0  0  0  0  0  0  0  0  0  0  0  0
   -1.5865   -1.9328    1.4158 C   0  0  0  0  0  0  0  0  0  0  0  0
   -0.8274   -3.0318    1.0236 C   0  0  0  0  0  0  0  0  0  0  0  0
   -0.1208   -3.9084    1.7565 N   0  0  0  0  0  0  0  0  0  0  0  0
    0.4979   -4.6702    0.8515 N   0  0  0  0  0  0  0  0  0  0  0  0
    1.4544   -5.7124    1.2015 C   0  0  0  0  0  0  0  0  0  0  0  0
    2.8492   -5.1084    1.3846 C   0  0  0  0  0  0  0  0  0  0  0  0
    0.2464   -4.3028   -0.4077 N   0  0  0  0  0  0  0  0  0  0  0  0
   -0.6135   -3.2787   -0.2917 C   0  0  0  0  0  0  0  0  0  0  0  0
   -1.1050   -2.4062   -1.2564 C   0  0  0  0  0  0  0  0  0  0  0  0
   -0.8300   -2.3057   -2.5786 C   0  0  0  0  0  0  0  0  0  0  0  0
    0.0941   -3.1244   -3.6979 S   0  0  0  0  0  0  0  0  0  0  0  0
   -0.1921   -1.9496   -4.9010 C   0  0  0  0  0  0  0  0  0  0  0  0
   -0.9795   -0.8819   -4.3917 C   0  0  0  0  0  0  0  0  0  0  0  0
   -1.3257    0.3351   -5.2034 C   0  0  0  0  0  0  0  0  0  0  0  0
   -0.2375    1.4026   -5.0868 C   0  0  0  0  0  0  0  0  0  0  0  0
   -1.3022   -1.1222   -3.0285 C   0  0  0  0  0  0  0  0  0  0  0  0
   -1.8851   -0.4001   -2.0127 N   0  0  0  0  0  0  0  0  0  0  0  0
   -2.1539    1.0499   -2.0135 C   0  0  0  0  0  0  0  0  0  0  0  0
   -1.1561    1.8155   -1.1364 C   0  0  0  0  0  0  0  0  0  0  0  0
   -1.8253   -1.2439   -0.9152 C   0  0  0  0  0  0  0  0  0  0  0  0
   -2.1436   -1.0405    0.4799 C   0  0  0  0  0  0  0  0  0  0  0  0
   -2.8264   -0.0423    1.1438 N   0  0  0  0  0  0  0  0  0  0  0  0
   -4.0279    0.6880    0.7125 C   0  0  0  0  0  0  0  0  0  0  0  0
   -4.9792   -0.1797   -0.1125 C   0  0  0  0  0  0  0  0  0  0  0  0
    0.3428   -2.1058   -6.2676 C   0  0  0  0  0  0  0  0  0  0  0  0
   -0.3808   -2.0568   -7.4564 C   0  0  0  0  0  0  0  0  0  0  0  0
    0.3629   -2.4504   -8.5783 C   0  0  0  0  0  0  0  0  0  0  0  0
    1.6716   -2.8617   -8.2963 C   0  0  0  0  0  0  0  0  0  0  0  0
    2.6299   -3.4100   -9.3056 C   0  0  0  0  0  0  0  0  0  0  0  0
    3.8684   -3.9010   -9.0098 C   0  0  0  0  0  0  0  0  0  0  0  0
    4.7365   -4.4121  -10.0495 C   0  0  0  0  0  0  0  0  0  0  0  0
    5.4260   -4.8221  -10.8839 N   0  0  0  0  0  0  0  0  0  0  0  0
    4.4181   -3.9602   -7.6733 C   0  0  0  0  0  0  0  0  0  0  0  0
    4.8688   -4.0147   -6.6076 N   0  0  0  0  0  0  0  0  0  0  0  0
    2.1815   -3.4112  -10.6826 C   0  0  0  0  0  0  0  0  0  0  0  0
    1.8250   -3.4138  -11.7765 N   0  0  0  0  0  0  0  0  0  0  0  0
    1.8803   -2.6964   -6.6278 S   0  0  0  0  0  0  0  0  0  0  0  0
   -2.2129    1.3618    6.2598 H   0  0  0  0  0  0  0  0  0  0  0  0
    4.2518   -1.0155    3.7739 H   0  0  0  0  0  0  0  0  0  0  0  0
    4.9024    1.3895    3.5082 H   0  0  0  0  0  0  0  0  0  0  0  0
    4.3360    3.7649    3.9411 H   0  0  0  0  0  0  0  0  0  0  0  0
    2.2696    4.3777    5.1105 H   0  0  0  0  0  0  0  0  0  0  0  0
   -3.1317    2.4160    2.6285 H   0  0  0  0  0  0  0  0  0  0  0  0
   -2.3669    2.6126    4.2167 H   0  0  0  0  0  0  0  0  0  0  0  0
   -4.8517    3.0579    4.2749 H   0  0  0  0  0  0  0  0  0  0  0  0
   -5.1652    1.3471    3.7940 H   0  0  0  0  0  0  0  0  0  0  0  0
   -4.3938    1.7107    5.3906 H   0  0  0  0  0  0  0  0  0  0  0  0
    1.4827   -6.4889    0.3951 H   0  0  0  0  0  0  0  0  0  0  0  0
    1.1453   -6.2237    2.1502 H   0  0  0  0  0  0  0  0  0  0  0  0
    3.1929   -4.6348    0.4303 H   0  0  0  0  0  0  0  0  0  0  0  0
    3.5588   -5.9112    1.6774 H   0  0  0  0  0  0  0  0  0  0  0  0
    2.8226   -4.3269    2.1846 H   0  0  0  0  0  0  0  0  0  0  0  0
   -1.4144    0.0633   -6.2723 H   0  0  0  0  0  0  0  0  0  0  0  0
   -2.3316    0.7239   -4.9501 H   0  0  0  0  0  0  0  0  0  0  0  0
   -0.5571    2.3255   -5.6041 H   0  0  0  0  0  0  0  0  0  0  0  0
   -0.0204    1.6521   -4.0232 H   0  0  0  0  0  0  0  0  0  0  0  0
    0.7069    1.0386   -5.5577 H   0  0  0  0  0  0  0  0  0  0  0  0
   -2.0687    1.4841   -3.0132 H   0  0  0  0  0  0  0  0  0  0  0  0
   -3.2039    1.2484   -1.7411 H   0  0  0  0  0  0  0  0  0  0  0  0
   -0.1293    1.7420   -1.5576 H   0  0  0  0  0  0  0  0  0  0  0  0
   -1.1426    1.4528   -0.0879 H   0  0  0  0  0  0  0  0  0  0  0  0
   -1.4559    2.8818   -1.1234 H   0  0  0  0  0  0  0  0  0  0  0  0
   -3.7762    1.6365    0.2166 H   0  0  0  0  0  0  0  0  0  0  0  0
   -4.6066    0.9836    1.6020 H   0  0  0  0  0  0  0  0  0  0  0  0
   -5.9069    0.3880   -0.3242 H   0  0  0  0  0  0  0  0  0  0  0  0
   -5.2615   -1.0904    0.4529 H   0  0  0  0  0  0  0  0  0  0  0  0
   -4.5331   -0.4918   -1.0776 H   0  0  0  0  0  0  0  0  0  0  0  0
   -1.4387   -1.8151   -7.5134 H   0  0  0  0  0  0  0  0  0  0  0  0
   -0.0721   -2.4776   -9.5663 H   0  0  0  0  0  0  0  0  0  0  0  0
  1  2  2  3
  2  3  1  0
  3  4  2  0
  3  5  1  0
  5  6  2  0
  6  7  1  0
  6  8  1  0
  8  9  2  0
  9 10  1  0
 10 11  2  0
 11 12  1  0
 12 13  2  3
 13 14  1  0
 14 15  3  0
 13 16  1  0
 16 17  3  0
  1 18  1  0
 18 19  2  0
 19 20  1  0
 20 21  1  0
 19 22  1  0
 22 23  2  0
 23 24  1  0
 23 25  1  0
 25 26  1  0
 26 27  2  0
 27 28  1  0
 28 29  1  0
 29 30  1  0
 28 31  1  0
 31 32  2  0
 32 33  1  0
 33 34  1  0
 34 35  1  0
 35 36  1  0
 36 37  2  0
 37 38  1  0
 38 39  1  0
 37 40  1  0
 40 41  1  0
 41 42  1  0
 42 43  1  0
 41 44  1  0
 44 45  1  0
 45 46  1  0
 46 47  1  0
 47 48  1  0
 36 49  1  0
 49 50  2  0
 50 51  1  0
 51 52  2  0
 52 53  1  0
 53 54  2  3
 54 55  1  0
 55 56  3  0
 54 57  1  0
 57 58  3  0
 53 59  1  0
 59 60  3  0
 52 61  1  0
 12  2  1  0
 24 18  1  0
 45 25  2  0
 61 49  1  0
 11  5  1  0
 46 22  1  0
 32 26  1  0
 44 33  2  0
 40 34  2  0
  1 62  1  0
  7 63  1  0
  8 64  1  0
  9 65  1  0
 10 66  1  0
 20 67  1  0
 20 68  1  0
 21 69  1  0
 21 70  1  0
 21 71  1  0
 29 72  1  0
 29 73  1  0
 30 74  1  0
 30 75  1  0
 30 76  1  0
 38 77  1  0
 38 78  1  0
 39 79  1  0
 39 80  1  0
 39 81  1  0
 42 82  1  0
 42 83  1  0
 43 84  1  0
 43 85  1  0
 43 86  1  0
 47 87  1  0
 47 88  1  0
 48 89  1  0
 48 90  1  0
 48 91  1  0
 50 92  1  0
 51 93  1  0
M  END

