
     RDKit          3D

135148  0  0  0  0  0  0  0  0999 V2000
    7.4695   -2.5038    1.6469 C   0  0  0  0  0  0  0  0  0  0  0  0
    8.0638   -3.2329    0.6840 C   0  0  0  0  0  0  0  0  0  0  0  0
    7.5074   -3.2303   -0.6709 C   0  0  0  0  0  0  0  0  0  0  0  0
    7.3467   -2.1981   -1.3788 O   0  0  0  0  0  0  0  0  0  0  0  0
    6.9938   -4.5573   -0.9536 C   0  0  0  0  0  0  0  0  0  0  0  0
    6.0155   -4.9892   -1.8614 C   0  0  0  0  0  0  0  0  0  0  0  0
    5.3651   -4.0828   -2.7183 O   0  0  0  0  0  0  0  0  0  0  0  0
    5.6044   -6.3330   -1.8317 C   0  0  0  0  0  0  0  0  0  0  0  0
    6.2636   -7.2240   -0.9314 C   0  0  0  0  0  0  0  0  0  0  0  0
    7.2050   -6.7610   -0.0109 C   0  0  0  0  0  0  0  0  0  0  0  0
    7.4943   -5.3819    0.0228 C   0  0  0  0  0  0  0  0  0  0  0  0
    8.3827   -4.6515    0.9902 C   0  0  0  0  0  0  0  0  0  0  0  0
    9.6446   -5.0601    1.0669 C   0  0  0  0  0  0  0  0  0  0  0  0
   10.4483   -5.0230   -0.1486 C   0  0  0  0  0  0  0  0  0  0  0  0
   11.0565   -5.0458   -1.1571 N   0  0  0  0  0  0  0  0  0  0  0  0
   10.0014   -6.1293    1.9717 C   0  0  0  0  0  0  0  0  0  0  0  0
   10.3217   -7.0195    2.6498 N   0  0  0  0  0  0  0  0  0  0  0  0
    6.1665   -1.8333    1.3465 C   0  0  0  0  0  0  0  0  0  0  0  0
    4.7247   -2.6562    0.9869 S   0  0  0  0  0  0  0  0  0  0  0  0
    3.9150   -1.2840    0.4593 C   0  0  0  0  0  0  0  0  0  0  0  0
    2.6067   -1.1838   -0.1845 C   0  0  0  0  0  0  0  0  0  0  0  0
    2.3850   -0.0987   -0.9940 C   0  0  0  0  0  0  0  0  0  0  0  0
    3.4017    0.8245   -1.2383 O   0  0  0  0  0  0  0  0  0  0  0  0
    4.3041    1.1256   -0.1701 C   0  0  0  0  0  0  0  0  0  0  0  0
    4.7777   -0.2074    0.4497 C   0  0  0  0  0  0  0  0  0  0  0  0
    5.9883   -0.4854    1.0806 C   0  0  0  0  0  0  0  0  0  0  0  0
    3.4958    1.9790    0.8222 C   0  0  0  0  0  0  0  0  0  0  0  0
    2.7257    3.0347    0.3033 C   0  0  0  0  0  0  0  0  0  0  0  0
    2.3943    4.1260    1.1020 C   0  0  0  0  0  0  0  0  0  0  0  0
    2.7799    4.1681    2.4486 C   0  0  0  0  0  0  0  0  0  0  0  0
    2.6998    5.4626    3.2095 C   0  0  0  0  0  0  0  0  0  0  0  0
    1.8530    5.2892    4.4564 C   0  0  0  0  0  0  0  0  0  0  0  0
    3.4857    3.0778    2.9944 C   0  0  0  0  0  0  0  0  0  0  0  0
    3.7889    1.9663    2.1999 C   0  0  0  0  0  0  0  0  0  0  0  0
    5.4262    2.0267   -0.7290 C   0  0  0  0  0  0  0  0  0  0  0  0
    5.5896    2.1636   -2.1276 C   0  0  0  0  0  0  0  0  0  0  0  0
    6.0710    3.3644   -2.6756 C   0  0  0  0  0  0  0  0  0  0  0  0
    6.4633    4.4253   -1.8381 C   0  0  0  0  0  0  0  0  0  0  0  0
    6.5715    5.8219   -2.4202 C   0  0  0  0  0  0  0  0  0  0  0  0
    7.8041    5.9629   -3.3159 C   0  0  0  0  0  0  0  0  0  0  0  0
    6.5161    4.2058   -0.4655 C   0  0  0  0  0  0  0  0  0  0  0  0
    6.0380    2.9966    0.0749 C   0  0  0  0  0  0  0  0  0  0  0  0
    1.0654    0.0790   -1.3422 C   0  0  0  0  0  0  0  0  0  0  0  0
    0.2499    1.1654   -2.3393 S   0  0  0  0  0  0  0  0  0  0  0  0
   -1.2741    0.5884   -1.8324 C   0  0  0  0  0  0  0  0  0  0  0  0
   -2.5988    0.8088   -2.4019 C   0  0  0  0  0  0  0  0  0  0  0  0
   -3.0567    1.7807   -3.6977 S   0  0  0  0  0  0  0  0  0  0  0  0
   -4.7061    1.4687   -3.5446 C   0  0  0  0  0  0  0  0  0  0  0  0
   -4.8882    0.5134   -2.5531 C   0  0  0  0  0  0  0  0  0  0  0  0
   -3.6979    0.1704   -1.8653 C   0  0  0  0  0  0  0  0  0  0  0  0
   -3.6005   -0.7349   -0.6350 C   0  0  0  0  0  0  0  0  0  0  0  0
   -4.5403   -0.1661    0.4388 C   0  0  0  0  0  0  0  0  0  0  0  0
   -5.9388   -0.3375    0.3384 C   0  0  0  0  0  0  0  0  0  0  0  0
   -6.7940    0.1256    1.3438 C   0  0  0  0  0  0  0  0  0  0  0  0
   -6.2721    0.7281    2.5009 C   0  0  0  0  0  0  0  0  0  0  0  0
   -7.1870    1.1880    3.5923 C   0  0  0  0  0  0  0  0  0  0  0  0
   -7.5711    2.6497    3.3933 C   0  0  0  0  0  0  0  0  0  0  0  0
   -4.8935    0.9303    2.5900 C   0  0  0  0  0  0  0  0  0  0  0  0
   -4.0425    0.5005    1.5704 C   0  0  0  0  0  0  0  0  0  0  0  0
   -3.9185   -2.1938   -0.9336 C   0  0  0  0  0  0  0  0  0  0  0  0
   -3.3816   -2.7906   -2.0983 C   0  0  0  0  0  0  0  0  0  0  0  0
   -3.0941   -4.1566   -2.1223 C   0  0  0  0  0  0  0  0  0  0  0  0
   -3.3651   -4.9673   -1.0129 C   0  0  0  0  0  0  0  0  0  0  0  0
   -2.7351   -6.3149   -0.8929 C   0  0  0  0  0  0  0  0  0  0  0  0
   -1.3047   -6.1878   -0.3886 C   0  0  0  0  0  0  0  0  0  0  0  0
   -4.0155   -4.4062    0.0913 C   0  0  0  0  0  0  0  0  0  0  0  0
   -4.2870   -3.0459    0.1276 C   0  0  0  0  0  0  0  0  0  0  0  0
   -2.2452   -0.8084   -0.1223 O   0  0  0  0  0  0  0  0  0  0  0  0
   -1.1365   -0.3397   -0.8440 C   0  0  0  0  0  0  0  0  0  0  0  0
    0.2010   -0.6656   -0.6005 C   0  0  0  0  0  0  0  0  0  0  0  0
    1.0792   -1.7520    0.3735 S   0  0  0  0  0  0  0  0  0  0  0  0
   -5.7990    2.3207   -4.0512 C   0  0  0  0  0  0  0  0  0  0  0  0
   -6.5054    3.1224   -3.2269 C   0  0  0  0  0  0  0  0  0  0  0  0
   -7.8845    3.5921   -3.4664 C   0  0  0  0  0  0  0  0  0  0  0  0
   -8.4703    3.6702   -4.5755 O   0  0  0  0  0  0  0  0  0  0  0  0
   -8.4534    3.9339   -2.1838 C   0  0  0  0  0  0  0  0  0  0  0  0
   -9.7279    4.8990   -1.6493 S   0  0  0  0  0  0  0  0  0  0  0  0
   -9.1127    5.0467   -0.0727 C   0  0  0  0  0  0  0  0  0  0  0  0
   -9.6800    5.9045    1.0061 C   0  0  0  0  0  0  0  0  0  0  0  0
   -7.8684    4.4292    0.0005 C   0  0  0  0  0  0  0  0  0  0  0  0
   -7.5129    3.8124   -1.2071 C   0  0  0  0  0  0  0  0  0  0  0  0
   -6.2181    3.4021   -1.7792 C   0  0  0  0  0  0  0  0  0  0  0  0
   -5.0389    3.8435   -1.3065 C   0  0  0  0  0  0  0  0  0  0  0  0
   -4.0483    4.4095   -2.2047 C   0  0  0  0  0  0  0  0  0  0  0  0
   -3.2619    4.8982   -2.8971 N   0  0  0  0  0  0  0  0  0  0  0  0
   -4.7698    3.9286    0.0925 C   0  0  0  0  0  0  0  0  0  0  0  0
   -4.5195    3.9909    1.2327 N   0  0  0  0  0  0  0  0  0  0  0  0
    7.6161   -2.7624    2.6802 H   0  0  0  0  0  0  0  0  0  0  0  0
    4.4536   -4.2790   -3.0858 H   0  0  0  0  0  0  0  0  0  0  0  0
    4.8162   -6.6921   -2.5201 H   0  0  0  0  0  0  0  0  0  0  0  0
    5.9625   -8.2661   -0.9394 H   0  0  0  0  0  0  0  0  0  0  0  0
    7.6444   -7.4741    0.6963 H   0  0  0  0  0  0  0  0  0  0  0  0
    6.7343    0.2856    1.2310 H   0  0  0  0  0  0  0  0  0  0  0  0
    2.5206    3.1198   -0.7543 H   0  0  0  0  0  0  0  0  0  0  0  0
    1.8641    4.9553    0.6592 H   0  0  0  0  0  0  0  0  0  0  0  0
    3.7267    5.7782    3.4987 H   0  0  0  0  0  0  0  0  0  0  0  0
    2.2776    6.2786    2.5771 H   0  0  0  0  0  0  0  0  0  0  0  0
    2.4519    4.7736    5.2605 H   0  0  0  0  0  0  0  0  0  0  0  0
    0.9220    4.7262    4.2416 H   0  0  0  0  0  0  0  0  0  0  0  0
    1.6070    6.2899    4.8555 H   0  0  0  0  0  0  0  0  0  0  0  0
    3.8089    3.1014    4.0340 H   0  0  0  0  0  0  0  0  0  0  0  0
    4.3394    1.1745    2.6434 H   0  0  0  0  0  0  0  0  0  0  0  0
    5.1789    1.4363   -2.8019 H   0  0  0  0  0  0  0  0  0  0  0  0
    6.0214    3.5094   -3.7476 H   0  0  0  0  0  0  0  0  0  0  0  0
    5.6628    6.0528   -3.0242 H   0  0  0  0  0  0  0  0  0  0  0  0
    6.6421    6.5912   -1.6163 H   0  0  0  0  0  0  0  0  0  0  0  0
    7.7619    5.2509   -4.1574 H   0  0  0  0  0  0  0  0  0  0  0  0
    8.7125    5.7450   -2.7130 H   0  0  0  0  0  0  0  0  0  0  0  0
    7.8997    6.9916   -3.7123 H   0  0  0  0  0  0  0  0  0  0  0  0
    6.7660    5.0258    0.2141 H   0  0  0  0  0  0  0  0  0  0  0  0
    6.0301    2.9068    1.1550 H   0  0  0  0  0  0  0  0  0  0  0  0
   -5.8691    0.1595   -2.2925 H   0  0  0  0  0  0  0  0  0  0  0  0
   -6.3882   -0.9020   -0.4648 H   0  0  0  0  0  0  0  0  0  0  0  0
   -7.8513   -0.0535    1.2545 H   0  0  0  0  0  0  0  0  0  0  0  0
   -8.1071    0.5540    3.6065 H   0  0  0  0  0  0  0  0  0  0  0  0
   -6.6953    1.0681    4.5806 H   0  0  0  0  0  0  0  0  0  0  0  0
   -6.6969    3.3098    3.4644 H   0  0  0  0  0  0  0  0  0  0  0  0
   -8.0476    2.7835    2.4024 H   0  0  0  0  0  0  0  0  0  0  0  0
   -8.2949    2.9391    4.1770 H   0  0  0  0  0  0  0  0  0  0  0  0
   -4.4563    1.3986    3.4652 H   0  0  0  0  0  0  0  0  0  0  0  0
   -2.9806    0.6706    1.6831 H   0  0  0  0  0  0  0  0  0  0  0  0
   -3.0531   -2.1793   -2.9143 H   0  0  0  0  0  0  0  0  0  0  0  0
   -2.5712   -4.5774   -2.9812 H   0  0  0  0  0  0  0  0  0  0  0  0
   -2.7515   -6.8387   -1.8799 H   0  0  0  0  0  0  0  0  0  0  0  0
   -3.3135   -6.9508   -0.2001 H   0  0  0  0  0  0  0  0  0  0  0  0
   -1.2833   -5.6022    0.5628 H   0  0  0  0  0  0  0  0  0  0  0  0
   -0.6561   -5.6778   -1.1321 H   0  0  0  0  0  0  0  0  0  0  0  0
   -0.9048   -7.2030   -0.1656 H   0  0  0  0  0  0  0  0  0  0  0  0
   -4.2179   -5.0353    0.9583 H   0  0  0  0  0  0  0  0  0  0  0  0
   -4.6631   -2.6553    1.0685 H   0  0  0  0  0  0  0  0  0  0  0  0
   -6.1559    2.1694   -5.0749 H   0  0  0  0  0  0  0  0  0  0  0  0
  -10.7685    6.0088    0.8814 H   0  0  0  0  0  0  0  0  0  0  0  0
   -9.1912    6.8985    0.9691 H   0  0  0  0  0  0  0  0  0  0  0  0
   -9.4773    5.4446    1.9965 H   0  0  0  0  0  0  0  0  0  0  0  0
   -7.2204    4.5086    0.8658 H   0  0  0  0  0  0  0  0  0  0  0  0
  1  2  2  3
  2  3  1  0
  3  4  2  0
  3  5  1  0
  5  6  2  0
  6  7  1  0
  6  8  1  0
  8  9  2  0
  9 10  1  0
 10 11  2  0
 11 12  1  0
 12 13  2  3
 13 14  1  0
 14 15  3  0
 13 16  1  0
 16 17  3  0
  1 18  1  0
 18 19  1  0
 19 20  1  0
 20 21  1  0
 21 22  2  0
 22 23  1  0
 23 24  1  0
 24 25  1  0
 25 26  1  0
 24 27  1  0
 27 28  2  0
 28 29  1  0
 29 30  2  0
 30 31  1  0
 31 32  1  0
 30 33  1  0
 33 34  2  0
 24 35  1  0
 35 36  2  0
 36 37  1  0
 37 38  2  0
 38 39  1  0
 39 40  1  0
 38 41  1  0
 41 42  2  0
 22 43  1  0
 43 44  1  0
 44 45  1  0
 45 46  1  0
 46 47  1  0
 47 48  1  0
 48 49  2  0
 49 50  1  0
 50 51  1  0
 51 52  1  0
 52 53  2  0
 53 54  1  0
 54 55  2  0
 55 56  1  0
 56 57  1  0
 55 58  1  0
 58 59  2  0
 51 60  1  0
 60 61  2  0
 61 62  1  0
 62 63  2  0
 63 64  1  0
 64 65  1  0
 63 66  1  0
 66 67  2  0
 51 68  1  0
 68 69  1  0
 69 70  1  0
 70 71  1  0
 48 72  1  0
 72 73  2  3
 73 74  1  0
 74 75  2  0
 74 76  1  0
 76 77  1  0
 77 78  1  0
 78 79  1  0
 78 80  2  0
 80 81  1  0
 81 82  1  0
 82 83  2  3
 83 84  1  0
 84 85  3  0
 83 86  1  0
 86 87  3  0
 12  2  1  0
 26 18  2  0
 34 27  1  0
 42 35  1  0
 70 43  2  0
 82 73  1  0
 11  5  1  0
 25 20  2  0
 69 45  2  0
 81 76  2  0
 71 21  1  0
 50 46  2  0
 59 52  1  0
 67 60  1  0
  1 88  1  0
  7 89  1  0
  8 90  1  0
  9 91  1  0
 10 92  1  0
 26 93  1  0
 28 94  1  0
 29 95  1  0
 31 96  1  0
 31 97  1  0
 32 98  1  0
 32 99  1  0
 32100  1  0
 33101  1  0
 34102  1  0
 36103  1  0
 37104  1  0
 39105  1  0
 39106  1  0
 40107  1  0
 40108  1  0
 40109  1  0
 41110  1  0
 42111  1  0
 49112  1  0
 53113  1  0
 54114  1  0
 56115  1  0
 56116  1  0
 57117  1  0
 57118  1  0
 57119  1  0
 58120  1  0
 59121  1  0
 61122  1  0
 62123  1  0
 64124  1  0
 64125  1  0
 65126  1  0
 65127  1  0
 65128  1  0
 66129  1  0
 67130  1  0
 72131  1  0
 79132  1  0
 79133  1  0
 79134  1  0
 80135  1  0
M  END

