
     RDKit          3D

 98109  0  0  0  0  0  0  0  0999 V2000
    3.2419   -0.4542    7.1438 C   0  0  0  0  0  0  0  0  0  0  0  0
    4.0159   -1.5206    7.4195 C   0  0  0  0  0  0  0  0  0  0  0  0
    3.9364   -2.8346    6.7702 C   0  0  0  0  0  0  0  0  0  0  0  0
    2.9571   -3.2690    6.1102 O   0  0  0  0  0  0  0  0  0  0  0  0
    5.1556   -3.5737    7.0699 C   0  0  0  0  0  0  0  0  0  0  0  0
    5.5995   -4.8163    6.5792 C   0  0  0  0  0  0  0  0  0  0  0  0
    4.8319   -5.6103    5.7264 O   0  0  0  0  0  0  0  0  0  0  0  0
    6.8716   -5.2646    6.9603 C   0  0  0  0  0  0  0  0  0  0  0  0
    7.6892   -4.4722    7.7797 C   0  0  0  0  0  0  0  0  0  0  0  0
    7.2334   -3.2380    8.2609 C   0  0  0  0  0  0  0  0  0  0  0  0
    5.9392   -2.8090    7.9270 C   0  0  0  0  0  0  0  0  0  0  0  0
    5.2228   -1.5557    8.2983 C   0  0  0  0  0  0  0  0  0  0  0  0
    5.4724   -0.7688    9.3786 C   0  0  0  0  0  0  0  0  0  0  0  0
    6.5783   -1.0049   10.2682 C   0  0  0  0  0  0  0  0  0  0  0  0
    7.4600   -1.1810   10.9968 N   0  0  0  0  0  0  0  0  0  0  0  0
    4.5715    0.2692    9.8116 C   0  0  0  0  0  0  0  0  0  0  0  0
    3.8540    1.1066   10.1699 N   0  0  0  0  0  0  0  0  0  0  0  0
    2.1450   -0.4682    6.1650 C   0  0  0  0  0  0  0  0  0  0  0  0
    0.8242   -0.0735    6.4317 C   0  0  0  0  0  0  0  0  0  0  0  0
    0.2924    0.2987    7.7878 C   0  0  0  0  0  0  0  0  0  0  0  0
    0.3284    1.8093    7.9855 C   0  0  0  0  0  0  0  0  0  0  0  0
    0.0741   -0.0317    5.2573 C   0  0  0  0  0  0  0  0  0  0  0  0
   -1.5663    0.3043    4.9402 S   0  0  0  0  0  0  0  0  0  0  0  0
   -1.3085    0.0623    3.2781 C   0  0  0  0  0  0  0  0  0  0  0  0
   -2.0580   -0.1532    2.1588 C   0  0  0  0  0  0  0  0  0  0  0  0
   -3.4434   -0.2234    1.9820 C   0  0  0  0  0  0  0  0  0  0  0  0
   -3.9522   -0.6939    0.7365 C   0  0  0  0  0  0  0  0  0  0  0  0
   -5.2998   -0.7343    0.5977 N   0  0  0  0  0  0  0  0  0  0  0  0
   -5.7506   -0.1906    2.0965 S   0  0  0  0  0  0  0  0  0  0  0  0
   -4.3524    0.1124    2.9305 N   0  0  0  0  0  0  0  0  0  0  0  0
   -3.0444   -1.0526   -0.2682 C   0  0  0  0  0  0  0  0  0  0  0  0
   -3.2421   -1.2892   -1.5964 C   0  0  0  0  0  0  0  0  0  0  0  0
   -4.5367   -1.1472   -2.6878 S   0  0  0  0  0  0  0  0  0  0  0  0
   -3.4524   -1.0177   -3.9970 C   0  0  0  0  0  0  0  0  0  0  0  0
   -3.6221   -0.7838   -5.3620 C   0  0  0  0  0  0  0  0  0  0  0  0
   -4.9578   -0.7792   -6.0547 C   0  0  0  0  0  0  0  0  0  0  0  0
   -5.2937   -2.1726   -6.5718 C   0  0  0  0  0  0  0  0  0  0  0  0
   -2.3730   -0.6342   -5.9962 C   0  0  0  0  0  0  0  0  0  0  0  0
   -1.1112   -0.7890   -4.8613 S   0  0  0  0  0  0  0  0  0  0  0  0
   -2.1492   -1.0442   -3.5717 C   0  0  0  0  0  0  0  0  0  0  0  0
   -2.0279   -1.2063   -2.2000 C   0  0  0  0  0  0  0  0  0  0  0  0
   -1.0227   -0.9345   -1.3276 N   0  0  0  0  0  0  0  0  0  0  0  0
   -1.6539   -0.9209   -0.1081 C   0  0  0  0  0  0  0  0  0  0  0  0
   -1.1482   -0.5547    1.1662 C   0  0  0  0  0  0  0  0  0  0  0  0
    0.1152   -0.7031    1.6889 N   0  0  0  0  0  0  0  0  0  0  0  0
   -0.0303   -0.2806    2.9737 C   0  0  0  0  0  0  0  0  0  0  0  0
    0.7597   -0.3578    4.1124 C   0  0  0  0  0  0  0  0  0  0  0  0
    2.3480   -0.7302    4.4899 S   0  0  0  0  0  0  0  0  0  0  0  0
    1.1540   -1.6401    1.2363 C   0  0  0  0  0  0  0  0  0  0  0  0
    2.4989   -0.9354    1.0262 C   0  0  0  0  0  0  0  0  0  0  0  0
    0.1802   -0.1812   -1.7017 C   0  0  0  0  0  0  0  0  0  0  0  0
   -0.1510    1.2967   -1.9103 C   0  0  0  0  0  0  0  0  0  0  0  0
   -2.1450   -0.4025   -7.4286 C   0  0  0  0  0  0  0  0  0  0  0  0
   -2.4962    0.7335   -8.0569 C   0  0  0  0  0  0  0  0  0  0  0  0
   -2.9326    1.9713   -7.3974 C   0  0  0  0  0  0  0  0  0  0  0  0
   -3.2639    2.1058   -6.1880 O   0  0  0  0  0  0  0  0  0  0  0  0
   -2.8281    3.0536   -8.3520 C   0  0  0  0  0  0  0  0  0  0  0  0
   -3.0421    4.4141   -8.1324 C   0  0  0  0  0  0  0  0  0  0  0  0
   -2.7833    5.3086   -9.1821 C   0  0  0  0  0  0  0  0  0  0  0  0
   -3.0372    7.0280   -8.9404 Cl  0  0  0  0  0  0  0  0  0  0  0  0
   -2.3069    4.8284  -10.4183 C   0  0  0  0  0  0  0  0  0  0  0  0
   -2.0256    5.6930  -11.4250 F   0  0  0  0  0  0  0  0  0  0  0  0
   -2.0990    3.4532  -10.6143 C   0  0  0  0  0  0  0  0  0  0  0  0
   -2.3866    2.5623   -9.5696 C   0  0  0  0  0  0  0  0  0  0  0  0
   -2.2507    1.0787   -9.4916 C   0  0  0  0  0  0  0  0  0  0  0  0
   -2.1629    0.2100  -10.5316 C   0  0  0  0  0  0  0  0  0  0  0  0
   -2.2939   -1.2153  -10.3586 C   0  0  0  0  0  0  0  0  0  0  0  0
   -2.3999   -2.3617  -10.2267 N   0  0  0  0  0  0  0  0  0  0  0  0
   -2.0614    0.6467  -11.8986 C   0  0  0  0  0  0  0  0  0  0  0  0
   -1.9855    0.9772  -13.0054 N   0  0  0  0  0  0  0  0  0  0  0  0
    3.4289    0.4971    7.6124 H   0  0  0  0  0  0  0  0  0  0  0  0
    3.9066   -5.3507    5.4156 H   0  0  0  0  0  0  0  0  0  0  0  0
    7.2366   -6.2186    6.6026 H   0  0  0  0  0  0  0  0  0  0  0  0
    8.6832   -4.8103    8.0359 H   0  0  0  0  0  0  0  0  0  0  0  0
    7.9069   -2.6368    8.8481 H   0  0  0  0  0  0  0  0  0  0  0  0
    0.8951   -0.1915    8.5834 H   0  0  0  0  0  0  0  0  0  0  0  0
   -0.7533   -0.0622    7.8908 H   0  0  0  0  0  0  0  0  0  0  0  0
   -0.3509    2.3084    7.2641 H   0  0  0  0  0  0  0  0  0  0  0  0
    1.3602    2.1943    7.8451 H   0  0  0  0  0  0  0  0  0  0  0  0
   -0.0047    2.0552    9.0152 H   0  0  0  0  0  0  0  0  0  0  0  0
   -4.9531   -0.0658   -6.9060 H   0  0  0  0  0  0  0  0  0  0  0  0
   -5.7498   -0.4500   -5.3464 H   0  0  0  0  0  0  0  0  0  0  0  0
   -4.5309   -2.5054   -7.3092 H   0  0  0  0  0  0  0  0  0  0  0  0
   -6.2845   -2.1520   -7.0701 H   0  0  0  0  0  0  0  0  0  0  0  0
   -5.3340   -2.8971   -5.7302 H   0  0  0  0  0  0  0  0  0  0  0  0
    0.8408   -2.1421    0.2955 H   0  0  0  0  0  0  0  0  0  0  0  0
    1.2728   -2.4530    1.9861 H   0  0  0  0  0  0  0  0  0  0  0  0
    3.0217   -1.3854    0.1547 H   0  0  0  0  0  0  0  0  0  0  0  0
    2.3619    0.1555    0.8466 H   0  0  0  0  0  0  0  0  0  0  0  0
    3.1567   -1.0684    1.9083 H   0  0  0  0  0  0  0  0  0  0  0  0
    0.6225   -0.6059   -2.6268 H   0  0  0  0  0  0  0  0  0  0  0  0
    0.9497   -0.2478   -0.9278 H   0  0  0  0  0  0  0  0  0  0  0  0
   -0.5761    1.7272   -0.9804 H   0  0  0  0  0  0  0  0  0  0  0  0
    0.7732    1.8496   -2.1741 H   0  0  0  0  0  0  0  0  0  0  0  0
   -0.8851    1.4217   -2.7330 H   0  0  0  0  0  0  0  0  0  0  0  0
   -1.5622   -1.1497   -7.9395 H   0  0  0  0  0  0  0  0  0  0  0  0
   -3.3832    4.7749   -7.1692 H   0  0  0  0  0  0  0  0  0  0  0  0
   -1.6803    3.1280  -11.5505 H   0  0  0  0  0  0  0  0  0  0  0  0
  1  2  2  3
  2  3  1  0
  3  4  2  0
  3  5  1  0
  5  6  2  0
  6  7  1  0
  6  8  1  0
  8  9  2  0
  9 10  1  0
 10 11  2  0
 11 12  1  0
 12 13  2  3
 13 14  1  0
 14 15  3  0
 13 16  1  0
 16 17  3  0
  1 18  1  0
 18 19  2  0
 19 20  1  0
 20 21  1  0
 19 22  1  0
 22 23  1  0
 23 24  1  0
 24 25  1  0
 25 26  1  0
 26 27  1  0
 27 28  2  0
 28 29  1  0
 29 30  1  0
 27 31  1  0
 31 32  1  0
 32 33  1  0
 33 34  1  0
 34 35  1  0
 35 36  1  0
 36 37  1  0
 35 38  2  0
 38 39  1  0
 39 40  1  0
 40 41  1  0
 41 42  1  0
 42 43  1  0
 43 44  1  0
 44 45  1  0
 45 46  1  0
 46 47  1  0
 47 48  1  0
 45 49  1  0
 49 50  1  0
 42 51  1  0
 51 52  1  0
 38 53  1  0
 53 54  2  3
 54 55  1  0
 55 56  2  0
 55 57  1  0
 57 58  2  0
 58 59  1  0
 59 60  1  0
 59 61  2  0
 61 62  1  0
 61 63  1  0
 63 64  2  0
 64 65  1  0
 65 66  2  3
 66 67  1  0
 67 68  3  0
 66 69  1  0
 69 70  3  0
 12  2  1  0
 48 18  1  0
 65 54  1  0
 11  5  1  0
 47 22  2  0
 64 57  1  0
 46 24  2  0
 44 25  2  0
 30 26  2  0
 43 31  2  0
 41 32  2  0
 40 34  2  0
  1 71  1  0
  7 72  1  0
  8 73  1  0
  9 74  1  0
 10 75  1  0
 20 76  1  0
 20 77  1  0
 21 78  1  0
 21 79  1  0
 21 80  1  0
 36 81  1  0
 36 82  1  0
 37 83  1  0
 37 84  1  0
 37 85  1  0
 49 86  1  0
 49 87  1  0
 50 88  1  0
 50 89  1  0
 50 90  1  0
 51 91  1  0
 51 92  1  0
 52 93  1  0
 52 94  1  0
 52 95  1  0
 53 96  1  0
 58 97  1  0
 63 98  1  0
M  END

