
     RDKit          3D

 98109  0  0  0  0  0  0  0  0999 V2000
   -1.8049    5.9826    2.5531 C   0  0  0  0  0  0  0  0  0  0  0  0
   -2.4050    6.8896    3.3404 C   0  0  0  0  0  0  0  0  0  0  0  0
   -1.6876    8.0333    3.9046 C   0  0  0  0  0  0  0  0  0  0  0  0
   -0.5756    8.4811    3.5118 O   0  0  0  0  0  0  0  0  0  0  0  0
   -2.4296    8.5033    5.0526 C   0  0  0  0  0  0  0  0  0  0  0  0
   -2.0910    9.5242    5.9522 C   0  0  0  0  0  0  0  0  0  0  0  0
   -0.9241   10.2653    5.7749 O   0  0  0  0  0  0  0  0  0  0  0  0
   -2.9613    9.7823    7.0291 C   0  0  0  0  0  0  0  0  0  0  0  0
   -4.1218    9.0077    7.1966 C   0  0  0  0  0  0  0  0  0  0  0  0
   -4.4401    7.9820    6.2930 C   0  0  0  0  0  0  0  0  0  0  0  0
   -3.5882    7.7491    5.2010 C   0  0  0  0  0  0  0  0  0  0  0  0
   -3.7116    6.7966    4.0620 C   0  0  0  0  0  0  0  0  0  0  0  0
   -4.8636    6.2846    3.5569 C   0  0  0  0  0  0  0  0  0  0  0  0
   -4.9713    5.9204    2.1723 C   0  0  0  0  0  0  0  0  0  0  0  0
   -5.0675    5.6555    1.0526 N   0  0  0  0  0  0  0  0  0  0  0  0
   -6.0991    6.2724    4.2949 C   0  0  0  0  0  0  0  0  0  0  0  0
   -7.0992    6.2387    4.8770 N   0  0  0  0  0  0  0  0  0  0  0  0
   -2.2740    4.6013    2.3272 C   0  0  0  0  0  0  0  0  0  0  0  0
   -2.5089    3.6087    3.3058 C   0  0  0  0  0  0  0  0  0  0  0  0
   -2.2733    3.7643    4.7885 C   0  0  0  0  0  0  0  0  0  0  0  0
   -0.7973    3.5787    5.1308 C   0  0  0  0  0  0  0  0  0  0  0  0
   -2.6881    2.3563    2.7098 C   0  0  0  0  0  0  0  0  0  0  0  0
   -2.6143    0.7738    3.3541 S   0  0  0  0  0  0  0  0  0  0  0  0
   -2.4858    0.1270    1.7939 C   0  0  0  0  0  0  0  0  0  0  0  0
   -2.0501   -1.0338    1.2165 C   0  0  0  0  0  0  0  0  0  0  0  0
   -1.8162   -2.3005    1.7522 C   0  0  0  0  0  0  0  0  0  0  0  0
   -1.2482   -3.3023    0.9125 C   0  0  0  0  0  0  0  0  0  0  0  0
   -0.9926   -4.5071    1.4841 N   0  0  0  0  0  0  0  0  0  0  0  0
   -1.5269   -4.2040    3.0223 S   0  0  0  0  0  0  0  0  0  0  0  0
   -2.0542   -2.6342    3.0447 N   0  0  0  0  0  0  0  0  0  0  0  0
   -0.9019   -2.9641   -0.4072 C   0  0  0  0  0  0  0  0  0  0  0  0
   -0.0478   -3.6046   -1.2627 C   0  0  0  0  0  0  0  0  0  0  0  0
    1.0904   -4.8500   -1.0320 S   0  0  0  0  0  0  0  0  0  0  0  0
    2.1181   -4.1986   -2.2170 C   0  0  0  0  0  0  0  0  0  0  0  0
    3.4475   -4.4739   -2.5654 C   0  0  0  0  0  0  0  0  0  0  0  0
    4.2236   -5.6298   -2.0001 C   0  0  0  0  0  0  0  0  0  0  0  0
    4.8315   -5.2733   -0.6502 C   0  0  0  0  0  0  0  0  0  0  0  0
    3.9846   -3.4668   -3.3976 C   0  0  0  0  0  0  0  0  0  0  0  0
    2.7978   -2.2659   -3.6127 S   0  0  0  0  0  0  0  0  0  0  0  0
    1.6062   -3.0311   -2.7215 C   0  0  0  0  0  0  0  0  0  0  0  0
    0.3747   -2.6759   -2.1700 C   0  0  0  0  0  0  0  0  0  0  0  0
   -0.2010   -1.4553   -1.9774 N   0  0  0  0  0  0  0  0  0  0  0  0
   -1.0498   -1.6558   -0.9144 C   0  0  0  0  0  0  0  0  0  0  0  0
   -1.7372   -0.7008   -0.1127 C   0  0  0  0  0  0  0  0  0  0  0  0
   -2.0681    0.6045   -0.3741 N   0  0  0  0  0  0  0  0  0  0  0  0
   -2.4778    1.0733    0.8264 C   0  0  0  0  0  0  0  0  0  0  0  0
   -2.6001    2.3476    1.3399 C   0  0  0  0  0  0  0  0  0  0  0  0
   -2.2303    3.8775    0.7835 S   0  0  0  0  0  0  0  0  0  0  0  0
   -2.4114    1.2093   -1.6695 C   0  0  0  0  0  0  0  0  0  0  0  0
   -3.9050    1.5367   -1.7668 C   0  0  0  0  0  0  0  0  0  0  0  0
    0.4228   -0.1922   -2.4081 C   0  0  0  0  0  0  0  0  0  0  0  0
    0.2053    0.0563   -3.8987 C   0  0  0  0  0  0  0  0  0  0  0  0
    5.4115   -3.3668   -3.7846 C   0  0  0  0  0  0  0  0  0  0  0  0
    5.8696   -3.1344   -5.0301 C   0  0  0  0  0  0  0  0  0  0  0  0
    7.1257   -3.7248   -5.4984 C   0  0  0  0  0  0  0  0  0  0  0  0
    8.1224   -4.0180   -4.7864 O   0  0  0  0  0  0  0  0  0  0  0  0
    6.9909   -3.9987   -6.9155 C   0  0  0  0  0  0  0  0  0  0  0  0
    7.8869   -4.6572   -7.7598 C   0  0  0  0  0  0  0  0  0  0  0  0
    7.5150   -4.8560   -9.0988 C   0  0  0  0  0  0  0  0  0  0  0  0
    8.3587   -5.4893   -9.9534 F   0  0  0  0  0  0  0  0  0  0  0  0
    6.2593   -4.4105   -9.5541 C   0  0  0  0  0  0  0  0  0  0  0  0
    5.3678   -3.7609   -8.6849 C   0  0  0  0  0  0  0  0  0  0  0  0
    5.7638   -3.5425   -7.3566 C   0  0  0  0  0  0  0  0  0  0  0  0
    5.0866   -2.8120   -6.2501 C   0  0  0  0  0  0  0  0  0  0  0  0
    4.4270   -1.6455   -6.4336 C   0  0  0  0  0  0  0  0  0  0  0  0
    3.7447   -1.3368   -7.6670 C   0  0  0  0  0  0  0  0  0  0  0  0
    3.1951   -1.0872   -8.6566 N   0  0  0  0  0  0  0  0  0  0  0  0
    4.5496   -0.5627   -5.4836 C   0  0  0  0  0  0  0  0  0  0  0  0
    4.6486    0.3054   -4.7201 N   0  0  0  0  0  0  0  0  0  0  0  0
   -0.8503    6.2245    2.1120 H   0  0  0  0  0  0  0  0  0  0  0  0
   -0.6779   11.0288    6.4041 H   0  0  0  0  0  0  0  0  0  0  0  0
   -2.7273   10.5703    7.7305 H   0  0  0  0  0  0  0  0  0  0  0  0
   -4.7773    9.1892    8.0512 H   0  0  0  0  0  0  0  0  0  0  0  0
   -5.3154    7.3901    6.4765 H   0  0  0  0  0  0  0  0  0  0  0  0
   -2.8714    3.0101    5.3457 H   0  0  0  0  0  0  0  0  0  0  0  0
   -2.6016    4.7539    5.1472 H   0  0  0  0  0  0  0  0  0  0  0  0
   -0.4623    2.5567    4.8509 H   0  0  0  0  0  0  0  0  0  0  0  0
   -0.6493    3.7177    6.2245 H   0  0  0  0  0  0  0  0  0  0  0  0
   -0.1846    4.3302    4.5878 H   0  0  0  0  0  0  0  0  0  0  0  0
    3.5484   -6.4992   -1.8753 H   0  0  0  0  0  0  0  0  0  0  0  0
    5.0306   -5.9306   -2.7009 H   0  0  0  0  0  0  0  0  0  0  0  0
    5.4256   -6.1258   -0.2569 H   0  0  0  0  0  0  0  0  0  0  0  0
    4.0329   -5.0465    0.0875 H   0  0  0  0  0  0  0  0  0  0  0  0
    5.4959   -4.3894   -0.7501 H   0  0  0  0  0  0  0  0  0  0  0  0
   -2.2120    0.4854   -2.4717 H   0  0  0  0  0  0  0  0  0  0  0  0
   -1.8039    2.1253   -1.8255 H   0  0  0  0  0  0  0  0  0  0  0  0
   -4.5091    0.6319   -1.5619 H   0  0  0  0  0  0  0  0  0  0  0  0
   -4.1830    2.3271   -1.0497 H   0  0  0  0  0  0  0  0  0  0  0  0
   -4.1464    1.9013   -2.7872 H   0  0  0  0  0  0  0  0  0  0  0  0
    0.0583    0.6625   -1.8203 H   0  0  0  0  0  0  0  0  0  0  0  0
    1.5109   -0.2137   -2.1936 H   0  0  0  0  0  0  0  0  0  0  0  0
    0.6980    1.0071   -4.1918 H   0  0  0  0  0  0  0  0  0  0  0  0
   -0.8732    0.1201   -4.1452 H   0  0  0  0  0  0  0  0  0  0  0  0
    0.6362   -0.7637   -4.5039 H   0  0  0  0  0  0  0  0  0  0  0  0
    6.1155   -3.7765   -3.0675 H   0  0  0  0  0  0  0  0  0  0  0  0
    8.8425   -5.0064   -7.3959 H   0  0  0  0  0  0  0  0  0  0  0  0
    5.9735   -4.5851  -10.5777 H   0  0  0  0  0  0  0  0  0  0  0  0
    4.3916   -3.4719   -9.0433 H   0  0  0  0  0  0  0  0  0  0  0  0
  1  2  2  3
  2  3  1  0
  3  4  2  0
  3  5  1  0
  5  6  2  0
  6  7  1  0
  6  8  1  0
  8  9  2  0
  9 10  1  0
 10 11  2  0
 11 12  1  0
 12 13  2  3
 13 14  1  0
 14 15  3  0
 13 16  1  0
 16 17  3  0
  1 18  1  0
 18 19  2  0
 19 20  1  0
 20 21  1  0
 19 22  1  0
 22 23  1  0
 23 24  1  0
 24 25  1  0
 25 26  1  0
 26 27  1  0
 27 28  2  0
 28 29  1  0
 29 30  1  0
 27 31  1  0
 31 32  1  0
 32 33  1  0
 33 34  1  0
 34 35  1  0
 35 36  1  0
 36 37  1  0
 35 38  2  0
 38 39  1  0
 39 40  1  0
 40 41  1  0
 41 42  1  0
 42 43  1  0
 43 44  1  0
 44 45  1  0
 45 46  1  0
 46 47  1  0
 47 48  1  0
 45 49  1  0
 49 50  1  0
 42 51  1  0
 51 52  1  0
 38 53  1  0
 53 54  2  3
 54 55  1  0
 55 56  2  0
 55 57  1  0
 57 58  2  0
 58 59  1  0
 59 60  1  0
 59 61  2  0
 61 62  1  0
 62 63  2  0
 63 64  1  0
 64 65  2  3
 65 66  1  0
 66 67  3  0
 65 68  1  0
 68 69  3  0
 12  2  1  0
 48 18  1  0
 64 54  1  0
 11  5  1  0
 47 22  2  0
 63 57  1  0
 46 24  2  0
 44 25  2  0
 30 26  2  0
 43 31  2  0
 41 32  2  0
 40 34  2  0
  1 70  1  0
  7 71  1  0
  8 72  1  0
  9 73  1  0
 10 74  1  0
 20 75  1  0
 20 76  1  0
 21 77  1  0
 21 78  1  0
 21 79  1  0
 36 80  1  0
 36 81  1  0
 37 82  1  0
 37 83  1  0
 37 84  1  0
 49 85  1  0
 49 86  1  0
 50 87  1  0
 50 88  1  0
 50 89  1  0
 51 90  1  0
 51 91  1  0
 52 92  1  0
 52 93  1  0
 52 94  1  0
 53 95  1  0
 58 96  1  0
 61 97  1  0
 62 98  1  0
M  END

