
     RDKit          3D

152166  0  0  0  0  0  0  0  0999 V2000
   -7.4988   -0.5712   -2.8894 C   0  0  0  0  0  0  0  0  0  0  0  0
   -8.7325   -0.5946   -2.3458 C   0  0  0  0  0  0  0  0  0  0  0  0
   -9.0888   -0.0653   -1.0233 C   0  0  0  0  0  0  0  0  0  0  0  0
   -8.4022    0.7497   -0.3529 O   0  0  0  0  0  0  0  0  0  0  0  0
  -10.4096   -0.5608   -0.6660 C   0  0  0  0  0  0  0  0  0  0  0  0
  -11.1196   -0.4284    0.5418 C   0  0  0  0  0  0  0  0  0  0  0  0
  -10.6338    0.2991    1.6288 O   0  0  0  0  0  0  0  0  0  0  0  0
  -12.3573   -1.0786    0.6636 C   0  0  0  0  0  0  0  0  0  0  0  0
  -12.8553   -1.8578   -0.3898 C   0  0  0  0  0  0  0  0  0  0  0  0
  -12.1325   -1.9875   -1.5839 C   0  0  0  0  0  0  0  0  0  0  0  0
  -10.9106   -1.3062   -1.7264 C   0  0  0  0  0  0  0  0  0  0  0  0
   -9.9549   -1.2792   -2.8755 C   0  0  0  0  0  0  0  0  0  0  0  0
  -10.2085   -1.6472   -4.1606 C   0  0  0  0  0  0  0  0  0  0  0  0
   -9.2862   -1.4199   -5.2431 C   0  0  0  0  0  0  0  0  0  0  0  0
   -8.5560   -1.2454   -6.1236 N   0  0  0  0  0  0  0  0  0  0  0  0
  -11.4646   -2.2052   -4.5749 C   0  0  0  0  0  0  0  0  0  0  0  0
  -12.4752   -2.6491   -4.9278 N   0  0  0  0  0  0  0  0  0  0  0  0
   -6.3128   -0.0716   -2.1756 C   0  0  0  0  0  0  0  0  0  0  0  0
   -5.3669    0.8357   -2.6938 C   0  0  0  0  0  0  0  0  0  0  0  0
   -5.4435    1.4947   -4.0429 C   0  0  0  0  0  0  0  0  0  0  0  0
   -4.8882    0.5751   -5.1263 C   0  0  0  0  0  0  0  0  0  0  0  0
   -4.2674    0.9431   -1.8415 C   0  0  0  0  0  0  0  0  0  0  0  0
   -2.7467    1.6891   -1.9890 S   0  0  0  0  0  0  0  0  0  0  0  0
   -2.2161    0.9951   -0.5301 C   0  0  0  0  0  0  0  0  0  0  0  0
   -0.9247    0.7126    0.0345 C   0  0  0  0  0  0  0  0  0  0  0  0
    0.3371    1.2098   -0.3201 C   0  0  0  0  0  0  0  0  0  0  0  0
    1.4539    0.5821    0.2613 C   0  0  0  0  0  0  0  0  0  0  0  0
    2.9415    0.8235   -0.0369 C   0  0  0  0  0  0  0  0  0  0  0  0
    3.3739    2.1830    0.5364 C   0  0  0  0  0  0  0  0  0  0  0  0
    2.9741    3.3662   -0.1150 C   0  0  0  0  0  0  0  0  0  0  0  0
    3.4683    4.6103    0.2798 C   0  0  0  0  0  0  0  0  0  0  0  0
    4.3769    4.7061    1.3396 C   0  0  0  0  0  0  0  0  0  0  0  0
    4.9609    6.0399    1.7201 C   0  0  0  0  0  0  0  0  0  0  0  0
    4.0072    6.8175    2.6182 C   0  0  0  0  0  0  0  0  0  0  0  0
    4.7434    3.5460    2.0364 C   0  0  0  0  0  0  0  0  0  0  0  0
    4.2482    2.2978    1.6440 C   0  0  0  0  0  0  0  0  0  0  0  0
    3.3052    0.6997   -1.5257 C   0  0  0  0  0  0  0  0  0  0  0  0
    4.5135    1.2453   -2.0077 C   0  0  0  0  0  0  0  0  0  0  0  0
    4.8335    1.1918   -3.3673 C   0  0  0  0  0  0  0  0  0  0  0  0
    3.9591    0.5821   -4.2766 C   0  0  0  0  0  0  0  0  0  0  0  0
    4.2741    0.5919   -5.7485 C   0  0  0  0  0  0  0  0  0  0  0  0
    5.0530   -0.6571   -6.1540 C   0  0  0  0  0  0  0  0  0  0  0  0
    2.8017   -0.0464   -3.7954 C   0  0  0  0  0  0  0  0  0  0  0  0
    2.4848   -0.0034   -2.4344 C   0  0  0  0  0  0  0  0  0  0  0  0
    3.5103   -0.3597    0.7113 C   0  0  0  0  0  0  0  0  0  0  0  0
    2.5553   -1.0965    1.3448 C   0  0  0  0  0  0  0  0  0  0  0  0
    1.2674   -0.5220    1.1051 C   0  0  0  0  0  0  0  0  0  0  0  0
    0.0105   -0.9927    1.4887 C   0  0  0  0  0  0  0  0  0  0  0  0
   -1.1015   -0.3413    0.9419 C   0  0  0  0  0  0  0  0  0  0  0  0
   -2.5695   -0.7375    1.0889 C   0  0  0  0  0  0  0  0  0  0  0  0
   -2.7047   -2.2365    0.8008 C   0  0  0  0  0  0  0  0  0  0  0  0
   -2.6788   -3.1655    1.8623 C   0  0  0  0  0  0  0  0  0  0  0  0
   -2.6670   -4.5400    1.6141 C   0  0  0  0  0  0  0  0  0  0  0  0
   -2.6386   -5.0248    0.2981 C   0  0  0  0  0  0  0  0  0  0  0  0
   -2.6373   -6.5093    0.0408 C   0  0  0  0  0  0  0  0  0  0  0  0
   -4.0450   -7.0811    0.1592 C   0  0  0  0  0  0  0  0  0  0  0  0
   -2.6400   -4.1136   -0.7661 C   0  0  0  0  0  0  0  0  0  0  0  0
   -2.6448   -2.7347   -0.5176 C   0  0  0  0  0  0  0  0  0  0  0  0
   -3.2001   -0.2934    2.4163 C   0  0  0  0  0  0  0  0  0  0  0  0
   -4.5158   -0.6969    2.7257 C   0  0  0  0  0  0  0  0  0  0  0  0
   -5.1749   -0.1982    3.8527 C   0  0  0  0  0  0  0  0  0  0  0  0
   -4.5421    0.7319    4.6884 C   0  0  0  0  0  0  0  0  0  0  0  0
   -5.2695    1.3121    5.8729 C   0  0  0  0  0  0  0  0  0  0  0  0
   -4.9367    0.5495    7.1520 C   0  0  0  0  0  0  0  0  0  0  0  0
   -3.2250    1.1216    4.4069 C   0  0  0  0  0  0  0  0  0  0  0  0
   -2.5628    0.6228    3.2810 C   0  0  0  0  0  0  0  0  0  0  0  0
   -3.1450    0.1472    0.0098 C   0  0  0  0  0  0  0  0  0  0  0  0
   -4.3177    0.1457   -0.7311 C   0  0  0  0  0  0  0  0  0  0  0  0
   -5.7194   -0.7669   -0.7310 S   0  0  0  0  0  0  0  0  0  0  0  0
    3.1438   -2.5689    1.9584 S   0  0  0  0  0  0  0  0  0  0  0  0
    4.7164   -2.1828    1.4392 C   0  0  0  0  0  0  0  0  0  0  0  0
    5.9550   -2.8118    1.5655 C   0  0  0  0  0  0  0  0  0  0  0  0
    6.1474   -4.1795    2.1559 C   0  0  0  0  0  0  0  0  0  0  0  0
    5.9380   -5.2504    1.0875 C   0  0  0  0  0  0  0  0  0  0  0  0
    6.9773   -1.9935    1.0534 C   0  0  0  0  0  0  0  0  0  0  0  0
    6.3131   -0.5688    0.3838 S   0  0  0  0  0  0  0  0  0  0  0  0
    4.7477   -0.9759    0.7997 C   0  0  0  0  0  0  0  0  0  0  0  0
    8.4172   -2.2712    1.1405 C   0  0  0  0  0  0  0  0  0  0  0  0
    9.3195   -1.3665    1.5628 C   0  0  0  0  0  0  0  0  0  0  0  0
   10.7215   -1.3996    1.1620 C   0  0  0  0  0  0  0  0  0  0  0  0
   11.3257   -2.4049    0.7033 O   0  0  0  0  0  0  0  0  0  0  0  0
   11.2750   -0.0590    1.3220 C   0  0  0  0  0  0  0  0  0  0  0  0
   12.5441    0.4437    0.9825 C   0  0  0  0  0  0  0  0  0  0  0  0
   13.5550   -0.3573    0.4491 O   0  0  0  0  0  0  0  0  0  0  0  0
   12.7994    1.8078    1.1902 C   0  0  0  0  0  0  0  0  0  0  0  0
   11.8013    2.6527    1.6996 C   0  0  0  0  0  0  0  0  0  0  0  0
   10.5387    2.1392    2.0326 C   0  0  0  0  0  0  0  0  0  0  0  0
   10.2906    0.7694    1.8568 C   0  0  0  0  0  0  0  0  0  0  0  0
    9.0769   -0.0284    2.1747 C   0  0  0  0  0  0  0  0  0  0  0  0
    8.1769    0.2472    3.1532 C   0  0  0  0  0  0  0  0  0  0  0  0
    8.0389    1.5510    3.7465 C   0  0  0  0  0  0  0  0  0  0  0  0
    7.9005    2.5953    4.2324 N   0  0  0  0  0  0  0  0  0  0  0  0
    7.4184   -0.7977    3.7900 C   0  0  0  0  0  0  0  0  0  0  0  0
    6.8079   -1.6325    4.3119 N   0  0  0  0  0  0  0  0  0  0  0  0
   -7.3048   -1.0148   -3.8446 H   0  0  0  0  0  0  0  0  0  0  0  0
   -9.7391    0.7699    1.6277 H   0  0  0  0  0  0  0  0  0  0  0  0
  -12.9200   -0.9986    1.5843 H   0  0  0  0  0  0  0  0  0  0  0  0
  -13.7950   -2.3786   -0.2754 H   0  0  0  0  0  0  0  0  0  0  0  0
  -12.5210   -2.6426   -2.3446 H   0  0  0  0  0  0  0  0  0  0  0  0
   -4.8566    2.4391   -4.0257 H   0  0  0  0  0  0  0  0  0  0  0  0
   -6.4962    1.7613   -4.2734 H   0  0  0  0  0  0  0  0  0  0  0  0
   -5.6055   -0.2428   -5.3348 H   0  0  0  0  0  0  0  0  0  0  0  0
   -4.7535    1.1536   -6.0675 H   0  0  0  0  0  0  0  0  0  0  0  0
   -3.9130    0.1451   -4.8203 H   0  0  0  0  0  0  0  0  0  0  0  0
    0.4409    1.9880   -1.0591 H   0  0  0  0  0  0  0  0  0  0  0  0
    2.3178    3.3230   -0.9739 H   0  0  0  0  0  0  0  0  0  0  0  0
    3.1608    5.4995   -0.2598 H   0  0  0  0  0  0  0  0  0  0  0  0
    5.1672    6.6329    0.8011 H   0  0  0  0  0  0  0  0  0  0  0  0
    5.9298    5.9013    2.2490 H   0  0  0  0  0  0  0  0  0  0  0  0
    3.8113    6.2474    3.5507 H   0  0  0  0  0  0  0  0  0  0  0  0
    4.4524    7.7972    2.8830 H   0  0  0  0  0  0  0  0  0  0  0  0
    3.0400    6.9909    2.0925 H   0  0  0  0  0  0  0  0  0  0  0  0
    5.4324    3.6019    2.8723 H   0  0  0  0  0  0  0  0  0  0  0  0
    4.5762    1.4290    2.1952 H   0  0  0  0  0  0  0  0  0  0  0  0
    5.2076    1.7359   -1.3384 H   0  0  0  0  0  0  0  0  0  0  0  0
    5.7561    1.6438   -3.7123 H   0  0  0  0  0  0  0  0  0  0  0  0
    4.8779    1.4917   -5.9978 H   0  0  0  0  0  0  0  0  0  0  0  0
    3.3354    0.6528   -6.3433 H   0  0  0  0  0  0  0  0  0  0  0  0
    5.8977   -0.8379   -5.4567 H   0  0  0  0  0  0  0  0  0  0  0  0
    4.3779   -1.5387   -6.1545 H   0  0  0  0  0  0  0  0  0  0  0  0
    5.4541   -0.5234   -7.1828 H   0  0  0  0  0  0  0  0  0  0  0  0
    2.1347   -0.5560   -4.4807 H   0  0  0  0  0  0  0  0  0  0  0  0
    1.5914   -0.5130   -2.1024 H   0  0  0  0  0  0  0  0  0  0  0  0
   -0.0954   -1.8586    2.1272 H   0  0  0  0  0  0  0  0  0  0  0  0
   -2.6414   -2.8327    2.8905 H   0  0  0  0  0  0  0  0  0  0  0  0
   -2.6664   -5.2285    2.4511 H   0  0  0  0  0  0  0  0  0  0  0  0
   -1.9741   -7.0139    0.7799 H   0  0  0  0  0  0  0  0  0  0  0  0
   -2.2367   -6.7309   -0.9718 H   0  0  0  0  0  0  0  0  0  0  0  0
   -4.0200   -8.1723   -0.0509 H   0  0  0  0  0  0  0  0  0  0  0  0
   -4.4391   -6.9303    1.1863 H   0  0  0  0  0  0  0  0  0  0  0  0
   -4.7240   -6.5951   -0.5726 H   0  0  0  0  0  0  0  0  0  0  0  0
   -2.6187   -4.4655   -1.7908 H   0  0  0  0  0  0  0  0  0  0  0  0
   -2.5919   -2.0631   -1.3632 H   0  0  0  0  0  0  0  0  0  0  0  0
   -5.0433   -1.3880    2.0805 H   0  0  0  0  0  0  0  0  0  0  0  0
   -6.1865   -0.5246    4.0621 H   0  0  0  0  0  0  0  0  0  0  0  0
   -6.3688    1.2847    5.7060 H   0  0  0  0  0  0  0  0  0  0  0  0
   -4.9878    2.3793    6.0026 H   0  0  0  0  0  0  0  0  0  0  0  0
   -5.2097   -0.5209    7.0446 H   0  0  0  0  0  0  0  0  0  0  0  0
   -3.8515    0.6313    7.3741 H   0  0  0  0  0  0  0  0  0  0  0  0
   -5.5074    0.9847    7.9979 H   0  0  0  0  0  0  0  0  0  0  0  0
   -2.7140    1.8326    5.0456 H   0  0  0  0  0  0  0  0  0  0  0  0
   -1.5622    0.9840    3.0805 H   0  0  0  0  0  0  0  0  0  0  0  0
    7.1689   -4.2692    2.5797 H   0  0  0  0  0  0  0  0  0  0  0  0
    5.4244   -4.3421    2.9828 H   0  0  0  0  0  0  0  0  0  0  0  0
    6.0881   -6.2533    1.5382 H   0  0  0  0  0  0  0  0  0  0  0  0
    4.9058   -5.1952    0.6838 H   0  0  0  0  0  0  0  0  0  0  0  0
    6.6682   -5.1151    0.2585 H   0  0  0  0  0  0  0  0  0  0  0  0
    8.7597   -3.2098    0.7203 H   0  0  0  0  0  0  0  0  0  0  0  0
   13.4332   -1.3415    0.2339 H   0  0  0  0  0  0  0  0  0  0  0  0
   13.7687    2.2225    0.9381 H   0  0  0  0  0  0  0  0  0  0  0  0
   12.0042    3.7069    1.8398 H   0  0  0  0  0  0  0  0  0  0  0  0
    9.7855    2.8173    2.3935 H   0  0  0  0  0  0  0  0  0  0  0  0
  1  2  2  3
  2  3  1  0
  3  4  2  0
  3  5  1  0
  5  6  2  0
  6  7  1  0
  6  8  1  0
  8  9  2  0
  9 10  1  0
 10 11  2  0
 11 12  1  0
 12 13  2  3
 13 14  1  0
 14 15  3  0
 13 16  1  0
 16 17  3  0
  1 18  1  0
 18 19  2  0
 19 20  1  0
 20 21  1  0
 19 22  1  0
 22 23  1  0
 23 24  1  0
 24 25  1  0
 25 26  2  0
 26 27  1  0
 27 28  1  0
 28 29  1  0
 29 30  2  0
 30 31  1  0
 31 32  2  0
 32 33  1  0
 33 34  1  0
 32 35  1  0
 35 36  2  0
 28 37  1  0
 37 38  2  0
 38 39  1  0
 39 40  2  0
 40 41  1  0
 41 42  1  0
 40 43  1  0
 43 44  2  0
 28 45  1  0
 45 46  2  0
 46 47  1  0
 47 48  1  0
 48 49  2  0
 49 50  1  0
 50 51  1  0
 51 52  2  0
 52 53  1  0
 53 54  2  0
 54 55  1  0
 55 56  1  0
 54 57  1  0
 57 58  2  0
 50 59  1  0
 59 60  2  0
 60 61  1  0
 61 62  2  0
 62 63  1  0
 63 64  1  0
 62 65  1  0
 65 66  2  0
 50 67  1  0
 67 68  1  0
 68 69  1  0
 46 70  1  0
 70 71  1  0
 71 72  1  0
 72 73  1  0
 73 74  1  0
 72 75  2  0
 75 76  1  0
 76 77  1  0
 75 78  1  0
 78 79  2  3
 79 80  1  0
 80 81  2  0
 80 82  1  0
 82 83  2  0
 83 84  1  0
 83 85  1  0
 85 86  2  0
 86 87  1  0
 87 88  2  0
 88 89  1  0
 89 90  2  3
 90 91  1  0
 91 92  3  0
 90 93  1  0
 93 94  3  0
 12  2  1  0
 69 18  1  0
 77 71  2  0
 89 79  1  0
 11  5  1  0
 68 22  2  0
 88 82  1  0
 67 24  2  0
 49 25  1  0
 58 51  1  0
 66 59  1  0
 47 27  2  0
 36 29  1  0
 44 37  1  0
 77 45  1  0
  1 95  1  0
  7 96  1  0
  8 97  1  0
  9 98  1  0
 10 99  1  0
 20100  1  0
 20101  1  0
 21102  1  0
 21103  1  0
 21104  1  0
 26105  1  0
 30106  1  0
 31107  1  0
 33108  1  0
 33109  1  0
 34110  1  0
 34111  1  0
 34112  1  0
 35113  1  0
 36114  1  0
 38115  1  0
 39116  1  0
 41117  1  0
 41118  1  0
 42119  1  0
 42120  1  0
 42121  1  0
 43122  1  0
 44123  1  0
 48124  1  0
 52125  1  0
 53126  1  0
 55127  1  0
 55128  1  0
 56129  1  0
 56130  1  0
 56131  1  0
 57132  1  0
 58133  1  0
 60134  1  0
 61135  1  0
 63136  1  0
 63137  1  0
 64138  1  0
 64139  1  0
 64140  1  0
 65141  1  0
 66142  1  0
 73143  1  0
 73144  1  0
 74145  1  0
 74146  1  0
 74147  1  0
 78148  1  0
 84149  1  0
 85150  1  0
 86151  1  0
 87152  1  0
M  END

