
     RDKit          3D

114129  0  0  0  0  0  0  0  0999 V2000
   -3.9596    8.8716   -2.2146 C   0  0  0  0  0  0  0  0  0  0  0  0
   -3.3711    9.2212   -3.3723 C   0  0  0  0  0  0  0  0  0  0  0  0
   -3.8553   10.3116   -4.2173 C   0  0  0  0  0  0  0  0  0  0  0  0
   -4.6229   11.2366   -3.8452 O   0  0  0  0  0  0  0  0  0  0  0  0
   -3.3821   10.0765   -5.5787 C   0  0  0  0  0  0  0  0  0  0  0  0
   -3.7022   10.7402   -6.7764 C   0  0  0  0  0  0  0  0  0  0  0  0
   -4.4921   11.8888   -6.8143 O   0  0  0  0  0  0  0  0  0  0  0  0
   -3.2032   10.2166   -7.9785 C   0  0  0  0  0  0  0  0  0  0  0  0
   -2.4277    9.0466   -7.9822 C   0  0  0  0  0  0  0  0  0  0  0  0
   -2.1167    8.3981   -6.7804 C   0  0  0  0  0  0  0  0  0  0  0  0
   -2.5791    8.9430   -5.5755 C   0  0  0  0  0  0  0  0  0  0  0  0
   -2.3928    8.4513   -4.1882 C   0  0  0  0  0  0  0  0  0  0  0  0
   -1.2841    7.8279   -3.7184 C   0  0  0  0  0  0  0  0  0  0  0  0
   -0.2416    7.3469   -4.5894 C   0  0  0  0  0  0  0  0  0  0  0  0
    0.6202    6.9779   -5.2651 N   0  0  0  0  0  0  0  0  0  0  0  0
   -0.9461    7.8204   -2.3163 C   0  0  0  0  0  0  0  0  0  0  0  0
   -0.6376    7.8130   -1.1985 N   0  0  0  0  0  0  0  0  0  0  0  0
   -3.8747    7.5228   -1.6369 C   0  0  0  0  0  0  0  0  0  0  0  0
   -3.9865    6.0731   -2.5151 S   0  0  0  0  0  0  0  0  0  0  0  0
   -3.7390    5.0842   -1.1844 C   0  0  0  0  0  0  0  0  0  0  0  0
   -3.5991    3.6904   -1.1266 C   0  0  0  0  0  0  0  0  0  0  0  0
   -3.7101    2.6003   -2.4164 S   0  0  0  0  0  0  0  0  0  0  0  0
   -3.3035    1.3026   -1.4293 C   0  0  0  0  0  0  0  0  0  0  0  0
   -2.7134    0.1036   -1.6814 C   0  0  0  0  0  0  0  0  0  0  0  0
   -2.4122   -0.4852   -2.9173 C   0  0  0  0  0  0  0  0  0  0  0  0
   -1.4434   -1.5224   -2.9615 C   0  0  0  0  0  0  0  0  0  0  0  0
   -1.1366   -2.0348   -4.1790 N   0  0  0  0  0  0  0  0  0  0  0  0
   -2.1317   -1.1098   -5.1266 S   0  0  0  0  0  0  0  0  0  0  0  0
   -2.9359   -0.0854   -4.1036 N   0  0  0  0  0  0  0  0  0  0  0  0
   -0.8559   -1.9317   -1.7675 C   0  0  0  0  0  0  0  0  0  0  0  0
    0.1186   -2.8438   -1.5192 C   0  0  0  0  0  0  0  0  0  0  0  0
    1.1503   -3.8567   -2.3792 S   0  0  0  0  0  0  0  0  0  0  0  0
    1.9313   -4.3373   -0.9424 C   0  0  0  0  0  0  0  0  0  0  0  0
    3.0653   -5.1505   -0.8099 C   0  0  0  0  0  0  0  0  0  0  0  0
    3.6970   -5.3131    0.4262 C   0  0  0  0  0  0  0  0  0  0  0  0
    3.1624   -4.6404    1.5322 C   0  0  0  0  0  0  0  0  0  0  0  0
    3.6478   -4.5218    2.7764 N   0  0  0  0  0  0  0  0  0  0  0  0
    2.8232   -3.6667    3.3806 N   0  0  0  0  0  0  0  0  0  0  0  0
    2.9670   -3.2617    4.7738 C   0  0  0  0  0  0  0  0  0  0  0  0
    2.1360   -4.1664    5.6726 C   0  0  0  0  0  0  0  0  0  0  0  0
    1.8413   -3.2331    2.5935 N   0  0  0  0  0  0  0  0  0  0  0  0
    2.0397   -3.8544    1.4219 C   0  0  0  0  0  0  0  0  0  0  0  0
    1.3796   -3.6992    0.1916 C   0  0  0  0  0  0  0  0  0  0  0  0
    0.3224   -2.8679   -0.1848 C   0  0  0  0  0  0  0  0  0  0  0  0
   -0.5377   -2.0614    0.4923 N   0  0  0  0  0  0  0  0  0  0  0  0
   -1.1978   -1.3931   -0.5161 C   0  0  0  0  0  0  0  0  0  0  0  0
   -2.0980   -0.2819   -0.4789 C   0  0  0  0  0  0  0  0  0  0  0  0
   -2.2587    0.7037    0.4719 N   0  0  0  0  0  0  0  0  0  0  0  0
   -3.0160    1.6622   -0.1470 C   0  0  0  0  0  0  0  0  0  0  0  0
   -3.2069    3.0493    0.0750 C   0  0  0  0  0  0  0  0  0  0  0  0
   -3.0468    3.8730    1.2128 C   0  0  0  0  0  0  0  0  0  0  0  0
   -3.2428    5.2338    1.1479 C   0  0  0  0  0  0  0  0  0  0  0  0
   -3.5682    5.8722   -0.0476 C   0  0  0  0  0  0  0  0  0  0  0  0
   -3.6833    7.2445   -0.2835 C   0  0  0  0  0  0  0  0  0  0  0  0
   -3.0544    5.7639    2.3662 N   0  0  0  0  0  0  0  0  0  0  0  0
   -2.7636    4.7229    3.1405 N   0  0  0  0  0  0  0  0  0  0  0  0
   -2.4742    4.8393    4.5655 C   0  0  0  0  0  0  0  0  0  0  0  0
   -1.0939    5.4507    4.7746 C   0  0  0  0  0  0  0  0  0  0  0  0
   -2.7481    3.5650    2.4825 N   0  0  0  0  0  0  0  0  0  0  0  0
   -1.4564    0.9145    1.6812 C   0  0  0  0  0  0  0  0  0  0  0  0
   -2.3013    0.7176    2.9476 C   0  0  0  0  0  0  0  0  0  0  0  0
   -1.0805   -2.4360    1.8123 C   0  0  0  0  0  0  0  0  0  0  0  0
   -2.5876   -2.6942    1.7676 C   0  0  0  0  0  0  0  0  0  0  0  0
    4.8585   -6.0917    0.3654 C   0  0  0  0  0  0  0  0  0  0  0  0
    5.1025   -6.5637   -0.9299 C   0  0  0  0  0  0  0  0  0  0  0  0
    3.9326   -5.9593   -1.9909 S   0  0  0  0  0  0  0  0  0  0  0  0
    6.2616   -7.3428   -1.3841 C   0  0  0  0  0  0  0  0  0  0  0  0
    6.5720   -8.5765   -0.9400 C   0  0  0  0  0  0  0  0  0  0  0  0
    5.9014   -9.2909    0.1697 C   0  0  0  0  0  0  0  0  0  0  0  0
    4.9214   -8.8944    0.8578 O   0  0  0  0  0  0  0  0  0  0  0  0
    6.5898  -10.5454    0.3643 C   0  0  0  0  0  0  0  0  0  0  0  0
    7.6130  -10.6690   -0.5442 C   0  0  0  0  0  0  0  0  0  0  0  0
    8.3370  -11.8566   -0.4308 C   0  0  0  0  0  0  0  0  0  0  0  0
    7.6300  -12.7230    0.8396 S   0  0  0  0  0  0  0  0  0  0  0  0
    6.4177  -11.6131    1.2274 C   0  0  0  0  0  0  0  0  0  0  0  0
    5.4446  -11.7271    2.3541 C   0  0  0  0  0  0  0  0  0  0  0  0
    7.6608   -9.4927   -1.4466 C   0  0  0  0  0  0  0  0  0  0  0  0
    8.4417   -9.3772   -2.5540 C   0  0  0  0  0  0  0  0  0  0  0  0
    8.3244   -8.3018   -3.5038 C   0  0  0  0  0  0  0  0  0  0  0  0
    8.2488   -7.4543   -4.2863 N   0  0  0  0  0  0  0  0  0  0  0  0
    9.4209  -10.3713   -2.9011 C   0  0  0  0  0  0  0  0  0  0  0  0
   10.2139  -11.1611   -3.2024 N   0  0  0  0  0  0  0  0  0  0  0  0
   -4.6342    9.5675   -1.7340 H   0  0  0  0  0  0  0  0  0  0  0  0
   -4.8655   12.3272   -5.9844 H   0  0  0  0  0  0  0  0  0  0  0  0
   -3.4367   10.7015   -8.9169 H   0  0  0  0  0  0  0  0  0  0  0  0
   -2.0815    8.6341   -8.9208 H   0  0  0  0  0  0  0  0  0  0  0  0
   -1.5634    7.4726   -6.8110 H   0  0  0  0  0  0  0  0  0  0  0  0
    4.0359   -3.3216    5.0738 H   0  0  0  0  0  0  0  0  0  0  0  0
    2.6298   -2.2086    4.8923 H   0  0  0  0  0  0  0  0  0  0  0  0
    2.2395   -3.8411    6.7288 H   0  0  0  0  0  0  0  0  0  0  0  0
    1.0659   -4.1116    5.3837 H   0  0  0  0  0  0  0  0  0  0  0  0
    2.4842   -5.2174    5.5834 H   0  0  0  0  0  0  0  0  0  0  0  0
   -3.5672    8.0040    0.4787 H   0  0  0  0  0  0  0  0  0  0  0  0
   -2.5108    3.8360    5.0413 H   0  0  0  0  0  0  0  0  0  0  0  0
   -3.2397    5.4841    5.0469 H   0  0  0  0  0  0  0  0  0  0  0  0
   -0.8768    5.5151    5.8604 H   0  0  0  0  0  0  0  0  0  0  0  0
   -0.3184    4.8170    4.2920 H   0  0  0  0  0  0  0  0  0  0  0  0
   -1.0556    6.4738    4.3399 H   0  0  0  0  0  0  0  0  0  0  0  0
   -1.0303    1.9378    1.6650 H   0  0  0  0  0  0  0  0  0  0  0  0
   -0.5662    0.2624    1.6904 H   0  0  0  0  0  0  0  0  0  0  0  0
   -3.3186    1.1393    2.8175 H   0  0  0  0  0  0  0  0  0  0  0  0
   -2.4286   -0.3474    3.2037 H   0  0  0  0  0  0  0  0  0  0  0  0
   -1.8070    1.2167    3.8055 H   0  0  0  0  0  0  0  0  0  0  0  0
   -0.6308   -3.3934    2.1464 H   0  0  0  0  0  0  0  0  0  0  0  0
   -0.8009   -1.7028    2.5858 H   0  0  0  0  0  0  0  0  0  0  0  0
   -3.1537   -1.7774    1.5135 H   0  0  0  0  0  0  0  0  0  0  0  0
   -2.9341   -3.0527    2.7606 H   0  0  0  0  0  0  0  0  0  0  0  0
   -2.8183   -3.4751    1.0121 H   0  0  0  0  0  0  0  0  0  0  0  0
    5.5039   -6.2823    1.2136 H   0  0  0  0  0  0  0  0  0  0  0  0
    6.8036   -6.8953   -2.1936 H   0  0  0  0  0  0  0  0  0  0  0  0
    9.1752  -12.1870   -1.0243 H   0  0  0  0  0  0  0  0  0  0  0  0
    5.8599  -11.2293    3.2564 H   0  0  0  0  0  0  0  0  0  0  0  0
    4.4783  -11.2498    2.0833 H   0  0  0  0  0  0  0  0  0  0  0  0
    5.2576  -12.7968    2.5841 H   0  0  0  0  0  0  0  0  0  0  0  0
  1  2  2  3
  2  3  1  0
  3  4  2  0
  3  5  1  0
  5  6  2  0
  6  7  1  0
  6  8  1  0
  8  9  2  0
  9 10  1  0
 10 11  2  0
 11 12  1  0
 12 13  2  3
 13 14  1  0
 14 15  3  0
 13 16  1  0
 16 17  3  0
  1 18  1  0
 18 19  1  0
 19 20  1  0
 20 21  1  0
 21 22  1  0
 22 23  1  0
 23 24  1  0
 24 25  1  0
 25 26  1  0
 26 27  2  0
 27 28  1  0
 28 29  1  0
 26 30  1  0
 30 31  1  0
 31 32  1  0
 32 33  1  0
 33 34  1  0
 34 35  2  0
 35 36  1  0
 36 37  2  0
 37 38  1  0
 38 39  1  0
 39 40  1  0
 38 41  1  0
 41 42  2  0
 42 43  1  0
 43 44  1  0
 44 45  1  0
 45 46  1  0
 46 47  1  0
 47 48  1  0
 48 49  1  0
 49 50  1  0
 50 51  1  0
 51 52  1  0
 52 53  1  0
 53 54  1  0
 52 55  2  0
 55 56  1  0
 56 57  1  0
 57 58  1  0
 56 59  1  0
 48 60  1  0
 60 61  1  0
 45 62  1  0
 62 63  1  0
 35 64  1  0
 64 65  2  0
 65 66  1  0
 65 67  1  0
 67 68  2  3
 68 69  1  0
 69 70  2  0
 69 71  1  0
 71 72  1  0
 72 73  2  0
 73 74  1  0
 74 75  1  0
 75 76  1  0
 72 77  1  0
 77 78  2  3
 78 79  1  0
 79 80  3  0
 78 81  1  0
 81 82  3  0
 12  2  1  0
 54 18  2  0
 77 68  1  0
 11  5  1  0
 53 20  2  0
 75 71  2  0
 50 21  2  0
 59 51  2  0
 49 23  2  0
 47 24  2  0
 29 25  2  0
 46 30  2  0
 44 31  2  0
 43 33  2  0
 66 34  1  0
 42 36  1  0
  1 83  1  0
  7 84  1  0
  8 85  1  0
  9 86  1  0
 10 87  1  0
 39 88  1  0
 39 89  1  0
 40 90  1  0
 40 91  1  0
 40 92  1  0
 54 93  1  0
 57 94  1  0
 57 95  1  0
 58 96  1  0
 58 97  1  0
 58 98  1  0
 60 99  1  0
 60100  1  0
 61101  1  0
 61102  1  0
 61103  1  0
 62104  1  0
 62105  1  0
 63106  1  0
 63107  1  0
 63108  1  0
 64109  1  0
 67110  1  0
 73111  1  0
 76112  1  0
 76113  1  0
 76114  1  0
M  END

