
     RDKit          3D

166181  0  0  0  0  0  0  0  0999 V2000
   -2.0647    3.7775   -7.1361 C   0  0  0  0  0  0  0  0  0  0  0  0
   -3.3596    4.0860   -7.2585 C   0  0  0  0  0  0  0  0  0  0  0  0
   -4.2570    3.2454   -8.0510 C   0  0  0  0  0  0  0  0  0  0  0  0
   -4.1232    2.0052   -8.2558 O   0  0  0  0  0  0  0  0  0  0  0  0
   -5.2576    4.0953   -8.6724 C   0  0  0  0  0  0  0  0  0  0  0  0
   -6.2165    3.7566   -9.6223 C   0  0  0  0  0  0  0  0  0  0  0  0
   -7.0389    4.7732  -10.1524 C   0  0  0  0  0  0  0  0  0  0  0  0
   -8.0009    4.5132  -11.1424 O   0  0  0  0  0  0  0  0  0  0  0  0
   -8.1351    3.2713  -11.8266 C   0  0  0  0  0  0  0  0  0  0  0  0
   -6.9006    6.1024   -9.6916 C   0  0  0  0  0  0  0  0  0  0  0  0
   -7.7820    7.0751  -10.1905 O   0  0  0  0  0  0  0  0  0  0  0  0
   -7.8799    8.4035   -9.6855 C   0  0  0  0  0  0  0  0  0  0  0  0
   -5.8908    6.4239   -8.7577 C   0  0  0  0  0  0  0  0  0  0  0  0
   -5.0651    5.4052   -8.2648 C   0  0  0  0  0  0  0  0  0  0  0  0
   -3.8946    5.4711   -7.3497 C   0  0  0  0  0  0  0  0  0  0  0  0
   -3.5160    6.4940   -6.5419 C   0  0  0  0  0  0  0  0  0  0  0  0
   -2.4655    6.3333   -5.5617 C   0  0  0  0  0  0  0  0  0  0  0  0
   -1.6263    6.2162   -4.7752 N   0  0  0  0  0  0  0  0  0  0  0  0
   -4.1879    7.7662   -6.5128 C   0  0  0  0  0  0  0  0  0  0  0  0
   -4.7198    8.7938   -6.4675 N   0  0  0  0  0  0  0  0  0  0  0  0
   -1.6483    2.8724   -6.0591 C   0  0  0  0  0  0  0  0  0  0  0  0
   -0.3731    2.2675   -5.9455 C   0  0  0  0  0  0  0  0  0  0  0  0
    0.5778    2.0299   -7.0874 C   0  0  0  0  0  0  0  0  0  0  0  0
    1.5397    3.1994   -7.2562 C   0  0  0  0  0  0  0  0  0  0  0  0
   -0.1061    1.9235   -4.6198 C   0  0  0  0  0  0  0  0  0  0  0  0
    1.2532    1.2797   -3.8224 S   0  0  0  0  0  0  0  0  0  0  0  0
    0.4774    1.4480   -2.3186 C   0  0  0  0  0  0  0  0  0  0  0  0
    0.7085    1.0842   -0.9593 C   0  0  0  0  0  0  0  0  0  0  0  0
   -0.4390    1.3328   -0.2467 C   0  0  0  0  0  0  0  0  0  0  0  0
   -1.5010    2.0448   -1.0710 C   0  0  0  0  0  0  0  0  0  0  0  0
   -0.7910    1.9514   -2.4156 C   0  0  0  0  0  0  0  0  0  0  0  0
   -1.1095    2.2131   -3.7340 C   0  0  0  0  0  0  0  0  0  0  0  0
   -2.4023    2.9052   -4.5217 S   0  0  0  0  0  0  0  0  0  0  0  0
   -2.8225    1.2735   -1.0225 C   0  0  0  0  0  0  0  0  0  0  0  0
   -3.0652    0.1790   -1.8783 C   0  0  0  0  0  0  0  0  0  0  0  0
   -4.2886   -0.4883   -1.8530 C   0  0  0  0  0  0  0  0  0  0  0  0
   -5.2946   -0.0921   -0.9619 C   0  0  0  0  0  0  0  0  0  0  0  0
   -6.6080   -0.8254   -0.9273 C   0  0  0  0  0  0  0  0  0  0  0  0
   -6.5609   -1.9735    0.0780 C   0  0  0  0  0  0  0  0  0  0  0  0
   -5.0384    0.9449   -0.0563 C   0  0  0  0  0  0  0  0  0  0  0  0
   -3.8108    1.6117   -0.0764 C   0  0  0  0  0  0  0  0  0  0  0  0
   -1.6461    3.5343   -0.7134 C   0  0  0  0  0  0  0  0  0  0  0  0
   -0.7761    4.1874    0.1855 C   0  0  0  0  0  0  0  0  0  0  0  0
   -0.9070    5.5539    0.4467 C   0  0  0  0  0  0  0  0  0  0  0  0
   -1.8950    6.3096   -0.1969 C   0  0  0  0  0  0  0  0  0  0  0  0
   -2.0053    7.7896    0.0627 C   0  0  0  0  0  0  0  0  0  0  0  0
   -0.8676    8.5470   -0.6207 C   0  0  0  0  0  0  0  0  0  0  0  0
   -2.7542    5.6754   -1.1038 C   0  0  0  0  0  0  0  0  0  0  0  0
   -2.6395    4.3081   -1.3497 C   0  0  0  0  0  0  0  0  0  0  0  0
   -0.2849    0.9565    1.0773 C   0  0  0  0  0  0  0  0  0  0  0  0
   -1.3160    0.7861    2.4191 S   0  0  0  0  0  0  0  0  0  0  0  0
   -0.0270    0.1961    3.3602 C   0  0  0  0  0  0  0  0  0  0  0  0
    0.1387   -0.5427    4.5849 C   0  0  0  0  0  0  0  0  0  0  0  0
    1.4177   -1.0535    4.5892 C   0  0  0  0  0  0  0  0  0  0  0  0
    2.2662   -0.5552    3.4296 C   0  0  0  0  0  0  0  0  0  0  0  0
    2.9025   -1.6755    2.6000 C   0  0  0  0  0  0  0  0  0  0  0  0
    4.1763   -1.5168    2.0149 C   0  0  0  0  0  0  0  0  0  0  0  0
    4.7545   -2.5514    1.2745 C   0  0  0  0  0  0  0  0  0  0  0  0
    4.0629   -3.7548    1.0794 C   0  0  0  0  0  0  0  0  0  0  0  0
    4.7036   -4.8855    0.3247 C   0  0  0  0  0  0  0  0  0  0  0  0
    4.2172   -4.9278   -1.1178 C   0  0  0  0  0  0  0  0  0  0  0  0
    2.7608   -3.8864    1.5796 C   0  0  0  0  0  0  0  0  0  0  0  0
    2.1798   -2.8511    2.3161 C   0  0  0  0  0  0  0  0  0  0  0  0
    3.2687    0.4614    3.9929 C   0  0  0  0  0  0  0  0  0  0  0  0
    4.2697    0.0175    4.8796 C   0  0  0  0  0  0  0  0  0  0  0  0
    5.1336    0.9180    5.5008 C   0  0  0  0  0  0  0  0  0  0  0  0
    5.0286    2.2911    5.2430 C   0  0  0  0  0  0  0  0  0  0  0  0
    5.9015    3.2711    5.9787 C   0  0  0  0  0  0  0  0  0  0  0  0
    5.1667    3.8264    7.1988 C   0  0  0  0  0  0  0  0  0  0  0  0
    4.0492    2.7495    4.3530 C   0  0  0  0  0  0  0  0  0  0  0  0
    3.1832    1.8476    3.7279 C   0  0  0  0  0  0  0  0  0  0  0  0
    1.1475    0.1052    2.6583 C   0  0  0  0  0  0  0  0  0  0  0  0
    0.9857    0.5083    1.3502 C   0  0  0  0  0  0  0  0  0  0  0  0
    1.9786    0.4643   -0.0260 S   0  0  0  0  0  0  0  0  0  0  0  0
    1.5291   -2.1351    5.4489 C   0  0  0  0  0  0  0  0  0  0  0  0
    0.3744   -2.4564    6.1054 C   0  0  0  0  0  0  0  0  0  0  0  0
   -0.8953   -1.4383    5.5967 S   0  0  0  0  0  0  0  0  0  0  0  0
    0.4415   -3.6198    6.8837 C   0  0  0  0  0  0  0  0  0  0  0  0
   -0.6826   -4.1265    7.7426 C   0  0  0  0  0  0  0  0  0  0  0  0
   -1.8846   -4.5615    6.9067 C   0  0  0  0  0  0  0  0  0  0  0  0
    1.7159   -4.2233    6.7541 C   0  0  0  0  0  0  0  0  0  0  0  0
    2.6995   -3.2897    5.7256 S   0  0  0  0  0  0  0  0  0  0  0  0
    2.2529   -5.4085    7.4438 C   0  0  0  0  0  0  0  0  0  0  0  0
    2.6330   -6.4754    6.7179 C   0  0  0  0  0  0  0  0  0  0  0  0
    4.0367   -6.8826    6.6256 C   0  0  0  0  0  0  0  0  0  0  0  0
    4.9075   -6.7531    7.5247 O   0  0  0  0  0  0  0  0  0  0  0  0
    4.2812   -7.3547    5.2719 C   0  0  0  0  0  0  0  0  0  0  0  0
    5.4861   -7.7345    4.6828 C   0  0  0  0  0  0  0  0  0  0  0  0
    5.4864   -8.1245    3.3259 C   0  0  0  0  0  0  0  0  0  0  0  0
    6.6558   -8.5309    2.6699 O   0  0  0  0  0  0  0  0  0  0  0  0
    7.9429   -8.5784    3.2778 C   0  0  0  0  0  0  0  0  0  0  0  0
    4.2792   -8.1147    2.5913 C   0  0  0  0  0  0  0  0  0  0  0  0
    4.3161   -8.5413    1.2548 O   0  0  0  0  0  0  0  0  0  0  0  0
    3.1742   -8.6428    0.4062 C   0  0  0  0  0  0  0  0  0  0  0  0
    3.0778   -7.6942    3.2084 C   0  0  0  0  0  0  0  0  0  0  0  0
    3.0963   -7.3327    4.5594 C   0  0  0  0  0  0  0  0  0  0  0  0
    1.9934   -6.9137    5.4536 C   0  0  0  0  0  0  0  0  0  0  0  0
    0.6983   -7.2985    5.3622 C   0  0  0  0  0  0  0  0  0  0  0  0
   -0.1106   -7.4207    6.5508 C   0  0  0  0  0  0  0  0  0  0  0  0
   -0.7543   -7.5425    7.5047 N   0  0  0  0  0  0  0  0  0  0  0  0
    0.1199   -7.8174    4.1505 C   0  0  0  0  0  0  0  0  0  0  0  0
   -0.3557   -8.2326    3.1783 N   0  0  0  0  0  0  0  0  0  0  0  0
   -1.3526    4.5536   -7.3768 H   0  0  0  0  0  0  0  0  0  0  0  0
   -6.3027    2.7304   -9.9488 H   0  0  0  0  0  0  0  0  0  0  0  0
   -8.9454    3.3593  -12.5805 H   0  0  0  0  0  0  0  0  0  0  0  0
   -7.1849    3.0221  -12.3483 H   0  0  0  0  0  0  0  0  0  0  0  0
   -8.3956    2.4670  -11.1075 H   0  0  0  0  0  0  0  0  0  0  0  0
   -8.7098    8.9298  -10.1999 H   0  0  0  0  0  0  0  0  0  0  0  0
   -8.0935    8.3830   -8.5950 H   0  0  0  0  0  0  0  0  0  0  0  0
   -6.9364    8.9608   -9.8709 H   0  0  0  0  0  0  0  0  0  0  0  0
   -5.7443    7.4480   -8.4685 H   0  0  0  0  0  0  0  0  0  0  0  0
    0.0073    1.8764   -8.0307 H   0  0  0  0  0  0  0  0  0  0  0  0
    1.1539    1.1003   -6.8956 H   0  0  0  0  0  0  0  0  0  0  0  0
    2.0906    3.4030   -6.3103 H   0  0  0  0  0  0  0  0  0  0  0  0
    0.9860    4.1122   -7.5561 H   0  0  0  0  0  0  0  0  0  0  0  0
    2.2759    2.9523   -8.0498 H   0  0  0  0  0  0  0  0  0  0  0  0
   -2.3117   -0.1588   -2.5795 H   0  0  0  0  0  0  0  0  0  0  0  0
   -4.4572   -1.3140   -2.5316 H   0  0  0  0  0  0  0  0  0  0  0  0
   -6.8459   -1.2302   -1.9364 H   0  0  0  0  0  0  0  0  0  0  0  0
   -7.4269   -0.1252   -0.6514 H   0  0  0  0  0  0  0  0  0  0  0  0
   -6.3980   -1.5770    1.1003 H   0  0  0  0  0  0  0  0  0  0  0  0
   -5.7381   -2.6723   -0.1747 H   0  0  0  0  0  0  0  0  0  0  0  0
   -7.5250   -2.5240    0.0577 H   0  0  0  0  0  0  0  0  0  0  0  0
   -5.7871    1.2375    0.6683 H   0  0  0  0  0  0  0  0  0  0  0  0
   -3.6386    2.3988    0.6456 H   0  0  0  0  0  0  0  0  0  0  0  0
    0.0282    3.6620    0.6811 H   0  0  0  0  0  0  0  0  0  0  0  0
   -0.2279    6.0264    1.1480 H   0  0  0  0  0  0  0  0  0  0  0  0
   -1.9634    7.9806    1.1579 H   0  0  0  0  0  0  0  0  0  0  0  0
   -2.9789    8.1819   -0.3067 H   0  0  0  0  0  0  0  0  0  0  0  0
   -0.8348    8.3062   -1.7028 H   0  0  0  0  0  0  0  0  0  0  0  0
    0.1044    8.2755   -0.1575 H   0  0  0  0  0  0  0  0  0  0  0  0
   -1.0197    9.6410   -0.4990 H   0  0  0  0  0  0  0  0  0  0  0  0
   -3.5252    6.2410   -1.6145 H   0  0  0  0  0  0  0  0  0  0  0  0
   -3.3318    3.8464   -2.0389 H   0  0  0  0  0  0  0  0  0  0  0  0
    4.7404   -0.6032    2.1362 H   0  0  0  0  0  0  0  0  0  0  0  0
    5.7448   -2.4129    0.8563 H   0  0  0  0  0  0  0  0  0  0  0  0
    4.4578   -5.8452    0.8270 H   0  0  0  0  0  0  0  0  0  0  0  0
    5.8122   -4.7875    0.3354 H   0  0  0  0  0  0  0  0  0  0  0  0
    4.5619   -4.0268   -1.6695 H   0  0  0  0  0  0  0  0  0  0  0  0
    4.6252   -5.8301   -1.6215 H   0  0  0  0  0  0  0  0  0  0  0  0
    3.1082   -4.9784   -1.1520 H   0  0  0  0  0  0  0  0  0  0  0  0
    2.1948   -4.7939    1.4050 H   0  0  0  0  0  0  0  0  0  0  0  0
    1.1653   -2.9752    2.6765 H   0  0  0  0  0  0  0  0  0  0  0  0
    4.3746   -1.0357    5.0982 H   0  0  0  0  0  0  0  0  0  0  0  0
    5.8727    0.5460    6.2009 H   0  0  0  0  0  0  0  0  0  0  0  0
    6.1845    4.1078    5.3042 H   0  0  0  0  0  0  0  0  0  0  0  0
    6.8423    2.7797    6.3105 H   0  0  0  0  0  0  0  0  0  0  0  0
    4.2839    4.4202    6.8787 H   0  0  0  0  0  0  0  0  0  0  0  0
    4.8318    3.0000    7.8610 H   0  0  0  0  0  0  0  0  0  0  0  0
    5.8521    4.4878    7.7659 H   0  0  0  0  0  0  0  0  0  0  0  0
    3.9429    3.8099    4.1608 H   0  0  0  0  0  0  0  0  0  0  0  0
    2.4378    2.2542    3.0607 H   0  0  0  0  0  0  0  0  0  0  0  0
   -0.3342   -4.9796    8.3579 H   0  0  0  0  0  0  0  0  0  0  0  0
   -0.9944   -3.3246    8.4456 H   0  0  0  0  0  0  0  0  0  0  0  0
   -2.4277   -3.6790    6.5073 H   0  0  0  0  0  0  0  0  0  0  0  0
   -2.5918   -5.1286    7.5526 H   0  0  0  0  0  0  0  0  0  0  0  0
   -1.5780   -5.2050    6.0587 H   0  0  0  0  0  0  0  0  0  0  0  0
    2.8447   -5.1692    8.3151 H   0  0  0  0  0  0  0  0  0  0  0  0
    6.3935   -7.7233    5.2770 H   0  0  0  0  0  0  0  0  0  0  0  0
    8.6819   -8.9446    2.5406 H   0  0  0  0  0  0  0  0  0  0  0  0
    7.9324   -9.2740    4.1411 H   0  0  0  0  0  0  0  0  0  0  0  0
    8.2438   -7.5644    3.6093 H   0  0  0  0  0  0  0  0  0  0  0  0
    2.4341   -9.3517    0.8414 H   0  0  0  0  0  0  0  0  0  0  0  0
    3.4889   -9.0283   -0.5842 H   0  0  0  0  0  0  0  0  0  0  0  0
    2.7104   -7.6417    0.2646 H   0  0  0  0  0  0  0  0  0  0  0  0
    2.1688   -7.6222    2.6349 H   0  0  0  0  0  0  0  0  0  0  0  0
  1  2  2  3
  2  3  1  0
  3  4  2  0
  3  5  1  0
  5  6  2  0
  6  7  1  0
  7  8  1  0
  8  9  1  0
  7 10  2  0
 10 11  1  0
 11 12  1  0
 10 13  1  0
 13 14  2  0
 14 15  1  0
 15 16  2  3
 16 17  1  0
 17 18  3  0
 16 19  1  0
 19 20  3  0
  1 21  1  0
 21 22  2  0
 22 23  1  0
 23 24  1  0
 22 25  1  0
 25 26  1  0
 26 27  1  0
 27 28  1  0
 28 29  2  0
 29 30  1  0
 30 31  1  0
 31 32  1  0
 32 33  1  0
 30 34  1  0
 34 35  2  0
 35 36  1  0
 36 37  2  0
 37 38  1  0
 38 39  1  0
 37 40  1  0
 40 41  2  0
 30 42  1  0
 42 43  2  0
 43 44  1  0
 44 45  2  0
 45 46  1  0
 46 47  1  0
 45 48  1  0
 48 49  2  0
 29 50  1  0
 50 51  1  0
 51 52  1  0
 52 53  1  0
 53 54  2  0
 54 55  1  0
 55 56  1  0
 56 57  2  0
 57 58  1  0
 58 59  2  0
 59 60  1  0
 60 61  1  0
 59 62  1  0
 62 63  2  0
 55 64  1  0
 64 65  2  0
 65 66  1  0
 66 67  2  0
 67 68  1  0
 68 69  1  0
 67 70  1  0
 70 71  2  0
 55 72  1  0
 72 73  1  0
 73 74  1  0
 54 75  1  0
 75 76  2  0
 76 77  1  0
 76 78  1  0
 78 79  1  0
 79 80  1  0
 78 81  2  0
 81 82  1  0
 81 83  1  0
 83 84  2  3
 84 85  1  0
 85 86  2  0
 85 87  1  0
 87 88  2  0
 88 89  1  0
 89 90  1  0
 90 91  1  0
 89 92  2  0
 92 93  1  0
 93 94  1  0
 92 95  1  0
 95 96  2  0
 96 97  1  0
 97 98  2  3
 98 99  1  0
 99100  3  0
 98101  1  0
101102  3  0
 15  2  1  0
 33 21  1  0
 41 34  1  0
 49 42  1  0
 73 50  2  0
 82 75  1  0
 97 84  1  0
 14  5  1  0
 32 25  2  0
 72 52  2  0
 96 87  1  0
 31 27  2  0
 77 53  1  0
 74 28  1  0
 63 56  1  0
 71 64  1  0
  1103  1  0
  6104  1  0
  9105  1  0
  9106  1  0
  9107  1  0
 12108  1  0
 12109  1  0
 12110  1  0
 13111  1  0
 23112  1  0
 23113  1  0
 24114  1  0
 24115  1  0
 24116  1  0
 35117  1  0
 36118  1  0
 38119  1  0
 38120  1  0
 39121  1  0
 39122  1  0
 39123  1  0
 40124  1  0
 41125  1  0
 43126  1  0
 44127  1  0
 46128  1  0
 46129  1  0
 47130  1  0
 47131  1  0
 47132  1  0
 48133  1  0
 49134  1  0
 57135  1  0
 58136  1  0
 60137  1  0
 60138  1  0
 61139  1  0
 61140  1  0
 61141  1  0
 62142  1  0
 63143  1  0
 65144  1  0
 66145  1  0
 68146  1  0
 68147  1  0
 69148  1  0
 69149  1  0
 69150  1  0
 70151  1  0
 71152  1  0
 79153  1  0
 79154  1  0
 80155  1  0
 80156  1  0
 80157  1  0
 83158  1  0
 88159  1  0
 91160  1  0
 91161  1  0
 91162  1  0
 94163  1  0
 94164  1  0
 94165  1  0
 95166  1  0
M  END

