
     RDKit          3D

122137  0  0  0  0  0  0  0  0999 V2000
    2.1792    5.4632    5.0890 C   0  0  0  0  0  0  0  0  0  0  0  0
    1.0524    5.5450    5.8304 C   0  0  0  0  0  0  0  0  0  0  0  0
    0.0129    4.5072    5.8959 C   0  0  0  0  0  0  0  0  0  0  0  0
   -0.0588    3.4680    5.1868 O   0  0  0  0  0  0  0  0  0  0  0  0
   -1.0075    4.9279    6.8211 C   0  0  0  0  0  0  0  0  0  0  0  0
   -2.1738    4.2454    7.1592 C   0  0  0  0  0  0  0  0  0  0  0  0
   -3.0885    4.8548    8.0404 C   0  0  0  0  0  0  0  0  0  0  0  0
   -4.2766    4.2188    8.4349 O   0  0  0  0  0  0  0  0  0  0  0  0
   -4.6787    2.9237    7.9995 C   0  0  0  0  0  0  0  0  0  0  0  0
   -2.8199    6.1452    8.5410 C   0  0  0  0  0  0  0  0  0  0  0  0
   -3.7629    6.7258    9.4051 O   0  0  0  0  0  0  0  0  0  0  0  0
   -3.6368    8.0181    9.9893 C   0  0  0  0  0  0  0  0  0  0  0  0
   -1.6322    6.8184    8.1639 C   0  0  0  0  0  0  0  0  0  0  0  0
   -0.7097    6.1830    7.3126 C   0  0  0  0  0  0  0  0  0  0  0  0
    0.5909    6.6594    6.7348 C   0  0  0  0  0  0  0  0  0  0  0  0
    1.2331    7.8260    7.0269 C   0  0  0  0  0  0  0  0  0  0  0  0
    0.7859    8.7288    8.0550 C   0  0  0  0  0  0  0  0  0  0  0  0
    0.4487    9.4647    8.8843 N   0  0  0  0  0  0  0  0  0  0  0  0
    2.4283    8.2660    6.3564 C   0  0  0  0  0  0  0  0  0  0  0  0
    3.3881    8.6412    5.8285 N   0  0  0  0  0  0  0  0  0  0  0  0
    2.5971    4.2417    4.3861 C   0  0  0  0  0  0  0  0  0  0  0  0
    2.7303    2.9744    4.9737 C   0  0  0  0  0  0  0  0  0  0  0  0
    3.0539    2.0257    4.0151 C   0  0  0  0  0  0  0  0  0  0  0  0
    3.0335    0.3281    4.0308 S   0  0  0  0  0  0  0  0  0  0  0  0
    3.2538    0.2577    2.3464 C   0  0  0  0  0  0  0  0  0  0  0  0
    3.1009   -0.7437    1.3959 C   0  0  0  0  0  0  0  0  0  0  0  0
    2.5362   -2.1499    1.4553 C   0  0  0  0  0  0  0  0  0  0  0  0
    1.3150   -2.1669    2.3870 C   0  0  0  0  0  0  0  0  0  0  0  0
    0.0909   -1.5932    1.9767 C   0  0  0  0  0  0  0  0  0  0  0  0
   -1.0001   -1.5360    2.8485 C   0  0  0  0  0  0  0  0  0  0  0  0
   -0.8847   -2.0258    4.1491 C   0  0  0  0  0  0  0  0  0  0  0  0
    0.3264   -2.5592    4.5877 C   0  0  0  0  0  0  0  0  0  0  0  0
    1.4233   -2.6150    3.7230 C   0  0  0  0  0  0  0  0  0  0  0  0
    3.5963   -3.2091    1.7946 C   0  0  0  0  0  0  0  0  0  0  0  0
    4.9734   -2.8978    1.8792 C   0  0  0  0  0  0  0  0  0  0  0  0
    5.9159   -3.8942    2.1471 C   0  0  0  0  0  0  0  0  0  0  0  0
    5.5084   -5.2156    2.3250 C   0  0  0  0  0  0  0  0  0  0  0  0
    4.1564   -5.5459    2.2330 C   0  0  0  0  0  0  0  0  0  0  0  0
    3.2082   -4.5554    1.9650 C   0  0  0  0  0  0  0  0  0  0  0  0
    2.1455   -2.3065   -0.0129 C   0  0  0  0  0  0  0  0  0  0  0  0
    2.5084   -1.1878   -0.7708 C   0  0  0  0  0  0  0  0  0  0  0  0
    3.0994   -0.2292    0.1235 C   0  0  0  0  0  0  0  0  0  0  0  0
    3.1623    1.4718    0.1105 S   0  0  0  0  0  0  0  0  0  0  0  0
    3.3230    1.5176    1.7957 C   0  0  0  0  0  0  0  0  0  0  0  0
    3.2020    2.5129    2.7458 C   0  0  0  0  0  0  0  0  0  0  0  0
    2.9112    4.1638    2.7107 S   0  0  0  0  0  0  0  0  0  0  0  0
    2.1819   -1.0537   -2.1248 C   0  0  0  0  0  0  0  0  0  0  0  0
    1.4773   -2.1125   -2.7218 C   0  0  0  0  0  0  0  0  0  0  0  0
    0.9198   -2.1840   -4.1454 C   0  0  0  0  0  0  0  0  0  0  0  0
    2.0899   -2.3249   -5.1312 C   0  0  0  0  0  0  0  0  0  0  0  0
    2.4261   -3.5600   -5.7343 C   0  0  0  0  0  0  0  0  0  0  0  0
    3.5111   -3.6546   -6.6099 C   0  0  0  0  0  0  0  0  0  0  0  0
    4.2867   -2.5299   -6.8918 C   0  0  0  0  0  0  0  0  0  0  0  0
    3.9783   -1.3056   -6.2985 C   0  0  0  0  0  0  0  0  0  0  0  0
    2.8939   -1.2026   -5.4233 C   0  0  0  0  0  0  0  0  0  0  0  0
   -0.0299   -1.0223   -4.4727 C   0  0  0  0  0  0  0  0  0  0  0  0
   -0.2310   -0.6064   -5.8085 C   0  0  0  0  0  0  0  0  0  0  0  0
   -1.1783    0.3726   -6.1183 C   0  0  0  0  0  0  0  0  0  0  0  0
   -1.9576    0.9384   -5.1096 C   0  0  0  0  0  0  0  0  0  0  0  0
   -1.7978    0.5203   -3.7886 C   0  0  0  0  0  0  0  0  0  0  0  0
   -0.8519   -0.4588   -3.4710 C   0  0  0  0  0  0  0  0  0  0  0  0
    0.1078   -3.4534   -4.0067 C   0  0  0  0  0  0  0  0  0  0  0  0
    0.2338   -4.0333   -2.7736 C   0  0  0  0  0  0  0  0  0  0  0  0
    1.0822   -3.2137   -1.9530 C   0  0  0  0  0  0  0  0  0  0  0  0
    1.3915   -3.3388   -0.5960 C   0  0  0  0  0  0  0  0  0  0  0  0
   -1.0268   -5.1266   -2.4424 S   0  0  0  0  0  0  0  0  0  0  0  0
   -1.6908   -4.8963   -3.9871 C   0  0  0  0  0  0  0  0  0  0  0  0
   -2.8744   -5.3114   -4.5894 C   0  0  0  0  0  0  0  0  0  0  0  0
   -3.0725   -4.6425   -5.8062 C   0  0  0  0  0  0  0  0  0  0  0  0
   -1.7563   -3.5992   -6.1251 S   0  0  0  0  0  0  0  0  0  0  0  0
   -0.9773   -3.9703   -4.6939 C   0  0  0  0  0  0  0  0  0  0  0  0
   -4.1972   -4.9014   -6.7209 C   0  0  0  0  0  0  0  0  0  0  0  0
   -4.8630   -3.9445   -7.3996 C   0  0  0  0  0  0  0  0  0  0  0  0
   -4.6486   -2.4868   -7.2767 C   0  0  0  0  0  0  0  0  0  0  0  0
   -4.1232   -1.8762   -6.3079 O   0  0  0  0  0  0  0  0  0  0  0  0
   -5.2992   -1.8553   -8.3990 C   0  0  0  0  0  0  0  0  0  0  0  0
   -5.9674   -2.7935   -9.1473 C   0  0  0  0  0  0  0  0  0  0  0  0
   -6.6590   -2.2674  -10.2357 C   0  0  0  0  0  0  0  0  0  0  0  0
   -6.3797   -0.5943  -10.2089 S   0  0  0  0  0  0  0  0  0  0  0  0
   -5.4048   -0.5491   -8.8331 C   0  0  0  0  0  0  0  0  0  0  0  0
   -4.6855    0.8763   -8.1112 Cl  0  0  0  0  0  0  0  0  0  0  0  0
   -5.8173   -4.1411   -8.5474 C   0  0  0  0  0  0  0  0  0  0  0  0
   -6.4966   -5.2569   -8.9097 C   0  0  0  0  0  0  0  0  0  0  0  0
   -6.4959   -6.4613   -8.1233 C   0  0  0  0  0  0  0  0  0  0  0  0
   -6.5084   -7.4344   -7.4965 N   0  0  0  0  0  0  0  0  0  0  0  0
   -7.3314   -5.2920  -10.0806 C   0  0  0  0  0  0  0  0  0  0  0  0
   -8.0018   -5.3365  -11.0230 N   0  0  0  0  0  0  0  0  0  0  0  0
    2.8431    6.2965    4.9661 H   0  0  0  0  0  0  0  0  0  0  0  0
   -2.3621    3.2666    6.7390 H   0  0  0  0  0  0  0  0  0  0  0  0
   -3.9111    2.1710    8.2770 H   0  0  0  0  0  0  0  0  0  0  0  0
   -5.6348    2.6538    8.4926 H   0  0  0  0  0  0  0  0  0  0  0  0
   -4.8316    2.9225    6.8997 H   0  0  0  0  0  0  0  0  0  0  0  0
   -2.7202    8.0685   10.6127 H   0  0  0  0  0  0  0  0  0  0  0  0
   -3.6035    8.7934    9.1958 H   0  0  0  0  0  0  0  0  0  0  0  0
   -4.5162    8.2090   10.6371 H   0  0  0  0  0  0  0  0  0  0  0  0
   -1.4667    7.8144    8.5213 H   0  0  0  0  0  0  0  0  0  0  0  0
    2.5258    2.7518    6.0125 H   0  0  0  0  0  0  0  0  0  0  0  0
   -0.0226   -1.1769    0.9845 H   0  0  0  0  0  0  0  0  0  0  0  0
   -1.9364   -1.1054    2.5169 H   0  0  0  0  0  0  0  0  0  0  0  0
   -1.7313   -1.9804    4.8231 H   0  0  0  0  0  0  0  0  0  0  0  0
    0.4220   -2.9185    5.6045 H   0  0  0  0  0  0  0  0  0  0  0  0
    2.3588   -2.9933    4.1109 H   0  0  0  0  0  0  0  0  0  0  0  0
    5.3341   -1.8897    1.7326 H   0  0  0  0  0  0  0  0  0  0  0  0
    6.9661   -3.6410    2.2105 H   0  0  0  0  0  0  0  0  0  0  0  0
    6.2410   -5.9859    2.5296 H   0  0  0  0  0  0  0  0  0  0  0  0
    3.8407   -6.5725    2.3704 H   0  0  0  0  0  0  0  0  0  0  0  0
    2.1664   -4.8395    1.9065 H   0  0  0  0  0  0  0  0  0  0  0  0
    2.4262   -0.1527   -2.6692 H   0  0  0  0  0  0  0  0  0  0  0  0
    1.8591   -4.4592   -5.5385 H   0  0  0  0  0  0  0  0  0  0  0  0
    3.7523   -4.6052   -7.0693 H   0  0  0  0  0  0  0  0  0  0  0  0
    5.1239   -2.6072   -7.5720 H   0  0  0  0  0  0  0  0  0  0  0  0
    4.5794   -0.4331   -6.5192 H   0  0  0  0  0  0  0  0  0  0  0  0
    2.6703   -0.2381   -4.9877 H   0  0  0  0  0  0  0  0  0  0  0  0
    0.3245   -1.0569   -6.6210 H   0  0  0  0  0  0  0  0  0  0  0  0
   -1.3216    0.6793   -7.1459 H   0  0  0  0  0  0  0  0  0  0  0  0
   -2.6987    1.6892   -5.3546 H   0  0  0  0  0  0  0  0  0  0  0  0
   -2.4194    0.9426   -3.0100 H   0  0  0  0  0  0  0  0  0  0  0  0
   -0.7826   -0.7902   -2.4432 H   0  0  0  0  0  0  0  0  0  0  0  0
    1.0249   -4.1741   -0.0174 H   0  0  0  0  0  0  0  0  0  0  0  0
   -3.5698   -6.0166   -4.1516 H   0  0  0  0  0  0  0  0  0  0  0  0
   -4.4192   -5.9405   -6.8739 H   0  0  0  0  0  0  0  0  0  0  0  0
   -7.2677   -2.7890  -10.9544 H   0  0  0  0  0  0  0  0  0  0  0  0
  1  2  2  3
  2  3  1  0
  3  4  2  0
  3  5  1  0
  5  6  2  0
  6  7  1  0
  7  8  1  0
  8  9  1  0
  7 10  2  0
 10 11  1  0
 11 12  1  0
 10 13  1  0
 13 14  2  0
 14 15  1  0
 15 16  2  3
 16 17  1  0
 17 18  3  0
 16 19  1  0
 19 20  3  0
  1 21  1  0
 21 22  2  0
 22 23  1  0
 23 24  1  0
 24 25  1  0
 25 26  1  0
 26 27  1  0
 27 28  1  0
 28 29  2  0
 29 30  1  0
 30 31  2  0
 31 32  1  0
 32 33  2  0
 27 34  1  0
 34 35  2  0
 35 36  1  0
 36 37  2  0
 37 38  1  0
 38 39  2  0
 27 40  1  0
 40 41  2  0
 41 42  1  0
 42 43  1  0
 43 44  1  0
 44 45  1  0
 45 46  1  0
 41 47  1  0
 47 48  2  0
 48 49  1  0
 49 50  1  0
 50 51  2  0
 51 52  1  0
 52 53  2  0
 53 54  1  0
 54 55  2  0
 49 56  1  0
 56 57  2  0
 57 58  1  0
 58 59  2  0
 59 60  1  0
 60 61  2  0
 49 62  1  0
 62 63  2  0
 63 64  1  0
 64 65  2  0
 63 66  1  0
 66 67  1  0
 67 68  1  0
 68 69  2  0
 69 70  1  0
 70 71  1  0
 69 72  1  0
 72 73  2  3
 73 74  1  0
 74 75  2  0
 74 76  1  0
 76 77  1  0
 77 78  2  0
 78 79  1  0
 79 80  1  0
 80 81  1  0
 77 82  1  0
 82 83  2  3
 83 84  1  0
 84 85  3  0
 83 86  1  0
 86 87  3  0
 15  2  1  0
 46 21  1  0
 64 48  1  0
 71 67  2  0
 82 73  1  0
 14  5  1  0
 45 23  2  0
 55 50  1  0
 61 56  1  0
 71 62  1  0
 80 76  2  0
 44 25  2  0
 42 26  2  0
 33 28  1  0
 39 34  1  0
 65 40  1  0
  1 88  1  0
  6 89  1  0
  9 90  1  0
  9 91  1  0
  9 92  1  0
 12 93  1  0
 12 94  1  0
 12 95  1  0
 13 96  1  0
 22 97  1  0
 29 98  1  0
 30 99  1  0
 31100  1  0
 32101  1  0
 33102  1  0
 35103  1  0
 36104  1  0
 37105  1  0
 38106  1  0
 39107  1  0
 47108  1  0
 51109  1  0
 52110  1  0
 53111  1  0
 54112  1  0
 55113  1  0
 57114  1  0
 58115  1  0
 59116  1  0
 60117  1  0
 61118  1  0
 65119  1  0
 68120  1  0
 72121  1  0
 78122  1  0
M  END

