
     RDKit          3D

125138  0  0  0  0  0  0  0  0999 V2000
    1.3977   -5.1664   -5.8188 C   0  0  0  0  0  0  0  0  0  0  0  0
    2.2442   -6.0685   -5.2852 C   0  0  0  0  0  0  0  0  0  0  0  0
    3.2565   -6.7531   -6.0964 C   0  0  0  0  0  0  0  0  0  0  0  0
    3.2140   -6.9313   -7.3426 O   0  0  0  0  0  0  0  0  0  0  0  0
    4.3953   -7.0338   -5.2409 C   0  0  0  0  0  0  0  0  0  0  0  0
    5.6817   -7.4121   -5.6188 C   0  0  0  0  0  0  0  0  0  0  0  0
    6.7126   -7.3286   -4.6716 C   0  0  0  0  0  0  0  0  0  0  0  0
    8.0405   -7.6191   -5.0029 O   0  0  0  0  0  0  0  0  0  0  0  0
    8.4381   -8.7638   -5.7744 C   0  0  0  0  0  0  0  0  0  0  0  0
    6.4332   -6.8796   -3.3589 C   0  0  0  0  0  0  0  0  0  0  0  0
    7.5143   -6.7245   -2.4812 O   0  0  0  0  0  0  0  0  0  0  0  0
    7.4504   -6.8683   -1.0608 C   0  0  0  0  0  0  0  0  0  0  0  0
    5.1082   -6.5533   -2.9855 C   0  0  0  0  0  0  0  0  0  0  0  0
    4.0997   -6.6555   -3.9438 C   0  0  0  0  0  0  0  0  0  0  0  0
    2.6818   -6.2289   -3.8761 C   0  0  0  0  0  0  0  0  0  0  0  0
    1.8561   -6.4803   -2.8319 C   0  0  0  0  0  0  0  0  0  0  0  0
    2.3622   -6.7739   -1.5205 C   0  0  0  0  0  0  0  0  0  0  0  0
    2.7690   -7.0006   -0.4576 N   0  0  0  0  0  0  0  0  0  0  0  0
    0.4279   -6.5815   -3.0140 C   0  0  0  0  0  0  0  0  0  0  0  0
   -0.7182   -6.6783   -3.1508 N   0  0  0  0  0  0  0  0  0  0  0  0
    0.7678   -4.0063   -5.1252 C   0  0  0  0  0  0  0  0  0  0  0  0
   -0.0362   -3.0399   -5.7743 C   0  0  0  0  0  0  0  0  0  0  0  0
   -0.3981   -3.0723   -7.1967 C   0  0  0  0  0  0  0  0  0  0  0  0
    0.3712   -2.3679   -8.1387 C   0  0  0  0  0  0  0  0  0  0  0  0
    0.0729   -2.4669   -9.4985 C   0  0  0  0  0  0  0  0  0  0  0  0
   -0.9858   -3.2824   -9.9372 C   0  0  0  0  0  0  0  0  0  0  0  0
   -1.2878   -3.4237  -11.4045 C   0  0  0  0  0  0  0  0  0  0  0  0
   -2.3442   -2.4128  -11.8425 C   0  0  0  0  0  0  0  0  0  0  0  0
   -1.7721   -3.9552   -8.9862 C   0  0  0  0  0  0  0  0  0  0  0  0
   -1.4765   -3.8548   -7.6253 C   0  0  0  0  0  0  0  0  0  0  0  0
   -0.4007   -2.0033   -4.9126 C   0  0  0  0  0  0  0  0  0  0  0  0
   -1.2881   -0.5495   -5.1078 S   0  0  0  0  0  0  0  0  0  0  0  0
   -1.0368   -0.1451   -3.4703 C   0  0  0  0  0  0  0  0  0  0  0  0
   -1.1799    0.9251   -2.6265 C   0  0  0  0  0  0  0  0  0  0  0  0
   -1.6701    2.2246   -2.8114 C   0  0  0  0  0  0  0  0  0  0  0  0
   -1.5464    3.1620   -1.7361 C   0  0  0  0  0  0  0  0  0  0  0  0
   -2.0554    4.4031   -1.9383 N   0  0  0  0  0  0  0  0  0  0  0  0
   -2.6027    4.2288   -3.4910 S   0  0  0  0  0  0  0  0  0  0  0  0
   -2.2614    2.6662   -3.9446 N   0  0  0  0  0  0  0  0  0  0  0  0
   -0.9796    2.7328   -0.5252 C   0  0  0  0  0  0  0  0  0  0  0  0
   -1.0009    3.2852    0.7294 C   0  0  0  0  0  0  0  0  0  0  0  0
   -1.6528    4.6556    1.4929 S   0  0  0  0  0  0  0  0  0  0  0  0
   -1.5012    3.9130    3.0306 C   0  0  0  0  0  0  0  0  0  0  0  0
   -1.7885    4.3069    4.3485 C   0  0  0  0  0  0  0  0  0  0  0  0
   -2.0856    5.7040    4.7579 C   0  0  0  0  0  0  0  0  0  0  0  0
   -1.3778    6.7704    4.1799 C   0  0  0  0  0  0  0  0  0  0  0  0
   -1.5437    8.0727    4.6550 C   0  0  0  0  0  0  0  0  0  0  0  0
   -2.4342    8.3294    5.7084 C   0  0  0  0  0  0  0  0  0  0  0  0
   -2.5522    9.7199    6.2688 C   0  0  0  0  0  0  0  0  0  0  0  0
   -1.5387    9.9374    7.3917 C   0  0  0  0  0  0  0  0  0  0  0  0
   -3.1618    7.2678    6.2730 C   0  0  0  0  0  0  0  0  0  0  0  0
   -2.9926    5.9681    5.7974 C   0  0  0  0  0  0  0  0  0  0  0  0
   -1.5980    3.2284    5.2453 C   0  0  0  0  0  0  0  0  0  0  0  0
   -0.9947    1.8754    4.3965 S   0  0  0  0  0  0  0  0  0  0  0  0
   -1.0311    2.6297    2.9046 C   0  0  0  0  0  0  0  0  0  0  0  0
   -0.7088    2.2915    1.6046 C   0  0  0  0  0  0  0  0  0  0  0  0
   -0.4625    1.1045    0.9978 N   0  0  0  0  0  0  0  0  0  0  0  0
   -0.5462    1.4104   -0.3376 C   0  0  0  0  0  0  0  0  0  0  0  0
   -0.5436    0.5317   -1.4415 C   0  0  0  0  0  0  0  0  0  0  0  0
    0.1066   -0.6656   -1.5892 N   0  0  0  0  0  0  0  0  0  0  0  0
   -0.2819   -1.0717   -2.8189 C   0  0  0  0  0  0  0  0  0  0  0  0
    0.0971   -2.1132   -3.6435 C   0  0  0  0  0  0  0  0  0  0  0  0
    1.0418   -3.4830   -3.5173 S   0  0  0  0  0  0  0  0  0  0  0  0
    1.3791   -1.0468   -0.9602 C   0  0  0  0  0  0  0  0  0  0  0  0
    2.5642   -0.6178   -1.8237 C   0  0  0  0  0  0  0  0  0  0  0  0
   -0.7751   -0.1928    1.6213 C   0  0  0  0  0  0  0  0  0  0  0  0
   -2.2814   -0.4591    1.5861 C   0  0  0  0  0  0  0  0  0  0  0  0
   -1.5422    3.3515    6.7176 C   0  0  0  0  0  0  0  0  0  0  0  0
   -1.9227    2.3893    7.5818 C   0  0  0  0  0  0  0  0  0  0  0  0
   -2.5123    1.0928    7.2434 C   0  0  0  0  0  0  0  0  0  0  0  0
   -3.1918    0.8269    6.2136 O   0  0  0  0  0  0  0  0  0  0  0  0
   -2.3063    0.2009    8.3644 C   0  0  0  0  0  0  0  0  0  0  0  0
   -2.7030   -1.1327    8.4861 C   0  0  0  0  0  0  0  0  0  0  0  0
   -2.4168   -1.8042    9.6802 C   0  0  0  0  0  0  0  0  0  0  0  0
   -2.7974   -3.0995    9.8308 F   0  0  0  0  0  0  0  0  0  0  0  0
   -1.7587   -1.1398   10.7303 C   0  0  0  0  0  0  0  0  0  0  0  0
   -1.4835   -1.8000   11.8854 F   0  0  0  0  0  0  0  0  0  0  0  0
   -1.3716    0.2099   10.5883 C   0  0  0  0  0  0  0  0  0  0  0  0
   -1.6817    0.8805    9.3969 C   0  0  0  0  0  0  0  0  0  0  0  0
   -1.5278    2.3141    9.0184 C   0  0  0  0  0  0  0  0  0  0  0  0
   -1.2894    3.3622    9.8424 C   0  0  0  0  0  0  0  0  0  0  0  0
   -0.7440    3.2037   11.1733 C   0  0  0  0  0  0  0  0  0  0  0  0
   -0.2675    3.0873   12.2211 N   0  0  0  0  0  0  0  0  0  0  0  0
   -1.7184    4.7018    9.5082 C   0  0  0  0  0  0  0  0  0  0  0  0
   -2.1455    5.7445    9.2499 N   0  0  0  0  0  0  0  0  0  0  0  0
    1.2756   -5.1856   -6.8927 H   0  0  0  0  0  0  0  0  0  0  0  0
    5.8789   -7.6568   -6.6517 H   0  0  0  0  0  0  0  0  0  0  0  0
    9.3585   -8.5104   -6.3423 H   0  0  0  0  0  0  0  0  0  0  0  0
    8.6756   -9.6072   -5.0716 H   0  0  0  0  0  0  0  0  0  0  0  0
    7.6480   -9.0816   -6.4883 H   0  0  0  0  0  0  0  0  0  0  0  0
    7.3418   -7.9457   -0.8031 H   0  0  0  0  0  0  0  0  0  0  0  0
    8.4037   -6.4955   -0.6260 H   0  0  0  0  0  0  0  0  0  0  0  0
    6.6106   -6.2852   -0.6133 H   0  0  0  0  0  0  0  0  0  0  0  0
    4.8904   -6.1492   -2.0137 H   0  0  0  0  0  0  0  0  0  0  0  0
    1.2096   -1.7584   -7.8183 H   0  0  0  0  0  0  0  0  0  0  0  0
    0.6740   -1.9246  -10.2158 H   0  0  0  0  0  0  0  0  0  0  0  0
   -0.3660   -3.2796  -12.0062 H   0  0  0  0  0  0  0  0  0  0  0  0
   -1.6575   -4.4516  -11.6102 H   0  0  0  0  0  0  0  0  0  0  0  0
   -2.6643   -2.6475  -12.8834 H   0  0  0  0  0  0  0  0  0  0  0  0
   -1.9288   -1.3853  -11.8208 H   0  0  0  0  0  0  0  0  0  0  0  0
   -3.2350   -2.4731  -11.1877 H   0  0  0  0  0  0  0  0  0  0  0  0
   -2.6072   -4.5670   -9.3020 H   0  0  0  0  0  0  0  0  0  0  0  0
   -2.0737   -4.3993   -6.9107 H   0  0  0  0  0  0  0  0  0  0  0  0
   -0.6485    6.5942    3.4037 H   0  0  0  0  0  0  0  0  0  0  0  0
   -0.9643    8.8733    4.2172 H   0  0  0  0  0  0  0  0  0  0  0  0
   -2.3734   10.4691    5.4667 H   0  0  0  0  0  0  0  0  0  0  0  0
   -3.5750    9.8919    6.6587 H   0  0  0  0  0  0  0  0  0  0  0  0
   -0.5120    9.6866    7.0465 H   0  0  0  0  0  0  0  0  0  0  0  0
   -1.5577   11.0026    7.7062 H   0  0  0  0  0  0  0  0  0  0  0  0
   -1.7927    9.2999    8.2667 H   0  0  0  0  0  0  0  0  0  0  0  0
   -3.8323    7.4461    7.1001 H   0  0  0  0  0  0  0  0  0  0  0  0
   -3.5571    5.1652    6.2550 H   0  0  0  0  0  0  0  0  0  0  0  0
    1.3929   -2.1420   -0.7923 H   0  0  0  0  0  0  0  0  0  0  0  0
    1.5045   -0.5418    0.0135 H   0  0  0  0  0  0  0  0  0  0  0  0
    2.5323    0.4750   -2.0045 H   0  0  0  0  0  0  0  0  0  0  0  0
    3.5099   -0.8800   -1.2990 H   0  0  0  0  0  0  0  0  0  0  0  0
    2.5663   -1.1452   -2.7945 H   0  0  0  0  0  0  0  0  0  0  0  0
   -0.4069   -0.2111    2.6674 H   0  0  0  0  0  0  0  0  0  0  0  0
   -0.2707   -1.0337    1.1096 H   0  0  0  0  0  0  0  0  0  0  0  0
   -2.5880   -0.7414    0.5557 H   0  0  0  0  0  0  0  0  0  0  0  0
   -2.8509    0.4471    1.9000 H   0  0  0  0  0  0  0  0  0  0  0  0
   -2.5450   -1.2804    2.2906 H   0  0  0  0  0  0  0  0  0  0  0  0
   -1.0304    4.2302    7.0893 H   0  0  0  0  0  0  0  0  0  0  0  0
   -3.2206   -1.6369    7.6812 H   0  0  0  0  0  0  0  0  0  0  0  0
   -0.8690    0.6869   11.4095 H   0  0  0  0  0  0  0  0  0  0  0  0
  1  2  2  3
  2  3  1  0
  3  4  2  0
  3  5  1  0
  5  6  2  0
  6  7  1  0
  7  8  1  0
  8  9  1  0
  7 10  2  0
 10 11  1  0
 11 12  1  0
 10 13  1  0
 13 14  2  0
 14 15  1  0
 15 16  2  3
 16 17  1  0
 17 18  3  0
 16 19  1  0
 19 20  3  0
  1 21  1  0
 21 22  2  0
 22 23  1  0
 23 24  2  0
 24 25  1  0
 25 26  2  0
 26 27  1  0
 27 28  1  0
 26 29  1  0
 29 30  2  0
 22 31  1  0
 31 32  1  0
 32 33  1  0
 33 34  1  0
 34 35  1  0
 35 36  1  0
 36 37  2  0
 37 38  1  0
 38 39  1  0
 36 40  1  0
 40 41  1  0
 41 42  1  0
 42 43  1  0
 43 44  1  0
 44 45  1  0
 45 46  2  0
 46 47  1  0
 47 48  2  0
 48 49  1  0
 49 50  1  0
 48 51  1  0
 51 52  2  0
 44 53  2  0
 53 54  1  0
 54 55  1  0
 55 56  1  0
 56 57  1  0
 57 58  1  0
 58 59  1  0
 59 60  1  0
 60 61  1  0
 61 62  1  0
 62 63  1  0
 60 64  1  0
 64 65  1  0
 57 66  1  0
 66 67  1  0
 53 68  1  0
 68 69  2  3
 69 70  1  0
 70 71  2  0
 70 72  1  0
 72 73  2  0
 73 74  1  0
 74 75  1  0
 74 76  2  0
 76 77  1  0
 76 78  1  0
 78 79  2  0
 79 80  1  0
 80 81  2  3
 81 82  1  0
 82 83  3  0
 81 84  1  0
 84 85  3  0
 15  2  1  0
 63 21  1  0
 80 69  1  0
 14  5  1  0
 30 23  1  0
 62 31  2  0
 79 72  1  0
 61 33  2  0
 59 34  2  0
 39 35  2  0
 58 40  2  0
 56 41  2  0
 55 43  2  0
 52 45  1  0
  1 86  1  0
  6 87  1  0
  9 88  1  0
  9 89  1  0
  9 90  1  0
 12 91  1  0
 12 92  1  0
 12 93  1  0
 13 94  1  0
 24 95  1  0
 25 96  1  0
 27 97  1  0
 27 98  1  0
 28 99  1  0
 28100  1  0
 28101  1  0
 29102  1  0
 30103  1  0
 46104  1  0
 47105  1  0
 49106  1  0
 49107  1  0
 50108  1  0
 50109  1  0
 50110  1  0
 51111  1  0
 52112  1  0
 64113  1  0
 64114  1  0
 65115  1  0
 65116  1  0
 65117  1  0
 66118  1  0
 66119  1  0
 67120  1  0
 67121  1  0
 67122  1  0
 68123  1  0
 73124  1  0
 78125  1  0
M  END

