
     RDKit          3D

147163  0  0  0  0  0  0  0  0999 V2000
   -2.9821    3.3394    6.9555 C   0  0  0  0  0  0  0  0  0  0  0  0
   -3.4531    2.3145    7.7035 C   0  0  0  0  0  0  0  0  0  0  0  0
   -2.8293    0.9922    7.8300 C   0  0  0  0  0  0  0  0  0  0  0  0
   -1.6138    0.7252    7.6390 O   0  0  0  0  0  0  0  0  0  0  0  0
   -3.8247    0.0543    8.2985 C   0  0  0  0  0  0  0  0  0  0  0  0
   -3.7111   -1.3278    8.4129 C   0  0  0  0  0  0  0  0  0  0  0  0
   -4.8567   -2.0739    8.7633 C   0  0  0  0  0  0  0  0  0  0  0  0
   -4.8256   -3.4748    8.8730 O   0  0  0  0  0  0  0  0  0  0  0  0
   -3.6726   -4.2767    8.6393 C   0  0  0  0  0  0  0  0  0  0  0  0
   -6.0799   -1.4131    8.9968 C   0  0  0  0  0  0  0  0  0  0  0  0
   -7.2066   -2.1957    9.3114 O   0  0  0  0  0  0  0  0  0  0  0  0
   -8.5004   -1.6729    9.6058 C   0  0  0  0  0  0  0  0  0  0  0  0
   -6.1572   -0.0046    8.8870 C   0  0  0  0  0  0  0  0  0  0  0  0
   -5.0077    0.7263    8.5479 C   0  0  0  0  0  0  0  0  0  0  0  0
   -4.8134    2.1915    8.3148 C   0  0  0  0  0  0  0  0  0  0  0  0
   -5.6273    3.1987    8.7260 C   0  0  0  0  0  0  0  0  0  0  0  0
   -6.8997    2.9703    9.3615 C   0  0  0  0  0  0  0  0  0  0  0  0
   -7.9346    2.8107    9.8503 N   0  0  0  0  0  0  0  0  0  0  0  0
   -5.2652    4.5863    8.6169 C   0  0  0  0  0  0  0  0  0  0  0  0
   -5.0107    5.7144    8.5250 N   0  0  0  0  0  0  0  0  0  0  0  0
   -1.8853    3.1855    5.9820 C   0  0  0  0  0  0  0  0  0  0  0  0
   -0.9318    4.1760    5.6435 C   0  0  0  0  0  0  0  0  0  0  0  0
   -0.8516    5.5451    6.2615 C   0  0  0  0  0  0  0  0  0  0  0  0
   -1.7071    6.5338    5.4769 C   0  0  0  0  0  0  0  0  0  0  0  0
   -0.1838    3.7831    4.5265 C   0  0  0  0  0  0  0  0  0  0  0  0
    1.0566    4.5086    3.5890 S   0  0  0  0  0  0  0  0  0  0  0  0
    1.0216    3.2134    2.4862 C   0  0  0  0  0  0  0  0  0  0  0  0
    1.6753    2.7332    1.3764 C   0  0  0  0  0  0  0  0  0  0  0  0
    2.8376    3.1408    0.6925 C   0  0  0  0  0  0  0  0  0  0  0  0
    3.5099    4.2764    1.0088 N   0  0  0  0  0  0  0  0  0  0  0  0
    4.6765    4.6067    0.3796 C   0  0  0  0  0  0  0  0  0  0  0  0
    5.3660    5.8382    0.7874 C   0  0  0  0  0  0  0  0  0  0  0  0
    6.9140    5.9294    1.4429 S   0  0  0  0  0  0  0  0  0  0  0  0
    6.9626    7.6107    1.5300 C   0  0  0  0  0  0  0  0  0  0  0  0
    8.1150    8.4184    2.0475 C   0  0  0  0  0  0  0  0  0  0  0  0
    7.8606    8.8709    3.4786 C   0  0  0  0  0  0  0  0  0  0  0  0
    5.7538    8.1138    1.0668 C   0  0  0  0  0  0  0  0  0  0  0  0
    4.8565    7.1257    0.6490 C   0  0  0  0  0  0  0  0  0  0  0  0
    5.4759    9.4413    0.9935 F   0  0  0  0  0  0  0  0  0  0  0  0
    5.1987    3.7424   -0.6185 C   0  0  0  0  0  0  0  0  0  0  0  0
    6.4837    3.9672   -1.3052 C   0  0  0  0  0  0  0  0  0  0  0  0
    7.4173    2.9683   -1.5693 C   0  0  0  0  0  0  0  0  0  0  0  0
    8.5397    3.4343   -2.2619 C   0  0  0  0  0  0  0  0  0  0  0  0
    9.5864    2.6352   -2.5866 F   0  0  0  0  0  0  0  0  0  0  0  0
    8.4800    4.7845   -2.5800 C   0  0  0  0  0  0  0  0  0  0  0  0
    9.5602    5.5698   -3.2472 C   0  0  0  0  0  0  0  0  0  0  0  0
   10.5149    6.1615   -2.2174 C   0  0  0  0  0  0  0  0  0  0  0  0
    7.0412    5.4151   -1.9733 S   0  0  0  0  0  0  0  0  0  0  0  0
    4.5033    2.6202   -0.9470 N   0  0  0  0  0  0  0  0  0  0  0  0
    3.3381    2.2997   -0.3331 C   0  0  0  0  0  0  0  0  0  0  0  0
    2.6098    1.1503   -0.6868 C   0  0  0  0  0  0  0  0  0  0  0  0
    2.6647    0.3566   -1.8039 C   0  0  0  0  0  0  0  0  0  0  0  0
    3.3845    0.4866   -3.3401 S   0  0  0  0  0  0  0  0  0  0  0  0
    2.1794   -0.4996   -4.0363 C   0  0  0  0  0  0  0  0  0  0  0  0
    1.8601   -0.8580   -5.3511 C   0  0  0  0  0  0  0  0  0  0  0  0
    2.6440   -0.4315   -6.5594 C   0  0  0  0  0  0  0  0  0  0  0  0
    2.3215    1.0150   -6.9274 C   0  0  0  0  0  0  0  0  0  0  0  0
    0.6312   -1.5503   -5.3872 C   0  0  0  0  0  0  0  0  0  0  0  0
   -0.0455   -1.6274   -3.8262 S   0  0  0  0  0  0  0  0  0  0  0  0
    1.2424   -0.8509   -3.1031 C   0  0  0  0  0  0  0  0  0  0  0  0
    1.5008   -0.3525   -1.8397 C   0  0  0  0  0  0  0  0  0  0  0  0
    0.6603   -0.0398   -0.8210 N   0  0  0  0  0  0  0  0  0  0  0  0
   -0.8035    0.0510   -0.9762 C   0  0  0  0  0  0  0  0  0  0  0  0
   -1.1872    1.2134   -1.8967 C   0  0  0  0  0  0  0  0  0  0  0  0
    1.4154    0.8047   -0.0546 C   0  0  0  0  0  0  0  0  0  0  0  0
    1.0128    1.5382    1.0656 C   0  0  0  0  0  0  0  0  0  0  0  0
    0.0846    1.2058    2.0081 N   0  0  0  0  0  0  0  0  0  0  0  0
    0.1000    2.2778    2.8292 C   0  0  0  0  0  0  0  0  0  0  0  0
   -0.5599    2.5796    3.9984 C   0  0  0  0  0  0  0  0  0  0  0  0
   -1.8221    1.9076    4.8521 S   0  0  0  0  0  0  0  0  0  0  0  0
   -0.3530   -0.1472    2.3963 C   0  0  0  0  0  0  0  0  0  0  0  0
    0.5464   -0.7184    3.4884 C   0  0  0  0  0  0  0  0  0  0  0  0
   -0.0847   -2.0277   -6.5797 C   0  0  0  0  0  0  0  0  0  0  0  0
   -0.6720   -3.2391   -6.6071 C   0  0  0  0  0  0  0  0  0  0  0  0
   -0.2921   -4.3617   -5.7376 C   0  0  0  0  0  0  0  0  0  0  0  0
    0.6707   -4.3821   -4.9238 O   0  0  0  0  0  0  0  0  0  0  0  0
   -1.0918   -5.5107   -6.0757 C   0  0  0  0  0  0  0  0  0  0  0  0
   -1.0076   -6.7915   -5.4912 C   0  0  0  0  0  0  0  0  0  0  0  0
   -1.8731   -7.7149   -6.0398 C   0  0  0  0  0  0  0  0  0  0  0  0
   -2.7700   -7.4044   -7.1097 C   0  0  0  0  0  0  0  0  0  0  0  0
   -2.8439   -6.1526   -7.6982 C   0  0  0  0  0  0  0  0  0  0  0  0
   -1.9700   -5.1757   -7.1375 C   0  0  0  0  0  0  0  0  0  0  0  0
   -1.7747   -3.7343   -7.5009 C   0  0  0  0  0  0  0  0  0  0  0  0
   -2.5739   -2.9872   -8.3119 C   0  0  0  0  0  0  0  0  0  0  0  0
   -2.3813   -1.5779   -8.5333 C   0  0  0  0  0  0  0  0  0  0  0  0
   -2.2434   -0.4422   -8.7126 N   0  0  0  0  0  0  0  0  0  0  0  0
   -3.7617   -3.5129   -8.9348 C   0  0  0  0  0  0  0  0  0  0  0  0
   -4.7299   -3.9118   -9.4293 N   0  0  0  0  0  0  0  0  0  0  0  0
   -3.3007   -8.8077   -7.0913 C   0  0  0  0  0  0  0  0  0  0  0  0
   -4.6996   -9.0190   -6.4366 C   0  0  0  0  0  0  0  0  0  0  0  0
   -4.8196  -10.5043   -6.1914 C   0  0  0  0  0  0  0  0  0  0  0  0
   -3.9645  -10.7966   -5.2060 C   0  0  0  0  0  0  0  0  0  0  0  0
   -3.2967   -9.5007   -4.8172 C   0  0  0  0  0  0  0  0  0  0  0  0
   -4.4820   -8.5686   -5.0027 C   0  0  0  0  0  0  0  0  0  0  0  0
   -2.3681   -9.1266   -6.0062 C   0  0  0  0  0  0  0  0  0  0  0  0
   -3.5128    4.2739    6.8993 H   0  0  0  0  0  0  0  0  0  0  0  0
   -2.7632   -1.8033    8.2036 H   0  0  0  0  0  0  0  0  0  0  0  0
   -2.8881   -4.0403    9.3878 H   0  0  0  0  0  0  0  0  0  0  0  0
   -3.9481   -5.3491    8.7448 H   0  0  0  0  0  0  0  0  0  0  0  0
   -3.2852   -4.1091    7.6136 H   0  0  0  0  0  0  0  0  0  0  0  0
   -8.8772   -1.0801    8.7468 H   0  0  0  0  0  0  0  0  0  0  0  0
   -9.2040   -2.5094    9.7922 H   0  0  0  0  0  0  0  0  0  0  0  0
   -8.4551   -1.0402   10.5144 H   0  0  0  0  0  0  0  0  0  0  0  0
   -7.1054    0.4859    9.0084 H   0  0  0  0  0  0  0  0  0  0  0  0
    0.2058    5.8916    6.2653 H   0  0  0  0  0  0  0  0  0  0  0  0
   -1.2018    5.5035    7.3138 H   0  0  0  0  0  0  0  0  0  0  0  0
   -1.6718    7.5274    5.9654 H   0  0  0  0  0  0  0  0  0  0  0  0
   -2.7629    6.1930    5.4433 H   0  0  0  0  0  0  0  0  0  0  0  0
   -1.3256    6.6348    4.4392 H   0  0  0  0  0  0  0  0  0  0  0  0
    9.0404    7.8049    2.0124 H   0  0  0  0  0  0  0  0  0  0  0  0
    8.2699    9.3062    1.3970 H   0  0  0  0  0  0  0  0  0  0  0  0
    8.7473    9.4161    3.8616 H   0  0  0  0  0  0  0  0  0  0  0  0
    7.6679    7.9945    4.1331 H   0  0  0  0  0  0  0  0  0  0  0  0
    6.9840    9.5513    3.5153 H   0  0  0  0  0  0  0  0  0  0  0  0
    3.8814    7.3456    0.2368 H   0  0  0  0  0  0  0  0  0  0  0  0
    7.2995    1.9366   -1.2594 H   0  0  0  0  0  0  0  0  0  0  0  0
    9.1129    6.3847   -3.8520 H   0  0  0  0  0  0  0  0  0  0  0  0
   10.1309    4.9064   -3.9309 H   0  0  0  0  0  0  0  0  0  0  0  0
   10.9235    5.3685   -1.5588 H   0  0  0  0  0  0  0  0  0  0  0  0
   11.3586    6.6594   -2.7383 H   0  0  0  0  0  0  0  0  0  0  0  0
    9.9878    6.9150   -1.5953 H   0  0  0  0  0  0  0  0  0  0  0  0
    3.7315   -0.5314   -6.3481 H   0  0  0  0  0  0  0  0  0  0  0  0
    2.4066   -1.0912   -7.4231 H   0  0  0  0  0  0  0  0  0  0  0  0
    1.2211    1.1530   -7.0377 H   0  0  0  0  0  0  0  0  0  0  0  0
    2.8135    1.2752   -7.8891 H   0  0  0  0  0  0  0  0  0  0  0  0
    2.7028    1.7019   -6.1374 H   0  0  0  0  0  0  0  0  0  0  0  0
   -1.2013   -0.9011   -1.3851 H   0  0  0  0  0  0  0  0  0  0  0  0
   -1.3139    0.2273   -0.0166 H   0  0  0  0  0  0  0  0  0  0  0  0
   -2.2752    1.1855   -2.0987 H   0  0  0  0  0  0  0  0  0  0  0  0
   -0.6443    1.1559   -2.8596 H   0  0  0  0  0  0  0  0  0  0  0  0
   -0.9359    2.1798   -1.4081 H   0  0  0  0  0  0  0  0  0  0  0  0
   -0.2990   -0.8446    1.5438 H   0  0  0  0  0  0  0  0  0  0  0  0
   -1.4019   -0.1150    2.7547 H   0  0  0  0  0  0  0  0  0  0  0  0
    1.6028   -0.7205    3.1449 H   0  0  0  0  0  0  0  0  0  0  0  0
    0.4704   -0.1198    4.4195 H   0  0  0  0  0  0  0  0  0  0  0  0
    0.2408   -1.7628    3.7098 H   0  0  0  0  0  0  0  0  0  0  0  0
   -0.1965   -1.3225   -7.3830 H   0  0  0  0  0  0  0  0  0  0  0  0
   -0.3263   -7.0337   -4.6864 H   0  0  0  0  0  0  0  0  0  0  0  0
   -3.5067   -5.9867   -8.5287 H   0  0  0  0  0  0  0  0  0  0  0  0
   -3.1225   -9.3646   -8.0381 H   0  0  0  0  0  0  0  0  0  0  0  0
   -5.5566   -8.5554   -6.9680 H   0  0  0  0  0  0  0  0  0  0  0  0
   -5.5218  -11.1955   -6.6478 H   0  0  0  0  0  0  0  0  0  0  0  0
   -3.8534  -11.7654   -4.7272 H   0  0  0  0  0  0  0  0  0  0  0  0
   -2.8231   -9.4928   -3.8145 H   0  0  0  0  0  0  0  0  0  0  0  0
   -5.3413   -8.8020   -4.3273 H   0  0  0  0  0  0  0  0  0  0  0  0
   -4.2330   -7.4895   -4.8969 H   0  0  0  0  0  0  0  0  0  0  0  0
   -1.5891   -9.8787   -6.2674 H   0  0  0  0  0  0  0  0  0  0  0  0
  1  2  2  3
  2  3  1  0
  3  4  2  0
  3  5  1  0
  5  6  2  0
  6  7  1  0
  7  8  1  0
  8  9  1  0
  7 10  2  0
 10 11  1  0
 11 12  1  0
 10 13  1  0
 13 14  2  0
 14 15  1  0
 15 16  2  3
 16 17  1  0
 17 18  3  0
 16 19  1  0
 19 20  3  0
  1 21  1  0
 21 22  2  0
 22 23  1  0
 23 24  1  0
 22 25  1  0
 25 26  1  0
 26 27  1  0
 27 28  1  0
 28 29  2  0
 29 30  1  0
 30 31  2  0
 31 32  1  0
 32 33  1  0
 33 34  1  0
 34 35  1  0
 35 36  1  0
 34 37  2  0
 37 38  1  0
 37 39  1  0
 31 40  1  0
 40 41  1  0
 41 42  2  0
 42 43  1  0
 43 44  1  0
 43 45  2  0
 45 46  1  0
 46 47  1  0
 45 48  1  0
 40 49  2  0
 49 50  1  0
 50 51  2  0
 51 52  1  0
 52 53  1  0
 53 54  1  0
 54 55  1  0
 55 56  1  0
 56 57  1  0
 55 58  2  0
 58 59  1  0
 59 60  1  0
 60 61  1  0
 61 62  1  0
 62 63  1  0
 63 64  1  0
 62 65  1  0
 65 66  2  0
 66 67  1  0
 67 68  1  0
 68 69  1  0
 69 70  1  0
 67 71  1  0
 71 72  1  0
 58 73  1  0
 73 74  2  3
 74 75  1  0
 75 76  2  0
 75 77  1  0
 77 78  2  0
 78 79  1  0
 79 80  2  0
 80 81  1  0
 81 82  2  0
 82 83  1  0
 83 84  2  3
 84 85  1  0
 85 86  3  0
 84 87  1  0
 87 88  3  0
 80 89  1  0
 89 90  1  0
 90 91  1  0
 91 92  2  0
 92 93  1  0
 93 94  1  0
 93 95  1  0
 15  2  1  0
 70 21  1  0
 83 74  1  0
 95 89  1  0
 14  5  1  0
 69 25  2  0
 82 77  1  0
 94 90  1  0
 68 27  2  0
 95 79  1  0
 66 28  1  0
 50 29  1  0
 65 51  1  0
 38 32  2  0
 48 41  1  0
 61 52  2  0
 60 54  2  0
  1 96  1  0
  6 97  1  0
  9 98  1  0
  9 99  1  0
  9100  1  0
 12101  1  0
 12102  1  0
 12103  1  0
 13104  1  0
 23105  1  0
 23106  1  0
 24107  1  0
 24108  1  0
 24109  1  0
 35110  1  0
 35111  1  0
 36112  1  0
 36113  1  0
 36114  1  0
 38115  1  0
 42116  1  0
 46117  1  0
 46118  1  0
 47119  1  0
 47120  1  0
 47121  1  0
 56122  1  0
 56123  1  0
 57124  1  0
 57125  1  0
 57126  1  0
 63127  1  0
 63128  1  0
 64129  1  0
 64130  1  0
 64131  1  0
 71132  1  0
 71133  1  0
 72134  1  0
 72135  1  0
 72136  1  0
 73137  1  0
 78138  1  0
 81139  1  0
 89140  1  0
 90141  1  0
 91142  1  0
 92143  1  0
 93144  1  0
 94145  1  0
 94146  1  0
 95147  1  0
M  END

