
     RDKit          3D

155169  0  0  0  0  0  0  0  0999 V2000
    3.5717   -1.9121    4.3740 C   0  0  0  0  0  0  0  0  0  0  0  0
    4.4820   -2.7225    3.8176 C   0  0  0  0  0  0  0  0  0  0  0  0
    5.2326   -3.6768    4.6275 C   0  0  0  0  0  0  0  0  0  0  0  0
    4.6779   -4.6780    5.1402 O   0  0  0  0  0  0  0  0  0  0  0  0
    6.5135   -3.7948    3.9807 C   0  0  0  0  0  0  0  0  0  0  0  0
    7.6167   -4.5526    4.3998 C   0  0  0  0  0  0  0  0  0  0  0  0
    8.6045   -4.9019    3.4473 C   0  0  0  0  0  0  0  0  0  0  0  0
    9.7354   -5.6562    3.8012 O   0  0  0  0  0  0  0  0  0  0  0  0
   10.1757   -5.9076    5.1394 C   0  0  0  0  0  0  0  0  0  0  0  0
    8.4275   -4.5078    2.0887 C   0  0  0  0  0  0  0  0  0  0  0  0
    9.2849   -4.8818    1.0430 O   0  0  0  0  0  0  0  0  0  0  0  0
   10.2728   -5.9034    1.0776 C   0  0  0  0  0  0  0  0  0  0  0  0
    7.3388   -3.7008    1.7300 C   0  0  0  0  0  0  0  0  0  0  0  0
    6.4018   -3.3050    2.6980 C   0  0  0  0  0  0  0  0  0  0  0  0
    5.0460   -2.7205    2.4365 C   0  0  0  0  0  0  0  0  0  0  0  0
    4.3206   -3.3078    1.4611 C   0  0  0  0  0  0  0  0  0  0  0  0
    3.2561   -2.5890    0.7982 C   0  0  0  0  0  0  0  0  0  0  0  0
    2.3678   -2.0455    0.2902 N   0  0  0  0  0  0  0  0  0  0  0  0
    4.0966   -4.7318    1.5632 C   0  0  0  0  0  0  0  0  0  0  0  0
    3.8838   -5.8557    1.7152 N   0  0  0  0  0  0  0  0  0  0  0  0
    2.8985   -0.7515    3.7460 C   0  0  0  0  0  0  0  0  0  0  0  0
    3.4792    0.2094    2.4614 S   0  0  0  0  0  0  0  0  0  0  0  0
    2.1966    1.2873    2.5410 C   0  0  0  0  0  0  0  0  0  0  0  0
    1.5483    2.2003    1.6187 C   0  0  0  0  0  0  0  0  0  0  0  0
    0.2420    2.3497    2.0340 C   0  0  0  0  0  0  0  0  0  0  0  0
    0.0236    1.7461    3.4259 C   0  0  0  0  0  0  0  0  0  0  0  0
    1.3023    0.9147    3.5033 C   0  0  0  0  0  0  0  0  0  0  0  0
    1.6731   -0.2429    4.2087 C   0  0  0  0  0  0  0  0  0  0  0  0
    0.8565   -0.9348    5.2747 C   0  0  0  0  0  0  0  0  0  0  0  0
    0.1562    2.8342    4.5166 C   0  0  0  0  0  0  0  0  0  0  0  0
    0.3995    4.1945    4.2106 C   0  0  0  0  0  0  0  0  0  0  0  0
    0.7104    5.1112    5.2195 C   0  0  0  0  0  0  0  0  0  0  0  0
    0.7614    4.7015    6.5589 C   0  0  0  0  0  0  0  0  0  0  0  0
    1.2312    5.6382    7.6289 C   0  0  0  0  0  0  0  0  0  0  0  0
    2.7239    5.4503    7.8736 C   0  0  0  0  0  0  0  0  0  0  0  0
    0.4640    3.3712    6.8805 C   0  0  0  0  0  0  0  0  0  0  0  0
    0.1658    2.4535    5.8731 C   0  0  0  0  0  0  0  0  0  0  0  0
   -1.2795    0.9099    3.4957 C   0  0  0  0  0  0  0  0  0  0  0  0
   -2.3478    1.3705    4.3077 C   0  0  0  0  0  0  0  0  0  0  0  0
   -3.5380    0.6636    4.4205 C   0  0  0  0  0  0  0  0  0  0  0  0
   -3.7246   -0.5170    3.7058 C   0  0  0  0  0  0  0  0  0  0  0  0
   -4.9935   -1.3012    3.8879 C   0  0  0  0  0  0  0  0  0  0  0  0
   -4.9209   -2.1201    5.1752 C   0  0  0  0  0  0  0  0  0  0  0  0
   -2.7066   -0.9885    2.8723 C   0  0  0  0  0  0  0  0  0  0  0  0
   -1.4985   -0.2822    2.7221 C   0  0  0  0  0  0  0  0  0  0  0  0
   -0.4852   -0.8727    1.7657 C   0  0  0  0  0  0  0  0  0  0  0  0
   -0.6359    2.6606    0.9790 C   0  0  0  0  0  0  0  0  0  0  0  0
   -2.0429    2.6322    1.0025 C   0  0  0  0  0  0  0  0  0  0  0  0
   -2.7125    2.6698   -0.2278 C   0  0  0  0  0  0  0  0  0  0  0  0
   -4.3507    2.2826   -0.5008 S   0  0  0  0  0  0  0  0  0  0  0  0
   -4.1776    2.4568   -2.1637 C   0  0  0  0  0  0  0  0  0  0  0  0
   -4.8897    1.9607   -3.3081 C   0  0  0  0  0  0  0  0  0  0  0  0
   -4.0477    1.9824   -4.3868 C   0  0  0  0  0  0  0  0  0  0  0  0
   -2.6883    2.5707   -4.0434 C   0  0  0  0  0  0  0  0  0  0  0  0
   -1.5444    1.5802   -4.3092 C   0  0  0  0  0  0  0  0  0  0  0  0
   -1.6802    0.2211   -3.9526 C   0  0  0  0  0  0  0  0  0  0  0  0
   -0.6066   -0.6639   -4.0830 C   0  0  0  0  0  0  0  0  0  0  0  0
    0.6278   -0.2115   -4.5675 C   0  0  0  0  0  0  0  0  0  0  0  0
    1.8144   -1.1327   -4.6266 C   0  0  0  0  0  0  0  0  0  0  0  0
    2.6243   -1.0321   -3.3327 C   0  0  0  0  0  0  0  0  0  0  0  0
    0.7754    1.1380   -4.9135 C   0  0  0  0  0  0  0  0  0  0  0  0
   -0.2879    2.0240   -4.7766 C   0  0  0  0  0  0  0  0  0  0  0  0
   -2.5589    3.8984   -4.7990 C   0  0  0  0  0  0  0  0  0  0  0  0
   -2.4598    3.8856   -6.2063 C   0  0  0  0  0  0  0  0  0  0  0  0
   -2.3687    5.0739   -6.9310 C   0  0  0  0  0  0  0  0  0  0  0  0
   -2.3955    6.3091   -6.2693 C   0  0  0  0  0  0  0  0  0  0  0  0
   -2.3103    7.5984   -7.0455 C   0  0  0  0  0  0  0  0  0  0  0  0
   -0.9160    8.2045   -6.9358 C   0  0  0  0  0  0  0  0  0  0  0  0
   -2.4860    6.3368   -4.8686 C   0  0  0  0  0  0  0  0  0  0  0  0
   -2.5636    5.1500   -4.1395 C   0  0  0  0  0  0  0  0  0  0  0  0
   -2.8912    2.7470   -2.5382 C   0  0  0  0  0  0  0  0  0  0  0  0
   -2.0249    2.8564   -1.4421 C   0  0  0  0  0  0  0  0  0  0  0  0
   -0.6245    2.9715   -1.4605 C   0  0  0  0  0  0  0  0  0  0  0  0
    0.0511    2.8116   -0.2412 C   0  0  0  0  0  0  0  0  0  0  0  0
    1.6959    2.4447   -0.0422 S   0  0  0  0  0  0  0  0  0  0  0  0
   -4.5437    1.2869   -5.4919 C   0  0  0  0  0  0  0  0  0  0  0  0
   -5.7913    0.7124   -5.2061 C   0  0  0  0  0  0  0  0  0  0  0  0
   -6.2546    1.0278   -3.5954 S   0  0  0  0  0  0  0  0  0  0  0  0
   -6.5515   -0.1288   -6.1395 C   0  0  0  0  0  0  0  0  0  0  0  0
   -6.4296   -1.4658   -6.1991 C   0  0  0  0  0  0  0  0  0  0  0  0
   -5.6337   -2.2926   -5.2765 C   0  0  0  0  0  0  0  0  0  0  0  0
   -4.7244   -1.8903   -4.4998 O   0  0  0  0  0  0  0  0  0  0  0  0
   -6.0723   -3.6697   -5.4007 C   0  0  0  0  0  0  0  0  0  0  0  0
   -5.6805   -4.7714   -4.6428 C   0  0  0  0  0  0  0  0  0  0  0  0
   -6.3397   -5.9894   -4.8568 C   0  0  0  0  0  0  0  0  0  0  0  0
   -7.3916   -6.0826   -5.7897 C   0  0  0  0  0  0  0  0  0  0  0  0
   -8.1210   -7.3808   -5.9939 C   0  0  0  0  0  0  0  0  0  0  0  0
   -7.7488   -4.9604   -6.5602 C   0  0  0  0  0  0  0  0  0  0  0  0
   -7.0506   -3.7508   -6.3785 C   0  0  0  0  0  0  0  0  0  0  0  0
   -7.2357   -2.4186   -7.0203 C   0  0  0  0  0  0  0  0  0  0  0  0
   -7.8215   -2.1767   -8.2200 C   0  0  0  0  0  0  0  0  0  0  0  0
   -8.3906   -3.2195   -9.0300 C   0  0  0  0  0  0  0  0  0  0  0  0
   -8.8399   -4.0515   -9.6966 N   0  0  0  0  0  0  0  0  0  0  0  0
   -7.7601   -0.8850   -8.8524 C   0  0  0  0  0  0  0  0  0  0  0  0
   -7.7130    0.1536   -9.3570 N   0  0  0  0  0  0  0  0  0  0  0  0
    3.3261   -2.0834    5.4181 H   0  0  0  0  0  0  0  0  0  0  0  0
    7.6863   -4.8594    5.4420 H   0  0  0  0  0  0  0  0  0  0  0  0
   11.0633   -6.5587    5.1002 H   0  0  0  0  0  0  0  0  0  0  0  0
    9.3912   -6.4382    5.7151 H   0  0  0  0  0  0  0  0  0  0  0  0
   10.4385   -4.9433    5.6395 H   0  0  0  0  0  0  0  0  0  0  0  0
   11.1572   -5.5774    1.6676 H   0  0  0  0  0  0  0  0  0  0  0  0
    9.8592   -6.8613    1.4779 H   0  0  0  0  0  0  0  0  0  0  0  0
   10.6137   -6.0996    0.0344 H   0  0  0  0  0  0  0  0  0  0  0  0
    7.2013   -3.4089    0.6921 H   0  0  0  0  0  0  0  0  0  0  0  0
    1.2731   -0.6925    6.2719 H   0  0  0  0  0  0  0  0  0  0  0  0
   -0.2083   -0.6518    5.2441 H   0  0  0  0  0  0  0  0  0  0  0  0
    0.8928   -2.0297    5.1243 H   0  0  0  0  0  0  0  0  0  0  0  0
    0.3963    4.5617    3.1920 H   0  0  0  0  0  0  0  0  0  0  0  0
    0.9459    6.1329    4.9457 H   0  0  0  0  0  0  0  0  0  0  0  0
    1.0305    6.6906    7.3366 H   0  0  0  0  0  0  0  0  0  0  0  0
    0.6746    5.4463    8.5722 H   0  0  0  0  0  0  0  0  0  0  0  0
    3.2953    5.6602    6.9436 H   0  0  0  0  0  0  0  0  0  0  0  0
    2.9340    4.4048    8.1931 H   0  0  0  0  0  0  0  0  0  0  0  0
    3.0664    6.1406    8.6693 H   0  0  0  0  0  0  0  0  0  0  0  0
    0.5032    3.0287    7.9065 H   0  0  0  0  0  0  0  0  0  0  0  0
   -0.0455    1.4325    6.1693 H   0  0  0  0  0  0  0  0  0  0  0  0
   -2.2959    2.2962    4.8715 H   0  0  0  0  0  0  0  0  0  0  0  0
   -4.3136    1.0446    5.0740 H   0  0  0  0  0  0  0  0  0  0  0  0
   -5.1638   -1.9790    3.0255 H   0  0  0  0  0  0  0  0  0  0  0  0
   -5.8600   -0.6072    3.9412 H   0  0  0  0  0  0  0  0  0  0  0  0
   -5.8965   -2.6289    5.3445 H   0  0  0  0  0  0  0  0  0  0  0  0
   -4.1177   -2.8840    5.0965 H   0  0  0  0  0  0  0  0  0  0  0  0
   -4.7181   -1.4616    6.0506 H   0  0  0  0  0  0  0  0  0  0  0  0
   -2.8592   -1.9142    2.3282 H   0  0  0  0  0  0  0  0  0  0  0  0
   -0.9947   -1.4683    0.9767 H   0  0  0  0  0  0  0  0  0  0  0  0
    0.0815   -0.1098    1.2140 H   0  0  0  0  0  0  0  0  0  0  0  0
    0.2089   -1.5420    2.3138 H   0  0  0  0  0  0  0  0  0  0  0  0
   -2.6037    2.4753    1.9061 H   0  0  0  0  0  0  0  0  0  0  0  0
   -2.6148   -0.1593   -3.5544 H   0  0  0  0  0  0  0  0  0  0  0  0
   -0.7351   -1.7003   -3.7869 H   0  0  0  0  0  0  0  0  0  0  0  0
    1.4783   -2.1782   -4.7741 H   0  0  0  0  0  0  0  0  0  0  0  0
    2.4625   -0.8572   -5.4854 H   0  0  0  0  0  0  0  0  0  0  0  0
    3.5204   -1.6800   -3.4033 H   0  0  0  0  0  0  0  0  0  0  0  0
    2.0070   -1.3559   -2.4691 H   0  0  0  0  0  0  0  0  0  0  0  0
    2.9538    0.0132   -3.1694 H   0  0  0  0  0  0  0  0  0  0  0  0
    1.7311    1.5226   -5.2522 H   0  0  0  0  0  0  0  0  0  0  0  0
   -0.1064    3.0690   -4.9956 H   0  0  0  0  0  0  0  0  0  0  0  0
   -2.4309    2.9445   -6.7433 H   0  0  0  0  0  0  0  0  0  0  0  0
   -2.2869    5.0213   -8.0098 H   0  0  0  0  0  0  0  0  0  0  0  0
   -3.0620    8.3141   -6.6493 H   0  0  0  0  0  0  0  0  0  0  0  0
   -2.5416    7.4210   -8.1156 H   0  0  0  0  0  0  0  0  0  0  0  0
   -0.1773    7.5485   -7.4413 H   0  0  0  0  0  0  0  0  0  0  0  0
   -0.9047    9.1988   -7.4282 H   0  0  0  0  0  0  0  0  0  0  0  0
   -0.6278    8.3239   -5.8703 H   0  0  0  0  0  0  0  0  0  0  0  0
   -2.5015    7.2827   -4.3340 H   0  0  0  0  0  0  0  0  0  0  0  0
   -2.6330    5.2187   -3.0602 H   0  0  0  0  0  0  0  0  0  0  0  0
   -0.0673    3.0842   -2.3786 H   0  0  0  0  0  0  0  0  0  0  0  0
   -4.0036    1.1446   -6.4146 H   0  0  0  0  0  0  0  0  0  0  0  0
   -7.2983    0.3803   -6.7206 H   0  0  0  0  0  0  0  0  0  0  0  0
   -4.9013   -4.6820   -3.8936 H   0  0  0  0  0  0  0  0  0  0  0  0
   -6.0494   -6.8571   -4.2730 H   0  0  0  0  0  0  0  0  0  0  0  0
   -8.0432   -8.0252   -5.0881 H   0  0  0  0  0  0  0  0  0  0  0  0
   -7.6886   -7.9233   -6.8592 H   0  0  0  0  0  0  0  0  0  0  0  0
   -9.2024   -7.1974   -6.1791 H   0  0  0  0  0  0  0  0  0  0  0  0
   -8.5795   -5.0339   -7.2486 H   0  0  0  0  0  0  0  0  0  0  0  0
  1  2  2  3
  2  3  1  0
  3  4  2  0
  3  5  1  0
  5  6  2  0
  6  7  1  0
  7  8  1  0
  8  9  1  0
  7 10  2  0
 10 11  1  0
 11 12  1  0
 10 13  1  0
 13 14  2  0
 14 15  1  0
 15 16  2  3
 16 17  1  0
 17 18  3  0
 16 19  1  0
 19 20  3  0
  1 21  1  0
 21 22  1  0
 22 23  1  0
 23 24  1  0
 24 25  2  0
 25 26  1  0
 26 27  1  0
 27 28  1  0
 28 29  1  0
 26 30  1  0
 30 31  2  0
 31 32  1  0
 32 33  2  0
 33 34  1  0
 34 35  1  0
 33 36  1  0
 36 37  2  0
 26 38  1  0
 38 39  2  0
 39 40  1  0
 40 41  2  0
 41 42  1  0
 42 43  1  0
 41 44  1  0
 44 45  2  0
 45 46  1  0
 25 47  1  0
 47 48  2  0
 48 49  1  0
 49 50  1  0
 50 51  1  0
 51 52  1  0
 52 53  2  0
 53 54  1  0
 54 55  1  0
 55 56  2  0
 56 57  1  0
 57 58  2  0
 58 59  1  0
 59 60  1  0
 58 61  1  0
 61 62  2  0
 54 63  1  0
 63 64  2  0
 64 65  1  0
 65 66  2  0
 66 67  1  0
 67 68  1  0
 66 69  1  0
 69 70  2  0
 54 71  1  0
 71 72  1  0
 72 73  1  0
 73 74  2  0
 74 75  1  0
 53 76  1  0
 76 77  2  0
 77 78  1  0
 77 79  1  0
 79 80  2  3
 80 81  1  0
 81 82  2  0
 81 83  1  0
 83 84  2  0
 84 85  1  0
 85 86  2  0
 86 87  1  0
 86 88  1  0
 88 89  2  0
 89 90  1  0
 90 91  2  3
 91 92  1  0
 92 93  3  0
 91 94  1  0
 94 95  3  0
 15  2  1  0
 28 21  2  0
 37 30  1  0
 45 38  1  0
 74 47  1  0
 90 80  1  0
 14  5  1  0
 27 23  2  0
 72 49  2  0
 89 83  1  0
 75 24  1  0
 71 51  2  0
 78 52  1  0
 62 55  1  0
 70 63  1  0
  1 96  1  0
  6 97  1  0
  9 98  1  0
  9 99  1  0
  9100  1  0
 12101  1  0
 12102  1  0
 12103  1  0
 13104  1  0
 29105  1  0
 29106  1  0
 29107  1  0
 31108  1  0
 32109  1  0
 34110  1  0
 34111  1  0
 35112  1  0
 35113  1  0
 35114  1  0
 36115  1  0
 37116  1  0
 39117  1  0
 40118  1  0
 42119  1  0
 42120  1  0
 43121  1  0
 43122  1  0
 43123  1  0
 44124  1  0
 46125  1  0
 46126  1  0
 46127  1  0
 48128  1  0
 56129  1  0
 57130  1  0
 59131  1  0
 59132  1  0
 60133  1  0
 60134  1  0
 60135  1  0
 61136  1  0
 62137  1  0
 64138  1  0
 65139  1  0
 67140  1  0
 67141  1  0
 68142  1  0
 68143  1  0
 68144  1  0
 69145  1  0
 70146  1  0
 73147  1  0
 76148  1  0
 79149  1  0
 84150  1  0
 85151  1  0
 87152  1  0
 87153  1  0
 87154  1  0
 88155  1  0
M  END

