
     RDKit          3D

116128  0  0  0  0  0  0  0  0999 V2000
   -6.5116    4.2102    3.1422 C   0  0  0  0  0  0  0  0  0  0  0  0
   -5.8874    4.5510    4.2843 C   0  0  0  0  0  0  0  0  0  0  0  0
   -4.8794    3.7226    4.9845 C   0  0  0  0  0  0  0  0  0  0  0  0
   -4.6391    2.4870    4.7979 O   0  0  0  0  0  0  0  0  0  0  0  0
   -4.4045    4.4470    6.1228 C   0  0  0  0  0  0  0  0  0  0  0  0
   -3.4911    3.9687    7.0550 C   0  0  0  0  0  0  0  0  0  0  0  0
   -3.2363    4.7517    8.2025 C   0  0  0  0  0  0  0  0  0  0  0  0
   -2.2501    4.4054    9.1332 O   0  0  0  0  0  0  0  0  0  0  0  0
   -1.4105    3.2595    9.0069 C   0  0  0  0  0  0  0  0  0  0  0  0
   -4.0044    5.9212    8.4317 C   0  0  0  0  0  0  0  0  0  0  0  0
   -3.7818    6.6669    9.5999 O   0  0  0  0  0  0  0  0  0  0  0  0
   -4.2964    7.9765    9.8433 C   0  0  0  0  0  0  0  0  0  0  0  0
   -4.9834    6.3107    7.4900 C   0  0  0  0  0  0  0  0  0  0  0  0
   -5.1243    5.6112    6.2839 C   0  0  0  0  0  0  0  0  0  0  0  0
   -6.0654    5.8008    5.1193 C   0  0  0  0  0  0  0  0  0  0  0  0
   -6.8232    6.9202    4.8571 C   0  0  0  0  0  0  0  0  0  0  0  0
   -6.8269    8.0570    5.7752 C   0  0  0  0  0  0  0  0  0  0  0  0
   -6.8286    8.8487    6.6137 N   0  0  0  0  0  0  0  0  0  0  0  0
   -8.0029    6.8316    4.0291 C   0  0  0  0  0  0  0  0  0  0  0  0
   -9.0544    6.7144    3.5330 N   0  0  0  0  0  0  0  0  0  0  0  0
   -6.1510    2.9901    2.3654 C   0  0  0  0  0  0  0  0  0  0  0  0
   -6.9594    1.8314    2.2137 C   0  0  0  0  0  0  0  0  0  0  0  0
   -8.4129    1.7497    2.5839 C   0  0  0  0  0  0  0  0  0  0  0  0
   -9.2796    2.1772    1.4081 C   0  0  0  0  0  0  0  0  0  0  0  0
   -6.2293    0.7657    1.6734 C   0  0  0  0  0  0  0  0  0  0  0  0
   -6.6241   -0.8266    1.1674 S   0  0  0  0  0  0  0  0  0  0  0  0
   -4.9812   -1.1301    0.7873 C   0  0  0  0  0  0  0  0  0  0  0  0
   -4.1966   -2.0672    0.1640 C   0  0  0  0  0  0  0  0  0  0  0  0
   -4.5492   -3.2396   -0.5232 C   0  0  0  0  0  0  0  0  0  0  0  0
   -3.5432   -3.9091   -1.2844 C   0  0  0  0  0  0  0  0  0  0  0  0
   -3.9233   -5.0291   -1.9490 N   0  0  0  0  0  0  0  0  0  0  0  0
   -5.5337   -5.0668   -1.5295 S   0  0  0  0  0  0  0  0  0  0  0  0
   -5.8060   -3.7693   -0.5371 N   0  0  0  0  0  0  0  0  0  0  0  0
   -2.2284   -3.4049   -1.2714 C   0  0  0  0  0  0  0  0  0  0  0  0
   -1.0668   -3.8922   -1.8270 C   0  0  0  0  0  0  0  0  0  0  0  0
   -0.5225   -5.1491   -2.8496 S   0  0  0  0  0  0  0  0  0  0  0  0
    1.1014   -4.6689   -2.5742 C   0  0  0  0  0  0  0  0  0  0  0  0
    2.3385   -5.0071   -3.0877 C   0  0  0  0  0  0  0  0  0  0  0  0
    2.8847   -5.9131   -4.3969 S   0  0  0  0  0  0  0  0  0  0  0  0
    4.4940   -5.3425   -4.2758 C   0  0  0  0  0  0  0  0  0  0  0  0
    4.5942   -4.4368   -3.1930 C   0  0  0  0  0  0  0  0  0  0  0  0
    5.8530   -3.6960   -2.8026 C   0  0  0  0  0  0  0  0  0  0  0  0
    6.7342   -4.5670   -1.9122 C   0  0  0  0  0  0  0  0  0  0  0  0
    3.3637   -4.2520   -2.5739 C   0  0  0  0  0  0  0  0  0  0  0  0
    2.7968   -3.0857   -1.4905 S   0  0  0  0  0  0  0  0  0  0  0  0
    1.1945   -3.6079   -1.6887 C   0  0  0  0  0  0  0  0  0  0  0  0
   -0.0547   -3.1424   -1.3130 C   0  0  0  0  0  0  0  0  0  0  0  0
   -0.4902   -2.1697   -0.4721 N   0  0  0  0  0  0  0  0  0  0  0  0
   -1.8596   -2.2788   -0.5075 C   0  0  0  0  0  0  0  0  0  0  0  0
   -2.8844   -1.5395    0.1527 C   0  0  0  0  0  0  0  0  0  0  0  0
   -2.8904   -0.2654    0.6793 N   0  0  0  0  0  0  0  0  0  0  0  0
   -4.1812   -0.0582    1.0368 C   0  0  0  0  0  0  0  0  0  0  0  0
   -4.8985    1.0508    1.4595 C   0  0  0  0  0  0  0  0  0  0  0  0
   -4.5806    2.6546    1.7953 S   0  0  0  0  0  0  0  0  0  0  0  0
   -1.9104    0.8089    0.5274 C   0  0  0  0  0  0  0  0  0  0  0  0
   -1.3348    1.2174    1.8972 C   0  0  0  0  0  0  0  0  0  0  0  0
    0.3496   -1.6023    0.5862 C   0  0  0  0  0  0  0  0  0  0  0  0
    1.2816   -0.5061    0.0235 C   0  0  0  0  0  0  0  0  0  0  0  0
    5.4793   -5.4154   -5.3729 C   0  0  0  0  0  0  0  0  0  0  0  0
    5.7358   -4.3501   -6.1798 C   0  0  0  0  0  0  0  0  0  0  0  0
    5.0719   -3.0402   -6.0797 C   0  0  0  0  0  0  0  0  0  0  0  0
    3.9326   -2.8112   -5.5923 O   0  0  0  0  0  0  0  0  0  0  0  0
    5.9559   -2.0319   -6.6108 C   0  0  0  0  0  0  0  0  0  0  0  0
    5.7870   -0.6588   -6.5776 C   0  0  0  0  0  0  0  0  0  0  0  0
    6.8217    0.1630   -7.0707 C   0  0  0  0  0  0  0  0  0  0  0  0
    6.7171    1.5655   -7.0507 O   0  0  0  0  0  0  0  0  0  0  0  0
    5.5730    2.2841   -6.5789 C   0  0  0  0  0  0  0  0  0  0  0  0
    8.0005   -0.4137   -7.5832 C   0  0  0  0  0  0  0  0  0  0  0  0
    9.0050    0.4503   -8.0491 O   0  0  0  0  0  0  0  0  0  0  0  0
   10.2620    0.0278   -8.5911 C   0  0  0  0  0  0  0  0  0  0  0  0
    8.1438   -1.8229   -7.6105 C   0  0  0  0  0  0  0  0  0  0  0  0
    7.0957   -2.6248   -7.1294 C   0  0  0  0  0  0  0  0  0  0  0  0
    6.9597   -4.1157   -7.0056 C   0  0  0  0  0  0  0  0  0  0  0  0
    7.6849   -5.0516   -7.6714 C   0  0  0  0  0  0  0  0  0  0  0  0
    7.2890   -6.4359   -7.6946 C   0  0  0  0  0  0  0  0  0  0  0  0
    6.9648   -7.5430   -7.7198 N   0  0  0  0  0  0  0  0  0  0  0  0
    8.8140   -4.7096   -8.5103 C   0  0  0  0  0  0  0  0  0  0  0  0
    9.7174   -4.4434   -9.1858 N   0  0  0  0  0  0  0  0  0  0  0  0
   -7.3149    4.7811    2.7412 H   0  0  0  0  0  0  0  0  0  0  0  0
   -3.0009    3.0235    6.8660 H   0  0  0  0  0  0  0  0  0  0  0  0
   -0.8140    3.3313    8.0605 H   0  0  0  0  0  0  0  0  0  0  0  0
   -2.0329    2.3374    9.0177 H   0  0  0  0  0  0  0  0  0  0  0  0
   -0.7255    3.2307    9.8734 H   0  0  0  0  0  0  0  0  0  0  0  0
   -5.3670    7.8953   10.1359 H   0  0  0  0  0  0  0  0  0  0  0  0
   -4.2022    8.6234    8.9325 H   0  0  0  0  0  0  0  0  0  0  0  0
   -3.7234    8.4623   10.6641 H   0  0  0  0  0  0  0  0  0  0  0  0
   -5.7041    7.0384    7.7583 H   0  0  0  0  0  0  0  0  0  0  0  0
   -8.6390    2.3817    3.4770 H   0  0  0  0  0  0  0  0  0  0  0  0
   -8.6688    0.7050    2.8632 H   0  0  0  0  0  0  0  0  0  0  0  0
   -9.1430    3.2605    1.2073 H   0  0  0  0  0  0  0  0  0  0  0  0
  -10.3482    1.9948    1.6338 H   0  0  0  0  0  0  0  0  0  0  0  0
   -9.0101    1.6024    0.4983 H   0  0  0  0  0  0  0  0  0  0  0  0
    6.4422   -3.3985   -3.7039 H   0  0  0  0  0  0  0  0  0  0  0  0
    5.5946   -2.7470   -2.2803 H   0  0  0  0  0  0  0  0  0  0  0  0
    6.1414   -4.9106   -1.0398 H   0  0  0  0  0  0  0  0  0  0  0  0
    7.1011   -5.4280   -2.4913 H   0  0  0  0  0  0  0  0  0  0  0  0
    7.5987   -3.9717   -1.5603 H   0  0  0  0  0  0  0  0  0  0  0  0
   -2.3837    1.7118    0.0635 H   0  0  0  0  0  0  0  0  0  0  0  0
   -1.1132    0.5217   -0.1817 H   0  0  0  0  0  0  0  0  0  0  0  0
   -0.3547    1.7240    1.7786 H   0  0  0  0  0  0  0  0  0  0  0  0
   -1.2152    0.3553    2.5827 H   0  0  0  0  0  0  0  0  0  0  0  0
   -2.0131    1.9386    2.4012 H   0  0  0  0  0  0  0  0  0  0  0  0
    0.9704   -2.4117    1.0348 H   0  0  0  0  0  0  0  0  0  0  0  0
   -0.2703   -1.2138    1.4197 H   0  0  0  0  0  0  0  0  0  0  0  0
    1.0990    0.4570    0.5408 H   0  0  0  0  0  0  0  0  0  0  0  0
    2.3451   -0.7712    0.2158 H   0  0  0  0  0  0  0  0  0  0  0  0
    1.1477   -0.3633   -1.0707 H   0  0  0  0  0  0  0  0  0  0  0  0
    6.1132   -6.2893   -5.4078 H   0  0  0  0  0  0  0  0  0  0  0  0
    4.8683   -0.2504   -6.1426 H   0  0  0  0  0  0  0  0  0  0  0  0
    4.7031    2.0431   -7.2167 H   0  0  0  0  0  0  0  0  0  0  0  0
    5.3624    2.0133   -5.5243 H   0  0  0  0  0  0  0  0  0  0  0  0
    5.7828    3.3674   -6.6373 H   0  0  0  0  0  0  0  0  0  0  0  0
   10.8422    0.9272   -8.8811 H   0  0  0  0  0  0  0  0  0  0  0  0
   10.0987   -0.5918   -9.4958 H   0  0  0  0  0  0  0  0  0  0  0  0
   10.8371   -0.5286   -7.8286 H   0  0  0  0  0  0  0  0  0  0  0  0
    9.0712   -2.2588   -7.9701 H   0  0  0  0  0  0  0  0  0  0  0  0
  1  2  2  3
  2  3  1  0
  3  4  2  0
  3  5  1  0
  5  6  2  0
  6  7  1  0
  7  8  1  0
  8  9  1  0
  7 10  2  0
 10 11  1  0
 11 12  1  0
 10 13  1  0
 13 14  2  0
 14 15  1  0
 15 16  2  3
 16 17  1  0
 17 18  3  0
 16 19  1  0
 19 20  3  0
  1 21  1  0
 21 22  2  0
 22 23  1  0
 23 24  1  0
 22 25  1  0
 25 26  1  0
 26 27  1  0
 27 28  1  0
 28 29  1  0
 29 30  1  0
 30 31  2  0
 31 32  1  0
 32 33  1  0
 30 34  1  0
 34 35  1  0
 35 36  1  0
 36 37  1  0
 37 38  1  0
 38 39  1  0
 39 40  1  0
 40 41  2  0
 41 42  1  0
 42 43  1  0
 41 44  1  0
 44 45  1  0
 45 46  1  0
 46 47  1  0
 47 48  1  0
 48 49  1  0
 49 50  1  0
 50 51  1  0
 51 52  1  0
 52 53  1  0
 53 54  1  0
 51 55  1  0
 55 56  1  0
 48 57  1  0
 57 58  1  0
 40 59  1  0
 59 60  2  3
 60 61  1  0
 61 62  2  0
 61 63  1  0
 63 64  2  0
 64 65  1  0
 65 66  1  0
 66 67  1  0
 65 68  2  0
 68 69  1  0
 69 70  1  0
 68 71  1  0
 71 72  2  0
 72 73  1  0
 73 74  2  3
 74 75  1  0
 75 76  3  0
 74 77  1  0
 77 78  3  0
 15  2  1  0
 54 21  1  0
 73 60  1  0
 14  5  1  0
 53 25  2  0
 72 63  1  0
 52 27  2  0
 50 28  2  0
 33 29  2  0
 49 34  2  0
 47 35  2  0
 46 37  2  0
 44 38  2  0
  1 79  1  0
  6 80  1  0
  9 81  1  0
  9 82  1  0
  9 83  1  0
 12 84  1  0
 12 85  1  0
 12 86  1  0
 13 87  1  0
 23 88  1  0
 23 89  1  0
 24 90  1  0
 24 91  1  0
 24 92  1  0
 42 93  1  0
 42 94  1  0
 43 95  1  0
 43 96  1  0
 43 97  1  0
 55 98  1  0
 55 99  1  0
 56100  1  0
 56101  1  0
 56102  1  0
 57103  1  0
 57104  1  0
 58105  1  0
 58106  1  0
 58107  1  0
 59108  1  0
 64109  1  0
 67110  1  0
 67111  1  0
 67112  1  0
 70113  1  0
 70114  1  0
 70115  1  0
 71116  1  0
M  END

