
     RDKit          3D

111123  0  0  0  0  0  0  0  0999 V2000
   -4.1827    6.9527   -0.8829 C   0  0  0  0  0  0  0  0  0  0  0  0
   -3.9210    6.8210    0.4366 C   0  0  0  0  0  0  0  0  0  0  0  0
   -2.7480    6.0888    0.9299 C   0  0  0  0  0  0  0  0  0  0  0  0
   -1.5844    6.1472    0.4464 O   0  0  0  0  0  0  0  0  0  0  0  0
   -3.1603    5.2204    2.0037 C   0  0  0  0  0  0  0  0  0  0  0  0
   -2.4286    4.1917    2.5880 C   0  0  0  0  0  0  0  0  0  0  0  0
   -3.0551    3.3760    3.5474 C   0  0  0  0  0  0  0  0  0  0  0  0
   -2.3850    2.2986    4.1486 O   0  0  0  0  0  0  0  0  0  0  0  0
   -1.0540    1.9070    3.8335 C   0  0  0  0  0  0  0  0  0  0  0  0
   -4.3977    3.6307    3.9140 C   0  0  0  0  0  0  0  0  0  0  0  0
   -4.9832    2.8025    4.8835 O   0  0  0  0  0  0  0  0  0  0  0  0
   -6.3287    2.9100    5.3296 C   0  0  0  0  0  0  0  0  0  0  0  0
   -5.1157    4.6874    3.2949 C   0  0  0  0  0  0  0  0  0  0  0  0
   -4.4830    5.4587    2.3098 C   0  0  0  0  0  0  0  0  0  0  0  0
   -4.9952    6.5613    1.4431 C   0  0  0  0  0  0  0  0  0  0  0  0
   -6.1918    7.1839    1.5033 C   0  0  0  0  0  0  0  0  0  0  0  0
   -6.4190    8.4288    0.8213 C   0  0  0  0  0  0  0  0  0  0  0  0
   -6.6333    9.4192    0.2577 N   0  0  0  0  0  0  0  0  0  0  0  0
   -7.3413    6.5983    2.1466 C   0  0  0  0  0  0  0  0  0  0  0  0
   -8.2887    6.1117    2.5953 N   0  0  0  0  0  0  0  0  0  0  0  0
   -3.5877    5.9909   -1.8322 C   0  0  0  0  0  0  0  0  0  0  0  0
   -2.6485    6.2723   -2.8477 C   0  0  0  0  0  0  0  0  0  0  0  0
   -2.1975    7.6489   -3.2387 C   0  0  0  0  0  0  0  0  0  0  0  0
   -1.1625    8.1880   -2.2546 C   0  0  0  0  0  0  0  0  0  0  0  0
   -2.0973    5.0832   -3.3459 C   0  0  0  0  0  0  0  0  0  0  0  0
   -0.8191    4.7075   -4.4276 S   0  0  0  0  0  0  0  0  0  0  0  0
   -0.9367    3.0523   -4.0396 C   0  0  0  0  0  0  0  0  0  0  0  0
   -0.3369    1.8426   -4.2955 C   0  0  0  0  0  0  0  0  0  0  0  0
    0.6183    1.4313   -5.2341 C   0  0  0  0  0  0  0  0  0  0  0  0
    0.9782    0.0467   -5.2837 C   0  0  0  0  0  0  0  0  0  0  0  0
    1.9147   -0.3130   -6.1914 N   0  0  0  0  0  0  0  0  0  0  0  0
    2.1954    1.1616   -6.8961 S   0  0  0  0  0  0  0  0  0  0  0  0
    1.2213    2.2575   -6.1232 N   0  0  0  0  0  0  0  0  0  0  0  0
    0.4100   -0.8369   -4.3509 C   0  0  0  0  0  0  0  0  0  0  0  0
    0.7613   -2.1045   -3.9789 C   0  0  0  0  0  0  0  0  0  0  0  0
    1.9618   -3.2484   -4.3612 S   0  0  0  0  0  0  0  0  0  0  0  0
    1.6704   -4.0874   -2.9016 C   0  0  0  0  0  0  0  0  0  0  0  0
    2.2307   -5.2228   -2.3067 C   0  0  0  0  0  0  0  0  0  0  0  0
    3.2059   -6.1421   -3.0018 C   0  0  0  0  0  0  0  0  0  0  0  0
    4.5762   -5.4934   -3.1969 C   0  0  0  0  0  0  0  0  0  0  0  0
    1.6568   -5.4442   -1.0346 C   0  0  0  0  0  0  0  0  0  0  0  0
    0.4816   -4.2574   -0.6999 S   0  0  0  0  0  0  0  0  0  0  0  0
    0.7100   -3.4579   -2.1517 C   0  0  0  0  0  0  0  0  0  0  0  0
    0.1747   -2.3420   -2.7752 C   0  0  0  0  0  0  0  0  0  0  0  0
   -0.5610   -1.2962   -2.3216 N   0  0  0  0  0  0  0  0  0  0  0  0
   -0.4772   -0.3938   -3.3547 C   0  0  0  0  0  0  0  0  0  0  0  0
   -0.9442    0.9372   -3.4137 C   0  0  0  0  0  0  0  0  0  0  0  0
   -1.9687    1.5236   -2.7267 N   0  0  0  0  0  0  0  0  0  0  0  0
   -1.9016    2.8129   -3.1227 C   0  0  0  0  0  0  0  0  0  0  0  0
   -2.5874    3.9494   -2.7584 C   0  0  0  0  0  0  0  0  0  0  0  0
   -3.7240    4.3042   -1.5954 S   0  0  0  0  0  0  0  0  0  0  0  0
   -3.1514    0.8771   -2.1523 C   0  0  0  0  0  0  0  0  0  0  0  0
   -4.3410    0.9465   -3.1124 C   0  0  0  0  0  0  0  0  0  0  0  0
   -0.7199   -0.9823   -0.8933 C   0  0  0  0  0  0  0  0  0  0  0  0
   -1.8002   -1.8491   -0.2388 C   0  0  0  0  0  0  0  0  0  0  0  0
    1.9096   -6.5781   -0.1350 C   0  0  0  0  0  0  0  0  0  0  0  0
    3.0978   -6.7979    0.4583 C   0  0  0  0  0  0  0  0  0  0  0  0
    4.2035   -5.8326    0.4924 C   0  0  0  0  0  0  0  0  0  0  0  0
    4.2031   -4.6745   -0.0058 O   0  0  0  0  0  0  0  0  0  0  0  0
    5.2438   -6.3557    1.3426 C   0  0  0  0  0  0  0  0  0  0  0  0
    6.4875   -5.7844    1.6103 C   0  0  0  0  0  0  0  0  0  0  0  0
    7.3745   -6.4685    2.4518 C   0  0  0  0  0  0  0  0  0  0  0  0
    8.6409   -5.9362    2.7355 C   0  0  0  0  0  0  0  0  0  0  0  0
    9.5223   -6.6272    3.5719 C   0  0  0  0  0  0  0  0  0  0  0  0
   10.7498   -6.1072    3.8349 F   0  0  0  0  0  0  0  0  0  0  0  0
    9.1440   -7.8483    4.1383 C   0  0  0  0  0  0  0  0  0  0  0  0
   10.0011   -8.5075    4.9590 F   0  0  0  0  0  0  0  0  0  0  0  0
    7.8862   -8.3924    3.8650 C   0  0  0  0  0  0  0  0  0  0  0  0
    6.9899   -7.7133    3.0209 C   0  0  0  0  0  0  0  0  0  0  0  0
    5.7271   -8.2668    2.7276 C   0  0  0  0  0  0  0  0  0  0  0  0
    4.8458   -7.5670    1.8845 C   0  0  0  0  0  0  0  0  0  0  0  0
    3.4915   -7.9316    1.3608 C   0  0  0  0  0  0  0  0  0  0  0  0
    2.8055   -9.0843    1.5899 C   0  0  0  0  0  0  0  0  0  0  0  0
    3.1872  -10.0330    2.5956 C   0  0  0  0  0  0  0  0  0  0  0  0
    3.4764  -10.8068    3.4091 N   0  0  0  0  0  0  0  0  0  0  0  0
    1.6440   -9.4650    0.8292 C   0  0  0  0  0  0  0  0  0  0  0  0
    0.7094   -9.7842    0.2227 N   0  0  0  0  0  0  0  0  0  0  0  0
   -5.1199    7.3865   -1.2029 H   0  0  0  0  0  0  0  0  0  0  0  0
   -1.4080    4.0150    2.2687 H   0  0  0  0  0  0  0  0  0  0  0  0
   -0.7772    1.0323    4.4564 H   0  0  0  0  0  0  0  0  0  0  0  0
   -0.9876    1.6160    2.7599 H   0  0  0  0  0  0  0  0  0  0  0  0
   -0.3466    2.7356    4.0492 H   0  0  0  0  0  0  0  0  0  0  0  0
   -6.5132    2.1299    6.0976 H   0  0  0  0  0  0  0  0  0  0  0  0
   -7.0289    2.7503    4.4829 H   0  0  0  0  0  0  0  0  0  0  0  0
   -6.4938    3.9044    5.7930 H   0  0  0  0  0  0  0  0  0  0  0  0
   -6.1379    4.8761    3.5733 H   0  0  0  0  0  0  0  0  0  0  0  0
   -1.7519    7.6258   -4.2586 H   0  0  0  0  0  0  0  0  0  0  0  0
   -3.0789    8.3316   -3.2667 H   0  0  0  0  0  0  0  0  0  0  0  0
   -0.8109    9.1841   -2.5971 H   0  0  0  0  0  0  0  0  0  0  0  0
   -1.6155    8.2983   -1.2452 H   0  0  0  0  0  0  0  0  0  0  0  0
   -0.2902    7.4992   -2.1995 H   0  0  0  0  0  0  0  0  0  0  0  0
    3.3298   -7.0843   -2.4312 H   0  0  0  0  0  0  0  0  0  0  0  0
    2.7915   -6.4061   -3.9960 H   0  0  0  0  0  0  0  0  0  0  0  0
    4.4877   -4.4773   -3.6347 H   0  0  0  0  0  0  0  0  0  0  0  0
    5.1301   -5.4302   -2.2363 H   0  0  0  0  0  0  0  0  0  0  0  0
    5.1784   -6.1160   -3.8928 H   0  0  0  0  0  0  0  0  0  0  0  0
   -2.9634   -0.1933   -1.9833 H   0  0  0  0  0  0  0  0  0  0  0  0
   -3.4077    1.3583   -1.1859 H   0  0  0  0  0  0  0  0  0  0  0  0
   -5.2143    0.4459   -2.6450 H   0  0  0  0  0  0  0  0  0  0  0  0
   -4.6104    1.9994   -3.3367 H   0  0  0  0  0  0  0  0  0  0  0  0
   -4.0959    0.4177   -4.0524 H   0  0  0  0  0  0  0  0  0  0  0  0
   -0.9485    0.0933   -0.7370 H   0  0  0  0  0  0  0  0  0  0  0  0
    0.2541   -1.1544   -0.3787 H   0  0  0  0  0  0  0  0  0  0  0  0
   -2.6596   -1.2180    0.0776 H   0  0  0  0  0  0  0  0  0  0  0  0
   -1.3966   -2.3401    0.6706 H   0  0  0  0  0  0  0  0  0  0  0  0
   -2.1683   -2.6363   -0.9292 H   0  0  0  0  0  0  0  0  0  0  0  0
    1.0503   -7.1742    0.1135 H   0  0  0  0  0  0  0  0  0  0  0  0
    6.7574   -4.8387    1.1531 H   0  0  0  0  0  0  0  0  0  0  0  0
    8.9513   -4.9908    2.3040 H   0  0  0  0  0  0  0  0  0  0  0  0
    7.6115   -9.3407    4.3086 H   0  0  0  0  0  0  0  0  0  0  0  0
    5.4764   -9.2223    3.1532 H   0  0  0  0  0  0  0  0  0  0  0  0
  1  2  2  3
  2  3  1  0
  3  4  2  0
  3  5  1  0
  5  6  2  0
  6  7  1  0
  7  8  1  0
  8  9  1  0
  7 10  2  0
 10 11  1  0
 11 12  1  0
 10 13  1  0
 13 14  2  0
 14 15  1  0
 15 16  2  3
 16 17  1  0
 17 18  3  0
 16 19  1  0
 19 20  3  0
  1 21  1  0
 21 22  2  0
 22 23  1  0
 23 24  1  0
 22 25  1  0
 25 26  1  0
 26 27  1  0
 27 28  1  0
 28 29  1  0
 29 30  1  0
 30 31  2  0
 31 32  1  0
 32 33  1  0
 30 34  1  0
 34 35  1  0
 35 36  1  0
 36 37  1  0
 37 38  1  0
 38 39  1  0
 39 40  1  0
 38 41  2  0
 41 42  1  0
 42 43  1  0
 43 44  1  0
 44 45  1  0
 45 46  1  0
 46 47  1  0
 47 48  1  0
 48 49  1  0
 49 50  1  0
 50 51  1  0
 48 52  1  0
 52 53  1  0
 45 54  1  0
 54 55  1  0
 41 56  1  0
 56 57  2  3
 57 58  1  0
 58 59  2  0
 58 60  1  0
 60 61  2  0
 61 62  1  0
 62 63  2  0
 63 64  1  0
 64 65  1  0
 64 66  2  0
 66 67  1  0
 66 68  1  0
 68 69  2  0
 69 70  1  0
 70 71  2  0
 71 72  1  0
 72 73  2  3
 73 74  1  0
 74 75  3  0
 73 76  1  0
 76 77  3  0
 15  2  1  0
 51 21  1  0
 72 57  1  0
 14  5  1  0
 50 25  2  0
 71 60  1  0
 49 27  2  0
 69 62  1  0
 47 28  2  0
 33 29  2  0
 46 34  2  0
 44 35  2  0
 43 37  2  0
  1 78  1  0
  6 79  1  0
  9 80  1  0
  9 81  1  0
  9 82  1  0
 12 83  1  0
 12 84  1  0
 12 85  1  0
 13 86  1  0
 23 87  1  0
 23 88  1  0
 24 89  1  0
 24 90  1  0
 24 91  1  0
 39 92  1  0
 39 93  1  0
 40 94  1  0
 40 95  1  0
 40 96  1  0
 52 97  1  0
 52 98  1  0
 53 99  1  0
 53100  1  0
 53101  1  0
 54102  1  0
 54103  1  0
 55104  1  0
 55105  1  0
 55106  1  0
 56107  1  0
 61108  1  0
 63109  1  0
 68110  1  0
 70111  1  0
M  END

