
     RDKit          3D

160175  0  0  0  0  0  0  0  0999 V2000
    3.9519   -4.6346    5.0310 C   0  0  0  0  0  0  0  0  0  0  0  0
    5.2071   -5.0748    4.7515 C   0  0  0  0  0  0  0  0  0  0  0  0
    6.3071   -4.3466    4.1507 C   0  0  0  0  0  0  0  0  0  0  0  0
    6.6220   -3.1600    4.3749 O   0  0  0  0  0  0  0  0  0  0  0  0
    7.0610   -5.2658    3.3141 C   0  0  0  0  0  0  0  0  0  0  0  0
    7.9751   -4.9541    2.3017 C   0  0  0  0  0  0  0  0  0  0  0  0
    8.4832   -6.0000    1.4996 C   0  0  0  0  0  0  0  0  0  0  0  0
    9.5145   -5.7863    0.5609 O   0  0  0  0  0  0  0  0  0  0  0  0
   10.3577   -4.6357    0.5496 C   0  0  0  0  0  0  0  0  0  0  0  0
    7.9656   -7.3050    1.6297 C   0  0  0  0  0  0  0  0  0  0  0  0
    8.4058   -8.2611    0.6937 O   0  0  0  0  0  0  0  0  0  0  0  0
    7.9484   -9.6116    0.6001 C   0  0  0  0  0  0  0  0  0  0  0  0
    7.0148   -7.5953    2.6422 C   0  0  0  0  0  0  0  0  0  0  0  0
    6.5748   -6.5491    3.4741 C   0  0  0  0  0  0  0  0  0  0  0  0
    5.5179   -6.5107    4.5204 C   0  0  0  0  0  0  0  0  0  0  0  0
    5.2214   -7.4953    5.3774 C   0  0  0  0  0  0  0  0  0  0  0  0
    5.5539   -8.8748    5.1306 C   0  0  0  0  0  0  0  0  0  0  0  0
    5.7940   -9.9896    4.9369 N   0  0  0  0  0  0  0  0  0  0  0  0
    4.8619   -7.1499    6.7280 C   0  0  0  0  0  0  0  0  0  0  0  0
    4.6919   -6.7830    7.8140 N   0  0  0  0  0  0  0  0  0  0  0  0
    3.3821   -3.2679    4.9536 C   0  0  0  0  0  0  0  0  0  0  0  0
    1.8100   -2.9110    5.5162 S   0  0  0  0  0  0  0  0  0  0  0  0
    1.7963   -1.3352    4.9523 C   0  0  0  0  0  0  0  0  0  0  0  0
    0.8202   -0.5415    4.4030 C   0  0  0  0  0  0  0  0  0  0  0  0
   -0.7706   -0.8994    3.9296 S   0  0  0  0  0  0  0  0  0  0  0  0
   -0.6455    0.1592    2.6134 C   0  0  0  0  0  0  0  0  0  0  0  0
   -1.4861    0.5223    1.5200 C   0  0  0  0  0  0  0  0  0  0  0  0
   -2.7138   -0.0085    1.1234 C   0  0  0  0  0  0  0  0  0  0  0  0
   -3.2273    0.4409   -0.1033 C   0  0  0  0  0  0  0  0  0  0  0  0
   -4.4816   -0.0493   -0.8307 C   0  0  0  0  0  0  0  0  0  0  0  0
   -5.7902    0.2889   -0.1099 C   0  0  0  0  0  0  0  0  0  0  0  0
   -7.0062   -0.2134   -0.6111 C   0  0  0  0  0  0  0  0  0  0  0  0
   -8.2156    0.1084   -0.0081 C   0  0  0  0  0  0  0  0  0  0  0  0
   -8.2460    0.9356    1.1243 C   0  0  0  0  0  0  0  0  0  0  0  0
   -9.5509    1.3076    1.7671 C   0  0  0  0  0  0  0  0  0  0  0  0
   -9.9641    2.7171    1.3618 C   0  0  0  0  0  0  0  0  0  0  0  0
   -7.0484    1.4678    1.6158 C   0  0  0  0  0  0  0  0  0  0  0  0
   -5.8323    1.1614    0.9984 C   0  0  0  0  0  0  0  0  0  0  0  0
   -4.3091   -1.5444   -1.1206 C   0  0  0  0  0  0  0  0  0  0  0  0
   -4.8251   -2.5211   -0.2374 C   0  0  0  0  0  0  0  0  0  0  0  0
   -4.5449   -3.8776   -0.4295 C   0  0  0  0  0  0  0  0  0  0  0  0
   -3.7173   -4.2915   -1.4786 C   0  0  0  0  0  0  0  0  0  0  0  0
   -3.3975   -5.7429   -1.6695 C   0  0  0  0  0  0  0  0  0  0  0  0
   -4.5134   -6.4536   -2.4293 C   0  0  0  0  0  0  0  0  0  0  0  0
   -3.1799   -3.3333   -2.3511 C   0  0  0  0  0  0  0  0  0  0  0  0
   -3.4600   -1.9818   -2.1695 C   0  0  0  0  0  0  0  0  0  0  0  0
   -4.3838    0.8086   -2.0805 C   0  0  0  0  0  0  0  0  0  0  0  0
   -3.2684    1.5768   -2.0679 C   0  0  0  0  0  0  0  0  0  0  0  0
   -2.5294    1.3778   -0.8613 C   0  0  0  0  0  0  0  0  0  0  0  0
   -1.3110    1.9109   -0.4651 C   0  0  0  0  0  0  0  0  0  0  0  0
   -0.7716    1.4440    0.7509 C   0  0  0  0  0  0  0  0  0  0  0  0
    0.5538    1.8246    1.4100 C   0  0  0  0  0  0  0  0  0  0  0  0
    0.3522    3.2332    2.0014 C   0  0  0  0  0  0  0  0  0  0  0  0
    0.2820    4.3454    1.1232 C   0  0  0  0  0  0  0  0  0  0  0  0
    0.0669    5.6337    1.6049 C   0  0  0  0  0  0  0  0  0  0  0  0
   -0.0830    5.8566    2.9766 C   0  0  0  0  0  0  0  0  0  0  0  0
   -0.2923    7.2535    3.4898 C   0  0  0  0  0  0  0  0  0  0  0  0
    1.0368    7.9978    3.5763 C   0  0  0  0  0  0  0  0  0  0  0  0
   -0.0111    4.7758    3.8618 C   0  0  0  0  0  0  0  0  0  0  0  0
    0.1990    3.4764    3.3834 C   0  0  0  0  0  0  0  0  0  0  0  0
    1.7549    1.8091    0.4568 C   0  0  0  0  0  0  0  0  0  0  0  0
    2.8766    2.6231    0.7199 C   0  0  0  0  0  0  0  0  0  0  0  0
    3.8778    2.7963   -0.2335 C   0  0  0  0  0  0  0  0  0  0  0  0
    3.8045    2.1356   -1.4624 C   0  0  0  0  0  0  0  0  0  0  0  0
    4.8590    2.3964   -2.5114 C   0  0  0  0  0  0  0  0  0  0  0  0
    6.1212    1.5952   -2.2233 C   0  0  0  0  0  0  0  0  0  0  0  0
    2.7603    1.2321   -1.6968 C   0  0  0  0  0  0  0  0  0  0  0  0
    1.7477    1.0660   -0.7495 C   0  0  0  0  0  0  0  0  0  0  0  0
    0.5933    0.7165    2.4712 C   0  0  0  0  0  0  0  0  0  0  0  0
    1.4683    0.2564    3.4711 C   0  0  0  0  0  0  0  0  0  0  0  0
    2.7870   -0.1144    3.3577 N   0  0  0  0  0  0  0  0  0  0  0  0
    2.9446   -1.0900    4.2725 C   0  0  0  0  0  0  0  0  0  0  0  0
    3.8528   -2.1619    4.2450 C   0  0  0  0  0  0  0  0  0  0  0  0
    3.5369   -0.1536    2.1338 C   0  0  0  0  0  0  0  0  0  0  0  0
    4.8537    0.2777    2.0023 C   0  0  0  0  0  0  0  0  0  0  0  0
    5.5221   -0.2833    0.8991 C   0  0  0  0  0  0  0  0  0  0  0  0
    4.7400   -1.1714    0.1728 C   0  0  0  0  0  0  0  0  0  0  0  0
    5.2095   -2.0704   -0.9362 C   0  0  0  0  0  0  0  0  0  0  0  0
    5.5577   -3.4605   -0.3981 C   0  0  0  0  0  0  0  0  0  0  0  0
    3.2405   -1.2766    0.9203 S   0  0  0  0  0  0  0  0  0  0  0  0
   -3.2136    2.5966   -3.3837 S   0  0  0  0  0  0  0  0  0  0  0  0
   -4.6572    1.9865   -4.0567 C   0  0  0  0  0  0  0  0  0  0  0  0
   -5.2084    1.0290   -3.1840 C   0  0  0  0  0  0  0  0  0  0  0  0
   -5.3832    2.6169   -5.1688 C   0  0  0  0  0  0  0  0  0  0  0  0
   -4.7782    3.1356   -6.2531 C   0  0  0  0  0  0  0  0  0  0  0  0
   -3.3604    2.9472   -6.5888 C   0  0  0  0  0  0  0  0  0  0  0  0
   -2.6526    1.9450   -6.2943 O   0  0  0  0  0  0  0  0  0  0  0  0
   -2.9309    4.0378   -7.4319 C   0  0  0  0  0  0  0  0  0  0  0  0
   -1.6568    4.2905   -7.9268 C   0  0  0  0  0  0  0  0  0  0  0  0
   -1.4652    5.4098   -8.7458 C   0  0  0  0  0  0  0  0  0  0  0  0
    0.1379    5.7606   -9.3914 Cl  0  0  0  0  0  0  0  0  0  0  0  0
   -2.5546    6.2517   -9.0523 C   0  0  0  0  0  0  0  0  0  0  0  0
   -2.3703    7.3438   -9.8307 F   0  0  0  0  0  0  0  0  0  0  0  0
   -3.8354    5.9705   -8.5507 C   0  0  0  0  0  0  0  0  0  0  0  0
   -4.0139    4.8519   -7.7177 C   0  0  0  0  0  0  0  0  0  0  0  0
   -5.2421    4.2997   -7.0629 C   0  0  0  0  0  0  0  0  0  0  0  0
   -6.5126    4.7683   -7.1760 C   0  0  0  0  0  0  0  0  0  0  0  0
   -7.6666    3.9610   -6.8378 C   0  0  0  0  0  0  0  0  0  0  0  0
   -8.5997    3.3261   -6.5809 N   0  0  0  0  0  0  0  0  0  0  0  0
   -6.8205    6.0646   -7.7227 C   0  0  0  0  0  0  0  0  0  0  0  0
   -7.0843    7.1086   -8.1500 N   0  0  0  0  0  0  0  0  0  0  0  0
    3.2321   -5.4043    5.2820 H   0  0  0  0  0  0  0  0  0  0  0  0
    8.2672   -3.9272    2.1158 H   0  0  0  0  0  0  0  0  0  0  0  0
   10.4622   -4.2284    1.5798 H   0  0  0  0  0  0  0  0  0  0  0  0
    9.9465   -3.8864   -0.1471 H   0  0  0  0  0  0  0  0  0  0  0  0
   11.3607   -4.9600    0.2092 H   0  0  0  0  0  0  0  0  0  0  0  0
    8.2703  -10.1790    1.4959 H   0  0  0  0  0  0  0  0  0  0  0  0
    8.4083  -10.0731   -0.3030 H   0  0  0  0  0  0  0  0  0  0  0  0
    6.8459   -9.6435    0.4921 H   0  0  0  0  0  0  0  0  0  0  0  0
    6.5865   -8.5793    2.7372 H   0  0  0  0  0  0  0  0  0  0  0  0
   -3.2357   -0.7446    1.7233 H   0  0  0  0  0  0  0  0  0  0  0  0
   -7.0149   -0.8539   -1.4831 H   0  0  0  0  0  0  0  0  0  0  0  0
   -9.1319   -0.3057   -0.4123 H   0  0  0  0  0  0  0  0  0  0  0  0
   -9.4481    1.2445    2.8715 H   0  0  0  0  0  0  0  0  0  0  0  0
  -10.3494    0.5903    1.4708 H   0  0  0  0  0  0  0  0  0  0  0  0
  -10.1700    2.7565    0.2691 H   0  0  0  0  0  0  0  0  0  0  0  0
  -10.8865    2.9984    1.9028 H   0  0  0  0  0  0  0  0  0  0  0  0
   -9.1673    3.4491    1.6100 H   0  0  0  0  0  0  0  0  0  0  0  0
   -7.0486    2.1277    2.4750 H   0  0  0  0  0  0  0  0  0  0  0  0
   -4.9408    1.6171    1.3985 H   0  0  0  0  0  0  0  0  0  0  0  0
   -5.4324   -2.2376    0.6086 H   0  0  0  0  0  0  0  0  0  0  0  0
   -4.9716   -4.6133    0.2460 H   0  0  0  0  0  0  0  0  0  0  0  0
   -3.2479   -6.2321   -0.6779 H   0  0  0  0  0  0  0  0  0  0  0  0
   -2.4456   -5.8585   -2.2284 H   0  0  0  0  0  0  0  0  0  0  0  0
   -4.1253   -7.4026   -2.8475 H   0  0  0  0  0  0  0  0  0  0  0  0
   -4.8907   -5.8260   -3.2636 H   0  0  0  0  0  0  0  0  0  0  0  0
   -5.3577   -6.6845   -1.7420 H   0  0  0  0  0  0  0  0  0  0  0  0
   -2.5334   -3.6340   -3.1634 H   0  0  0  0  0  0  0  0  0  0  0  0
   -3.0020   -1.2740   -2.8437 H   0  0  0  0  0  0  0  0  0  0  0  0
   -0.7746    2.5999   -1.0991 H   0  0  0  0  0  0  0  0  0  0  0  0
    0.4114    4.2126    0.0522 H   0  0  0  0  0  0  0  0  0  0  0  0
    0.0376    6.4556    0.9078 H   0  0  0  0  0  0  0  0  0  0  0  0
   -0.7649    7.2338    4.4960 H   0  0  0  0  0  0  0  0  0  0  0  0
   -0.9768    7.8050    2.8079 H   0  0  0  0  0  0  0  0  0  0  0  0
    0.8637    9.0202    3.9806 H   0  0  0  0  0  0  0  0  0  0  0  0
    1.4954    8.0947    2.5707 H   0  0  0  0  0  0  0  0  0  0  0  0
    1.7385    7.4599    4.2498 H   0  0  0  0  0  0  0  0  0  0  0  0
   -0.1098    4.9333    4.9250 H   0  0  0  0  0  0  0  0  0  0  0  0
    0.2387    2.6734    4.1095 H   0  0  0  0  0  0  0  0  0  0  0  0
    2.9602    3.1628    1.6528 H   0  0  0  0  0  0  0  0  0  0  0  0
    4.6909    3.4795   -0.0261 H   0  0  0  0  0  0  0  0  0  0  0  0
    5.1107    3.4817   -2.5295 H   0  0  0  0  0  0  0  0  0  0  0  0
    4.4744    2.1353   -3.5215 H   0  0  0  0  0  0  0  0  0  0  0  0
    5.9120    0.5124   -2.3125 H   0  0  0  0  0  0  0  0  0  0  0  0
    6.9104    1.8660   -2.9581 H   0  0  0  0  0  0  0  0  0  0  0  0
    6.4969    1.8117   -1.1991 H   0  0  0  0  0  0  0  0  0  0  0  0
    2.7105    0.6720   -2.6232 H   0  0  0  0  0  0  0  0  0  0  0  0
    0.9423    0.3757   -0.9671 H   0  0  0  0  0  0  0  0  0  0  0  0
    4.6608   -2.1876    3.5261 H   0  0  0  0  0  0  0  0  0  0  0  0
    5.3516    0.9033    2.7244 H   0  0  0  0  0  0  0  0  0  0  0  0
    6.5613   -0.1123    0.6817 H   0  0  0  0  0  0  0  0  0  0  0  0
    6.1084   -1.6391   -1.4323 H   0  0  0  0  0  0  0  0  0  0  0  0
    4.4006   -2.1589   -1.6972 H   0  0  0  0  0  0  0  0  0  0  0  0
    5.8126   -4.1336   -1.2321 H   0  0  0  0  0  0  0  0  0  0  0  0
    6.4263   -3.3904    0.2903 H   0  0  0  0  0  0  0  0  0  0  0  0
    4.6953   -3.8878    0.1552 H   0  0  0  0  0  0  0  0  0  0  0  0
   -6.1701    0.5618   -3.3303 H   0  0  0  0  0  0  0  0  0  0  0  0
   -6.4257    2.7976   -4.9737 H   0  0  0  0  0  0  0  0  0  0  0  0
   -0.8343    3.6272   -7.6861 H   0  0  0  0  0  0  0  0  0  0  0  0
   -4.6351    6.6307   -8.8129 H   0  0  0  0  0  0  0  0  0  0  0  0
  1  2  2  3
  2  3  1  0
  3  4  2  0
  3  5  1  0
  5  6  2  0
  6  7  1  0
  7  8  1  0
  8  9  1  0
  7 10  2  0
 10 11  1  0
 11 12  1  0
 10 13  1  0
 13 14  2  0
 14 15  1  0
 15 16  2  3
 16 17  1  0
 17 18  3  0
 16 19  1  0
 19 20  3  0
  1 21  1  0
 21 22  1  0
 22 23  1  0
 23 24  1  0
 24 25  1  0
 25 26  1  0
 26 27  1  0
 27 28  2  0
 28 29  1  0
 29 30  1  0
 30 31  1  0
 31 32  2  0
 32 33  1  0
 33 34  2  0
 34 35  1  0
 35 36  1  0
 34 37  1  0
 37 38  2  0
 30 39  1  0
 39 40  2  0
 40 41  1  0
 41 42  2  0
 42 43  1  0
 43 44  1  0
 42 45  1  0
 45 46  2  0
 30 47  1  0
 47 48  2  0
 48 49  1  0
 49 50  1  0
 50 51  2  0
 51 52  1  0
 52 53  1  0
 53 54  2  0
 54 55  1  0
 55 56  2  0
 56 57  1  0
 57 58  1  0
 56 59  1  0
 59 60  2  0
 52 61  1  0
 61 62  2  0
 62 63  1  0
 63 64  2  0
 64 65  1  0
 65 66  1  0
 64 67  1  0
 67 68  2  0
 52 69  1  0
 69 70  1  0
 70 71  1  0
 71 72  1  0
 72 73  1  0
 71 74  1  0
 74 75  2  0
 75 76  1  0
 76 77  2  0
 77 78  1  0
 78 79  1  0
 77 80  1  0
 48 81  1  0
 81 82  1  0
 82 83  2  0
 82 84  1  0
 84 85  2  3
 85 86  1  0
 86 87  2  0
 86 88  1  0
 88 89  2  0
 89 90  1  0
 90 91  1  0
 90 92  2  0
 92 93  1  0
 92 94  1  0
 94 95  2  0
 95 96  1  0
 96 97  2  3
 97 98  1  0
 98 99  3  0
 97100  1  0
100101  3  0
 15  2  1  0
 73 21  2  0
 80 74  1  0
 96 85  1  0
 14  5  1  0
 72 23  2  0
 95 88  1  0
 70 24  2  0
 69 26  2  0
 51 27  1  0
 60 53  1  0
 68 61  1  0
 49 29  2  0
 38 31  1  0
 46 39  1  0
 83 47  1  0
  1102  1  0
  6103  1  0
  9104  1  0
  9105  1  0
  9106  1  0
 12107  1  0
 12108  1  0
 12109  1  0
 13110  1  0
 28111  1  0
 32112  1  0
 33113  1  0
 35114  1  0
 35115  1  0
 36116  1  0
 36117  1  0
 36118  1  0
 37119  1  0
 38120  1  0
 40121  1  0
 41122  1  0
 43123  1  0
 43124  1  0
 44125  1  0
 44126  1  0
 44127  1  0
 45128  1  0
 46129  1  0
 50130  1  0
 54131  1  0
 55132  1  0
 57133  1  0
 57134  1  0
 58135  1  0
 58136  1  0
 58137  1  0
 59138  1  0
 60139  1  0
 62140  1  0
 63141  1  0
 65142  1  0
 65143  1  0
 66144  1  0
 66145  1  0
 66146  1  0
 67147  1  0
 68148  1  0
 73149  1  0
 75150  1  0
 76151  1  0
 78152  1  0
 78153  1  0
 79154  1  0
 79155  1  0
 79156  1  0
 83157  1  0
 84158  1  0
 89159  1  0
 94160  1  0
M  END

