
     RDKit          3D

175192  0  0  0  0  0  0  0  0999 V2000
   -8.0558   -3.4139   -2.2291 C   0  0  0  0  0  0  0  0  0  0  0  0
   -9.2910   -3.0072   -2.5903 C   0  0  0  0  0  0  0  0  0  0  0  0
   -9.7472   -1.6193   -2.7623 C   0  0  0  0  0  0  0  0  0  0  0  0
   -9.1670   -0.5787   -2.3467 O   0  0  0  0  0  0  0  0  0  0  0  0
  -11.0381   -1.6415   -3.4185 C   0  0  0  0  0  0  0  0  0  0  0  0
  -11.8013   -0.5581   -3.8566 C   0  0  0  0  0  0  0  0  0  0  0  0
  -13.0257   -0.8112   -4.4994 C   0  0  0  0  0  0  0  0  0  0  0  0
  -14.0121    0.5513   -5.0133 Cl  0  0  0  0  0  0  0  0  0  0  0  0
  -13.4301   -2.1392   -4.7453 C   0  0  0  0  0  0  0  0  0  0  0  0
  -14.9291   -2.4894   -5.5951 Cl  0  0  0  0  0  0  0  0  0  0  0  0
  -12.6320   -3.2145   -4.3145 C   0  0  0  0  0  0  0  0  0  0  0  0
  -11.4413   -2.9515   -3.6109 C   0  0  0  0  0  0  0  0  0  0  0  0
  -10.4439   -3.8777   -3.0027 C   0  0  0  0  0  0  0  0  0  0  0  0
  -10.6624   -5.1809   -2.6672 C   0  0  0  0  0  0  0  0  0  0  0  0
   -9.7528   -5.9465   -1.8591 C   0  0  0  0  0  0  0  0  0  0  0  0
   -9.0262   -6.5808   -1.2097 N   0  0  0  0  0  0  0  0  0  0  0  0
  -11.8903   -5.8725   -2.9694 C   0  0  0  0  0  0  0  0  0  0  0  0
  -12.8698   -6.4464   -3.2056 N   0  0  0  0  0  0  0  0  0  0  0  0
   -6.9301   -2.5338   -1.8877 C   0  0  0  0  0  0  0  0  0  0  0  0
   -6.2334   -1.3513   -2.9135 S   0  0  0  0  0  0  0  0  0  0  0  0
   -4.8910   -1.1361   -1.9283 C   0  0  0  0  0  0  0  0  0  0  0  0
   -3.5463   -0.6293   -2.0712 C   0  0  0  0  0  0  0  0  0  0  0  0
   -2.7502   -1.2766   -1.1521 C   0  0  0  0  0  0  0  0  0  0  0  0
   -3.6314   -1.9473   -0.0946 C   0  0  0  0  0  0  0  0  0  0  0  0
   -4.9044   -2.0319   -0.9082 C   0  0  0  0  0  0  0  0  0  0  0  0
   -6.0481   -2.8200   -0.8378 C   0  0  0  0  0  0  0  0  0  0  0  0
   -3.8163   -0.9617    1.0919 C   0  0  0  0  0  0  0  0  0  0  0  0
   -4.9220   -0.0758    1.1568 C   0  0  0  0  0  0  0  0  0  0  0  0
   -5.0834    0.8107    2.2260 C   0  0  0  0  0  0  0  0  0  0  0  0
   -4.1420    0.8577    3.2484 C   0  0  0  0  0  0  0  0  0  0  0  0
   -4.3586    1.7835    4.4247 C   0  0  0  0  0  0  0  0  0  0  0  0
   -4.4565    3.2490    3.9825 C   0  0  0  0  0  0  0  0  0  0  0  0
   -3.0074    0.0274    3.1803 C   0  0  0  0  0  0  0  0  0  0  0  0
   -2.8400   -0.8650    2.1081 C   0  0  0  0  0  0  0  0  0  0  0  0
   -3.1514   -3.3371    0.3453 C   0  0  0  0  0  0  0  0  0  0  0  0
   -2.2623   -4.1003   -0.4400 C   0  0  0  0  0  0  0  0  0  0  0  0
   -1.7935   -5.3380    0.0068 C   0  0  0  0  0  0  0  0  0  0  0  0
   -2.1992   -5.8465    1.2524 C   0  0  0  0  0  0  0  0  0  0  0  0
   -1.6462   -7.1542    1.7675 C   0  0  0  0  0  0  0  0  0  0  0  0
   -2.6464   -8.2921    1.5721 C   0  0  0  0  0  0  0  0  0  0  0  0
   -3.1322   -5.1282    2.0098 C   0  0  0  0  0  0  0  0  0  0  0  0
   -3.6249   -3.9015    1.5516 C   0  0  0  0  0  0  0  0  0  0  0  0
   -1.5429   -0.6120   -0.9513 C   0  0  0  0  0  0  0  0  0  0  0  0
   -0.0384   -1.2950   -1.2779 S   0  0  0  0  0  0  0  0  0  0  0  0
    0.6668    0.1009   -1.9201 C   0  0  0  0  0  0  0  0  0  0  0  0
    2.0030    0.5460   -1.6397 C   0  0  0  0  0  0  0  0  0  0  0  0
    3.1972   -0.1773   -1.7070 C   0  0  0  0  0  0  0  0  0  0  0  0
    4.2927    0.3290   -0.9939 C   0  0  0  0  0  0  0  0  0  0  0  0
    5.6380   -0.3451   -0.7607 C   0  0  0  0  0  0  0  0  0  0  0  0
    6.7068    0.1629   -1.7465 C   0  0  0  0  0  0  0  0  0  0  0  0
    8.0774    0.0786   -1.4088 C   0  0  0  0  0  0  0  0  0  0  0  0
    9.0559    0.6318   -2.2420 C   0  0  0  0  0  0  0  0  0  0  0  0
    8.6932    1.2660   -3.4402 C   0  0  0  0  0  0  0  0  0  0  0  0
    9.7408    1.9631   -4.2735 C   0  0  0  0  0  0  0  0  0  0  0  0
   10.0887    3.3209   -3.6693 C   0  0  0  0  0  0  0  0  0  0  0  0
    7.3437    1.2996   -3.8117 C   0  0  0  0  0  0  0  0  0  0  0  0
    6.3623    0.7377   -2.9876 C   0  0  0  0  0  0  0  0  0  0  0  0
    5.4880   -1.8765   -0.7340 C   0  0  0  0  0  0  0  0  0  0  0  0
    6.1060   -2.7024   -1.6969 C   0  0  0  0  0  0  0  0  0  0  0  0
    5.8584   -4.0779   -1.7319 C   0  0  0  0  0  0  0  0  0  0  0  0
    4.9824   -4.6688   -0.8072 C   0  0  0  0  0  0  0  0  0  0  0  0
    4.6399   -6.1315   -0.9103 C   0  0  0  0  0  0  0  0  0  0  0  0
    3.4633   -6.3403   -1.8673 C   0  0  0  0  0  0  0  0  0  0  0  0
    4.3583   -3.8611    0.1544 C   0  0  0  0  0  0  0  0  0  0  0  0
    4.6091   -2.4832    0.1934 C   0  0  0  0  0  0  0  0  0  0  0  0
    5.9375    0.2513    0.6048 C   0  0  0  0  0  0  0  0  0  0  0  0
    5.1403    1.3413    0.8770 C   0  0  0  0  0  0  0  0  0  0  0  0
    4.1167    1.4222   -0.1424 C   0  0  0  0  0  0  0  0  0  0  0  0
    2.9485    2.1997   -0.1615 C   0  0  0  0  0  0  0  0  0  0  0  0
    1.9098    1.7788   -1.0218 C   0  0  0  0  0  0  0  0  0  0  0  0
    0.4953    2.3563   -1.1542 C   0  0  0  0  0  0  0  0  0  0  0  0
   -0.0483    2.7184    0.2439 C   0  0  0  0  0  0  0  0  0  0  0  0
    0.1246    1.8205    1.3196 C   0  0  0  0  0  0  0  0  0  0  0  0
   -0.2249    2.1811    2.6229 C   0  0  0  0  0  0  0  0  0  0  0  0
   -0.7866    3.4313    2.8827 C   0  0  0  0  0  0  0  0  0  0  0  0
   -1.0177    3.8781    4.3015 C   0  0  0  0  0  0  0  0  0  0  0  0
    0.2788    4.3816    4.9344 C   0  0  0  0  0  0  0  0  0  0  0  0
   -1.0636    4.2919    1.8121 C   0  0  0  0  0  0  0  0  0  0  0  0
   -0.7321    3.9216    0.5013 C   0  0  0  0  0  0  0  0  0  0  0  0
    0.4967    3.5290   -2.1522 C   0  0  0  0  0  0  0  0  0  0  0  0
   -0.6679    3.8426   -2.8894 C   0  0  0  0  0  0  0  0  0  0  0  0
   -0.6572    4.8341   -3.8737 C   0  0  0  0  0  0  0  0  0  0  0  0
    0.5180    5.5510   -4.1407 C   0  0  0  0  0  0  0  0  0  0  0  0
    0.5568    6.5855   -5.2330 C   0  0  0  0  0  0  0  0  0  0  0  0
    0.3300    7.9888   -4.6760 C   0  0  0  0  0  0  0  0  0  0  0  0
    1.6426    5.3372   -3.3373 C   0  0  0  0  0  0  0  0  0  0  0  0
    1.6281    4.3536   -2.3449 C   0  0  0  0  0  0  0  0  0  0  0  0
   -0.2290    1.1500   -1.7742 C   0  0  0  0  0  0  0  0  0  0  0  0
   -1.5122    0.6907   -1.4251 C   0  0  0  0  0  0  0  0  0  0  0  0
   -2.9376    0.9257   -2.3279 S   0  0  0  0  0  0  0  0  0  0  0  0
    4.9441    1.4479    2.5459 S   0  0  0  0  0  0  0  0  0  0  0  0
    5.9979    0.1780    2.9279 C   0  0  0  0  0  0  0  0  0  0  0  0
    6.4516   -0.3928    1.7374 C   0  0  0  0  0  0  0  0  0  0  0  0
    5.8753   -0.6098    4.1590 C   0  0  0  0  0  0  0  0  0  0  0  0
    6.5981   -0.3928    5.2682 C   0  0  0  0  0  0  0  0  0  0  0  0
    7.4654    0.7766    5.5001 C   0  0  0  0  0  0  0  0  0  0  0  0
    7.8300    1.6250    4.6440 O   0  0  0  0  0  0  0  0  0  0  0  0
    7.8308    0.7701    6.9012 C   0  0  0  0  0  0  0  0  0  0  0  0
    7.2694   -0.3174    7.5324 C   0  0  0  0  0  0  0  0  0  0  0  0
    7.5135   -0.3793    8.9022 C   0  0  0  0  0  0  0  0  0  0  0  0
    8.4555    0.9775    9.2710 S   0  0  0  0  0  0  0  0  0  0  0  0
    8.5623    1.6217    7.7103 C   0  0  0  0  0  0  0  0  0  0  0  0
    9.2341    2.8978    7.3196 C   0  0  0  0  0  0  0  0  0  0  0  0
    6.5192   -1.1498    6.5654 C   0  0  0  0  0  0  0  0  0  0  0  0
    6.0204   -2.3926    6.7945 C   0  0  0  0  0  0  0  0  0  0  0  0
    5.5731   -3.2505    5.7283 C   0  0  0  0  0  0  0  0  0  0  0  0
    5.2151   -3.9476    4.8751 N   0  0  0  0  0  0  0  0  0  0  0  0
    6.0045   -2.9802    8.1087 C   0  0  0  0  0  0  0  0  0  0  0  0
    5.9754   -3.4618    9.1615 N   0  0  0  0  0  0  0  0  0  0  0  0
   -7.8291   -4.4602   -2.1692 H   0  0  0  0  0  0  0  0  0  0  0  0
  -11.4568    0.4603   -3.7081 H   0  0  0  0  0  0  0  0  0  0  0  0
  -12.9473   -4.2194   -4.5517 H   0  0  0  0  0  0  0  0  0  0  0  0
   -6.1961   -3.6079   -0.1133 H   0  0  0  0  0  0  0  0  0  0  0  0
   -5.6791   -0.0393    0.3909 H   0  0  0  0  0  0  0  0  0  0  0  0
   -5.9459    1.4619    2.2427 H   0  0  0  0  0  0  0  0  0  0  0  0
   -3.5295    1.6745    5.1529 H   0  0  0  0  0  0  0  0  0  0  0  0
   -5.3009    1.4985    4.9414 H   0  0  0  0  0  0  0  0  0  0  0  0
   -3.6544    3.4796    3.2548 H   0  0  0  0  0  0  0  0  0  0  0  0
   -5.4381    3.4464    3.5062 H   0  0  0  0  0  0  0  0  0  0  0  0
   -4.3462    3.9096    4.8656 H   0  0  0  0  0  0  0  0  0  0  0  0
   -2.2588    0.0649    3.9647 H   0  0  0  0  0  0  0  0  0  0  0  0
   -1.9601   -1.4918    2.0903 H   0  0  0  0  0  0  0  0  0  0  0  0
   -1.9242   -3.7442   -1.4033 H   0  0  0  0  0  0  0  0  0  0  0  0
   -1.0896   -5.8869   -0.6084 H   0  0  0  0  0  0  0  0  0  0  0  0
   -1.4114   -7.0561    2.8482 H   0  0  0  0  0  0  0  0  0  0  0  0
   -0.7002   -7.4135    1.2453 H   0  0  0  0  0  0  0  0  0  0  0  0
   -2.2178   -9.2370    1.9642 H   0  0  0  0  0  0  0  0  0  0  0  0
   -2.8711   -8.4243    0.4938 H   0  0  0  0  0  0  0  0  0  0  0  0
   -3.5909   -8.0761    2.1166 H   0  0  0  0  0  0  0  0  0  0  0  0
   -3.4775   -5.5156    2.9645 H   0  0  0  0  0  0  0  0  0  0  0  0
   -4.3502   -3.3815    2.1601 H   0  0  0  0  0  0  0  0  0  0  0  0
    3.2375   -1.1374   -2.2037 H   0  0  0  0  0  0  0  0  0  0  0  0
    8.3880   -0.3903   -0.4857 H   0  0  0  0  0  0  0  0  0  0  0  0
   10.0969    0.5863   -1.9443 H   0  0  0  0  0  0  0  0  0  0  0  0
   10.6552    1.3389   -4.3336 H   0  0  0  0  0  0  0  0  0  0  0  0
    9.3707    2.1182   -5.3110 H   0  0  0  0  0  0  0  0  0  0  0  0
   10.4525    3.2084   -2.6243 H   0  0  0  0  0  0  0  0  0  0  0  0
   10.8883    3.8063   -4.2685 H   0  0  0  0  0  0  0  0  0  0  0  0
    9.1943    3.9844   -3.6718 H   0  0  0  0  0  0  0  0  0  0  0  0
    7.0455    1.7701   -4.7420 H   0  0  0  0  0  0  0  0  0  0  0  0
    5.3341    0.7914   -3.3196 H   0  0  0  0  0  0  0  0  0  0  0  0
    6.7660   -2.2901   -2.4470 H   0  0  0  0  0  0  0  0  0  0  0  0
    6.3400   -4.6864   -2.4883 H   0  0  0  0  0  0  0  0  0  0  0  0
    5.5157   -6.6996   -1.2878 H   0  0  0  0  0  0  0  0  0  0  0  0
    4.3771   -6.5384    0.0850 H   0  0  0  0  0  0  0  0  0  0  0  0
    3.2217   -7.4205   -1.9318 H   0  0  0  0  0  0  0  0  0  0  0  0
    3.7188   -5.9695   -2.8854 H   0  0  0  0  0  0  0  0  0  0  0  0
    2.5637   -5.7993   -1.4982 H   0  0  0  0  0  0  0  0  0  0  0  0
    3.6658   -4.2943    0.8638 H   0  0  0  0  0  0  0  0  0  0  0  0
    4.0866   -1.8836    0.9256 H   0  0  0  0  0  0  0  0  0  0  0  0
    2.8158    3.0343    0.5183 H   0  0  0  0  0  0  0  0  0  0  0  0
    0.5783    0.8503    1.1522 H   0  0  0  0  0  0  0  0  0  0  0  0
   -0.0596    1.4776    3.4382 H   0  0  0  0  0  0  0  0  0  0  0  0
   -1.7699    4.6936    4.3309 H   0  0  0  0  0  0  0  0  0  0  0  0
   -1.4214    3.0427    4.9098 H   0  0  0  0  0  0  0  0  0  0  0  0
    1.0206    3.5580    5.0076 H   0  0  0  0  0  0  0  0  0  0  0  0
    0.0634    4.7601    5.9602 H   0  0  0  0  0  0  0  0  0  0  0  0
    0.7091    5.2118    4.3291 H   0  0  0  0  0  0  0  0  0  0  0  0
   -1.5189    5.2593    1.9882 H   0  0  0  0  0  0  0  0  0  0  0  0
   -0.9477    4.6283   -0.2857 H   0  0  0  0  0  0  0  0  0  0  0  0
   -1.5959    3.3177   -2.7085 H   0  0  0  0  0  0  0  0  0  0  0  0
   -1.5575    5.0343   -4.4386 H   0  0  0  0  0  0  0  0  0  0  0  0
    1.5481    6.5492   -5.7405 H   0  0  0  0  0  0  0  0  0  0  0  0
   -0.2152    6.3717   -6.0040 H   0  0  0  0  0  0  0  0  0  0  0  0
   -0.6841    8.0580   -4.2286 H   0  0  0  0  0  0  0  0  0  0  0  0
    1.0893    8.2295   -3.9005 H   0  0  0  0  0  0  0  0  0  0  0  0
    0.4068    8.7328   -5.4967 H   0  0  0  0  0  0  0  0  0  0  0  0
    2.5491    5.9087   -3.4956 H   0  0  0  0  0  0  0  0  0  0  0  0
    2.5224    4.2355   -1.7527 H   0  0  0  0  0  0  0  0  0  0  0  0
    6.9485   -1.3555    1.6915 H   0  0  0  0  0  0  0  0  0  0  0  0
    5.1585   -1.4120    4.1169 H   0  0  0  0  0  0  0  0  0  0  0  0
    7.1633   -1.1214    9.6080 H   0  0  0  0  0  0  0  0  0  0  0  0
    9.9747    3.1879    8.0920 H   0  0  0  0  0  0  0  0  0  0  0  0
    8.4724    3.7007    7.2171 H   0  0  0  0  0  0  0  0  0  0  0  0
    9.7634    2.7627    6.3508 H   0  0  0  0  0  0  0  0  0  0  0  0
  1  2  2  3
  2  3  1  0
  3  4  2  0
  3  5  1  0
  5  6  2  0
  6  7  1  0
  7  8  1  0
  7  9  2  0
  9 10  1  0
  9 11  1  0
 11 12  2  0
 12 13  1  0
 13 14  2  3
 14 15  1  0
 15 16  3  0
 14 17  1  0
 17 18  3  0
  1 19  1  0
 19 20  1  0
 20 21  1  0
 21 22  1  0
 22 23  2  0
 23 24  1  0
 24 25  1  0
 25 26  1  0
 24 27  1  0
 27 28  2  0
 28 29  1  0
 29 30  2  0
 30 31  1  0
 31 32  1  0
 30 33  1  0
 33 34  2  0
 24 35  1  0
 35 36  2  0
 36 37  1  0
 37 38  2  0
 38 39  1  0
 39 40  1  0
 38 41  1  0
 41 42  2  0
 23 43  1  0
 43 44  1  0
 44 45  1  0
 45 46  1  0
 46 47  2  0
 47 48  1  0
 48 49  1  0
 49 50  1  0
 50 51  2  0
 51 52  1  0
 52 53  2  0
 53 54  1  0
 54 55  1  0
 53 56  1  0
 56 57  2  0
 49 58  1  0
 58 59  2  0
 59 60  1  0
 60 61  2  0
 61 62  1  0
 62 63  1  0
 61 64  1  0
 64 65  2  0
 49 66  1  0
 66 67  2  0
 67 68  1  0
 68 69  1  0
 69 70  2  0
 70 71  1  0
 71 72  1  0
 72 73  2  0
 73 74  1  0
 74 75  2  0
 75 76  1  0
 76 77  1  0
 75 78  1  0
 78 79  2  0
 71 80  1  0
 80 81  2  0
 81 82  1  0
 82 83  2  0
 83 84  1  0
 84 85  1  0
 83 86  1  0
 86 87  2  0
 71 88  1  0
 88 89  1  0
 89 90  1  0
 67 91  1  0
 91 92  1  0
 92 93  2  0
 92 94  1  0
 94 95  2  3
 95 96  1  0
 96 97  2  0
 96 98  1  0
 98 99  1  0
 99100  2  0
100101  1  0
101102  1  0
102103  1  0
 99104  1  0
104105  2  3
105106  1  0
106107  3  0
105108  1  0
108109  3  0
 13  2  1  0
 26 19  2  0
 34 27  1  0
 42 35  1  0
 89 43  2  0
104 95  1  0
 12  5  1  0
 25 21  2  0
 88 45  2  0
102 98  2  0
 90 22  1  0
 70 46  1  0
 79 72  1  0
 87 80  1  0
 68 48  2  0
 57 50  1  0
 65 58  1  0
 93 66  1  0
  1110  1  0
  6111  1  0
 11112  1  0
 26113  1  0
 28114  1  0
 29115  1  0
 31116  1  0
 31117  1  0
 32118  1  0
 32119  1  0
 32120  1  0
 33121  1  0
 34122  1  0
 36123  1  0
 37124  1  0
 39125  1  0
 39126  1  0
 40127  1  0
 40128  1  0
 40129  1  0
 41130  1  0
 42131  1  0
 47132  1  0
 51133  1  0
 52134  1  0
 54135  1  0
 54136  1  0
 55137  1  0
 55138  1  0
 55139  1  0
 56140  1  0
 57141  1  0
 59142  1  0
 60143  1  0
 62144  1  0
 62145  1  0
 63146  1  0
 63147  1  0
 63148  1  0
 64149  1  0
 65150  1  0
 69151  1  0
 73152  1  0
 74153  1  0
 76154  1  0
 76155  1  0
 77156  1  0
 77157  1  0
 77158  1  0
 78159  1  0
 79160  1  0
 81161  1  0
 82162  1  0
 84163  1  0
 84164  1  0
 85165  1  0
 85166  1  0
 85167  1  0
 86168  1  0
 87169  1  0
 93170  1  0
 94171  1  0
100172  1  0
103173  1  0
103174  1  0
103175  1  0
M  END

