
     RDKit          3D

 95105  0  0  0  0  0  0  0  0999 V2000
    2.0409   -6.0029    2.9820 C   0  0  0  0  0  0  0  0  0  0  0  0
    0.8637   -6.6553    3.0681 C   0  0  0  0  0  0  0  0  0  0  0  0
   -0.4298   -6.1553    2.5811 C   0  0  0  0  0  0  0  0  0  0  0  0
   -0.7097   -4.9638    2.2824 O   0  0  0  0  0  0  0  0  0  0  0  0
   -1.3639   -7.2603    2.5425 C   0  0  0  0  0  0  0  0  0  0  0  0
   -2.6920   -7.2389    2.1156 C   0  0  0  0  0  0  0  0  0  0  0  0
   -3.4414   -8.4209    2.2013 C   0  0  0  0  0  0  0  0  0  0  0  0
   -5.1126   -8.3990    1.6554 Cl  0  0  0  0  0  0  0  0  0  0  0  0
   -2.8549   -9.5934    2.7272 C   0  0  0  0  0  0  0  0  0  0  0  0
   -3.7795  -11.0811    2.8738 Cl  0  0  0  0  0  0  0  0  0  0  0  0
   -1.5167   -9.5823    3.1589 C   0  0  0  0  0  0  0  0  0  0  0  0
   -0.7594   -8.4058    3.0372 C   0  0  0  0  0  0  0  0  0  0  0  0
    0.6453   -8.0918    3.4515 C   0  0  0  0  0  0  0  0  0  0  0  0
    1.5127   -8.9148    4.0954 C   0  0  0  0  0  0  0  0  0  0  0  0
    2.6907   -8.4280    4.7584 C   0  0  0  0  0  0  0  0  0  0  0  0
    3.6361   -8.0467    5.3064 N   0  0  0  0  0  0  0  0  0  0  0  0
    1.3208  -10.3397    4.1614 C   0  0  0  0  0  0  0  0  0  0  0  0
    1.1853  -11.4896    4.2003 N   0  0  0  0  0  0  0  0  0  0  0  0
    2.1960   -4.6875    2.3356 C   0  0  0  0  0  0  0  0  0  0  0  0
    1.8257   -4.4230    1.0165 C   0  0  0  0  0  0  0  0  0  0  0  0
    2.0607   -3.0756    0.8740 C   0  0  0  0  0  0  0  0  0  0  0  0
    2.5446   -2.5925    2.0259 C   0  0  0  0  0  0  0  0  0  0  0  0
    2.6457   -3.5635    2.9648 N   0  0  0  0  0  0  0  0  0  0  0  0
    2.9287   -3.4540    4.3975 C   0  0  0  0  0  0  0  0  0  0  0  0
    1.6469   -3.1735    5.1783 C   0  0  0  0  0  0  0  0  0  0  0  0
    2.3074   -1.2299    2.0218 C   0  0  0  0  0  0  0  0  0  0  0  0
    2.3777   -0.2426    3.0259 C   0  0  0  0  0  0  0  0  0  0  0  0
    1.8237    1.0453    2.7693 C   0  0  0  0  0  0  0  0  0  0  0  0
    1.8948    1.9653    3.7637 N   0  0  0  0  0  0  0  0  0  0  0  0
    2.6827    1.0784    4.9134 S   0  0  0  0  0  0  0  0  0  0  0  0
    2.9386   -0.4131    4.2458 N   0  0  0  0  0  0  0  0  0  0  0  0
    1.2784    1.3022    1.5120 C   0  0  0  0  0  0  0  0  0  0  0  0
    0.7666    2.4478    0.9796 C   0  0  0  0  0  0  0  0  0  0  0  0
    0.4000    4.0433    1.4357 S   0  0  0  0  0  0  0  0  0  0  0  0
   -0.0986    4.3999   -0.1624 C   0  0  0  0  0  0  0  0  0  0  0  0
   -0.7019    5.5135   -0.7517 C   0  0  0  0  0  0  0  0  0  0  0  0
   -1.0727    6.7612    0.0027 C   0  0  0  0  0  0  0  0  0  0  0  0
   -2.4119    6.5872    0.7142 C   0  0  0  0  0  0  0  0  0  0  0  0
   -1.0204    5.2595   -2.1029 C   0  0  0  0  0  0  0  0  0  0  0  0
   -0.6072    3.6449   -2.5009 S   0  0  0  0  0  0  0  0  0  0  0  0
    0.0415    3.3154   -0.9916 C   0  0  0  0  0  0  0  0  0  0  0  0
    0.5361    2.2024   -0.3285 C   0  0  0  0  0  0  0  0  0  0  0  0
    0.8836    0.9498   -0.7123 N   0  0  0  0  0  0  0  0  0  0  0  0
    1.2805    0.3572    0.4694 C   0  0  0  0  0  0  0  0  0  0  0  0
    1.7288   -0.9650    0.7538 C   0  0  0  0  0  0  0  0  0  0  0  0
    1.4982   -2.1407    0.0778 N   0  0  0  0  0  0  0  0  0  0  0  0
    0.4759   -2.4613   -0.9291 C   0  0  0  0  0  0  0  0  0  0  0  0
   -0.9150   -1.9793   -0.5036 C   0  0  0  0  0  0  0  0  0  0  0  0
    1.1907    0.5918   -2.1062 C   0  0  0  0  0  0  0  0  0  0  0  0
    2.6392    0.1243   -2.2739 C   0  0  0  0  0  0  0  0  0  0  0  0
   -1.8659    6.1396   -2.9358 C   0  0  0  0  0  0  0  0  0  0  0  0
   -1.7721    6.2728   -4.2719 C   0  0  0  0  0  0  0  0  0  0  0  0
   -0.8071    5.6079   -5.1514 C   0  0  0  0  0  0  0  0  0  0  0  0
    0.3331    5.1809   -4.8315 O   0  0  0  0  0  0  0  0  0  0  0  0
   -1.3363    5.6229   -6.4992 C   0  0  0  0  0  0  0  0  0  0  0  0
   -0.8482    4.9676   -7.6271 C   0  0  0  0  0  0  0  0  0  0  0  0
   -1.5951    5.0258   -8.8141 C   0  0  0  0  0  0  0  0  0  0  0  0
   -1.1431    4.3932   -9.9273 F   0  0  0  0  0  0  0  0  0  0  0  0
   -2.8215    5.7130   -8.8429 C   0  0  0  0  0  0  0  0  0  0  0  0
   -3.5633    5.7294   -9.9793 F   0  0  0  0  0  0  0  0  0  0  0  0
   -3.3001    6.3604   -7.6881 C   0  0  0  0  0  0  0  0  0  0  0  0
   -2.5216    6.3351   -6.5203 C   0  0  0  0  0  0  0  0  0  0  0  0
   -2.7843    6.9077   -5.1721 C   0  0  0  0  0  0  0  0  0  0  0  0
   -3.5977    7.9578   -4.8838 C   0  0  0  0  0  0  0  0  0  0  0  0
   -3.5764    8.6229   -3.6058 C   0  0  0  0  0  0  0  0  0  0  0  0
   -3.5688    9.1718   -2.5869 N   0  0  0  0  0  0  0  0  0  0  0  0
   -4.4264    8.5893   -5.8768 C   0  0  0  0  0  0  0  0  0  0  0  0
   -5.1004    9.1028   -6.6687 N   0  0  0  0  0  0  0  0  0  0  0  0
    2.9565   -6.4480    3.3233 H   0  0  0  0  0  0  0  0  0  0  0  0
   -3.1346   -6.3235    1.7326 H   0  0  0  0  0  0  0  0  0  0  0  0
   -1.1162  -10.4826    3.5894 H   0  0  0  0  0  0  0  0  0  0  0  0
    1.3416   -5.0991    0.3262 H   0  0  0  0  0  0  0  0  0  0  0  0
    3.3777   -4.3989    4.7702 H   0  0  0  0  0  0  0  0  0  0  0  0
    3.7004   -2.6859    4.5783 H   0  0  0  0  0  0  0  0  0  0  0  0
    1.1409   -2.2711    4.7845 H   0  0  0  0  0  0  0  0  0  0  0  0
    1.8844   -3.0221    6.2537 H   0  0  0  0  0  0  0  0  0  0  0  0
    0.9564   -4.0348    5.0828 H   0  0  0  0  0  0  0  0  0  0  0  0
   -1.1343    7.6223   -0.6976 H   0  0  0  0  0  0  0  0  0  0  0  0
   -0.2817    6.9945    0.7537 H   0  0  0  0  0  0  0  0  0  0  0  0
   -2.3204    5.8274    1.5215 H   0  0  0  0  0  0  0  0  0  0  0  0
   -2.7152    7.5531    1.1700 H   0  0  0  0  0  0  0  0  0  0  0  0
   -3.1951    6.2639   -0.0067 H   0  0  0  0  0  0  0  0  0  0  0  0
    0.4127   -3.5619   -1.0694 H   0  0  0  0  0  0  0  0  0  0  0  0
    0.7755   -2.0927   -1.9186 H   0  0  0  0  0  0  0  0  0  0  0  0
   -1.0169   -0.8886   -0.6680 H   0  0  0  0  0  0  0  0  0  0  0  0
   -1.6904   -2.4980   -1.0974 H   0  0  0  0  0  0  0  0  0  0  0  0
   -1.0831   -2.1906    0.5715 H   0  0  0  0  0  0  0  0  0  0  0  0
    0.4526   -0.1188   -2.5021 H   0  0  0  0  0  0  0  0  0  0  0  0
    1.0791    1.4776   -2.7573 H   0  0  0  0  0  0  0  0  0  0  0  0
    2.8885    0.0666   -3.3551 H   0  0  0  0  0  0  0  0  0  0  0  0
    3.3271    0.8491   -1.7839 H   0  0  0  0  0  0  0  0  0  0  0  0
    2.8006   -0.8746   -1.8306 H   0  0  0  0  0  0  0  0  0  0  0  0
   -2.6731    6.6233   -2.4164 H   0  0  0  0  0  0  0  0  0  0  0  0
    0.0782    4.4129   -7.5886 H   0  0  0  0  0  0  0  0  0  0  0  0
   -4.2678    6.8289   -7.7205 H   0  0  0  0  0  0  0  0  0  0  0  0
  1  2  2  3
  2  3  1  0
  3  4  2  0
  3  5  1  0
  5  6  2  0
  6  7  1  0
  7  8  1  0
  7  9  2  0
  9 10  1  0
  9 11  1  0
 11 12  2  0
 12 13  1  0
 13 14  2  3
 14 15  1  0
 15 16  3  0
 14 17  1  0
 17 18  3  0
  1 19  1  0
 19 20  2  0
 20 21  1  0
 21 22  2  0
 22 23  1  0
 23 24  1  0
 24 25  1  0
 22 26  1  0
 26 27  1  0
 27 28  1  0
 28 29  2  0
 29 30  1  0
 30 31  1  0
 28 32  1  0
 32 33  1  0
 33 34  1  0
 34 35  1  0
 35 36  1  0
 36 37  1  0
 37 38  1  0
 36 39  2  0
 39 40  1  0
 40 41  1  0
 41 42  1  0
 42 43  1  0
 43 44  1  0
 44 45  1  0
 45 46  1  0
 46 47  1  0
 47 48  1  0
 43 49  1  0
 49 50  1  0
 39 51  1  0
 51 52  2  3
 52 53  1  0
 53 54  2  0
 53 55  1  0
 55 56  2  0
 56 57  1  0
 57 58  1  0
 57 59  2  0
 59 60  1  0
 59 61  1  0
 61 62  2  0
 62 63  1  0
 63 64  2  3
 64 65  1  0
 65 66  3  0
 64 67  1  0
 67 68  3  0
 13  2  1  0
 23 19  1  0
 45 26  2  0
 63 52  1  0
 12  5  1  0
 46 21  1  0
 62 55  1  0
 31 27  2  0
 44 32  2  0
 42 33  2  0
 41 35  2  0
  1 69  1  0
  6 70  1  0
 11 71  1  0
 20 72  1  0
 24 73  1  0
 24 74  1  0
 25 75  1  0
 25 76  1  0
 25 77  1  0
 37 78  1  0
 37 79  1  0
 38 80  1  0
 38 81  1  0
 38 82  1  0
 47 83  1  0
 47 84  1  0
 48 85  1  0
 48 86  1  0
 48 87  1  0
 49 88  1  0
 49 89  1  0
 50 90  1  0
 50 91  1  0
 50 92  1  0
 51 93  1  0
 56 94  1  0
 61 95  1  0
M  END

