
     RDKit          3D

136148  0  0  0  0  0  0  0  0999 V2000
   -2.4266   -5.4943   -2.2120 C   0  0  0  0  0  0  0  0  0  0  0  0
   -2.1997   -6.8231   -2.2146 C   0  0  0  0  0  0  0  0  0  0  0  0
   -1.3390   -7.5797   -1.2966 C   0  0  0  0  0  0  0  0  0  0  0  0
   -0.9992   -7.2435   -0.1313 O   0  0  0  0  0  0  0  0  0  0  0  0
   -1.0214   -8.8459   -1.9220 C   0  0  0  0  0  0  0  0  0  0  0  0
   -0.1210   -9.8197   -1.4903 C   0  0  0  0  0  0  0  0  0  0  0  0
    0.0960  -10.9431   -2.3037 C   0  0  0  0  0  0  0  0  0  0  0  0
    1.2397  -12.1675   -1.7697 Cl  0  0  0  0  0  0  0  0  0  0  0  0
   -0.5820  -11.0611   -3.5395 C   0  0  0  0  0  0  0  0  0  0  0  0
   -0.3101  -12.4383   -4.5976 Cl  0  0  0  0  0  0  0  0  0  0  0  0
   -1.4836  -10.0631   -3.9511 C   0  0  0  0  0  0  0  0  0  0  0  0
   -1.7096   -8.9597   -3.1144 C   0  0  0  0  0  0  0  0  0  0  0  0
   -2.5938   -7.7787   -3.2919 C   0  0  0  0  0  0  0  0  0  0  0  0
   -3.7280   -7.7251   -4.0403 C   0  0  0  0  0  0  0  0  0  0  0  0
   -4.1220   -8.7858   -4.9343 C   0  0  0  0  0  0  0  0  0  0  0  0
   -4.4643   -9.6291   -5.6528 N   0  0  0  0  0  0  0  0  0  0  0  0
   -4.7152   -6.6915   -3.8543 C   0  0  0  0  0  0  0  0  0  0  0  0
   -5.5117   -5.8638   -3.6982 N   0  0  0  0  0  0  0  0  0  0  0  0
   -1.9314   -4.5368   -1.2102 C   0  0  0  0  0  0  0  0  0  0  0  0
   -0.6356   -4.4754   -0.6739 C   0  0  0  0  0  0  0  0  0  0  0  0
   -0.4659   -3.3408    0.1240 C   0  0  0  0  0  0  0  0  0  0  0  0
    0.7592   -2.6927    0.7351 C   0  0  0  0  0  0  0  0  0  0  0  0
    1.9305   -2.7214   -0.2543 C   0  0  0  0  0  0  0  0  0  0  0  0
    1.8754   -1.9545   -1.4376 C   0  0  0  0  0  0  0  0  0  0  0  0
    2.9633   -1.9096   -2.3119 C   0  0  0  0  0  0  0  0  0  0  0  0
    4.1222   -2.6426   -2.0462 C   0  0  0  0  0  0  0  0  0  0  0  0
    5.2131   -2.4968   -2.9227 O   0  0  0  0  0  0  0  0  0  0  0  0
    6.4692   -3.1643   -2.8023 C   0  0  0  0  0  0  0  0  0  0  0  0
    6.3741   -4.5843   -3.3470 C   0  0  0  0  0  0  0  0  0  0  0  0
    4.1586   -3.4721   -0.9105 C   0  0  0  0  0  0  0  0  0  0  0  0
    3.0688   -3.5250   -0.0368 C   0  0  0  0  0  0  0  0  0  0  0  0
    1.0913   -3.2704    2.1235 C   0  0  0  0  0  0  0  0  0  0  0  0
    0.4781   -4.4435    2.6234 C   0  0  0  0  0  0  0  0  0  0  0  0
    0.7623   -4.9084    3.9098 C   0  0  0  0  0  0  0  0  0  0  0  0
    1.6690   -4.2168    4.7311 C   0  0  0  0  0  0  0  0  0  0  0  0
    1.9523   -4.6177    6.0463 O   0  0  0  0  0  0  0  0  0  0  0  0
    1.3767   -5.7519    6.6883 C   0  0  0  0  0  0  0  0  0  0  0  0
    1.8359   -5.8000    8.1356 C   0  0  0  0  0  0  0  0  0  0  0  0
    2.3126   -3.0841    4.2291 C   0  0  0  0  0  0  0  0  0  0  0  0
    2.0386   -2.6231    2.9409 C   0  0  0  0  0  0  0  0  0  0  0  0
    0.1958   -1.2777    0.9051 C   0  0  0  0  0  0  0  0  0  0  0  0
   -1.1735   -1.2244    0.6211 C   0  0  0  0  0  0  0  0  0  0  0  0
   -1.5560   -2.5333    0.1717 C   0  0  0  0  0  0  0  0  0  0  0  0
   -2.7809   -3.1198   -0.8052 S   0  0  0  0  0  0  0  0  0  0  0  0
   -1.8917   -0.0224    0.5675 C   0  0  0  0  0  0  0  0  0  0  0  0
   -1.1759    1.1571    0.8307 C   0  0  0  0  0  0  0  0  0  0  0  0
   -1.6819    2.5981    0.7630 C   0  0  0  0  0  0  0  0  0  0  0  0
   -2.5692    2.9937    1.9493 C   0  0  0  0  0  0  0  0  0  0  0  0
   -2.7214    2.1672    3.0849 C   0  0  0  0  0  0  0  0  0  0  0  0
   -3.4731    2.5923    4.1833 C   0  0  0  0  0  0  0  0  0  0  0  0
   -4.0826    3.8579    4.1794 C   0  0  0  0  0  0  0  0  0  0  0  0
   -4.8497    4.3261    5.2564 O   0  0  0  0  0  0  0  0  0  0  0  0
   -4.9969    3.6418    6.4987 C   0  0  0  0  0  0  0  0  0  0  0  0
   -5.9309    4.4283    7.4051 C   0  0  0  0  0  0  0  0  0  0  0  0
   -3.9179    4.6893    3.0678 C   0  0  0  0  0  0  0  0  0  0  0  0
   -3.1618    4.2701    1.9716 C   0  0  0  0  0  0  0  0  0  0  0  0
   -2.3334    2.8432   -0.6053 C   0  0  0  0  0  0  0  0  0  0  0  0
   -1.5505    3.1033   -1.7494 C   0  0  0  0  0  0  0  0  0  0  0  0
   -2.1481    3.3089   -2.9957 C   0  0  0  0  0  0  0  0  0  0  0  0
   -3.5448    3.2241   -3.1367 C   0  0  0  0  0  0  0  0  0  0  0  0
   -4.2027    3.4397   -4.3579 O   0  0  0  0  0  0  0  0  0  0  0  0
   -3.5820    3.8594   -5.5733 C   0  0  0  0  0  0  0  0  0  0  0  0
   -3.2393    5.3448   -5.5267 C   0  0  0  0  0  0  0  0  0  0  0  0
   -4.3189    2.8971   -2.0196 C   0  0  0  0  0  0  0  0  0  0  0  0
   -3.7233    2.6899   -0.7738 C   0  0  0  0  0  0  0  0  0  0  0  0
   -0.3589    3.3152    0.9263 C   0  0  0  0  0  0  0  0  0  0  0  0
    0.6645    2.4567    1.1558 C   0  0  0  0  0  0  0  0  0  0  0  0
    0.1953    1.1045    1.0924 C   0  0  0  0  0  0  0  0  0  0  0  0
    0.9174   -0.0903    1.1140 C   0  0  0  0  0  0  0  0  0  0  0  0
    2.1511    3.2179    1.0368 S   0  0  0  0  0  0  0  0  0  0  0  0
    1.4415    4.7362    0.7195 C   0  0  0  0  0  0  0  0  0  0  0  0
    0.0466    4.6313    0.7058 C   0  0  0  0  0  0  0  0  0  0  0  0
    2.1800    5.9861    0.4925 C   0  0  0  0  0  0  0  0  0  0  0  0
    3.1522    6.1271   -0.4272 C   0  0  0  0  0  0  0  0  0  0  0  0
    3.4206    5.2137   -1.5502 C   0  0  0  0  0  0  0  0  0  0  0  0
    2.9529    4.0551   -1.7097 O   0  0  0  0  0  0  0  0  0  0  0  0
    4.2089    5.9227   -2.5348 C   0  0  0  0  0  0  0  0  0  0  0  0
    4.5913    5.4891   -3.8041 C   0  0  0  0  0  0  0  0  0  0  0  0
    5.2452    6.3957   -4.6489 C   0  0  0  0  0  0  0  0  0  0  0  0
    5.7392    5.8929   -6.2546 Cl  0  0  0  0  0  0  0  0  0  0  0  0
    5.4759    7.7169   -4.2237 C   0  0  0  0  0  0  0  0  0  0  0  0
    5.0776    8.1336   -2.9423 C   0  0  0  0  0  0  0  0  0  0  0  0
    4.4666    7.2071   -2.0849 C   0  0  0  0  0  0  0  0  0  0  0  0
    3.9275    7.3740   -0.7067 C   0  0  0  0  0  0  0  0  0  0  0  0
    4.2910    8.3181    0.1991 C   0  0  0  0  0  0  0  0  0  0  0  0
    3.9093    8.2340    1.5878 C   0  0  0  0  0  0  0  0  0  0  0  0
    3.6126    8.1716    2.7046 N   0  0  0  0  0  0  0  0  0  0  0  0
    5.2041    9.3837   -0.1208 C   0  0  0  0  0  0  0  0  0  0  0  0
    5.9415   10.2418   -0.3633 N   0  0  0  0  0  0  0  0  0  0  0  0
   -3.0077   -5.0533   -3.0054 H   0  0  0  0  0  0  0  0  0  0  0  0
    0.4160   -9.7014   -0.5558 H   0  0  0  0  0  0  0  0  0  0  0  0
   -1.9531  -10.1479   -4.9199 H   0  0  0  0  0  0  0  0  0  0  0  0
    0.1696   -5.1522   -0.9249 H   0  0  0  0  0  0  0  0  0  0  0  0
    0.9963   -1.3684   -1.6744 H   0  0  0  0  0  0  0  0  0  0  0  0
    2.9073   -1.2893   -3.1964 H   0  0  0  0  0  0  0  0  0  0  0  0
    7.2176   -2.6075   -3.4080 H   0  0  0  0  0  0  0  0  0  0  0  0
    6.8273   -3.1595   -1.7478 H   0  0  0  0  0  0  0  0  0  0  0  0
    7.3797   -5.0528   -3.3387 H   0  0  0  0  0  0  0  0  0  0  0  0
    5.9990   -4.5642   -4.3928 H   0  0  0  0  0  0  0  0  0  0  0  0
    5.6861   -5.1972   -2.7281 H   0  0  0  0  0  0  0  0  0  0  0  0
    5.0253   -4.0756   -0.6818 H   0  0  0  0  0  0  0  0  0  0  0  0
    3.1351   -4.1802    0.8214 H   0  0  0  0  0  0  0  0  0  0  0  0
   -0.2297   -5.0078    2.0346 H   0  0  0  0  0  0  0  0  0  0  0  0
    0.2667   -5.8021    4.2594 H   0  0  0  0  0  0  0  0  0  0  0  0
    0.2679   -5.6778    6.6662 H   0  0  0  0  0  0  0  0  0  0  0  0
    1.6981   -6.6784    6.1663 H   0  0  0  0  0  0  0  0  0  0  0  0
    1.4228   -6.7027    8.6316 H   0  0  0  0  0  0  0  0  0  0  0  0
    2.9444   -5.8363    8.1832 H   0  0  0  0  0  0  0  0  0  0  0  0
    1.4755   -4.8985    8.6739 H   0  0  0  0  0  0  0  0  0  0  0  0
    3.0296   -2.5551    4.8440 H   0  0  0  0  0  0  0  0  0  0  0  0
    2.5781   -1.7602    2.5857 H   0  0  0  0  0  0  0  0  0  0  0  0
   -2.9365   -0.0012    0.2894 H   0  0  0  0  0  0  0  0  0  0  0  0
   -2.2550    1.1937    3.1437 H   0  0  0  0  0  0  0  0  0  0  0  0
   -3.5674    1.9278    5.0323 H   0  0  0  0  0  0  0  0  0  0  0  0
   -5.4229    2.6292    6.3273 H   0  0  0  0  0  0  0  0  0  0  0  0
   -4.0012    3.5495    6.9861 H   0  0  0  0  0  0  0  0  0  0  0  0
   -5.9613    3.9582    8.4110 H   0  0  0  0  0  0  0  0  0  0  0  0
   -5.5675    5.4729    7.5057 H   0  0  0  0  0  0  0  0  0  0  0  0
   -6.9536    4.4385    6.9748 H   0  0  0  0  0  0  0  0  0  0  0  0
   -4.3696    5.6737    3.0594 H   0  0  0  0  0  0  0  0  0  0  0  0
   -3.0399    4.9450    1.1356 H   0  0  0  0  0  0  0  0  0  0  0  0
   -0.4726    3.1488   -1.6884 H   0  0  0  0  0  0  0  0  0  0  0  0
   -1.5117    3.5264   -3.8416 H   0  0  0  0  0  0  0  0  0  0  0  0
   -2.6808    3.2478   -5.7880 H   0  0  0  0  0  0  0  0  0  0  0  0
   -4.3015    3.6958   -6.4038 H   0  0  0  0  0  0  0  0  0  0  0  0
   -2.4959    5.5510   -4.7292 H   0  0  0  0  0  0  0  0  0  0  0  0
   -2.8069    5.6582   -6.5014 H   0  0  0  0  0  0  0  0  0  0  0  0
   -4.1563    5.9395   -5.3340 H   0  0  0  0  0  0  0  0  0  0  0  0
   -5.3939    2.8001   -2.1172 H   0  0  0  0  0  0  0  0  0  0  0  0
   -4.3535    2.4137    0.0626 H   0  0  0  0  0  0  0  0  0  0  0  0
    1.9932   -0.0840    1.2178 H   0  0  0  0  0  0  0  0  0  0  0  0
   -0.6261    5.4435    0.4675 H   0  0  0  0  0  0  0  0  0  0  0  0
    1.8448    6.8474    1.0505 H   0  0  0  0  0  0  0  0  0  0  0  0
    4.3709    4.4828   -4.1344 H   0  0  0  0  0  0  0  0  0  0  0  0
    5.9466    8.4270   -4.8924 H   0  0  0  0  0  0  0  0  0  0  0  0
    5.2150    9.1654   -2.6672 H   0  0  0  0  0  0  0  0  0  0  0  0
  1  2  2  3
  2  3  1  0
  3  4  2  0
  3  5  1  0
  5  6  2  0
  6  7  1  0
  7  8  1  0
  7  9  2  0
  9 10  1  0
  9 11  1  0
 11 12  2  0
 12 13  1  0
 13 14  2  3
 14 15  1  0
 15 16  3  0
 14 17  1  0
 17 18  3  0
  1 19  1  0
 19 20  2  0
 20 21  1  0
 21 22  1  0
 22 23  1  0
 23 24  2  0
 24 25  1  0
 25 26  2  0
 26 27  1  0
 27 28  1  0
 28 29  1  0
 26 30  1  0
 30 31  2  0
 22 32  1  0
 32 33  2  0
 33 34  1  0
 34 35  2  0
 35 36  1  0
 36 37  1  0
 37 38  1  0
 35 39  1  0
 39 40  2  0
 22 41  1  0
 41 42  2  0
 42 43  1  0
 43 44  1  0
 42 45  1  0
 45 46  2  0
 46 47  1  0
 47 48  1  0
 48 49  2  0
 49 50  1  0
 50 51  2  0
 51 52  1  0
 52 53  1  0
 53 54  1  0
 51 55  1  0
 55 56  2  0
 47 57  1  0
 57 58  2  0
 58 59  1  0
 59 60  2  0
 60 61  1  0
 61 62  1  0
 62 63  1  0
 60 64  1  0
 64 65  2  0
 47 66  1  0
 66 67  2  0
 67 68  1  0
 68 69  2  0
 67 70  1  0
 70 71  1  0
 71 72  2  0
 71 73  1  0
 73 74  2  3
 74 75  1  0
 75 76  2  0
 75 77  1  0
 77 78  2  0
 78 79  1  0
 79 80  1  0
 79 81  2  0
 81 82  1  0
 82 83  2  0
 83 84  1  0
 84 85  2  3
 85 86  1  0
 86 87  3  0
 85 88  1  0
 88 89  3  0
 13  2  1  0
 44 19  1  0
 68 46  1  0
 84 74  1  0
 12  5  1  0
 43 21  2  0
 56 48  1  0
 65 57  1  0
 72 66  1  0
 83 77  1  0
 31 23  1  0
 40 32  1  0
 69 41  1  0
  1 90  1  0
  6 91  1  0
 11 92  1  0
 20 93  1  0
 24 94  1  0
 25 95  1  0
 28 96  1  0
 28 97  1  0
 29 98  1  0
 29 99  1  0
 29100  1  0
 30101  1  0
 31102  1  0
 33103  1  0
 34104  1  0
 37105  1  0
 37106  1  0
 38107  1  0
 38108  1  0
 38109  1  0
 39110  1  0
 40111  1  0
 45112  1  0
 49113  1  0
 50114  1  0
 53115  1  0
 53116  1  0
 54117  1  0
 54118  1  0
 54119  1  0
 55120  1  0
 56121  1  0
 58122  1  0
 59123  1  0
 62124  1  0
 62125  1  0
 63126  1  0
 63127  1  0
 63128  1  0
 64129  1  0
 65130  1  0
 69131  1  0
 72132  1  0
 73133  1  0
 78134  1  0
 81135  1  0
 82136  1  0
M  END

