
     RDKit          3D

 98108  0  0  0  0  0  0  0  0999 V2000
    3.2079   -5.0411   -6.2885 C   0  0  0  0  0  0  0  0  0  0  0  0
    2.7189   -6.2916   -6.1992 C   0  0  0  0  0  0  0  0  0  0  0  0
    1.6268   -6.7213   -5.3105 C   0  0  0  0  0  0  0  0  0  0  0  0
    1.0194   -6.0075   -4.4674 O   0  0  0  0  0  0  0  0  0  0  0  0
    1.2188   -8.0550   -5.6985 C   0  0  0  0  0  0  0  0  0  0  0  0
    0.1834   -8.8179   -5.1635 C   0  0  0  0  0  0  0  0  0  0  0  0
   -0.1083  -10.0637   -5.7328 C   0  0  0  0  0  0  0  0  0  0  0  0
   -1.4017  -11.0356   -5.0408 Cl  0  0  0  0  0  0  0  0  0  0  0  0
    0.6353  -10.5115   -6.8485 C   0  0  0  0  0  0  0  0  0  0  0  0
    0.3019  -12.0690   -7.5847 Cl  0  0  0  0  0  0  0  0  0  0  0  0
    1.6662   -9.7165   -7.3830 C   0  0  0  0  0  0  0  0  0  0  0  0
    1.9653   -8.4802   -6.7807 C   0  0  0  0  0  0  0  0  0  0  0  0
    2.9900   -7.4461   -7.1205 C   0  0  0  0  0  0  0  0  0  0  0  0
    4.0692   -7.6053   -7.9304 C   0  0  0  0  0  0  0  0  0  0  0  0
    4.3201   -8.8106   -8.6715 C   0  0  0  0  0  0  0  0  0  0  0  0
    4.5469   -9.7748   -9.2678 N   0  0  0  0  0  0  0  0  0  0  0  0
    5.1409   -6.6495   -8.0013 C   0  0  0  0  0  0  0  0  0  0  0  0
    6.0179   -5.8998   -8.0598 N   0  0  0  0  0  0  0  0  0  0  0  0
    3.0977   -4.0311   -5.2234 C   0  0  0  0  0  0  0  0  0  0  0  0
    2.9632   -2.3520   -5.5205 S   0  0  0  0  0  0  0  0  0  0  0  0
    3.0246   -1.9901   -3.8878 C   0  0  0  0  0  0  0  0  0  0  0  0
    2.7652   -0.9658   -3.0288 C   0  0  0  0  0  0  0  0  0  0  0  0
    2.2425    0.6260   -3.0990 S   0  0  0  0  0  0  0  0  0  0  0  0
    1.9593    0.6718   -1.4152 C   0  0  0  0  0  0  0  0  0  0  0  0
    1.5144    1.7910   -0.6945 C   0  0  0  0  0  0  0  0  0  0  0  0
    1.4622    3.0318   -1.3320 O   0  0  0  0  0  0  0  0  0  0  0  0
    2.3387    4.1019   -0.9777 C   0  0  0  0  0  0  0  0  0  0  0  0
    3.7860    3.7662   -1.3168 C   0  0  0  0  0  0  0  0  0  0  0  0
    1.2398    1.6141    0.6784 C   0  0  0  0  0  0  0  0  0  0  0  0
    1.6273    0.4068    1.3102 C   0  0  0  0  0  0  0  0  0  0  0  0
    2.1820   -0.6736    0.6071 C   0  0  0  0  0  0  0  0  0  0  0  0
    2.6590   -1.7787    1.3071 O   0  0  0  0  0  0  0  0  0  0  0  0
    3.8940   -1.7292    2.0200 C   0  0  0  0  0  0  0  0  0  0  0  0
    3.9843   -2.9163    2.9689 C   0  0  0  0  0  0  0  0  0  0  0  0
    2.2750   -0.5641   -0.7944 C   0  0  0  0  0  0  0  0  0  0  0  0
    2.7225   -1.4941   -1.7648 C   0  0  0  0  0  0  0  0  0  0  0  0
    2.9242   -2.8522   -1.7986 N   0  0  0  0  0  0  0  0  0  0  0  0
    3.1077   -3.1042   -3.1233 C   0  0  0  0  0  0  0  0  0  0  0  0
    3.1840   -4.2888   -3.8445 C   0  0  0  0  0  0  0  0  0  0  0  0
    2.6785   -3.8783   -0.7833 C   0  0  0  0  0  0  0  0  0  0  0  0
    1.1868   -4.0068   -0.4676 C   0  0  0  0  0  0  0  0  0  0  0  0
    1.2936    0.4291    2.9837 S   0  0  0  0  0  0  0  0  0  0  0  0
    0.6974    1.9894    2.8968 C   0  0  0  0  0  0  0  0  0  0  0  0
   -0.1048    2.7821    3.6564 C   0  0  0  0  0  0  0  0  0  0  0  0
   -0.9223    2.7401    5.1122 S   0  0  0  0  0  0  0  0  0  0  0  0
   -1.9046    4.0792    4.6910 C   0  0  0  0  0  0  0  0  0  0  0  0
   -1.5833    4.5326    3.3972 C   0  0  0  0  0  0  0  0  0  0  0  0
   -0.5746    3.7474    2.8361 C   0  0  0  0  0  0  0  0  0  0  0  0
   -0.1561    3.5965    1.5488 N   0  0  0  0  0  0  0  0  0  0  0  0
   -0.8797    4.1402    0.3881 C   0  0  0  0  0  0  0  0  0  0  0  0
   -1.9202    3.1486   -0.1256 C   0  0  0  0  0  0  0  0  0  0  0  0
    0.6655    2.4968    1.6227 C   0  0  0  0  0  0  0  0  0  0  0  0
   -2.8290    4.6924    5.6632 C   0  0  0  0  0  0  0  0  0  0  0  0
   -3.8045    5.5916    5.4061 C   0  0  0  0  0  0  0  0  0  0  0  0
   -4.2977    6.5038    6.4348 C   0  0  0  0  0  0  0  0  0  0  0  0
   -4.1955    6.3331    7.6796 O   0  0  0  0  0  0  0  0  0  0  0  0
   -4.8570    7.6698    5.7781 C   0  0  0  0  0  0  0  0  0  0  0  0
   -4.8159    7.4641    4.4082 C   0  0  0  0  0  0  0  0  0  0  0  0
   -5.2072    8.4890    3.5298 C   0  0  0  0  0  0  0  0  0  0  0  0
   -5.6716    9.6954    4.0706 C   0  0  0  0  0  0  0  0  0  0  0  0
   -5.7303    9.8887    5.4664 C   0  0  0  0  0  0  0  0  0  0  0  0
   -6.3742   11.5737    6.1184 Br  0  0  0  0  0  0  0  0  0  0  0  0
   -5.3072    8.8673    6.3410 C   0  0  0  0  0  0  0  0  0  0  0  0
   -5.3195    9.0966    8.0844 Cl  0  0  0  0  0  0  0  0  0  0  0  0
   -4.3324    6.0952    4.1105 C   0  0  0  0  0  0  0  0  0  0  0  0
   -4.7123    5.3300    3.0579 C   0  0  0  0  0  0  0  0  0  0  0  0
   -5.3312    5.8759    1.8810 C   0  0  0  0  0  0  0  0  0  0  0  0
   -5.8212    6.3225    0.9299 N   0  0  0  0  0  0  0  0  0  0  0  0
   -4.6019    3.8952    3.0881 C   0  0  0  0  0  0  0  0  0  0  0  0
   -4.5233    2.7410    3.1027 N   0  0  0  0  0  0  0  0  0  0  0  0
    3.7571   -4.7333   -7.1652 H   0  0  0  0  0  0  0  0  0  0  0  0
   -0.3920   -8.4395   -4.3280 H   0  0  0  0  0  0  0  0  0  0  0  0
    2.1926  -10.0824   -8.2480 H   0  0  0  0  0  0  0  0  0  0  0  0
    2.2568    4.3242    0.1072 H   0  0  0  0  0  0  0  0  0  0  0  0
    2.0293    5.0061   -1.5440 H   0  0  0  0  0  0  0  0  0  0  0  0
    4.1527    2.9493   -0.6706 H   0  0  0  0  0  0  0  0  0  0  0  0
    4.4319    4.6565   -1.1463 H   0  0  0  0  0  0  0  0  0  0  0  0
    3.8755    3.4553   -2.3773 H   0  0  0  0  0  0  0  0  0  0  0  0
    4.7391   -1.7637    1.2896 H   0  0  0  0  0  0  0  0  0  0  0  0
    3.9582   -0.7899    2.6137 H   0  0  0  0  0  0  0  0  0  0  0  0
    3.8748   -3.8654    2.4117 H   0  0  0  0  0  0  0  0  0  0  0  0
    3.1777   -2.8431    3.7333 H   0  0  0  0  0  0  0  0  0  0  0  0
    4.9771   -2.9158    3.4712 H   0  0  0  0  0  0  0  0  0  0  0  0
    3.2744   -5.2748   -3.4110 H   0  0  0  0  0  0  0  0  0  0  0  0
    3.2748   -3.6698    0.1126 H   0  0  0  0  0  0  0  0  0  0  0  0
    3.0406   -4.8655   -1.1493 H   0  0  0  0  0  0  0  0  0  0  0  0
    1.0411   -4.7807    0.3231 H   0  0  0  0  0  0  0  0  0  0  0  0
    0.7787   -3.0346   -0.1064 H   0  0  0  0  0  0  0  0  0  0  0  0
    0.6381   -4.3204   -1.3841 H   0  0  0  0  0  0  0  0  0  0  0  0
   -2.0377    5.3755    2.8963 H   0  0  0  0  0  0  0  0  0  0  0  0
   -0.1869    4.4178   -0.4120 H   0  0  0  0  0  0  0  0  0  0  0  0
   -1.3893    5.0884    0.6616 H   0  0  0  0  0  0  0  0  0  0  0  0
   -2.4803    3.6032   -0.9738 H   0  0  0  0  0  0  0  0  0  0  0  0
   -2.6462    2.8955    0.6815 H   0  0  0  0  0  0  0  0  0  0  0  0
   -1.4208    2.2231   -0.4864 H   0  0  0  0  0  0  0  0  0  0  0  0
   -2.6092    4.4609    6.7036 H   0  0  0  0  0  0  0  0  0  0  0  0
   -5.1216    8.3820    2.4599 H   0  0  0  0  0  0  0  0  0  0  0  0
   -5.9678   10.4933    3.4038 H   0  0  0  0  0  0  0  0  0  0  0  0
  1  2  2  3
  2  3  1  0
  3  4  2  0
  3  5  1  0
  5  6  2  0
  6  7  1  0
  7  8  1  0
  7  9  2  0
  9 10  1  0
  9 11  1  0
 11 12  2  0
 12 13  1  0
 13 14  2  3
 14 15  1  0
 15 16  3  0
 14 17  1  0
 17 18  3  0
  1 19  1  0
 19 20  1  0
 20 21  1  0
 21 22  1  0
 22 23  1  0
 23 24  1  0
 24 25  2  0
 25 26  1  0
 26 27  1  0
 27 28  1  0
 25 29  1  0
 29 30  2  0
 30 31  1  0
 31 32  1  0
 32 33  1  0
 33 34  1  0
 31 35  2  0
 35 36  1  0
 36 37  1  0
 37 38  1  0
 38 39  1  0
 37 40  1  0
 40 41  1  0
 30 42  1  0
 42 43  1  0
 43 44  1  0
 44 45  1  0
 45 46  1  0
 46 47  2  0
 47 48  1  0
 48 49  1  0
 49 50  1  0
 50 51  1  0
 49 52  1  0
 46 53  1  0
 53 54  2  3
 54 55  1  0
 55 56  2  0
 55 57  1  0
 57 58  2  0
 58 59  1  0
 59 60  2  0
 60 61  1  0
 61 62  1  0
 61 63  2  0
 63 64  1  0
 58 65  1  0
 65 66  2  3
 66 67  1  0
 67 68  3  0
 66 69  1  0
 69 70  3  0
 13  2  1  0
 39 19  2  0
 52 43  2  0
 65 54  1  0
 12  5  1  0
 38 21  2  0
 48 44  2  0
 63 57  1  0
 36 22  2  0
 35 24  1  0
 52 29  1  0
  1 71  1  0
  6 72  1  0
 11 73  1  0
 27 74  1  0
 27 75  1  0
 28 76  1  0
 28 77  1  0
 28 78  1  0
 33 79  1  0
 33 80  1  0
 34 81  1  0
 34 82  1  0
 34 83  1  0
 39 84  1  0
 40 85  1  0
 40 86  1  0
 41 87  1  0
 41 88  1  0
 41 89  1  0
 47 90  1  0
 50 91  1  0
 50 92  1  0
 51 93  1  0
 51 94  1  0
 51 95  1  0
 53 96  1  0
 59 97  1  0
 60 98  1  0
M  END

