
     RDKit          3D

114129  0  0  0  0  0  0  0  0999 V2000
   -3.0367   -0.3559   -8.4887 C   0  0  0  0  0  0  0  0  0  0  0  0
   -4.2487   -0.9492   -8.5386 C   0  0  0  0  0  0  0  0  0  0  0  0
   -4.7456   -1.9544   -7.5849 C   0  0  0  0  0  0  0  0  0  0  0  0
   -4.0951   -2.5068   -6.6613 O   0  0  0  0  0  0  0  0  0  0  0  0
   -6.1159   -2.2620   -7.9048 C   0  0  0  0  0  0  0  0  0  0  0  0
   -6.9857   -3.1053   -7.2121 C   0  0  0  0  0  0  0  0  0  0  0  0
   -8.3106   -3.2216   -7.6569 C   0  0  0  0  0  0  0  0  0  0  0  0
   -9.4126   -4.2760   -6.7797 Cl  0  0  0  0  0  0  0  0  0  0  0  0
   -8.7374   -2.4868   -8.7827 C   0  0  0  0  0  0  0  0  0  0  0  0
  -10.3949   -2.5939   -9.3567 Cl  0  0  0  0  0  0  0  0  0  0  0  0
   -7.8416   -1.6380   -9.4595 C   0  0  0  0  0  0  0  0  0  0  0  0
   -6.5077   -1.5525   -9.0240 C   0  0  0  0  0  0  0  0  0  0  0  0
   -5.3560   -0.7438   -9.5391 C   0  0  0  0  0  0  0  0  0  0  0  0
   -5.3047   -0.0800  -10.7298 C   0  0  0  0  0  0  0  0  0  0  0  0
   -4.1455    0.6306  -11.1965 C   0  0  0  0  0  0  0  0  0  0  0  0
   -3.2263    1.2109  -11.5993 N   0  0  0  0  0  0  0  0  0  0  0  0
   -6.3806   -0.1097  -11.6858 C   0  0  0  0  0  0  0  0  0  0  0  0
   -7.2315   -0.1242  -12.4721 N   0  0  0  0  0  0  0  0  0  0  0  0
   -2.0388   -0.6243   -7.4412 C   0  0  0  0  0  0  0  0  0  0  0  0
   -0.4320   -1.1188   -7.7689 S   0  0  0  0  0  0  0  0  0  0  0  0
   -0.0702   -1.2302   -6.1405 C   0  0  0  0  0  0  0  0  0  0  0  0
    0.9776   -1.4641   -5.3111 C   0  0  0  0  0  0  0  0  0  0  0  0
    2.6526   -1.6759   -5.4424 S   0  0  0  0  0  0  0  0  0  0  0  0
    2.7499   -1.6373   -3.7469 C   0  0  0  0  0  0  0  0  0  0  0  0
    3.7357   -1.6518   -2.8048 C   0  0  0  0  0  0  0  0  0  0  0  0
    5.1116   -1.4209   -2.9303 C   0  0  0  0  0  0  0  0  0  0  0  0
    5.8711   -1.1506   -1.7527 C   0  0  0  0  0  0  0  0  0  0  0  0
    7.1809   -0.8411   -1.9184 N   0  0  0  0  0  0  0  0  0  0  0  0
    7.2748   -0.9206   -3.5709 S   0  0  0  0  0  0  0  0  0  0  0  0
    5.7608   -1.3212   -4.1152 N   0  0  0  0  0  0  0  0  0  0  0  0
    5.2337   -1.2308   -0.5127 C   0  0  0  0  0  0  0  0  0  0  0  0
    5.6697   -0.9694    0.7608 C   0  0  0  0  0  0  0  0  0  0  0  0
    6.8261    0.0454    1.4810 S   0  0  0  0  0  0  0  0  0  0  0  0
    5.9056    0.1404    2.9212 C   0  0  0  0  0  0  0  0  0  0  0  0
    5.9096    1.0626    3.9714 C   0  0  0  0  0  0  0  0  0  0  0  0
    7.0815    1.9483    4.3048 C   0  0  0  0  0  0  0  0  0  0  0  0
    6.9979    3.3044    3.6112 C   0  0  0  0  0  0  0  0  0  0  0  0
    4.6483    1.1006    4.6048 C   0  0  0  0  0  0  0  0  0  0  0  0
    3.6156   -0.0722    3.9231 S   0  0  0  0  0  0  0  0  0  0  0  0
    4.7404   -0.5757    2.8013 C   0  0  0  0  0  0  0  0  0  0  0  0
    4.6139   -1.1985    1.5785 C   0  0  0  0  0  0  0  0  0  0  0  0
    3.5091   -1.6240    0.9278 N   0  0  0  0  0  0  0  0  0  0  0  0
    3.8728   -1.5608   -0.3878 C   0  0  0  0  0  0  0  0  0  0  0  0
    3.0748   -1.6284   -1.5678 C   0  0  0  0  0  0  0  0  0  0  0  0
    1.7178   -1.4582   -1.7470 N   0  0  0  0  0  0  0  0  0  0  0  0
    1.5606   -1.4433   -3.1034 C   0  0  0  0  0  0  0  0  0  0  0  0
    0.5112   -1.2707   -4.0300 C   0  0  0  0  0  0  0  0  0  0  0  0
   -0.7915   -0.8262   -4.0332 N   0  0  0  0  0  0  0  0  0  0  0  0
   -1.1035   -0.8540   -5.3590 C   0  0  0  0  0  0  0  0  0  0  0  0
   -2.2446   -0.4650   -6.0596 C   0  0  0  0  0  0  0  0  0  0  0  0
   -1.5220   -0.0164   -3.0538 C   0  0  0  0  0  0  0  0  0  0  0  0
   -0.8924    1.3706   -2.9229 C   0  0  0  0  0  0  0  0  0  0  0  0
    0.6879   -1.1704   -0.7481 C   0  0  0  0  0  0  0  0  0  0  0  0
   -0.3364   -2.3091   -0.6699 C   0  0  0  0  0  0  0  0  0  0  0  0
    2.5585   -2.5725    1.5277 C   0  0  0  0  0  0  0  0  0  0  0  0
    3.2727   -3.7163    2.2577 C   0  0  0  0  0  0  0  0  0  0  0  0
    4.2292    2.0658    5.6349 C   0  0  0  0  0  0  0  0  0  0  0  0
    2.9931    2.5964    5.7193 C   0  0  0  0  0  0  0  0  0  0  0  0
    2.4429    3.1117    6.9754 C   0  0  0  0  0  0  0  0  0  0  0  0
    3.1042    3.3758    8.0151 O   0  0  0  0  0  0  0  0  0  0  0  0
    0.9989    3.1703    6.8633 C   0  0  0  0  0  0  0  0  0  0  0  0
    0.0693    3.5479    7.8629 C   0  0  0  0  0  0  0  0  0  0  0  0
   -1.2518    3.4887    7.4478 C   0  0  0  0  0  0  0  0  0  0  0  0
   -1.6399    3.0557    6.1394 C   0  0  0  0  0  0  0  0  0  0  0  0
   -0.7389    2.6540    5.1711 C   0  0  0  0  0  0  0  0  0  0  0  0
    0.6264    2.7639    5.5539 C   0  0  0  0  0  0  0  0  0  0  0  0
    1.8549    2.5412    4.7431 C   0  0  0  0  0  0  0  0  0  0  0  0
    1.9385    2.7090    3.3956 C   0  0  0  0  0  0  0  0  0  0  0  0
    3.1847    2.9744    2.7286 C   0  0  0  0  0  0  0  0  0  0  0  0
    4.1754    3.1996    2.1708 N   0  0  0  0  0  0  0  0  0  0  0  0
    0.7778    2.8256    2.5496 C   0  0  0  0  0  0  0  0  0  0  0  0
   -0.1497    2.9329    1.8676 N   0  0  0  0  0  0  0  0  0  0  0  0
   -3.0843    3.2868    6.4677 C   0  0  0  0  0  0  0  0  0  0  0  0
   -3.9848    2.0452    6.7364 C   0  0  0  0  0  0  0  0  0  0  0  0
   -3.1636    0.9300    7.3462 C   0  0  0  0  0  0  0  0  0  0  0  0
   -2.8124    1.3351    8.5663 C   0  0  0  0  0  0  0  0  0  0  0  0
   -3.4061    2.7111    8.7484 C   0  0  0  0  0  0  0  0  0  0  0  0
   -4.7070    2.5190    7.9823 C   0  0  0  0  0  0  0  0  0  0  0  0
   -2.6908    3.7308    7.8081 C   0  0  0  0  0  0  0  0  0  0  0  0
   -2.7105    0.3263   -9.2449 H   0  0  0  0  0  0  0  0  0  0  0  0
   -6.6462   -3.6491   -6.3379 H   0  0  0  0  0  0  0  0  0  0  0  0
   -8.2164   -1.0591  -10.2828 H   0  0  0  0  0  0  0  0  0  0  0  0
    7.1353    2.1047    5.4062 H   0  0  0  0  0  0  0  0  0  0  0  0
    8.0272    1.4453    3.9974 H   0  0  0  0  0  0  0  0  0  0  0  0
    7.9088    3.8962    3.8447 H   0  0  0  0  0  0  0  0  0  0  0  0
    6.1136    3.8717    3.9718 H   0  0  0  0  0  0  0  0  0  0  0  0
    6.9399    3.1718    2.5082 H   0  0  0  0  0  0  0  0  0  0  0  0
   -3.1638   -0.1061   -5.6111 H   0  0  0  0  0  0  0  0  0  0  0  0
   -2.5778    0.1139   -3.3747 H   0  0  0  0  0  0  0  0  0  0  0  0
   -1.6010   -0.5228   -2.0834 H   0  0  0  0  0  0  0  0  0  0  0  0
    0.2018    1.2924   -2.7851 H   0  0  0  0  0  0  0  0  0  0  0  0
   -1.0958    1.9682   -3.8375 H   0  0  0  0  0  0  0  0  0  0  0  0
   -1.3253    1.8928   -2.0445 H   0  0  0  0  0  0  0  0  0  0  0  0
    1.1230   -0.9620    0.2406 H   0  0  0  0  0  0  0  0  0  0  0  0
    0.2065   -0.2108   -0.9866 H   0  0  0  0  0  0  0  0  0  0  0  0
    0.1136   -3.2531   -0.3112 H   0  0  0  0  0  0  0  0  0  0  0  0
   -0.7626   -2.5313   -1.6690 H   0  0  0  0  0  0  0  0  0  0  0  0
   -1.1593   -2.0264    0.0235 H   0  0  0  0  0  0  0  0  0  0  0  0
    1.9613   -3.0473    0.7363 H   0  0  0  0  0  0  0  0  0  0  0  0
    1.8902   -2.0402    2.2354 H   0  0  0  0  0  0  0  0  0  0  0  0
    3.9912   -4.2127    1.5691 H   0  0  0  0  0  0  0  0  0  0  0  0
    2.5235   -4.4642    2.5980 H   0  0  0  0  0  0  0  0  0  0  0  0
    3.8152   -3.3320    3.1455 H   0  0  0  0  0  0  0  0  0  0  0  0
    4.9301    2.2560    6.4366 H   0  0  0  0  0  0  0  0  0  0  0  0
    0.3620    3.8742    8.8506 H   0  0  0  0  0  0  0  0  0  0  0  0
   -1.0852    2.2827    4.2204 H   0  0  0  0  0  0  0  0  0  0  0  0
   -3.5616    4.0822    5.8551 H   0  0  0  0  0  0  0  0  0  0  0  0
   -4.6372    1.7404    5.8885 H   0  0  0  0  0  0  0  0  0  0  0  0
   -2.9749   -0.0517    6.9292 H   0  0  0  0  0  0  0  0  0  0  0  0
   -2.2875    0.7397    9.3061 H   0  0  0  0  0  0  0  0  0  0  0  0
   -3.5229    3.0378    9.8030 H   0  0  0  0  0  0  0  0  0  0  0  0
   -5.2804    3.4646    7.8358 H   0  0  0  0  0  0  0  0  0  0  0  0
   -5.3768    1.7420    8.4247 H   0  0  0  0  0  0  0  0  0  0  0  0
   -2.9312    4.7972    8.0026 H   0  0  0  0  0  0  0  0  0  0  0  0
  1  2  2  3
  2  3  1  0
  3  4  2  0
  3  5  1  0
  5  6  2  0
  6  7  1  0
  7  8  1  0
  7  9  2  0
  9 10  1  0
  9 11  1  0
 11 12  2  0
 12 13  1  0
 13 14  2  3
 14 15  1  0
 15 16  3  0
 14 17  1  0
 17 18  3  0
  1 19  1  0
 19 20  1  0
 20 21  1  0
 21 22  1  0
 22 23  1  0
 23 24  1  0
 24 25  1  0
 25 26  1  0
 26 27  1  0
 27 28  2  0
 28 29  1  0
 29 30  1  0
 27 31  1  0
 31 32  1  0
 32 33  1  0
 33 34  1  0
 34 35  1  0
 35 36  1  0
 36 37  1  0
 35 38  2  0
 38 39  1  0
 39 40  1  0
 40 41  1  0
 41 42  1  0
 42 43  1  0
 43 44  1  0
 44 45  1  0
 45 46  1  0
 46 47  1  0
 47 48  1  0
 48 49  1  0
 49 50  1  0
 48 51  1  0
 51 52  1  0
 45 53  1  0
 53 54  1  0
 42 55  1  0
 55 56  1  0
 38 57  1  0
 57 58  2  3
 58 59  1  0
 59 60  2  0
 59 61  1  0
 61 62  2  0
 62 63  1  0
 63 64  2  0
 64 65  1  0
 65 66  2  0
 66 67  1  0
 67 68  2  3
 68 69  1  0
 69 70  3  0
 68 71  1  0
 71 72  3  0
 64 73  1  0
 73 74  1  0
 74 75  1  0
 75 76  2  0
 76 77  1  0
 77 78  1  0
 77 79  1  0
 13  2  1  0
 50 19  2  0
 67 58  1  0
 79 73  1  0
 12  5  1  0
 49 21  2  0
 66 61  1  0
 78 74  1  0
 47 22  2  0
 79 63  1  0
 46 24  2  0
 44 25  2  0
 30 26  2  0
 43 31  2  0
 41 32  2  0
 40 34  2  0
  1 80  1  0
  6 81  1  0
 11 82  1  0
 36 83  1  0
 36 84  1  0
 37 85  1  0
 37 86  1  0
 37 87  1  0
 50 88  1  0
 51 89  1  0
 51 90  1  0
 52 91  1  0
 52 92  1  0
 52 93  1  0
 53 94  1  0
 53 95  1  0
 54 96  1  0
 54 97  1  0
 54 98  1  0
 55 99  1  0
 55100  1  0
 56101  1  0
 56102  1  0
 56103  1  0
 57104  1  0
 62105  1  0
 65106  1  0
 73107  1  0
 74108  1  0
 75109  1  0
 76110  1  0
 77111  1  0
 78112  1  0
 78113  1  0
 79114  1  0
M  END

