
     RDKit          3D

127142  0  0  0  0  0  0  0  0999 V2000
   -6.6631   -3.3915   -2.1460 C   0  0  0  0  0  0  0  0  0  0  0  0
   -6.5300   -3.4082   -0.8023 C   0  0  0  0  0  0  0  0  0  0  0  0
   -5.4530   -2.7425   -0.0566 C   0  0  0  0  0  0  0  0  0  0  0  0
   -4.3406   -2.3680   -0.5162 O   0  0  0  0  0  0  0  0  0  0  0  0
   -5.8692   -2.5951    1.3184 C   0  0  0  0  0  0  0  0  0  0  0  0
   -5.1703   -1.9887    2.3601 C   0  0  0  0  0  0  0  0  0  0  0  0
   -5.7467   -1.9754    3.6381 C   0  0  0  0  0  0  0  0  0  0  0  0
   -4.8662   -1.2141    4.9567 Cl  0  0  0  0  0  0  0  0  0  0  0  0
   -7.0080   -2.5771    3.8479 C   0  0  0  0  0  0  0  0  0  0  0  0
   -7.7515   -2.5857    5.4411 Cl  0  0  0  0  0  0  0  0  0  0  0  0
   -7.6872   -3.1884    2.7797 C   0  0  0  0  0  0  0  0  0  0  0  0
   -7.1068   -3.1855    1.4987 C   0  0  0  0  0  0  0  0  0  0  0  0
   -7.5673   -3.7904    0.2092 C   0  0  0  0  0  0  0  0  0  0  0  0
   -8.6496   -4.5846    0.0128 C   0  0  0  0  0  0  0  0  0  0  0  0
   -9.7320   -4.6631    0.9571 C   0  0  0  0  0  0  0  0  0  0  0  0
  -10.6226   -4.7096    1.7000 N   0  0  0  0  0  0  0  0  0  0  0  0
   -8.8089   -5.3804   -1.1773 C   0  0  0  0  0  0  0  0  0  0  0  0
   -8.9338   -6.0194   -2.1322 N   0  0  0  0  0  0  0  0  0  0  0  0
   -5.7429   -2.6407   -3.0060 C   0  0  0  0  0  0  0  0  0  0  0  0
   -5.7304   -1.2451   -3.0639 C   0  0  0  0  0  0  0  0  0  0  0  0
   -4.5670   -0.7846   -3.6603 C   0  0  0  0  0  0  0  0  0  0  0  0
   -3.8017    0.7151   -3.5458 S   0  0  0  0  0  0  0  0  0  0  0  0
   -2.3448    0.0823   -4.1397 C   0  0  0  0  0  0  0  0  0  0  0  0
   -0.9792    0.4442   -3.8677 C   0  0  0  0  0  0  0  0  0  0  0  0
   -0.5201    1.5683   -3.1748 C   0  0  0  0  0  0  0  0  0  0  0  0
    0.8059    1.5551   -2.7037 C   0  0  0  0  0  0  0  0  0  0  0  0
    1.4149    2.4966   -1.6512 C   0  0  0  0  0  0  0  0  0  0  0  0
    0.4510    2.5959   -0.4571 C   0  0  0  0  0  0  0  0  0  0  0  0
   -0.0080    1.4124    0.1680 C   0  0  0  0  0  0  0  0  0  0  0  0
   -0.9317    1.4628    1.2153 C   0  0  0  0  0  0  0  0  0  0  0  0
   -1.4096    2.6902    1.6682 C   0  0  0  0  0  0  0  0  0  0  0  0
   -0.9673    3.8726    1.0729 C   0  0  0  0  0  0  0  0  0  0  0  0
   -0.0456    3.8304    0.0207 C   0  0  0  0  0  0  0  0  0  0  0  0
    1.7890    3.8409   -2.3114 C   0  0  0  0  0  0  0  0  0  0  0  0
    3.1024    4.3664   -2.2518 C   0  0  0  0  0  0  0  0  0  0  0  0
    3.4164    5.5878   -2.8534 C   0  0  0  0  0  0  0  0  0  0  0  0
    2.4348    6.3084   -3.5325 C   0  0  0  0  0  0  0  0  0  0  0  0
    1.1339    5.8170   -3.6006 C   0  0  0  0  0  0  0  0  0  0  0  0
    0.8105    4.6018   -2.9909 C   0  0  0  0  0  0  0  0  0  0  0  0
    2.6445    1.6696   -1.2867 C   0  0  0  0  0  0  0  0  0  0  0  0
    2.7427    0.5297   -2.0566 C   0  0  0  0  0  0  0  0  0  0  0  0
    1.6034    0.4255   -2.9214 C   0  0  0  0  0  0  0  0  0  0  0  0
    1.1265   -0.7241   -3.5658 C   0  0  0  0  0  0  0  0  0  0  0  0
   -0.1982   -0.7034   -4.0281 C   0  0  0  0  0  0  0  0  0  0  0  0
   -1.0453   -1.9154   -4.4187 C   0  0  0  0  0  0  0  0  0  0  0  0
   -0.8633   -3.0128   -3.3608 C   0  0  0  0  0  0  0  0  0  0  0  0
   -1.3343   -2.8162   -2.0426 C   0  0  0  0  0  0  0  0  0  0  0  0
   -1.1220   -3.7819   -1.0527 C   0  0  0  0  0  0  0  0  0  0  0  0
   -0.4068   -4.9444   -1.3509 C   0  0  0  0  0  0  0  0  0  0  0  0
    0.1122   -5.1326   -2.6326 C   0  0  0  0  0  0  0  0  0  0  0  0
   -0.0996   -4.1725   -3.6260 C   0  0  0  0  0  0  0  0  0  0  0  0
   -0.8090   -2.3917   -5.8586 C   0  0  0  0  0  0  0  0  0  0  0  0
    0.1723   -1.8179   -6.7010 C   0  0  0  0  0  0  0  0  0  0  0  0
    0.3073   -2.2414   -8.0298 C   0  0  0  0  0  0  0  0  0  0  0  0
   -0.5188   -3.2472   -8.5327 C   0  0  0  0  0  0  0  0  0  0  0  0
   -1.4846   -3.8316   -7.7139 C   0  0  0  0  0  0  0  0  0  0  0  0
   -1.6264   -3.4142   -6.3881 C   0  0  0  0  0  0  0  0  0  0  0  0
   -2.4183   -1.2701   -4.3637 C   0  0  0  0  0  0  0  0  0  0  0  0
   -3.6948   -1.7546   -4.0770 C   0  0  0  0  0  0  0  0  0  0  0  0
   -4.3084   -3.2694   -3.6746 S   0  0  0  0  0  0  0  0  0  0  0  0
    3.7739   -0.6588   -1.3991 S   0  0  0  0  0  0  0  0  0  0  0  0
    4.1945    0.3984   -0.1575 C   0  0  0  0  0  0  0  0  0  0  0  0
    4.8184    0.3483    1.0517 C   0  0  0  0  0  0  0  0  0  0  0  0
    4.5080    1.5025    1.6926 C   0  0  0  0  0  0  0  0  0  0  0  0
    3.6871    2.3017    0.9590 N   0  0  0  0  0  0  0  0  0  0  0  0
    3.1666    3.6182    1.3288 C   0  0  0  0  0  0  0  0  0  0  0  0
    2.1905    3.5220    2.5001 C   0  0  0  0  0  0  0  0  0  0  0  0
    3.5095    1.5834   -0.1886 C   0  0  0  0  0  0  0  0  0  0  0  0
    4.9317    1.5598    3.0160 C   0  0  0  0  0  0  0  0  0  0  0  0
    5.5506    0.3478    3.3757 C   0  0  0  0  0  0  0  0  0  0  0  0
    5.5978   -0.7411    2.0550 S   0  0  0  0  0  0  0  0  0  0  0  0
    6.0727    0.0307    4.7136 C   0  0  0  0  0  0  0  0  0  0  0  0
    5.3532    0.1580    5.8452 C   0  0  0  0  0  0  0  0  0  0  0  0
    3.8902    0.2956    5.9141 C   0  0  0  0  0  0  0  0  0  0  0  0
    3.1039    0.4847    4.9487 O   0  0  0  0  0  0  0  0  0  0  0  0
    3.4688    0.0377    7.2728 C   0  0  0  0  0  0  0  0  0  0  0  0
    2.1652   -0.0434    7.7632 C   0  0  0  0  0  0  0  0  0  0  0  0
    1.9666   -0.3768    9.1177 C   0  0  0  0  0  0  0  0  0  0  0  0
    0.5719   -0.5260    9.6712 C   0  0  0  0  0  0  0  0  0  0  0  0
    0.5420   -0.1887   11.0143 F   0  0  0  0  0  0  0  0  0  0  0  0
   -0.3124    0.2938    8.9962 F   0  0  0  0  0  0  0  0  0  0  0  0
    0.1658   -1.8404    9.5273 F   0  0  0  0  0  0  0  0  0  0  0  0
    3.0890   -0.6777    9.9236 C   0  0  0  0  0  0  0  0  0  0  0  0
    4.3907   -0.6092    9.4021 C   0  0  0  0  0  0  0  0  0  0  0  0
    4.5745   -0.2275    8.0633 C   0  0  0  0  0  0  0  0  0  0  0  0
    5.8183   -0.0970    7.2470 C   0  0  0  0  0  0  0  0  0  0  0  0
    7.0938   -0.0133    7.7102 C   0  0  0  0  0  0  0  0  0  0  0  0
    8.2005    0.3533    6.8625 C   0  0  0  0  0  0  0  0  0  0  0  0
    9.0953    0.6484    6.1881 N   0  0  0  0  0  0  0  0  0  0  0  0
    7.4301   -0.1585    9.1029 C   0  0  0  0  0  0  0  0  0  0  0  0
    7.7224   -0.2679   10.2188 N   0  0  0  0  0  0  0  0  0  0  0  0
   -7.5539   -3.7607   -2.6235 H   0  0  0  0  0  0  0  0  0  0  0  0
   -4.1992   -1.5410    2.1863 H   0  0  0  0  0  0  0  0  0  0  0  0
   -8.6368   -3.6520    2.9799 H   0  0  0  0  0  0  0  0  0  0  0  0
   -6.4489   -0.6080   -2.5639 H   0  0  0  0  0  0  0  0  0  0  0  0
   -1.2172    2.3400   -2.8847 H   0  0  0  0  0  0  0  0  0  0  0  0
    0.3416    0.4425   -0.1657 H   0  0  0  0  0  0  0  0  0  0  0  0
   -1.2727    0.5449    1.6772 H   0  0  0  0  0  0  0  0  0  0  0  0
   -2.1159    2.7268    2.4865 H   0  0  0  0  0  0  0  0  0  0  0  0
   -1.3268    4.8278    1.4344 H   0  0  0  0  0  0  0  0  0  0  0  0
    0.2832    4.7730   -0.3935 H   0  0  0  0  0  0  0  0  0  0  0  0
    3.8973    3.8458   -1.7377 H   0  0  0  0  0  0  0  0  0  0  0  0
    4.4269    5.9761   -2.7934 H   0  0  0  0  0  0  0  0  0  0  0  0
    2.6824    7.2505   -4.0059 H   0  0  0  0  0  0  0  0  0  0  0  0
    0.3687    6.3816   -4.1204 H   0  0  0  0  0  0  0  0  0  0  0  0
   -0.2160    4.2843   -3.0322 H   0  0  0  0  0  0  0  0  0  0  0  0
    1.7130   -1.6333   -3.5902 H   0  0  0  0  0  0  0  0  0  0  0  0
   -1.8647   -1.9122   -1.7745 H   0  0  0  0  0  0  0  0  0  0  0  0
   -1.5054   -3.6253   -0.0526 H   0  0  0  0  0  0  0  0  0  0  0  0
   -0.2419   -5.6884   -0.5835 H   0  0  0  0  0  0  0  0  0  0  0  0
    0.6828   -6.0241   -2.8575 H   0  0  0  0  0  0  0  0  0  0  0  0
    0.3498   -4.3402   -4.5961 H   0  0  0  0  0  0  0  0  0  0  0  0
    0.8306   -1.0371   -6.3510 H   0  0  0  0  0  0  0  0  0  0  0  0
    1.0634   -1.7963   -8.6627 H   0  0  0  0  0  0  0  0  0  0  0  0
   -0.4097   -3.5739   -9.5587 H   0  0  0  0  0  0  0  0  0  0  0  0
   -2.1239   -4.6116   -8.1051 H   0  0  0  0  0  0  0  0  0  0  0  0
   -2.3846   -3.8813   -5.7757 H   0  0  0  0  0  0  0  0  0  0  0  0
    2.6631    4.0873    0.4636 H   0  0  0  0  0  0  0  0  0  0  0  0
    4.0134    4.2821    1.6108 H   0  0  0  0  0  0  0  0  0  0  0  0
    1.5890    4.4523    2.5592 H   0  0  0  0  0  0  0  0  0  0  0  0
    2.7352    3.4051    3.4555 H   0  0  0  0  0  0  0  0  0  0  0  0
    1.5115    2.6597    2.3698 H   0  0  0  0  0  0  0  0  0  0  0  0
    4.7730    2.3893    3.6913 H   0  0  0  0  0  0  0  0  0  0  0  0
    7.0599   -0.3989    4.7446 H   0  0  0  0  0  0  0  0  0  0  0  0
    1.3268    0.1343    7.0987 H   0  0  0  0  0  0  0  0  0  0  0  0
    2.9554   -0.9848   10.9518 H   0  0  0  0  0  0  0  0  0  0  0  0
    5.2084   -0.8903   10.0414 H   0  0  0  0  0  0  0  0  0  0  0  0
  1  2  2  3
  2  3  1  0
  3  4  2  0
  3  5  1  0
  5  6  2  0
  6  7  1  0
  7  8  1  0
  7  9  2  0
  9 10  1  0
  9 11  1  0
 11 12  2  0
 12 13  1  0
 13 14  2  3
 14 15  1  0
 15 16  3  0
 14 17  1  0
 17 18  3  0
  1 19  1  0
 19 20  2  0
 20 21  1  0
 21 22  1  0
 22 23  1  0
 23 24  1  0
 24 25  2  0
 25 26  1  0
 26 27  1  0
 27 28  1  0
 28 29  2  0
 29 30  1  0
 30 31  2  0
 31 32  1  0
 32 33  2  0
 27 34  1  0
 34 35  2  0
 35 36  1  0
 36 37  2  0
 37 38  1  0
 38 39  2  0
 27 40  1  0
 40 41  2  0
 41 42  1  0
 42 43  1  0
 43 44  2  0
 44 45  1  0
 45 46  1  0
 46 47  2  0
 47 48  1  0
 48 49  2  0
 49 50  1  0
 50 51  2  0
 45 52  1  0
 52 53  2  0
 53 54  1  0
 54 55  2  0
 55 56  1  0
 56 57  2  0
 45 58  1  0
 58 59  1  0
 59 60  1  0
 41 61  1  0
 61 62  1  0
 62 63  1  0
 63 64  2  0
 64 65  1  0
 65 66  1  0
 66 67  1  0
 65 68  1  0
 64 69  1  0
 69 70  2  0
 70 71  1  0
 70 72  1  0
 72 73  2  3
 73 74  1  0
 74 75  2  0
 74 76  1  0
 76 77  2  0
 77 78  1  0
 78 79  1  0
 79 80  1  0
 79 81  1  0
 79 82  1  0
 78 83  2  0
 83 84  1  0
 84 85  2  0
 85 86  1  0
 86 87  2  3
 87 88  1  0
 88 89  3  0
 87 90  1  0
 90 91  3  0
 13  2  1  0
 60 19  1  0
 68 62  2  0
 86 73  1  0
 12  5  1  0
 59 21  2  0
 71 63  1  0
 85 76  1  0
 58 23  2  0
 44 24  1  0
 51 46  1  0
 57 52  1  0
 42 26  2  0
 33 28  1  0
 39 34  1  0
 68 40  1  0
  1 92  1  0
  6 93  1  0
 11 94  1  0
 20 95  1  0
 25 96  1  0
 29 97  1  0
 30 98  1  0
 31 99  1  0
 32100  1  0
 33101  1  0
 35102  1  0
 36103  1  0
 37104  1  0
 38105  1  0
 39106  1  0
 43107  1  0
 47108  1  0
 48109  1  0
 49110  1  0
 50111  1  0
 51112  1  0
 53113  1  0
 54114  1  0
 55115  1  0
 56116  1  0
 57117  1  0
 66118  1  0
 66119  1  0
 67120  1  0
 67121  1  0
 67122  1  0
 69123  1  0
 72124  1  0
 77125  1  0
 83126  1  0
 84127  1  0
M  END

