
     RDKit          3D

158173  0  0  0  0  0  0  0  0999 V2000
    3.4899   -5.8883    6.5064 C   0  0  0  0  0  0  0  0  0  0  0  0
    4.8108   -6.1319    6.3583 C   0  0  0  0  0  0  0  0  0  0  0  0
    5.5348   -6.1055    5.0874 C   0  0  0  0  0  0  0  0  0  0  0  0
    5.0550   -5.8097    3.9519 O   0  0  0  0  0  0  0  0  0  0  0  0
    6.8653   -6.6231    5.2982 C   0  0  0  0  0  0  0  0  0  0  0  0
    7.8908   -6.7462    4.3628 C   0  0  0  0  0  0  0  0  0  0  0  0
    9.1451   -7.2057    4.7875 C   0  0  0  0  0  0  0  0  0  0  0  0
   10.4490   -7.3143    3.6157 Cl  0  0  0  0  0  0  0  0  0  0  0  0
    9.3484   -7.5304    6.1511 C   0  0  0  0  0  0  0  0  0  0  0  0
   10.9250   -8.0441    6.7514 Cl  0  0  0  0  0  0  0  0  0  0  0  0
    8.2925   -7.4087    7.0719 C   0  0  0  0  0  0  0  0  0  0  0  0
    7.0359   -6.9602    6.6293 C   0  0  0  0  0  0  0  0  0  0  0  0
    5.7716   -6.6574    7.3872 C   0  0  0  0  0  0  0  0  0  0  0  0
    5.6018   -6.6437    8.7319 C   0  0  0  0  0  0  0  0  0  0  0  0
    4.4967   -5.9728    9.3676 C   0  0  0  0  0  0  0  0  0  0  0  0
    3.6204   -5.4177    9.8829 N   0  0  0  0  0  0  0  0  0  0  0  0
    6.5796   -7.1599    9.6489 C   0  0  0  0  0  0  0  0  0  0  0  0
    7.3471   -7.5669   10.4116 N   0  0  0  0  0  0  0  0  0  0  0  0
    2.7143   -5.0644    5.5606 C   0  0  0  0  0  0  0  0  0  0  0  0
    1.4034   -5.3410    5.1267 C   0  0  0  0  0  0  0  0  0  0  0  0
    0.9516   -4.3405    4.2583 C   0  0  0  0  0  0  0  0  0  0  0  0
   -0.2356   -4.2245    3.2945 C   0  0  0  0  0  0  0  0  0  0  0  0
   -0.3473   -5.4802    2.4113 C   0  0  0  0  0  0  0  0  0  0  0  0
   -1.5887   -6.0798    2.1143 C   0  0  0  0  0  0  0  0  0  0  0  0
   -1.6642   -7.2378    1.3293 C   0  0  0  0  0  0  0  0  0  0  0  0
   -0.4946   -7.8243    0.8292 C   0  0  0  0  0  0  0  0  0  0  0  0
   -0.5722   -9.0569   -0.0257 C   0  0  0  0  0  0  0  0  0  0  0  0
   -0.5893   -8.6833   -1.5091 C   0  0  0  0  0  0  0  0  0  0  0  0
    0.7372   -7.1944    1.0552 C   0  0  0  0  0  0  0  0  0  0  0  0
    0.8096   -6.0378    1.8335 C   0  0  0  0  0  0  0  0  0  0  0  0
   -1.4901   -3.9124    4.1276 C   0  0  0  0  0  0  0  0  0  0  0  0
   -2.0814   -2.6255    4.1616 C   0  0  0  0  0  0  0  0  0  0  0  0
   -3.2041   -2.3726    4.9358 C   0  0  0  0  0  0  0  0  0  0  0  0
   -3.7527   -3.3806    5.7411 C   0  0  0  0  0  0  0  0  0  0  0  0
   -4.9856   -3.1024    6.5561 C   0  0  0  0  0  0  0  0  0  0  0  0
   -6.2446   -3.1356    5.6877 C   0  0  0  0  0  0  0  0  0  0  0  0
   -3.1608   -4.6471    5.7506 C   0  0  0  0  0  0  0  0  0  0  0  0
   -2.0326   -4.9051    4.9715 C   0  0  0  0  0  0  0  0  0  0  0  0
    0.2618   -3.0297    2.4739 C   0  0  0  0  0  0  0  0  0  0  0  0
    1.4176   -2.5302    2.9897 C   0  0  0  0  0  0  0  0  0  0  0  0
    1.8323   -3.3251    4.0867 C   0  0  0  0  0  0  0  0  0  0  0  0
    3.2660   -3.5896    4.8965 S   0  0  0  0  0  0  0  0  0  0  0  0
    1.9466   -1.1378    2.2281 S   0  0  0  0  0  0  0  0  0  0  0  0
    0.6335   -1.1640    1.1341 C   0  0  0  0  0  0  0  0  0  0  0  0
    0.3169   -0.1932    0.1788 C   0  0  0  0  0  0  0  0  0  0  0  0
   -0.8043   -0.4270   -0.6584 C   0  0  0  0  0  0  0  0  0  0  0  0
   -1.6108   -1.5676   -0.4573 C   0  0  0  0  0  0  0  0  0  0  0  0
   -1.3658   -2.4533    0.6183 C   0  0  0  0  0  0  0  0  0  0  0  0
   -2.2486   -3.4826    0.9730 O   0  0  0  0  0  0  0  0  0  0  0  0
   -3.6094   -3.5923    0.5283 C   0  0  0  0  0  0  0  0  0  0  0  0
   -3.6850   -4.4045   -0.7591 C   0  0  0  0  0  0  0  0  0  0  0  0
   -0.2012   -2.2659    1.3795 C   0  0  0  0  0  0  0  0  0  0  0  0
   -1.1349    0.5606   -1.5988 C   0  0  0  0  0  0  0  0  0  0  0  0
   -0.5165    1.8173   -1.5834 C   0  0  0  0  0  0  0  0  0  0  0  0
    0.5996    2.0485   -0.7646 C   0  0  0  0  0  0  0  0  0  0  0  0
    1.0300    1.0192    0.0964 C   0  0  0  0  0  0  0  0  0  0  0  0
    1.2758    3.2725   -0.8228 O   0  0  0  0  0  0  0  0  0  0  0  0
    2.7187    3.3899   -0.8214 C   0  0  0  0  0  0  0  0  0  0  0  0
    3.2910    2.7764   -2.0985 C   0  0  0  0  0  0  0  0  0  0  0  0
   -1.1603    2.7210   -2.4459 C   0  0  0  0  0  0  0  0  0  0  0  0
   -2.0565    2.1130   -3.2741 C   0  0  0  0  0  0  0  0  0  0  0  0
   -2.3567    0.5311   -2.7919 S   0  0  0  0  0  0  0  0  0  0  0  0
   -2.7925    3.0859   -4.0227 C   0  0  0  0  0  0  0  0  0  0  0  0
   -2.9776    3.1494   -5.6881 S   0  0  0  0  0  0  0  0  0  0  0  0
   -2.6633    4.8144   -5.8536 C   0  0  0  0  0  0  0  0  0  0  0  0
   -2.3785    5.3188   -4.5833 C   0  0  0  0  0  0  0  0  0  0  0  0
   -2.3491    4.3208   -3.5990 C   0  0  0  0  0  0  0  0  0  0  0  0
   -1.3997    4.2352   -2.3984 C   0  0  0  0  0  0  0  0  0  0  0  0
   -2.2250    4.6999   -1.1798 C   0  0  0  0  0  0  0  0  0  0  0  0
   -2.7571    6.0116   -1.1624 C   0  0  0  0  0  0  0  0  0  0  0  0
   -3.6984    6.3991   -0.2013 C   0  0  0  0  0  0  0  0  0  0  0  0
   -4.1609    5.4772    0.7523 C   0  0  0  0  0  0  0  0  0  0  0  0
   -5.2473    5.8489    1.7259 C   0  0  0  0  0  0  0  0  0  0  0  0
   -4.6842    6.1991    3.0975 C   0  0  0  0  0  0  0  0  0  0  0  0
   -3.6056    4.1964    0.7785 C   0  0  0  0  0  0  0  0  0  0  0  0
   -2.6628    3.8043   -0.1759 C   0  0  0  0  0  0  0  0  0  0  0  0
   -0.1042    5.0209   -2.6681 C   0  0  0  0  0  0  0  0  0  0  0  0
    0.6107    4.7722   -3.8526 C   0  0  0  0  0  0  0  0  0  0  0  0
    1.7907    5.4662   -4.1481 C   0  0  0  0  0  0  0  0  0  0  0  0
    2.2901    6.4309   -3.2620 C   0  0  0  0  0  0  0  0  0  0  0  0
    3.6306    7.0747   -3.5304 C   0  0  0  0  0  0  0  0  0  0  0  0
    3.5746    8.6000   -3.4318 C   0  0  0  0  0  0  0  0  0  0  0  0
    1.5930    6.6710   -2.0693 C   0  0  0  0  0  0  0  0  0  0  0  0
    0.3998    5.9941   -1.7871 C   0  0  0  0  0  0  0  0  0  0  0  0
   -2.3459    5.5925   -7.0750 C   0  0  0  0  0  0  0  0  0  0  0  0
   -1.9593    5.1084   -8.2679 C   0  0  0  0  0  0  0  0  0  0  0  0
   -1.9248    3.6930   -8.6708 C   0  0  0  0  0  0  0  0  0  0  0  0
   -2.8754    2.8757   -8.5435 O   0  0  0  0  0  0  0  0  0  0  0  0
   -0.7299    3.4675   -9.4691 C   0  0  0  0  0  0  0  0  0  0  0  0
   -0.1148    4.6852   -9.7115 C   0  0  0  0  0  0  0  0  0  0  0  0
    1.1271    4.7201  -10.3696 C   0  0  0  0  0  0  0  0  0  0  0  0
    1.7063    3.5184  -10.7987 C   0  0  0  0  0  0  0  0  0  0  0  0
    1.0850    2.2889  -10.5501 C   0  0  0  0  0  0  0  0  0  0  0  0
    1.9458    0.6910  -11.1320 Br  0  0  0  0  0  0  0  0  0  0  0  0
   -0.1575    2.2519   -9.8778 C   0  0  0  0  0  0  0  0  0  0  0  0
   -0.9297    0.7237   -9.4734 Cl  0  0  0  0  0  0  0  0  0  0  0  0
   -0.9311    5.7807   -9.1133 C   0  0  0  0  0  0  0  0  0  0  0  0
   -0.8182    7.1185   -9.3493 C   0  0  0  0  0  0  0  0  0  0  0  0
    0.2651    7.6871  -10.1183 C   0  0  0  0  0  0  0  0  0  0  0  0
    1.1485    8.1455  -10.7128 N   0  0  0  0  0  0  0  0  0  0  0  0
   -1.8344    8.0431   -8.9326 C   0  0  0  0  0  0  0  0  0  0  0  0
   -2.6444    8.8017   -8.6039 N   0  0  0  0  0  0  0  0  0  0  0  0
    2.9569   -6.2304    7.3806 H   0  0  0  0  0  0  0  0  0  0  0  0
    7.7231   -6.4700    3.3250 H   0  0  0  0  0  0  0  0  0  0  0  0
    8.4939   -7.6443    8.1025 H   0  0  0  0  0  0  0  0  0  0  0  0
    0.8504   -6.2396    5.3704 H   0  0  0  0  0  0  0  0  0  0  0  0
   -2.5120   -5.6551    2.4688 H   0  0  0  0  0  0  0  0  0  0  0  0
   -2.6329   -7.6699    1.1268 H   0  0  0  0  0  0  0  0  0  0  0  0
   -1.4986   -9.6326    0.2044 H   0  0  0  0  0  0  0  0  0  0  0  0
    0.3004   -9.7213    0.1825 H   0  0  0  0  0  0  0  0  0  0  0  0
   -0.6926   -9.6121   -2.1131 H   0  0  0  0  0  0  0  0  0  0  0  0
   -1.4490   -8.0090   -1.7350 H   0  0  0  0  0  0  0  0  0  0  0  0
    0.3651   -8.1919   -1.7996 H   0  0  0  0  0  0  0  0  0  0  0  0
    1.6413   -7.6020    0.6200 H   0  0  0  0  0  0  0  0  0  0  0  0
    1.7744   -5.5681    1.9845 H   0  0  0  0  0  0  0  0  0  0  0  0
   -1.6893   -1.8057    3.5847 H   0  0  0  0  0  0  0  0  0  0  0  0
   -3.6473   -1.3850    4.9240 H   0  0  0  0  0  0  0  0  0  0  0  0
   -5.0979   -3.8546    7.3680 H   0  0  0  0  0  0  0  0  0  0  0  0
   -4.8978   -2.1019    7.0360 H   0  0  0  0  0  0  0  0  0  0  0  0
   -7.1211   -2.8642    6.3119 H   0  0  0  0  0  0  0  0  0  0  0  0
   -6.3945   -4.1516    5.2643 H   0  0  0  0  0  0  0  0  0  0  0  0
   -6.1704   -2.3937    4.8654 H   0  0  0  0  0  0  0  0  0  0  0  0
   -3.5895   -5.4441    6.3357 H   0  0  0  0  0  0  0  0  0  0  0  0
   -1.5935   -5.8887    4.9994 H   0  0  0  0  0  0  0  0  0  0  0  0
   -2.4814   -1.7053   -1.0748 H   0  0  0  0  0  0  0  0  0  0  0  0
   -4.1839   -4.1220    1.3130 H   0  0  0  0  0  0  0  0  0  0  0  0
   -4.0792   -2.5888    0.4066 H   0  0  0  0  0  0  0  0  0  0  0  0
   -3.1252   -3.9138   -1.5835 H   0  0  0  0  0  0  0  0  0  0  0  0
   -3.2591   -5.4155   -0.5886 H   0  0  0  0  0  0  0  0  0  0  0  0
   -4.7482   -4.5097   -1.0656 H   0  0  0  0  0  0  0  0  0  0  0  0
    1.8663    1.1982    0.7528 H   0  0  0  0  0  0  0  0  0  0  0  0
    2.9789    4.4582   -0.7847 H   0  0  0  0  0  0  0  0  0  0  0  0
    3.1581    2.9103    0.0770 H   0  0  0  0  0  0  0  0  0  0  0  0
    2.8229    3.2305   -2.9955 H   0  0  0  0  0  0  0  0  0  0  0  0
    3.1341    1.6762   -2.1101 H   0  0  0  0  0  0  0  0  0  0  0  0
    4.3911    2.9690   -2.1563 H   0  0  0  0  0  0  0  0  0  0  0  0
   -1.9672    6.3078   -4.4227 H   0  0  0  0  0  0  0  0  0  0  0  0
   -2.4350    6.7288   -1.9112 H   0  0  0  0  0  0  0  0  0  0  0  0
   -4.1000    7.3974   -0.2357 H   0  0  0  0  0  0  0  0  0  0  0  0
   -5.8330    6.7097    1.3383 H   0  0  0  0  0  0  0  0  0  0  0  0
   -5.9639    5.0035    1.8268 H   0  0  0  0  0  0  0  0  0  0  0  0
   -4.0561    7.1129    3.0130 H   0  0  0  0  0  0  0  0  0  0  0  0
   -4.0817    5.3553    3.4987 H   0  0  0  0  0  0  0  0  0  0  0  0
   -5.5157    6.4007    3.8072 H   0  0  0  0  0  0  0  0  0  0  0  0
   -3.9417    3.4671    1.5032 H   0  0  0  0  0  0  0  0  0  0  0  0
   -2.3484    2.7690   -0.1244 H   0  0  0  0  0  0  0  0  0  0  0  0
    0.2744    4.0165   -4.5481 H   0  0  0  0  0  0  0  0  0  0  0  0
    2.3135    5.2303   -5.0637 H   0  0  0  0  0  0  0  0  0  0  0  0
    4.3798    6.6743   -2.8011 H   0  0  0  0  0  0  0  0  0  0  0  0
    3.9856    6.8082   -4.5543 H   0  0  0  0  0  0  0  0  0  0  0  0
    2.7615    9.0006   -4.0777 H   0  0  0  0  0  0  0  0  0  0  0  0
    4.5377    9.0289   -3.7811 H   0  0  0  0  0  0  0  0  0  0  0  0
    3.4060    8.9212   -2.3790 H   0  0  0  0  0  0  0  0  0  0  0  0
    1.9812    7.3563   -1.3250 H   0  0  0  0  0  0  0  0  0  0  0  0
   -0.1059    6.2095   -0.8547 H   0  0  0  0  0  0  0  0  0  0  0  0
   -2.1216    6.6315   -6.8649 H   0  0  0  0  0  0  0  0  0  0  0  0
    1.6790    5.6355  -10.5169 H   0  0  0  0  0  0  0  0  0  0  0  0
    2.6758    3.5504  -11.2988 H   0  0  0  0  0  0  0  0  0  0  0  0
  1  2  2  3
  2  3  1  0
  3  4  2  0
  3  5  1  0
  5  6  2  0
  6  7  1  0
  7  8  1  0
  7  9  2  0
  9 10  1  0
  9 11  1  0
 11 12  2  0
 12 13  1  0
 13 14  2  3
 14 15  1  0
 15 16  3  0
 14 17  1  0
 17 18  3  0
  1 19  1  0
 19 20  2  0
 20 21  1  0
 21 22  1  0
 22 23  1  0
 23 24  2  0
 24 25  1  0
 25 26  2  0
 26 27  1  0
 27 28  1  0
 26 29  1  0
 29 30  2  0
 22 31  1  0
 31 32  2  0
 32 33  1  0
 33 34  2  0
 34 35  1  0
 35 36  1  0
 34 37  1  0
 37 38  2  0
 22 39  1  0
 39 40  2  0
 40 41  1  0
 41 42  1  0
 40 43  1  0
 43 44  1  0
 44 45  2  0
 45 46  1  0
 46 47  2  0
 47 48  1  0
 48 49  1  0
 49 50  1  0
 50 51  1  0
 48 52  2  0
 46 53  1  0
 53 54  2  0
 54 55  1  0
 55 56  2  0
 55 57  1  0
 57 58  1  0
 58 59  1  0
 54 60  1  0
 60 61  2  0
 61 62  1  0
 61 63  1  0
 63 64  1  0
 64 65  1  0
 65 66  2  0
 66 67  1  0
 67 68  1  0
 68 69  1  0
 69 70  2  0
 70 71  1  0
 71 72  2  0
 72 73  1  0
 73 74  1  0
 72 75  1  0
 75 76  2  0
 68 77  1  0
 77 78  2  0
 78 79  1  0
 79 80  2  0
 80 81  1  0
 81 82  1  0
 80 83  1  0
 83 84  2  0
 65 85  1  0
 85 86  2  3
 86 87  1  0
 87 88  2  0
 87 89  1  0
 89 90  2  0
 90 91  1  0
 91 92  2  0
 92 93  1  0
 93 94  1  0
 93 95  2  0
 95 96  1  0
 90 97  1  0
 97 98  2  3
 98 99  1  0
 99100  3  0
 98101  1  0
101102  3  0
 13  2  1  0
 42 19  1  0
 52 44  1  0
 62 53  1  0
 67 63  2  0
 76 69  1  0
 84 77  1  0
 97 86  1  0
 12  5  1  0
 41 21  2  0
 56 45  1  0
 68 60  1  0
 95 89  1  0
 30 23  1  0
 38 31  1  0
 52 39  1  0
  1103  1  0
  6104  1  0
 11105  1  0
 20106  1  0
 24107  1  0
 25108  1  0
 27109  1  0
 27110  1  0
 28111  1  0
 28112  1  0
 28113  1  0
 29114  1  0
 30115  1  0
 32116  1  0
 33117  1  0
 35118  1  0
 35119  1  0
 36120  1  0
 36121  1  0
 36122  1  0
 37123  1  0
 38124  1  0
 47125  1  0
 50126  1  0
 50127  1  0
 51128  1  0
 51129  1  0
 51130  1  0
 56131  1  0
 58132  1  0
 58133  1  0
 59134  1  0
 59135  1  0
 59136  1  0
 66137  1  0
 70138  1  0
 71139  1  0
 73140  1  0
 73141  1  0
 74142  1  0
 74143  1  0
 74144  1  0
 75145  1  0
 76146  1  0
 78147  1  0
 79148  1  0
 81149  1  0
 81150  1  0
 82151  1  0
 82152  1  0
 82153  1  0
 83154  1  0
 84155  1  0
 85156  1  0
 91157  1  0
 92158  1  0
M  END

