
     RDKit          3D

154170  0  0  0  0  0  0  0  0999 V2000
   -4.3008    4.0265   -6.4559 C   0  0  0  0  0  0  0  0  0  0  0  0
   -4.5068    5.1790   -5.7847 C   0  0  0  0  0  0  0  0  0  0  0  0
   -3.8964    5.5284   -4.4907 C   0  0  0  0  0  0  0  0  0  0  0  0
   -2.8622    5.0271   -3.9824 O   0  0  0  0  0  0  0  0  0  0  0  0
   -4.7412    6.5126   -3.8436 C   0  0  0  0  0  0  0  0  0  0  0  0
   -4.6080    7.0448   -2.5574 C   0  0  0  0  0  0  0  0  0  0  0  0
   -5.5828    7.9339   -2.0975 C   0  0  0  0  0  0  0  0  0  0  0  0
   -5.4158    8.6110   -0.4861 Cl  0  0  0  0  0  0  0  0  0  0  0  0
   -6.6958    8.2534   -2.9114 C   0  0  0  0  0  0  0  0  0  0  0  0
   -7.9566    9.3400   -2.3376 Cl  0  0  0  0  0  0  0  0  0  0  0  0
   -6.8065    7.7011   -4.2004 C   0  0  0  0  0  0  0  0  0  0  0  0
   -5.8082    6.8343   -4.6693 C   0  0  0  0  0  0  0  0  0  0  0  0
   -5.6844    6.0869   -5.9537 C   0  0  0  0  0  0  0  0  0  0  0  0
   -6.4005    6.2648   -7.0879 C   0  0  0  0  0  0  0  0  0  0  0  0
   -7.5739    7.0972   -7.1587 C   0  0  0  0  0  0  0  0  0  0  0  0
   -8.5319    7.7400   -7.2406 N   0  0  0  0  0  0  0  0  0  0  0  0
   -5.9930    5.6917   -8.3469 C   0  0  0  0  0  0  0  0  0  0  0  0
   -5.6702    5.2312   -9.3580 N   0  0  0  0  0  0  0  0  0  0  0  0
   -3.1762    3.0999   -6.2292 C   0  0  0  0  0  0  0  0  0  0  0  0
   -3.3738    1.4065   -6.0579 S   0  0  0  0  0  0  0  0  0  0  0  0
   -1.7335    1.1563   -5.8651 C   0  0  0  0  0  0  0  0  0  0  0  0
   -0.8791    0.1994   -5.4025 C   0  0  0  0  0  0  0  0  0  0  0  0
   -1.0166   -1.2901   -4.6334 S   0  0  0  0  0  0  0  0  0  0  0  0
    0.5497   -1.1395   -3.9806 C   0  0  0  0  0  0  0  0  0  0  0  0
    1.0349   -1.6144   -2.7101 C   0  0  0  0  0  0  0  0  0  0  0  0
    0.6805   -2.7668   -1.9949 C   0  0  0  0  0  0  0  0  0  0  0  0
    1.0894   -2.8327   -0.6474 C   0  0  0  0  0  0  0  0  0  0  0  0
    0.8683   -3.9617    0.3788 C   0  0  0  0  0  0  0  0  0  0  0  0
    1.9413   -5.0262    0.0883 C   0  0  0  0  0  0  0  0  0  0  0  0
    1.9067   -5.7265   -1.1349 C   0  0  0  0  0  0  0  0  0  0  0  0
    2.9957   -6.5025   -1.5540 C   0  0  0  0  0  0  0  0  0  0  0  0
    4.1401   -6.6174   -0.7432 C   0  0  0  0  0  0  0  0  0  0  0  0
    5.3619   -7.3335   -1.2520 C   0  0  0  0  0  0  0  0  0  0  0  0
    6.3882   -6.3296   -1.7707 C   0  0  0  0  0  0  0  0  0  0  0  0
    4.1453   -5.9998    0.5133 C   0  0  0  0  0  0  0  0  0  0  0  0
    3.0672   -5.2116    0.9247 C   0  0  0  0  0  0  0  0  0  0  0  0
   -0.5620   -4.5176    0.3875 C   0  0  0  0  0  0  0  0  0  0  0  0
   -0.8123   -5.8569    0.7580 C   0  0  0  0  0  0  0  0  0  0  0  0
   -2.1074   -6.3826    0.7214 C   0  0  0  0  0  0  0  0  0  0  0  0
   -3.1854   -5.5837    0.3117 C   0  0  0  0  0  0  0  0  0  0  0  0
   -4.5676   -6.1746    0.2120 C   0  0  0  0  0  0  0  0  0  0  0  0
   -4.7317   -6.9806   -1.0767 C   0  0  0  0  0  0  0  0  0  0  0  0
   -2.9573   -4.2357   -0.0104 C   0  0  0  0  0  0  0  0  0  0  0  0
   -1.6639   -3.7043    0.0444 C   0  0  0  0  0  0  0  0  0  0  0  0
    1.1662   -3.1629    1.6418 C   0  0  0  0  0  0  0  0  0  0  0  0
    1.7530   -1.9677    1.3414 C   0  0  0  0  0  0  0  0  0  0  0  0
    1.7205   -1.7381   -0.0626 C   0  0  0  0  0  0  0  0  0  0  0  0
    2.1074   -0.6133   -0.7802 C   0  0  0  0  0  0  0  0  0  0  0  0
    1.8154   -0.6014   -2.1510 C   0  0  0  0  0  0  0  0  0  0  0  0
    2.0596    0.5400   -3.1273 C   0  0  0  0  0  0  0  0  0  0  0  0
    1.6408    1.8624   -2.4658 C   0  0  0  0  0  0  0  0  0  0  0  0
    2.5727    2.8664   -2.1182 C   0  0  0  0  0  0  0  0  0  0  0  0
    2.1714    4.0106   -1.4158 C   0  0  0  0  0  0  0  0  0  0  0  0
    0.8299    4.1953   -1.0740 C   0  0  0  0  0  0  0  0  0  0  0  0
    0.3972    5.4186   -0.3064 C   0  0  0  0  0  0  0  0  0  0  0  0
    0.3145    5.1123    1.1896 C   0  0  0  0  0  0  0  0  0  0  0  0
   -0.1006    3.2013   -1.3903 C   0  0  0  0  0  0  0  0  0  0  0  0
    0.2978    2.0526   -2.0790 C   0  0  0  0  0  0  0  0  0  0  0  0
    3.5202    0.4681   -3.6233 C   0  0  0  0  0  0  0  0  0  0  0  0
    3.8377    0.4197   -5.0001 C   0  0  0  0  0  0  0  0  0  0  0  0
    5.1555    0.2373   -5.4288 C   0  0  0  0  0  0  0  0  0  0  0  0
    6.1945    0.1141   -4.4996 C   0  0  0  0  0  0  0  0  0  0  0  0
    7.6075   -0.1310   -4.9636 C   0  0  0  0  0  0  0  0  0  0  0  0
    8.4743    1.1194   -4.7718 C   0  0  0  0  0  0  0  0  0  0  0  0
    5.9068    0.2290   -3.1370 C   0  0  0  0  0  0  0  0  0  0  0  0
    4.5872    0.3916   -2.7039 C   0  0  0  0  0  0  0  0  0  0  0  0
    1.0915    0.1183   -4.2277 C   0  0  0  0  0  0  0  0  0  0  0  0
    0.2890    0.8527   -5.1098 C   0  0  0  0  0  0  0  0  0  0  0  0
    0.2184    2.1840   -5.4021 N   0  0  0  0  0  0  0  0  0  0  0  0
   -1.0450    2.3278   -5.8853 C   0  0  0  0  0  0  0  0  0  0  0  0
   -1.8215    3.4565   -6.1308 C   0  0  0  0  0  0  0  0  0  0  0  0
    1.3194    3.1521   -5.4392 C   0  0  0  0  0  0  0  0  0  0  0  0
    0.9623    4.4694   -4.7521 C   0  0  0  0  0  0  0  0  0  0  0  0
    1.9061   -0.9305    2.6684 S   0  0  0  0  0  0  0  0  0  0  0  0
    1.3318   -2.1446    3.6917 C   0  0  0  0  0  0  0  0  0  0  0  0
    1.0587   -2.1500    5.0444 C   0  0  0  0  0  0  0  0  0  0  0  0
    0.5572   -3.3941    5.4637 C   0  0  0  0  0  0  0  0  0  0  0  0
    0.3192   -4.3951    4.0929 S   0  0  0  0  0  0  0  0  0  0  0  0
    0.9913   -3.2871    3.0141 C   0  0  0  0  0  0  0  0  0  0  0  0
    0.0455   -3.6711    6.8284 C   0  0  0  0  0  0  0  0  0  0  0  0
    0.5406   -3.0772    7.9391 C   0  0  0  0  0  0  0  0  0  0  0  0
    1.7536   -2.2564    7.9928 C   0  0  0  0  0  0  0  0  0  0  0  0
    2.8085   -2.4469    7.3250 O   0  0  0  0  0  0  0  0  0  0  0  0
    1.5554   -1.1995    8.9538 C   0  0  0  0  0  0  0  0  0  0  0  0
    2.2365    0.0148    9.0174 C   0  0  0  0  0  0  0  0  0  0  0  0
    1.7077    1.0386    9.8203 C   0  0  0  0  0  0  0  0  0  0  0  0
    2.3007    2.3101    9.8273 C   0  0  0  0  0  0  0  0  0  0  0  0
    1.7369    3.3449   10.5906 C   0  0  0  0  0  0  0  0  0  0  0  0
    2.2887    4.5860   10.5459 F   0  0  0  0  0  0  0  0  0  0  0  0
    0.5840    3.1154   11.3454 C   0  0  0  0  0  0  0  0  0  0  0  0
    0.0369    4.1290   12.0619 F   0  0  0  0  0  0  0  0  0  0  0  0
   -0.0095    1.8449   11.3586 C   0  0  0  0  0  0  0  0  0  0  0  0
    0.5183    0.8069   10.5701 C   0  0  0  0  0  0  0  0  0  0  0  0
   -0.1507   -0.4354   10.4790 C   0  0  0  0  0  0  0  0  0  0  0  0
    0.3808   -1.4375    9.6485 C   0  0  0  0  0  0  0  0  0  0  0  0
   -0.2368   -2.7045    9.1554 C   0  0  0  0  0  0  0  0  0  0  0  0
   -1.2025   -3.4292    9.7660 C   0  0  0  0  0  0  0  0  0  0  0  0
   -1.5977   -4.7247    9.2749 C   0  0  0  0  0  0  0  0  0  0  0  0
   -1.9210   -5.7718    8.8995 N   0  0  0  0  0  0  0  0  0  0  0  0
   -1.7959   -3.0311   11.0137 C   0  0  0  0  0  0  0  0  0  0  0  0
   -2.2869   -2.7222   12.0162 N   0  0  0  0  0  0  0  0  0  0  0  0
   -5.0578    3.6689   -7.1384 H   0  0  0  0  0  0  0  0  0  0  0  0
   -3.7596    6.7785   -1.9376 H   0  0  0  0  0  0  0  0  0  0  0  0
   -7.6619    7.9707   -4.8004 H   0  0  0  0  0  0  0  0  0  0  0  0
    0.0759   -3.5426   -2.4494 H   0  0  0  0  0  0  0  0  0  0  0  0
    1.0610   -5.6234   -1.8023 H   0  0  0  0  0  0  0  0  0  0  0  0
    2.9658   -6.9678   -2.5258 H   0  0  0  0  0  0  0  0  0  0  0  0
    5.8135   -7.9372   -0.4307 H   0  0  0  0  0  0  0  0  0  0  0  0
    5.0931   -8.0305   -2.0722 H   0  0  0  0  0  0  0  0  0  0  0  0
    6.7888   -5.7179   -0.9356 H   0  0  0  0  0  0  0  0  0  0  0  0
    5.9331   -5.6520   -2.5225 H   0  0  0  0  0  0  0  0  0  0  0  0
    7.2345   -6.8706   -2.2451 H   0  0  0  0  0  0  0  0  0  0  0  0
    5.0207   -6.0793    1.1566 H   0  0  0  0  0  0  0  0  0  0  0  0
    3.1512   -4.7062    1.8783 H   0  0  0  0  0  0  0  0  0  0  0  0
   -0.0058   -6.5041    1.0699 H   0  0  0  0  0  0  0  0  0  0  0  0
   -2.2746   -7.4208    0.9861 H   0  0  0  0  0  0  0  0  0  0  0  0
   -5.3456   -5.3726    0.2419 H   0  0  0  0  0  0  0  0  0  0  0  0
   -4.7445   -6.8489    1.0838 H   0  0  0  0  0  0  0  0  0  0  0  0
   -5.7605   -7.3961   -1.1151 H   0  0  0  0  0  0  0  0  0  0  0  0
   -4.0026   -7.8194   -1.1001 H   0  0  0  0  0  0  0  0  0  0  0  0
   -4.5806   -6.3237   -1.9641 H   0  0  0  0  0  0  0  0  0  0  0  0
   -3.7790   -3.6007   -0.3194 H   0  0  0  0  0  0  0  0  0  0  0  0
   -1.5244   -2.6623   -0.1994 H   0  0  0  0  0  0  0  0  0  0  0  0
    2.5741    0.2277   -0.2835 H   0  0  0  0  0  0  0  0  0  0  0  0
    3.6185    2.7869   -2.3872 H   0  0  0  0  0  0  0  0  0  0  0  0
    2.9119    4.7609   -1.1666 H   0  0  0  0  0  0  0  0  0  0  0  0
   -0.5978    5.7588   -0.6728 H   0  0  0  0  0  0  0  0  0  0  0  0
    1.1264    6.2400   -0.4646 H   0  0  0  0  0  0  0  0  0  0  0  0
   -0.4556    4.3364    1.3820 H   0  0  0  0  0  0  0  0  0  0  0  0
    1.2996    4.7527    1.5596 H   0  0  0  0  0  0  0  0  0  0  0  0
    0.0352    6.0350    1.7472 H   0  0  0  0  0  0  0  0  0  0  0  0
   -1.1424    3.3173   -1.1310 H   0  0  0  0  0  0  0  0  0  0  0  0
   -0.4556    1.2986   -2.2935 H   0  0  0  0  0  0  0  0  0  0  0  0
    3.0701    0.4942   -5.7591 H   0  0  0  0  0  0  0  0  0  0  0  0
    5.3503    0.1673   -6.4911 H   0  0  0  0  0  0  0  0  0  0  0  0
    8.0396   -0.9722   -4.3851 H   0  0  0  0  0  0  0  0  0  0  0  0
    7.6160   -0.4215   -6.0405 H   0  0  0  0  0  0  0  0  0  0  0  0
    9.4123    1.0089   -5.3468 H   0  0  0  0  0  0  0  0  0  0  0  0
    7.9401    2.0253   -5.1120 H   0  0  0  0  0  0  0  0  0  0  0  0
    8.7302    1.2281   -3.6999 H   0  0  0  0  0  0  0  0  0  0  0  0
    6.7041    0.1593   -2.4094 H   0  0  0  0  0  0  0  0  0  0  0  0
    4.4137    0.4703   -1.6417 H   0  0  0  0  0  0  0  0  0  0  0  0
   -1.4626    4.4719   -6.1772 H   0  0  0  0  0  0  0  0  0  0  0  0
    1.5930    3.3440   -6.4980 H   0  0  0  0  0  0  0  0  0  0  0  0
    2.2172    2.7264   -4.9584 H   0  0  0  0  0  0  0  0  0  0  0  0
    0.2032    4.3195   -3.9632 H   0  0  0  0  0  0  0  0  0  0  0  0
    1.8760    4.9208   -4.2945 H   0  0  0  0  0  0  0  0  0  0  0  0
    0.5692    5.1955   -5.4930 H   0  0  0  0  0  0  0  0  0  0  0  0
    1.1506   -1.2649    5.6678 H   0  0  0  0  0  0  0  0  0  0  0  0
   -0.8750   -4.2272    6.8798 H   0  0  0  0  0  0  0  0  0  0  0  0
    3.1053    0.1871    8.3897 H   0  0  0  0  0  0  0  0  0  0  0  0
    3.1812    2.5125    9.2319 H   0  0  0  0  0  0  0  0  0  0  0  0
   -0.9141    1.6932   11.9467 H   0  0  0  0  0  0  0  0  0  0  0  0
   -1.1004   -0.5647   10.9722 H   0  0  0  0  0  0  0  0  0  0  0  0
  1  2  2  3
  2  3  1  0
  3  4  2  0
  3  5  1  0
  5  6  2  0
  6  7  1  0
  7  8  1  0
  7  9  2  0
  9 10  1  0
  9 11  1  0
 11 12  2  0
 12 13  1  0
 13 14  2  3
 14 15  1  0
 15 16  3  0
 14 17  1  0
 17 18  3  0
  1 19  1  0
 19 20  1  0
 20 21  1  0
 21 22  1  0
 22 23  1  0
 23 24  1  0
 24 25  1  0
 25 26  2  0
 26 27  1  0
 27 28  1  0
 28 29  1  0
 29 30  2  0
 30 31  1  0
 31 32  2  0
 32 33  1  0
 33 34  1  0
 32 35  1  0
 35 36  2  0
 28 37  1  0
 37 38  2  0
 38 39  1  0
 39 40  2  0
 40 41  1  0
 41 42  1  0
 40 43  1  0
 43 44  2  0
 28 45  1  0
 45 46  2  0
 46 47  1  0
 47 48  1  0
 48 49  2  0
 49 50  1  0
 50 51  1  0
 51 52  2  0
 52 53  1  0
 53 54  2  0
 54 55  1  0
 55 56  1  0
 54 57  1  0
 57 58  2  0
 50 59  1  0
 59 60  2  0
 60 61  1  0
 61 62  2  0
 62 63  1  0
 63 64  1  0
 62 65  1  0
 65 66  2  0
 50 67  1  0
 67 68  1  0
 68 69  1  0
 69 70  1  0
 70 71  1  0
 69 72  1  0
 72 73  1  0
 46 74  1  0
 74 75  1  0
 75 76  1  0
 76 77  2  0
 77 78  1  0
 78 79  1  0
 77 80  1  0
 80 81  2  3
 81 82  1  0
 82 83  2  0
 82 84  1  0
 84 85  2  0
 85 86  1  0
 86 87  2  0
 87 88  1  0
 88 89  1  0
 88 90  2  0
 90 91  1  0
 90 92  1  0
 92 93  2  0
 93 94  1  0
 94 95  2  0
 95 96  1  0
 96 97  2  3
 97 98  1  0
 98 99  3  0
 97100  1  0
100101  3  0
 13  2  1  0
 71 19  2  0
 79 75  2  0
 96 81  1  0
 12  5  1  0
 70 21  2  0
 95 84  1  0
 68 22  2  0
 93 86  1  0
 67 24  2  0
 49 25  1  0
 58 51  1  0
 66 59  1  0
 47 27  2  0
 36 29  1  0
 44 37  1  0
 79 45  1  0
  1102  1  0
  6103  1  0
 11104  1  0
 26105  1  0
 30106  1  0
 31107  1  0
 33108  1  0
 33109  1  0
 34110  1  0
 34111  1  0
 34112  1  0
 35113  1  0
 36114  1  0
 38115  1  0
 39116  1  0
 41117  1  0
 41118  1  0
 42119  1  0
 42120  1  0
 42121  1  0
 43122  1  0
 44123  1  0
 48124  1  0
 52125  1  0
 53126  1  0
 55127  1  0
 55128  1  0
 56129  1  0
 56130  1  0
 56131  1  0
 57132  1  0
 58133  1  0
 60134  1  0
 61135  1  0
 63136  1  0
 63137  1  0
 64138  1  0
 64139  1  0
 64140  1  0
 65141  1  0
 66142  1  0
 71143  1  0
 72144  1  0
 72145  1  0
 73146  1  0
 73147  1  0
 73148  1  0
 76149  1  0
 80150  1  0
 85151  1  0
 87152  1  0
 92153  1  0
 94154  1  0
M  END

