
     RDKit          3D

164180  0  0  0  0  0  0  0  0999 V2000
   -5.7674   -1.5536   -1.9314 C   0  0  0  0  0  0  0  0  0  0  0  0
   -5.6434   -1.4066   -3.2687 C   0  0  0  0  0  0  0  0  0  0  0  0
   -4.9845   -2.2978   -4.2207 C   0  0  0  0  0  0  0  0  0  0  0  0
   -4.8084   -3.5329   -4.0636 O   0  0  0  0  0  0  0  0  0  0  0  0
   -4.7702   -1.5726   -5.4682 C   0  0  0  0  0  0  0  0  0  0  0  0
   -4.2845   -2.0502   -6.6844 C   0  0  0  0  0  0  0  0  0  0  0  0
   -3.5648   -3.6408   -6.8447 Cl  0  0  0  0  0  0  0  0  0  0  0  0
   -4.3762   -1.2166   -7.8031 C   0  0  0  0  0  0  0  0  0  0  0  0
   -4.9803    0.0501   -7.7120 C   0  0  0  0  0  0  0  0  0  0  0  0
   -5.4515    0.5168   -6.4843 C   0  0  0  0  0  0  0  0  0  0  0  0
   -5.3279   -0.3021   -5.3510 C   0  0  0  0  0  0  0  0  0  0  0  0
   -5.9407   -0.1471   -4.0073 C   0  0  0  0  0  0  0  0  0  0  0  0
   -6.7149    0.8822   -3.5822 C   0  0  0  0  0  0  0  0  0  0  0  0
   -7.8815    0.6339   -2.7598 C   0  0  0  0  0  0  0  0  0  0  0  0
   -8.8379    0.4042   -2.1351 N   0  0  0  0  0  0  0  0  0  0  0  0
   -6.5954    2.2064   -4.1365 C   0  0  0  0  0  0  0  0  0  0  0  0
   -6.4889    3.2866   -4.5395 N   0  0  0  0  0  0  0  0  0  0  0  0
   -5.0761   -2.5367   -1.0643 C   0  0  0  0  0  0  0  0  0  0  0  0
   -3.6101   -3.3216   -1.4126 S   0  0  0  0  0  0  0  0  0  0  0  0
   -3.1009   -3.5308    0.1696 C   0  0  0  0  0  0  0  0  0  0  0  0
   -1.7890   -3.2080    0.6597 C   0  0  0  0  0  0  0  0  0  0  0  0
   -1.8450   -2.2012    1.5803 C   0  0  0  0  0  0  0  0  0  0  0  0
   -3.2696   -2.1540    2.1466 C   0  0  0  0  0  0  0  0  0  0  0  0
   -3.9839   -2.8610    0.9827 C   0  0  0  0  0  0  0  0  0  0  0  0
   -5.1425   -2.4093    0.3237 C   0  0  0  0  0  0  0  0  0  0  0  0
   -3.3369   -3.0772    3.3835 C   0  0  0  0  0  0  0  0  0  0  0  0
   -2.2310   -3.2295    4.2476 C   0  0  0  0  0  0  0  0  0  0  0  0
   -2.2542   -4.1773    5.2774 C   0  0  0  0  0  0  0  0  0  0  0  0
   -3.3865   -4.9713    5.4905 C   0  0  0  0  0  0  0  0  0  0  0  0
   -3.3446   -6.0954    6.4930 C   0  0  0  0  0  0  0  0  0  0  0  0
   -2.8802   -7.3923    5.8217 C   0  0  0  0  0  0  0  0  0  0  0  0
   -4.5197   -4.7749    4.6907 C   0  0  0  0  0  0  0  0  0  0  0  0
   -4.5006   -3.8290    3.6603 C   0  0  0  0  0  0  0  0  0  0  0  0
   -3.8632   -0.7587    2.3624 C   0  0  0  0  0  0  0  0  0  0  0  0
   -4.6148   -0.4420    3.5175 C   0  0  0  0  0  0  0  0  0  0  0  0
   -5.2822    0.7778    3.6260 C   0  0  0  0  0  0  0  0  0  0  0  0
   -5.2427    1.7047    2.5796 C   0  0  0  0  0  0  0  0  0  0  0  0
   -5.9713    3.0183    2.7031 C   0  0  0  0  0  0  0  0  0  0  0  0
   -7.4485    2.8341    2.3737 C   0  0  0  0  0  0  0  0  0  0  0  0
   -4.5310    1.3928    1.4122 C   0  0  0  0  0  0  0  0  0  0  0  0
   -3.8371    0.1823    1.3084 C   0  0  0  0  0  0  0  0  0  0  0  0
   -0.6057   -1.5081    1.6942 C   0  0  0  0  0  0  0  0  0  0  0  0
   -0.3496   -0.2069    2.1882 C   0  0  0  0  0  0  0  0  0  0  0  0
   -1.2286    0.5245    3.1252 C   0  0  0  0  0  0  0  0  0  0  0  0
   -1.7390    1.8098    2.9384 C   0  0  0  0  0  0  0  0  0  0  0  0
   -2.3568    2.3385    4.0745 C   0  0  0  0  0  0  0  0  0  0  0  0
   -2.2963    1.4937    5.1805 C   0  0  0  0  0  0  0  0  0  0  0  0
   -2.9645    1.6896    6.5118 C   0  0  0  0  0  0  0  0  0  0  0  0
   -3.1139    3.1573    6.8900 C   0  0  0  0  0  0  0  0  0  0  0  0
   -1.4828    0.0906    4.7274 S   0  0  0  0  0  0  0  0  0  0  0  0
    0.8608    0.3878    1.7778 C   0  0  0  0  0  0  0  0  0  0  0  0
    1.1583    2.0550    1.6682 S   0  0  0  0  0  0  0  0  0  0  0  0
    2.6793    1.8194    1.0292 C   0  0  0  0  0  0  0  0  0  0  0  0
    3.6554    2.6733    0.4228 C   0  0  0  0  0  0  0  0  0  0  0  0
    4.6789    1.8331    0.0421 C   0  0  0  0  0  0  0  0  0  0  0  0
    4.5505    0.4528    0.7176 C   0  0  0  0  0  0  0  0  0  0  0  0
    5.1133   -0.6974   -0.1297 C   0  0  0  0  0  0  0  0  0  0  0  0
    4.8114   -0.7975   -1.5037 C   0  0  0  0  0  0  0  0  0  0  0  0
    5.5459   -1.6498   -2.3385 C   0  0  0  0  0  0  0  0  0  0  0  0
    6.5580   -2.4679   -1.8073 C   0  0  0  0  0  0  0  0  0  0  0  0
    7.4858   -3.2387   -2.7167 C   0  0  0  0  0  0  0  0  0  0  0  0
    8.8838   -2.6129   -2.7369 C   0  0  0  0  0  0  0  0  0  0  0  0
    6.7596   -2.4825   -0.4215 C   0  0  0  0  0  0  0  0  0  0  0  0
    6.0510   -1.6107    0.4066 C   0  0  0  0  0  0  0  0  0  0  0  0
    5.2659    0.5913    2.0857 C   0  0  0  0  0  0  0  0  0  0  0  0
    4.6280    0.2421    3.3008 C   0  0  0  0  0  0  0  0  0  0  0  0
    5.1675    0.6360    4.5328 C   0  0  0  0  0  0  0  0  0  0  0  0
    6.3785    1.3356    4.5862 C   0  0  0  0  0  0  0  0  0  0  0  0
    6.8650    1.9144    5.8871 C   0  0  0  0  0  0  0  0  0  0  0  0
    6.4890    3.3949    5.9900 C   0  0  0  0  0  0  0  0  0  0  0  0
    7.0852    1.5730    3.3981 C   0  0  0  0  0  0  0  0  0  0  0  0
    6.5445    1.1869    2.1641 C   0  0  0  0  0  0  0  0  0  0  0  0
    3.0313    0.5041    0.9289 C   0  0  0  0  0  0  0  0  0  0  0  0
    1.9474   -0.3514    1.2486 C   0  0  0  0  0  0  0  0  0  0  0  0
    1.7311   -1.6945    0.8664 C   0  0  0  0  0  0  0  0  0  0  0  0
    0.4061   -2.1676    0.9583 C   0  0  0  0  0  0  0  0  0  0  0  0
   -0.2568   -3.4455    0.0582 S   0  0  0  0  0  0  0  0  0  0  0  0
    2.7742   -2.6033    0.3503 C   0  0  0  0  0  0  0  0  0  0  0  0
    3.5313   -3.4153    1.1903 C   0  0  0  0  0  0  0  0  0  0  0  0
    4.0338   -4.5655    0.5642 C   0  0  0  0  0  0  0  0  0  0  0  0
    3.6686   -4.6758   -0.7676 C   0  0  0  0  0  0  0  0  0  0  0  0
    3.7783   -5.9158   -1.6018 C   0  0  0  0  0  0  0  0  0  0  0  0
    4.6827   -5.7072   -2.8040 C   0  0  0  0  0  0  0  0  0  0  0  0
    2.7233   -3.3429   -1.1693 S   0  0  0  0  0  0  0  0  0  0  0  0
    5.2774    2.1906   -1.1812 C   0  0  0  0  0  0  0  0  0  0  0  0
    4.6075    3.2423   -1.8285 C   0  0  0  0  0  0  0  0  0  0  0  0
    3.3700    3.7676   -0.8088 S   0  0  0  0  0  0  0  0  0  0  0  0
    4.8580    3.5873   -3.2513 C   0  0  0  0  0  0  0  0  0  0  0  0
    4.0425    4.2048   -4.1417 C   0  0  0  0  0  0  0  0  0  0  0  0
    2.6375    4.6184   -3.9811 C   0  0  0  0  0  0  0  0  0  0  0  0
    2.0975    5.0439   -2.9176 O   0  0  0  0  0  0  0  0  0  0  0  0
    2.0200    4.6936   -5.2903 C   0  0  0  0  0  0  0  0  0  0  0  0
    0.6714    4.8464   -5.6235 C   0  0  0  0  0  0  0  0  0  0  0  0
   -0.5710    5.0780   -4.3979 Cl  0  0  0  0  0  0  0  0  0  0  0  0
    0.3056    4.7780   -6.9758 C   0  0  0  0  0  0  0  0  0  0  0  0
    1.2758    4.5308   -7.9619 C   0  0  0  0  0  0  0  0  0  0  0  0
    2.6252    4.3720   -7.6041 C   0  0  0  0  0  0  0  0  0  0  0  0
    2.9902    4.4904   -6.2551 C   0  0  0  0  0  0  0  0  0  0  0  0
    4.3109    4.3127   -5.6091 C   0  0  0  0  0  0  0  0  0  0  0  0
    5.5201    4.4822   -6.2195 C   0  0  0  0  0  0  0  0  0  0  0  0
    5.6335    4.9699   -7.5810 C   0  0  0  0  0  0  0  0  0  0  0  0
    5.7465    5.4220   -8.6336 N   0  0  0  0  0  0  0  0  0  0  0  0
    6.7662    4.4320   -5.4927 C   0  0  0  0  0  0  0  0  0  0  0  0
    7.7579    4.3908   -4.9097 N   0  0  0  0  0  0  0  0  0  0  0  0
   -6.2852   -0.7763   -1.3877 H   0  0  0  0  0  0  0  0  0  0  0  0
   -4.0090   -1.5669   -8.7614 H   0  0  0  0  0  0  0  0  0  0  0  0
   -5.0750    0.6718   -8.5980 H   0  0  0  0  0  0  0  0  0  0  0  0
   -5.9353    1.4782   -6.4467 H   0  0  0  0  0  0  0  0  0  0  0  0
   -5.8549   -1.7438    0.8014 H   0  0  0  0  0  0  0  0  0  0  0  0
   -1.3198   -2.6676    4.1095 H   0  0  0  0  0  0  0  0  0  0  0  0
   -1.3683   -4.3154    5.8930 H   0  0  0  0  0  0  0  0  0  0  0  0
   -4.3461   -6.2503    6.9448 H   0  0  0  0  0  0  0  0  0  0  0  0
   -2.6333   -5.8518    7.3108 H   0  0  0  0  0  0  0  0  0  0  0  0
   -1.8709   -7.2542    5.3763 H   0  0  0  0  0  0  0  0  0  0  0  0
   -2.8225   -8.2073    6.5792 H   0  0  0  0  0  0  0  0  0  0  0  0
   -3.5982   -7.7027    5.0286 H   0  0  0  0  0  0  0  0  0  0  0  0
   -5.4108   -5.3756    4.8461 H   0  0  0  0  0  0  0  0  0  0  0  0
   -5.3874   -3.7119    3.0461 H   0  0  0  0  0  0  0  0  0  0  0  0
   -4.6874   -1.1304    4.3452 H   0  0  0  0  0  0  0  0  0  0  0  0
   -5.8412    0.9985    4.5340 H   0  0  0  0  0  0  0  0  0  0  0  0
   -5.8637    3.4180    3.7347 H   0  0  0  0  0  0  0  0  0  0  0  0
   -5.5366    3.7727    2.0078 H   0  0  0  0  0  0  0  0  0  0  0  0
   -7.9825    3.8002    2.5079 H   0  0  0  0  0  0  0  0  0  0  0  0
   -7.5638    2.5028    1.3201 H   0  0  0  0  0  0  0  0  0  0  0  0
   -7.9033    2.0811    3.0549 H   0  0  0  0  0  0  0  0  0  0  0  0
   -4.4987    2.0972    0.5806 H   0  0  0  0  0  0  0  0  0  0  0  0
   -3.3032   -0.0390    0.3946 H   0  0  0  0  0  0  0  0  0  0  0  0
   -1.6837    2.3454    1.9995 H   0  0  0  0  0  0  0  0  0  0  0  0
   -2.8450    3.2977    4.0783 H   0  0  0  0  0  0  0  0  0  0  0  0
   -2.3512    1.1819    7.2896 H   0  0  0  0  0  0  0  0  0  0  0  0
   -3.9583    1.1975    6.4886 H   0  0  0  0  0  0  0  0  0  0  0  0
   -2.1357    3.6721    6.8054 H   0  0  0  0  0  0  0  0  0  0  0  0
   -3.8553    3.6560    6.2362 H   0  0  0  0  0  0  0  0  0  0  0  0
   -3.4675    3.2324    7.9396 H   0  0  0  0  0  0  0  0  0  0  0  0
    4.0599   -0.1559   -1.9456 H   0  0  0  0  0  0  0  0  0  0  0  0
    5.3557   -1.6411   -3.4034 H   0  0  0  0  0  0  0  0  0  0  0  0
    7.5834   -4.2881   -2.3750 H   0  0  0  0  0  0  0  0  0  0  0  0
    7.0835   -3.2614   -3.7522 H   0  0  0  0  0  0  0  0  0  0  0  0
    8.8756   -1.5454   -2.4378 H   0  0  0  0  0  0  0  0  0  0  0  0
    9.3057   -2.6765   -3.7596 H   0  0  0  0  0  0  0  0  0  0  0  0
    9.5471   -3.1689   -2.0466 H   0  0  0  0  0  0  0  0  0  0  0  0
    7.5216   -3.1281    0.0129 H   0  0  0  0  0  0  0  0  0  0  0  0
    6.2765   -1.6377    1.4627 H   0  0  0  0  0  0  0  0  0  0  0  0
    3.6728   -0.2740    3.3225 H   0  0  0  0  0  0  0  0  0  0  0  0
    4.6104    0.4397    5.4468 H   0  0  0  0  0  0  0  0  0  0  0  0
    6.4246    1.3651    6.7458 H   0  0  0  0  0  0  0  0  0  0  0  0
    7.9686    1.8094    5.9525 H   0  0  0  0  0  0  0  0  0  0  0  0
    6.9837    3.9788    5.1803 H   0  0  0  0  0  0  0  0  0  0  0  0
    6.8180    3.8080    6.9653 H   0  0  0  0  0  0  0  0  0  0  0  0
    5.3854    3.5182    5.9175 H   0  0  0  0  0  0  0  0  0  0  0  0
    8.0299    2.0964    3.4190 H   0  0  0  0  0  0  0  0  0  0  0  0
    7.0926    1.4206    1.2618 H   0  0  0  0  0  0  0  0  0  0  0  0
    3.6188   -3.2407    2.2584 H   0  0  0  0  0  0  0  0  0  0  0  0
    4.5568   -5.3427    1.1003 H   0  0  0  0  0  0  0  0  0  0  0  0
    2.7707   -6.2105   -1.9477 H   0  0  0  0  0  0  0  0  0  0  0  0
    4.1775   -6.7516   -0.9908 H   0  0  0  0  0  0  0  0  0  0  0  0
    5.7209   -5.5570   -2.4631 H   0  0  0  0  0  0  0  0  0  0  0  0
    4.6563   -6.6047   -3.4585 H   0  0  0  0  0  0  0  0  0  0  0  0
    4.3504   -4.8282   -3.3951 H   0  0  0  0  0  0  0  0  0  0  0  0
    6.0486    1.5996   -1.6580 H   0  0  0  0  0  0  0  0  0  0  0  0
    5.7681    3.1386   -3.6243 H   0  0  0  0  0  0  0  0  0  0  0  0
   -0.7329    4.8893   -7.2669 H   0  0  0  0  0  0  0  0  0  0  0  0
    0.9795    4.4239   -8.9962 H   0  0  0  0  0  0  0  0  0  0  0  0
    3.3433    4.1252   -8.3676 H   0  0  0  0  0  0  0  0  0  0  0  0
  1  2  2  3
  2  3  1  0
  3  4  2  0
  3  5  1  0
  5  6  2  0
  6  7  1  0
  6  8  1  0
  8  9  2  0
  9 10  1  0
 10 11  2  0
 11 12  1  0
 12 13  2  3
 13 14  1  0
 14 15  3  0
 13 16  1  0
 16 17  3  0
  1 18  1  0
 18 19  1  0
 19 20  1  0
 20 21  1  0
 21 22  2  0
 22 23  1  0
 23 24  1  0
 24 25  1  0
 23 26  1  0
 26 27  2  0
 27 28  1  0
 28 29  2  0
 29 30  1  0
 30 31  1  0
 29 32  1  0
 32 33  2  0
 23 34  1  0
 34 35  2  0
 35 36  1  0
 36 37  2  0
 37 38  1  0
 38 39  1  0
 37 40  1  0
 40 41  2  0
 22 42  1  0
 42 43  2  0
 43 44  1  0
 44 45  2  0
 45 46  1  0
 46 47  2  0
 47 48  1  0
 48 49  1  0
 47 50  1  0
 43 51  1  0
 51 52  1  0
 52 53  1  0
 53 54  1  0
 54 55  2  0
 55 56  1  0
 56 57  1  0
 57 58  2  0
 58 59  1  0
 59 60  2  0
 60 61  1  0
 61 62  1  0
 60 63  1  0
 63 64  2  0
 56 65  1  0
 65 66  2  0
 66 67  1  0
 67 68  2  0
 68 69  1  0
 69 70  1  0
 68 71  1  0
 71 72  2  0
 56 73  1  0
 73 74  1  0
 74 75  1  0
 75 76  2  0
 76 77  1  0
 75 78  1  0
 78 79  2  0
 79 80  1  0
 80 81  2  0
 81 82  1  0
 82 83  1  0
 81 84  1  0
 55 85  1  0
 85 86  2  0
 86 87  1  0
 86 88  1  0
 88 89  2  3
 89 90  1  0
 90 91  2  0
 90 92  1  0
 92 93  2  0
 93 94  1  0
 93 95  1  0
 95 96  2  0
 96 97  1  0
 97 98  2  0
 98 99  1  0
 99100  2  3
100101  1  0
101102  3  0
100103  1  0
103104  3  0
 12  2  1  0
 25 18  2  0
 33 26  1  0
 41 34  1  0
 76 42  1  0
 84 78  1  0
 99 89  1  0
 11  5  1  0
 24 20  2  0
 50 44  1  0
 74 51  2  0
 98 92  1  0
 77 21  1  0
 73 53  2  0
 87 54  1  0
 64 57  1  0
 72 65  1  0
  1105  1  0
  8106  1  0
  9107  1  0
 10108  1  0
 25109  1  0
 27110  1  0
 28111  1  0
 30112  1  0
 30113  1  0
 31114  1  0
 31115  1  0
 31116  1  0
 32117  1  0
 33118  1  0
 35119  1  0
 36120  1  0
 38121  1  0
 38122  1  0
 39123  1  0
 39124  1  0
 39125  1  0
 40126  1  0
 41127  1  0
 45128  1  0
 46129  1  0
 48130  1  0
 48131  1  0
 49132  1  0
 49133  1  0
 49134  1  0
 58135  1  0
 59136  1  0
 61137  1  0
 61138  1  0
 62139  1  0
 62140  1  0
 62141  1  0
 63142  1  0
 64143  1  0
 66144  1  0
 67145  1  0
 69146  1  0
 69147  1  0
 70148  1  0
 70149  1  0
 70150  1  0
 71151  1  0
 72152  1  0
 79153  1  0
 80154  1  0
 82155  1  0
 82156  1  0
 83157  1  0
 83158  1  0
 83159  1  0
 85160  1  0
 88161  1  0
 95162  1  0
 96163  1  0
 97164  1  0
M  END

