
     RDKit          3D

130146  0  0  0  0  0  0  0  0999 V2000
   -4.7891   -4.8252    4.5675 C   0  0  0  0  0  0  0  0  0  0  0  0
   -5.8914   -5.1000    3.8494 C   0  0  0  0  0  0  0  0  0  0  0  0
   -6.2691   -4.4488    2.5919 C   0  0  0  0  0  0  0  0  0  0  0  0
   -5.7229   -3.4328    2.0942 O   0  0  0  0  0  0  0  0  0  0  0  0
   -7.3123   -5.2376    1.9590 C   0  0  0  0  0  0  0  0  0  0  0  0
   -7.9375   -5.0447    0.7190 C   0  0  0  0  0  0  0  0  0  0  0  0
   -7.6142   -3.6294   -0.2718 Cl  0  0  0  0  0  0  0  0  0  0  0  0
   -8.8458   -6.0116    0.2709 C   0  0  0  0  0  0  0  0  0  0  0  0
   -9.1056   -7.1527    1.0448 C   0  0  0  0  0  0  0  0  0  0  0  0
   -8.4767   -7.3295    2.2866 C   0  0  0  0  0  0  0  0  0  0  0  0
   -7.5950   -6.3394    2.7545 C   0  0  0  0  0  0  0  0  0  0  0  0
   -6.8185   -6.2616    4.0253 C   0  0  0  0  0  0  0  0  0  0  0  0
   -7.0631   -6.9387    5.1781 C   0  0  0  0  0  0  0  0  0  0  0  0
   -6.4323   -6.5879    6.4232 C   0  0  0  0  0  0  0  0  0  0  0  0
   -5.9315   -6.3115    7.4291 N   0  0  0  0  0  0  0  0  0  0  0  0
   -8.0655   -7.9621    5.2831 C   0  0  0  0  0  0  0  0  0  0  0  0
   -8.8714   -8.7895    5.3871 N   0  0  0  0  0  0  0  0  0  0  0  0
   -3.9126   -3.6880    4.2824 C   0  0  0  0  0  0  0  0  0  0  0  0
   -4.1374   -2.3506    4.6598 C   0  0  0  0  0  0  0  0  0  0  0  0
   -5.2756   -1.8770    5.4763 C   0  0  0  0  0  0  0  0  0  0  0  0
   -5.4021   -2.3970    6.7749 C   0  0  0  0  0  0  0  0  0  0  0  0
   -6.3861   -1.9247    7.6422 C   0  0  0  0  0  0  0  0  0  0  0  0
   -7.2478   -0.9067    7.2320 C   0  0  0  0  0  0  0  0  0  0  0  0
   -7.1415   -0.3814    5.9440 C   0  0  0  0  0  0  0  0  0  0  0  0
   -6.1754   -0.8672    5.0405 C   0  0  0  0  0  0  0  0  0  0  0  0
   -6.1768   -0.3208    3.6310 C   0  0  0  0  0  0  0  0  0  0  0  0
   -7.4410   -0.7361    2.8754 C   0  0  0  0  0  0  0  0  0  0  0  0
   -3.0331   -1.5618    4.3315 C   0  0  0  0  0  0  0  0  0  0  0  0
   -2.6272    0.0769    4.6047 S   0  0  0  0  0  0  0  0  0  0  0  0
   -1.1103   -0.1538    3.8760 C   0  0  0  0  0  0  0  0  0  0  0  0
    0.0498    0.5255    3.6409 C   0  0  0  0  0  0  0  0  0  0  0  0
    0.4373    1.8280    3.9593 C   0  0  0  0  0  0  0  0  0  0  0  0
    1.7475    2.2585    3.5964 C   0  0  0  0  0  0  0  0  0  0  0  0
    2.0769    3.5388    3.8944 N   0  0  0  0  0  0  0  0  0  0  0  0
    0.6742    4.0211    4.6331 S   0  0  0  0  0  0  0  0  0  0  0  0
   -0.3528    2.7231    4.6008 N   0  0  0  0  0  0  0  0  0  0  0  0
    2.5742    1.3769    2.8862 C   0  0  0  0  0  0  0  0  0  0  0  0
    3.6671    1.6598    2.1128 C   0  0  0  0  0  0  0  0  0  0  0  0
    4.3682    3.0961    1.5409 S   0  0  0  0  0  0  0  0  0  0  0  0
    4.9373    2.3207    0.1414 C   0  0  0  0  0  0  0  0  0  0  0  0
    5.4283    2.8226   -1.0652 C   0  0  0  0  0  0  0  0  0  0  0  0
    5.8725    4.2129   -1.2799 C   0  0  0  0  0  0  0  0  0  0  0  0
    7.1639    4.6527   -0.8966 C   0  0  0  0  0  0  0  0  0  0  0  0
    8.1640    3.7418   -0.2191 C   0  0  0  0  0  0  0  0  0  0  0  0
    8.1473    3.9350    1.2919 C   0  0  0  0  0  0  0  0  0  0  0  0
    7.5369    5.9871   -1.1481 C   0  0  0  0  0  0  0  0  0  0  0  0
    6.6583    6.8629   -1.7935 C   0  0  0  0  0  0  0  0  0  0  0  0
    5.3967    6.4210   -2.1942 C   0  0  0  0  0  0  0  0  0  0  0  0
    5.0086    5.1044   -1.9380 C   0  0  0  0  0  0  0  0  0  0  0  0
    5.2975    1.8724   -2.0884 C   0  0  0  0  0  0  0  0  0  0  0  0
    4.6701    0.4164   -1.4653 S   0  0  0  0  0  0  0  0  0  0  0  0
    4.5157    1.0107    0.0993 C   0  0  0  0  0  0  0  0  0  0  0  0
    3.8102    0.6245    1.2405 C   0  0  0  0  0  0  0  0  0  0  0  0
    2.9129   -0.3723    1.4587 N   0  0  0  0  0  0  0  0  0  0  0  0
    2.1599    0.0808    2.5188 C   0  0  0  0  0  0  0  0  0  0  0  0
    0.9093   -0.3948    3.0146 C   0  0  0  0  0  0  0  0  0  0  0  0
    0.3478   -1.6526    3.0102 N   0  0  0  0  0  0  0  0  0  0  0  0
   -0.9074   -1.4306    3.4785 C   0  0  0  0  0  0  0  0  0  0  0  0
   -1.9988   -2.2421    3.7422 C   0  0  0  0  0  0  0  0  0  0  0  0
   -2.3745   -3.8620    3.5752 S   0  0  0  0  0  0  0  0  0  0  0  0
    0.9963   -2.9746    3.0546 C   0  0  0  0  0  0  0  0  0  0  0  0
    2.3406   -2.9520    3.7902 C   0  0  0  0  0  0  0  0  0  0  0  0
    2.6261   -1.4526    0.5038 C   0  0  0  0  0  0  0  0  0  0  0  0
    1.3733   -1.1538   -0.3147 C   0  0  0  0  0  0  0  0  0  0  0  0
    5.7330    2.0514   -3.4727 C   0  0  0  0  0  0  0  0  0  0  0  0
    4.9759    1.8064   -4.5549 C   0  0  0  0  0  0  0  0  0  0  0  0
    5.5766    1.5588   -5.8723 C   0  0  0  0  0  0  0  0  0  0  0  0
    6.8053    1.6321   -6.1553 O   0  0  0  0  0  0  0  0  0  0  0  0
    4.5463    1.0967   -6.7758 C   0  0  0  0  0  0  0  0  0  0  0  0
    4.7061    0.5574   -8.0785 C   0  0  0  0  0  0  0  0  0  0  0  0
    3.5353    0.0423   -8.6160 C   0  0  0  0  0  0  0  0  0  0  0  0
    2.2834    0.0471   -7.9176 C   0  0  0  0  0  0  0  0  0  0  0  0
    2.1238    0.5806   -6.6509 C   0  0  0  0  0  0  0  0  0  0  0  0
    3.3121    1.1272   -6.0925 C   0  0  0  0  0  0  0  0  0  0  0  0
    3.4887    1.6584   -4.7202 C   0  0  0  0  0  0  0  0  0  0  0  0
    2.5472    2.4390   -4.1233 C   0  0  0  0  0  0  0  0  0  0  0  0
    1.4144    2.9491   -4.8587 C   0  0  0  0  0  0  0  0  0  0  0  0
    0.5097    3.3776   -5.4446 N   0  0  0  0  0  0  0  0  0  0  0  0
    2.4530    2.5999   -2.6966 C   0  0  0  0  0  0  0  0  0  0  0  0
    2.3089    2.7328   -1.5541 N   0  0  0  0  0  0  0  0  0  0  0  0
    1.6330   -0.7021   -9.0425 C   0  0  0  0  0  0  0  0  0  0  0  0
    1.3378   -2.2187   -8.8250 C   0  0  0  0  0  0  0  0  0  0  0  0
    2.3624   -2.8189   -7.8888 C   0  0  0  0  0  0  0  0  0  0  0  0
    3.5202   -2.8214   -8.5500 C   0  0  0  0  0  0  0  0  0  0  0  0
    3.2482   -2.2185   -9.9088 C   0  0  0  0  0  0  0  0  0  0  0  0
    1.8557   -2.7757  -10.1396 C   0  0  0  0  0  0  0  0  0  0  0  0
    2.9126   -0.7036   -9.7616 C   0  0  0  0  0  0  0  0  0  0  0  0
   -4.4465   -5.4997    5.3314 H   0  0  0  0  0  0  0  0  0  0  0  0
   -9.3415   -5.8915   -0.6833 H   0  0  0  0  0  0  0  0  0  0  0  0
   -9.7935   -7.9067    0.6786 H   0  0  0  0  0  0  0  0  0  0  0  0
   -8.6822   -8.2308    2.8380 H   0  0  0  0  0  0  0  0  0  0  0  0
   -4.7251   -3.1660    7.1236 H   0  0  0  0  0  0  0  0  0  0  0  0
   -6.4634   -2.3262    8.6440 H   0  0  0  0  0  0  0  0  0  0  0  0
   -7.9917   -0.5213    7.9148 H   0  0  0  0  0  0  0  0  0  0  0  0
   -7.8244    0.4014    5.6467 H   0  0  0  0  0  0  0  0  0  0  0  0
   -6.1324    0.7889    3.6715 H   0  0  0  0  0  0  0  0  0  0  0  0
   -5.2980   -0.6631    3.0511 H   0  0  0  0  0  0  0  0  0  0  0  0
   -7.5588   -1.8414    2.8957 H   0  0  0  0  0  0  0  0  0  0  0  0
   -7.3739   -0.3950    1.8190 H   0  0  0  0  0  0  0  0  0  0  0  0
   -8.3486   -0.2858    3.3397 H   0  0  0  0  0  0  0  0  0  0  0  0
    7.9636    2.6796   -0.4579 H   0  0  0  0  0  0  0  0  0  0  0  0
    9.1855    3.9687   -0.5983 H   0  0  0  0  0  0  0  0  0  0  0  0
    8.9606    3.3360    1.7627 H   0  0  0  0  0  0  0  0  0  0  0  0
    8.2971    5.0103    1.5525 H   0  0  0  0  0  0  0  0  0  0  0  0
    7.1761    3.5895    1.7140 H   0  0  0  0  0  0  0  0  0  0  0  0
    8.5108    6.3510   -0.8376 H   0  0  0  0  0  0  0  0  0  0  0  0
    6.9555    7.8861   -1.9875 H   0  0  0  0  0  0  0  0  0  0  0  0
    4.7169    7.0983   -2.6988 H   0  0  0  0  0  0  0  0  0  0  0  0
    4.0226    4.7858   -2.2431 H   0  0  0  0  0  0  0  0  0  0  0  0
    0.3641   -3.6774    3.6340 H   0  0  0  0  0  0  0  0  0  0  0  0
    1.0572   -3.4196    2.0458 H   0  0  0  0  0  0  0  0  0  0  0  0
    2.7235   -3.9889    3.8935 H   0  0  0  0  0  0  0  0  0  0  0  0
    2.2046   -2.5099    4.7988 H   0  0  0  0  0  0  0  0  0  0  0  0
    3.1018   -2.3654    3.2418 H   0  0  0  0  0  0  0  0  0  0  0  0
    3.4806   -1.6003   -0.1770 H   0  0  0  0  0  0  0  0  0  0  0  0
    2.5633   -2.4172    1.0155 H   0  0  0  0  0  0  0  0  0  0  0  0
    1.2498   -1.9342   -1.0965 H   0  0  0  0  0  0  0  0  0  0  0  0
    0.4725   -1.1651    0.3345 H   0  0  0  0  0  0  0  0  0  0  0  0
    1.4711   -0.1610   -0.7959 H   0  0  0  0  0  0  0  0  0  0  0  0
    6.7937    2.2373   -3.6102 H   0  0  0  0  0  0  0  0  0  0  0  0
    5.6661    0.4852   -8.5802 H   0  0  0  0  0  0  0  0  0  0  0  0
    1.1804    0.5297   -6.1194 H   0  0  0  0  0  0  0  0  0  0  0  0
    0.8263   -0.1380   -9.5615 H   0  0  0  0  0  0  0  0  0  0  0  0
    0.2855   -2.4664   -8.5897 H   0  0  0  0  0  0  0  0  0  0  0  0
    2.1878   -3.2460   -6.9089 H   0  0  0  0  0  0  0  0  0  0  0  0
    4.4526   -3.2378   -8.1901 H   0  0  0  0  0  0  0  0  0  0  0  0
    3.9990   -2.4608  -10.6919 H   0  0  0  0  0  0  0  0  0  0  0  0
    1.3475   -2.3503  -11.0321 H   0  0  0  0  0  0  0  0  0  0  0  0
    1.8271   -3.8901  -10.1952 H   0  0  0  0  0  0  0  0  0  0  0  0
    2.8910   -0.1307  -10.7171 H   0  0  0  0  0  0  0  0  0  0  0  0
  1  2  2  3
  2  3  1  0
  3  4  2  0
  3  5  1  0
  5  6  2  0
  6  7  1  0
  6  8  1  0
  8  9  2  0
  9 10  1  0
 10 11  2  0
 11 12  1  0
 12 13  2  3
 13 14  1  0
 14 15  3  0
 13 16  1  0
 16 17  3  0
  1 18  1  0
 18 19  2  0
 19 20  1  0
 20 21  2  0
 21 22  1  0
 22 23  2  0
 23 24  1  0
 24 25  2  0
 25 26  1  0
 26 27  1  0
 19 28  1  0
 28 29  1  0
 29 30  1  0
 30 31  1  0
 31 32  1  0
 32 33  1  0
 33 34  2  0
 34 35  1  0
 35 36  1  0
 33 37  1  0
 37 38  1  0
 38 39  1  0
 39 40  1  0
 40 41  1  0
 41 42  1  0
 42 43  2  0
 43 44  1  0
 44 45  1  0
 43 46  1  0
 46 47  2  0
 47 48  1  0
 48 49  2  0
 41 50  2  0
 50 51  1  0
 51 52  1  0
 52 53  1  0
 53 54  1  0
 54 55  1  0
 55 56  1  0
 56 57  1  0
 57 58  1  0
 58 59  1  0
 59 60  1  0
 57 61  1  0
 61 62  1  0
 54 63  1  0
 63 64  1  0
 50 65  1  0
 65 66  2  3
 66 67  1  0
 67 68  2  0
 67 69  1  0
 69 70  2  0
 70 71  1  0
 71 72  2  0
 72 73  1  0
 73 74  2  0
 74 75  1  0
 75 76  2  3
 76 77  1  0
 77 78  3  0
 76 79  1  0
 79 80  3  0
 72 81  1  0
 81 82  1  0
 82 83  1  0
 83 84  2  0
 84 85  1  0
 85 86  1  0
 85 87  1  0
 12  2  1  0
 60 18  1  0
 75 66  1  0
 87 81  1  0
 11  5  1  0
 25 20  1  0
 59 28  2  0
 74 69  1  0
 86 82  1  0
 58 30  2  0
 87 71  1  0
 56 31  2  0
 36 32  2  0
 55 37  2  0
 53 38  2  0
 52 40  2  0
 49 42  1  0
  1 88  1  0
  8 89  1  0
  9 90  1  0
 10 91  1  0
 21 92  1  0
 22 93  1  0
 23 94  1  0
 24 95  1  0
 26 96  1  0
 26 97  1  0
 27 98  1  0
 27 99  1  0
 27100  1  0
 44101  1  0
 44102  1  0
 45103  1  0
 45104  1  0
 45105  1  0
 46106  1  0
 47107  1  0
 48108  1  0
 49109  1  0
 61110  1  0
 61111  1  0
 62112  1  0
 62113  1  0
 62114  1  0
 63115  1  0
 63116  1  0
 64117  1  0
 64118  1  0
 64119  1  0
 65120  1  0
 70121  1  0
 73122  1  0
 81123  1  0
 82124  1  0
 83125  1  0
 84126  1  0
 85127  1  0
 86128  1  0
 86129  1  0
 87130  1  0
M  END

