
     RDKit          3D

112126  0  0  0  0  0  0  0  0999 V2000
    5.1762   -4.4497    6.0291 C   0  0  0  0  0  0  0  0  0  0  0  0
    5.9741   -5.4248    6.4962 C   0  0  0  0  0  0  0  0  0  0  0  0
    5.5168   -6.4094    7.4729 C   0  0  0  0  0  0  0  0  0  0  0  0
    4.5117   -6.2883    8.2241 O   0  0  0  0  0  0  0  0  0  0  0  0
    6.3355   -7.6038    7.3277 C   0  0  0  0  0  0  0  0  0  0  0  0
    6.1985   -8.8534    7.9466 C   0  0  0  0  0  0  0  0  0  0  0  0
    4.9369   -9.1746    9.1283 Cl  0  0  0  0  0  0  0  0  0  0  0  0
    7.0966   -9.8748    7.5951 C   0  0  0  0  0  0  0  0  0  0  0  0
    8.0834   -9.6491    6.6204 C   0  0  0  0  0  0  0  0  0  0  0  0
    8.1977   -8.3974    5.9990 C   0  0  0  0  0  0  0  0  0  0  0  0
    7.3173   -7.3682    6.3714 C   0  0  0  0  0  0  0  0  0  0  0  0
    7.2258   -5.9628    5.8959 C   0  0  0  0  0  0  0  0  0  0  0  0
    8.2249   -5.2198    5.3582 C   0  0  0  0  0  0  0  0  0  0  0  0
    8.1919   -3.7791    5.4086 C   0  0  0  0  0  0  0  0  0  0  0  0
    8.1654   -2.6266    5.4772 N   0  0  0  0  0  0  0  0  0  0  0  0
    9.4459   -5.7939    4.8632 C   0  0  0  0  0  0  0  0  0  0  0  0
   10.4345   -6.2472    4.4648 N   0  0  0  0  0  0  0  0  0  0  0  0
    5.2631   -3.9115    4.6619 C   0  0  0  0  0  0  0  0  0  0  0  0
    5.3527   -4.6734    3.4812 C   0  0  0  0  0  0  0  0  0  0  0  0
    5.4507   -6.0651    3.4197 O   0  0  0  0  0  0  0  0  0  0  0  0
    4.3909   -6.9274    3.8290 C   0  0  0  0  0  0  0  0  0  0  0  0
    3.2858   -6.9483    2.7785 C   0  0  0  0  0  0  0  0  0  0  0  0
    5.2383   -3.8771    2.3493 C   0  0  0  0  0  0  0  0  0  0  0  0
    4.9064   -4.2671    0.7210 S   0  0  0  0  0  0  0  0  0  0  0  0
    4.5296   -2.6420    0.4009 C   0  0  0  0  0  0  0  0  0  0  0  0
    3.9334   -1.9062   -0.5765 C   0  0  0  0  0  0  0  0  0  0  0  0
    3.5235   -2.2818   -1.8543 C   0  0  0  0  0  0  0  0  0  0  0  0
    2.8311   -1.3337   -2.6499 C   0  0  0  0  0  0  0  0  0  0  0  0
    2.4153   -1.7458   -3.8757 N   0  0  0  0  0  0  0  0  0  0  0  0
    2.9767   -3.3030   -3.8545 S   0  0  0  0  0  0  0  0  0  0  0  0
    3.7177   -3.5132   -2.3865 N   0  0  0  0  0  0  0  0  0  0  0  0
    2.5723   -0.0680   -2.1172 C   0  0  0  0  0  0  0  0  0  0  0  0
    1.7125    0.8852   -2.5711 C   0  0  0  0  0  0  0  0  0  0  0  0
    0.4529    0.9050   -3.7092 S   0  0  0  0  0  0  0  0  0  0  0  0
   -0.3068    2.1872   -2.8907 C   0  0  0  0  0  0  0  0  0  0  0  0
   -1.5605    2.7823   -3.0214 C   0  0  0  0  0  0  0  0  0  0  0  0
   -2.4916    2.4182   -3.9971 O   0  0  0  0  0  0  0  0  0  0  0  0
   -3.1409    1.1504   -3.9991 C   0  0  0  0  0  0  0  0  0  0  0  0
   -4.2584    1.1286   -2.9631 C   0  0  0  0  0  0  0  0  0  0  0  0
   -1.8066    3.7148   -1.9941 C   0  0  0  0  0  0  0  0  0  0  0  0
   -0.5203    3.6466   -0.8786 S   0  0  0  0  0  0  0  0  0  0  0  0
    0.3864    2.5451   -1.7629 C   0  0  0  0  0  0  0  0  0  0  0  0
    1.5352    1.7788   -1.5685 C   0  0  0  0  0  0  0  0  0  0  0  0
    2.2600    1.4691   -0.4615 N   0  0  0  0  0  0  0  0  0  0  0  0
    2.9390    0.3145   -0.8059 C   0  0  0  0  0  0  0  0  0  0  0  0
    3.6908   -0.6287   -0.0213 C   0  0  0  0  0  0  0  0  0  0  0  0
    4.2012   -0.5833    1.2644 N   0  0  0  0  0  0  0  0  0  0  0  0
    4.6454   -1.8431    1.4789 C   0  0  0  0  0  0  0  0  0  0  0  0
    5.0395   -2.5430    2.6081 C   0  0  0  0  0  0  0  0  0  0  0  0
    4.9541   -2.2808    4.2629 S   0  0  0  0  0  0  0  0  0  0  0  0
    4.6341    0.5489    2.0933 C   0  0  0  0  0  0  0  0  0  0  0  0
    5.5035    1.5264    1.2982 C   0  0  0  0  0  0  0  0  0  0  0  0
    2.0453    2.0988    0.8444 C   0  0  0  0  0  0  0  0  0  0  0  0
    1.1927    1.2142    1.7501 C   0  0  0  0  0  0  0  0  0  0  0  0
   -3.0869    4.3777   -1.6760 C   0  0  0  0  0  0  0  0  0  0  0  0
   -3.9232    4.9345   -2.5728 C   0  0  0  0  0  0  0  0  0  0  0  0
   -3.7268    4.9946   -4.0242 C   0  0  0  0  0  0  0  0  0  0  0  0
   -2.6213    5.0688   -4.6237 O   0  0  0  0  0  0  0  0  0  0  0  0
   -5.0271    5.0496   -4.6590 C   0  0  0  0  0  0  0  0  0  0  0  0
   -5.3198    4.8354   -6.0264 C   0  0  0  0  0  0  0  0  0  0  0  0
   -6.6739    4.7817   -6.3054 C   0  0  0  0  0  0  0  0  0  0  0  0
   -7.6864    4.9344   -5.3030 C   0  0  0  0  0  0  0  0  0  0  0  0
   -7.4050    5.1314   -3.9606 C   0  0  0  0  0  0  0  0  0  0  0  0
   -6.0181    5.1977   -3.6547 C   0  0  0  0  0  0  0  0  0  0  0  0
   -5.3520    5.2912   -2.3294 C   0  0  0  0  0  0  0  0  0  0  0  0
   -5.8778    5.8135   -1.1917 C   0  0  0  0  0  0  0  0  0  0  0  0
   -7.2360    6.2854   -1.1163 C   0  0  0  0  0  0  0  0  0  0  0  0
   -8.3241    6.6719   -1.0442 N   0  0  0  0  0  0  0  0  0  0  0  0
   -5.0767    6.0716   -0.0229 C   0  0  0  0  0  0  0  0  0  0  0  0
   -4.4408    6.2783    0.9209 N   0  0  0  0  0  0  0  0  0  0  0  0
   -8.7584    4.7162   -6.3292 C   0  0  0  0  0  0  0  0  0  0  0  0
   -9.5020    3.3467   -6.3212 C   0  0  0  0  0  0  0  0  0  0  0  0
   -8.5865    2.2635   -5.8027 C   0  0  0  0  0  0  0  0  0  0  0  0
   -7.6349    2.0990   -6.7226 C   0  0  0  0  0  0  0  0  0  0  0  0
   -7.9393    3.0728   -7.8397 C   0  0  0  0  0  0  0  0  0  0  0  0
   -9.4538    3.0125   -7.8011 C   0  0  0  0  0  0  0  0  0  0  0  0
   -7.7214    4.5385   -7.3513 C   0  0  0  0  0  0  0  0  0  0  0  0
    4.2983   -4.1728    6.6015 H   0  0  0  0  0  0  0  0  0  0  0  0
    7.0220  -10.8484    8.0594 H   0  0  0  0  0  0  0  0  0  0  0  0
    8.7592  -10.4493    6.3441 H   0  0  0  0  0  0  0  0  0  0  0  0
    8.9409   -8.2691    5.2302 H   0  0  0  0  0  0  0  0  0  0  0  0
    4.7943   -7.9540    3.9482 H   0  0  0  0  0  0  0  0  0  0  0  0
    3.9710   -6.6064    4.8036 H   0  0  0  0  0  0  0  0  0  0  0  0
    3.7038   -7.2683    1.8015 H   0  0  0  0  0  0  0  0  0  0  0  0
    2.8420   -5.9352    2.6697 H   0  0  0  0  0  0  0  0  0  0  0  0
    2.4903   -7.6602    3.0841 H   0  0  0  0  0  0  0  0  0  0  0  0
   -2.4170    0.3346   -3.7941 H   0  0  0  0  0  0  0  0  0  0  0  0
   -3.5799    0.9774   -5.0035 H   0  0  0  0  0  0  0  0  0  0  0  0
   -5.0015    1.9222   -3.1894 H   0  0  0  0  0  0  0  0  0  0  0  0
   -3.8436    1.3009   -1.9490 H   0  0  0  0  0  0  0  0  0  0  0  0
   -4.7661    0.1428   -2.9797 H   0  0  0  0  0  0  0  0  0  0  0  0
    3.7795    1.0166    2.6090 H   0  0  0  0  0  0  0  0  0  0  0  0
    5.2684    0.1895    2.9281 H   0  0  0  0  0  0  0  0  0  0  0  0
    5.0148    1.8400    0.3545 H   0  0  0  0  0  0  0  0  0  0  0  0
    6.4795    1.0499    1.0537 H   0  0  0  0  0  0  0  0  0  0  0  0
    5.6968    2.4319    1.9110 H   0  0  0  0  0  0  0  0  0  0  0  0
    1.5279    3.0665    0.7279 H   0  0  0  0  0  0  0  0  0  0  0  0
    2.9939    2.4123    1.2892 H   0  0  0  0  0  0  0  0  0  0  0  0
    1.6202    0.1956    1.8316 H   0  0  0  0  0  0  0  0  0  0  0  0
    1.1435    1.6632    2.7661 H   0  0  0  0  0  0  0  0  0  0  0  0
    0.1617    1.1349    1.3375 H   0  0  0  0  0  0  0  0  0  0  0  0
   -3.3765    4.3167   -0.6403 H   0  0  0  0  0  0  0  0  0  0  0  0
   -4.5580    4.6681   -6.7765 H   0  0  0  0  0  0  0  0  0  0  0  0
   -8.1929    5.1562   -3.2271 H   0  0  0  0  0  0  0  0  0  0  0  0
   -9.4063    5.6048   -6.5012 H   0  0  0  0  0  0  0  0  0  0  0  0
  -10.5161    3.3617   -5.8702 H   0  0  0  0  0  0  0  0  0  0  0  0
   -8.7116    1.6729   -4.9017 H   0  0  0  0  0  0  0  0  0  0  0  0
   -6.8536    1.3463   -6.6970 H   0  0  0  0  0  0  0  0  0  0  0  0
   -7.4768    2.8240   -8.8181 H   0  0  0  0  0  0  0  0  0  0  0  0
   -9.9475    3.7779   -8.4468 H   0  0  0  0  0  0  0  0  0  0  0  0
   -9.8652    2.0032   -8.0413 H   0  0  0  0  0  0  0  0  0  0  0  0
   -7.7456    5.3093   -8.1521 H   0  0  0  0  0  0  0  0  0  0  0  0
  1  2  2  3
  2  3  1  0
  3  4  2  0
  3  5  1  0
  5  6  2  0
  6  7  1  0
  6  8  1  0
  8  9  2  0
  9 10  1  0
 10 11  2  0
 11 12  1  0
 12 13  2  3
 13 14  1  0
 14 15  3  0
 13 16  1  0
 16 17  3  0
  1 18  1  0
 18 19  2  0
 19 20  1  0
 20 21  1  0
 21 22  1  0
 19 23  1  0
 23 24  1  0
 24 25  1  0
 25 26  1  0
 26 27  1  0
 27 28  1  0
 28 29  2  0
 29 30  1  0
 30 31  1  0
 28 32  1  0
 32 33  1  0
 33 34  1  0
 34 35  1  0
 35 36  1  0
 36 37  1  0
 37 38  1  0
 38 39  1  0
 36 40  2  0
 40 41  1  0
 41 42  1  0
 42 43  1  0
 43 44  1  0
 44 45  1  0
 45 46  1  0
 46 47  1  0
 47 48  1  0
 48 49  1  0
 49 50  1  0
 47 51  1  0
 51 52  1  0
 44 53  1  0
 53 54  1  0
 40 55  1  0
 55 56  2  3
 56 57  1  0
 57 58  2  0
 57 59  1  0
 59 60  2  0
 60 61  1  0
 61 62  2  0
 62 63  1  0
 63 64  2  0
 64 65  1  0
 65 66  2  3
 66 67  1  0
 67 68  3  0
 66 69  1  0
 69 70  3  0
 62 71  1  0
 71 72  1  0
 72 73  1  0
 73 74  2  0
 74 75  1  0
 75 76  1  0
 75 77  1  0
 12  2  1  0
 50 18  1  0
 65 56  1  0
 77 71  1  0
 11  5  1  0
 49 23  2  0
 64 59  1  0
 76 72  1  0
 48 25  2  0
 77 61  1  0
 46 26  2  0
 31 27  2  0
 45 32  2  0
 43 33  2  0
 42 35  2  0
  1 78  1  0
  8 79  1  0
  9 80  1  0
 10 81  1  0
 21 82  1  0
 21 83  1  0
 22 84  1  0
 22 85  1  0
 22 86  1  0
 38 87  1  0
 38 88  1  0
 39 89  1  0
 39 90  1  0
 39 91  1  0
 51 92  1  0
 51 93  1  0
 52 94  1  0
 52 95  1  0
 52 96  1  0
 53 97  1  0
 53 98  1  0
 54 99  1  0
 54100  1  0
 54101  1  0
 55102  1  0
 60103  1  0
 63104  1  0
 71105  1  0
 72106  1  0
 73107  1  0
 74108  1  0
 75109  1  0
 76110  1  0
 76111  1  0
 77112  1  0
M  END

