
     RDKit          3D

 97108  0  0  0  0  0  0  0  0999 V2000
    1.7036   -7.1992    2.0843 C   0  0  0  0  0  0  0  0  0  0  0  0
    1.0374   -7.4086    3.2351 C   0  0  0  0  0  0  0  0  0  0  0  0
   -0.1558   -6.6831    3.6793 C   0  0  0  0  0  0  0  0  0  0  0  0
   -0.9180   -5.9977    2.9525 O   0  0  0  0  0  0  0  0  0  0  0  0
   -0.3629   -6.9405    5.0947 C   0  0  0  0  0  0  0  0  0  0  0  0
   -1.3323   -6.4010    5.9508 C   0  0  0  0  0  0  0  0  0  0  0  0
   -2.5310   -5.2475    5.4037 Cl  0  0  0  0  0  0  0  0  0  0  0  0
   -1.3271   -6.8020    7.2944 C   0  0  0  0  0  0  0  0  0  0  0  0
   -0.3666   -7.7127    7.7572 C   0  0  0  0  0  0  0  0  0  0  0  0
    0.6022   -8.2354    6.8879 C   0  0  0  0  0  0  0  0  0  0  0  0
    0.5938   -7.8401    5.5404 C   0  0  0  0  0  0  0  0  0  0  0  0
    1.4738   -8.2461    4.3983 C   0  0  0  0  0  0  0  0  0  0  0  0
    2.3528   -9.2847    4.3692 C   0  0  0  0  0  0  0  0  0  0  0  0
    2.8901   -9.8128    3.1390 C   0  0  0  0  0  0  0  0  0  0  0  0
    3.3214  -10.2447    2.1571 N   0  0  0  0  0  0  0  0  0  0  0  0
    2.7421  -10.0188    5.5463 C   0  0  0  0  0  0  0  0  0  0  0  0
    3.0669  -10.6208    6.4819 N   0  0  0  0  0  0  0  0  0  0  0  0
    1.2943   -6.2185    1.0682 C   0  0  0  0  0  0  0  0  0  0  0  0
    1.0922   -6.5001   -0.2967 C   0  0  0  0  0  0  0  0  0  0  0  0
    1.1850   -7.8679   -0.9125 C   0  0  0  0  0  0  0  0  0  0  0  0
    2.5997   -8.1354   -1.4129 C   0  0  0  0  0  0  0  0  0  0  0  0
    0.8603   -5.3245   -1.0130 C   0  0  0  0  0  0  0  0  0  0  0  0
    0.4880   -4.9797   -2.6451 S   0  0  0  0  0  0  0  0  0  0  0  0
    0.4338   -3.3139   -2.3109 C   0  0  0  0  0  0  0  0  0  0  0  0
   -0.0170   -2.1557   -2.8863 C   0  0  0  0  0  0  0  0  0  0  0  0
   -0.6725   -1.9022   -4.1018 C   0  0  0  0  0  0  0  0  0  0  0  0
   -1.2644   -0.6115   -4.3081 C   0  0  0  0  0  0  0  0  0  0  0  0
   -1.8920   -0.4070   -5.4896 N   0  0  0  0  0  0  0  0  0  0  0  0
   -1.6782   -1.8977   -6.1816 S   0  0  0  0  0  0  0  0  0  0  0  0
   -0.8323   -2.8166   -5.0904 N   0  0  0  0  0  0  0  0  0  0  0  0
   -1.1328    0.3602   -3.3067 C   0  0  0  0  0  0  0  0  0  0  0  0
   -1.4605    1.6870   -3.2437 C   0  0  0  0  0  0  0  0  0  0  0  0
   -2.1948    2.9057   -4.1766 S   0  0  0  0  0  0  0  0  0  0  0  0
   -1.7453    4.0941   -3.0266 C   0  0  0  0  0  0  0  0  0  0  0  0
   -1.9214    5.4761   -2.9236 C   0  0  0  0  0  0  0  0  0  0  0  0
   -2.7076    6.3047   -3.9030 C   0  0  0  0  0  0  0  0  0  0  0  0
   -4.2069    6.1619   -3.6624 C   0  0  0  0  0  0  0  0  0  0  0  0
   -1.2717    5.9748   -1.7737 C   0  0  0  0  0  0  0  0  0  0  0  0
   -0.5469    4.7021   -0.9004 S   0  0  0  0  0  0  0  0  0  0  0  0
   -1.0280    3.5417   -1.9984 C   0  0  0  0  0  0  0  0  0  0  0  0
   -0.8872    2.1773   -2.1152 C   0  0  0  0  0  0  0  0  0  0  0  0
   -0.1756    1.2545   -1.4290 N   0  0  0  0  0  0  0  0  0  0  0  0
   -0.4098    0.1090   -2.1323 C   0  0  0  0  0  0  0  0  0  0  0  0
    0.0464   -1.1977   -1.8677 C   0  0  0  0  0  0  0  0  0  0  0  0
    0.3728   -1.7611   -0.6631 N   0  0  0  0  0  0  0  0  0  0  0  0
    0.6654   -3.0404   -1.0011 C   0  0  0  0  0  0  0  0  0  0  0  0
    0.8930   -4.1828   -0.2564 C   0  0  0  0  0  0  0  0  0  0  0  0
    1.2178   -4.5344    1.3459 S   0  0  0  0  0  0  0  0  0  0  0  0
   -0.1571   -1.3695    0.6562 C   0  0  0  0  0  0  0  0  0  0  0  0
   -1.5672   -1.9261    0.8576 C   0  0  0  0  0  0  0  0  0  0  0  0
    1.0170    1.5527   -0.6140 C   0  0  0  0  0  0  0  0  0  0  0  0
    2.1027    2.2226   -1.4591 C   0  0  0  0  0  0  0  0  0  0  0  0
   -1.2845    7.3549   -1.2787 C   0  0  0  0  0  0  0  0  0  0  0  0
   -0.1800    7.9436   -0.7909 C   0  0  0  0  0  0  0  0  0  0  0  0
   -0.2105    8.8250    0.3786 C   0  0  0  0  0  0  0  0  0  0  0  0
   -1.2335    9.3807    0.8624 O   0  0  0  0  0  0  0  0  0  0  0  0
    1.1077    8.8037    0.9956 C   0  0  0  0  0  0  0  0  0  0  0  0
    1.9590    8.0208    0.2280 C   0  0  0  0  0  0  0  0  0  0  0  0
    3.2631    7.7621    0.6757 C   0  0  0  0  0  0  0  0  0  0  0  0
    3.6834    8.2985    1.9034 C   0  0  0  0  0  0  0  0  0  0  0  0
    4.9239    8.0151    2.3699 F   0  0  0  0  0  0  0  0  0  0  0  0
    2.7970    9.0633    2.6865 C   0  0  0  0  0  0  0  0  0  0  0  0
    3.2026    9.5529    3.8861 F   0  0  0  0  0  0  0  0  0  0  0  0
    1.4998    9.3303    2.2296 C   0  0  0  0  0  0  0  0  0  0  0  0
    0.6293   10.0328    3.0024 F   0  0  0  0  0  0  0  0  0  0  0  0
    1.2454    7.5405   -0.9851 C   0  0  0  0  0  0  0  0  0  0  0  0
    1.8049    7.1309   -2.1470 C   0  0  0  0  0  0  0  0  0  0  0  0
    3.2164    6.8885   -2.2943 C   0  0  0  0  0  0  0  0  0  0  0  0
    4.3493    6.6923   -2.4477 N   0  0  0  0  0  0  0  0  0  0  0  0
    1.0529    7.0659   -3.3759 C   0  0  0  0  0  0  0  0  0  0  0  0
    0.4848    7.0032   -4.3797 N   0  0  0  0  0  0  0  0  0  0  0  0
    2.6222   -7.7183    1.8713 H   0  0  0  0  0  0  0  0  0  0  0  0
   -2.0589   -6.4033    7.9846 H   0  0  0  0  0  0  0  0  0  0  0  0
   -0.3540   -7.9953    8.8032 H   0  0  0  0  0  0  0  0  0  0  0  0
    1.3322   -8.9154    7.2949 H   0  0  0  0  0  0  0  0  0  0  0  0
    0.4739   -7.9544   -1.7643 H   0  0  0  0  0  0  0  0  0  0  0  0
    0.9092   -8.6421   -0.1620 H   0  0  0  0  0  0  0  0  0  0  0  0
    2.6699   -9.1768   -1.7826 H   0  0  0  0  0  0  0  0  0  0  0  0
    3.3368   -8.0009   -0.5929 H   0  0  0  0  0  0  0  0  0  0  0  0
    2.8478   -7.4539   -2.2529 H   0  0  0  0  0  0  0  0  0  0  0  0
   -2.4632    5.9840   -4.9342 H   0  0  0  0  0  0  0  0  0  0  0  0
   -2.4296    7.3733   -3.8209 H   0  0  0  0  0  0  0  0  0  0  0  0
   -4.7634    6.7988   -4.3939 H   0  0  0  0  0  0  0  0  0  0  0  0
   -4.4673    6.4933   -2.6353 H   0  0  0  0  0  0  0  0  0  0  0  0
   -4.5204    5.1043   -3.7956 H   0  0  0  0  0  0  0  0  0  0  0  0
    0.5141   -1.7418    1.4652 H   0  0  0  0  0  0  0  0  0  0  0  0
   -0.2271   -0.2751    0.7593 H   0  0  0  0  0  0  0  0  0  0  0  0
   -1.9528   -1.6174    1.8524 H   0  0  0  0  0  0  0  0  0  0  0  0
   -2.2487   -1.5250    0.0731 H   0  0  0  0  0  0  0  0  0  0  0  0
   -1.5679   -3.0326    0.8073 H   0  0  0  0  0  0  0  0  0  0  0  0
    1.4696    0.6297   -0.2111 H   0  0  0  0  0  0  0  0  0  0  0  0
    0.7419    2.2058    0.2321 H   0  0  0  0  0  0  0  0  0  0  0  0
    2.4060    1.5468   -2.2881 H   0  0  0  0  0  0  0  0  0  0  0  0
    1.7538    3.1888   -1.8829 H   0  0  0  0  0  0  0  0  0  0  0  0
    2.9927    2.4259   -0.8213 H   0  0  0  0  0  0  0  0  0  0  0  0
   -2.2580    7.7667   -1.0280 H   0  0  0  0  0  0  0  0  0  0  0  0
    3.9435    7.1285    0.1282 H   0  0  0  0  0  0  0  0  0  0  0  0
  1  2  2  3
  2  3  1  0
  3  4  2  0
  3  5  1  0
  5  6  2  0
  6  7  1  0
  6  8  1  0
  8  9  2  0
  9 10  1  0
 10 11  2  0
 11 12  1  0
 12 13  2  3
 13 14  1  0
 14 15  3  0
 13 16  1  0
 16 17  3  0
  1 18  1  0
 18 19  2  0
 19 20  1  0
 20 21  1  0
 19 22  1  0
 22 23  1  0
 23 24  1  0
 24 25  1  0
 25 26  1  0
 26 27  1  0
 27 28  2  0
 28 29  1  0
 29 30  1  0
 27 31  1  0
 31 32  1  0
 32 33  1  0
 33 34  1  0
 34 35  1  0
 35 36  1  0
 36 37  1  0
 35 38  2  0
 38 39  1  0
 39 40  1  0
 40 41  1  0
 41 42  1  0
 42 43  1  0
 43 44  1  0
 44 45  1  0
 45 46  1  0
 46 47  1  0
 47 48  1  0
 45 49  1  0
 49 50  1  0
 42 51  1  0
 51 52  1  0
 38 53  1  0
 53 54  2  3
 54 55  1  0
 55 56  2  0
 55 57  1  0
 57 58  2  0
 58 59  1  0
 59 60  2  0
 60 61  1  0
 60 62  1  0
 62 63  1  0
 62 64  2  0
 64 65  1  0
 58 66  1  0
 66 67  2  3
 67 68  1  0
 68 69  3  0
 67 70  1  0
 70 71  3  0
 12  2  1  0
 48 18  1  0
 66 54  1  0
 11  5  1  0
 47 22  2  0
 64 57  1  0
 46 24  2  0
 44 25  2  0
 30 26  2  0
 43 31  2  0
 41 32  2  0
 40 34  2  0
  1 72  1  0
  8 73  1  0
  9 74  1  0
 10 75  1  0
 20 76  1  0
 20 77  1  0
 21 78  1  0
 21 79  1  0
 21 80  1  0
 36 81  1  0
 36 82  1  0
 37 83  1  0
 37 84  1  0
 37 85  1  0
 49 86  1  0
 49 87  1  0
 50 88  1  0
 50 89  1  0
 50 90  1  0
 51 91  1  0
 51 92  1  0
 52 93  1  0
 52 94  1  0
 52 95  1  0
 53 96  1  0
 59 97  1  0
M  END

