
     RDKit          3D

134150  0  0  0  0  0  0  0  0999 V2000
    2.8802    5.7927   -0.3673 C   0  0  0  0  0  0  0  0  0  0  0  0
    3.5135    4.6307   -0.1088 C   0  0  0  0  0  0  0  0  0  0  0  0
    2.8952    3.4307    0.4770 C   0  0  0  0  0  0  0  0  0  0  0  0
    1.6654    3.2236    0.6546 O   0  0  0  0  0  0  0  0  0  0  0  0
    3.9479    2.5510    0.9286 C   0  0  0  0  0  0  0  0  0  0  0  0
    3.8200    1.3491    1.6203 C   0  0  0  0  0  0  0  0  0  0  0  0
    4.9817    0.6946    2.0447 C   0  0  0  0  0  0  0  0  0  0  0  0
    6.2551    1.2626    1.7995 C   0  0  0  0  0  0  0  0  0  0  0  0
    7.4410    0.6541    2.2387 O   0  0  0  0  0  0  0  0  0  0  0  0
    7.4943   -0.5693    2.9665 C   0  0  0  0  0  0  0  0  0  0  0  0
    6.3496    2.4820    1.1019 C   0  0  0  0  0  0  0  0  0  0  0  0
    5.1794    3.1100    0.6421 C   0  0  0  0  0  0  0  0  0  0  0  0
    4.9887    4.3868   -0.1070 C   0  0  0  0  0  0  0  0  0  0  0  0
    5.9160    5.0370   -0.8571 C   0  0  0  0  0  0  0  0  0  0  0  0
    5.5605    6.0959   -1.7674 C   0  0  0  0  0  0  0  0  0  0  0  0
    5.2767    6.9400   -2.5056 N   0  0  0  0  0  0  0  0  0  0  0  0
    7.2916    4.6183   -0.9211 C   0  0  0  0  0  0  0  0  0  0  0  0
    8.3996    4.2880   -0.9866 N   0  0  0  0  0  0  0  0  0  0  0  0
    1.4164    5.9171   -0.3449 C   0  0  0  0  0  0  0  0  0  0  0  0
    0.6711    6.5380    0.6674 C   0  0  0  0  0  0  0  0  0  0  0  0
    1.2587    7.1544    1.8716 C   0  0  0  0  0  0  0  0  0  0  0  0
    1.8605    6.3213    2.8288 C   0  0  0  0  0  0  0  0  0  0  0  0
    2.4459    6.8664    3.9729 C   0  0  0  0  0  0  0  0  0  0  0  0
    2.4381    8.2479    4.1710 C   0  0  0  0  0  0  0  0  0  0  0  0
    1.8403    9.0886    3.2288 C   0  0  0  0  0  0  0  0  0  0  0  0
    1.2340    8.5557    2.0773 C   0  0  0  0  0  0  0  0  0  0  0  0
    0.6532    9.5024    1.0531 C   0  0  0  0  0  0  0  0  0  0  0  0
    1.6973    9.8714    0.0049 C   0  0  0  0  0  0  0  0  0  0  0  0
   -0.6898    6.2608    0.5265 C   0  0  0  0  0  0  0  0  0  0  0  0
   -1.9579    6.3216    1.6492 S   0  0  0  0  0  0  0  0  0  0  0  0
   -2.9521    5.3568    0.6655 C   0  0  0  0  0  0  0  0  0  0  0  0
   -3.8873    4.4043    0.9696 C   0  0  0  0  0  0  0  0  0  0  0  0
   -4.4254    4.0785    2.2259 C   0  0  0  0  0  0  0  0  0  0  0  0
   -4.9883    2.7839    2.4219 C   0  0  0  0  0  0  0  0  0  0  0  0
   -5.4311    2.4824    3.6680 N   0  0  0  0  0  0  0  0  0  0  0  0
   -5.0602    3.8974    4.4432 S   0  0  0  0  0  0  0  0  0  0  0  0
   -4.3653    4.8876    3.3123 N   0  0  0  0  0  0  0  0  0  0  0  0
   -5.0576    1.9147    1.3337 C   0  0  0  0  0  0  0  0  0  0  0  0
   -5.4545    0.6092    1.2362 C   0  0  0  0  0  0  0  0  0  0  0  0
   -5.5185   -0.7228    2.2857 S   0  0  0  0  0  0  0  0  0  0  0  0
   -5.3642   -1.8002    0.9679 C   0  0  0  0  0  0  0  0  0  0  0  0
   -5.0413   -3.1558    0.8958 C   0  0  0  0  0  0  0  0  0  0  0  0
   -4.9266   -4.0346    2.0736 C   0  0  0  0  0  0  0  0  0  0  0  0
   -3.8113   -3.9792    2.9497 C   0  0  0  0  0  0  0  0  0  0  0  0
   -2.6163   -3.0894    2.6868 C   0  0  0  0  0  0  0  0  0  0  0  0
   -1.5028   -3.8686    1.9948 C   0  0  0  0  0  0  0  0  0  0  0  0
   -3.7769   -4.8342    4.0653 C   0  0  0  0  0  0  0  0  0  0  0  0
   -4.8287   -5.7181    4.3168 C   0  0  0  0  0  0  0  0  0  0  0  0
   -5.9215   -5.7717    3.4509 C   0  0  0  0  0  0  0  0  0  0  0  0
   -5.9699   -4.9359    2.3334 C   0  0  0  0  0  0  0  0  0  0  0  0
   -4.6703   -3.5191   -0.4114 C   0  0  0  0  0  0  0  0  0  0  0  0
   -4.7639   -2.1587   -1.4422 S   0  0  0  0  0  0  0  0  0  0  0  0
   -5.2596   -1.1266   -0.2215 C   0  0  0  0  0  0  0  0  0  0  0  0
   -5.2831    0.2444   -0.0592 C   0  0  0  0  0  0  0  0  0  0  0  0
   -4.7848    1.2415   -0.8259 N   0  0  0  0  0  0  0  0  0  0  0  0
   -4.5812    2.2634    0.0618 C   0  0  0  0  0  0  0  0  0  0  0  0
   -3.8608    3.4804   -0.0900 C   0  0  0  0  0  0  0  0  0  0  0  0
   -2.8321    3.7777   -0.9534 N   0  0  0  0  0  0  0  0  0  0  0  0
   -2.3141    4.9407   -0.4700 C   0  0  0  0  0  0  0  0  0  0  0  0
   -1.0211    5.4699   -0.5484 C   0  0  0  0  0  0  0  0  0  0  0  0
    0.3767    5.0611   -1.3840 S   0  0  0  0  0  0  0  0  0  0  0  0
   -2.0929    2.8486   -1.8239 C   0  0  0  0  0  0  0  0  0  0  0  0
   -2.0728    3.3489   -3.2694 C   0  0  0  0  0  0  0  0  0  0  0  0
   -4.9595    1.3334   -2.2791 C   0  0  0  0  0  0  0  0  0  0  0  0
   -6.4383    1.2509   -2.6619 C   0  0  0  0  0  0  0  0  0  0  0  0
   -4.2485   -4.8658   -0.8313 C   0  0  0  0  0  0  0  0  0  0  0  0
   -3.1429   -5.1197   -1.5591 C   0  0  0  0  0  0  0  0  0  0  0  0
   -2.0108   -4.1987   -1.7527 C   0  0  0  0  0  0  0  0  0  0  0  0
   -1.9630   -2.9828   -1.4313 O   0  0  0  0  0  0  0  0  0  0  0  0
   -0.8775   -4.9535   -2.2333 C   0  0  0  0  0  0  0  0  0  0  0  0
    0.4219   -4.4572   -2.4862 C   0  0  0  0  0  0  0  0  0  0  0  0
    1.3265   -5.4288   -2.8661 C   0  0  0  0  0  0  0  0  0  0  0  0
    0.9861   -6.8144   -2.9743 C   0  0  0  0  0  0  0  0  0  0  0  0
   -0.2825   -7.3092   -2.7174 C   0  0  0  0  0  0  0  0  0  0  0  0
   -1.2420   -6.3185   -2.3587 C   0  0  0  0  0  0  0  0  0  0  0  0
   -2.6935   -6.4612   -2.0472 C   0  0  0  0  0  0  0  0  0  0  0  0
   -3.4980   -7.5003   -2.3931 C   0  0  0  0  0  0  0  0  0  0  0  0
   -2.9949   -8.7126   -2.9840 C   0  0  0  0  0  0  0  0  0  0  0  0
   -2.6085   -9.6934   -3.4623 N   0  0  0  0  0  0  0  0  0  0  0  0
   -4.9349   -7.4103   -2.3289 C   0  0  0  0  0  0  0  0  0  0  0  0
   -6.0891   -7.3411   -2.2890 N   0  0  0  0  0  0  0  0  0  0  0  0
    2.3901   -7.1427   -3.3949 C   0  0  0  0  0  0  0  0  0  0  0  0
    2.6395   -7.4668   -4.8988 C   0  0  0  0  0  0  0  0  0  0  0  0
    1.6458   -6.7223   -5.7607 C   0  0  0  0  0  0  0  0  0  0  0  0
    1.9538   -5.4278   -5.6659 C   0  0  0  0  0  0  0  0  0  0  0  0
    3.1487   -5.3348   -4.7432 C   0  0  0  0  0  0  0  0  0  0  0  0
    3.8652   -6.6072   -5.1540 C   0  0  0  0  0  0  0  0  0  0  0  0
    2.7344   -5.7205   -3.2899 C   0  0  0  0  0  0  0  0  0  0  0  0
    3.4401    6.7019   -0.5199 H   0  0  0  0  0  0  0  0  0  0  0  0
    2.8436    0.9323    1.8337 H   0  0  0  0  0  0  0  0  0  0  0  0
    4.8808   -0.2413    2.5762 H   0  0  0  0  0  0  0  0  0  0  0  0
    8.5525   -0.8075    3.1979 H   0  0  0  0  0  0  0  0  0  0  0  0
    7.0669   -1.3943    2.3578 H   0  0  0  0  0  0  0  0  0  0  0  0
    6.9357   -0.4705    3.9233 H   0  0  0  0  0  0  0  0  0  0  0  0
    7.3232    2.9214    0.9674 H   0  0  0  0  0  0  0  0  0  0  0  0
    1.8774    5.2472    2.6882 H   0  0  0  0  0  0  0  0  0  0  0  0
    2.9091    6.2177    4.7052 H   0  0  0  0  0  0  0  0  0  0  0  0
    2.9017    8.6695    5.0546 H   0  0  0  0  0  0  0  0  0  0  0  0
    1.8583   10.1604    3.3943 H   0  0  0  0  0  0  0  0  0  0  0  0
    0.2980   10.4316    1.5492 H   0  0  0  0  0  0  0  0  0  0  0  0
   -0.2302    9.0541    0.5534 H   0  0  0  0  0  0  0  0  0  0  0  0
    2.0459    8.9633   -0.5296 H   0  0  0  0  0  0  0  0  0  0  0  0
    1.2522   10.5683   -0.7358 H   0  0  0  0  0  0  0  0  0  0  0  0
    2.5667   10.3695    0.4841 H   0  0  0  0  0  0  0  0  0  0  0  0
   -2.8829   -2.2139    2.0621 H   0  0  0  0  0  0  0  0  0  0  0  0
   -2.2302   -2.6850    3.6486 H   0  0  0  0  0  0  0  0  0  0  0  0
   -0.6679   -3.1821    1.7404 H   0  0  0  0  0  0  0  0  0  0  0  0
   -1.1184   -4.6662    2.6645 H   0  0  0  0  0  0  0  0  0  0  0  0
   -1.8802   -4.3345    1.0619 H   0  0  0  0  0  0  0  0  0  0  0  0
   -2.9284   -4.8184    4.7396 H   0  0  0  0  0  0  0  0  0  0  0  0
   -4.7892   -6.3709    5.1793 H   0  0  0  0  0  0  0  0  0  0  0  0
   -6.7325   -6.4607    3.6469 H   0  0  0  0  0  0  0  0  0  0  0  0
   -6.8248   -4.9882    1.6705 H   0  0  0  0  0  0  0  0  0  0  0  0
   -1.0513    2.7314   -1.4584 H   0  0  0  0  0  0  0  0  0  0  0  0
   -2.5027    1.8271   -1.7780 H   0  0  0  0  0  0  0  0  0  0  0  0
   -1.4324    4.2468   -3.3652 H   0  0  0  0  0  0  0  0  0  0  0  0
   -1.6692    2.5552   -3.9352 H   0  0  0  0  0  0  0  0  0  0  0  0
   -3.0892    3.6230   -3.6142 H   0  0  0  0  0  0  0  0  0  0  0  0
   -4.3979    0.5158   -2.7808 H   0  0  0  0  0  0  0  0  0  0  0  0
   -4.5946    2.3051   -2.6509 H   0  0  0  0  0  0  0  0  0  0  0  0
   -6.8573    0.2621   -2.3765 H   0  0  0  0  0  0  0  0  0  0  0  0
   -7.0085    2.0547   -2.1468 H   0  0  0  0  0  0  0  0  0  0  0  0
   -6.5477    1.3804   -3.7583 H   0  0  0  0  0  0  0  0  0  0  0  0
   -4.8509   -5.6840   -0.4677 H   0  0  0  0  0  0  0  0  0  0  0  0
    0.6898   -3.4124   -2.3912 H   0  0  0  0  0  0  0  0  0  0  0  0
   -0.4796   -8.3660   -2.7744 H   0  0  0  0  0  0  0  0  0  0  0  0
    2.9404   -7.7887   -2.6740 H   0  0  0  0  0  0  0  0  0  0  0  0
    2.7544   -8.5438   -5.1397 H   0  0  0  0  0  0  0  0  0  0  0  0
    0.8707   -7.1478   -6.3886 H   0  0  0  0  0  0  0  0  0  0  0  0
    1.4725   -4.6188   -6.2049 H   0  0  0  0  0  0  0  0  0  0  0  0
    3.7420   -4.4016   -4.8366 H   0  0  0  0  0  0  0  0  0  0  0  0
    4.7316   -6.8614   -4.5000 H   0  0  0  0  0  0  0  0  0  0  0  0
    4.1926   -6.6075   -6.2227 H   0  0  0  0  0  0  0  0  0  0  0  0
    3.4954   -5.4999   -2.5090 H   0  0  0  0  0  0  0  0  0  0  0  0
  1  2  2  3
  2  3  1  0
  3  4  2  0
  3  5  1  0
  5  6  2  0
  6  7  1  0
  7  8  2  0
  8  9  1  0
  9 10  1  0
  8 11  1  0
 11 12  2  0
 12 13  1  0
 13 14  2  3
 14 15  1  0
 15 16  3  0
 14 17  1  0
 17 18  3  0
  1 19  1  0
 19 20  2  0
 20 21  1  0
 21 22  2  0
 22 23  1  0
 23 24  2  0
 24 25  1  0
 25 26  2  0
 26 27  1  0
 27 28  1  0
 20 29  1  0
 29 30  1  0
 30 31  1  0
 31 32  1  0
 32 33  1  0
 33 34  1  0
 34 35  2  0
 35 36  1  0
 36 37  1  0
 34 38  1  0
 38 39  1  0
 39 40  1  0
 40 41  1  0
 41 42  1  0
 42 43  1  0
 43 44  2  0
 44 45  1  0
 45 46  1  0
 44 47  1  0
 47 48  2  0
 48 49  1  0
 49 50  2  0
 42 51  2  0
 51 52  1  0
 52 53  1  0
 53 54  1  0
 54 55  1  0
 55 56  1  0
 56 57  1  0
 57 58  1  0
 58 59  1  0
 59 60  1  0
 60 61  1  0
 58 62  1  0
 62 63  1  0
 55 64  1  0
 64 65  1  0
 51 66  1  0
 66 67  2  3
 67 68  1  0
 68 69  2  0
 68 70  1  0
 70 71  2  0
 71 72  1  0
 72 73  2  0
 73 74  1  0
 74 75  2  0
 75 76  1  0
 76 77  2  3
 77 78  1  0
 78 79  3  0
 77 80  1  0
 80 81  3  0
 73 82  1  0
 82 83  1  0
 83 84  1  0
 84 85  2  0
 85 86  1  0
 86 87  1  0
 86 88  1  0
 13  2  1  0
 61 19  1  0
 76 67  1  0
 88 82  1  0
 12  5  1  0
 26 21  1  0
 60 29  2  0
 75 70  1  0
 87 83  1  0
 59 31  2  0
 88 72  1  0
 57 32  2  0
 37 33  2  0
 56 38  2  0
 54 39  2  0
 53 41  2  0
 50 43  1  0
  1 89  1  0
  6 90  1  0
  7 91  1  0
 10 92  1  0
 10 93  1  0
 10 94  1  0
 11 95  1  0
 22 96  1  0
 23 97  1  0
 24 98  1  0
 25 99  1  0
 27100  1  0
 27101  1  0
 28102  1  0
 28103  1  0
 28104  1  0
 45105  1  0
 45106  1  0
 46107  1  0
 46108  1  0
 46109  1  0
 47110  1  0
 48111  1  0
 49112  1  0
 50113  1  0
 62114  1  0
 62115  1  0
 63116  1  0
 63117  1  0
 63118  1  0
 64119  1  0
 64120  1  0
 65121  1  0
 65122  1  0
 65123  1  0
 66124  1  0
 71125  1  0
 74126  1  0
 82127  1  0
 83128  1  0
 84129  1  0
 85130  1  0
 86131  1  0
 87132  1  0
 87133  1  0
 88134  1  0
M  END

