
     RDKit          3D

 89100  0  0  0  0  0  0  0  0999 V2000
   -6.5446   -1.7795    3.2295 C   0  0  0  0  0  0  0  0  0  0  0  0
   -6.6408   -2.7859    2.4076 C   0  0  0  0  0  0  0  0  0  0  0  0
   -5.7668   -3.2739    1.3807 C   0  0  0  0  0  0  0  0  0  0  0  0
   -4.5138   -3.0031    1.3418 O   0  0  0  0  0  0  0  0  0  0  0  0
   -6.4778   -4.1043    0.4262 C   0  0  0  0  0  0  0  0  0  0  0  0
   -6.0228   -4.6348   -0.7757 C   0  0  0  0  0  0  0  0  0  0  0  0
   -6.9029   -5.2465   -1.6305 C   0  0  0  0  0  0  0  0  0  0  0  0
   -8.2692   -5.3564   -1.3106 C   0  0  0  0  0  0  0  0  0  0  0  0
   -9.1352   -5.9686   -2.2064 O   0  0  0  0  0  0  0  0  0  0  0  0
  -10.5045   -6.1261   -2.0627 C   0  0  0  0  0  0  0  0  0  0  0  0
   -8.6655   -4.8063   -0.0784 C   0  0  0  0  0  0  0  0  0  0  0  0
   -7.7976   -4.1785    0.8049 C   0  0  0  0  0  0  0  0  0  0  0  0
   -8.0053   -3.3722    2.0556 C   0  0  0  0  0  0  0  0  0  0  0  0
   -9.1258   -2.9964    2.4490 C   0  0  0  0  0  0  0  0  0  0  0  0
   -9.3049   -1.8047    3.3914 C   0  0  0  0  0  0  0  0  0  0  0  0
   -9.4578   -0.8850    4.1199 N   0  0  0  0  0  0  0  0  0  0  0  0
  -10.3945   -3.5561    2.1786 C   0  0  0  0  0  0  0  0  0  0  0  0
  -11.5419   -4.0596    1.9471 N   0  0  0  0  0  0  0  0  0  0  0  0
   -5.3909   -0.8942    3.1516 C   0  0  0  0  0  0  0  0  0  0  0  0
   -5.6536    0.4830    2.7976 C   0  0  0  0  0  0  0  0  0  0  0  0
   -4.6306    1.3115    2.5968 C   0  0  0  0  0  0  0  0  0  0  0  0
   -4.6061    3.0153    1.9261 S   0  0  0  0  0  0  0  0  0  0  0  0
   -2.8982    3.1420    1.8425 C   0  0  0  0  0  0  0  0  0  0  0  0
   -1.8575    3.9223    1.3632 C   0  0  0  0  0  0  0  0  0  0  0  0
   -1.9671    5.0990    0.5969 C   0  0  0  0  0  0  0  0  0  0  0  0
   -0.8291    5.5371   -0.0020 C   0  0  0  0  0  0  0  0  0  0  0  0
   -0.9515    6.6573   -0.7322 N   0  0  0  0  0  0  0  0  0  0  0  0
   -2.5697    7.0875   -0.6136 S   0  0  0  0  0  0  0  0  0  0  0  0
   -3.0533    5.8210    0.3935 N   0  0  0  0  0  0  0  0  0  0  0  0
    0.3614    4.8133    0.1977 C   0  0  0  0  0  0  0  0  0  0  0  0
    1.5948    4.9456   -0.4325 C   0  0  0  0  0  0  0  0  0  0  0  0
    2.4030    3.9248   -0.0375 C   0  0  0  0  0  0  0  0  0  0  0  0
    1.6652    3.1570    0.8621 N   0  0  0  0  0  0  0  0  0  0  0  0
    2.2998    2.1995    1.7245 C   0  0  0  0  0  0  0  0  0  0  0  0
    2.7009    2.8489    3.0637 C   0  0  0  0  0  0  0  0  0  0  0  0
    0.4475    3.6793    0.9787 C   0  0  0  0  0  0  0  0  0  0  0  0
   -0.7218    3.1882    1.5843 C   0  0  0  0  0  0  0  0  0  0  0  0
   -1.0283    2.0030    2.1644 N   0  0  0  0  0  0  0  0  0  0  0  0
   -2.4196    1.9523    2.3243 C   0  0  0  0  0  0  0  0  0  0  0  0
   -3.3949    1.1741    2.6501 C   0  0  0  0  0  0  0  0  0  0  0  0
   -3.5841   -0.9422    3.2031 Se  0  0  0  0  0  2  0  0  0  0  0  0
   -0.2365    0.8929    2.5539 C   0  0  0  0  0  0  0  0  0  0  0  0
    0.2248    0.9546    3.9703 C   0  0  0  0  0  0  0  0  0  0  0  0
    3.5312    3.8921   -0.6777 C   0  0  0  0  0  0  0  0  0  0  0  0
    3.9453    4.6804   -1.5973 C   0  0  0  0  0  0  0  0  0  0  0  0
    2.5104    5.7520   -1.6416 S   0  0  0  0  0  0  0  0  0  0  0  0
    5.0581    4.5559   -2.3759 C   0  0  0  0  0  0  0  0  0  0  0  0
    5.9291    3.6078   -2.3562 C   0  0  0  0  0  0  0  0  0  0  0  0
    5.0996    2.4757   -0.8445 Se  0  0  0  0  0  2  0  0  0  0  0  0
    7.1369    2.9748   -2.8704 C   0  0  0  0  0  0  0  0  0  0  0  0
    6.8564    1.7573   -3.3912 C   0  0  0  0  0  0  0  0  0  0  0  0
    5.5360    1.1061   -3.4886 C   0  0  0  0  0  0  0  0  0  0  0  0
    4.4321    1.6887   -3.2505 O   0  0  0  0  0  0  0  0  0  0  0  0
    5.6938   -0.2608   -3.9123 C   0  0  0  0  0  0  0  0  0  0  0  0
    4.6984   -1.2164   -4.1287 C   0  0  0  0  0  0  0  0  0  0  0  0
    5.0413   -2.4796   -4.5414 C   0  0  0  0  0  0  0  0  0  0  0  0
    3.8253   -3.6705   -4.8440 Cl  0  0  0  0  0  0  0  0  0  0  0  0
    6.3635   -2.7698   -4.7282 C   0  0  0  0  0  0  0  0  0  0  0  0
    6.7734   -4.4030   -5.2559 Cl  0  0  0  0  0  0  0  0  0  0  0  0
    7.3702   -1.8202   -4.5139 C   0  0  0  0  0  0  0  0  0  0  0  0
    7.0235   -0.5259   -4.0923 C   0  0  0  0  0  0  0  0  0  0  0  0
    7.8077    0.6785   -3.7950 C   0  0  0  0  0  0  0  0  0  0  0  0
    9.0439    0.9028   -3.9288 C   0  0  0  0  0  0  0  0  0  0  0  0
    9.7883    2.0613   -3.7869 C   0  0  0  0  0  0  0  0  0  0  0  0
   10.4261    3.0718   -3.6600 N   0  0  0  0  0  0  0  0  0  0  0  0
    9.9775   -0.3526   -4.2202 C   0  0  0  0  0  0  0  0  0  0  0  0
   10.5898   -1.1623   -4.4079 N   0  0  0  0  0  0  0  0  0  0  0  0
   -7.2130   -1.5805    4.0468 H   0  0  0  0  0  0  0  0  0  0  0  0
   -4.9767   -4.5847   -1.0535 H   0  0  0  0  0  0  0  0  0  0  0  0
   -6.5825   -5.6852   -2.5913 H   0  0  0  0  0  0  0  0  0  0  0  0
  -11.0318   -5.8712   -3.0229 H   0  0  0  0  0  0  0  0  0  0  0  0
  -10.8815   -7.1070   -1.7485 H   0  0  0  0  0  0  0  0  0  0  0  0
  -10.9382   -5.3384   -1.3480 H   0  0  0  0  0  0  0  0  0  0  0  0
   -9.6720   -4.8682    0.2115 H   0  0  0  0  0  0  0  0  0  0  0  0
   -6.7588    0.7065    2.7360 H   0  0  0  0  0  0  0  0  0  0  0  0
    3.3889    2.1027    1.2886 H   0  0  0  0  0  0  0  0  0  0  0  0
    2.0713    1.1601    1.7609 H   0  0  0  0  0  0  0  0  0  0  0  0
    3.4213    3.7103    2.8947 H   0  0  0  0  0  0  0  0  0  0  0  0
    3.2130    2.0822    3.6187 H   0  0  0  0  0  0  0  0  0  0  0  0
    1.8513    3.2042    3.6242 H   0  0  0  0  0  0  0  0  0  0  0  0
   -0.9819   -0.0668    2.6404 H   0  0  0  0  0  0  0  0  0  0  0  0
    0.4061    0.4179    1.8131 H   0  0  0  0  0  0  0  0  0  0  0  0
   -0.3279    0.2335    4.6624 H   0  0  0  0  0  0  0  0  0  0  0  0
    1.3038    0.7398    4.1711 H   0  0  0  0  0  0  0  0  0  0  0  0
   -0.0246    1.9682    4.4616 H   0  0  0  0  0  0  0  0  0  0  0  0
    5.3041    5.3594   -3.1694 H   0  0  0  0  0  0  0  0  0  0  0  0
    8.0680    3.4302   -2.8053 H   0  0  0  0  0  0  0  0  0  0  0  0
    3.6284   -0.9993   -3.9785 H   0  0  0  0  0  0  0  0  0  0  0  0
    8.3656   -2.1333   -4.7093 H   0  0  0  0  0  0  0  0  0  0  0  0
  1  2  2  3
  2  3  1  0
  3  4  2  0
  3  5  1  0
  5  6  2  0
  6  7  1  0
  7  8  2  0
  8  9  1  0
  9 10  1  0
  8 11  1  0
 11 12  2  0
 12 13  1  0
 13 14  2  3
 14 15  1  0
 15 16  3  0
 14 17  1  0
 17 18  3  0
  1 19  1  0
 19 20  2  0
 20 21  1  0
 21 22  1  0
 22 23  1  0
 23 24  1  0
 24 25  1  0
 25 26  1  0
 26 27  2  0
 27 28  1  0
 28 29  1  0
 26 30  1  0
 30 31  1  0
 31 32  2  0
 32 33  1  0
 33 34  1  0
 34 35  1  0
 33 36  1  0
 36 37  1  0
 37 38  1  0
 38 39  1  0
 39 40  1  0
 40 41  1  0
 38 42  1  0
 42 43  1  0
 32 44  1  0
 44 45  2  0
 45 46  1  0
 45 47  1  0
 47 48  2  0
 48 49  1  0
 48 50  1  0
 50 51  2  3
 51 52  1  0
 52 53  2  0
 52 54  1  0
 54 55  2  0
 55 56  1  0
 56 57  1  0
 56 58  2  0
 58 59  1  0
 58 60  1  0
 60 61  2  0
 61 62  1  0
 62 63  2  3
 63 64  1  0
 64 65  3  0
 63 66  1  0
 66 67  3  0
 13  2  1  0
 41 19  1  0
 49 44  1  0
 62 51  1  0
 12  5  1  0
 40 21  2  0
 61 54  1  0
 39 23  2  0
 37 24  2  0
 29 25  2  0
 36 30  2  0
 46 31  1  0
  1 68  1  0
  6 69  1  0
  7 70  1  0
 10 71  1  0
 10 72  1  0
 10 73  1  0
 11 74  1  0
 20 75  1  0
 34 76  1  0
 34 77  1  0
 35 78  1  0
 35 79  1  0
 35 80  1  0
 42 81  1  0
 42 82  1  0
 43 83  1  0
 43 84  1  0
 43 85  1  0
 47 86  1  0
 50 87  1  0
 55 88  1  0
 60 89  1  0
M  END

