
     RDKit          3D

 89100  0  0  0  0  0  0  0  0999 V2000
    3.5972   -1.5082   -5.7523 C   0  0  0  0  0  0  0  0  0  0  0  0
    4.4600   -1.6817   -4.8031 C   0  0  0  0  0  0  0  0  0  0  0  0
    4.0542   -2.1954   -3.4373 C   0  0  0  0  0  0  0  0  0  0  0  0
    2.9799   -2.8546   -3.2225 O   0  0  0  0  0  0  0  0  0  0  0  0
    5.0532   -1.8565   -2.4249 C   0  0  0  0  0  0  0  0  0  0  0  0
    5.0569   -2.0316   -1.0529 C   0  0  0  0  0  0  0  0  0  0  0  0
    6.0319   -1.5440   -0.3662 C   0  0  0  0  0  0  0  0  0  0  0  0
    7.1067   -0.8375   -0.9098 C   0  0  0  0  0  0  0  0  0  0  0  0
    7.1347   -0.6527   -2.2265 C   0  0  0  0  0  0  0  0  0  0  0  0
    8.1017    0.0030   -2.9051 O   0  0  0  0  0  0  0  0  0  0  0  0
    9.0558    0.7261   -2.2596 C   0  0  0  0  0  0  0  0  0  0  0  0
    6.0030   -1.2090   -3.1201 C   0  0  0  0  0  0  0  0  0  0  0  0
    5.7853   -1.0602   -4.4885 C   0  0  0  0  0  0  0  0  0  0  0  0
    6.5533   -0.7783   -5.5123 C   0  0  0  0  0  0  0  0  0  0  0  0
    6.1754   -0.9683   -6.9223 C   0  0  0  0  0  0  0  0  0  0  0  0
    5.8643   -1.1028   -8.0726 N   0  0  0  0  0  0  0  0  0  0  0  0
    8.0155   -0.6437   -5.4964 C   0  0  0  0  0  0  0  0  0  0  0  0
    9.2222   -0.5180   -5.4980 N   0  0  0  0  0  0  0  0  0  0  0  0
    2.1880   -1.7844   -5.5156 C   0  0  0  0  0  0  0  0  0  0  0  0
    1.0876   -1.9757   -5.2787 C   0  0  0  0  0  0  0  0  0  0  0  0
   -0.0824   -2.0210   -4.6721 C   0  0  0  0  0  0  0  0  0  0  0  0
   -1.7553   -2.3587   -4.6651 S   0  0  0  0  0  0  0  0  0  0  0  0
   -2.2209   -1.8268   -3.1407 C   0  0  0  0  0  0  0  0  0  0  0  0
   -3.2012   -1.6260   -2.1895 C   0  0  0  0  0  0  0  0  0  0  0  0
   -4.5311   -1.6038   -2.2177 C   0  0  0  0  0  0  0  0  0  0  0  0
   -5.4688   -1.0937   -1.3983 C   0  0  0  0  0  0  0  0  0  0  0  0
   -6.6523   -1.1898   -1.4824 N   0  0  0  0  0  0  0  0  0  0  0  0
   -6.9043   -2.1390   -2.8804 S   0  0  0  0  0  0  0  0  0  0  0  0
   -5.3082   -2.3449   -3.2483 N   0  0  0  0  0  0  0  0  0  0  0  0
   -4.7933   -0.5078   -0.1945 C   0  0  0  0  0  0  0  0  0  0  0  0
   -5.3564   -0.1087    0.9747 C   0  0  0  0  0  0  0  0  0  0  0  0
   -4.2107   -0.0171    1.9046 C   0  0  0  0  0  0  0  0  0  0  0  0
   -3.2472   -0.3155    1.1979 N   0  0  0  0  0  0  0  0  0  0  0  0
   -1.9389   -0.6771    1.8970 C   0  0  0  0  0  0  0  0  0  0  0  0
   -2.3531   -2.1555    2.4540 C   0  0  0  0  0  0  0  0  0  0  0  0
   -3.4080   -0.5970   -0.1105 C   0  0  0  0  0  0  0  0  0  0  0  0
   -2.5375   -1.0533   -1.0540 C   0  0  0  0  0  0  0  0  0  0  0  0
   -1.2952   -0.9083   -1.3439 N   0  0  0  0  0  0  0  0  0  0  0  0
   -0.9698   -1.3131   -2.5718 C   0  0  0  0  0  0  0  0  0  0  0  0
    0.0174   -1.4862   -3.4899 C   0  0  0  0  0  0  0  0  0  0  0  0
    1.9296   -0.9134   -3.4102 Se  0  0  0  0  0  2  0  0  0  0  0  0
   -0.3267    0.0321   -0.7074 C   0  0  0  0  0  0  0  0  0  0  0  0
   -0.1365    1.2083   -1.7675 C   0  0  0  0  0  0  0  0  0  0  0  0
   -4.8569    0.4796    3.1368 C   0  0  0  0  0  0  0  0  0  0  0  0
   -5.8943    0.7985    3.3709 C   0  0  0  0  0  0  0  0  0  0  0  0
   -6.7043    0.4479    1.8286 S   0  0  0  0  0  0  0  0  0  0  0  0
   -6.1992    1.2481    4.5288 C   0  0  0  0  0  0  0  0  0  0  0  0
   -5.8924    1.5189    5.6979 C   0  0  0  0  0  0  0  0  0  0  0  0
   -3.8966    0.7326    4.8452 Se  0  0  0  0  0  2  0  0  0  0  0  0
   -5.4427    1.8165    7.0249 C   0  0  0  0  0  0  0  0  0  0  0  0
   -4.5572    3.0436    6.8264 C   0  0  0  0  0  0  0  0  0  0  0  0
   -4.4383    3.4701    5.4922 C   0  0  0  0  0  0  0  0  0  0  0  0
   -4.7861    3.2585    4.3520 O   0  0  0  0  0  0  0  0  0  0  0  0
   -3.5030    4.6990    5.7228 C   0  0  0  0  0  0  0  0  0  0  0  0
   -2.9855    5.3847    4.4933 C   0  0  0  0  0  0  0  0  0  0  0  0
   -2.0129    6.3071    5.0028 C   0  0  0  0  0  0  0  0  0  0  0  0
   -1.3937    7.0325    3.9383 F   0  0  0  0  0  0  0  0  0  0  0  0
   -1.6647    6.5277    6.1769 C   0  0  0  0  0  0  0  0  0  0  0  0
   -0.7214    7.4329    6.6030 F   0  0  0  0  0  0  0  0  0  0  0  0
   -2.2915    5.7434    7.3388 C   0  0  0  0  0  0  0  0  0  0  0  0
   -3.2416    4.8443    6.7883 C   0  0  0  0  0  0  0  0  0  0  0  0
   -4.0036    3.6230    7.8867 C   0  0  0  0  0  0  0  0  0  0  0  0
   -3.4209    4.0834    8.9612 C   0  0  0  0  0  0  0  0  0  0  0  0
   -3.6210    5.4252    9.1441 C   0  0  0  0  0  0  0  0  0  0  0  0
   -3.8674    6.9216    9.3344 N   0  0  0  0  0  0  0  0  0  0  0  0
   -2.6311    3.3963    9.9130 C   0  0  0  0  0  0  0  0  0  0  0  0
   -1.9960    2.8503   10.6584 N   0  0  0  0  0  0  0  0  0  0  0  0
    3.8626   -1.1581   -6.7270 H   0  0  0  0  0  0  0  0  0  0  0  0
    4.2085   -2.5646   -0.6336 H   0  0  0  0  0  0  0  0  0  0  0  0
    6.1068   -1.6376    0.7664 H   0  0  0  0  0  0  0  0  0  0  0  0
    7.8523   -0.4791   -0.2338 H   0  0  0  0  0  0  0  0  0  0  0  0
   10.0486    0.3450   -2.1110 H   0  0  0  0  0  0  0  0  0  0  0  0
    9.1744    1.6901   -2.9162 H   0  0  0  0  0  0  0  0  0  0  0  0
    8.6322    1.1322   -1.2890 H   0  0  0  0  0  0  0  0  0  0  0  0
    0.8265   -2.7063   -6.4317 H   0  0  0  0  0  0  0  0  0  0  0  0
   -1.8640   -0.1304    2.8264 H   0  0  0  0  0  0  0  0  0  0  0  0
   -1.1665   -0.9467    1.2735 H   0  0  0  0  0  0  0  0  0  0  0  0
   -2.9359   -2.5885    1.6359 H   0  0  0  0  0  0  0  0  0  0  0  0
   -1.4326   -2.7335    2.6051 H   0  0  0  0  0  0  0  0  0  0  0  0
   -2.8870   -2.0013    3.3868 H   0  0  0  0  0  0  0  0  0  0  0  0
   -0.7395    0.6435    0.0979 H   0  0  0  0  0  0  0  0  0  0  0  0
    0.6615   -0.3989   -0.6277 H   0  0  0  0  0  0  0  0  0  0  0  0
   -0.7997    2.0371   -1.5203 H   0  0  0  0  0  0  0  0  0  0  0  0
    0.9053    1.5450   -1.8202 H   0  0  0  0  0  0  0  0  0  0  0  0
   -0.5482    0.8072   -2.7574 H   0  0  0  0  0  0  0  0  0  0  0  0
   -7.4100    1.7114    4.5616 H   0  0  0  0  0  0  0  0  0  0  0  0
   -5.4912    1.5047    7.9474 H   0  0  0  0  0  0  0  0  0  0  0  0
   -3.2269    5.2505    3.5846 H   0  0  0  0  0  0  0  0  0  0  0  0
   -1.8708    5.9619    8.2071 H   0  0  0  0  0  0  0  0  0  0  0  0
  1  2  2  3
  2  3  1  0
  3  4  2  0
  3  5  1  0
  5  6  2  0
  6  7  1  0
  7  8  2  0
  8  9  1  0
  9 10  1  0
 10 11  1  0
  9 12  2  0
 12 13  1  0
 13 14  2  3
 14 15  1  0
 15 16  3  0
 14 17  1  0
 17 18  3  0
  1 19  1  0
 19 20  2  0
 20 21  1  0
 21 22  1  0
 22 23  1  0
 23 24  1  0
 24 25  1  0
 25 26  1  0
 26 27  2  0
 27 28  1  0
 28 29  1  0
 26 30  1  0
 30 31  1  0
 31 32  2  0
 32 33  1  0
 33 34  1  0
 34 35  1  0
 33 36  1  0
 36 37  1  0
 37 38  1  0
 38 39  1  0
 39 40  1  0
 40 41  1  0
 38 42  1  0
 42 43  1  0
 32 44  1  0
 44 45  2  0
 45 46  1  0
 45 47  1  0
 47 48  2  0
 48 49  1  0
 48 50  1  0
 50 51  2  3
 51 52  1  0
 52 53  2  0
 52 54  1  0
 54 55  2  0
 55 56  1  0
 56 57  1  0
 56 58  2  0
 58 59  1  0
 58 60  1  0
 60 61  2  0
 61 62  1  0
 62 63  2  3
 63 64  1  0
 64 65  3  0
 63 66  1  0
 66 67  3  0
 13  2  1  0
 41 19  1  0
 49 44  1  0
 62 51  1  0
 12  5  1  0
 40 21  2  0
 61 54  1  0
 39 23  2  0
 37 24  2  0
 29 25  2  0
 36 30  2  0
 46 31  1  0
  1 68  1  0
  6 69  1  0
  7 70  1  0
  8 71  1  0
 11 72  1  0
 11 73  1  0
 11 74  1  0
 20 75  1  0
 34 76  1  0
 34 77  1  0
 35 78  1  0
 35 79  1  0
 35 80  1  0
 42 81  1  0
 42 82  1  0
 43 83  1  0
 43 84  1  0
 43 85  1  0
 47 86  1  0
 50 87  1  0
 55 88  1  0
 60 89  1  0
M  END

