
     RDKit          3D

121134  0  0  0  0  0  0  0  0999 V2000
    7.6810    0.5226    1.2195 C   0  0  0  0  0  0  0  0  0  0  0  0
    8.0077   -0.0955    2.3644 C   0  0  0  0  0  0  0  0  0  0  0  0
    7.9939    0.5466    3.6812 C   0  0  0  0  0  0  0  0  0  0  0  0
    7.7169    1.7497    3.9191 O   0  0  0  0  0  0  0  0  0  0  0  0
    8.4982   -0.3851    4.6557 C   0  0  0  0  0  0  0  0  0  0  0  0
    8.5485   -0.2119    6.0362 C   0  0  0  0  0  0  0  0  0  0  0  0
    8.8829   -1.3098    6.8331 C   0  0  0  0  0  0  0  0  0  0  0  0
    9.0538   -2.5729    6.2461 C   0  0  0  0  0  0  0  0  0  0  0  0
    8.9426   -2.7448    4.8440 C   0  0  0  0  0  0  0  0  0  0  0  0
    8.8649   -4.0215    4.2673 O   0  0  0  0  0  0  0  0  0  0  0  0
    8.7735   -5.2326    5.0087 C   0  0  0  0  0  0  0  0  0  0  0  0
    8.8054   -1.5900    4.0423 C   0  0  0  0  0  0  0  0  0  0  0  0
    8.6286   -1.4435    2.5630 C   0  0  0  0  0  0  0  0  0  0  0  0
    8.9785   -2.3349    1.6024 C   0  0  0  0  0  0  0  0  0  0  0  0
    8.4556   -2.2834    0.2643 C   0  0  0  0  0  0  0  0  0  0  0  0
    8.0299   -2.2524   -0.8130 N   0  0  0  0  0  0  0  0  0  0  0  0
    9.9091   -3.4069    1.8457 C   0  0  0  0  0  0  0  0  0  0  0  0
   10.6568   -4.2792    2.0284 N   0  0  0  0  0  0  0  0  0  0  0  0
    6.2947    0.9724    1.0376 C   0  0  0  0  0  0  0  0  0  0  0  0
    5.6676    2.1726    1.4530 C   0  0  0  0  0  0  0  0  0  0  0  0
    6.3165    3.3967    1.9697 C   0  0  0  0  0  0  0  0  0  0  0  0
    5.9421    3.8505    3.2540 C   0  0  0  0  0  0  0  0  0  0  0  0
    6.4583    5.0343    3.7699 C   0  0  0  0  0  0  0  0  0  0  0  0
    7.3521    5.7908    3.0132 C   0  0  0  0  0  0  0  0  0  0  0  0
    7.7309    5.3638    1.7397 C   0  0  0  0  0  0  0  0  0  0  0  0
    7.2160    4.1729    1.1928 C   0  0  0  0  0  0  0  0  0  0  0  0
    7.6014    3.8054   -0.2255 C   0  0  0  0  0  0  0  0  0  0  0  0
    6.4474    4.0261   -1.2055 C   0  0  0  0  0  0  0  0  0  0  0  0
    4.2873    2.0974    1.2441 C   0  0  0  0  0  0  0  0  0  0  0  0
    2.9966    3.1712    1.5447 S   0  0  0  0  0  0  0  0  0  0  0  0
    1.8898    2.0461    0.9315 C   0  0  0  0  0  0  0  0  0  0  0  0
    0.5997    2.0343    0.5121 C   0  0  0  0  0  0  0  0  0  0  0  0
   -0.3590    3.0490    0.5452 C   0  0  0  0  0  0  0  0  0  0  0  0
   -1.5812    2.8448   -0.1419 C   0  0  0  0  0  0  0  0  0  0  0  0
   -2.5038    3.8426   -0.0680 N   0  0  0  0  0  0  0  0  0  0  0  0
   -1.6647    4.9295    0.8592 S   0  0  0  0  0  0  0  0  0  0  0  0
   -0.1998    4.2306    1.1973 N   0  0  0  0  0  0  0  0  0  0  0  0
   -1.7882    1.6327   -0.7976 C   0  0  0  0  0  0  0  0  0  0  0  0
   -2.9058    1.1403   -1.3867 C   0  0  0  0  0  0  0  0  0  0  0  0
   -4.4923    1.6416   -1.6910 S   0  0  0  0  0  0  0  0  0  0  0  0
   -4.8954    0.0689   -2.2100 C   0  0  0  0  0  0  0  0  0  0  0  0
   -6.0369   -0.4558   -2.8037 C   0  0  0  0  0  0  0  0  0  0  0  0
   -7.2690    0.3313   -2.9417 C   0  0  0  0  0  0  0  0  0  0  0  0
   -8.1011    0.5930   -1.8222 C   0  0  0  0  0  0  0  0  0  0  0  0
   -7.9355   -0.1280   -0.4965 C   0  0  0  0  0  0  0  0  0  0  0  0
   -7.3092    0.7648    0.5681 C   0  0  0  0  0  0  0  0  0  0  0  0
   -9.1747    1.4863   -1.9692 C   0  0  0  0  0  0  0  0  0  0  0  0
   -9.4293    2.1002   -3.1978 C   0  0  0  0  0  0  0  0  0  0  0  0
   -8.6195    1.8245   -4.2978 C   0  0  0  0  0  0  0  0  0  0  0  0
   -7.5382    0.9492   -4.1693 C   0  0  0  0  0  0  0  0  0  0  0  0
   -5.8493   -1.7897   -3.2141 C   0  0  0  0  0  0  0  0  0  0  0  0
   -4.2607   -2.2650   -2.7945 S   0  0  0  0  0  0  0  0  0  0  0  0
   -3.8362   -0.7916   -2.1170 C   0  0  0  0  0  0  0  0  0  0  0  0
   -2.6834   -0.1623   -1.6570 C   0  0  0  0  0  0  0  0  0  0  0  0
   -1.4395   -0.5688   -1.2910 N   0  0  0  0  0  0  0  0  0  0  0  0
   -0.8528    0.5767   -0.7976 C   0  0  0  0  0  0  0  0  0  0  0  0
    0.4231    0.8167   -0.1829 C   0  0  0  0  0  0  0  0  0  0  0  0
    1.6265    0.1400   -0.2565 N   0  0  0  0  0  0  0  0  0  0  0  0
    2.4704    0.9197    0.4695 C   0  0  0  0  0  0  0  0  0  0  0  0
    3.8450    0.9470    0.6413 C   0  0  0  0  0  0  0  0  0  0  0  0
    5.1326   -0.0814    0.3675 S   0  0  0  0  0  0  0  0  0  0  0  0
    2.1066   -0.7810   -1.2919 C   0  0  0  0  0  0  0  0  0  0  0  0
    2.3028   -0.0578   -2.6226 C   0  0  0  0  0  0  0  0  0  0  0  0
   -1.0749   -1.9723   -1.0695 C   0  0  0  0  0  0  0  0  0  0  0  0
   -0.6883   -2.6537   -2.3869 C   0  0  0  0  0  0  0  0  0  0  0  0
   -6.5684   -2.4458   -4.3202 C   0  0  0  0  0  0  0  0  0  0  0  0
   -7.1697   -3.6410   -4.1945 C   0  0  0  0  0  0  0  0  0  0  0  0
   -7.2529   -4.6254   -5.2654 C   0  0  0  0  0  0  0  0  0  0  0  0
   -7.0208   -4.4201   -6.4872 O   0  0  0  0  0  0  0  0  0  0  0  0
   -7.5642   -5.9022   -4.6633 C   0  0  0  0  0  0  0  0  0  0  0  0
   -7.7610   -7.1299   -5.2909 C   0  0  0  0  0  0  0  0  0  0  0  0
   -8.1386   -8.2290   -4.5065 C   0  0  0  0  0  0  0  0  0  0  0  0
   -8.2971   -8.0890   -3.1150 C   0  0  0  0  0  0  0  0  0  0  0  0
   -8.7315   -9.1421   -2.3730 F   0  0  0  0  0  0  0  0  0  0  0  0
   -8.1031   -6.8383   -2.5004 C   0  0  0  0  0  0  0  0  0  0  0  0
   -7.7356   -5.7406   -3.2958 C   0  0  0  0  0  0  0  0  0  0  0  0
   -7.6333   -4.2958   -2.9453 C   0  0  0  0  0  0  0  0  0  0  0  0
   -8.4705   -3.6842   -2.0816 C   0  0  0  0  0  0  0  0  0  0  0  0
   -9.2197   -2.5294   -2.5173 C   0  0  0  0  0  0  0  0  0  0  0  0
   -9.8208   -1.6309   -2.9143 N   0  0  0  0  0  0  0  0  0  0  0  0
   -8.9101   -4.3104   -0.8598 C   0  0  0  0  0  0  0  0  0  0  0  0
   -9.2664   -4.7929    0.1294 N   0  0  0  0  0  0  0  0  0  0  0  0
    8.1151    0.1686    0.3010 H   0  0  0  0  0  0  0  0  0  0  0  0
    8.3008    0.7375    6.4911 H   0  0  0  0  0  0  0  0  0  0  0  0
    8.9331   -1.2013    7.9099 H   0  0  0  0  0  0  0  0  0  0  0  0
    9.2302   -3.4169    6.8937 H   0  0  0  0  0  0  0  0  0  0  0  0
    9.6976   -5.3906    5.6006 H   0  0  0  0  0  0  0  0  0  0  0  0
    7.8882   -5.2071    5.6790 H   0  0  0  0  0  0  0  0  0  0  0  0
    8.6506   -6.0830    4.3023 H   0  0  0  0  0  0  0  0  0  0  0  0
    5.2414    3.2748    3.8538 H   0  0  0  0  0  0  0  0  0  0  0  0
    6.1661    5.3637    4.7625 H   0  0  0  0  0  0  0  0  0  0  0  0
    7.7581    6.7090    3.4251 H   0  0  0  0  0  0  0  0  0  0  0  0
    8.4172    5.9812    1.1714 H   0  0  0  0  0  0  0  0  0  0  0  0
    7.9502    2.7515   -0.2675 H   0  0  0  0  0  0  0  0  0  0  0  0
    8.4590    4.4300   -0.5600 H   0  0  0  0  0  0  0  0  0  0  0  0
    5.9919    5.0314   -1.0577 H   0  0  0  0  0  0  0  0  0  0  0  0
    5.6653    3.2445   -1.0731 H   0  0  0  0  0  0  0  0  0  0  0  0
    6.8328    3.9530   -2.2487 H   0  0  0  0  0  0  0  0  0  0  0  0
   -7.3290   -1.0533   -0.6081 H   0  0  0  0  0  0  0  0  0  0  0  0
   -8.9387   -0.4565   -0.1436 H   0  0  0  0  0  0  0  0  0  0  0  0
   -6.2221    0.8894    0.3763 H   0  0  0  0  0  0  0  0  0  0  0  0
   -7.4247    0.2869    1.5657 H   0  0  0  0  0  0  0  0  0  0  0  0
   -7.7992    1.7629    0.5934 H   0  0  0  0  0  0  0  0  0  0  0  0
   -9.8286    1.6978   -1.1316 H   0  0  0  0  0  0  0  0  0  0  0  0
  -10.2561    2.7882   -3.2963 H   0  0  0  0  0  0  0  0  0  0  0  0
   -8.8183    2.2975   -5.2489 H   0  0  0  0  0  0  0  0  0  0  0  0
   -6.8998    0.7634   -5.0235 H   0  0  0  0  0  0  0  0  0  0  0  0
    1.4551   -1.6416   -1.4249 H   0  0  0  0  0  0  0  0  0  0  0  0
    3.0750   -1.2274   -0.9915 H   0  0  0  0  0  0  0  0  0  0  0  0
    2.9593    0.8272   -2.4832 H   0  0  0  0  0  0  0  0  0  0  0  0
    2.7759   -0.7453   -3.3488 H   0  0  0  0  0  0  0  0  0  0  0  0
    1.3235    0.2819   -3.0178 H   0  0  0  0  0  0  0  0  0  0  0  0
   -0.2791   -2.0473   -0.3040 H   0  0  0  0  0  0  0  0  0  0  0  0
   -1.9391   -2.5131   -0.6296 H   0  0  0  0  0  0  0  0  0  0  0  0
   -0.0882   -1.9694   -3.0249 H   0  0  0  0  0  0  0  0  0  0  0  0
   -0.0971   -3.5680   -2.1696 H   0  0  0  0  0  0  0  0  0  0  0  0
   -1.5856   -2.9475   -2.9603 H   0  0  0  0  0  0  0  0  0  0  0  0
   -6.2832   -2.1206   -5.3178 H   0  0  0  0  0  0  0  0  0  0  0  0
   -7.6681   -7.2260   -6.3642 H   0  0  0  0  0  0  0  0  0  0  0  0
   -8.3266   -9.1840   -4.9756 H   0  0  0  0  0  0  0  0  0  0  0  0
   -8.2360   -6.7464   -1.4314 H   0  0  0  0  0  0  0  0  0  0  0  0
  1  2  2  3
  2  3  1  0
  3  4  2  0
  3  5  1  0
  5  6  2  0
  6  7  1  0
  7  8  2  0
  8  9  1  0
  9 10  1  0
 10 11  1  0
  9 12  2  0
 12 13  1  0
 13 14  2  3
 14 15  1  0
 15 16  3  0
 14 17  1  0
 17 18  3  0
  1 19  1  0
 19 20  2  0
 20 21  1  0
 21 22  2  0
 22 23  1  0
 23 24  2  0
 24 25  1  0
 25 26  2  0
 26 27  1  0
 27 28  1  0
 20 29  1  0
 29 30  1  0
 30 31  1  0
 31 32  1  0
 32 33  1  0
 33 34  1  0
 34 35  2  0
 35 36  1  0
 36 37  1  0
 34 38  1  0
 38 39  1  0
 39 40  1  0
 40 41  1  0
 41 42  1  0
 42 43  1  0
 43 44  2  0
 44 45  1  0
 45 46  1  0
 44 47  1  0
 47 48  2  0
 48 49  1  0
 49 50  2  0
 42 51  2  0
 51 52  1  0
 52 53  1  0
 53 54  1  0
 54 55  1  0
 55 56  1  0
 56 57  1  0
 57 58  1  0
 58 59  1  0
 59 60  1  0
 60 61  1  0
 58 62  1  0
 62 63  1  0
 55 64  1  0
 64 65  1  0
 51 66  1  0
 66 67  2  3
 67 68  1  0
 68 69  2  0
 68 70  1  0
 70 71  2  0
 71 72  1  0
 72 73  2  0
 73 74  1  0
 73 75  1  0
 75 76  2  0
 76 77  1  0
 77 78  2  3
 78 79  1  0
 79 80  3  0
 78 81  1  0
 81 82  3  0
 13  2  1  0
 61 19  1  0
 77 67  1  0
 12  5  1  0
 26 21  1  0
 60 29  2  0
 76 70  1  0
 59 31  2  0
 57 32  2  0
 37 33  2  0
 56 38  2  0
 54 39  2  0
 53 41  2  0
 50 43  1  0
  1 83  1  0
  6 84  1  0
  7 85  1  0
  8 86  1  0
 11 87  1  0
 11 88  1  0
 11 89  1  0
 22 90  1  0
 23 91  1  0
 24 92  1  0
 25 93  1  0
 27 94  1  0
 27 95  1  0
 28 96  1  0
 28 97  1  0
 28 98  1  0
 45 99  1  0
 45100  1  0
 46101  1  0
 46102  1  0
 46103  1  0
 47104  1  0
 48105  1  0
 49106  1  0
 50107  1  0
 62108  1  0
 62109  1  0
 63110  1  0
 63111  1  0
 63112  1  0
 64113  1  0
 64114  1  0
 65115  1  0
 65116  1  0
 65117  1  0
 66118  1  0
 71119  1  0
 72120  1  0
 75121  1  0
M  END

