
     RDKit          3D

 89100  0  0  0  0  0  0  0  0999 V2000
   -5.5928   -0.9715   -2.2006 C   0  0  0  0  0  0  0  0  0  0  0  0
   -6.5804   -1.4544   -2.9530 C   0  0  0  0  0  0  0  0  0  0  0  0
   -7.5736   -1.9860   -3.6450 C   0  0  0  0  0  0  0  0  0  0  0  0
   -7.4205   -1.9423   -5.0311 O   0  0  0  0  0  0  0  0  0  0  0  0
   -8.7441   -2.5921   -3.2171 C   0  0  0  0  0  0  0  0  0  0  0  0
   -9.7793   -3.2663   -3.8872 C   0  0  0  0  0  0  0  0  0  0  0  0
  -10.7646   -3.8441   -3.1434 C   0  0  0  0  0  0  0  0  0  0  0  0
  -10.7549   -3.7827   -1.7917 C   0  0  0  0  0  0  0  0  0  0  0  0
   -9.6938   -3.0837   -1.1250 C   0  0  0  0  0  0  0  0  0  0  0  0
   -9.8283   -3.0108    0.1798 O   0  0  0  0  0  0  0  0  0  0  0  0
  -10.5403   -3.3738    1.1955 C   0  0  0  0  0  0  0  0  0  0  0  0
   -8.6827   -2.5025   -1.8307 C   0  0  0  0  0  0  0  0  0  0  0  0
   -7.4290   -1.8666   -1.4572 C   0  0  0  0  0  0  0  0  0  0  0  0
   -6.8272   -2.2610   -0.3954 C   0  0  0  0  0  0  0  0  0  0  0  0
   -5.5121   -2.5434   -0.1305 C   0  0  0  0  0  0  0  0  0  0  0  0
   -4.1989   -2.8020    0.1405 N   0  0  0  0  0  0  0  0  0  0  0  0
   -7.4678   -1.8734    0.9279 C   0  0  0  0  0  0  0  0  0  0  0  0
   -7.9852   -1.5680    1.9881 N   0  0  0  0  0  0  0  0  0  0  0  0
   -5.0050    0.3192   -3.0538 C   0  0  0  0  0  0  0  0  0  0  0  0
   -4.1138    1.1504   -2.9944 C   0  0  0  0  0  0  0  0  0  0  0  0
   -3.1247    1.9133   -2.6866 C   0  0  0  0  0  0  0  0  0  0  0  0
   -1.9492    3.1168   -3.3389 S   0  0  0  0  0  0  0  0  0  0  0  0
   -0.9041    3.1577   -2.0159 C   0  0  0  0  0  0  0  0  0  0  0  0
    0.3239    3.5904   -1.5352 C   0  0  0  0  0  0  0  0  0  0  0  0
    1.2926    4.4022   -2.1243 C   0  0  0  0  0  0  0  0  0  0  0  0
    2.4711    4.5895   -1.4535 C   0  0  0  0  0  0  0  0  0  0  0  0
    3.3625    5.3701   -2.0514 N   0  0  0  0  0  0  0  0  0  0  0  0
    2.6289    5.8360   -3.4878 S   0  0  0  0  0  0  0  0  0  0  0  0
    1.1949    5.0305   -3.2895 N   0  0  0  0  0  0  0  0  0  0  0  0
    2.6162    3.9315   -0.2181 C   0  0  0  0  0  0  0  0  0  0  0  0
    3.7710    3.7963    0.5616 C   0  0  0  0  0  0  0  0  0  0  0  0
    3.5383    2.9074    1.5959 C   0  0  0  0  0  0  0  0  0  0  0  0
    2.2266    2.5136    1.4728 N   0  0  0  0  0  0  0  0  0  0  0  0
    1.6557    1.6066    2.3991 C   0  0  0  0  0  0  0  0  0  0  0  0
    1.8455    0.1452    2.0957 C   0  0  0  0  0  0  0  0  0  0  0  0
    1.6751    3.1291    0.3767 C   0  0  0  0  0  0  0  0  0  0  0  0
    0.4766    2.9534   -0.2708 C   0  0  0  0  0  0  0  0  0  0  0  0
   -0.6051    2.2073   -0.0381 N   0  0  0  0  0  0  0  0  0  0  0  0
   -1.4314    2.3255   -1.1308 C   0  0  0  0  0  0  0  0  0  0  0  0
   -2.6055    1.6949   -1.5651 C   0  0  0  0  0  0  0  0  0  0  0  0
   -3.6350    0.2505   -0.8430 Se  0  0  0  0  0  2  0  0  0  0  0  0
   -0.9440    1.6163    1.2166 C   0  0  0  0  0  0  0  0  0  0  0  0
   -1.5890    2.6243    2.1535 C   0  0  0  0  0  0  0  0  0  0  0  0
    4.6262    2.7139    2.2541 C   0  0  0  0  0  0  0  0  0  0  0  0
    5.7768    3.1569    2.1600 C   0  0  0  0  0  0  0  0  0  0  0  0
    5.4336    4.2360    0.7101 S   0  0  0  0  0  0  0  0  0  0  0  0
    6.8866    2.8036    2.8025 C   0  0  0  0  0  0  0  0  0  0  0  0
    6.9293    1.8014    3.7299 C   0  0  0  0  0  0  0  0  0  0  0  0
    5.2030    1.2527    3.7691 Se  0  0  0  0  0  2  0  0  0  0  0  0
    8.2524    1.2703    4.2115 C   0  0  0  0  0  0  0  0  0  0  0  0
    8.6300    0.2520    3.4862 C   0  0  0  0  0  0  0  0  0  0  0  0
    7.8710   -0.3854    2.3309 C   0  0  0  0  0  0  0  0  0  0  0  0
    6.7282   -0.1589    2.0547 O   0  0  0  0  0  0  0  0  0  0  0  0
    8.8572   -1.2889    1.7058 C   0  0  0  0  0  0  0  0  0  0  0  0
    8.6341   -2.0712    0.5410 C   0  0  0  0  0  0  0  0  0  0  0  0
    7.3794   -2.0296   -0.0069 F   0  0  0  0  0  0  0  0  0  0  0  0
    9.5250   -2.8112   -0.0191 C   0  0  0  0  0  0  0  0  0  0  0  0
   10.8335   -2.8436    0.5803 C   0  0  0  0  0  0  0  0  0  0  0  0
   11.0585   -2.0842    1.7249 C   0  0  0  0  0  0  0  0  0  0  0  0
    9.9852   -1.2854    2.2670 C   0  0  0  0  0  0  0  0  0  0  0  0
   10.0020   -0.3491    3.4372 C   0  0  0  0  0  0  0  0  0  0  0  0
   10.8880   -0.1865    4.3302 C   0  0  0  0  0  0  0  0  0  0  0  0
   12.2573   -0.8011    4.1971 C   0  0  0  0  0  0  0  0  0  0  0  0
   13.4469   -1.3463    4.0909 N   0  0  0  0  0  0  0  0  0  0  0  0
   10.7739    0.3774    5.5647 C   0  0  0  0  0  0  0  0  0  0  0  0
   10.6839    0.9108    6.7313 N   0  0  0  0  0  0  0  0  0  0  0  0
   -5.1641   -1.2011   -1.4435 H   0  0  0  0  0  0  0  0  0  0  0  0
   -9.8170   -3.3594   -4.9615 H   0  0  0  0  0  0  0  0  0  0  0  0
  -11.5705   -4.3768   -3.6514 H   0  0  0  0  0  0  0  0  0  0  0  0
  -11.5164   -4.2226   -1.1851 H   0  0  0  0  0  0  0  0  0  0  0  0
  -10.2722   -4.4688    1.4614 H   0  0  0  0  0  0  0  0  0  0  0  0
  -10.3686   -2.7939    2.1667 H   0  0  0  0  0  0  0  0  0  0  0  0
  -11.6481   -3.3758    0.9507 H   0  0  0  0  0  0  0  0  0  0  0  0
   -4.5813    1.7995   -4.1272 H   0  0  0  0  0  0  0  0  0  0  0  0
    2.3827    1.6891    3.3480 H   0  0  0  0  0  0  0  0  0  0  0  0
    0.7878    1.8615    3.0261 H   0  0  0  0  0  0  0  0  0  0  0  0
    1.3318   -0.5201    2.8261 H   0  0  0  0  0  0  0  0  0  0  0  0
    1.5316   -0.0894    1.0124 H   0  0  0  0  0  0  0  0  0  0  0  0
    2.9099   -0.1917    2.0803 H   0  0  0  0  0  0  0  0  0  0  0  0
   -1.9954    1.0878    0.9218 H   0  0  0  0  0  0  0  0  0  0  0  0
   -0.5185    0.7092    1.6003 H   0  0  0  0  0  0  0  0  0  0  0  0
   -0.7650    3.3785    2.4829 H   0  0  0  0  0  0  0  0  0  0  0  0
   -2.1192    2.1933    2.9923 H   0  0  0  0  0  0  0  0  0  0  0  0
   -2.3172    3.2746    1.6121 H   0  0  0  0  0  0  0  0  0  0  0  0
    7.9007    3.3447    2.6199 H   0  0  0  0  0  0  0  0  0  0  0  0
    8.7040    1.7142    5.0419 H   0  0  0  0  0  0  0  0  0  0  0  0
    9.4096   -3.4228   -0.9319 H   0  0  0  0  0  0  0  0  0  0  0  0
   11.5777   -3.4509    0.1118 H   0  0  0  0  0  0  0  0  0  0  0  0
   11.9832   -2.0657    2.2062 H   0  0  0  0  0  0  0  0  0  0  0  0
  1  2  2  3
  2  3  1  0
  3  4  2  0
  3  5  1  0
  5  6  2  0
  6  7  1  0
  7  8  2  0
  8  9  1  0
  9 10  1  0
 10 11  1  0
  9 12  2  0
 12 13  1  0
 13 14  2  3
 14 15  1  0
 15 16  3  0
 14 17  1  0
 17 18  3  0
  1 19  1  0
 19 20  2  0
 20 21  1  0
 21 22  1  0
 22 23  1  0
 23 24  1  0
 24 25  1  0
 25 26  1  0
 26 27  2  0
 27 28  1  0
 28 29  1  0
 26 30  1  0
 30 31  1  0
 31 32  2  0
 32 33  1  0
 33 34  1  0
 34 35  1  0
 33 36  1  0
 36 37  1  0
 37 38  1  0
 38 39  1  0
 39 40  1  0
 40 41  1  0
 38 42  1  0
 42 43  1  0
 32 44  1  0
 44 45  2  0
 45 46  1  0
 45 47  1  0
 47 48  2  0
 48 49  1  0
 48 50  1  0
 50 51  2  3
 51 52  1  0
 52 53  2  0
 52 54  1  0
 54 55  2  0
 55 56  1  0
 55 57  1  0
 57 58  2  0
 58 59  1  0
 59 60  2  0
 60 61  1  0
 61 62  2  3
 62 63  1  0
 63 64  3  0
 62 65  1  0
 65 66  3  0
 13  2  1  0
 41 19  1  0
 49 44  1  0
 61 51  1  0
 12  5  1  0
 40 21  2  0
 60 54  1  0
 39 23  2  0
 37 24  2  0
 29 25  2  0
 36 30  2  0
 46 31  1  0
  1 67  1  0
  6 68  1  0
  7 69  1  0
  8 70  1  0
 11 71  1  0
 11 72  1  0
 11 73  1  0
 20 74  1  0
 34 75  1  0
 34 76  1  0
 35 77  1  0
 35 78  1  0
 35 79  1  0
 42 80  1  0
 42 81  1  0
 43 82  1  0
 43 83  1  0
 43 84  1  0
 47 85  1  0
 50 86  1  0
 57 87  1  0
 58 88  1  0
 59 89  1  0
M  END

