
     RDKit          3D

102116  0  0  0  0  0  0  0  0999 V2000
    7.8221    3.2742   -2.7322 C   0  0  0  0  0  0  0  0  0  0  0  0
    7.4921    3.6751   -3.9558 C   0  0  0  0  0  0  0  0  0  0  0  0
    6.7840    2.9631   -4.9574 C   0  0  0  0  0  0  0  0  0  0  0  0
    6.6562    1.6748   -5.0223 O   0  0  0  0  0  0  0  0  0  0  0  0
    6.2173    3.8878   -5.9368 C   0  0  0  0  0  0  0  0  0  0  0  0
    5.4100    3.6486   -7.0201 C   0  0  0  0  0  0  0  0  0  0  0  0
    4.8884    4.6502   -7.8022 C   0  0  0  0  0  0  0  0  0  0  0  0
    5.2033    5.9278   -7.4484 C   0  0  0  0  0  0  0  0  0  0  0  0
    6.0359    6.1912   -6.3381 C   0  0  0  0  0  0  0  0  0  0  0  0
    6.2390    7.5204   -6.0965 O   0  0  0  0  0  0  0  0  0  0  0  0
    5.6953    8.5371   -6.8743 C   0  0  0  0  0  0  0  0  0  0  0  0
    6.5465    5.1614   -5.5969 C   0  0  0  0  0  0  0  0  0  0  0  0
    7.3867    5.1544   -4.3386 C   0  0  0  0  0  0  0  0  0  0  0  0
    7.8474    6.0011   -3.7535 C   0  0  0  0  0  0  0  0  0  0  0  0
    8.4724    6.9210   -2.9181 C   0  0  0  0  0  0  0  0  0  0  0  0
    9.0378    7.7909   -2.1358 N   0  0  0  0  0  0  0  0  0  0  0  0
    8.4725    6.9213   -5.1489 C   0  0  0  0  0  0  0  0  0  0  0  0
    8.9085    7.5295   -6.0728 N   0  0  0  0  0  0  0  0  0  0  0  0
    7.3884    1.9396   -2.3334 C   0  0  0  0  0  0  0  0  0  0  0  0
    7.6489    0.8241   -1.7259 C   0  0  0  0  0  0  0  0  0  0  0  0
    6.7290   -0.1813   -1.5360 C   0  0  0  0  0  0  0  0  0  0  0  0
    6.7418   -1.8049   -0.8145 S   0  0  0  0  0  0  0  0  0  0  0  0
    5.1029   -2.2183   -1.0685 C   0  0  0  0  0  0  0  0  0  0  0  0
    4.0703   -3.1137   -0.7830 C   0  0  0  0  0  0  0  0  0  0  0  0
    4.1168   -4.2997   -0.0904 C   0  0  0  0  0  0  0  0  0  0  0  0
    2.9398   -4.9178    0.1757 C   0  0  0  0  0  0  0  0  0  0  0  0
    3.0235   -6.0817    0.8384 N   0  0  0  0  0  0  0  0  0  0  0  0
    4.6483   -6.3236    1.0911 S   0  0  0  0  0  0  0  0  0  0  0  0
    5.2242   -4.9319    0.3434 N   0  0  0  0  0  0  0  0  0  0  0  0
    1.7444   -4.3141   -0.2594 C   0  0  0  0  0  0  0  0  0  0  0  0
    0.4361   -4.6273    0.0527 C   0  0  0  0  0  0  0  0  0  0  0  0
   -0.3839   -3.6622   -0.4491 C   0  0  0  0  0  0  0  0  0  0  0  0
    0.4516   -2.7490   -1.0939 N   0  0  0  0  0  0  0  0  0  0  0  0
   -0.1177   -1.7381   -1.9128 C   0  0  0  0  0  0  0  0  0  0  0  0
   -0.7059   -0.5321   -1.3719 C   0  0  0  0  0  0  0  0  0  0  0  0
    1.7180   -3.1487   -0.9577 C   0  0  0  0  0  0  0  0  0  0  0  0
    2.9201   -2.4722   -1.2612 C   0  0  0  0  0  0  0  0  0  0  0  0
    3.2241   -1.2971   -1.8070 N   0  0  0  0  0  0  0  0  0  0  0  0
    4.6106   -1.1426   -1.6866 C   0  0  0  0  0  0  0  0  0  0  0  0
    5.5008   -0.1132   -1.9170 C   0  0  0  0  0  0  0  0  0  0  0  0
    5.4319    1.6162   -2.7480 Se  0  0  0  0  0  2  0  0  0  0  0  0
    2.3978   -0.2250   -2.2914 C   0  0  0  0  0  0  0  0  0  0  0  0
    2.2000    0.8119   -1.1846 C   0  0  0  0  0  0  0  0  0  0  0  0
   -1.6180   -3.8352   -0.0875 C   0  0  0  0  0  0  0  0  0  0  0  0
   -2.1537   -4.7253    0.6101 C   0  0  0  0  0  0  0  0  0  0  0  0
   -0.6422   -5.6616    0.9333 S   0  0  0  0  0  0  0  0  0  0  0  0
   -3.4141   -4.7959    1.0834 C   0  0  0  0  0  0  0  0  0  0  0  0
   -4.3411   -3.8660    0.8642 C   0  0  0  0  0  0  0  0  0  0  0  0
   -3.3761   -2.6485   -0.1911 Se  0  0  0  0  0  2  0  0  0  0  0  0
   -5.6757   -3.4941    1.3976 C   0  0  0  0  0  0  0  0  0  0  0  0
   -5.6642   -3.1096    2.6564 C   0  0  0  0  0  0  0  0  0  0  0  0
   -4.4857   -3.0417    3.5481 C   0  0  0  0  0  0  0  0  0  0  0  0
   -3.3393   -3.4200    3.2314 O   0  0  0  0  0  0  0  0  0  0  0  0
   -4.8673   -2.4690    4.8327 C   0  0  0  0  0  0  0  0  0  0  0  0
   -4.0701   -2.1777    5.9113 C   0  0  0  0  0  0  0  0  0  0  0  0
   -4.6025   -1.5653    7.0389 C   0  0  0  0  0  0  0  0  0  0  0  0
   -5.9352   -1.2748    7.0308 C   0  0  0  0  0  0  0  0  0  0  0  0
   -6.7076   -1.5799    5.9297 C   0  0  0  0  0  0  0  0  0  0  0  0
   -6.2197   -2.1776    4.7978 C   0  0  0  0  0  0  0  0  0  0  0  0
   -6.7655   -2.5517    3.4600 C   0  0  0  0  0  0  0  0  0  0  0  0
   -7.9294   -2.1819    3.0347 C   0  0  0  0  0  0  0  0  0  0  0  0
   -8.9967   -1.6519    3.8935 C   0  0  0  0  0  0  0  0  0  0  0  0
   -9.8293   -1.2225    4.5865 N   0  0  0  0  0  0  0  0  0  0  0  0
   -8.2642   -2.0984    1.6431 C   0  0  0  0  0  0  0  0  0  0  0  0
   -8.5381   -2.0411    0.4372 N   0  0  0  0  0  0  0  0  0  0  0  0
   -5.7806   -0.7599    8.4200 C   0  0  0  0  0  0  0  0  0  0  0  0
   -6.1495   -1.7254    9.5018 C   0  0  0  0  0  0  0  0  0  0  0  0
   -5.7672   -3.0996    9.0407 C   0  0  0  0  0  0  0  0  0  0  0  0
   -4.4311   -3.2446    9.0868 C   0  0  0  0  0  0  0  0  0  0  0  0
   -3.9195   -1.8914    9.4438 C   0  0  0  0  0  0  0  0  0  0  0  0
   -4.9823   -1.4867   10.4880 C   0  0  0  0  0  0  0  0  0  0  0  0
   -4.2756   -0.9620    8.3499 C   0  0  0  0  0  0  0  0  0  0  0  0
    8.3681    3.8802   -2.0625 H   0  0  0  0  0  0  0  0  0  0  0  0
    5.1767    2.6455   -7.2671 H   0  0  0  0  0  0  0  0  0  0  0  0
    4.2573    4.4683   -8.6722 H   0  0  0  0  0  0  0  0  0  0  0  0
    4.7869    6.7305   -8.0468 H   0  0  0  0  0  0  0  0  0  0  0  0
    6.1425    8.5926   -7.8936 H   0  0  0  0  0  0  0  0  0  0  0  0
    4.5833    8.4680   -6.9851 H   0  0  0  0  0  0  0  0  0  0  0  0
    5.9450    9.5138   -6.3646 H   0  0  0  0  0  0  0  0  0  0  0  0
    8.7085    0.7049   -1.3504 H   0  0  0  0  0  0  0  0  0  0  0  0
   -1.1160   -2.3042   -2.3293 H   0  0  0  0  0  0  0  0  0  0  0  0
    0.3134   -1.6787   -2.9319 H   0  0  0  0  0  0  0  0  0  0  0  0
   -0.3588   -0.1863   -0.3851 H   0  0  0  0  0  0  0  0  0  0  0  0
   -0.5006    0.3444   -2.0801 H   0  0  0  0  0  0  0  0  0  0  0  0
   -1.8233   -0.5381   -1.4304 H   0  0  0  0  0  0  0  0  0  0  0  0
    3.1011    0.2926   -3.0862 H   0  0  0  0  0  0  0  0  0  0  0  0
    1.5586   -0.3394   -2.8639 H   0  0  0  0  0  0  0  0  0  0  0  0
    1.3483    1.4196   -1.4106 H   0  0  0  0  0  0  0  0  0  0  0  0
    1.9926    0.2785   -0.2050 H   0  0  0  0  0  0  0  0  0  0  0  0
    3.1197    1.3499   -0.9790 H   0  0  0  0  0  0  0  0  0  0  0  0
   -3.7828   -5.6886    1.7295 H   0  0  0  0  0  0  0  0  0  0  0  0
   -6.4875   -3.5722    0.7839 H   0  0  0  0  0  0  0  0  0  0  0  0
   -3.0203   -2.4173    5.8845 H   0  0  0  0  0  0  0  0  0  0  0  0
   -7.7406   -1.3401    5.9861 H   0  0  0  0  0  0  0  0  0  0  0  0
   -6.1457    0.2608    8.5105 H   0  0  0  0  0  0  0  0  0  0  0  0
   -7.1047   -1.6447    9.9552 H   0  0  0  0  0  0  0  0  0  0  0  0
   -6.4201   -3.8870    8.7110 H   0  0  0  0  0  0  0  0  0  0  0  0
   -3.8124   -4.0968    8.9273 H   0  0  0  0  0  0  0  0  0  0  0  0
   -2.9067   -1.8887    9.8196 H   0  0  0  0  0  0  0  0  0  0  0  0
   -4.8980   -0.4410   10.7780 H   0  0  0  0  0  0  0  0  0  0  0  0
   -4.9878   -2.1923   11.3312 H   0  0  0  0  0  0  0  0  0  0  0  0
   -3.6923   -0.0099    8.2819 H   0  0  0  0  0  0  0  0  0  0  0  0
  1  2  2  3
  2  3  1  0
  3  4  2  0
  3  5  1  0
  5  6  2  0
  6  7  1  0
  7  8  2  0
  8  9  1  0
  9 10  1  0
 10 11  1  0
  9 12  2  0
 12 13  1  0
 13 14  2  3
 14 15  1  0
 15 16  3  0
 14 17  1  0
 17 18  3  0
  1 19  1  0
 19 20  2  0
 20 21  1  0
 21 22  1  0
 22 23  1  0
 23 24  1  0
 24 25  1  0
 25 26  1  0
 26 27  2  0
 27 28  1  0
 28 29  1  0
 26 30  1  0
 30 31  1  0
 31 32  2  0
 32 33  1  0
 33 34  1  0
 34 35  1  0
 33 36  1  0
 36 37  1  0
 37 38  1  0
 38 39  1  0
 39 40  1  0
 40 41  1  0
 38 42  1  0
 42 43  1  0
 32 44  1  0
 44 45  2  0
 45 46  1  0
 45 47  1  0
 47 48  2  0
 48 49  1  0
 48 50  1  0
 50 51  2  3
 51 52  1  0
 52 53  2  0
 52 54  1  0
 54 55  2  0
 55 56  1  0
 56 57  2  0
 57 58  1  0
 58 59  2  0
 59 60  1  0
 60 61  2  3
 61 62  1  0
 62 63  3  0
 61 64  1  0
 64 65  3  0
 57 66  1  0
 66 67  1  0
 67 68  1  0
 68 69  2  0
 69 70  1  0
 70 71  1  0
 70 72  1  0
 13  2  1  0
 41 19  1  0
 49 44  1  0
 60 51  1  0
 72 66  1  0
 12  5  1  0
 40 21  2  0
 59 54  1  0
 71 67  1  0
 39 23  2  0
 72 56  1  0
 37 24  2  0
 29 25  2  0
 36 30  2  0
 46 31  1  0
  1 73  1  0
  6 74  1  0
  7 75  1  0
  8 76  1  0
 11 77  1  0
 11 78  1  0
 11 79  1  0
 20 80  1  0
 34 81  1  0
 34 82  1  0
 35 83  1  0
 35 84  1  0
 35 85  1  0
 42 86  1  0
 42 87  1  0
 43 88  1  0
 43 89  1  0
 43 90  1  0
 47 91  1  0
 50 92  1  0
 55 93  1  0
 58 94  1  0
 66 95  1  0
 67 96  1  0
 68 97  1  0
 69 98  1  0
 70 99  1  0
 71100  1  0
 71101  1  0
 72102  1  0
M  END

