
     RDKit          3D

123137  0  0  0  0  0  0  0  0999 V2000
    2.0423   -1.1015   -7.6067 C   0  0  0  0  0  0  0  0  0  0  0  0
    1.2773   -0.1701   -8.2051 C   0  0  0  0  0  0  0  0  0  0  0  0
    0.4055    0.8071   -7.5455 C   0  0  0  0  0  0  0  0  0  0  0  0
    0.4935    1.2104   -6.3553 O   0  0  0  0  0  0  0  0  0  0  0  0
   -0.5576    1.2761   -8.5181 C   0  0  0  0  0  0  0  0  0  0  0  0
   -1.6874    2.0587   -8.2948 C   0  0  0  0  0  0  0  0  0  0  0  0
   -2.5948    2.2323   -9.3466 C   0  0  0  0  0  0  0  0  0  0  0  0
   -2.3967    1.5702  -10.5711 C   0  0  0  0  0  0  0  0  0  0  0  0
   -1.2614    0.7489  -10.7703 C   0  0  0  0  0  0  0  0  0  0  0  0
   -1.1166   -0.0540  -11.9093 O   0  0  0  0  0  0  0  0  0  0  0  0
   -2.0815   -0.1540  -12.9579 C   0  0  0  0  0  0  0  0  0  0  0  0
   -0.2920    0.6978   -9.7492 C   0  0  0  0  0  0  0  0  0  0  0  0
    0.9783   -0.0740   -9.6621 C   0  0  0  0  0  0  0  0  0  0  0  0
    1.8661   -0.2723  -10.6708 C   0  0  0  0  0  0  0  0  0  0  0  0
    3.1869   -0.8014  -10.4416 C   0  0  0  0  0  0  0  0  0  0  0  0
    4.2486   -1.2265  -10.2628 N   0  0  0  0  0  0  0  0  0  0  0  0
    1.6322    0.2105  -12.0081 C   0  0  0  0  0  0  0  0  0  0  0  0
    1.4604    0.5981  -13.0860 N   0  0  0  0  0  0  0  0  0  0  0  0
    2.1039   -1.3152   -6.1510 C   0  0  0  0  0  0  0  0  0  0  0  0
    3.2780   -1.6005   -5.4289 C   0  0  0  0  0  0  0  0  0  0  0  0
    4.6659   -1.6103   -6.0020 C   0  0  0  0  0  0  0  0  0  0  0  0
    5.0519   -3.0121   -6.4612 C   0  0  0  0  0  0  0  0  0  0  0  0
    2.9787   -1.9494   -4.1131 C   0  0  0  0  0  0  0  0  0  0  0  0
    1.6413   -1.9601   -3.8046 C   0  0  0  0  0  0  0  0  0  0  0  0
    0.7360   -1.5417   -5.1508 S   0  0  0  0  0  0  0  0  0  0  0  0
    1.4031   -2.3145   -2.4849 C   0  0  0  0  0  0  0  0  0  0  0  0
    2.5482   -2.5787   -1.8219 C   0  0  0  0  0  0  0  0  0  0  0  0
    3.9389   -2.4070   -2.7798 S   0  0  0  0  0  0  0  0  0  0  0  0
    2.2020   -2.9840   -0.5692 C   0  0  0  0  0  0  0  0  0  0  0  0
    2.9930   -3.4786    0.4711 C   0  0  0  0  0  0  0  0  0  0  0  0
    4.3392   -3.6089    0.3513 N   0  0  0  0  0  0  0  0  0  0  0  0
    5.0983   -4.0782    1.3782 C   0  0  0  0  0  0  0  0  0  0  0  0
    6.5782   -4.2289    1.1734 C   0  0  0  0  0  0  0  0  0  0  0  0
    4.4704   -4.4374    2.5935 C   0  0  0  0  0  0  0  0  0  0  0  0
    5.2519   -4.9299    3.7762 C   0  0  0  0  0  0  0  0  0  0  0  0
    3.1183   -4.3089    2.7048 N   0  0  0  0  0  0  0  0  0  0  0  0
    2.3627   -3.8532    1.6714 C   0  0  0  0  0  0  0  0  0  0  0  0
    0.9720   -3.6896    1.7797 C   0  0  0  0  0  0  0  0  0  0  0  0
    0.2047   -3.6669    2.9107 C   0  0  0  0  0  0  0  0  0  0  0  0
    0.5686   -3.5762    4.5664 S   0  0  0  0  0  0  0  0  0  0  0  0
   -0.8673   -2.7260    4.8796 C   0  0  0  0  0  0  0  0  0  0  0  0
   -1.2700   -1.9721    5.9842 C   0  0  0  0  0  0  0  0  0  0  0  0
   -0.6028   -2.0201    7.3309 C   0  0  0  0  0  0  0  0  0  0  0  0
   -1.2068   -3.1309    8.1814 C   0  0  0  0  0  0  0  0  0  0  0  0
   -2.3388   -1.1262    5.6475 C   0  0  0  0  0  0  0  0  0  0  0  0
   -2.7204   -1.3020    4.0001 S   0  0  0  0  0  0  0  0  0  0  0  0
   -1.5685   -2.4898    3.7209 C   0  0  0  0  0  0  0  0  0  0  0  0
   -0.9568   -3.0351    2.5909 C   0  0  0  0  0  0  0  0  0  0  0  0
   -1.0230   -2.7057    1.2737 N   0  0  0  0  0  0  0  0  0  0  0  0
   -2.0249   -1.7986    0.7027 C   0  0  0  0  0  0  0  0  0  0  0  0
   -1.4453   -0.4095    0.4477 C   0  0  0  0  0  0  0  0  0  0  0  0
    0.1740   -3.1464    0.7514 C   0  0  0  0  0  0  0  0  0  0  0  0
    0.8016   -2.8745   -0.5010 C   0  0  0  0  0  0  0  0  0  0  0  0
    0.2912   -2.5358   -1.7398 N   0  0  0  0  0  0  0  0  0  0  0  0
   -1.0366   -2.7753   -2.3204 C   0  0  0  0  0  0  0  0  0  0  0  0
   -1.5798   -4.1608   -1.9667 C   0  0  0  0  0  0  0  0  0  0  0  0
   -2.8240   -0.0052    6.4591 C   0  0  0  0  0  0  0  0  0  0  0  0
   -2.2998    1.2310    6.3534 C   0  0  0  0  0  0  0  0  0  0  0  0
   -1.2478    1.6281    5.4043 C   0  0  0  0  0  0  0  0  0  0  0  0
   -0.4490    0.8608    4.8051 O   0  0  0  0  0  0  0  0  0  0  0  0
   -1.3027    3.0613    5.2278 C   0  0  0  0  0  0  0  0  0  0  0  0
   -0.5894    3.8238    4.2751 C   0  0  0  0  0  0  0  0  0  0  0  0
   -0.9707    5.1510    4.2247 C   0  0  0  0  0  0  0  0  0  0  0  0
   -1.9949    5.7049    5.0596 C   0  0  0  0  0  0  0  0  0  0  0  0
   -2.6901    4.9633    6.0020 C   0  0  0  0  0  0  0  0  0  0  0  0
   -2.2999    3.5955    6.0844 C   0  0  0  0  0  0  0  0  0  0  0  0
   -2.8661    2.4946    6.9166 C   0  0  0  0  0  0  0  0  0  0  0  0
   -3.5517    2.6249    8.0796 C   0  0  0  0  0  0  0  0  0  0  0  0
   -3.8353    1.5005    8.9344 C   0  0  0  0  0  0  0  0  0  0  0  0
   -4.0670    0.6020    9.6283 N   0  0  0  0  0  0  0  0  0  0  0  0
   -3.9487    3.9069    8.6038 C   0  0  0  0  0  0  0  0  0  0  0  0
   -4.2746    4.9326    9.0342 N   0  0  0  0  0  0  0  0  0  0  0  0
   -1.8350    7.0429    4.3950 C   0  0  0  0  0  0  0  0  0  0  0  0
   -1.0990    8.1713    5.1799 C   0  0  0  0  0  0  0  0  0  0  0  0
   -0.0761    7.5653    6.1137 C   0  0  0  0  0  0  0  0  0  0  0  0
    0.8815    7.0423    5.3454 C   0  0  0  0  0  0  0  0  0  0  0  0
    0.4795    7.3122    3.9128 C   0  0  0  0  0  0  0  0  0  0  0  0
   -0.1628    8.6756    4.0960 C   0  0  0  0  0  0  0  0  0  0  0  0
   -0.7824    6.4743    3.5451 C   0  0  0  0  0  0  0  0  0  0  0  0
    2.5978   -1.8071   -8.2036 H   0  0  0  0  0  0  0  0  0  0  0  0
   -1.8801    2.4980   -7.3243 H   0  0  0  0  0  0  0  0  0  0  0  0
   -3.4812    2.8365   -9.2007 H   0  0  0  0  0  0  0  0  0  0  0  0
   -3.1522    1.6728  -11.3375 H   0  0  0  0  0  0  0  0  0  0  0  0
   -2.2155    0.8351  -13.4464 H   0  0  0  0  0  0  0  0  0  0  0  0
   -1.7213   -0.8793  -13.7119 H   0  0  0  0  0  0  0  0  0  0  0  0
   -3.0502   -0.5159  -12.5475 H   0  0  0  0  0  0  0  0  0  0  0  0
    5.3876   -1.2653   -5.2309 H   0  0  0  0  0  0  0  0  0  0  0  0
    4.7298   -0.9075   -6.8604 H   0  0  0  0  0  0  0  0  0  0  0  0
    6.0835   -2.9990   -6.8688 H   0  0  0  0  0  0  0  0  0  0  0  0
    4.3603   -3.3618   -7.2585 H   0  0  0  0  0  0  0  0  0  0  0  0
    5.0166   -3.7211   -5.6074 H   0  0  0  0  0  0  0  0  0  0  0  0
    6.8753   -3.8185    0.1848 H   0  0  0  0  0  0  0  0  0  0  0  0
    6.8517   -5.3044    1.2089 H   0  0  0  0  0  0  0  0  0  0  0  0
    7.1302   -3.6770    1.9622 H   0  0  0  0  0  0  0  0  0  0  0  0
    5.8627   -5.8123    3.4930 H   0  0  0  0  0  0  0  0  0  0  0  0
    5.9155   -4.1212    4.1457 H   0  0  0  0  0  0  0  0  0  0  0  0
    4.5642   -5.2271    4.5979 H   0  0  0  0  0  0  0  0  0  0  0  0
   -0.7240   -1.0476    7.8551 H   0  0  0  0  0  0  0  0  0  0  0  0
    0.4851   -2.2001    7.2084 H   0  0  0  0  0  0  0  0  0  0  0  0
   -0.7626   -3.1061    9.1977 H   0  0  0  0  0  0  0  0  0  0  0  0
   -0.9943   -4.1222    7.7240 H   0  0  0  0  0  0  0  0  0  0  0  0
   -2.3083   -2.9974    8.2660 H   0  0  0  0  0  0  0  0  0  0  0  0
   -2.4895   -2.2384   -0.1864 H   0  0  0  0  0  0  0  0  0  0  0  0
   -2.8888   -1.6979    1.3839 H   0  0  0  0  0  0  0  0  0  0  0  0
   -0.6306   -0.4482   -0.3044 H   0  0  0  0  0  0  0  0  0  0  0  0
   -2.2444    0.2630    0.0688 H   0  0  0  0  0  0  0  0  0  0  0  0
   -1.0442    0.0113    1.3930 H   0  0  0  0  0  0  0  0  0  0  0  0
   -0.9774   -2.7580   -3.4251 H   0  0  0  0  0  0  0  0  0  0  0  0
   -1.7263   -1.9491   -2.0866 H   0  0  0  0  0  0  0  0  0  0  0  0
   -1.6838   -4.3007   -0.8734 H   0  0  0  0  0  0  0  0  0  0  0  0
   -2.5814   -4.2994   -2.4309 H   0  0  0  0  0  0  0  0  0  0  0  0
   -0.8959   -4.9455   -2.3590 H   0  0  0  0  0  0  0  0  0  0  0  0
   -3.7119   -0.1830    7.0441 H   0  0  0  0  0  0  0  0  0  0  0  0
    0.1522    3.4040    3.6077 H   0  0  0  0  0  0  0  0  0  0  0  0
   -3.4947    5.4053    6.5653 H   0  0  0  0  0  0  0  0  0  0  0  0
   -2.7327    7.3764    3.8274 H   0  0  0  0  0  0  0  0  0  0  0  0
   -1.7590    8.9386    5.6372 H   0  0  0  0  0  0  0  0  0  0  0  0
   -0.0666    7.6096    7.1979 H   0  0  0  0  0  0  0  0  0  0  0  0
    1.8039    6.5916    5.6987 H   0  0  0  0  0  0  0  0  0  0  0  0
    1.3086    7.2713    3.1762 H   0  0  0  0  0  0  0  0  0  0  0  0
   -0.6910    9.0416    3.1819 H   0  0  0  0  0  0  0  0  0  0  0  0
    0.5490    9.4589    4.4537 H   0  0  0  0  0  0  0  0  0  0  0  0
   -1.0402    6.4643    2.4616 H   0  0  0  0  0  0  0  0  0  0  0  0
  1  2  2  3
  2  3  1  0
  3  4  2  0
  3  5  1  0
  5  6  2  0
  6  7  1  0
  7  8  2  0
  8  9  1  0
  9 10  1  0
 10 11  1  0
  9 12  2  0
 12 13  1  0
 13 14  2  3
 14 15  1  0
 15 16  3  0
 14 17  1  0
 17 18  3  0
  1 19  1  0
 19 20  2  0
 20 21  1  0
 21 22  1  0
 20 23  1  0
 23 24  2  0
 24 25  1  0
 24 26  1  0
 26 27  2  0
 27 28  1  0
 27 29  1  0
 29 30  2  0
 30 31  1  0
 31 32  2  0
 32 33  1  0
 32 34  1  0
 34 35  1  0
 34 36  2  0
 36 37  1  0
 37 38  2  0
 38 39  1  0
 39 40  1  0
 40 41  1  0
 41 42  1  0
 42 43  1  0
 43 44  1  0
 42 45  2  0
 45 46  1  0
 46 47  1  0
 47 48  1  0
 48 49  1  0
 49 50  1  0
 50 51  1  0
 49 52  1  0
 52 53  2  0
 53 54  1  0
 54 55  1  0
 55 56  1  0
 45 57  1  0
 57 58  2  3
 58 59  1  0
 59 60  2  0
 59 61  1  0
 61 62  2  0
 62 63  1  0
 63 64  2  0
 64 65  1  0
 65 66  2  0
 66 67  1  0
 67 68  2  3
 68 69  1  0
 69 70  3  0
 68 71  1  0
 71 72  3  0
 64 73  1  0
 73 74  1  0
 74 75  1  0
 75 76  2  0
 76 77  1  0
 77 78  1  0
 77 79  1  0
 13  2  1  0
 25 19  1  0
 54 26  1  0
 67 58  1  0
 79 73  1  0
 12  5  1  0
 28 23  1  0
 53 29  1  0
 66 61  1  0
 78 74  1  0
 37 30  1  0
 52 38  1  0
 79 63  1  0
 48 39  2  0
 47 41  2  0
  1 80  1  0
  6 81  1  0
  7 82  1  0
  8 83  1  0
 11 84  1  0
 11 85  1  0
 11 86  1  0
 21 87  1  0
 21 88  1  0
 22 89  1  0
 22 90  1  0
 22 91  1  0
 33 92  1  0
 33 93  1  0
 33 94  1  0
 35 95  1  0
 35 96  1  0
 35 97  1  0
 43 98  1  0
 43 99  1  0
 44100  1  0
 44101  1  0
 44102  1  0
 50103  1  0
 50104  1  0
 51105  1  0
 51106  1  0
 51107  1  0
 55108  1  0
 55109  1  0
 56110  1  0
 56111  1  0
 56112  1  0
 57113  1  0
 62114  1  0
 65115  1  0
 73116  1  0
 74117  1  0
 75118  1  0
 76119  1  0
 77120  1  0
 78121  1  0
 78122  1  0
 79123  1  0
M  END

