
     RDKit          3D

134150  0  0  0  0  0  0  0  0999 V2000
    1.3344   -5.1485    5.3669 C   0  0  0  0  0  0  0  0  0  0  0  0
    2.4593   -4.4131    5.5890 C   0  0  0  0  0  0  0  0  0  0  0  0
    3.3432   -4.6744    6.7171 C   0  0  0  0  0  0  0  0  0  0  0  0
    3.4856   -5.7685    7.3133 O   0  0  0  0  0  0  0  0  0  0  0  0
    4.0812   -3.4417    7.0221 C   0  0  0  0  0  0  0  0  0  0  0  0
    5.1228   -3.3030    7.9428 C   0  0  0  0  0  0  0  0  0  0  0  0
    5.7746   -2.0550    8.0123 C   0  0  0  0  0  0  0  0  0  0  0  0
    5.3301   -0.9953    7.2254 C   0  0  0  0  0  0  0  0  0  0  0  0
    4.2998   -1.1595    6.2756 C   0  0  0  0  0  0  0  0  0  0  0  0
    3.9373   -0.0866    5.4472 O   0  0  0  0  0  0  0  0  0  0  0  0
    4.9010    0.7459    4.8259 C   0  0  0  0  0  0  0  0  0  0  0  0
    3.6838   -2.4387    6.1470 C   0  0  0  0  0  0  0  0  0  0  0  0
    2.8160   -3.0336    5.0749 C   0  0  0  0  0  0  0  0  0  0  0  0
    3.0967   -2.7516    3.7746 C   0  0  0  0  0  0  0  0  0  0  0  0
    3.5249   -3.7520    2.8476 C   0  0  0  0  0  0  0  0  0  0  0  0
    3.8932   -4.5216    2.0455 N   0  0  0  0  0  0  0  0  0  0  0  0
    2.9828   -1.4193    3.2380 C   0  0  0  0  0  0  0  0  0  0  0  0
    2.8821   -0.3505    2.7737 N   0  0  0  0  0  0  0  0  0  0  0  0
    0.2873   -4.9674    4.2920 C   0  0  0  0  0  0  0  0  0  0  0  0
   -1.0735   -5.4649    4.2424 C   0  0  0  0  0  0  0  0  0  0  0  0
   -1.8023   -6.0127    5.3873 C   0  0  0  0  0  0  0  0  0  0  0  0
   -1.3467   -7.1499    6.0521 C   0  0  0  0  0  0  0  0  0  0  0  0
   -2.1207   -7.7084    7.1116 C   0  0  0  0  0  0  0  0  0  0  0  0
   -3.2902   -7.0894    7.5033 C   0  0  0  0  0  0  0  0  0  0  0  0
   -3.7460   -5.9016    6.8594 C   0  0  0  0  0  0  0  0  0  0  0  0
   -5.0465   -5.2741    7.2585 C   0  0  0  0  0  0  0  0  0  0  0  0
   -5.1160   -5.0187    8.7659 C   0  0  0  0  0  0  0  0  0  0  0  0
   -3.0004   -5.3853    5.8068 C   0  0  0  0  0  0  0  0  0  0  0  0
   -1.6773   -5.2156    2.9860 C   0  0  0  0  0  0  0  0  0  0  0  0
   -3.2403   -5.3542    2.1952 S   0  0  0  0  0  0  0  0  0  0  0  0
   -2.6608   -4.6404    0.7468 C   0  0  0  0  0  0  0  0  0  0  0  0
   -3.0869   -4.0291   -0.4502 C   0  0  0  0  0  0  0  0  0  0  0  0
   -4.3608   -3.8799   -1.0227 C   0  0  0  0  0  0  0  0  0  0  0  0
   -4.5173   -2.9709   -2.1170 C   0  0  0  0  0  0  0  0  0  0  0  0
   -5.8118   -2.8419   -2.5568 N   0  0  0  0  0  0  0  0  0  0  0  0
   -6.6297   -3.8908   -1.5560 S   0  0  0  0  0  0  0  0  0  0  0  0
   -5.4513   -4.5146   -0.5812 N   0  0  0  0  0  0  0  0  0  0  0  0
   -3.4250   -2.2674   -2.6001 C   0  0  0  0  0  0  0  0  0  0  0  0
   -3.2573   -1.2547   -3.5282 C   0  0  0  0  0  0  0  0  0  0  0  0
   -4.1171   -0.2307   -4.5769 S   0  0  0  0  0  0  0  0  0  0  0  0
   -2.6592    0.5701   -5.0702 C   0  0  0  0  0  0  0  0  0  0  0  0
   -2.3349    1.6486   -5.9025 C   0  0  0  0  0  0  0  0  0  0  0  0
   -3.2972    2.3919   -6.7113 C   0  0  0  0  0  0  0  0  0  0  0  0
   -4.3486    3.1480   -6.1246 C   0  0  0  0  0  0  0  0  0  0  0  0
   -5.3039    3.7704   -6.9381 C   0  0  0  0  0  0  0  0  0  0  0  0
   -5.2233    3.6442   -8.3483 C   0  0  0  0  0  0  0  0  0  0  0  0
   -4.1880    2.9011   -8.9321 C   0  0  0  0  0  0  0  0  0  0  0  0
   -4.0574    2.8091  -10.4274 C   0  0  0  0  0  0  0  0  0  0  0  0
   -3.1098    3.8862  -10.9403 C   0  0  0  0  0  0  0  0  0  0  0  0
   -3.2111    2.3053   -8.0952 C   0  0  0  0  0  0  0  0  0  0  0  0
   -0.9248    1.9119   -5.8971 C   0  0  0  0  0  0  0  0  0  0  0  0
   -0.1585    0.7605   -4.9178 S   0  0  0  0  0  0  0  0  0  0  0  0
   -1.5892    0.0038   -4.4661 C   0  0  0  0  0  0  0  0  0  0  0  0
   -1.9224   -0.9854   -3.5701 C   0  0  0  0  0  0  0  0  0  0  0  0
   -1.1385   -1.8021   -2.8287 N   0  0  0  0  0  0  0  0  0  0  0  0
   -2.0874   -2.5027   -2.1041 C   0  0  0  0  0  0  0  0  0  0  0  0
   -1.9656   -3.3440   -0.9615 C   0  0  0  0  0  0  0  0  0  0  0  0
   -0.8996   -3.5219   -0.0820 N   0  0  0  0  0  0  0  0  0  0  0  0
   -1.3573   -4.3235    0.8876 C   0  0  0  0  0  0  0  0  0  0  0  0
   -0.8483   -4.6221    2.1332 C   0  0  0  0  0  0  0  0  0  0  0  0
    0.6286   -4.3050    2.8081 S   0  0  0  0  0  0  0  0  0  0  0  0
    0.3654   -2.7584    0.0508 C   0  0  0  0  0  0  0  0  0  0  0  0
    0.1240   -1.3979    0.7351 C   0  0  0  0  0  0  0  0  0  0  0  0
    0.1020   -2.3512   -3.4585 C   0  0  0  0  0  0  0  0  0  0  0  0
   -0.0285   -3.8621   -3.7318 C   0  0  0  0  0  0  0  0  0  0  0  0
   -0.2518    3.1514   -6.3239 C   0  0  0  0  0  0  0  0  0  0  0  0
    0.0827    4.1078   -5.4501 C   0  0  0  0  0  0  0  0  0  0  0  0
   -0.3864    4.0812   -4.0318 C   0  0  0  0  0  0  0  0  0  0  0  0
   -1.5549    4.3808   -3.7222 O   0  0  0  0  0  0  0  0  0  0  0  0
    0.7266    4.5662   -3.2192 C   0  0  0  0  0  0  0  0  0  0  0  0
    0.8204    4.4660   -1.8001 C   0  0  0  0  0  0  0  0  0  0  0  0
    1.8342    5.2391   -1.2854 C   0  0  0  0  0  0  0  0  0  0  0  0
    2.7003    6.0398   -2.0978 C   0  0  0  0  0  0  0  0  0  0  0  0
    2.6656    6.0865   -3.4934 C   0  0  0  0  0  0  0  0  0  0  0  0
    1.6677    5.2405   -4.0604 C   0  0  0  0  0  0  0  0  0  0  0  0
    1.3148    4.9973   -5.5038 C   0  0  0  0  0  0  0  0  0  0  0  0
    2.0612    5.3852   -6.5663 C   0  0  0  0  0  0  0  0  0  0  0  0
    1.5816    5.3000   -7.9106 C   0  0  0  0  0  0  0  0  0  0  0  0
    1.1945    5.2700   -9.0182 N   0  0  0  0  0  0  0  0  0  0  0  0
    3.4366    5.7786   -6.3947 C   0  0  0  0  0  0  0  0  0  0  0  0
    4.5679    6.1031   -6.2601 N   0  0  0  0  0  0  0  0  0  0  0  0
    3.2485    6.7192   -0.8984 C   0  0  0  0  0  0  0  0  0  0  0  0
    2.6802    8.1304   -0.5359 C   0  0  0  0  0  0  0  0  0  0  0  0
    1.2193    8.2444   -0.9109 C   0  0  0  0  0  0  0  0  0  0  0  0
    0.5387    7.4402   -0.0897 C   0  0  0  0  0  0  0  0  0  0  0  0
    1.5765    6.7972    0.7988 C   0  0  0  0  0  0  0  0  0  0  0  0
    2.5174    7.9696    0.9609 C   0  0  0  0  0  0  0  0  0  0  0  0
    2.4379    5.8181   -0.0449 C   0  0  0  0  0  0  0  0  0  0  0  0
    1.1825   -5.9939    6.0282 H   0  0  0  0  0  0  0  0  0  0  0  0
    5.4270   -4.1487    8.5798 H   0  0  0  0  0  0  0  0  0  0  0  0
    6.5904   -1.9110    8.7135 H   0  0  0  0  0  0  0  0  0  0  0  0
    5.8252   -0.0365    7.3554 H   0  0  0  0  0  0  0  0  0  0  0  0
    5.3271    1.4526    5.5751 H   0  0  0  0  0  0  0  0  0  0  0  0
    5.7245    0.1205    4.4029 H   0  0  0  0  0  0  0  0  0  0  0  0
    4.4625    1.3490    3.9780 H   0  0  0  0  0  0  0  0  0  0  0  0
   -0.4268   -7.6537    5.7442 H   0  0  0  0  0  0  0  0  0  0  0  0
   -1.7879   -8.6163    7.6073 H   0  0  0  0  0  0  0  0  0  0  0  0
   -3.8599   -7.5319    8.3055 H   0  0  0  0  0  0  0  0  0  0  0  0
   -5.1912   -4.3054    6.7417 H   0  0  0  0  0  0  0  0  0  0  0  0
   -5.8773   -5.9348    6.9524 H   0  0  0  0  0  0  0  0  0  0  0  0
   -6.0234   -4.3984    8.9985 H   0  0  0  0  0  0  0  0  0  0  0  0
   -4.2100   -4.4298    9.1033 H   0  0  0  0  0  0  0  0  0  0  0  0
   -5.1633   -5.9483    9.3735 H   0  0  0  0  0  0  0  0  0  0  0  0
   -3.3382   -4.4989    5.2678 H   0  0  0  0  0  0  0  0  0  0  0  0
   -4.4156    3.2384   -5.0394 H   0  0  0  0  0  0  0  0  0  0  0  0
   -6.0997    4.3458   -6.4897 H   0  0  0  0  0  0  0  0  0  0  0  0
   -5.9584    4.1480   -8.9769 H   0  0  0  0  0  0  0  0  0  0  0  0
   -3.6656    1.8119  -10.7265 H   0  0  0  0  0  0  0  0  0  0  0  0
   -5.0582    2.9034  -10.9028 H   0  0  0  0  0  0  0  0  0  0  0  0
   -2.0415    3.6122  -10.7517 H   0  0  0  0  0  0  0  0  0  0  0  0
   -3.2530    4.0410  -12.0303 H   0  0  0  0  0  0  0  0  0  0  0  0
   -3.3105    4.8727  -10.4675 H   0  0  0  0  0  0  0  0  0  0  0  0
   -2.4034    1.7513   -8.5553 H   0  0  0  0  0  0  0  0  0  0  0  0
    0.7945   -2.5758   -0.9017 H   0  0  0  0  0  0  0  0  0  0  0  0
    1.2525   -3.3702    0.4691 H   0  0  0  0  0  0  0  0  0  0  0  0
    0.1829   -1.5148    1.8464 H   0  0  0  0  0  0  0  0  0  0  0  0
   -0.8993   -1.0153    0.4608 H   0  0  0  0  0  0  0  0  0  0  0  0
    0.8916   -0.6751    0.3626 H   0  0  0  0  0  0  0  0  0  0  0  0
    0.3802   -1.8276   -4.4182 H   0  0  0  0  0  0  0  0  0  0  0  0
    1.0356   -2.0806   -2.9635 H   0  0  0  0  0  0  0  0  0  0  0  0
   -0.2980   -4.4364   -2.8242 H   0  0  0  0  0  0  0  0  0  0  0  0
   -0.8267   -4.0718   -4.5217 H   0  0  0  0  0  0  0  0  0  0  0  0
    0.9405   -4.2849   -4.0971 H   0  0  0  0  0  0  0  0  0  0  0  0
    0.1731    3.1523   -7.3238 H   0  0  0  0  0  0  0  0  0  0  0  0
    0.0426    3.9799   -1.1846 H   0  0  0  0  0  0  0  0  0  0  0  0
    3.3177    6.7686   -4.0199 H   0  0  0  0  0  0  0  0  0  0  0  0
    4.3472    6.5899   -0.7481 H   0  0  0  0  0  0  0  0  0  0  0  0
    3.2998    9.0056   -0.8689 H   0  0  0  0  0  0  0  0  0  0  0  0
    0.7620    8.8689   -1.6843 H   0  0  0  0  0  0  0  0  0  0  0  0
   -0.5383    7.2766   -0.0776 H   0  0  0  0  0  0  0  0  0  0  0  0
    1.1882    6.3777    1.7488 H   0  0  0  0  0  0  0  0  0  0  0  0
    2.0751    8.8742    1.4740 H   0  0  0  0  0  0  0  0  0  0  0  0
    3.4966    7.7376    1.4856 H   0  0  0  0  0  0  0  0  0  0  0  0
    3.0639    5.0908    0.5204 H   0  0  0  0  0  0  0  0  0  0  0  0
  1  2  2  3
  2  3  1  0
  3  4  2  0
  3  5  1  0
  5  6  2  0
  6  7  1  0
  7  8  2  0
  8  9  1  0
  9 10  1  0
 10 11  1  0
  9 12  2  0
 12 13  1  0
 13 14  2  3
 14 15  1  0
 15 16  3  0
 14 17  1  0
 17 18  3  0
  1 19  1  0
 19 20  2  0
 20 21  1  0
 21 22  2  0
 22 23  1  0
 23 24  2  0
 24 25  1  0
 25 26  1  0
 26 27  1  0
 25 28  2  0
 20 29  1  0
 29 30  1  0
 30 31  1  0
 31 32  1  0
 32 33  1  0
 33 34  1  0
 34 35  2  0
 35 36  1  0
 36 37  1  0
 34 38  1  0
 38 39  1  0
 39 40  1  0
 40 41  1  0
 41 42  1  0
 42 43  1  0
 43 44  2  0
 44 45  1  0
 45 46  2  0
 46 47  1  0
 47 48  1  0
 48 49  1  0
 47 50  2  0
 42 51  2  0
 51 52  1  0
 52 53  1  0
 53 54  1  0
 54 55  1  0
 55 56  1  0
 56 57  1  0
 57 58  1  0
 58 59  1  0
 59 60  1  0
 60 61  1  0
 58 62  1  0
 62 63  1  0
 55 64  1  0
 64 65  1  0
 51 66  1  0
 66 67  2  3
 67 68  1  0
 68 69  2  0
 68 70  1  0
 70 71  2  0
 71 72  1  0
 72 73  2  0
 73 74  1  0
 74 75  2  0
 75 76  1  0
 76 77  2  3
 77 78  1  0
 78 79  3  0
 77 80  1  0
 80 81  3  0
 73 82  1  0
 82 83  1  0
 83 84  1  0
 84 85  2  0
 85 86  1  0
 86 87  1  0
 86 88  1  0
 13  2  1  0
 61 19  1  0
 76 67  1  0
 88 82  1  0
 12  5  1  0
 28 21  1  0
 60 29  2  0
 75 70  1  0
 87 83  1  0
 59 31  2  0
 88 72  1  0
 57 32  2  0
 37 33  2  0
 56 38  2  0
 54 39  2  0
 53 41  2  0
 50 43  1  0
  1 89  1  0
  6 90  1  0
  7 91  1  0
  8 92  1  0
 11 93  1  0
 11 94  1  0
 11 95  1  0
 22 96  1  0
 23 97  1  0
 24 98  1  0
 26 99  1  0
 26100  1  0
 27101  1  0
 27102  1  0
 27103  1  0
 28104  1  0
 44105  1  0
 45106  1  0
 46107  1  0
 48108  1  0
 48109  1  0
 49110  1  0
 49111  1  0
 49112  1  0
 50113  1  0
 62114  1  0
 62115  1  0
 63116  1  0
 63117  1  0
 63118  1  0
 64119  1  0
 64120  1  0
 65121  1  0
 65122  1  0
 65123  1  0
 66124  1  0
 71125  1  0
 74126  1  0
 82127  1  0
 83128  1  0
 84129  1  0
 85130  1  0
 86131  1  0
 87132  1  0
 87133  1  0
 88134  1  0
M  END

