
     RDKit          3D

112125  0  0  0  0  0  0  0  0999 V2000
    3.0786   -6.5291   -2.3749 C   0  0  0  0  0  0  0  0  0  0  0  0
    2.7890   -7.7287   -2.9120 C   0  0  0  0  0  0  0  0  0  0  0  0
    1.5057   -8.1188   -3.5058 C   0  0  0  0  0  0  0  0  0  0  0  0
    0.5927   -7.3460   -3.8980 O   0  0  0  0  0  0  0  0  0  0  0  0
    1.4767   -9.5595   -3.6189 C   0  0  0  0  0  0  0  0  0  0  0  0
    0.4085  -10.3676   -4.0082 C   0  0  0  0  0  0  0  0  0  0  0  0
    0.5652  -11.7693   -3.9472 C   0  0  0  0  0  0  0  0  0  0  0  0
   -0.4578  -12.6555   -4.3165 O   0  0  0  0  0  0  0  0  0  0  0  0
   -1.7315  -12.2495   -4.8067 C   0  0  0  0  0  0  0  0  0  0  0  0
    1.7802  -12.3087   -3.4833 C   0  0  0  0  0  0  0  0  0  0  0  0
    2.8407  -11.4735   -3.0982 C   0  0  0  0  0  0  0  0  0  0  0  0
    2.6865  -10.0824   -3.1981 C   0  0  0  0  0  0  0  0  0  0  0  0
    3.6202   -8.9725   -2.8531 C   0  0  0  0  0  0  0  0  0  0  0  0
    4.9725   -9.0588   -2.7389 C   0  0  0  0  0  0  0  0  0  0  0  0
    5.6808  -10.3078   -2.8429 C   0  0  0  0  0  0  0  0  0  0  0  0
    6.2660  -11.3023   -2.9313 N   0  0  0  0  0  0  0  0  0  0  0  0
    5.8216   -7.8991   -2.6437 C   0  0  0  0  0  0  0  0  0  0  0  0
    6.5141   -6.9747   -2.5674 N   0  0  0  0  0  0  0  0  0  0  0  0
    2.1248   -5.4085   -2.2907 C   0  0  0  0  0  0  0  0  0  0  0  0
    0.8586   -5.4948   -1.6884 C   0  0  0  0  0  0  0  0  0  0  0  0
    0.4340   -4.1905   -1.6763 C   0  0  0  0  0  0  0  0  0  0  0  0
    1.3527   -3.4147   -2.2269 C   0  0  0  0  0  0  0  0  0  0  0  0
    2.4280   -4.1192   -2.6372 N   0  0  0  0  0  0  0  0  0  0  0  0
    3.6821   -3.6510   -3.2304 C   0  0  0  0  0  0  0  0  0  0  0  0
    4.5925   -3.0569   -2.1583 C   0  0  0  0  0  0  0  0  0  0  0  0
    0.8457   -2.1352   -2.2682 C   0  0  0  0  0  0  0  0  0  0  0  0
    1.2985   -0.9411   -2.8504 C   0  0  0  0  0  0  0  0  0  0  0  0
    0.4574    0.2068   -2.8003 C   0  0  0  0  0  0  0  0  0  0  0  0
    0.9296    1.3459   -3.3677 N   0  0  0  0  0  0  0  0  0  0  0  0
    2.3952    0.8058   -3.9126 S   0  0  0  0  0  0  0  0  0  0  0  0
    2.4903   -0.7882   -3.4751 N   0  0  0  0  0  0  0  0  0  0  0  0
   -0.7673    0.1201   -2.1392 C   0  0  0  0  0  0  0  0  0  0  0  0
   -1.6152    1.1146   -1.7524 C   0  0  0  0  0  0  0  0  0  0  0  0
   -1.6259    2.8116   -1.7880 S   0  0  0  0  0  0  0  0  0  0  0  0
   -2.8285    2.8476   -0.5853 C   0  0  0  0  0  0  0  0  0  0  0  0
   -3.4284    3.8927    0.1155 C   0  0  0  0  0  0  0  0  0  0  0  0
   -3.2520    5.3492   -0.2392 C   0  0  0  0  0  0  0  0  0  0  0  0
   -4.0130    5.6916   -1.5154 C   0  0  0  0  0  0  0  0  0  0  0  0
   -4.2403    3.3902    1.1527 C   0  0  0  0  0  0  0  0  0  0  0  0
   -4.2082    1.6867    1.1537 S   0  0  0  0  0  0  0  0  0  0  0  0
   -3.1551    1.5851   -0.1522 C   0  0  0  0  0  0  0  0  0  0  0  0
   -2.4632    0.5877   -0.8377 C   0  0  0  0  0  0  0  0  0  0  0  0
   -2.2423   -0.7359   -0.6216 N   0  0  0  0  0  0  0  0  0  0  0  0
   -1.2046   -1.0457   -1.4804 C   0  0  0  0  0  0  0  0  0  0  0  0
   -0.4209   -2.2342   -1.6316 C   0  0  0  0  0  0  0  0  0  0  0  0
   -0.6988   -3.5512   -1.3250 N   0  0  0  0  0  0  0  0  0  0  0  0
   -1.9621   -4.2544   -1.0724 C   0  0  0  0  0  0  0  0  0  0  0  0
   -3.0263   -3.8941   -2.1089 C   0  0  0  0  0  0  0  0  0  0  0  0
   -2.7732   -1.4743    0.5308 C   0  0  0  0  0  0  0  0  0  0  0  0
   -1.6791   -1.7807    1.5488 C   0  0  0  0  0  0  0  0  0  0  0  0
   -4.9732    4.1952    2.1411 C   0  0  0  0  0  0  0  0  0  0  0  0
   -4.3488    5.0091    3.0167 C   0  0  0  0  0  0  0  0  0  0  0  0
   -2.8961    5.1831    3.1269 C   0  0  0  0  0  0  0  0  0  0  0  0
   -2.0184    4.3389    2.8007 O   0  0  0  0  0  0  0  0  0  0  0  0
   -2.6312    6.4971    3.6674 C   0  0  0  0  0  0  0  0  0  0  0  0
   -1.3824    7.1540    3.7252 C   0  0  0  0  0  0  0  0  0  0  0  0
   -1.4733    8.4891    4.0676 C   0  0  0  0  0  0  0  0  0  0  0  0
   -2.7168    9.1471    4.3372 C   0  0  0  0  0  0  0  0  0  0  0  0
   -3.9427    8.5019    4.3049 C   0  0  0  0  0  0  0  0  0  0  0  0
   -3.8688    7.1223    3.9715 C   0  0  0  0  0  0  0  0  0  0  0  0
   -4.9724    6.1526    3.7357 C   0  0  0  0  0  0  0  0  0  0  0  0
   -6.2169    6.1909    4.2746 C   0  0  0  0  0  0  0  0  0  0  0  0
   -6.6588    7.2887    5.0987 C   0  0  0  0  0  0  0  0  0  0  0  0
   -7.0211    8.1629    5.7661 N   0  0  0  0  0  0  0  0  0  0  0  0
   -7.0773    5.0368    4.2632 C   0  0  0  0  0  0  0  0  0  0  0  0
   -7.7625    4.1053    4.2654 N   0  0  0  0  0  0  0  0  0  0  0  0
   -2.0092   10.4666    4.4657 C   0  0  0  0  0  0  0  0  0  0  0  0
   -2.1306   11.4709    3.2769 C   0  0  0  0  0  0  0  0  0  0  0  0
   -2.2783   10.7161    1.9726 C   0  0  0  0  0  0  0  0  0  0  0  0
   -1.1112   10.1132    1.7463 C   0  0  0  0  0  0  0  0  0  0  0  0
   -0.2119   10.4666    2.9078 C   0  0  0  0  0  0  0  0  0  0  0  0
   -0.6801   11.8927    3.1444 C   0  0  0  0  0  0  0  0  0  0  0  0
   -0.7338    9.7884    4.2117 C   0  0  0  0  0  0  0  0  0  0  0  0
    4.0311   -6.3480   -1.9124 H   0  0  0  0  0  0  0  0  0  0  0  0
   -0.5191   -9.9142   -4.3304 H   0  0  0  0  0  0  0  0  0  0  0  0
   -1.6108  -11.6732   -5.7479 H   0  0  0  0  0  0  0  0  0  0  0  0
   -2.2568  -11.6335   -4.0438 H   0  0  0  0  0  0  0  0  0  0  0  0
   -2.3429  -13.1511   -5.0163 H   0  0  0  0  0  0  0  0  0  0  0  0
    1.8944  -13.3836   -3.4069 H   0  0  0  0  0  0  0  0  0  0  0  0
    3.7323  -11.9256   -2.6992 H   0  0  0  0  0  0  0  0  0  0  0  0
    0.3622   -6.3708   -1.2902 H   0  0  0  0  0  0  0  0  0  0  0  0
    3.4835   -2.9211   -4.0350 H   0  0  0  0  0  0  0  0  0  0  0  0
    4.2117   -4.4980   -3.7167 H   0  0  0  0  0  0  0  0  0  0  0  0
    4.7388   -3.7892   -1.3360 H   0  0  0  0  0  0  0  0  0  0  0  0
    4.1521   -2.1292   -1.7464 H   0  0  0  0  0  0  0  0  0  0  0  0
    5.5811   -2.8233   -2.6008 H   0  0  0  0  0  0  0  0  0  0  0  0
   -3.6187    6.0076    0.5731 H   0  0  0  0  0  0  0  0  0  0  0  0
   -2.1728    5.5678   -0.3835 H   0  0  0  0  0  0  0  0  0  0  0  0
   -5.0928    5.4494   -1.3990 H   0  0  0  0  0  0  0  0  0  0  0  0
   -3.6007    5.1301   -2.3786 H   0  0  0  0  0  0  0  0  0  0  0  0
   -3.9148    6.7797   -1.7246 H   0  0  0  0  0  0  0  0  0  0  0  0
   -2.2877   -4.1217   -0.0286 H   0  0  0  0  0  0  0  0  0  0  0  0
   -1.8070   -5.3510   -1.1554 H   0  0  0  0  0  0  0  0  0  0  0  0
   -3.2633   -2.8133   -2.0894 H   0  0  0  0  0  0  0  0  0  0  0  0
   -3.9550   -4.4666   -1.9038 H   0  0  0  0  0  0  0  0  0  0  0  0
   -2.6646   -4.1593   -3.1242 H   0  0  0  0  0  0  0  0  0  0  0  0
   -3.3402   -2.3564    0.2065 H   0  0  0  0  0  0  0  0  0  0  0  0
   -3.5431   -0.8802    1.0502 H   0  0  0  0  0  0  0  0  0  0  0  0
   -1.1914   -0.8372    1.8696 H   0  0  0  0  0  0  0  0  0  0  0  0
   -2.1236   -2.2701    2.4385 H   0  0  0  0  0  0  0  0  0  0  0  0
   -0.9112   -2.4558    1.1251 H   0  0  0  0  0  0  0  0  0  0  0  0
   -6.0482    4.2040    2.0518 H   0  0  0  0  0  0  0  0  0  0  0  0
   -0.4504    6.6886    3.4327 H   0  0  0  0  0  0  0  0  0  0  0  0
   -4.8616    9.0476    4.4341 H   0  0  0  0  0  0  0  0  0  0  0  0
   -2.0817   10.9249    5.4777 H   0  0  0  0  0  0  0  0  0  0  0  0
   -2.8553   12.2975    3.4259 H   0  0  0  0  0  0  0  0  0  0  0  0
   -3.1318   10.7238    1.3037 H   0  0  0  0  0  0  0  0  0  0  0  0
   -0.8510    9.5360    0.8655 H   0  0  0  0  0  0  0  0  0  0  0  0
    0.8746   10.3452    2.7166 H   0  0  0  0  0  0  0  0  0  0  0  0
   -0.4936   12.5706    2.2780 H   0  0  0  0  0  0  0  0  0  0  0  0
   -0.2576   12.3496    4.0718 H   0  0  0  0  0  0  0  0  0  0  0  0
   -0.0317    9.8176    5.0753 H   0  0  0  0  0  0  0  0  0  0  0  0
  1  2  2  3
  2  3  1  0
  3  4  2  0
  3  5  1  0
  5  6  2  0
  6  7  1  0
  7  8  1  0
  8  9  1  0
  7 10  2  0
 10 11  1  0
 11 12  2  0
 12 13  1  0
 13 14  2  3
 14 15  1  0
 15 16  3  0
 14 17  1  0
 17 18  3  0
  1 19  1  0
 19 20  2  0
 20 21  1  0
 21 22  2  0
 22 23  1  0
 23 24  1  0
 24 25  1  0
 22 26  1  0
 26 27  1  0
 27 28  1  0
 28 29  2  0
 29 30  1  0
 30 31  1  0
 28 32  1  0
 32 33  1  0
 33 34  1  0
 34 35  1  0
 35 36  1  0
 36 37  1  0
 37 38  1  0
 36 39  2  0
 39 40  1  0
 40 41  1  0
 41 42  1  0
 42 43  1  0
 43 44  1  0
 44 45  1  0
 45 46  1  0
 46 47  1  0
 47 48  1  0
 43 49  1  0
 49 50  1  0
 39 51  1  0
 51 52  2  3
 52 53  1  0
 53 54  2  0
 53 55  1  0
 55 56  2  0
 56 57  1  0
 57 58  2  0
 58 59  1  0
 59 60  2  0
 60 61  1  0
 61 62  2  3
 62 63  1  0
 63 64  3  0
 62 65  1  0
 65 66  3  0
 58 67  1  0
 67 68  1  0
 68 69  1  0
 69 70  2  0
 70 71  1  0
 71 72  1  0
 71 73  1  0
 13  2  1  0
 23 19  1  0
 45 26  2  0
 61 52  1  0
 73 67  1  0
 12  5  1  0
 46 21  1  0
 60 55  1  0
 72 68  1  0
 31 27  2  0
 44 32  2  0
 73 57  1  0
 42 33  2  0
 41 35  2  0
  1 74  1  0
  6 75  1  0
  9 76  1  0
  9 77  1  0
  9 78  1  0
 10 79  1  0
 11 80  1  0
 20 81  1  0
 24 82  1  0
 24 83  1  0
 25 84  1  0
 25 85  1  0
 25 86  1  0
 37 87  1  0
 37 88  1  0
 38 89  1  0
 38 90  1  0
 38 91  1  0
 47 92  1  0
 47 93  1  0
 48 94  1  0
 48 95  1  0
 48 96  1  0
 49 97  1  0
 49 98  1  0
 50 99  1  0
 50100  1  0
 50101  1  0
 51102  1  0
 56103  1  0
 59104  1  0
 67105  1  0
 68106  1  0
 69107  1  0
 70108  1  0
 71109  1  0
 72110  1  0
 72111  1  0
 73112  1  0
M  END

