
     RDKit          3D

105118  0  0  0  0  0  0  0  0999 V2000
    1.0250    4.9000   -6.8331 C   0  0  0  0  0  0  0  0  0  0  0  0
    0.7084    3.8137   -7.5527 C   0  0  0  0  0  0  0  0  0  0  0  0
   -0.1540    2.6916   -7.3549 C   0  0  0  0  0  0  0  0  0  0  0  0
   -1.0969    2.7040   -6.5070 O   0  0  0  0  0  0  0  0  0  0  0  0
    0.2259    1.6228   -8.2214 C   0  0  0  0  0  0  0  0  0  0  0  0
   -0.2712    0.2861   -8.4128 C   0  0  0  0  0  0  0  0  0  0  0  0
    0.2133   -0.5490   -9.2061 C   0  0  0  0  0  0  0  0  0  0  0  0
   -0.3443   -1.9181   -9.4078 O   0  0  0  0  0  0  0  0  0  0  0  0
   -1.5588   -2.1715   -8.8236 C   0  0  0  0  0  0  0  0  0  0  0  0
    1.3345   -0.2982  -10.0323 C   0  0  0  0  0  0  0  0  0  0  0  0
    1.8341    1.0181   -9.8684 C   0  0  0  0  0  0  0  0  0  0  0  0
    1.2942    1.9472   -8.9911 C   0  0  0  0  0  0  0  0  0  0  0  0
    1.6867    3.3334   -8.6445 C   0  0  0  0  0  0  0  0  0  0  0  0
    2.6842    3.9802   -9.1115 C   0  0  0  0  0  0  0  0  0  0  0  0
    3.5657    3.4205  -10.1650 C   0  0  0  0  0  0  0  0  0  0  0  0
    4.2806    2.9592  -11.0160 N   0  0  0  0  0  0  0  0  0  0  0  0
    3.2028    5.2939   -8.7488 C   0  0  0  0  0  0  0  0  0  0  0  0
    3.6082    6.3500   -8.4631 N   0  0  0  0  0  0  0  0  0  0  0  0
    0.3783    4.9545   -5.5116 C   0  0  0  0  0  0  0  0  0  0  0  0
   -0.4963    6.1704   -4.4273 Se  0  0  0  0  0  2  0  0  0  0  0  0
   -0.3681    5.0730   -2.8308 C   0  0  0  0  0  0  0  0  0  0  0  0
   -0.6066    4.9933   -1.5243 C   0  0  0  0  0  0  0  0  0  0  0  0
   -0.9056    5.9117   -0.5445 C   0  0  0  0  0  0  0  0  0  0  0  0
   -0.7879    5.8895    0.6734 C   0  0  0  0  0  0  0  0  0  0  0  0
   -0.9858    6.5267    1.7079 N   0  0  0  0  0  0  0  0  0  0  0  0
   -1.7596    7.9188    0.6871 S   0  0  0  0  0  0  0  0  0  0  0  0
   -1.5494    7.1775   -0.8369 N   0  0  0  0  0  0  0  0  0  0  0  0
   -0.2647    4.4655    1.0986 C   0  0  0  0  0  0  0  0  0  0  0  0
   -0.3844    3.8473    2.3247 C   0  0  0  0  0  0  0  0  0  0  0  0
   -0.7450    3.9851    4.0154 S   0  0  0  0  0  0  0  0  0  0  0  0
   -0.6366    2.3325    4.4790 C   0  0  0  0  0  0  0  0  0  0  0  0
   -0.8639    1.4958    5.5485 C   0  0  0  0  0  0  0  0  0  0  0  0
   -1.3110    2.1335    6.8857 C   0  0  0  0  0  0  0  0  0  0  0  0
   -2.7572    2.5688    6.7009 C   0  0  0  0  0  0  0  0  0  0  0  0
   -0.7739    0.2006    5.4383 C   0  0  0  0  0  0  0  0  0  0  0  0
   -0.3700    0.0757    3.7444 S   0  0  0  0  0  0  0  0  0  0  0  0
   -0.3155    1.7185    3.2910 C   0  0  0  0  0  0  0  0  0  0  0  0
   -0.1986    2.5109    2.2000 C   0  0  0  0  0  0  0  0  0  0  0  0
    0.0780    2.3256    0.8295 N   0  0  0  0  0  0  0  0  0  0  0  0
    0.0268    3.4945    0.1961 C   0  0  0  0  0  0  0  0  0  0  0  0
   -0.0874    3.7391   -1.1482 C   0  0  0  0  0  0  0  0  0  0  0  0
    0.4416    3.1373   -2.1985 N   0  0  0  0  0  0  0  0  0  0  0  0
    0.2583    4.0674   -3.3873 C   0  0  0  0  0  0  0  0  0  0  0  0
    0.6866    3.8122   -4.5417 C   0  0  0  0  0  0  0  0  0  0  0  0
    1.1082    1.9343   -2.3169 C   0  0  0  0  0  0  0  0  0  0  0  0
    2.6266    2.0446   -1.9922 C   0  0  0  0  0  0  0  0  0  0  0  0
    0.1949    1.0318    0.3243 C   0  0  0  0  0  0  0  0  0  0  0  0
   -1.1909    0.6352   -0.2499 C   0  0  0  0  0  0  0  0  0  0  0  0
   -1.0066   -1.0521    6.1818 C   0  0  0  0  0  0  0  0  0  0  0  0
   -0.3888   -2.1851    5.8261 C   0  0  0  0  0  0  0  0  0  0  0  0
   -0.6580   -3.5039    6.4983 C   0  0  0  0  0  0  0  0  0  0  0  0
   -1.2077   -3.6819    7.5801 O   0  0  0  0  0  0  0  0  0  0  0  0
   -0.1347   -4.5430    5.5813 C   0  0  0  0  0  0  0  0  0  0  0  0
   -0.2993   -5.9966    5.5643 C   0  0  0  0  0  0  0  0  0  0  0  0
    0.1131   -6.6416    4.3747 C   0  0  0  0  0  0  0  0  0  0  0  0
    0.6026   -6.0326    3.3579 C   0  0  0  0  0  0  0  0  0  0  0  0
    0.8079   -4.6028    3.3424 C   0  0  0  0  0  0  0  0  0  0  0  0
    0.4163   -3.9807    4.4891 C   0  0  0  0  0  0  0  0  0  0  0  0
    0.3034   -2.4765    4.6231 C   0  0  0  0  0  0  0  0  0  0  0  0
    1.3798   -1.7616    4.1493 C   0  0  0  0  0  0  0  0  0  0  0  0
    1.8877   -0.6651    4.9241 C   0  0  0  0  0  0  0  0  0  0  0  0
    2.3404    0.2976    5.6222 N   0  0  0  0  0  0  0  0  0  0  0  0
    2.0456   -1.9901    2.9651 C   0  0  0  0  0  0  0  0  0  0  0  0
    2.6671   -2.1798    1.8707 N   0  0  0  0  0  0  0  0  0  0  0  0
    0.6138   -7.2600    2.5125 C   0  0  0  0  0  0  0  0  0  0  0  0
    1.9641   -7.7258    2.1291 C   0  0  0  0  0  0  0  0  0  0  0  0
    2.9138   -7.0442    3.0661 C   0  0  0  0  0  0  0  0  0  0  0  0
    2.6294   -7.4983    4.2824 C   0  0  0  0  0  0  0  0  0  0  0  0
    1.6694   -8.5984    4.1676 C   0  0  0  0  0  0  0  0  0  0  0  0
    2.0292   -9.1145    2.7388 C   0  0  0  0  0  0  0  0  0  0  0  0
    0.2983   -8.0327    3.8053 C   0  0  0  0  0  0  0  0  0  0  0  0
    1.6285    5.6742   -7.1737 H   0  0  0  0  0  0  0  0  0  0  0  0
   -1.1539    0.0868   -7.7528 H   0  0  0  0  0  0  0  0  0  0  0  0
   -2.1485   -1.2726   -8.6769 H   0  0  0  0  0  0  0  0  0  0  0  0
   -2.2139   -2.8408   -9.5505 H   0  0  0  0  0  0  0  0  0  0  0  0
   -1.5573   -2.7673   -7.8829 H   0  0  0  0  0  0  0  0  0  0  0  0
    1.7137   -1.0219  -10.6625 H   0  0  0  0  0  0  0  0  0  0  0  0
    2.6875    1.2114  -10.4901 H   0  0  0  0  0  0  0  0  0  0  0  0
   -1.2704    1.4166    7.6837 H   0  0  0  0  0  0  0  0  0  0  0  0
   -0.6978    3.0392    7.0731 H   0  0  0  0  0  0  0  0  0  0  0  0
   -2.9072    3.4705    7.3065 H   0  0  0  0  0  0  0  0  0  0  0  0
   -2.9291    2.8780    5.6574 H   0  0  0  0  0  0  0  0  0  0  0  0
   -3.5013    1.8178    7.0215 H   0  0  0  0  0  0  0  0  0  0  0  0
    1.2180    3.0476   -5.1084 H   0  0  0  0  0  0  0  0  0  0  0  0
    1.3045    1.7583   -3.4616 H   0  0  0  0  0  0  0  0  0  0  0  0
    0.6568    0.9596   -2.2763 H   0  0  0  0  0  0  0  0  0  0  0  0
    3.2461    1.4109   -2.6386 H   0  0  0  0  0  0  0  0  0  0  0  0
    2.9680    3.1236   -2.2542 H   0  0  0  0  0  0  0  0  0  0  0  0
    2.8123    1.8430   -0.9418 H   0  0  0  0  0  0  0  0  0  0  0  0
    0.1371    0.2338    1.1604 H   0  0  0  0  0  0  0  0  0  0  0  0
    0.9026    0.6640   -0.3529 H   0  0  0  0  0  0  0  0  0  0  0  0
   -1.0523   -0.2981   -0.7889 H   0  0  0  0  0  0  0  0  0  0  0  0
   -1.9402    0.4368    0.5342 H   0  0  0  0  0  0  0  0  0  0  0  0
   -1.5520    1.4485   -0.9417 H   0  0  0  0  0  0  0  0  0  0  0  0
   -1.6661   -1.0553    7.0226 H   0  0  0  0  0  0  0  0  0  0  0  0
   -0.8350   -6.4627    6.3030 H   0  0  0  0  0  0  0  0  0  0  0  0
    1.2099   -4.1993    2.4580 H   0  0  0  0  0  0  0  0  0  0  0  0
   -0.1909   -7.3548    1.7683 H   0  0  0  0  0  0  0  0  0  0  0  0
    2.2424   -7.6596    1.0881 H   0  0  0  0  0  0  0  0  0  0  0  0
    3.6766   -6.3372    2.7984 H   0  0  0  0  0  0  0  0  0  0  0  0
    3.0194   -7.1053    5.2372 H   0  0  0  0  0  0  0  0  0  0  0  0
    1.6806   -9.3773    4.9222 H   0  0  0  0  0  0  0  0  0  0  0  0
    3.0348   -9.5376    2.7529 H   0  0  0  0  0  0  0  0  0  0  0  0
    1.2159   -9.7746    2.3909 H   0  0  0  0  0  0  0  0  0  0  0  0
   -0.5539   -8.6918    3.7738 H   0  0  0  0  0  0  0  0  0  0  0  0
  1  2  2  3
  2  3  1  0
  3  4  2  0
  3  5  1  0
  5  6  2  0
  6  7  1  0
  7  8  1  0
  8  9  1  0
  7 10  2  0
 10 11  1  0
 11 12  2  0
 12 13  1  0
 13 14  2  3
 14 15  1  0
 15 16  3  0
 14 17  1  0
 17 18  3  0
  1 19  1  0
 19 20  1  0
 20 21  1  0
 21 22  1  0
 22 23  1  0
 23 24  1  0
 24 25  2  0
 25 26  1  0
 26 27  1  0
 24 28  1  0
 28 29  1  0
 29 30  1  0
 30 31  1  0
 31 32  1  0
 32 33  1  0
 33 34  1  0
 32 35  2  0
 35 36  1  0
 36 37  1  0
 37 38  1  0
 38 39  1  0
 39 40  1  0
 40 41  1  0
 41 42  1  0
 42 43  1  0
 43 44  1  0
 42 45  1  0
 45 46  1  0
 39 47  1  0
 47 48  1  0
 35 49  1  0
 49 50  2  3
 50 51  1  0
 51 52  2  0
 51 53  1  0
 53 54  2  0
 54 55  1  0
 55 56  2  0
 56 57  1  0
 57 58  2  0
 58 59  1  0
 59 60  2  3
 60 61  1  0
 61 62  3  0
 60 63  1  0
 63 64  3  0
 56 65  1  0
 65 66  1  0
 66 67  1  0
 67 68  2  0
 68 69  1  0
 69 70  1  0
 69 71  1  0
 13  2  1  0
 44 19  2  0
 59 50  1  0
 71 65  1  0
 12  5  1  0
 43 21  2  0
 58 53  1  0
 70 66  1  0
 41 22  2  0
 71 55  1  0
 27 23  2  0
 40 28  2  0
 38 29  2  0
 37 31  2  0
  1 72  1  0
  6 73  1  0
  9 74  1  0
  9 75  1  0
  9 76  1  0
 10 77  1  0
 11 78  1  0
 33 79  1  0
 33 80  1  0
 34 81  1  0
 34 82  1  0
 34 83  1  0
 44 84  1  0
 45 85  1  0
 45 86  1  0
 46 87  1  0
 46 88  1  0
 46 89  1  0
 47 90  1  0
 47 91  1  0
 48 92  1  0
 48 93  1  0
 48 94  1  0
 49 95  1  0
 54 96  1  0
 57 97  1  0
 65 98  1  0
 66 99  1  0
 67100  1  0
 68101  1  0
 69102  1  0
 70103  1  0
 70104  1  0
 71105  1  0
M  END

