
     RDKit          3D

118133  0  0  0  0  0  0  0  0999 V2000
   -6.9908    0.5199    5.1494 C   0  0  0  0  0  0  0  0  0  0  0  0
   -8.2174    0.1612    4.7075 C   0  0  0  0  0  0  0  0  0  0  0  0
   -8.7895    0.4868    3.3932 C   0  0  0  0  0  0  0  0  0  0  0  0
   -8.4546    1.4476    2.6481 O   0  0  0  0  0  0  0  0  0  0  0  0
   -9.8842   -0.4177    3.1322 C   0  0  0  0  0  0  0  0  0  0  0  0
  -10.6027   -0.5738    1.9463 C   0  0  0  0  0  0  0  0  0  0  0  0
  -11.5676   -1.6018    1.8714 C   0  0  0  0  0  0  0  0  0  0  0  0
  -12.3296   -1.8341    0.7145 O   0  0  0  0  0  0  0  0  0  0  0  0
  -12.2450   -1.0508   -0.4723 C   0  0  0  0  0  0  0  0  0  0  0  0
  -11.7694   -2.4428    2.9841 C   0  0  0  0  0  0  0  0  0  0  0  0
  -11.0294   -2.2680    4.1655 C   0  0  0  0  0  0  0  0  0  0  0  0
  -10.0936   -1.2217    4.2404 C   0  0  0  0  0  0  0  0  0  0  0  0
   -9.1583   -0.8234    5.3345 C   0  0  0  0  0  0  0  0  0  0  0  0
   -9.2724   -1.1337    6.6535 C   0  0  0  0  0  0  0  0  0  0  0  0
  -10.3056   -2.0062    7.1538 C   0  0  0  0  0  0  0  0  0  0  0  0
  -11.1335   -2.7037    7.5716 N   0  0  0  0  0  0  0  0  0  0  0  0
   -8.4460   -0.5392    7.6746 C   0  0  0  0  0  0  0  0  0  0  0  0
   -7.7938   -0.0695    8.5115 N   0  0  0  0  0  0  0  0  0  0  0  0
   -5.9845    1.2052    4.3161 C   0  0  0  0  0  0  0  0  0  0  0  0
   -4.8681    2.3710    4.8996 S   0  0  0  0  0  0  0  0  0  0  0  0
   -4.1172    2.5151    3.4077 C   0  0  0  0  0  0  0  0  0  0  0  0
   -2.9950    3.0383    2.8220 C   0  0  0  0  0  0  0  0  0  0  0  0
   -1.5909    3.9115    3.2463 S   0  0  0  0  0  0  0  0  0  0  0  0
   -0.9266    3.5452    1.7156 C   0  0  0  0  0  0  0  0  0  0  0  0
    0.1611    3.8783    0.9501 C   0  0  0  0  0  0  0  0  0  0  0  0
    1.2729    4.7015    1.1701 C   0  0  0  0  0  0  0  0  0  0  0  0
    2.2170    4.8782    0.1085 C   0  0  0  0  0  0  0  0  0  0  0  0
    3.2946    5.6577    0.3680 N   0  0  0  0  0  0  0  0  0  0  0  0
    2.9526    6.0911    1.9317 S   0  0  0  0  0  0  0  0  0  0  0  0
    1.5286    5.3458    2.3355 N   0  0  0  0  0  0  0  0  0  0  0  0
    2.0081    4.2035   -1.1068 C   0  0  0  0  0  0  0  0  0  0  0  0
    2.8664    3.9261   -2.1413 C   0  0  0  0  0  0  0  0  0  0  0  0
    4.5540    3.9896   -2.3073 S   0  0  0  0  0  0  0  0  0  0  0  0
    4.5573    2.6825   -3.3963 C   0  0  0  0  0  0  0  0  0  0  0  0
    5.5786    1.8489   -3.8682 C   0  0  0  0  0  0  0  0  0  0  0  0
    7.0436    2.0982   -3.6452 C   0  0  0  0  0  0  0  0  0  0  0  0
    7.6913    2.6720   -4.9004 C   0  0  0  0  0  0  0  0  0  0  0  0
    5.0391    0.6837   -4.4531 C   0  0  0  0  0  0  0  0  0  0  0  0
    3.3453    0.7023   -4.3275 S   0  0  0  0  0  0  0  0  0  0  0  0
    3.2866    2.1934   -3.5688 C   0  0  0  0  0  0  0  0  0  0  0  0
    2.3218    2.8838   -2.8415 C   0  0  0  0  0  0  0  0  0  0  0  0
    1.1403    2.4647   -2.3142 N   0  0  0  0  0  0  0  0  0  0  0  0
    0.9159    3.3466   -1.2904 C   0  0  0  0  0  0  0  0  0  0  0  0
   -0.0634    3.2606   -0.2811 C   0  0  0  0  0  0  0  0  0  0  0  0
   -1.2986    2.6818   -0.3515 N   0  0  0  0  0  0  0  0  0  0  0  0
   -1.7473    2.7887    0.9279 C   0  0  0  0  0  0  0  0  0  0  0  0
   -2.9404    2.4822    1.5684 C   0  0  0  0  0  0  0  0  0  0  0  0
   -3.9356    1.5801    1.3542 N   0  0  0  0  0  0  0  0  0  0  0  0
   -4.6516    1.6563    2.5049 C   0  0  0  0  0  0  0  0  0  0  0  0
   -5.6870    0.8706    2.9840 C   0  0  0  0  0  0  0  0  0  0  0  0
   -4.0256    0.5120    0.3596 C   0  0  0  0  0  0  0  0  0  0  0  0
   -5.1516    0.7959   -0.6315 C   0  0  0  0  0  0  0  0  0  0  0  0
   -2.1473    2.7732   -1.5545 C   0  0  0  0  0  0  0  0  0  0  0  0
   -3.0832    3.9821   -1.4945 C   0  0  0  0  0  0  0  0  0  0  0  0
    0.6673    1.0715   -2.3649 C   0  0  0  0  0  0  0  0  0  0  0  0
    1.4085    0.2061   -1.3404 C   0  0  0  0  0  0  0  0  0  0  0  0
    5.7808   -0.5443   -4.7702 C   0  0  0  0  0  0  0  0  0  0  0  0
    6.0718   -1.4651   -3.8245 C   0  0  0  0  0  0  0  0  0  0  0  0
    5.8152   -1.2856   -2.3840 C   0  0  0  0  0  0  0  0  0  0  0  0
    5.3144   -0.2679   -1.8289 O   0  0  0  0  0  0  0  0  0  0  0  0
    6.2735   -2.4459   -1.6726 C   0  0  0  0  0  0  0  0  0  0  0  0
    6.2855   -2.6147   -0.2699 C   0  0  0  0  0  0  0  0  0  0  0  0
    6.8488   -3.8013    0.1460 C   0  0  0  0  0  0  0  0  0  0  0  0
    7.3565   -4.7840   -0.7622 C   0  0  0  0  0  0  0  0  0  0  0  0
    7.3431   -4.6281   -2.1367 C   0  0  0  0  0  0  0  0  0  0  0  0
    6.7954   -3.3890   -2.5955 C   0  0  0  0  0  0  0  0  0  0  0  0
    6.7043   -2.8247   -3.9849 C   0  0  0  0  0  0  0  0  0  0  0  0
    7.1294   -3.4220   -5.1338 C   0  0  0  0  0  0  0  0  0  0  0  0
    7.0342   -2.8120   -6.4307 C   0  0  0  0  0  0  0  0  0  0  0  0
    6.9554   -2.3453   -7.4895 N   0  0  0  0  0  0  0  0  0  0  0  0
    7.7495   -4.7171   -5.1671 C   0  0  0  0  0  0  0  0  0  0  0  0
    8.2676   -5.7540   -5.2161 N   0  0  0  0  0  0  0  0  0  0  0  0
    7.8179   -5.6304    0.3855 C   0  0  0  0  0  0  0  0  0  0  0  0
    9.3490   -5.6566    0.6825 C   0  0  0  0  0  0  0  0  0  0  0  0
    9.9801   -4.3471    0.2738 C   0  0  0  0  0  0  0  0  0  0  0  0
    9.5161   -3.4171    1.1117 C   0  0  0  0  0  0  0  0  0  0  0  0
    8.5866   -4.1305    2.0682 C   0  0  0  0  0  0  0  0  0  0  0  0
    9.3325   -5.4448    2.1874 C   0  0  0  0  0  0  0  0  0  0  0  0
    7.3082   -4.6149    1.3155 C   0  0  0  0  0  0  0  0  0  0  0  0
   -6.6416    0.2138    6.1213 H   0  0  0  0  0  0  0  0  0  0  0  0
  -10.3843    0.0604    1.0986 H   0  0  0  0  0  0  0  0  0  0  0  0
  -12.9794   -1.4321   -1.2125 H   0  0  0  0  0  0  0  0  0  0  0  0
  -12.4848    0.0121   -0.2497 H   0  0  0  0  0  0  0  0  0  0  0  0
  -11.2313   -1.1284   -0.9159 H   0  0  0  0  0  0  0  0  0  0  0  0
  -12.4933   -3.2440    2.9257 H   0  0  0  0  0  0  0  0  0  0  0  0
  -11.1710   -2.9713    4.9689 H   0  0  0  0  0  0  0  0  0  0  0  0
    7.1811    2.8134   -2.8104 H   0  0  0  0  0  0  0  0  0  0  0  0
    7.5530    1.1525   -3.3678 H   0  0  0  0  0  0  0  0  0  0  0  0
    7.1730    3.6059   -5.2066 H   0  0  0  0  0  0  0  0  0  0  0  0
    7.6368    1.9329   -5.7279 H   0  0  0  0  0  0  0  0  0  0  0  0
    8.7533    2.8990   -4.6949 H   0  0  0  0  0  0  0  0  0  0  0  0
   -6.1652    0.0822    2.4204 H   0  0  0  0  0  0  0  0  0  0  0  0
   -4.2318   -0.4508    0.8727 H   0  0  0  0  0  0  0  0  0  0  0  0
   -3.0543    0.3762   -0.1571 H   0  0  0  0  0  0  0  0  0  0  0  0
   -5.1848   -0.0058   -1.3978 H   0  0  0  0  0  0  0  0  0  0  0  0
   -6.1247    0.8317   -0.0974 H   0  0  0  0  0  0  0  0  0  0  0  0
   -4.9893    1.7625   -1.1398 H   0  0  0  0  0  0  0  0  0  0  0  0
   -2.7272    1.8480   -1.7016 H   0  0  0  0  0  0  0  0  0  0  0  0
   -1.5283    2.9020   -2.4648 H   0  0  0  0  0  0  0  0  0  0  0  0
   -3.7892    3.8894   -0.6452 H   0  0  0  0  0  0  0  0  0  0  0  0
   -2.4937    4.9183   -1.3887 H   0  0  0  0  0  0  0  0  0  0  0  0
   -3.6770    4.0334   -2.4353 H   0  0  0  0  0  0  0  0  0  0  0  0
   -0.4112    0.9914   -2.1604 H   0  0  0  0  0  0  0  0  0  0  0  0
    0.7989    0.6600   -3.3842 H   0  0  0  0  0  0  0  0  0  0  0  0
    1.0897    0.4859   -0.3145 H   0  0  0  0  0  0  0  0  0  0  0  0
    2.5010    0.3630   -1.4278 H   0  0  0  0  0  0  0  0  0  0  0  0
    1.1711   -0.8645   -1.5093 H   0  0  0  0  0  0  0  0  0  0  0  0
    5.9747   -0.7046   -5.8117 H   0  0  0  0  0  0  0  0  0  0  0  0
    5.9317   -1.8634    0.4240 H   0  0  0  0  0  0  0  0  0  0  0  0
    7.7781   -5.3842   -2.7610 H   0  0  0  0  0  0  0  0  0  0  0  0
    7.3016   -6.6125    0.4640 H   0  0  0  0  0  0  0  0  0  0  0  0
    9.8905   -6.5565    0.3293 H   0  0  0  0  0  0  0  0  0  0  0  0
   10.7108   -4.1842   -0.5124 H   0  0  0  0  0  0  0  0  0  0  0  0
    9.8029   -2.3707    1.1252 H   0  0  0  0  0  0  0  0  0  0  0  0
    8.4039   -3.5962    3.0249 H   0  0  0  0  0  0  0  0  0  0  0  0
    8.7598   -6.2269    2.7412 H   0  0  0  0  0  0  0  0  0  0  0  0
   10.3499   -5.3364    2.6332 H   0  0  0  0  0  0  0  0  0  0  0  0
    6.4863   -4.9786    1.9707 H   0  0  0  0  0  0  0  0  0  0  0  0
  1  2  2  3
  2  3  1  0
  3  4  2  0
  3  5  1  0
  5  6  2  0
  6  7  1  0
  7  8  1  0
  8  9  1  0
  7 10  2  0
 10 11  1  0
 11 12  2  0
 12 13  1  0
 13 14  2  3
 14 15  1  0
 15 16  3  0
 14 17  1  0
 17 18  3  0
  1 19  1  0
 19 20  1  0
 20 21  1  0
 21 22  1  0
 22 23  1  0
 23 24  1  0
 24 25  1  0
 25 26  1  0
 26 27  1  0
 27 28  2  0
 28 29  1  0
 29 30  1  0
 27 31  1  0
 31 32  1  0
 32 33  1  0
 33 34  1  0
 34 35  1  0
 35 36  1  0
 36 37  1  0
 35 38  2  0
 38 39  1  0
 39 40  1  0
 40 41  1  0
 41 42  1  0
 42 43  1  0
 43 44  1  0
 44 45  1  0
 45 46  1  0
 46 47  1  0
 47 48  1  0
 48 49  1  0
 49 50  1  0
 48 51  1  0
 51 52  1  0
 45 53  1  0
 53 54  1  0
 42 55  1  0
 55 56  1  0
 38 57  1  0
 57 58  2  3
 58 59  1  0
 59 60  2  0
 59 61  1  0
 61 62  2  0
 62 63  1  0
 63 64  2  0
 64 65  1  0
 65 66  2  0
 66 67  1  0
 67 68  2  3
 68 69  1  0
 69 70  3  0
 68 71  1  0
 71 72  3  0
 64 73  1  0
 73 74  1  0
 74 75  1  0
 75 76  2  0
 76 77  1  0
 77 78  1  0
 77 79  1  0
 13  2  1  0
 50 19  2  0
 67 58  1  0
 79 73  1  0
 12  5  1  0
 49 21  2  0
 66 61  1  0
 78 74  1  0
 47 22  2  0
 79 63  1  0
 46 24  2  0
 44 25  2  0
 30 26  2  0
 43 31  2  0
 41 32  2  0
 40 34  2  0
  1 80  1  0
  6 81  1  0
  9 82  1  0
  9 83  1  0
  9 84  1  0
 10 85  1  0
 11 86  1  0
 36 87  1  0
 36 88  1  0
 37 89  1  0
 37 90  1  0
 37 91  1  0
 50 92  1  0
 51 93  1  0
 51 94  1  0
 52 95  1  0
 52 96  1  0
 52 97  1  0
 53 98  1  0
 53 99  1  0
 54100  1  0
 54101  1  0
 54102  1  0
 55103  1  0
 55104  1  0
 56105  1  0
 56106  1  0
 56107  1  0
 57108  1  0
 62109  1  0
 65110  1  0
 73111  1  0
 74112  1  0
 75113  1  0
 76114  1  0
 77115  1  0
 78116  1  0
 78117  1  0
 79118  1  0
M  END

