
     RDKit          3D

104115  0  0  0  0  0  0  0  0999 V2000
   -7.7311   -0.7845   -0.9351 C   0  0  0  0  0  0  0  0  0  0  0  0
   -7.9865    0.5255   -1.1151 C   0  0  0  0  0  0  0  0  0  0  0  0
   -7.4380    1.6019   -0.2863 C   0  0  0  0  0  0  0  0  0  0  0  0
   -7.1238    1.5204    0.9331 O   0  0  0  0  0  0  0  0  0  0  0  0
   -7.3032    2.7827   -1.1156 C   0  0  0  0  0  0  0  0  0  0  0  0
   -6.5858    3.9394   -0.8215 C   0  0  0  0  0  0  0  0  0  0  0  0
   -6.3499    4.8675   -1.8446 C   0  0  0  0  0  0  0  0  0  0  0  0
   -5.5394    5.9750   -1.5596 O   0  0  0  0  0  0  0  0  0  0  0  0
   -4.9651    6.8282   -2.5491 C   0  0  0  0  0  0  0  0  0  0  0  0
   -6.8990    4.6368   -3.1325 C   0  0  0  0  0  0  0  0  0  0  0  0
   -7.6336    3.4648   -3.3981 C   0  0  0  0  0  0  0  0  0  0  0  0
   -7.8384    2.5379   -2.3664 C   0  0  0  0  0  0  0  0  0  0  0  0
   -8.4325    1.1697   -2.3923 C   0  0  0  0  0  0  0  0  0  0  0  0
   -9.2849    0.6578   -3.3123 C   0  0  0  0  0  0  0  0  0  0  0  0
   -9.9428   -0.6094   -3.1240 C   0  0  0  0  0  0  0  0  0  0  0  0
  -10.4891   -1.6244   -2.9883 N   0  0  0  0  0  0  0  0  0  0  0  0
   -9.6883    1.3933   -4.4887 C   0  0  0  0  0  0  0  0  0  0  0  0
  -10.0108    1.9857   -5.4265 N   0  0  0  0  0  0  0  0  0  0  0  0
   -6.6520   -1.2661   -0.0501 C   0  0  0  0  0  0  0  0  0  0  0  0
   -6.6320   -2.4991    0.6380 C   0  0  0  0  0  0  0  0  0  0  0  0
   -7.7893   -3.4559    0.7244 C   0  0  0  0  0  0  0  0  0  0  0  0
   -7.6305   -4.5913   -0.2858 C   0  0  0  0  0  0  0  0  0  0  0  0
   -5.3600   -2.7509    1.1615 C   0  0  0  0  0  0  0  0  0  0  0  0
   -4.6361   -4.1021    1.9231 S   0  0  0  0  0  0  0  0  0  0  0  0
   -3.1202   -3.3275    1.9402 C   0  0  0  0  0  0  0  0  0  0  0  0
   -1.7967   -3.6800    2.0263 C   0  0  0  0  0  0  0  0  0  0  0  0
   -1.1822   -4.9247    2.2187 C   0  0  0  0  0  0  0  0  0  0  0  0
    0.2113   -5.0393    1.9798 C   0  0  0  0  0  0  0  0  0  0  0  0
    0.8119   -6.2456    2.1235 N   0  0  0  0  0  0  0  0  0  0  0  0
    0.0963   -7.3452    2.4782 C   0  0  0  0  0  0  0  0  0  0  0  0
   -1.2817   -7.2356    2.7008 C   0  0  0  0  0  0  0  0  0  0  0  0
   -1.8909   -6.0280    2.5661 N   0  0  0  0  0  0  0  0  0  0  0  0
    0.9248   -3.8990    1.5865 C   0  0  0  0  0  0  0  0  0  0  0  0
    2.2594   -3.6584    1.3790 C   0  0  0  0  0  0  0  0  0  0  0  0
    3.7643   -4.4382    1.4668 S   0  0  0  0  0  0  0  0  0  0  0  0
    4.5789   -2.9634    1.1687 C   0  0  0  0  0  0  0  0  0  0  0  0
    5.9172   -2.6171    0.9670 C   0  0  0  0  0  0  0  0  0  0  0  0
    7.0465   -3.6063    0.9953 C   0  0  0  0  0  0  0  0  0  0  0  0
    7.2242   -4.2633   -0.3675 C   0  0  0  0  0  0  0  0  0  0  0  0
    6.0433   -1.2416    0.6558 C   0  0  0  0  0  0  0  0  0  0  0  0
    4.4946   -0.5193    0.6059 S   0  0  0  0  0  0  0  0  0  0  0  0
    3.6974   -1.9290    1.0207 C   0  0  0  0  0  0  0  0  0  0  0  0
    2.3856   -2.3266    1.1550 C   0  0  0  0  0  0  0  0  0  0  0  0
    1.2133   -1.6589    1.2173 N   0  0  0  0  0  0  0  0  0  0  0  0
    0.3045   -2.6600    1.4114 C   0  0  0  0  0  0  0  0  0  0  0  0
   -1.0923   -2.5755    1.5326 C   0  0  0  0  0  0  0  0  0  0  0  0
   -1.9340   -1.6420    0.9942 N   0  0  0  0  0  0  0  0  0  0  0  0
   -3.1626   -2.1070    1.3371 C   0  0  0  0  0  0  0  0  0  0  0  0
   -4.4303   -1.7842    0.8922 C   0  0  0  0  0  0  0  0  0  0  0  0
   -5.0956   -0.5536   -0.0212 S   0  0  0  0  0  0  0  0  0  0  0  0
   -1.6691   -0.8757   -0.2440 C   0  0  0  0  0  0  0  0  0  0  0  0
   -1.9784   -1.7180   -1.4922 C   0  0  0  0  0  0  0  0  0  0  0  0
    1.0814   -0.2520    1.6381 C   0  0  0  0  0  0  0  0  0  0  0  0
    1.5784   -0.0663    3.0725 C   0  0  0  0  0  0  0  0  0  0  0  0
    7.2864   -0.5927    0.1809 C   0  0  0  0  0  0  0  0  0  0  0  0
    7.5645    0.7294    0.2551 C   0  0  0  0  0  0  0  0  0  0  0  0
    6.9507    1.6810    1.1940 C   0  0  0  0  0  0  0  0  0  0  0  0
    6.0733    1.4218    2.0610 O   0  0  0  0  0  0  0  0  0  0  0  0
    7.6731    2.9319    1.1129 C   0  0  0  0  0  0  0  0  0  0  0  0
    7.4361    4.0968    1.8430 C   0  0  0  0  0  0  0  0  0  0  0  0
    8.2839    5.1966    1.6469 C   0  0  0  0  0  0  0  0  0  0  0  0
    8.0109    6.6797    2.5427 Cl  0  0  0  0  0  0  0  0  0  0  0  0
    9.3637    5.0992    0.7490 C   0  0  0  0  0  0  0  0  0  0  0  0
   10.1901    6.1544    0.5613 F   0  0  0  0  0  0  0  0  0  0  0  0
    9.5838    3.9156    0.0225 C   0  0  0  0  0  0  0  0  0  0  0  0
    8.7147    2.8225    0.2074 C   0  0  0  0  0  0  0  0  0  0  0  0
    8.6963    1.4626   -0.4145 C   0  0  0  0  0  0  0  0  0  0  0  0
    9.4209    1.0436   -1.4914 C   0  0  0  0  0  0  0  0  0  0  0  0
    9.1671   -0.1954   -2.1857 C   0  0  0  0  0  0  0  0  0  0  0  0
    8.9742   -1.1977   -2.7364 N   0  0  0  0  0  0  0  0  0  0  0  0
   10.4744    1.8217   -2.0681 C   0  0  0  0  0  0  0  0  0  0  0  0
   11.3334    2.4221   -2.5591 N   0  0  0  0  0  0  0  0  0  0  0  0
   -8.1486   -1.5245   -1.6036 H   0  0  0  0  0  0  0  0  0  0  0  0
   -6.1538    4.0836    0.1571 H   0  0  0  0  0  0  0  0  0  0  0  0
   -5.7603    7.3871   -3.0930 H   0  0  0  0  0  0  0  0  0  0  0  0
   -4.2909    7.5574   -2.0568 H   0  0  0  0  0  0  0  0  0  0  0  0
   -4.3619    6.2319   -3.2651 H   0  0  0  0  0  0  0  0  0  0  0  0
   -6.7184    5.3279   -3.9444 H   0  0  0  0  0  0  0  0  0  0  0  0
   -7.9914    3.3020   -4.3999 H   0  0  0  0  0  0  0  0  0  0  0  0
   -7.8620   -3.8755    1.7572 H   0  0  0  0  0  0  0  0  0  0  0  0
   -8.7417   -2.9078    0.5359 H   0  0  0  0  0  0  0  0  0  0  0  0
   -8.5874   -5.1424   -0.3716 H   0  0  0  0  0  0  0  0  0  0  0  0
   -6.8526   -5.2983    0.0666 H   0  0  0  0  0  0  0  0  0  0  0  0
   -7.3616   -4.1864   -1.2810 H   0  0  0  0  0  0  0  0  0  0  0  0
    0.5911   -8.3032    2.5804 H   0  0  0  0  0  0  0  0  0  0  0  0
   -1.8635   -8.1081    2.9785 H   0  0  0  0  0  0  0  0  0  0  0  0
    6.8319   -4.3882    1.7527 H   0  0  0  0  0  0  0  0  0  0  0  0
    7.9906   -3.1021    1.2994 H   0  0  0  0  0  0  0  0  0  0  0  0
    7.3999   -3.4902   -1.1471 H   0  0  0  0  0  0  0  0  0  0  0  0
    8.1058   -4.9380   -0.3408 H   0  0  0  0  0  0  0  0  0  0  0  0
    6.3178   -4.8544   -0.6313 H   0  0  0  0  0  0  0  0  0  0  0  0
   -2.2709    0.0633   -0.2611 H   0  0  0  0  0  0  0  0  0  0  0  0
   -0.6034   -0.5859   -0.3233 H   0  0  0  0  0  0  0  0  0  0  0  0
   -3.0666   -1.7412   -1.6996 H   0  0  0  0  0  0  0  0  0  0  0  0
   -1.6094   -2.7567   -1.3573 H   0  0  0  0  0  0  0  0  0  0  0  0
   -1.4726   -1.2747   -2.3722 H   0  0  0  0  0  0  0  0  0  0  0  0
    0.0221    0.0818    1.6296 H   0  0  0  0  0  0  0  0  0  0  0  0
    1.6623    0.4011    0.9518 H   0  0  0  0  0  0  0  0  0  0  0  0
    1.3828    0.9801    3.3968 H   0  0  0  0  0  0  0  0  0  0  0  0
    1.0296   -0.7556    3.7500 H   0  0  0  0  0  0  0  0  0  0  0  0
    2.6713   -0.2745    3.1410 H   0  0  0  0  0  0  0  0  0  0  0  0
    8.0077   -1.2531   -0.2578 H   0  0  0  0  0  0  0  0  0  0  0  0
    6.6192    4.1480    2.5486 H   0  0  0  0  0  0  0  0  0  0  0  0
   10.4303    3.8811   -0.6442 H   0  0  0  0  0  0  0  0  0  0  0  0
  1  2  2  3
  2  3  1  0
  3  4  2  0
  3  5  1  0
  5  6  2  0
  6  7  1  0
  7  8  1  0
  8  9  1  0
  7 10  2  0
 10 11  1  0
 11 12  2  0
 12 13  1  0
 13 14  2  3
 14 15  1  0
 15 16  3  0
 14 17  1  0
 17 18  3  0
  1 19  1  0
 19 20  2  0
 20 21  1  0
 21 22  1  0
 20 23  1  0
 23 24  1  0
 24 25  1  0
 25 26  1  0
 26 27  2  0
 27 28  1  0
 28 29  1  0
 29 30  2  0
 30 31  1  0
 31 32  2  0
 28 33  2  0
 33 34  1  0
 34 35  1  0
 35 36  1  0
 36 37  1  0
 37 38  1  0
 38 39  1  0
 37 40  2  0
 40 41  1  0
 41 42  1  0
 42 43  1  0
 43 44  1  0
 44 45  1  0
 45 46  2  0
 46 47  1  0
 47 48  1  0
 48 49  1  0
 49 50  1  0
 47 51  1  0
 51 52  1  0
 44 53  1  0
 53 54  1  0
 40 55  1  0
 55 56  2  3
 56 57  1  0
 57 58  2  0
 57 59  1  0
 59 60  2  0
 60 61  1  0
 61 62  1  0
 61 63  2  0
 63 64  1  0
 63 65  1  0
 65 66  2  0
 66 67  1  0
 67 68  2  3
 68 69  1  0
 69 70  3  0
 68 71  1  0
 71 72  3  0
 13  2  1  0
 50 19  1  0
 67 56  1  0
 12  5  1  0
 49 23  2  0
 66 59  1  0
 48 25  2  0
 46 26  1  0
 32 27  1  0
 45 33  1  0
 43 34  2  0
 42 36  2  0
  1 73  1  0
  6 74  1  0
  9 75  1  0
  9 76  1  0
  9 77  1  0
 10 78  1  0
 11 79  1  0
 21 80  1  0
 21 81  1  0
 22 82  1  0
 22 83  1  0
 22 84  1  0
 30 85  1  0
 31 86  1  0
 38 87  1  0
 38 88  1  0
 39 89  1  0
 39 90  1  0
 39 91  1  0
 51 92  1  0
 51 93  1  0
 52 94  1  0
 52 95  1  0
 52 96  1  0
 53 97  1  0
 53 98  1  0
 54 99  1  0
 54100  1  0
 54101  1  0
 55102  1  0
 60103  1  0
 65104  1  0
M  END

