
     RDKit          3D

176193  0  0  0  0  0  0  0  0999 V2000
   -0.4250    5.7418    5.5922 C   0  0  0  0  0  0  0  0  0  0  0  0
   -0.2735    5.7234    6.9321 C   0  0  0  0  0  0  0  0  0  0  0  0
    0.9687    5.4193    7.6488 C   0  0  0  0  0  0  0  0  0  0  0  0
    2.0665    5.0791    7.1287 O   0  0  0  0  0  0  0  0  0  0  0  0
    0.8051    5.7792    9.0397 C   0  0  0  0  0  0  0  0  0  0  0  0
    1.7442    5.6707   10.0741 C   0  0  0  0  0  0  0  0  0  0  0  0
    2.9960    5.1006    9.8115 O   0  0  0  0  0  0  0  0  0  0  0  0
    3.9719    4.8235   10.8045 C   0  0  0  0  0  0  0  0  0  0  0  0
    1.3673    6.1342   11.3526 C   0  0  0  0  0  0  0  0  0  0  0  0
    0.0988    6.7026   11.5566 C   0  0  0  0  0  0  0  0  0  0  0  0
   -0.8183    6.8080   10.5019 C   0  0  0  0  0  0  0  0  0  0  0  0
   -0.4621    6.3125    9.2342 C   0  0  0  0  0  0  0  0  0  0  0  0
   -1.2353    6.2404    7.9599 C   0  0  0  0  0  0  0  0  0  0  0  0
   -2.5823    6.3962    7.8125 C   0  0  0  0  0  0  0  0  0  0  0  0
   -3.2749    6.0192    6.6100 C   0  0  0  0  0  0  0  0  0  0  0  0
   -3.8454    5.7126    5.6500 N   0  0  0  0  0  0  0  0  0  0  0  0
   -3.4497    6.7813    8.8958 C   0  0  0  0  0  0  0  0  0  0  0  0
   -4.1655    7.0844    9.7567 N   0  0  0  0  0  0  0  0  0  0  0  0
    0.4922    5.0964    4.6338 C   0  0  0  0  0  0  0  0  0  0  0  0
    0.6985    5.5649    3.3315 C   0  0  0  0  0  0  0  0  0  0  0  0
    1.4369    4.6516    2.5842 C   0  0  0  0  0  0  0  0  0  0  0  0
    1.6929    4.5084    0.9216 S   0  0  0  0  0  0  0  0  0  0  0  0
    2.3374    2.9382    1.0904 C   0  0  0  0  0  0  0  0  0  0  0  0
    2.3184    1.8080    0.2086 C   0  0  0  0  0  0  0  0  0  0  0  0
    2.0512    1.7933   -1.1615 C   0  0  0  0  0  0  0  0  0  0  0  0
    1.8919    0.5411   -1.7843 C   0  0  0  0  0  0  0  0  0  0  0  0
    1.4902    0.1740   -3.2254 C   0  0  0  0  0  0  0  0  0  0  0  0
    1.0225    1.3089   -4.1514 C   0  0  0  0  0  0  0  0  0  0  0  0
    0.1366    1.0387   -5.2169 C   0  0  0  0  0  0  0  0  0  0  0  0
    0.0107    1.9055   -6.3109 C   0  0  0  0  0  0  0  0  0  0  0  0
    0.7995    3.0618   -6.3912 C   0  0  0  0  0  0  0  0  0  0  0  0
    0.8891    3.8559   -7.6738 C   0  0  0  0  0  0  0  0  0  0  0  0
   -0.4426    4.4653   -8.0894 C   0  0  0  0  0  0  0  0  0  0  0  0
    1.6762    3.3516   -5.3408 C   0  0  0  0  0  0  0  0  0  0  0  0
    1.8129    2.4729   -4.2685 C   0  0  0  0  0  0  0  0  0  0  0  0
    2.7435   -0.4238   -3.9194 C   0  0  0  0  0  0  0  0  0  0  0  0
    4.0400    0.0677   -3.6274 C   0  0  0  0  0  0  0  0  0  0  0  0
    5.1743   -0.4557   -4.2419 C   0  0  0  0  0  0  0  0  0  0  0  0
    5.0584   -1.4986   -5.1726 C   0  0  0  0  0  0  0  0  0  0  0  0
    6.2977   -2.0859   -5.7980 C   0  0  0  0  0  0  0  0  0  0  0  0
    7.0900   -2.9112   -4.7833 C   0  0  0  0  0  0  0  0  0  0  0  0
    3.7857   -1.9776   -5.5064 C   0  0  0  0  0  0  0  0  0  0  0  0
    2.6409   -1.4247   -4.9123 C   0  0  0  0  0  0  0  0  0  0  0  0
    0.4699   -0.9233   -2.8083 C   0  0  0  0  0  0  0  0  0  0  0  0
    1.1084   -1.5556   -1.7702 C   0  0  0  0  0  0  0  0  0  0  0  0
    1.8837   -0.6195   -1.0059 C   0  0  0  0  0  0  0  0  0  0  0  0
    2.0342   -0.5940    0.3879 C   0  0  0  0  0  0  0  0  0  0  0  0
    2.3003    0.6532    0.9895 C   0  0  0  0  0  0  0  0  0  0  0  0
    2.3281    0.9860    2.4899 C   0  0  0  0  0  0  0  0  0  0  0  0
    1.0748    0.5139    3.2327 C   0  0  0  0  0  0  0  0  0  0  0  0
   -0.1988    0.5967    2.6232 C   0  0  0  0  0  0  0  0  0  0  0  0
   -1.3644    0.3703    3.3605 C   0  0  0  0  0  0  0  0  0  0  0  0
   -1.2934    0.0603    4.7232 C   0  0  0  0  0  0  0  0  0  0  0  0
   -2.5447   -0.1709    5.5283 C   0  0  0  0  0  0  0  0  0  0  0  0
   -2.7695   -1.6569    5.7651 C   0  0  0  0  0  0  0  0  0  0  0  0
   -0.0390   -0.0299    5.3394 C   0  0  0  0  0  0  0  0  0  0  0  0
    1.1279    0.2004    4.6104 C   0  0  0  0  0  0  0  0  0  0  0  0
    3.6333    0.4415    3.0987 C   0  0  0  0  0  0  0  0  0  0  0  0
    3.8395   -0.9495    3.1620 C   0  0  0  0  0  0  0  0  0  0  0  0
    5.0060   -1.4771    3.7223 C   0  0  0  0  0  0  0  0  0  0  0  0
    5.9857   -0.6295    4.2575 C   0  0  0  0  0  0  0  0  0  0  0  0
    7.2455   -1.2013    4.8483 C   0  0  0  0  0  0  0  0  0  0  0  0
    8.3789   -1.1856    3.8267 C   0  0  0  0  0  0  0  0  0  0  0  0
    5.7861    0.7582    4.2094 C   0  0  0  0  0  0  0  0  0  0  0  0
    4.6215    1.2878    3.6445 C   0  0  0  0  0  0  0  0  0  0  0  0
    2.2863    2.5011    2.3952 C   0  0  0  0  0  0  0  0  0  0  0  0
    1.7703    3.4925    3.2314 C   0  0  0  0  0  0  0  0  0  0  0  0
    1.1480    3.5254    4.7891 S   0  0  0  0  0  0  0  0  0  0  0  0
    1.1316   -3.2293   -1.9815 S   0  0  0  0  0  0  0  0  0  0  0  0
    0.1712   -3.1456   -3.3826 C   0  0  0  0  0  0  0  0  0  0  0  0
   -0.8542   -4.0735   -3.7671 C   0  0  0  0  0  0  0  0  0  0  0  0
   -2.0058   -3.3911   -3.9674 C   0  0  0  0  0  0  0  0  0  0  0  0
   -1.8842   -1.9571   -3.4764 C   0  0  0  0  0  0  0  0  0  0  0  0
   -0.3211   -1.8462   -3.5215 C   0  0  0  0  0  0  0  0  0  0  0  0
   -2.5684   -1.9775   -2.0783 C   0  0  0  0  0  0  0  0  0  0  0  0
   -3.9039   -2.4435   -1.9802 C   0  0  0  0  0  0  0  0  0  0  0  0
   -4.5459   -2.5668   -0.7493 C   0  0  0  0  0  0  0  0  0  0  0  0
   -3.8687   -2.2376    0.4337 C   0  0  0  0  0  0  0  0  0  0  0  0
   -4.5285   -2.3942    1.7745 C   0  0  0  0  0  0  0  0  0  0  0  0
   -5.2598   -1.1125    2.1646 C   0  0  0  0  0  0  0  0  0  0  0  0
   -2.5942   -1.6805    0.3514 C   0  0  0  0  0  0  0  0  0  0  0  0
   -1.9735   -1.5033   -0.8865 C   0  0  0  0  0  0  0  0  0  0  0  0
   -2.5520   -0.8808   -4.3347 C   0  0  0  0  0  0  0  0  0  0  0  0
   -2.9546   -1.0827   -5.6736 C   0  0  0  0  0  0  0  0  0  0  0  0
   -3.6557   -0.0924   -6.3665 C   0  0  0  0  0  0  0  0  0  0  0  0
   -3.9521    1.1308   -5.7484 C   0  0  0  0  0  0  0  0  0  0  0  0
   -4.7216    2.2005   -6.4816 C   0  0  0  0  0  0  0  0  0  0  0  0
   -3.7739    3.2292   -7.0720 C   0  0  0  0  0  0  0  0  0  0  0  0
   -3.4764    1.3763   -4.4552 C   0  0  0  0  0  0  0  0  0  0  0  0
   -2.7688    0.3891   -3.7641 C   0  0  0  0  0  0  0  0  0  0  0  0
   -2.9858   -4.0995   -4.6733 C   0  0  0  0  0  0  0  0  0  0  0  0
   -2.5040   -5.3182   -5.1603 C   0  0  0  0  0  0  0  0  0  0  0  0
   -0.8673   -5.4555   -4.7189 S   0  0  0  0  0  0  0  0  0  0  0  0
   -3.2350   -6.0655   -6.2084 C   0  0  0  0  0  0  0  0  0  0  0  0
   -2.7806   -7.1151   -6.9170 C   0  0  0  0  0  0  0  0  0  0  0  0
   -3.1656   -7.3147   -8.3219 C   0  0  0  0  0  0  0  0  0  0  0  0
   -4.1671   -6.8235   -8.9140 O   0  0  0  0  0  0  0  0  0  0  0  0
   -2.1104   -8.0926   -8.9368 C   0  0  0  0  0  0  0  0  0  0  0  0
   -1.6260   -8.4823  -10.4908 S   0  0  0  0  0  0  0  0  0  0  0  0
   -0.1625   -9.1644   -9.9514 C   0  0  0  0  0  0  0  0  0  0  0  0
    1.0498   -9.8573  -11.0035 Cl  0  0  0  0  0  0  0  0  0  0  0  0
   -0.0494   -9.0551   -8.5658 C   0  0  0  0  0  0  0  0  0  0  0  0
   -1.1647   -8.4210   -8.0254 C   0  0  0  0  0  0  0  0  0  0  0  0
   -1.5672   -7.9642   -6.6829 C   0  0  0  0  0  0  0  0  0  0  0  0
   -1.2181   -8.5602   -5.5232 C   0  0  0  0  0  0  0  0  0  0  0  0
   -0.0879   -9.4518   -5.4356 C   0  0  0  0  0  0  0  0  0  0  0  0
    0.8208  -10.1643   -5.3396 N   0  0  0  0  0  0  0  0  0  0  0  0
   -2.0483   -8.4436   -4.3503 C   0  0  0  0  0  0  0  0  0  0  0  0
   -2.7145   -8.3646   -3.4045 N   0  0  0  0  0  0  0  0  0  0  0  0
   -1.2526    6.2757    5.1525 H   0  0  0  0  0  0  0  0  0  0  0  0
    4.8531    4.3562   10.3218 H   0  0  0  0  0  0  0  0  0  0  0  0
    3.5621    4.1134   11.5514 H   0  0  0  0  0  0  0  0  0  0  0  0
    4.2987    5.7602   11.2978 H   0  0  0  0  0  0  0  0  0  0  0  0
    2.0454    6.0657   12.1896 H   0  0  0  0  0  0  0  0  0  0  0  0
   -0.1674    7.0775   12.5393 H   0  0  0  0  0  0  0  0  0  0  0  0
   -1.7570    7.2946   10.6959 H   0  0  0  0  0  0  0  0  0  0  0  0
    0.2682    6.4681    2.9258 H   0  0  0  0  0  0  0  0  0  0  0  0
    1.8940    2.7290   -1.6632 H   0  0  0  0  0  0  0  0  0  0  0  0
   -0.3480    0.0799   -5.2957 H   0  0  0  0  0  0  0  0  0  0  0  0
   -0.6187    1.6202   -7.1420 H   0  0  0  0  0  0  0  0  0  0  0  0
    1.6282    4.6850   -7.5722 H   0  0  0  0  0  0  0  0  0  0  0  0
    1.2469    3.1841   -8.4850 H   0  0  0  0  0  0  0  0  0  0  0  0
   -0.2765    5.1953   -8.9092 H   0  0  0  0  0  0  0  0  0  0  0  0
   -1.1240    3.6760   -8.4640 H   0  0  0  0  0  0  0  0  0  0  0  0
   -0.9086    5.0156   -7.2446 H   0  0  0  0  0  0  0  0  0  0  0  0
    2.3541    4.1875   -5.4162 H   0  0  0  0  0  0  0  0  0  0  0  0
    2.6678    2.6300   -3.6298 H   0  0  0  0  0  0  0  0  0  0  0  0
    4.1805    0.8697   -2.9159 H   0  0  0  0  0  0  0  0  0  0  0  0
    6.1477   -0.0639   -3.9750 H   0  0  0  0  0  0  0  0  0  0  0  0
    6.9436   -1.2714   -6.1899 H   0  0  0  0  0  0  0  0  0  0  0  0
    6.0354   -2.7409   -6.6563 H   0  0  0  0  0  0  0  0  0  0  0  0
    6.4322   -3.6654   -4.2992 H   0  0  0  0  0  0  0  0  0  0  0  0
    7.9291   -3.4390   -5.2955 H   0  0  0  0  0  0  0  0  0  0  0  0
    7.5182   -2.2450   -3.9999 H   0  0  0  0  0  0  0  0  0  0  0  0
    3.6697   -2.7740   -6.2339 H   0  0  0  0  0  0  0  0  0  0  0  0
    1.6762   -1.7900   -5.2389 H   0  0  0  0  0  0  0  0  0  0  0  0
    1.8158   -1.4743    0.9746 H   0  0  0  0  0  0  0  0  0  0  0  0
   -0.2980    0.8847    1.5868 H   0  0  0  0  0  0  0  0  0  0  0  0
   -2.3218    0.4604    2.8712 H   0  0  0  0  0  0  0  0  0  0  0  0
   -2.4506    0.3380    6.5129 H   0  0  0  0  0  0  0  0  0  0  0  0
   -3.4347    0.2638    5.0152 H   0  0  0  0  0  0  0  0  0  0  0  0
   -2.9709   -2.1670    4.7999 H   0  0  0  0  0  0  0  0  0  0  0  0
   -3.6260   -1.8143    6.4397 H   0  0  0  0  0  0  0  0  0  0  0  0
   -1.8651   -2.1239    6.2161 H   0  0  0  0  0  0  0  0  0  0  0  0
    0.0316   -0.2585    6.4011 H   0  0  0  0  0  0  0  0  0  0  0  0
    2.0647    0.1840    5.1471 H   0  0  0  0  0  0  0  0  0  0  0  0
    3.0878   -1.6373    2.8101 H   0  0  0  0  0  0  0  0  0  0  0  0
    5.1432   -2.5548    3.7514 H   0  0  0  0  0  0  0  0  0  0  0  0
    7.0737   -2.2455    5.1809 H   0  0  0  0  0  0  0  0  0  0  0  0
    7.5440   -0.6189    5.7439 H   0  0  0  0  0  0  0  0  0  0  0  0
    8.6259   -0.1370    3.5525 H   0  0  0  0  0  0  0  0  0  0  0  0
    9.2816   -1.6652    4.2592 H   0  0  0  0  0  0  0  0  0  0  0  0
    8.0792   -1.7464    2.9157 H   0  0  0  0  0  0  0  0  0  0  0  0
    6.5387    1.4334    4.6047 H   0  0  0  0  0  0  0  0  0  0  0  0
    4.5092    2.3622    3.6406 H   0  0  0  0  0  0  0  0  0  0  0  0
   -4.4629   -2.7006   -2.8710 H   0  0  0  0  0  0  0  0  0  0  0  0
   -5.5606   -2.9347   -0.7086 H   0  0  0  0  0  0  0  0  0  0  0  0
   -5.2532   -3.2396    1.7443 H   0  0  0  0  0  0  0  0  0  0  0  0
   -3.7635   -2.6287    2.5505 H   0  0  0  0  0  0  0  0  0  0  0  0
   -4.5700   -0.2418    2.1308 H   0  0  0  0  0  0  0  0  0  0  0  0
   -6.1108   -0.9370    1.4676 H   0  0  0  0  0  0  0  0  0  0  0  0
   -5.6533   -1.2045    3.1995 H   0  0  0  0  0  0  0  0  0  0  0  0
   -2.0818   -1.3725    1.2516 H   0  0  0  0  0  0  0  0  0  0  0  0
   -1.0649   -0.9445   -0.8639 H   0  0  0  0  0  0  0  0  0  0  0  0
   -2.7323   -2.0067   -6.1933 H   0  0  0  0  0  0  0  0  0  0  0  0
   -3.9845   -0.2823   -7.3847 H   0  0  0  0  0  0  0  0  0  0  0  0
   -5.3180    1.7517   -7.3029 H   0  0  0  0  0  0  0  0  0  0  0  0
   -5.4288    2.7007   -5.7874 H   0  0  0  0  0  0  0  0  0  0  0  0
   -3.1311    3.6727   -6.2819 H   0  0  0  0  0  0  0  0  0  0  0  0
   -3.1307    2.7441   -7.8347 H   0  0  0  0  0  0  0  0  0  0  0  0
   -4.3524    4.0514   -7.5526 H   0  0  0  0  0  0  0  0  0  0  0  0
   -3.6359    2.3371   -3.9782 H   0  0  0  0  0  0  0  0  0  0  0  0
   -2.4042    0.6114   -2.7634 H   0  0  0  0  0  0  0  0  0  0  0  0
   -3.9517   -3.6881   -4.9540 H   0  0  0  0  0  0  0  0  0  0  0  0
   -4.1399   -5.5848   -6.5719 H   0  0  0  0  0  0  0  0  0  0  0  0
    0.8258   -9.3572   -8.0089 H   0  0  0  0  0  0  0  0  0  0  0  0
  1  2  2  3
  2  3  1  0
  3  4  2  0
  3  5  1  0
  5  6  2  0
  6  7  1  0
  7  8  1  0
  6  9  1  0
  9 10  2  0
 10 11  1  0
 11 12  2  0
 12 13  1  0
 13 14  2  3
 14 15  1  0
 15 16  3  0
 14 17  1  0
 17 18  3  0
  1 19  1  0
 19 20  2  0
 20 21  1  0
 21 22  1  0
 22 23  1  0
 23 24  1  0
 24 25  2  0
 25 26  1  0
 26 27  1  0
 27 28  1  0
 28 29  2  0
 29 30  1  0
 30 31  2  0
 31 32  1  0
 32 33  1  0
 31 34  1  0
 34 35  2  0
 27 36  1  0
 36 37  2  0
 37 38  1  0
 38 39  2  0
 39 40  1  0
 40 41  1  0
 39 42  1  0
 42 43  2  0
 27 44  1  0
 44 45  2  0
 45 46  1  0
 46 47  1  0
 47 48  2  0
 48 49  1  0
 49 50  1  0
 50 51  2  0
 51 52  1  0
 52 53  2  0
 53 54  1  0
 54 55  1  0
 53 56  1  0
 56 57  2  0
 49 58  1  0
 58 59  2  0
 59 60  1  0
 60 61  2  0
 61 62  1  0
 62 63  1  0
 61 64  1  0
 64 65  2  0
 49 66  1  0
 66 67  1  0
 67 68  1  0
 45 69  1  0
 69 70  1  0
 70 71  1  0
 71 72  2  0
 72 73  1  0
 73 74  1  0
 73 75  1  0
 75 76  2  0
 76 77  1  0
 77 78  2  0
 78 79  1  0
 79 80  1  0
 78 81  1  0
 81 82  2  0
 73 83  1  0
 83 84  2  0
 84 85  1  0
 85 86  2  0
 86 87  1  0
 87 88  1  0
 86 89  1  0
 89 90  2  0
 72 91  1  0
 91 92  2  0
 92 93  1  0
 92 94  1  0
 94 95  2  3
 95 96  1  0
 96 97  2  0
 96 98  1  0
 98 99  1  0
 99100  1  0
100101  1  0
100102  2  0
102103  1  0
103104  1  0
104105  2  3
105106  1  0
106107  3  0
105108  1  0
108109  3  0
 13  2  1  0
 68 19  1  0
 74 70  2  0
 82 75  1  0
 90 83  1  0
104 95  1  0
 12  5  1  0
 67 21  2  0
 93 71  1  0
103 98  2  0
 66 23  2  0
 48 24  1  0
 57 50  1  0
 65 58  1  0
 46 26  2  0
 35 28  1  0
 43 36  1  0
 74 44  1  0
  1110  1  0
  8111  1  0
  8112  1  0
  8113  1  0
  9114  1  0
 10115  1  0
 11116  1  0
 20117  1  0
 25118  1  0
 29119  1  0
 30120  1  0
 32121  1  0
 32122  1  0
 33123  1  0
 33124  1  0
 33125  1  0
 34126  1  0
 35127  1  0
 37128  1  0
 38129  1  0
 40130  1  0
 40131  1  0
 41132  1  0
 41133  1  0
 41134  1  0
 42135  1  0
 43136  1  0
 47137  1  0
 51138  1  0
 52139  1  0
 54140  1  0
 54141  1  0
 55142  1  0
 55143  1  0
 55144  1  0
 56145  1  0
 57146  1  0
 59147  1  0
 60148  1  0
 62149  1  0
 62150  1  0
 63151  1  0
 63152  1  0
 63153  1  0
 64154  1  0
 65155  1  0
 76156  1  0
 77157  1  0
 79158  1  0
 79159  1  0
 80160  1  0
 80161  1  0
 80162  1  0
 81163  1  0
 82164  1  0
 84165  1  0
 85166  1  0
 87167  1  0
 87168  1  0
 88169  1  0
 88170  1  0
 88171  1  0
 89172  1  0
 90173  1  0
 91174  1  0
 94175  1  0
102176  1  0
M  END

