
     RDKit          3D

 99109  0  0  0  0  0  0  0  0999 V2000
   -5.0557   -2.3702   -1.6798 C   0  0  0  0  0  0  0  0  0  0  0  0
   -5.6574   -3.2304   -0.8355 C   0  0  0  0  0  0  0  0  0  0  0  0
   -5.0066   -4.1706    0.0828 C   0  0  0  0  0  0  0  0  0  0  0  0
   -3.8922   -4.7315   -0.0896 O   0  0  0  0  0  0  0  0  0  0  0  0
   -5.9295   -4.4603    1.1647 C   0  0  0  0  0  0  0  0  0  0  0  0
   -5.6745   -5.1192    2.3727 C   0  0  0  0  0  0  0  0  0  0  0  0
   -4.4074   -5.6751    2.6012 O   0  0  0  0  0  0  0  0  0  0  0  0
   -4.0086   -6.2827    3.8261 C   0  0  0  0  0  0  0  0  0  0  0  0
   -6.7151   -5.1733    3.3260 C   0  0  0  0  0  0  0  0  0  0  0  0
   -7.9477   -4.5503    3.0691 C   0  0  0  0  0  0  0  0  0  0  0  0
   -8.1652   -3.8722    1.8578 C   0  0  0  0  0  0  0  0  0  0  0  0
   -7.1474   -3.8600    0.8918 C   0  0  0  0  0  0  0  0  0  0  0  0
   -7.0961   -3.1995   -0.4377 C   0  0  0  0  0  0  0  0  0  0  0  0
   -8.1539   -2.8757   -1.2255 C   0  0  0  0  0  0  0  0  0  0  0  0
   -7.9950   -2.5002   -2.6042 C   0  0  0  0  0  0  0  0  0  0  0  0
   -7.8692   -2.2051   -3.7152 N   0  0  0  0  0  0  0  0  0  0  0  0
   -9.5161   -3.0507   -0.7949 C   0  0  0  0  0  0  0  0  0  0  0  0
  -10.6146   -3.1937   -0.4598 N   0  0  0  0  0  0  0  0  0  0  0  0
   -3.5951   -2.1862   -1.8514 C   0  0  0  0  0  0  0  0  0  0  0  0
   -2.6439   -2.2665   -0.8142 C   0  0  0  0  0  0  0  0  0  0  0  0
   -1.5080   -1.7720   -1.3945 C   0  0  0  0  0  0  0  0  0  0  0  0
   -1.7570   -1.4113   -2.6437 C   0  0  0  0  0  0  0  0  0  0  0  0
   -3.0387   -1.6494   -2.9862 N   0  0  0  0  0  0  0  0  0  0  0  0
   -3.7362   -1.2707   -4.2178 C   0  0  0  0  0  0  0  0  0  0  0  0
   -4.1179    0.2063   -4.1873 C   0  0  0  0  0  0  0  0  0  0  0  0
   -0.6436   -0.7406   -3.1145 C   0  0  0  0  0  0  0  0  0  0  0  0
   -0.2956   -0.1537   -4.3421 C   0  0  0  0  0  0  0  0  0  0  0  0
    0.9764    0.4903   -4.4570 C   0  0  0  0  0  0  0  0  0  0  0  0
    1.2684    1.0681   -5.6494 N   0  0  0  0  0  0  0  0  0  0  0  0
   -0.1059    0.6915   -6.4888 S   0  0  0  0  0  0  0  0  0  0  0  0
   -1.0736   -0.1549   -5.4481 N   0  0  0  0  0  0  0  0  0  0  0  0
    1.8097    0.5568   -3.3336 C   0  0  0  0  0  0  0  0  0  0  0  0
    2.8906    1.3571   -3.0879 C   0  0  0  0  0  0  0  0  0  0  0  0
    3.6496    2.6546   -3.8805 S   0  0  0  0  0  0  0  0  0  0  0  0
    4.2981    3.2179   -2.4104 C   0  0  0  0  0  0  0  0  0  0  0  0
    5.0172    4.3647   -2.0634 C   0  0  0  0  0  0  0  0  0  0  0  0
    5.4798    5.3934   -3.0550 C   0  0  0  0  0  0  0  0  0  0  0  0
    4.3810    6.4163   -3.3182 C   0  0  0  0  0  0  0  0  0  0  0  0
    5.1581    4.4628   -0.6679 C   0  0  0  0  0  0  0  0  0  0  0  0
    4.3147    3.1799    0.0837 S   0  0  0  0  0  0  0  0  0  0  0  0
    3.8691    2.4553   -1.3548 C   0  0  0  0  0  0  0  0  0  0  0  0
    3.0745    1.3822   -1.7416 C   0  0  0  0  0  0  0  0  0  0  0  0
    2.1749    0.6111   -1.0763 N   0  0  0  0  0  0  0  0  0  0  0  0
    1.4272    0.0431   -2.0831 C   0  0  0  0  0  0  0  0  0  0  0  0
    0.2320   -0.7160   -2.0053 C   0  0  0  0  0  0  0  0  0  0  0  0
   -0.2856   -1.4209   -0.9502 N   0  0  0  0  0  0  0  0  0  0  0  0
    0.4425   -2.1128    0.1227 C   0  0  0  0  0  0  0  0  0  0  0  0
    0.3935   -3.6316   -0.0527 C   0  0  0  0  0  0  0  0  0  0  0  0
    1.7894    0.8210    0.3255 C   0  0  0  0  0  0  0  0  0  0  0  0
    2.8081    0.2036    1.2861 C   0  0  0  0  0  0  0  0  0  0  0  0
    5.7512    5.6020    0.0543 C   0  0  0  0  0  0  0  0  0  0  0  0
    6.5184    5.4792    1.1538 C   0  0  0  0  0  0  0  0  0  0  0  0
    7.2074    4.2547    1.5870 C   0  0  0  0  0  0  0  0  0  0  0  0
    7.0982    3.1075    1.0796 O   0  0  0  0  0  0  0  0  0  0  0  0
    8.1731    4.6085    2.6000 C   0  0  0  0  0  0  0  0  0  0  0  0
    9.1007    3.7735    3.2232 C   0  0  0  0  0  0  0  0  0  0  0  0
   10.0207    4.3405    4.1149 C   0  0  0  0  0  0  0  0  0  0  0  0
   11.1940    3.3090    4.9177 Cl  0  0  0  0  0  0  0  0  0  0  0  0
   10.0188    5.7315    4.3395 C   0  0  0  0  0  0  0  0  0  0  0  0
   10.9368    6.2862    5.1722 F   0  0  0  0  0  0  0  0  0  0  0  0
    9.0857    6.5569    3.6864 C   0  0  0  0  0  0  0  0  0  0  0  0
    8.1411    5.9740    2.8237 C   0  0  0  0  0  0  0  0  0  0  0  0
    7.0516    6.5876    2.0077 C   0  0  0  0  0  0  0  0  0  0  0  0
    6.4990    7.8189    2.1809 C   0  0  0  0  0  0  0  0  0  0  0  0
    5.2888    8.2241    1.5128 C   0  0  0  0  0  0  0  0  0  0  0  0
    4.3174    8.5614    0.9806 N   0  0  0  0  0  0  0  0  0  0  0  0
    7.0061    8.7746    3.1327 C   0  0  0  0  0  0  0  0  0  0  0  0
    7.3944    9.5521    3.8988 N   0  0  0  0  0  0  0  0  0  0  0  0
   -5.6613   -1.6554   -2.2111 H   0  0  0  0  0  0  0  0  0  0  0  0
   -4.6392   -7.1747    4.0377 H   0  0  0  0  0  0  0  0  0  0  0  0
   -2.9493   -6.6058    3.7404 H   0  0  0  0  0  0  0  0  0  0  0  0
   -4.0944   -5.5498    4.6606 H   0  0  0  0  0  0  0  0  0  0  0  0
   -6.5744   -5.6728    4.2760 H   0  0  0  0  0  0  0  0  0  0  0  0
   -8.7225   -4.5704    3.8235 H   0  0  0  0  0  0  0  0  0  0  0  0
   -9.0989   -3.3516    1.7198 H   0  0  0  0  0  0  0  0  0  0  0  0
   -2.7919   -2.4922    0.2323 H   0  0  0  0  0  0  0  0  0  0  0  0
   -3.1030   -1.4905   -5.0986 H   0  0  0  0  0  0  0  0  0  0  0  0
   -4.6523   -1.8875   -4.3456 H   0  0  0  0  0  0  0  0  0  0  0  0
   -3.2248    0.8333   -3.9973 H   0  0  0  0  0  0  0  0  0  0  0  0
   -4.8645    0.3905   -3.3903 H   0  0  0  0  0  0  0  0  0  0  0  0
   -4.5570    0.4990   -5.1647 H   0  0  0  0  0  0  0  0  0  0  0  0
    5.7523    4.8910   -4.0075 H   0  0  0  0  0  0  0  0  0  0  0  0
    6.3887    5.9098   -2.6785 H   0  0  0  0  0  0  0  0  0  0  0  0
    4.1003    6.9420   -2.3805 H   0  0  0  0  0  0  0  0  0  0  0  0
    4.7421    7.1653   -4.0533 H   0  0  0  0  0  0  0  0  0  0  0  0
    3.4822    5.9169   -3.7370 H   0  0  0  0  0  0  0  0  0  0  0  0
    0.0154   -1.8375    1.1125 H   0  0  0  0  0  0  0  0  0  0  0  0
    1.5068   -1.8326    0.0924 H   0  0  0  0  0  0  0  0  0  0  0  0
   -0.6312   -4.0145    0.1302 H   0  0  0  0  0  0  0  0  0  0  0  0
    0.7058   -3.9051   -1.0827 H   0  0  0  0  0  0  0  0  0  0  0  0
    1.0799   -4.1175    0.6709 H   0  0  0  0  0  0  0  0  0  0  0  0
    1.7067    1.9084    0.5361 H   0  0  0  0  0  0  0  0  0  0  0  0
    0.7819    0.4200    0.5226 H   0  0  0  0  0  0  0  0  0  0  0  0
    2.3057   -0.0628    2.2383 H   0  0  0  0  0  0  0  0  0  0  0  0
    3.6213    0.9179    1.5121 H   0  0  0  0  0  0  0  0  0  0  0  0
    3.2766   -0.7050    0.8612 H   0  0  0  0  0  0  0  0  0  0  0  0
    5.5601    6.5784   -0.3588 H   0  0  0  0  0  0  0  0  0  0  0  0
    9.1090    2.7097    3.0189 H   0  0  0  0  0  0  0  0  0  0  0  0
    9.1478    7.6220    3.8374 H   0  0  0  0  0  0  0  0  0  0  0  0
  1  2  2  3
  2  3  1  0
  3  4  2  0
  3  5  1  0
  5  6  2  0
  6  7  1  0
  7  8  1  0
  6  9  1  0
  9 10  2  0
 10 11  1  0
 11 12  2  0
 12 13  1  0
 13 14  2  3
 14 15  1  0
 15 16  3  0
 14 17  1  0
 17 18  3  0
  1 19  1  0
 19 20  2  0
 20 21  1  0
 21 22  2  0
 22 23  1  0
 23 24  1  0
 24 25  1  0
 22 26  1  0
 26 27  1  0
 27 28  1  0
 28 29  2  0
 29 30  1  0
 30 31  1  0
 28 32  1  0
 32 33  1  0
 33 34  1  0
 34 35  1  0
 35 36  1  0
 36 37  1  0
 37 38  1  0
 36 39  2  0
 39 40  1  0
 40 41  1  0
 41 42  1  0
 42 43  1  0
 43 44  1  0
 44 45  1  0
 45 46  1  0
 46 47  1  0
 47 48  1  0
 43 49  1  0
 49 50  1  0
 39 51  1  0
 51 52  2  3
 52 53  1  0
 53 54  2  0
 53 55  1  0
 55 56  2  0
 56 57  1  0
 57 58  1  0
 57 59  2  0
 59 60  1  0
 59 61  1  0
 61 62  2  0
 62 63  1  0
 63 64  2  3
 64 65  1  0
 65 66  3  0
 64 67  1  0
 67 68  3  0
 13  2  1  0
 23 19  1  0
 45 26  2  0
 63 52  1  0
 12  5  1  0
 46 21  1  0
 62 55  1  0
 31 27  2  0
 44 32  2  0
 42 33  2  0
 41 35  2  0
  1 69  1  0
  8 70  1  0
  8 71  1  0
  8 72  1  0
  9 73  1  0
 10 74  1  0
 11 75  1  0
 20 76  1  0
 24 77  1  0
 24 78  1  0
 25 79  1  0
 25 80  1  0
 25 81  1  0
 37 82  1  0
 37 83  1  0
 38 84  1  0
 38 85  1  0
 38 86  1  0
 47 87  1  0
 47 88  1  0
 48 89  1  0
 48 90  1  0
 48 91  1  0
 49 92  1  0
 49 93  1  0
 50 94  1  0
 50 95  1  0
 50 96  1  0
 51 97  1  0
 56 98  1  0
 61 99  1  0
M  END

