
     RDKit          3D

121134  0  0  0  0  0  0  0  0999 V2000
   -4.7288    6.1221    3.0139 C   0  0  0  0  0  0  0  0  0  0  0  0
   -5.9319    5.5191    3.0759 C   0  0  0  0  0  0  0  0  0  0  0  0
   -6.4055    4.5263    2.1037 C   0  0  0  0  0  0  0  0  0  0  0  0
   -5.9883    4.3842    0.9228 O   0  0  0  0  0  0  0  0  0  0  0  0
   -7.4931    3.7801    2.6915 C   0  0  0  0  0  0  0  0  0  0  0  0
   -8.2250    2.7346    2.1289 C   0  0  0  0  0  0  0  0  0  0  0  0
   -7.9015    2.2477    0.8599 O   0  0  0  0  0  0  0  0  0  0  0  0
   -8.7645    2.4065   -0.2537 C   0  0  0  0  0  0  0  0  0  0  0  0
   -9.2917    2.1959    2.8706 C   0  0  0  0  0  0  0  0  0  0  0  0
   -9.6274    2.7378    4.1230 C   0  0  0  0  0  0  0  0  0  0  0  0
   -8.8884    3.8048    4.6571 C   0  0  0  0  0  0  0  0  0  0  0  0
   -7.7786    4.2923    3.9428 C   0  0  0  0  0  0  0  0  0  0  0  0
   -6.8403    5.4070    4.2648 C   0  0  0  0  0  0  0  0  0  0  0  0
   -6.6691    5.9879    5.4822 C   0  0  0  0  0  0  0  0  0  0  0  0
   -7.2232    5.4224    6.6859 C   0  0  0  0  0  0  0  0  0  0  0  0
   -7.6510    4.9418    7.6518 N   0  0  0  0  0  0  0  0  0  0  0  0
   -6.0171    7.2638    5.6303 C   0  0  0  0  0  0  0  0  0  0  0  0
   -5.5304    8.3091    5.7854 N   0  0  0  0  0  0  0  0  0  0  0  0
   -3.6692    5.5811    2.1440 C   0  0  0  0  0  0  0  0  0  0  0  0
   -2.9450    6.2695    1.1519 C   0  0  0  0  0  0  0  0  0  0  0  0
   -3.0530    7.7081    0.8664 C   0  0  0  0  0  0  0  0  0  0  0  0
   -2.3315    8.6021    1.6748 C   0  0  0  0  0  0  0  0  0  0  0  0
   -2.3281    9.9691    1.3995 C   0  0  0  0  0  0  0  0  0  0  0  0
   -3.0442   10.4625    0.3065 C   0  0  0  0  0  0  0  0  0  0  0  0
   -3.7756    9.5898   -0.5055 C   0  0  0  0  0  0  0  0  0  0  0  0
   -3.7886    8.2083   -0.2405 C   0  0  0  0  0  0  0  0  0  0  0  0
   -4.6509    7.3137   -1.1042 C   0  0  0  0  0  0  0  0  0  0  0  0
   -6.1143    7.3965   -0.6778 C   0  0  0  0  0  0  0  0  0  0  0  0
   -2.0558    5.4068    0.5026 C   0  0  0  0  0  0  0  0  0  0  0  0
   -0.9030    5.6093   -0.7434 S   0  0  0  0  0  0  0  0  0  0  0  0
   -0.4741    3.9667   -0.6337 C   0  0  0  0  0  0  0  0  0  0  0  0
    0.5360    3.1462   -1.0450 C   0  0  0  0  0  0  0  0  0  0  0  0
    1.6393    3.3994   -1.8645 C   0  0  0  0  0  0  0  0  0  0  0  0
    2.6373    2.3928   -2.0015 C   0  0  0  0  0  0  0  0  0  0  0  0
    3.6856    2.6659   -2.8185 N   0  0  0  0  0  0  0  0  0  0  0  0
    3.2722    4.2007   -3.2826 S   0  0  0  0  0  0  0  0  0  0  0  0
    1.8349    4.5595   -2.5404 N   0  0  0  0  0  0  0  0  0  0  0  0
    2.4653    1.1817   -1.3249 C   0  0  0  0  0  0  0  0  0  0  0  0
    3.1431    0.0049   -1.4419 C   0  0  0  0  0  0  0  0  0  0  0  0
    4.4287   -0.6371   -2.3476 S   0  0  0  0  0  0  0  0  0  0  0  0
    4.0125   -2.2140   -1.8436 C   0  0  0  0  0  0  0  0  0  0  0  0
    4.5353   -3.4765   -2.1234 C   0  0  0  0  0  0  0  0  0  0  0  0
    5.7286   -3.6826   -2.9635 C   0  0  0  0  0  0  0  0  0  0  0  0
    5.6348   -3.9819   -4.3487 C   0  0  0  0  0  0  0  0  0  0  0  0
    4.3046   -4.1516   -5.0634 C   0  0  0  0  0  0  0  0  0  0  0  0
    4.1644   -5.5502   -5.6633 C   0  0  0  0  0  0  0  0  0  0  0  0
    6.8208   -4.0551   -5.1066 C   0  0  0  0  0  0  0  0  0  0  0  0
    8.0636   -3.8444   -4.5064 C   0  0  0  0  0  0  0  0  0  0  0  0
    8.1437   -3.5423   -3.1494 C   0  0  0  0  0  0  0  0  0  0  0  0
    6.9823   -3.4545   -2.3822 C   0  0  0  0  0  0  0  0  0  0  0  0
    3.7973   -4.4886   -1.4784 C   0  0  0  0  0  0  0  0  0  0  0  0
    2.4701   -3.7920   -0.6561 S   0  0  0  0  0  0  0  0  0  0  0  0
    2.9000   -2.2179   -1.0385 C   0  0  0  0  0  0  0  0  0  0  0  0
    2.4244   -0.9379   -0.7930 C   0  0  0  0  0  0  0  0  0  0  0  0
    1.2918   -0.4474   -0.2321 N   0  0  0  0  0  0  0  0  0  0  0  0
    1.3372    0.9032   -0.5233 C   0  0  0  0  0  0  0  0  0  0  0  0
    0.3857    1.9497   -0.3118 C   0  0  0  0  0  0  0  0  0  0  0  0
   -0.6279    2.0826    0.6098 N   0  0  0  0  0  0  0  0  0  0  0  0
   -1.1489    3.3042    0.3312 C   0  0  0  0  0  0  0  0  0  0  0  0
   -2.0524    4.1250    0.9875 C   0  0  0  0  0  0  0  0  0  0  0  0
   -3.1487    3.9603    2.2373 S   0  0  0  0  0  0  0  0  0  0  0  0
   -0.7174    1.4932    1.9537 C   0  0  0  0  0  0  0  0  0  0  0  0
    0.2604    2.1718    2.9137 C   0  0  0  0  0  0  0  0  0  0  0  0
    0.1656   -1.2909    0.2019 C   0  0  0  0  0  0  0  0  0  0  0  0
    0.4486   -1.9028    1.5846 C   0  0  0  0  0  0  0  0  0  0  0  0
    4.0657   -5.9363   -1.5874 C   0  0  0  0  0  0  0  0  0  0  0  0
    4.0319   -6.7938   -0.5477 C   0  0  0  0  0  0  0  0  0  0  0  0
    3.9987   -6.4446    0.8852 C   0  0  0  0  0  0  0  0  0  0  0  0
    3.9843   -5.2751    1.3668 O   0  0  0  0  0  0  0  0  0  0  0  0
    4.2237   -7.6521    1.6652 C   0  0  0  0  0  0  0  0  0  0  0  0
    4.4800   -8.6979    0.8027 C   0  0  0  0  0  0  0  0  0  0  0  0
    4.6057  -10.0124    1.2762 C   0  0  0  0  0  0  0  0  0  0  0  0
    4.5193  -10.2419    2.6553 C   0  0  0  0  0  0  0  0  0  0  0  0
    4.2974   -9.1727    3.5456 C   0  0  0  0  0  0  0  0  0  0  0  0
    4.1764   -9.5610    5.4186 Br  0  0  0  0  0  0  0  0  0  0  0  0
    4.1425   -7.8541    3.0494 C   0  0  0  0  0  0  0  0  0  0  0  0
    3.7925   -6.5113    4.1328 Cl  0  0  0  0  0  0  0  0  0  0  0  0
    4.3370   -8.2556   -0.5949 C   0  0  0  0  0  0  0  0  0  0  0  0
    4.7580   -8.9616   -1.6582 C   0  0  0  0  0  0  0  0  0  0  0  0
    4.1031   -8.8144   -2.9304 C   0  0  0  0  0  0  0  0  0  0  0  0
    3.5783   -8.7124   -3.9562 N   0  0  0  0  0  0  0  0  0  0  0  0
    6.1465   -9.3230   -1.6896 C   0  0  0  0  0  0  0  0  0  0  0  0
    7.2806   -9.5391   -1.7201 N   0  0  0  0  0  0  0  0  0  0  0  0
   -4.4242    6.8621    3.7330 H   0  0  0  0  0  0  0  0  0  0  0  0
   -9.6259    3.0724   -0.0047 H   0  0  0  0  0  0  0  0  0  0  0  0
   -9.1457    1.4102   -0.5757 H   0  0  0  0  0  0  0  0  0  0  0  0
   -8.1887    2.8661   -1.0843 H   0  0  0  0  0  0  0  0  0  0  0  0
   -9.8592    1.3651    2.4755 H   0  0  0  0  0  0  0  0  0  0  0  0
  -10.4649    2.3319    4.6748 H   0  0  0  0  0  0  0  0  0  0  0  0
   -9.2100    4.2428    5.5872 H   0  0  0  0  0  0  0  0  0  0  0  0
   -1.7436    8.2290    2.5031 H   0  0  0  0  0  0  0  0  0  0  0  0
   -1.7582   10.6473    2.0169 H   0  0  0  0  0  0  0  0  0  0  0  0
   -3.0414   11.5210    0.0903 H   0  0  0  0  0  0  0  0  0  0  0  0
   -4.3481    9.9919   -1.3298 H   0  0  0  0  0  0  0  0  0  0  0  0
   -4.3184    6.2513   -1.0643 H   0  0  0  0  0  0  0  0  0  0  0  0
   -4.5663    7.6350   -2.1682 H   0  0  0  0  0  0  0  0  0  0  0  0
   -6.2360    7.0436    0.3712 H   0  0  0  0  0  0  0  0  0  0  0  0
   -6.4725    8.4487   -0.7432 H   0  0  0  0  0  0  0  0  0  0  0  0
   -6.7385    6.7744   -1.3472 H   0  0  0  0  0  0  0  0  0  0  0  0
    3.4447   -3.9716   -4.3843 H   0  0  0  0  0  0  0  0  0  0  0  0
    4.2375   -3.4007   -5.8782 H   0  0  0  0  0  0  0  0  0  0  0  0
    4.3028   -6.3207   -4.8803 H   0  0  0  0  0  0  0  0  0  0  0  0
    3.1515   -5.6654   -6.1012 H   0  0  0  0  0  0  0  0  0  0  0  0
    4.9112   -5.7140   -6.4709 H   0  0  0  0  0  0  0  0  0  0  0  0
    6.7809   -4.2578   -6.1709 H   0  0  0  0  0  0  0  0  0  0  0  0
    8.9676   -3.8875   -5.1095 H   0  0  0  0  0  0  0  0  0  0  0  0
    9.1104   -3.3538   -2.6919 H   0  0  0  0  0  0  0  0  0  0  0  0
    7.0641   -3.2021   -1.3298 H   0  0  0  0  0  0  0  0  0  0  0  0
   -0.5046    0.4357    1.9510 H   0  0  0  0  0  0  0  0  0  0  0  0
   -1.7522    1.5856    2.3414 H   0  0  0  0  0  0  0  0  0  0  0  0
    0.2828    1.6082    3.8770 H   0  0  0  0  0  0  0  0  0  0  0  0
   -0.0538    3.2193    3.1021 H   0  0  0  0  0  0  0  0  0  0  0  0
    1.2879    2.1708    2.4857 H   0  0  0  0  0  0  0  0  0  0  0  0
    0.0178   -2.1166   -0.5322 H   0  0  0  0  0  0  0  0  0  0  0  0
   -0.7761   -0.7161    0.1826 H   0  0  0  0  0  0  0  0  0  0  0  0
    0.9541   -1.1729    2.2546 H   0  0  0  0  0  0  0  0  0  0  0  0
    1.1050   -2.7934    1.5000 H   0  0  0  0  0  0  0  0  0  0  0  0
   -0.5066   -2.2275    2.0560 H   0  0  0  0  0  0  0  0  0  0  0  0
    4.3681   -6.2976   -2.5546 H   0  0  0  0  0  0  0  0  0  0  0  0
    4.7514  -10.8398    0.5978 H   0  0  0  0  0  0  0  0  0  0  0  0
    4.6112  -11.2555    3.0334 H   0  0  0  0  0  0  0  0  0  0  0  0
  1  2  2  3
  2  3  1  0
  3  4  2  0
  3  5  1  0
  5  6  2  0
  6  7  1  0
  7  8  1  0
  6  9  1  0
  9 10  2  0
 10 11  1  0
 11 12  2  0
 12 13  1  0
 13 14  2  3
 14 15  1  0
 15 16  3  0
 14 17  1  0
 17 18  3  0
  1 19  1  0
 19 20  2  0
 20 21  1  0
 21 22  2  0
 22 23  1  0
 23 24  2  0
 24 25  1  0
 25 26  2  0
 26 27  1  0
 27 28  1  0
 20 29  1  0
 29 30  1  0
 30 31  1  0
 31 32  1  0
 32 33  1  0
 33 34  1  0
 34 35  2  0
 35 36  1  0
 36 37  1  0
 34 38  1  0
 38 39  1  0
 39 40  1  0
 40 41  1  0
 41 42  1  0
 42 43  1  0
 43 44  2  0
 44 45  1  0
 45 46  1  0
 44 47  1  0
 47 48  2  0
 48 49  1  0
 49 50  2  0
 42 51  2  0
 51 52  1  0
 52 53  1  0
 53 54  1  0
 54 55  1  0
 55 56  1  0
 56 57  1  0
 57 58  1  0
 58 59  1  0
 59 60  1  0
 60 61  1  0
 58 62  1  0
 62 63  1  0
 55 64  1  0
 64 65  1  0
 51 66  1  0
 66 67  2  3
 67 68  1  0
 68 69  2  0
 68 70  1  0
 70 71  2  0
 71 72  1  0
 72 73  2  0
 73 74  1  0
 74 75  1  0
 74 76  2  0
 76 77  1  0
 71 78  1  0
 78 79  2  3
 79 80  1  0
 80 81  3  0
 79 82  1  0
 82 83  3  0
 13  2  1  0
 61 19  1  0
 78 67  1  0
 12  5  1  0
 26 21  1  0
 60 29  2  0
 76 70  1  0
 59 31  2  0
 57 32  2  0
 37 33  2  0
 56 38  2  0
 54 39  2  0
 53 41  2  0
 50 43  1  0
  1 84  1  0
  8 85  1  0
  8 86  1  0
  8 87  1  0
  9 88  1  0
 10 89  1  0
 11 90  1  0
 22 91  1  0
 23 92  1  0
 24 93  1  0
 25 94  1  0
 27 95  1  0
 27 96  1  0
 28 97  1  0
 28 98  1  0
 28 99  1  0
 45100  1  0
 45101  1  0
 46102  1  0
 46103  1  0
 46104  1  0
 47105  1  0
 48106  1  0
 49107  1  0
 50108  1  0
 62109  1  0
 62110  1  0
 63111  1  0
 63112  1  0
 63113  1  0
 64114  1  0
 64115  1  0
 65116  1  0
 65117  1  0
 65118  1  0
 66119  1  0
 72120  1  0
 73121  1  0
M  END

