
     RDKit          3D

101112  0  0  0  0  0  0  0  0999 V2000
   -1.4604    6.6823    2.2275 C   0  0  0  0  0  0  0  0  0  0  0  0
   -1.2651    6.8589    3.5499 C   0  0  0  0  0  0  0  0  0  0  0  0
   -0.1747    6.2970    4.3555 C   0  0  0  0  0  0  0  0  0  0  0  0
    0.9398    5.8971    3.9267 O   0  0  0  0  0  0  0  0  0  0  0  0
   -0.5558    6.3596    5.7535 C   0  0  0  0  0  0  0  0  0  0  0  0
    0.1104    5.8275    6.8634 C   0  0  0  0  0  0  0  0  0  0  0  0
    1.3533    5.2000    6.6897 O   0  0  0  0  0  0  0  0  0  0  0  0
    2.1432    4.6785    7.7549 C   0  0  0  0  0  0  0  0  0  0  0  0
   -0.5109    5.9504    8.1240 C   0  0  0  0  0  0  0  0  0  0  0  0
   -1.7652    6.5715    8.2404 C   0  0  0  0  0  0  0  0  0  0  0  0
   -2.4099    7.0929    7.1114 C   0  0  0  0  0  0  0  0  0  0  0  0
   -1.7738    7.0095    5.8632 C   0  0  0  0  0  0  0  0  0  0  0  0
   -2.2191    7.4792    4.5197 C   0  0  0  0  0  0  0  0  0  0  0  0
   -3.1288    8.4502    4.2631 C   0  0  0  0  0  0  0  0  0  0  0  0
   -3.2985    9.0292    2.9540 C   0  0  0  0  0  0  0  0  0  0  0  0
   -3.4403    9.5032    1.9074 N   0  0  0  0  0  0  0  0  0  0  0  0
   -3.8810    9.0976    5.3077 C   0  0  0  0  0  0  0  0  0  0  0  0
   -4.4865    9.6337    6.1382 N   0  0  0  0  0  0  0  0  0  0  0  0
   -0.6104    5.8528    1.3510 C   0  0  0  0  0  0  0  0  0  0  0  0
   -0.3460    6.1375   -0.0056 C   0  0  0  0  0  0  0  0  0  0  0  0
   -0.7715    7.3895   -0.7227 C   0  0  0  0  0  0  0  0  0  0  0  0
   -2.1234    7.1903   -1.3978 C   0  0  0  0  0  0  0  0  0  0  0  0
    0.2544    5.0448   -0.6375 C   0  0  0  0  0  0  0  0  0  0  0  0
    0.7138    4.7455   -2.2546 S   0  0  0  0  0  0  0  0  0  0  0  0
    1.0950    3.1417   -1.8599 C   0  0  0  0  0  0  0  0  0  0  0  0
    1.6362    2.0382   -2.4438 C   0  0  0  0  0  0  0  0  0  0  0  0
    2.1777    1.8307   -3.7140 C   0  0  0  0  0  0  0  0  0  0  0  0
    2.7802    0.5719   -4.0016 C   0  0  0  0  0  0  0  0  0  0  0  0
    3.2763    0.4022   -5.2521 N   0  0  0  0  0  0  0  0  0  0  0  0
    2.9326    1.8895   -5.8969 S   0  0  0  0  0  0  0  0  0  0  0  0
    2.1818    2.7575   -4.7025 N   0  0  0  0  0  0  0  0  0  0  0  0
    2.7731   -0.4216   -3.0132 C   0  0  0  0  0  0  0  0  0  0  0  0
    2.9612   -1.7691   -3.1326 C   0  0  0  0  0  0  0  0  0  0  0  0
    3.0487   -2.8339   -4.4546 S   0  0  0  0  0  0  0  0  0  0  0  0
    2.4165   -4.1085   -3.5224 C   0  0  0  0  0  0  0  0  0  0  0  0
    1.9656   -5.3914   -3.8483 C   0  0  0  0  0  0  0  0  0  0  0  0
    2.0416   -5.9909   -5.2261 C   0  0  0  0  0  0  0  0  0  0  0  0
    0.7584   -5.7213   -6.0027 C   0  0  0  0  0  0  0  0  0  0  0  0
    1.2645   -5.9590   -2.7701 C   0  0  0  0  0  0  0  0  0  0  0  0
    1.2382   -4.8791   -1.4514 S   0  0  0  0  0  0  0  0  0  0  0  0
    2.1054   -3.6874   -2.2538 C   0  0  0  0  0  0  0  0  0  0  0  0
    2.4040   -2.3455   -2.0314 C   0  0  0  0  0  0  0  0  0  0  0  0
    1.8645   -1.4332   -1.1793 N   0  0  0  0  0  0  0  0  0  0  0  0
    2.1658   -0.2264   -1.7602 C   0  0  0  0  0  0  0  0  0  0  0  0
    1.6793    1.0651   -1.4350 C   0  0  0  0  0  0  0  0  0  0  0  0
    1.2800    1.5839   -0.2257 N   0  0  0  0  0  0  0  0  0  0  0  0
    0.8958    2.8447   -0.5545 C   0  0  0  0  0  0  0  0  0  0  0  0
    0.4320    3.9393    0.1556 C   0  0  0  0  0  0  0  0  0  0  0  0
   -0.1508    4.2405    1.6935 S   0  0  0  0  0  0  0  0  0  0  0  0
    1.8002    1.2049    1.0969 C   0  0  0  0  0  0  0  0  0  0  0  0
    0.6809    1.0225    2.1297 C   0  0  0  0  0  0  0  0  0  0  0  0
    0.7182   -1.7226   -0.3061 C   0  0  0  0  0  0  0  0  0  0  0  0
   -0.5888   -1.7194   -1.0967 C   0  0  0  0  0  0  0  0  0  0  0  0
    0.5739   -7.2549   -2.7921 C   0  0  0  0  0  0  0  0  0  0  0  0
   -0.7639   -7.3713   -2.7085 C   0  0  0  0  0  0  0  0  0  0  0  0
   -1.7162   -6.2627   -2.5473 C   0  0  0  0  0  0  0  0  0  0  0  0
   -1.5040   -5.0440   -2.7955 O   0  0  0  0  0  0  0  0  0  0  0  0
   -2.9727   -6.8104   -2.0908 C   0  0  0  0  0  0  0  0  0  0  0  0
   -4.1119   -6.1208   -1.6724 C   0  0  0  0  0  0  0  0  0  0  0  0
   -5.1976   -6.8595   -1.1780 C   0  0  0  0  0  0  0  0  0  0  0  0
   -6.3219   -6.2185   -0.7658 F   0  0  0  0  0  0  0  0  0  0  0  0
   -5.1067   -8.2602   -1.0798 C   0  0  0  0  0  0  0  0  0  0  0  0
   -3.9464   -8.9335   -1.4976 C   0  0  0  0  0  0  0  0  0  0  0  0
   -2.8839   -8.1913   -2.0369 C   0  0  0  0  0  0  0  0  0  0  0  0
   -1.5532   -8.6306   -2.5418 C   0  0  0  0  0  0  0  0  0  0  0  0
   -1.2243   -9.8710   -2.9854 C   0  0  0  0  0  0  0  0  0  0  0  0
   -0.0076  -10.1333   -3.7031 C   0  0  0  0  0  0  0  0  0  0  0  0
    0.9676  -10.3492   -4.2873 N   0  0  0  0  0  0  0  0  0  0  0  0
   -2.1260  -10.9885   -2.9069 C   0  0  0  0  0  0  0  0  0  0  0  0
   -2.8411  -11.8968   -2.8531 N   0  0  0  0  0  0  0  0  0  0  0  0
   -2.3412    7.0829    1.7546 H   0  0  0  0  0  0  0  0  0  0  0  0
    3.0859    4.2647    7.3422 H   0  0  0  0  0  0  0  0  0  0  0  0
    1.5973    3.8643    8.2782 H   0  0  0  0  0  0  0  0  0  0  0  0
    2.3977    5.4879    8.4704 H   0  0  0  0  0  0  0  0  0  0  0  0
   -0.0400    5.5624    9.0162 H   0  0  0  0  0  0  0  0  0  0  0  0
   -2.2456    6.6329    9.2065 H   0  0  0  0  0  0  0  0  0  0  0  0
   -3.3934    7.5130    7.2319 H   0  0  0  0  0  0  0  0  0  0  0  0
   -0.8340    8.2449   -0.0146 H   0  0  0  0  0  0  0  0  0  0  0  0
   -0.0123    7.6541   -1.4895 H   0  0  0  0  0  0  0  0  0  0  0  0
   -2.4079    8.1185   -1.9343 H   0  0  0  0  0  0  0  0  0  0  0  0
   -2.9044    6.9601   -0.6415 H   0  0  0  0  0  0  0  0  0  0  0  0
   -2.0644    6.3533   -2.1280 H   0  0  0  0  0  0  0  0  0  0  0  0
    2.9003   -5.5588   -5.7814 H   0  0  0  0  0  0  0  0  0  0  0  0
    2.2050   -7.0855   -5.1532 H   0  0  0  0  0  0  0  0  0  0  0  0
   -0.1116   -6.1889   -5.4976 H   0  0  0  0  0  0  0  0  0  0  0  0
    0.8424   -6.1494   -7.0248 H   0  0  0  0  0  0  0  0  0  0  0  0
    0.5882   -4.6276   -6.0849 H   0  0  0  0  0  0  0  0  0  0  0  0
    2.5076    1.9846    1.4506 H   0  0  0  0  0  0  0  0  0  0  0  0
    2.4046    0.2780    1.0244 H   0  0  0  0  0  0  0  0  0  0  0  0
   -0.3209    1.0268    1.6485 H   0  0  0  0  0  0  0  0  0  0  0  0
    0.8135    0.0573    2.6640 H   0  0  0  0  0  0  0  0  0  0  0  0
    0.7235    1.8257    2.8915 H   0  0  0  0  0  0  0  0  0  0  0  0
    0.6288   -0.9913    0.4982 H   0  0  0  0  0  0  0  0  0  0  0  0
    0.8569   -2.7008    0.1992 H   0  0  0  0  0  0  0  0  0  0  0  0
   -0.5459   -2.4537   -1.9239 H   0  0  0  0  0  0  0  0  0  0  0  0
   -0.7809   -0.7098   -1.5195 H   0  0  0  0  0  0  0  0  0  0  0  0
   -1.4289   -1.9936   -0.4271 H   0  0  0  0  0  0  0  0  0  0  0  0
    1.2063   -8.1246   -2.8325 H   0  0  0  0  0  0  0  0  0  0  0  0
   -4.1613   -5.0416   -1.7261 H   0  0  0  0  0  0  0  0  0  0  0  0
   -5.9348   -8.8288   -0.6729 H   0  0  0  0  0  0  0  0  0  0  0  0
   -3.8928  -10.0011   -1.3635 H   0  0  0  0  0  0  0  0  0  0  0  0
  1  2  2  3
  2  3  1  0
  3  4  2  0
  3  5  1  0
  5  6  2  0
  6  7  1  0
  7  8  1  0
  6  9  1  0
  9 10  2  0
 10 11  1  0
 11 12  2  0
 12 13  1  0
 13 14  2  3
 14 15  1  0
 15 16  3  0
 14 17  1  0
 17 18  3  0
  1 19  1  0
 19 20  2  0
 20 21  1  0
 21 22  1  0
 20 23  1  0
 23 24  1  0
 24 25  1  0
 25 26  1  0
 26 27  1  0
 27 28  1  0
 28 29  2  0
 29 30  1  0
 30 31  1  0
 28 32  1  0
 32 33  1  0
 33 34  1  0
 34 35  1  0
 35 36  1  0
 36 37  1  0
 37 38  1  0
 36 39  2  0
 39 40  1  0
 40 41  1  0
 41 42  1  0
 42 43  1  0
 43 44  1  0
 44 45  1  0
 45 46  1  0
 46 47  1  0
 47 48  1  0
 48 49  1  0
 46 50  1  0
 50 51  1  0
 43 52  1  0
 52 53  1  0
 39 54  1  0
 54 55  2  3
 55 56  1  0
 56 57  2  0
 56 58  1  0
 58 59  2  0
 59 60  1  0
 60 61  1  0
 60 62  2  0
 62 63  1  0
 63 64  2  0
 64 65  1  0
 65 66  2  3
 66 67  1  0
 67 68  3  0
 66 69  1  0
 69 70  3  0
 13  2  1  0
 49 19  1  0
 65 55  1  0
 12  5  1  0
 48 23  2  0
 64 58  1  0
 47 25  2  0
 45 26  2  0
 31 27  2  0
 44 32  2  0
 42 33  2  0
 41 35  2  0
  1 71  1  0
  8 72  1  0
  8 73  1  0
  8 74  1  0
  9 75  1  0
 10 76  1  0
 11 77  1  0
 21 78  1  0
 21 79  1  0
 22 80  1  0
 22 81  1  0
 22 82  1  0
 37 83  1  0
 37 84  1  0
 38 85  1  0
 38 86  1  0
 38 87  1  0
 50 88  1  0
 50 89  1  0
 51 90  1  0
 51 91  1  0
 51 92  1  0
 52 93  1  0
 52 94  1  0
 53 95  1  0
 53 96  1  0
 53 97  1  0
 54 98  1  0
 59 99  1  0
 62100  1  0
 63101  1  0
M  END

