
     RDKit          3D

101112  0  0  0  0  0  0  0  0999 V2000
   -2.7341    5.1191    2.4749 C   0  0  0  0  0  0  0  0  0  0  0  0
   -2.4601    6.0640    1.5573 C   0  0  0  0  0  0  0  0  0  0  0  0
   -1.3836    5.6596    0.5966 C   0  0  0  0  0  0  0  0  0  0  0  0
   -1.6099    5.1776   -0.5493 O   0  0  0  0  0  0  0  0  0  0  0  0
   -0.0851    6.1182    1.1129 C   0  0  0  0  0  0  0  0  0  0  0  0
    1.1924    5.5614    0.9382 C   0  0  0  0  0  0  0  0  0  0  0  0
    1.2718    4.4964    0.0362 O   0  0  0  0  0  0  0  0  0  0  0  0
    2.4389    3.7392   -0.2847 C   0  0  0  0  0  0  0  0  0  0  0  0
    2.2154    6.0498    1.7531 C   0  0  0  0  0  0  0  0  0  0  0  0
    1.9894    7.0908    2.6698 C   0  0  0  0  0  0  0  0  0  0  0  0
    0.7225    7.7114    2.7375 C   0  0  0  0  0  0  0  0  0  0  0  0
   -0.2933    7.1561    1.9596 C   0  0  0  0  0  0  0  0  0  0  0  0
   -1.7707    7.3300    2.0669 C   0  0  0  0  0  0  0  0  0  0  0  0
   -2.3647    8.5262    2.3984 C   0  0  0  0  0  0  0  0  0  0  0  0
   -1.5919    9.7673    2.4890 C   0  0  0  0  0  0  0  0  0  0  0  0
   -0.9354   10.7132    2.5255 N   0  0  0  0  0  0  0  0  0  0  0  0
   -3.8140    8.6507    2.5898 C   0  0  0  0  0  0  0  0  0  0  0  0
   -4.9544    8.7679    2.7116 N   0  0  0  0  0  0  0  0  0  0  0  0
   -3.8776    4.1245    2.4565 C   0  0  0  0  0  0  0  0  0  0  0  0
   -4.6388    3.6292    1.3497 C   0  0  0  0  0  0  0  0  0  0  0  0
   -5.0702    4.5531    0.2747 C   0  0  0  0  0  0  0  0  0  0  0  0
   -6.3580    5.3066    0.7387 C   0  0  0  0  0  0  0  0  0  0  0  0
   -4.6649    2.2068    1.3201 C   0  0  0  0  0  0  0  0  0  0  0  0
   -5.4532    0.9810    0.4228 S   0  0  0  0  0  0  0  0  0  0  0  0
   -4.4215   -0.1878    1.1152 C   0  0  0  0  0  0  0  0  0  0  0  0
   -4.0383   -1.5382    0.9805 C   0  0  0  0  0  0  0  0  0  0  0  0
   -4.7375   -2.7126    0.6768 C   0  0  0  0  0  0  0  0  0  0  0  0
   -4.0280   -3.9650    0.7402 C   0  0  0  0  0  0  0  0  0  0  0  0
   -4.7415   -5.0831    0.4807 N   0  0  0  0  0  0  0  0  0  0  0  0
   -6.2387   -4.4185    0.2531 S   0  0  0  0  0  0  0  0  0  0  0  0
   -6.0703   -2.7814    0.3949 N   0  0  0  0  0  0  0  0  0  0  0  0
   -2.6511   -3.9568    1.0722 C   0  0  0  0  0  0  0  0  0  0  0  0
   -1.6719   -4.8893    0.8560 C   0  0  0  0  0  0  0  0  0  0  0  0
   -1.5575   -6.2266   -0.1472 S   0  0  0  0  0  0  0  0  0  0  0  0
    0.0917   -5.9553   -0.5071 C   0  0  0  0  0  0  0  0  0  0  0  0
    0.9508   -6.4439   -1.4863 C   0  0  0  0  0  0  0  0  0  0  0  0
    0.7187   -7.7989   -2.1581 C   0  0  0  0  0  0  0  0  0  0  0  0
   -0.7304   -7.9184   -2.6376 C   0  0  0  0  0  0  0  0  0  0  0  0
    2.0892   -5.5694   -1.6508 C   0  0  0  0  0  0  0  0  0  0  0  0
    1.9494   -4.2532   -0.6149 S   0  0  0  0  0  0  0  0  0  0  0  0
    0.5113   -4.7814    0.1116 C   0  0  0  0  0  0  0  0  0  0  0  0
   -0.4713   -4.1924    0.9039 C   0  0  0  0  0  0  0  0  0  0  0  0
   -0.6256   -2.9100    1.2682 N   0  0  0  0  0  0  0  0  0  0  0  0
   -1.9825   -2.7693    1.4015 C   0  0  0  0  0  0  0  0  0  0  0  0
   -2.7487   -1.5801    1.5210 C   0  0  0  0  0  0  0  0  0  0  0  0
   -2.4228   -0.4195    2.1976 N   0  0  0  0  0  0  0  0  0  0  0  0
   -3.5154    0.3499    1.9608 C   0  0  0  0  0  0  0  0  0  0  0  0
   -3.8215    1.6735    2.2823 C   0  0  0  0  0  0  0  0  0  0  0  0
   -3.4995    2.8239    3.5108 S   0  0  0  0  0  0  0  0  0  0  0  0
   -1.7406   -0.4868    3.4631 C   0  0  0  0  0  0  0  0  0  0  0  0
   -2.7021   -0.8033    4.6026 C   0  0  0  0  0  0  0  0  0  0  0  0
    0.3534   -1.8448    1.0540 C   0  0  0  0  0  0  0  0  0  0  0  0
    1.4921   -1.9046    2.0859 C   0  0  0  0  0  0  0  0  0  0  0  0
    3.3486   -5.9842   -2.3660 C   0  0  0  0  0  0  0  0  0  0  0  0
    3.9634   -5.2780   -3.3621 C   0  0  0  0  0  0  0  0  0  0  0  0
    5.4004   -4.9821   -3.2587 C   0  0  0  0  0  0  0  0  0  0  0  0
    6.0170   -4.6620   -2.2111 O   0  0  0  0  0  0  0  0  0  0  0  0
    6.0389   -5.0680   -4.5581 C   0  0  0  0  0  0  0  0  0  0  0  0
    7.3658   -4.8049   -4.8960 C   0  0  0  0  0  0  0  0  0  0  0  0
    7.7683   -4.9529   -6.2448 C   0  0  0  0  0  0  0  0  0  0  0  0
    9.4356   -4.6317   -6.6891 Cl  0  0  0  0  0  0  0  0  0  0  0  0
    6.8243   -5.3235   -7.2291 C   0  0  0  0  0  0  0  0  0  0  0  0
    7.1964   -5.4548   -8.5362 F   0  0  0  0  0  0  0  0  0  0  0  0
    5.4902   -5.5722   -6.8628 C   0  0  0  0  0  0  0  0  0  0  0  0
    5.0970   -5.4602   -5.4989 C   0  0  0  0  0  0  0  0  0  0  0  0
    3.7489   -5.5631   -4.8532 C   0  0  0  0  0  0  0  0  0  0  0  0
    2.6168   -5.9852   -5.4872 C   0  0  0  0  0  0  0  0  0  0  0  0
    1.3015   -5.7725   -4.9029 C   0  0  0  0  0  0  0  0  0  0  0  0
    0.2201   -5.6159   -4.5207 N   0  0  0  0  0  0  0  0  0  0  0  0
    2.6280   -6.6194   -6.7550 C   0  0  0  0  0  0  0  0  0  0  0  0
    2.6600   -7.1997   -7.7720 N   0  0  0  0  0  0  0  0  0  0  0  0
   -2.3068    5.2089    3.4779 H   0  0  0  0  0  0  0  0  0  0  0  0
    2.8734    4.0735   -1.2540 H   0  0  0  0  0  0  0  0  0  0  0  0
    3.1807    3.8175    0.5177 H   0  0  0  0  0  0  0  0  0  0  0  0
    2.1553    2.6626   -0.3459 H   0  0  0  0  0  0  0  0  0  0  0  0
    3.2029    5.5583    1.7513 H   0  0  0  0  0  0  0  0  0  0  0  0
    2.7178    7.2758    3.4464 H   0  0  0  0  0  0  0  0  0  0  0  0
    0.5347    8.5436    3.4461 H   0  0  0  0  0  0  0  0  0  0  0  0
   -5.3083    3.9515   -0.6204 H   0  0  0  0  0  0  0  0  0  0  0  0
   -4.3237    5.3233   -0.0186 H   0  0  0  0  0  0  0  0  0  0  0  0
   -6.1677    5.8626    1.6863 H   0  0  0  0  0  0  0  0  0  0  0  0
   -7.2020    4.5839    0.9091 H   0  0  0  0  0  0  0  0  0  0  0  0
   -6.6703    6.0897   -0.0019 H   0  0  0  0  0  0  0  0  0  0  0  0
    0.9122   -8.6203   -1.4320 H   0  0  0  0  0  0  0  0  0  0  0  0
    1.3955   -7.9271   -3.0191 H   0  0  0  0  0  0  0  0  0  0  0  0
   -0.8141   -8.5509   -3.5514 H   0  0  0  0  0  0  0  0  0  0  0  0
   -1.3761   -8.4035   -1.8689 H   0  0  0  0  0  0  0  0  0  0  0  0
   -1.1849   -6.9372   -2.8979 H   0  0  0  0  0  0  0  0  0  0  0  0
   -1.2127    0.4934    3.6228 H   0  0  0  0  0  0  0  0  0  0  0  0
   -0.9190   -1.2733    3.4465 H   0  0  0  0  0  0  0  0  0  0  0  0
   -3.5715   -0.0881    4.5853 H   0  0  0  0  0  0  0  0  0  0  0  0
   -2.1680   -0.6500    5.5638 H   0  0  0  0  0  0  0  0  0  0  0  0
   -3.1173   -1.8496    4.5363 H   0  0  0  0  0  0  0  0  0  0  0  0
    0.7436   -1.8925    0.0295 H   0  0  0  0  0  0  0  0  0  0  0  0
   -0.1383   -0.8333    1.1441 H   0  0  0  0  0  0  0  0  0  0  0  0
    2.3366   -2.4964    1.6690 H   0  0  0  0  0  0  0  0  0  0  0  0
    1.8638   -0.8797    2.3297 H   0  0  0  0  0  0  0  0  0  0  0  0
    1.1674   -2.3796    3.0307 H   0  0  0  0  0  0  0  0  0  0  0  0
    3.9770   -6.4948   -1.6931 H   0  0  0  0  0  0  0  0  0  0  0  0
    8.0791   -4.4913   -4.1334 H   0  0  0  0  0  0  0  0  0  0  0  0
    4.8027   -5.8262   -7.6526 H   0  0  0  0  0  0  0  0  0  0  0  0
  1  2  2  3
  2  3  1  0
  3  4  2  0
  3  5  1  0
  5  6  2  0
  6  7  1  0
  7  8  1  0
  6  9  1  0
  9 10  2  0
 10 11  1  0
 11 12  2  0
 12 13  1  0
 13 14  2  3
 14 15  1  0
 15 16  3  0
 14 17  1  0
 17 18  3  0
  1 19  1  0
 19 20  2  0
 20 21  1  0
 21 22  1  0
 20 23  1  0
 23 24  1  0
 24 25  1  0
 25 26  1  0
 26 27  1  0
 27 28  1  0
 28 29  2  0
 29 30  1  0
 30 31  1  0
 28 32  1  0
 32 33  1  0
 33 34  1  0
 34 35  1  0
 35 36  1  0
 36 37  1  0
 37 38  1  0
 36 39  2  0
 39 40  1  0
 40 41  1  0
 41 42  1  0
 42 43  1  0
 43 44  1  0
 44 45  1  0
 45 46  1  0
 46 47  1  0
 47 48  1  0
 48 49  1  0
 46 50  1  0
 50 51  1  0
 43 52  1  0
 52 53  1  0
 39 54  1  0
 54 55  2  3
 55 56  1  0
 56 57  2  0
 56 58  1  0
 58 59  2  0
 59 60  1  0
 60 61  1  0
 60 62  2  0
 62 63  1  0
 62 64  1  0
 64 65  2  0
 65 66  1  0
 66 67  2  3
 67 68  1  0
 68 69  3  0
 67 70  1  0
 70 71  3  0
 13  2  1  0
 49 19  1  0
 66 55  1  0
 12  5  1  0
 48 23  2  0
 65 58  1  0
 47 25  2  0
 45 26  2  0
 31 27  2  0
 44 32  2  0
 42 33  2  0
 41 35  2  0
  1 72  1  0
  8 73  1  0
  8 74  1  0
  8 75  1  0
  9 76  1  0
 10 77  1  0
 11 78  1  0
 21 79  1  0
 21 80  1  0
 22 81  1  0
 22 82  1  0
 22 83  1  0
 37 84  1  0
 37 85  1  0
 38 86  1  0
 38 87  1  0
 38 88  1  0
 50 89  1  0
 50 90  1  0
 51 91  1  0
 51 92  1  0
 51 93  1  0
 52 94  1  0
 52 95  1  0
 53 96  1  0
 53 97  1  0
 53 98  1  0
 54 99  1  0
 59100  1  0
 64101  1  0
M  END

