
     RDKit          3D

151165  0  0  0  0  0  0  0  0999 V2000
   -6.4615    2.8667   -3.0665 C   0  0  0  0  0  0  0  0  0  0  0  0
   -7.1874    2.2372   -2.1279 C   0  0  0  0  0  0  0  0  0  0  0  0
   -6.7724    1.0515   -1.3608 C   0  0  0  0  0  0  0  0  0  0  0  0
   -5.6050    0.5841   -1.2768 O   0  0  0  0  0  0  0  0  0  0  0  0
   -7.9435    0.5004   -0.7063 C   0  0  0  0  0  0  0  0  0  0  0  0
   -8.0397   -0.6408    0.0978 C   0  0  0  0  0  0  0  0  0  0  0  0
   -6.8803   -1.3712    0.3985 O   0  0  0  0  0  0  0  0  0  0  0  0
   -6.8515   -2.5143    1.2498 C   0  0  0  0  0  0  0  0  0  0  0  0
   -9.3111   -0.9946    0.5959 C   0  0  0  0  0  0  0  0  0  0  0  0
  -10.4415   -0.2128    0.2806 C   0  0  0  0  0  0  0  0  0  0  0  0
  -10.3163    0.9372   -0.5124 C   0  0  0  0  0  0  0  0  0  0  0  0
   -9.0411    1.3112   -0.9733 C   0  0  0  0  0  0  0  0  0  0  0  0
   -8.6162    2.4946   -1.7688 C   0  0  0  0  0  0  0  0  0  0  0  0
   -9.2684    3.6876   -1.8395 C   0  0  0  0  0  0  0  0  0  0  0  0
  -10.5562    3.9057   -1.2317 C   0  0  0  0  0  0  0  0  0  0  0  0
  -11.5860    4.1013   -0.7353 N   0  0  0  0  0  0  0  0  0  0  0  0
   -8.6438    4.8834   -2.3518 C   0  0  0  0  0  0  0  0  0  0  0  0
   -8.1484    5.8481   -2.7570 N   0  0  0  0  0  0  0  0  0  0  0  0
   -5.0213    2.6510   -3.2633 C   0  0  0  0  0  0  0  0  0  0  0  0
   -4.2937    1.2885   -4.0074 S   0  0  0  0  0  0  0  0  0  0  0  0
   -2.7436    1.8966   -3.7986 C   0  0  0  0  0  0  0  0  0  0  0  0
   -1.4507    1.4347   -3.7278 C   0  0  0  0  0  0  0  0  0  0  0  0
   -0.7409   -0.0948   -3.6964 S   0  0  0  0  0  0  0  0  0  0  0  0
    0.5340    0.4506   -2.7058 C   0  0  0  0  0  0  0  0  0  0  0  0
    1.2554   -0.2856   -1.6959 C   0  0  0  0  0  0  0  0  0  0  0  0
    1.7764   -1.5873   -1.7356 C   0  0  0  0  0  0  0  0  0  0  0  0
    2.3345   -2.0865   -0.5428 C   0  0  0  0  0  0  0  0  0  0  0  0
    3.0065   -3.4375   -0.2858 C   0  0  0  0  0  0  0  0  0  0  0  0
    4.4070   -3.3817   -0.9177 C   0  0  0  0  0  0  0  0  0  0  0  0
    5.4857   -2.7453   -0.2564 C   0  0  0  0  0  0  0  0  0  0  0  0
    6.7126   -2.5604   -0.8946 C   0  0  0  0  0  0  0  0  0  0  0  0
    6.8945   -2.9800   -2.2201 C   0  0  0  0  0  0  0  0  0  0  0  0
    8.2230   -2.7767   -2.9035 C   0  0  0  0  0  0  0  0  0  0  0  0
    8.1232   -1.7581   -4.0356 C   0  0  0  0  0  0  0  0  0  0  0  0
    5.8295   -3.6014   -2.8946 C   0  0  0  0  0  0  0  0  0  0  0  0
    4.5880   -3.7562   -2.2648 C   0  0  0  0  0  0  0  0  0  0  0  0
    2.1971   -4.6738   -0.7085 C   0  0  0  0  0  0  0  0  0  0  0  0
    0.8096   -4.6100   -0.9556 C   0  0  0  0  0  0  0  0  0  0  0  0
    0.0875   -5.7685   -1.2677 C   0  0  0  0  0  0  0  0  0  0  0  0
    0.7258   -7.0144   -1.3029 C   0  0  0  0  0  0  0  0  0  0  0  0
   -0.0642   -8.2676   -1.5749 C   0  0  0  0  0  0  0  0  0  0  0  0
   -0.5704   -8.8890   -0.2805 C   0  0  0  0  0  0  0  0  0  0  0  0
    2.0934   -7.0943   -1.0048 C   0  0  0  0  0  0  0  0  0  0  0  0
    2.8197   -5.9399   -0.7225 C   0  0  0  0  0  0  0  0  0  0  0  0
    3.0635   -3.3776    1.2341 C   0  0  0  0  0  0  0  0  0  0  0  0
    2.7632   -2.1358    1.7037 C   0  0  0  0  0  0  0  0  0  0  0  0
    2.3231   -1.3102    0.6172 C   0  0  0  0  0  0  0  0  0  0  0  0
    1.8688    0.0075    0.6376 C   0  0  0  0  0  0  0  0  0  0  0  0
    1.3550    0.5207   -0.5638 C   0  0  0  0  0  0  0  0  0  0  0  0
    0.7721    1.9045   -0.8056 C   0  0  0  0  0  0  0  0  0  0  0  0
   -0.3756    2.0783    0.2145 C   0  0  0  0  0  0  0  0  0  0  0  0
   -0.1206    2.5703    1.5179 C   0  0  0  0  0  0  0  0  0  0  0  0
   -1.1602    2.7255    2.4400 C   0  0  0  0  0  0  0  0  0  0  0  0
   -2.4666    2.3492    2.1057 C   0  0  0  0  0  0  0  0  0  0  0  0
   -3.5942    2.5315    3.0854 C   0  0  0  0  0  0  0  0  0  0  0  0
   -3.8752    1.2380    3.8426 C   0  0  0  0  0  0  0  0  0  0  0  0
   -2.7061    1.7373    0.8704 C   0  0  0  0  0  0  0  0  0  0  0  0
   -1.6696    1.5650   -0.0419 C   0  0  0  0  0  0  0  0  0  0  0  0
    1.8791    2.9754   -0.7853 C   0  0  0  0  0  0  0  0  0  0  0  0
    3.1300    2.7107   -1.3832 C   0  0  0  0  0  0  0  0  0  0  0  0
    4.1077    3.7020   -1.4849 C   0  0  0  0  0  0  0  0  0  0  0  0
    3.8550    4.9987   -1.0193 C   0  0  0  0  0  0  0  0  0  0  0  0
    4.8974    6.0779   -1.1445 C   0  0  0  0  0  0  0  0  0  0  0  0
    5.8522    6.0480    0.0478 C   0  0  0  0  0  0  0  0  0  0  0  0
    2.6232    5.2780   -0.4179 C   0  0  0  0  0  0  0  0  0  0  0  0
    1.6475    4.2851   -0.3135 C   0  0  0  0  0  0  0  0  0  0  0  0
    0.3000    1.7401   -2.2542 C   0  0  0  0  0  0  0  0  0  0  0  0
   -0.7704    2.3374   -2.9445 C   0  0  0  0  0  0  0  0  0  0  0  0
   -1.5752    3.3673   -2.5713 N   0  0  0  0  0  0  0  0  0  0  0  0
   -2.7753    3.0651   -3.1121 C   0  0  0  0  0  0  0  0  0  0  0  0
   -4.0426    3.5464   -2.8149 C   0  0  0  0  0  0  0  0  0  0  0  0
   -1.2033    4.6091   -1.9701 C   0  0  0  0  0  0  0  0  0  0  0  0
   -0.2673    5.4868   -2.5037 C   0  0  0  0  0  0  0  0  0  0  0  0
   -0.1781    6.6882   -1.7915 C   0  0  0  0  0  0  0  0  0  0  0  0
   -1.0485    6.7454   -0.7092 C   0  0  0  0  0  0  0  0  0  0  0  0
   -1.1462    7.8825    0.2604 C   0  0  0  0  0  0  0  0  0  0  0  0
   -1.8961    9.0588   -0.3578 C   0  0  0  0  0  0  0  0  0  0  0  0
   -1.9637    5.3285   -0.6529 S   0  0  0  0  0  0  0  0  0  0  0  0
    2.3060   -2.1955    3.3122 S   0  0  0  0  0  0  0  0  0  0  0  0
    2.6459   -3.8496    3.4626 C   0  0  0  0  0  0  0  0  0  0  0  0
    3.0080   -4.3720    2.2170 C   0  0  0  0  0  0  0  0  0  0  0  0
    2.2849   -4.6561    4.6368 C   0  0  0  0  0  0  0  0  0  0  0  0
    3.0545   -5.6173    5.1658 C   0  0  0  0  0  0  0  0  0  0  0  0
    2.4823   -6.5825    6.5725 S   0  0  0  0  0  0  0  0  0  0  0  0
    4.1619   -7.2018    6.7465 C   0  0  0  0  0  0  0  0  0  0  0  0
    4.5130   -7.9108    7.7275 O   0  0  0  0  0  0  0  0  0  0  0  0
    5.0867   -6.7922    5.7408 N   0  0  0  0  0  0  0  0  0  0  0  0
    6.5343   -6.9871    5.8297 C   0  0  0  0  0  0  0  0  0  0  0  0
    7.1589   -5.9309    6.7375 C   0  0  0  0  0  0  0  0  0  0  0  0
    4.4700   -5.8722    4.8537 C   0  0  0  0  0  0  0  0  0  0  0  0
    5.1137   -5.2900    3.9404 O   0  0  0  0  0  0  0  0  0  0  0  0
   -6.8914    3.6605   -3.6562 H   0  0  0  0  0  0  0  0  0  0  0  0
   -5.8105   -2.8961    1.3034 H   0  0  0  0  0  0  0  0  0  0  0  0
   -7.1850   -2.2347    2.2731 H   0  0  0  0  0  0  0  0  0  0  0  0
   -7.5009   -3.3148    0.8377 H   0  0  0  0  0  0  0  0  0  0  0  0
   -9.4524   -1.8731    1.2128 H   0  0  0  0  0  0  0  0  0  0  0  0
  -11.4157   -0.5066    0.6499 H   0  0  0  0  0  0  0  0  0  0  0  0
  -11.2059    1.4839   -0.7784 H   0  0  0  0  0  0  0  0  0  0  0  0
    1.7305   -2.1920   -2.6365 H   0  0  0  0  0  0  0  0  0  0  0  0
    5.3946   -2.4084    0.7682 H   0  0  0  0  0  0  0  0  0  0  0  0
    7.5228   -2.0849   -0.3506 H   0  0  0  0  0  0  0  0  0  0  0  0
    8.5870   -3.7487   -3.3086 H   0  0  0  0  0  0  0  0  0  0  0  0
    8.9853   -2.4202   -2.1751 H   0  0  0  0  0  0  0  0  0  0  0  0
    9.1369   -1.5142   -4.4107 H   0  0  0  0  0  0  0  0  0  0  0  0
    7.6284   -0.8182   -3.6881 H   0  0  0  0  0  0  0  0  0  0  0  0
    7.5293   -2.1860   -4.8754 H   0  0  0  0  0  0  0  0  0  0  0  0
    5.9485   -3.9296   -3.9215 H   0  0  0  0  0  0  0  0  0  0  0  0
    3.7756   -4.1902   -2.8310 H   0  0  0  0  0  0  0  0  0  0  0  0
    0.2681   -3.6783   -0.8853 H   0  0  0  0  0  0  0  0  0  0  0  0
   -0.9788   -5.6962   -1.4447 H   0  0  0  0  0  0  0  0  0  0  0  0
    0.5716   -9.0053   -2.1133 H   0  0  0  0  0  0  0  0  0  0  0  0
   -0.9303   -8.0379   -2.2405 H   0  0  0  0  0  0  0  0  0  0  0  0
   -1.2192   -8.1709    0.2665 H   0  0  0  0  0  0  0  0  0  0  0  0
   -1.1598   -9.8035   -0.5092 H   0  0  0  0  0  0  0  0  0  0  0  0
    0.2833   -9.1698    0.3779 H   0  0  0  0  0  0  0  0  0  0  0  0
    2.5937   -8.0556   -0.9999 H   0  0  0  0  0  0  0  0  0  0  0  0
    3.8752   -6.0401   -0.4881 H   0  0  0  0  0  0  0  0  0  0  0  0
    1.8952    0.5919    1.5462 H   0  0  0  0  0  0  0  0  0  0  0  0
    0.8801    2.8439    1.8237 H   0  0  0  0  0  0  0  0  0  0  0  0
   -0.9455    3.1287    3.4191 H   0  0  0  0  0  0  0  0  0  0  0  0
   -3.3447    3.3406    3.8158 H   0  0  0  0  0  0  0  0  0  0  0  0
   -4.5132    2.8439    2.5436 H   0  0  0  0  0  0  0  0  0  0  0  0
   -2.9846    0.9221    4.4264 H   0  0  0  0  0  0  0  0  0  0  0  0
   -4.7233    1.3913    4.5405 H   0  0  0  0  0  0  0  0  0  0  0  0
   -4.1476    0.4246    3.1296 H   0  0  0  0  0  0  0  0  0  0  0  0
   -3.6978    1.3731    0.6253 H   0  0  0  0  0  0  0  0  0  0  0  0
   -1.8913    1.0199   -0.9450 H   0  0  0  0  0  0  0  0  0  0  0  0
    3.3500    1.7334   -1.7984 H   0  0  0  0  0  0  0  0  0  0  0  0
    5.0573    3.4642   -1.9445 H   0  0  0  0  0  0  0  0  0  0  0  0
    5.4716    5.9455   -2.0854 H   0  0  0  0  0  0  0  0  0  0  0  0
    4.4071    7.0750   -1.1911 H   0  0  0  0  0  0  0  0  0  0  0  0
    5.2919    6.2033    0.9945 H   0  0  0  0  0  0  0  0  0  0  0  0
    6.3855    5.0764    0.0909 H   0  0  0  0  0  0  0  0  0  0  0  0
    6.5993    6.8591   -0.0593 H   0  0  0  0  0  0  0  0  0  0  0  0
    2.4028    6.2708   -0.0496 H   0  0  0  0  0  0  0  0  0  0  0  0
    0.7007    4.5625    0.1192 H   0  0  0  0  0  0  0  0  0  0  0  0
   -4.2451    4.4267   -2.2253 H   0  0  0  0  0  0  0  0  0  0  0  0
    0.3176    5.2753   -3.3841 H   0  0  0  0  0  0  0  0  0  0  0  0
    0.5086    7.4816   -2.0523 H   0  0  0  0  0  0  0  0  0  0  0  0
   -0.1247    8.2117    0.5493 H   0  0  0  0  0  0  0  0  0  0  0  0
   -1.6714    7.5500    1.1816 H   0  0  0  0  0  0  0  0  0  0  0  0
   -1.9416    9.8945    0.3708 H   0  0  0  0  0  0  0  0  0  0  0  0
   -1.3699    9.4138   -1.2714 H   0  0  0  0  0  0  0  0  0  0  0  0
   -2.9317    8.7565   -0.6227 H   0  0  0  0  0  0  0  0  0  0  0  0
    3.0984   -5.4357    2.0165 H   0  0  0  0  0  0  0  0  0  0  0  0
    1.3269   -4.4585    5.0981 H   0  0  0  0  0  0  0  0  0  0  0  0
    7.0014   -6.9268    4.8229 H   0  0  0  0  0  0  0  0  0  0  0  0
    6.7565   -7.9967    6.2392 H   0  0  0  0  0  0  0  0  0  0  0  0
    6.7342   -6.0092    7.7608 H   0  0  0  0  0  0  0  0  0  0  0  0
    6.9555   -4.9165    6.3394 H   0  0  0  0  0  0  0  0  0  0  0  0
    8.2555   -6.0794    6.7934 H   0  0  0  0  0  0  0  0  0  0  0  0
  1  2  2  3
  2  3  1  0
  3  4  2  0
  3  5  1  0
  5  6  2  0
  6  7  1  0
  7  8  1  0
  6  9  1  0
  9 10  2  0
 10 11  1  0
 11 12  2  0
 12 13  1  0
 13 14  2  3
 14 15  1  0
 15 16  3  0
 14 17  1  0
 17 18  3  0
  1 19  1  0
 19 20  1  0
 20 21  1  0
 21 22  1  0
 22 23  1  0
 23 24  1  0
 24 25  1  0
 25 26  2  0
 26 27  1  0
 27 28  1  0
 28 29  1  0
 29 30  2  0
 30 31  1  0
 31 32  2  0
 32 33  1  0
 33 34  1  0
 32 35  1  0
 35 36  2  0
 28 37  1  0
 37 38  2  0
 38 39  1  0
 39 40  2  0
 40 41  1  0
 41 42  1  0
 40 43  1  0
 43 44  2  0
 28 45  1  0
 45 46  2  0
 46 47  1  0
 47 48  1  0
 48 49  2  0
 49 50  1  0
 50 51  1  0
 51 52  2  0
 52 53  1  0
 53 54  2  0
 54 55  1  0
 55 56  1  0
 54 57  1  0
 57 58  2  0
 50 59  1  0
 59 60  2  0
 60 61  1  0
 61 62  2  0
 62 63  1  0
 63 64  1  0
 62 65  1  0
 65 66  2  0
 50 67  1  0
 67 68  1  0
 68 69  1  0
 69 70  1  0
 70 71  1  0
 69 72  1  0
 72 73  2  0
 73 74  1  0
 74 75  2  0
 75 76  1  0
 76 77  1  0
 75 78  1  0
 46 79  1  0
 79 80  1  0
 80 81  2  0
 80 82  1  0
 82 83  2  3
 83 84  1  0
 84 85  1  0
 85 86  2  0
 85 87  1  0
 87 88  1  0
 88 89  1  0
 87 90  1  0
 90 91  2  0
 13  2  1  0
 71 19  2  0
 78 72  1  0
 90 83  1  0
 12  5  1  0
 70 21  2  0
 68 22  2  0
 67 24  2  0
 49 25  1  0
 58 51  1  0
 66 59  1  0
 47 27  2  0
 36 29  1  0
 44 37  1  0
 81 45  1  0
  1 92  1  0
  8 93  1  0
  8 94  1  0
  8 95  1  0
  9 96  1  0
 10 97  1  0
 11 98  1  0
 26 99  1  0
 30100  1  0
 31101  1  0
 33102  1  0
 33103  1  0
 34104  1  0
 34105  1  0
 34106  1  0
 35107  1  0
 36108  1  0
 38109  1  0
 39110  1  0
 41111  1  0
 41112  1  0
 42113  1  0
 42114  1  0
 42115  1  0
 43116  1  0
 44117  1  0
 48118  1  0
 52119  1  0
 53120  1  0
 55121  1  0
 55122  1  0
 56123  1  0
 56124  1  0
 56125  1  0
 57126  1  0
 58127  1  0
 60128  1  0
 61129  1  0
 63130  1  0
 63131  1  0
 64132  1  0
 64133  1  0
 64134  1  0
 65135  1  0
 66136  1  0
 71137  1  0
 73138  1  0
 74139  1  0
 76140  1  0
 76141  1  0
 77142  1  0
 77143  1  0
 77144  1  0
 81145  1  0
 82146  1  0
 88147  1  0
 88148  1  0
 89149  1  0
 89150  1  0
 89151  1  0
M  END

