
     RDKit          3D

156171  0  0  0  0  0  0  0  0999 V2000
    4.1804   -0.9556   -7.7520 C   0  0  0  0  0  0  0  0  0  0  0  0
    3.6926   -1.8100   -8.6862 C   0  0  0  0  0  0  0  0  0  0  0  0
    4.4893   -2.4844   -9.7522 C   0  0  0  0  0  0  0  0  0  0  0  0
    5.5714   -2.0317  -10.1881 O   0  0  0  0  0  0  0  0  0  0  0  0
    3.8416   -3.7251  -10.1804 C   0  0  0  0  0  0  0  0  0  0  0  0
    4.1880   -4.5298  -11.1948 C   0  0  0  0  0  0  0  0  0  0  0  0
    5.1319   -4.0862  -12.1322 O   0  0  0  0  0  0  0  0  0  0  0  0
    5.7102   -4.9503  -13.0847 C   0  0  0  0  0  0  0  0  0  0  0  0
    3.4094   -5.6525  -11.4083 C   0  0  0  0  0  0  0  0  0  0  0  0
    2.3722   -6.0683  -10.5037 C   0  0  0  0  0  0  0  0  0  0  0  0
    2.0265   -5.2068   -9.4404 C   0  0  0  0  0  0  0  0  0  0  0  0
    2.7785   -3.9750   -9.2816 C   0  0  0  0  0  0  0  0  0  0  0  0
    2.5397   -2.7652   -8.4392 C   0  0  0  0  0  0  0  0  0  0  0  0
    1.3532   -2.4320   -7.9353 C   0  0  0  0  0  0  0  0  0  0  0  0
    0.4042   -3.3016   -7.3381 C   0  0  0  0  0  0  0  0  0  0  0  0
   -0.2638   -4.0735   -6.7042 N   0  0  0  0  0  0  0  0  0  0  0  0
    1.0127   -1.3716   -8.7960 C   0  0  0  0  0  0  0  0  0  0  0  0
    0.7002   -0.6360   -9.6563 N   0  0  0  0  0  0  0  0  0  0  0  0
    3.5265   -0.2562   -6.5957 C   0  0  0  0  0  0  0  0  0  0  0  0
    1.8772    0.2482   -6.4027 S   0  0  0  0  0  0  0  0  0  0  0  0
    2.0315    0.9091   -4.9201 C   0  0  0  0  0  0  0  0  0  0  0  0
    1.2752    1.3334   -3.9206 C   0  0  0  0  0  0  0  0  0  0  0  0
   -0.4475    1.3193   -3.5380 S   0  0  0  0  0  0  0  0  0  0  0  0
    0.0407    1.6681   -1.8975 C   0  0  0  0  0  0  0  0  0  0  0  0
   -0.5690    1.3965   -0.5737 C   0  0  0  0  0  0  0  0  0  0  0  0
   -1.8942    1.1099   -0.2108 C   0  0  0  0  0  0  0  0  0  0  0  0
   -2.0217    0.5254    1.0984 C   0  0  0  0  0  0  0  0  0  0  0  0
   -3.1415   -0.4581    1.4976 C   0  0  0  0  0  0  0  0  0  0  0  0
   -3.3177   -1.5204    0.3990 C   0  0  0  0  0  0  0  0  0  0  0  0
   -2.1362   -2.0225   -0.2336 C   0  0  0  0  0  0  0  0  0  0  0  0
   -2.2010   -2.8865   -1.2708 C   0  0  0  0  0  0  0  0  0  0  0  0
   -3.4192   -3.4360   -1.6522 C   0  0  0  0  0  0  0  0  0  0  0  0
   -3.4113   -4.3780   -2.7840 C   0  0  0  0  0  0  0  0  0  0  0  0
   -3.0532   -5.8049   -2.2932 C   0  0  0  0  0  0  0  0  0  0  0  0
   -4.6039   -3.0762   -0.9575 C   0  0  0  0  0  0  0  0  0  0  0  0
   -4.5635   -2.1451    0.0777 C   0  0  0  0  0  0  0  0  0  0  0  0
   -4.3631    0.3118    1.8561 C   0  0  0  0  0  0  0  0  0  0  0  0
   -4.7373    0.5959    3.2128 C   0  0  0  0  0  0  0  0  0  0  0  0
   -5.7296    1.5014    3.5194 C   0  0  0  0  0  0  0  0  0  0  0  0
   -6.3761    2.2067    2.4982 C   0  0  0  0  0  0  0  0  0  0  0  0
   -7.4399    3.1966    2.8660 C   0  0  0  0  0  0  0  0  0  0  0  0
   -6.8521    4.4760    3.4647 C   0  0  0  0  0  0  0  0  0  0  0  0
   -6.0018    1.9794    1.1687 C   0  0  0  0  0  0  0  0  0  0  0  0
   -5.0360    1.0678    0.8486 C   0  0  0  0  0  0  0  0  0  0  0  0
   -2.5242   -1.1690    2.7000 C   0  0  0  0  0  0  0  0  0  0  0  0
   -1.2610   -0.6950    2.9290 C   0  0  0  0  0  0  0  0  0  0  0  0
   -0.9169    0.3414    1.9910 C   0  0  0  0  0  0  0  0  0  0  0  0
    0.3135    0.8281    1.6553 C   0  0  0  0  0  0  0  0  0  0  0  0
    0.4654    1.3755    0.3629 C   0  0  0  0  0  0  0  0  0  0  0  0
    1.6270    2.1668   -0.1997 C   0  0  0  0  0  0  0  0  0  0  0  0
    1.3750    3.6550   -0.0328 C   0  0  0  0  0  0  0  0  0  0  0  0
    0.4609    4.1514    0.9790 C   0  0  0  0  0  0  0  0  0  0  0  0
    0.2350    5.4949    1.1451 C   0  0  0  0  0  0  0  0  0  0  0  0
    0.8698    6.4800    0.4028 C   0  0  0  0  0  0  0  0  0  0  0  0
    0.5288    7.8714    0.6001 C   0  0  0  0  0  0  0  0  0  0  0  0
    1.4127    8.4553    1.7312 C   0  0  0  0  0  0  0  0  0  0  0  0
    1.7846    6.0471   -0.5995 C   0  0  0  0  0  0  0  0  0  0  0  0
    2.0264    4.6464   -0.8247 C   0  0  0  0  0  0  0  0  0  0  0  0
    2.9639    1.7445    0.4290 C   0  0  0  0  0  0  0  0  0  0  0  0
    3.3700    0.3885    0.4148 C   0  0  0  0  0  0  0  0  0  0  0  0
    4.2501   -0.1135    1.3933 C   0  0  0  0  0  0  0  0  0  0  0  0
    4.7063    0.7194    2.4341 C   0  0  0  0  0  0  0  0  0  0  0  0
    5.5381    0.1778    3.5285 C   0  0  0  0  0  0  0  0  0  0  0  0
    4.6437   -0.0411    4.7860 C   0  0  0  0  0  0  0  0  0  0  0  0
    4.3542    2.0568    2.4559 C   0  0  0  0  0  0  0  0  0  0  0  0
    3.4839    2.5842    1.4988 C   0  0  0  0  0  0  0  0  0  0  0  0
    1.4277    1.8660   -1.6678 C   0  0  0  0  0  0  0  0  0  0  0  0
    2.1165    1.6249   -2.8677 C   0  0  0  0  0  0  0  0  0  0  0  0
    3.4160    1.3366   -3.2188 N   0  0  0  0  0  0  0  0  0  0  0  0
    3.3312    0.8822   -4.5219 C   0  0  0  0  0  0  0  0  0  0  0  0
    4.1993    0.2781   -5.4244 C   0  0  0  0  0  0  0  0  0  0  0  0
    4.6584    1.5851   -2.5010 C   0  0  0  0  0  0  0  0  0  0  0  0
    5.5075    0.5921   -1.9499 C   0  0  0  0  0  0  0  0  0  0  0  0
    6.6585    1.2025   -1.3717 C   0  0  0  0  0  0  0  0  0  0  0  0
    6.6865    2.5881   -1.5493 C   0  0  0  0  0  0  0  0  0  0  0  0
    7.7581    3.4878   -1.0463 C   0  0  0  0  0  0  0  0  0  0  0  0
    7.3579    4.1088    0.2627 C   0  0  0  0  0  0  0  0  0  0  0  0
    5.3167    3.1149   -2.3485 S   0  0  0  0  0  0  0  0  0  0  0  0
   -0.5047   -1.5688    4.1779 S   0  0  0  0  0  0  0  0  0  0  0  0
   -1.9173   -2.4945    4.5002 C   0  0  0  0  0  0  0  0  0  0  0  0
   -2.9629   -2.2130    3.5721 C   0  0  0  0  0  0  0  0  0  0  0  0
   -2.1362   -3.3521    5.7352 C   0  0  0  0  0  0  0  0  0  0  0  0
   -2.0683   -2.8259    7.0349 C   0  0  0  0  0  0  0  0  0  0  0  0
   -2.0349   -1.3910    7.3163 C   0  0  0  0  0  0  0  0  0  0  0  0
   -2.0208   -0.4442    6.4651 O   0  0  0  0  0  0  0  0  0  0  0  0
   -2.3378   -1.1431    8.6996 C   0  0  0  0  0  0  0  0  0  0  0  0
   -2.1991    0.0580    9.4104 C   0  0  0  0  0  0  0  0  0  0  0  0
   -1.8906    1.6154    8.5012 Cl  0  0  0  0  0  0  0  0  0  0  0  0
   -2.2946    0.0309   10.7942 C   0  0  0  0  0  0  0  0  0  0  0  0
   -2.1894    1.5010   11.7317 Cl  0  0  0  0  0  0  0  0  0  0  0  0
   -2.4347   -1.1698   11.4704 C   0  0  0  0  0  0  0  0  0  0  0  0
   -2.5798   -1.2214   13.2221 Cl  0  0  0  0  0  0  0  0  0  0  0  0
   -2.4766   -2.3800   10.7685 C   0  0  0  0  0  0  0  0  0  0  0  0
   -2.4021   -3.9039   11.7318 Cl  0  0  0  0  0  0  0  0  0  0  0  0
   -2.5326   -2.3515    9.3481 C   0  0  0  0  0  0  0  0  0  0  0  0
   -2.3292   -3.4935    8.3433 C   0  0  0  0  0  0  0  0  0  0  0  0
   -2.6148   -4.8276    8.5558 C   0  0  0  0  0  0  0  0  0  0  0  0
   -1.8861   -5.8272    7.8742 C   0  0  0  0  0  0  0  0  0  0  0  0
   -1.3442   -6.7234    7.3268 N   0  0  0  0  0  0  0  0  0  0  0  0
   -3.7558   -5.1665    9.4064 C   0  0  0  0  0  0  0  0  0  0  0  0
   -4.6980   -5.4408    9.9922 N   0  0  0  0  0  0  0  0  0  0  0  0
    5.2054   -0.6774   -7.7995 H   0  0  0  0  0  0  0  0  0  0  0  0
    4.9739   -5.6058  -13.6277 H   0  0  0  0  0  0  0  0  0  0  0  0
    6.5041   -5.5848  -12.5983 H   0  0  0  0  0  0  0  0  0  0  0  0
    6.2130   -4.3185  -13.8209 H   0  0  0  0  0  0  0  0  0  0  0  0
    3.5487   -6.3731  -12.2226 H   0  0  0  0  0  0  0  0  0  0  0  0
    1.7265   -6.9145  -10.5742 H   0  0  0  0  0  0  0  0  0  0  0  0
    1.2598   -5.4354   -8.7580 H   0  0  0  0  0  0  0  0  0  0  0  0
   -2.6181    0.9571   -0.9903 H   0  0  0  0  0  0  0  0  0  0  0  0
   -1.1009   -1.6216    0.0040 H   0  0  0  0  0  0  0  0  0  0  0  0
   -1.2614   -3.1122   -1.7743 H   0  0  0  0  0  0  0  0  0  0  0  0
   -4.3949   -4.3844   -3.3002 H   0  0  0  0  0  0  0  0  0  0  0  0
   -2.5909   -4.0679   -3.5322 H   0  0  0  0  0  0  0  0  0  0  0  0
   -2.9820   -6.4772   -3.2001 H   0  0  0  0  0  0  0  0  0  0  0  0
   -2.0318   -5.8227   -1.7730 H   0  0  0  0  0  0  0  0  0  0  0  0
   -3.8081   -6.1829   -1.5962 H   0  0  0  0  0  0  0  0  0  0  0  0
   -5.5641   -3.5212   -1.2373 H   0  0  0  0  0  0  0  0  0  0  0  0
   -5.4292   -1.8354    0.6066 H   0  0  0  0  0  0  0  0  0  0  0  0
   -4.2330    0.1020    4.0866 H   0  0  0  0  0  0  0  0  0  0  0  0
   -5.9835    1.6440    4.6445 H   0  0  0  0  0  0  0  0  0  0  0  0
   -8.0568    3.4331    1.9976 H   0  0  0  0  0  0  0  0  0  0  0  0
   -8.1161    2.7210    3.6656 H   0  0  0  0  0  0  0  0  0  0  0  0
   -7.6226    5.1771    3.6821 H   0  0  0  0  0  0  0  0  0  0  0  0
   -6.2954    4.2381    4.4213 H   0  0  0  0  0  0  0  0  0  0  0  0
   -6.1438    4.9053    2.7506 H   0  0  0  0  0  0  0  0  0  0  0  0
   -6.5101    2.5256    0.4113 H   0  0  0  0  0  0  0  0  0  0  0  0
   -4.7506    0.9453   -0.2153 H   0  0  0  0  0  0  0  0  0  0  0  0
    1.1975    0.8165    2.3884 H   0  0  0  0  0  0  0  0  0  0  0  0
   -0.0514    3.5057    1.6910 H   0  0  0  0  0  0  0  0  0  0  0  0
   -0.5395    5.7458    1.9435 H   0  0  0  0  0  0  0  0  0  0  0  0
   -0.5603    7.9715    0.9346 H   0  0  0  0  0  0  0  0  0  0  0  0
    0.6396    8.4633   -0.3397 H   0  0  0  0  0  0  0  0  0  0  0  0
    2.4742    8.5467    1.3534 H   0  0  0  0  0  0  0  0  0  0  0  0
    1.3762    7.8342    2.6403 H   0  0  0  0  0  0  0  0  0  0  0  0
    1.0253    9.4760    1.9722 H   0  0  0  0  0  0  0  0  0  0  0  0
    2.3294    6.7857   -1.2008 H   0  0  0  0  0  0  0  0  0  0  0  0
    2.7922    4.3544   -1.5828 H   0  0  0  0  0  0  0  0  0  0  0  0
    2.8764   -0.3240   -0.3232 H   0  0  0  0  0  0  0  0  0  0  0  0
    4.5277   -1.1950    1.3278 H   0  0  0  0  0  0  0  0  0  0  0  0
    6.3397    0.9200    3.7463 H   0  0  0  0  0  0  0  0  0  0  0  0
    6.0404   -0.7851    3.2171 H   0  0  0  0  0  0  0  0  0  0  0  0
    4.5638    0.9221    5.3576 H   0  0  0  0  0  0  0  0  0  0  0  0
    3.6236   -0.4341    4.4785 H   0  0  0  0  0  0  0  0  0  0  0  0
    5.1524   -0.8030    5.4324 H   0  0  0  0  0  0  0  0  0  0  0  0
    4.6673    2.7672    3.2426 H   0  0  0  0  0  0  0  0  0  0  0  0
    3.1812    3.5867    1.6981 H   0  0  0  0  0  0  0  0  0  0  0  0
    5.3346    0.1515   -5.2200 H   0  0  0  0  0  0  0  0  0  0  0  0
    5.3168   -0.4932   -1.9300 H   0  0  0  0  0  0  0  0  0  0  0  0
    7.3955    0.6024   -0.8905 H   0  0  0  0  0  0  0  0  0  0  0  0
    8.7068    2.9354   -0.9072 H   0  0  0  0  0  0  0  0  0  0  0  0
    7.9381    4.2858   -1.7733 H   0  0  0  0  0  0  0  0  0  0  0  0
    7.0146    3.3498    0.9937 H   0  0  0  0  0  0  0  0  0  0  0  0
    8.2404    4.6720    0.7237 H   0  0  0  0  0  0  0  0  0  0  0  0
    6.5388    4.8323    0.1382 H   0  0  0  0  0  0  0  0  0  0  0  0
   -3.9436   -2.5989    3.5291 H   0  0  0  0  0  0  0  0  0  0  0  0
   -2.4279   -4.4147    5.5554 H   0  0  0  0  0  0  0  0  0  0  0  0
  1  2  2  3
  2  3  1  0
  3  4  2  0
  3  5  1  0
  5  6  2  0
  6  7  1  0
  7  8  1  0
  6  9  1  0
  9 10  2  0
 10 11  1  0
 11 12  2  0
 12 13  1  0
 13 14  2  3
 14 15  1  0
 15 16  3  0
 14 17  1  0
 17 18  3  0
  1 19  1  0
 19 20  1  0
 20 21  1  0
 21 22  1  0
 22 23  1  0
 23 24  1  0
 24 25  1  0
 25 26  2  0
 26 27  1  0
 27 28  1  0
 28 29  1  0
 29 30  2  0
 30 31  1  0
 31 32  2  0
 32 33  1  0
 33 34  1  0
 32 35  1  0
 35 36  2  0
 28 37  1  0
 37 38  2  0
 38 39  1  0
 39 40  2  0
 40 41  1  0
 41 42  1  0
 40 43  1  0
 43 44  2  0
 28 45  1  0
 45 46  2  0
 46 47  1  0
 47 48  1  0
 48 49  2  0
 49 50  1  0
 50 51  1  0
 51 52  2  0
 52 53  1  0
 53 54  2  0
 54 55  1  0
 55 56  1  0
 54 57  1  0
 57 58  2  0
 50 59  1  0
 59 60  2  0
 60 61  1  0
 61 62  2  0
 62 63  1  0
 63 64  1  0
 62 65  1  0
 65 66  2  0
 50 67  1  0
 67 68  1  0
 68 69  1  0
 69 70  1  0
 70 71  1  0
 69 72  1  0
 72 73  2  0
 73 74  1  0
 74 75  2  0
 75 76  1  0
 76 77  1  0
 75 78  1  0
 46 79  1  0
 79 80  1  0
 80 81  2  0
 80 82  1  0
 82 83  2  3
 83 84  1  0
 84 85  2  0
 84 86  1  0
 86 87  2  0
 87 88  1  0
 87 89  1  0
 89 90  1  0
 89 91  2  0
 91 92  1  0
 91 93  1  0
 93 94  1  0
 93 95  2  0
 95 96  1  0
 96 97  2  3
 97 98  1  0
 98 99  3  0
 97100  1  0
100101  3  0
 13  2  1  0
 71 19  2  0
 78 72  1  0
 96 83  1  0
 12  5  1  0
 70 21  2  0
 95 86  1  0
 68 22  2  0
 67 24  2  0
 49 25  1  0
 58 51  1  0
 66 59  1  0
 47 27  2  0
 36 29  1  0
 44 37  1  0
 81 45  1  0
  1102  1  0
  8103  1  0
  8104  1  0
  8105  1  0
  9106  1  0
 10107  1  0
 11108  1  0
 26109  1  0
 30110  1  0
 31111  1  0
 33112  1  0
 33113  1  0
 34114  1  0
 34115  1  0
 34116  1  0
 35117  1  0
 36118  1  0
 38119  1  0
 39120  1  0
 41121  1  0
 41122  1  0
 42123  1  0
 42124  1  0
 42125  1  0
 43126  1  0
 44127  1  0
 48128  1  0
 52129  1  0
 53130  1  0
 55131  1  0
 55132  1  0
 56133  1  0
 56134  1  0
 56135  1  0
 57136  1  0
 58137  1  0
 60138  1  0
 61139  1  0
 63140  1  0
 63141  1  0
 64142  1  0
 64143  1  0
 64144  1  0
 65145  1  0
 66146  1  0
 71147  1  0
 73148  1  0
 74149  1  0
 76150  1  0
 76151  1  0
 77152  1  0
 77153  1  0
 77154  1  0
 81155  1  0
 82156  1  0
M  END

