
     RDKit          3D

110121  0  0  0  0  0  0  0  0999 V2000
   -1.8838    0.0184    7.2577 C   0  0  0  0  0  0  0  0  0  0  0  0
   -1.2708   -0.9351    7.9850 C   0  0  0  0  0  0  0  0  0  0  0  0
    0.0973   -1.4376    7.7998 C   0  0  0  0  0  0  0  0  0  0  0  0
    1.0617   -0.8075    7.2916 O   0  0  0  0  0  0  0  0  0  0  0  0
    0.1909   -2.7464    8.4168 C   0  0  0  0  0  0  0  0  0  0  0  0
    1.2503   -3.6583    8.3658 C   0  0  0  0  0  0  0  0  0  0  0  0
    2.4311   -3.3103    7.6902 O   0  0  0  0  0  0  0  0  0  0  0  0
    3.6084   -4.1060    7.6674 C   0  0  0  0  0  0  0  0  0  0  0  0
    1.0707   -4.9089    8.9957 C   0  0  0  0  0  0  0  0  0  0  0  0
   -0.1493   -5.2209    9.6196 C   0  0  0  0  0  0  0  0  0  0  0  0
   -1.1985   -4.2899    9.6483 C   0  0  0  0  0  0  0  0  0  0  0  0
   -1.0013   -3.0288    9.0655 C   0  0  0  0  0  0  0  0  0  0  0  0
   -1.9242   -1.8638    8.9546 C   0  0  0  0  0  0  0  0  0  0  0  0
   -2.9826   -1.5878    9.7601 C   0  0  0  0  0  0  0  0  0  0  0  0
   -3.6316   -0.3008    9.7699 C   0  0  0  0  0  0  0  0  0  0  0  0
   -4.1509    0.7327    9.7847 N   0  0  0  0  0  0  0  0  0  0  0  0
   -3.4435   -2.5012   10.7716 C   0  0  0  0  0  0  0  0  0  0  0  0
   -3.8222   -3.2248   11.5932 N   0  0  0  0  0  0  0  0  0  0  0  0
   -1.2806    0.7242    6.1090 C   0  0  0  0  0  0  0  0  0  0  0  0
   -1.5769    2.0502    5.7229 C   0  0  0  0  0  0  0  0  0  0  0  0
   -2.4158    3.0129    6.5181 C   0  0  0  0  0  0  0  0  0  0  0  0
   -1.6248    3.5813    7.6903 C   0  0  0  0  0  0  0  0  0  0  0  0
   -0.9965    2.3584    4.4877 C   0  0  0  0  0  0  0  0  0  0  0  0
   -0.3172    1.3255    3.8986 C   0  0  0  0  0  0  0  0  0  0  0  0
   -0.4036   -0.0416    4.8620 S   0  0  0  0  0  0  0  0  0  0  0  0
    0.1224    1.6157    2.6131 C   0  0  0  0  0  0  0  0  0  0  0  0
   -0.2450    2.8666    2.2234 C   0  0  0  0  0  0  0  0  0  0  0  0
   -1.1558    3.6756    3.4114 S   0  0  0  0  0  0  0  0  0  0  0  0
   -0.1585    2.9022    0.8568 C   0  0  0  0  0  0  0  0  0  0  0  0
   -0.7422    3.7856   -0.0684 C   0  0  0  0  0  0  0  0  0  0  0  0
   -1.3135    4.9568    0.3121 N   0  0  0  0  0  0  0  0  0  0  0  0
   -1.8960    5.7886   -0.5961 C   0  0  0  0  0  0  0  0  0  0  0  0
   -2.4949    7.0769   -0.1142 C   0  0  0  0  0  0  0  0  0  0  0  0
   -1.9004    5.4252   -1.9644 C   0  0  0  0  0  0  0  0  0  0  0  0
   -2.4903    6.3140   -3.0173 C   0  0  0  0  0  0  0  0  0  0  0  0
   -1.3408    4.2425   -2.3406 N   0  0  0  0  0  0  0  0  0  0  0  0
   -0.7746    3.4108   -1.4312 C   0  0  0  0  0  0  0  0  0  0  0  0
   -0.1939    2.1922   -1.8019 C   0  0  0  0  0  0  0  0  0  0  0  0
   -0.0306    1.5937   -3.0165 C   0  0  0  0  0  0  0  0  0  0  0  0
   -0.5003    1.7983   -4.6355 S   0  0  0  0  0  0  0  0  0  0  0  0
    0.3137    0.3578   -5.0720 C   0  0  0  0  0  0  0  0  0  0  0  0
    0.3199   -0.4136   -6.2374 C   0  0  0  0  0  0  0  0  0  0  0  0
   -0.4770   -0.0710   -7.4662 C   0  0  0  0  0  0  0  0  0  0  0  0
   -1.9016   -0.6034   -7.3495 C   0  0  0  0  0  0  0  0  0  0  0  0
    0.9764   -1.6412   -6.0194 C   0  0  0  0  0  0  0  0  0  0  0  0
    1.4933   -1.7467   -4.4011 S   0  0  0  0  0  0  0  0  0  0  0  0
    0.9333   -0.2221   -3.9911 C   0  0  0  0  0  0  0  0  0  0  0  0
    0.7153    0.4793   -2.8153 C   0  0  0  0  0  0  0  0  0  0  0  0
    1.0680    0.2956   -1.5183 N   0  0  0  0  0  0  0  0  0  0  0  0
    2.3543   -0.2865   -1.0979 C   0  0  0  0  0  0  0  0  0  0  0  0
    2.3663   -1.8156   -1.1972 C   0  0  0  0  0  0  0  0  0  0  0  0
    0.4306    1.3346   -0.8883 C   0  0  0  0  0  0  0  0  0  0  0  0
    0.3622    1.6517    0.4848 C   0  0  0  0  0  0  0  0  0  0  0  0
    0.4626    0.8179    1.5697 N   0  0  0  0  0  0  0  0  0  0  0  0
    0.2717   -0.6392    1.5752 C   0  0  0  0  0  0  0  0  0  0  0  0
   -1.2057   -0.9961    1.4207 C   0  0  0  0  0  0  0  0  0  0  0  0
    0.9605   -2.7930   -6.9293 C   0  0  0  0  0  0  0  0  0  0  0  0
    1.7051   -2.8582   -8.0485 C   0  0  0  0  0  0  0  0  0  0  0  0
    2.5849   -1.7957   -8.5500 C   0  0  0  0  0  0  0  0  0  0  0  0
    2.9684   -0.7764   -7.9135 O   0  0  0  0  0  0  0  0  0  0  0  0
    2.9288   -2.1024   -9.9207 C   0  0  0  0  0  0  0  0  0  0  0  0
    3.6734   -1.3320  -10.8125 C   0  0  0  0  0  0  0  0  0  0  0  0
    3.8257   -1.7914  -12.1287 C   0  0  0  0  0  0  0  0  0  0  0  0
    4.7466   -0.8346  -13.2765 Cl  0  0  0  0  0  0  0  0  0  0  0  0
    3.2200   -2.9977  -12.5311 C   0  0  0  0  0  0  0  0  0  0  0  0
    3.3442   -3.4284  -13.8140 F   0  0  0  0  0  0  0  0  0  0  0  0
    2.4736   -3.7579  -11.6138 C   0  0  0  0  0  0  0  0  0  0  0  0
    2.3584   -3.3102  -10.2857 C   0  0  0  0  0  0  0  0  0  0  0  0
    1.6586   -3.9112   -9.1104 C   0  0  0  0  0  0  0  0  0  0  0  0
    1.2716   -5.2069   -8.9672 C   0  0  0  0  0  0  0  0  0  0  0  0
    1.3720   -6.1734  -10.0302 C   0  0  0  0  0  0  0  0  0  0  0  0
    1.4467   -6.9644  -10.8726 N   0  0  0  0  0  0  0  0  0  0  0  0
    0.8484   -5.7565   -7.7038 C   0  0  0  0  0  0  0  0  0  0  0  0
    0.5121   -6.2082   -6.6922 N   0  0  0  0  0  0  0  0  0  0  0  0
   -2.9209    0.2437    7.4393 H   0  0  0  0  0  0  0  0  0  0  0  0
    3.9859   -4.2601    8.6987 H   0  0  0  0  0  0  0  0  0  0  0  0
    3.3986   -5.0813    7.1900 H   0  0  0  0  0  0  0  0  0  0  0  0
    4.3904   -3.5878    7.0727 H   0  0  0  0  0  0  0  0  0  0  0  0
    1.8540   -5.6553    8.9916 H   0  0  0  0  0  0  0  0  0  0  0  0
   -0.2888   -6.1929   10.0727 H   0  0  0  0  0  0  0  0  0  0  0  0
   -2.1381   -4.5799   10.0896 H   0  0  0  0  0  0  0  0  0  0  0  0
   -2.7540    3.8487    5.8721 H   0  0  0  0  0  0  0  0  0  0  0  0
   -3.3290    2.5088    6.8921 H   0  0  0  0  0  0  0  0  0  0  0  0
   -0.7254    4.1181    7.3219 H   0  0  0  0  0  0  0  0  0  0  0  0
   -1.3124    2.7677    8.3784 H   0  0  0  0  0  0  0  0  0  0  0  0
   -2.2586    4.2952    8.2583 H   0  0  0  0  0  0  0  0  0  0  0  0
   -2.4045    7.1616    0.9902 H   0  0  0  0  0  0  0  0  0  0  0  0
   -3.5728    7.1176   -0.3758 H   0  0  0  0  0  0  0  0  0  0  0  0
   -1.9676    7.9359   -0.5805 H   0  0  0  0  0  0  0  0  0  0  0  0
   -2.3829    5.8543   -4.0230 H   0  0  0  0  0  0  0  0  0  0  0  0
   -1.9616    7.2901   -3.0241 H   0  0  0  0  0  0  0  0  0  0  0  0
   -3.5689    6.4693   -2.8155 H   0  0  0  0  0  0  0  0  0  0  0  0
   -0.0011   -0.5022   -8.3706 H   0  0  0  0  0  0  0  0  0  0  0  0
   -0.5045    1.0326   -7.5939 H   0  0  0  0  0  0  0  0  0  0  0  0
   -2.4739   -0.3427   -8.2647 H   0  0  0  0  0  0  0  0  0  0  0  0
   -2.4087   -0.1581   -6.4678 H   0  0  0  0  0  0  0  0  0  0  0  0
   -1.8921   -1.7102   -7.2442 H   0  0  0  0  0  0  0  0  0  0  0  0
    3.1695    0.1298   -1.7286 H   0  0  0  0  0  0  0  0  0  0  0  0
    2.6001    0.0239   -0.0597 H   0  0  0  0  0  0  0  0  0  0  0  0
    2.8139   -2.2542   -0.2804 H   0  0  0  0  0  0  0  0  0  0  0  0
    2.9894   -2.1399   -2.0575 H   0  0  0  0  0  0  0  0  0  0  0  0
    1.3380   -2.2159   -1.3164 H   0  0  0  0  0  0  0  0  0  0  0  0
    0.8158   -1.1229    0.7603 H   0  0  0  0  0  0  0  0  0  0  0  0
    0.6692   -1.0730    2.5128 H   0  0  0  0  0  0  0  0  0  0  0  0
   -1.5971   -0.5999    0.4589 H   0  0  0  0  0  0  0  0  0  0  0  0
   -1.3177   -2.1001    1.4245 H   0  0  0  0  0  0  0  0  0  0  0  0
   -1.8065   -0.5742    2.2551 H   0  0  0  0  0  0  0  0  0  0  0  0
    0.2582   -3.5701   -6.6789 H   0  0  0  0  0  0  0  0  0  0  0  0
    4.1153   -0.3914  -10.4981 H   0  0  0  0  0  0  0  0  0  0  0  0
    1.9836   -4.6523  -11.9641 H   0  0  0  0  0  0  0  0  0  0  0  0
  1  2  2  3
  2  3  1  0
  3  4  2  0
  3  5  1  0
  5  6  2  0
  6  7  1  0
  7  8  1  0
  6  9  1  0
  9 10  2  0
 10 11  1  0
 11 12  2  0
 12 13  1  0
 13 14  2  3
 14 15  1  0
 15 16  3  0
 14 17  1  0
 17 18  3  0
  1 19  1  0
 19 20  2  0
 20 21  1  0
 21 22  1  0
 20 23  1  0
 23 24  2  0
 24 25  1  0
 24 26  1  0
 26 27  2  0
 27 28  1  0
 27 29  1  0
 29 30  2  0
 30 31  1  0
 31 32  2  0
 32 33  1  0
 32 34  1  0
 34 35  1  0
 34 36  2  0
 36 37  1  0
 37 38  2  0
 38 39  1  0
 39 40  1  0
 40 41  1  0
 41 42  1  0
 42 43  1  0
 43 44  1  0
 42 45  2  0
 45 46  1  0
 46 47  1  0
 47 48  1  0
 48 49  1  0
 49 50  1  0
 50 51  1  0
 49 52  1  0
 52 53  2  0
 53 54  1  0
 54 55  1  0
 55 56  1  0
 45 57  1  0
 57 58  2  3
 58 59  1  0
 59 60  2  0
 59 61  1  0
 61 62  2  0
 62 63  1  0
 63 64  1  0
 63 65  2  0
 65 66  1  0
 65 67  1  0
 67 68  2  0
 68 69  1  0
 69 70  2  3
 70 71  1  0
 71 72  3  0
 70 73  1  0
 73 74  3  0
 13  2  1  0
 25 19  1  0
 54 26  1  0
 69 58  1  0
 12  5  1  0
 28 23  1  0
 53 29  1  0
 68 61  1  0
 37 30  1  0
 52 38  1  0
 48 39  2  0
 47 41  2  0
  1 75  1  0
  8 76  1  0
  8 77  1  0
  8 78  1  0
  9 79  1  0
 10 80  1  0
 11 81  1  0
 21 82  1  0
 21 83  1  0
 22 84  1  0
 22 85  1  0
 22 86  1  0
 33 87  1  0
 33 88  1  0
 33 89  1  0
 35 90  1  0
 35 91  1  0
 35 92  1  0
 43 93  1  0
 43 94  1  0
 44 95  1  0
 44 96  1  0
 44 97  1  0
 50 98  1  0
 50 99  1  0
 51100  1  0
 51101  1  0
 51102  1  0
 55103  1  0
 55104  1  0
 56105  1  0
 56106  1  0
 56107  1  0
 57108  1  0
 62109  1  0
 67110  1  0
M  END

