
     RDKit          3D

 99111  0  0  0  0  0  0  0  0999 V2000
    5.5257    0.1455   -0.8201 C   0  0  0  0  0  0  0  0  0  0  0  0
    5.0264    0.2874   -2.0633 C   0  0  0  0  0  0  0  0  0  0  0  0
    5.8556    0.2229   -3.2664 C   0  0  0  0  0  0  0  0  0  0  0  0
    7.1116    0.3126   -3.3080 O   0  0  0  0  0  0  0  0  0  0  0  0
    4.9986   -0.0883   -4.3945 C   0  0  0  0  0  0  0  0  0  0  0  0
    5.3893   -0.3460   -5.7299 C   0  0  0  0  0  0  0  0  0  0  0  0
    4.3378   -0.6827   -6.5666 C   0  0  0  0  0  0  0  0  0  0  0  0
    2.9818   -0.7874   -6.1155 C   0  0  0  0  0  0  0  0  0  0  0  0
    2.5939   -0.5364   -4.8114 C   0  0  0  0  0  0  0  0  0  0  0  0
    3.6536   -0.1477   -3.9471 C   0  0  0  0  0  0  0  0  0  0  0  0
    3.6043    0.2473   -2.5159 C   0  0  0  0  0  0  0  0  0  0  0  0
    2.5627    0.8686   -1.9100 C   0  0  0  0  0  0  0  0  0  0  0  0
    2.7466    1.6928   -0.7407 C   0  0  0  0  0  0  0  0  0  0  0  0
    2.8918    2.3630    0.1913 N   0  0  0  0  0  0  0  0  0  0  0  0
    1.2413    0.9043   -2.4809 C   0  0  0  0  0  0  0  0  0  0  0  0
    0.1737    0.9487   -2.9241 N   0  0  0  0  0  0  0  0  0  0  0  0
    2.5320   -1.1584   -7.4955 C   0  0  0  0  0  0  0  0  0  0  0  0
    1.7896   -0.0500   -8.2994 C   0  0  0  0  0  0  0  0  0  0  0  0
    1.7938   -0.5084   -9.7370 C   0  0  0  0  0  0  0  0  0  0  0  0
    3.0591   -0.4161  -10.1616 C   0  0  0  0  0  0  0  0  0  0  0  0
    3.8644    0.1101   -8.9980 C   0  0  0  0  0  0  0  0  0  0  0  0
    2.8299    1.0526   -8.4053 C   0  0  0  0  0  0  0  0  0  0  0  0
    3.9195   -1.0488   -7.9593 C   0  0  0  0  0  0  0  0  0  0  0  0
    4.7395   -0.3126    0.3354 C   0  0  0  0  0  0  0  0  0  0  0  0
    4.8986    0.3316    1.9054 S   0  0  0  0  0  0  0  0  0  0  0  0
    3.6925   -0.6586    2.5219 C   0  0  0  0  0  0  0  0  0  0  0  0
    2.7856   -0.5716    3.5385 C   0  0  0  0  0  0  0  0  0  0  0  0
    2.5689    0.4595    4.4607 C   0  0  0  0  0  0  0  0  0  0  0  0
    3.3200    1.5345    4.7391 N   0  0  0  0  0  0  0  0  0  0  0  0
    2.5496    2.2964    5.5177 N   0  0  0  0  0  0  0  0  0  0  0  0
    2.9528    3.6121    5.9974 C   0  0  0  0  0  0  0  0  0  0  0  0
    2.8090    4.6433    4.8858 C   0  0  0  0  0  0  0  0  0  0  0  0
    1.3284    1.7931    5.7069 N   0  0  0  0  0  0  0  0  0  0  0  0
    1.3434    0.6291    5.0415 C   0  0  0  0  0  0  0  0  0  0  0  0
    0.3144   -0.2701    4.7793 C   0  0  0  0  0  0  0  0  0  0  0  0
   -1.0060   -0.3255    5.1208 C   0  0  0  0  0  0  0  0  0  0  0  0
   -2.1786    0.5692    5.9119 S   0  0  0  0  0  0  0  0  0  0  0  0
   -3.4069   -0.5462    5.4860 C   0  0  0  0  0  0  0  0  0  0  0  0
   -2.8841   -1.6200    4.7486 C   0  0  0  0  0  0  0  0  0  0  0  0
   -1.5231   -1.4322    4.5465 C   0  0  0  0  0  0  0  0  0  0  0  0
   -0.6021   -2.1374    3.8466 N   0  0  0  0  0  0  0  0  0  0  0  0
   -0.6571   -3.5846    3.6003 C   0  0  0  0  0  0  0  0  0  0  0  0
   -0.8713   -4.3671    4.8970 C   0  0  0  0  0  0  0  0  0  0  0  0
    0.5182   -1.3608    3.9227 C   0  0  0  0  0  0  0  0  0  0  0  0
    1.7327   -1.4405    3.1838 C   0  0  0  0  0  0  0  0  0  0  0  0
    1.9245   -1.9216    1.9112 N   0  0  0  0  0  0  0  0  0  0  0  0
    3.1489   -1.4421    1.5636 C   0  0  0  0  0  0  0  0  0  0  0  0
    3.7234   -1.2790    0.3022 C   0  0  0  0  0  0  0  0  0  0  0  0
    0.8863   -2.2442    0.9154 C   0  0  0  0  0  0  0  0  0  0  0  0
    0.0839   -1.0033    0.5382 C   0  0  0  0  0  0  0  0  0  0  0  0
   -4.8368   -0.3319    5.7259 C   0  0  0  0  0  0  0  0  0  0  0  0
   -5.6828    0.0243    4.7363 C   0  0  0  0  0  0  0  0  0  0  0  0
   -5.3045    0.2390    3.3311 C   0  0  0  0  0  0  0  0  0  0  0  0
   -4.1413    0.4082    2.8859 O   0  0  0  0  0  0  0  0  0  0  0  0
   -6.5109    0.2575    2.5322 C   0  0  0  0  0  0  0  0  0  0  0  0
   -6.6205    0.3238    1.1440 C   0  0  0  0  0  0  0  0  0  0  0  0
   -7.8955    0.2417    0.5708 C   0  0  0  0  0  0  0  0  0  0  0  0
   -8.0309    0.2941   -0.7765 F   0  0  0  0  0  0  0  0  0  0  0  0
   -9.0273    0.0781    1.3872 C   0  0  0  0  0  0  0  0  0  0  0  0
  -10.2530   -0.0362    0.8218 F   0  0  0  0  0  0  0  0  0  0  0  0
   -8.8947    0.0168    2.7844 C   0  0  0  0  0  0  0  0  0  0  0  0
   -7.6174    0.1286    3.3566 C   0  0  0  0  0  0  0  0  0  0  0  0
   -7.1770    0.0885    4.7853 C   0  0  0  0  0  0  0  0  0  0  0  0
   -7.9564    0.2823    5.8827 C   0  0  0  0  0  0  0  0  0  0  0  0
   -9.3846    0.4384    5.8006 C   0  0  0  0  0  0  0  0  0  0  0  0
  -10.5318    0.5748    5.7527 N   0  0  0  0  0  0  0  0  0  0  0  0
   -7.4077    0.4706    7.2014 C   0  0  0  0  0  0  0  0  0  0  0  0
   -6.9775    0.6276    8.2656 N   0  0  0  0  0  0  0  0  0  0  0  0
    6.5956    0.2455   -0.6726 H   0  0  0  0  0  0  0  0  0  0  0  0
    6.4159   -0.2915   -6.0698 H   0  0  0  0  0  0  0  0  0  0  0  0
    1.5684   -0.6555   -4.5059 H   0  0  0  0  0  0  0  0  0  0  0  0
    2.1028   -2.1842   -7.5621 H   0  0  0  0  0  0  0  0  0  0  0  0
    0.7945    0.2449   -7.9020 H   0  0  0  0  0  0  0  0  0  0  0  0
    0.9362   -0.7688  -10.3477 H   0  0  0  0  0  0  0  0  0  0  0  0
    3.4007   -0.5731  -11.1783 H   0  0  0  0  0  0  0  0  0  0  0  0
    4.8414    0.5696   -9.2575 H   0  0  0  0  0  0  0  0  0  0  0  0
    2.5239    1.8733   -9.0964 H   0  0  0  0  0  0  0  0  0  0  0  0
    3.1217    1.4988   -7.4284 H   0  0  0  0  0  0  0  0  0  0  0  0
    4.3640   -2.0022   -8.3244 H   0  0  0  0  0  0  0  0  0  0  0  0
    2.3195    3.9068    6.8594 H   0  0  0  0  0  0  0  0  0  0  0  0
    4.0104    3.5767    6.3373 H   0  0  0  0  0  0  0  0  0  0  0  0
    1.7541    4.6820    4.5347 H   0  0  0  0  0  0  0  0  0  0  0  0
    3.1031    5.6454    5.2671 H   0  0  0  0  0  0  0  0  0  0  0  0
    3.4696    4.3764    4.0328 H   0  0  0  0  0  0  0  0  0  0  0  0
   -3.4711   -2.4244    4.3229 H   0  0  0  0  0  0  0  0  0  0  0  0
   -1.4787   -3.8098    2.8902 H   0  0  0  0  0  0  0  0  0  0  0  0
    0.3054   -3.9467    3.1847 H   0  0  0  0  0  0  0  0  0  0  0  0
   -0.8000   -5.4581    4.6933 H   0  0  0  0  0  0  0  0  0  0  0  0
   -0.0942   -4.0912    5.6399 H   0  0  0  0  0  0  0  0  0  0  0  0
   -1.8736   -4.1605    5.3237 H   0  0  0  0  0  0  0  0  0  0  0  0
    3.3908   -1.7747   -0.5967 H   0  0  0  0  0  0  0  0  0  0  0  0
    0.2003   -3.0217    1.2641 H   0  0  0  0  0  0  0  0  0  0  0  0
    1.3509   -2.6645    0.0033 H   0  0  0  0  0  0  0  0  0  0  0  0
   -0.5164   -0.6467    1.3981 H   0  0  0  0  0  0  0  0  0  0  0  0
   -0.6090   -1.2471   -0.2925 H   0  0  0  0  0  0  0  0  0  0  0  0
    0.7638   -0.1916    0.2114 H   0  0  0  0  0  0  0  0  0  0  0  0
   -5.1891   -0.5691    6.7164 H   0  0  0  0  0  0  0  0  0  0  0  0
   -5.7394    0.4232    0.5223 H   0  0  0  0  0  0  0  0  0  0  0  0
   -9.7766   -0.1586    3.3737 H   0  0  0  0  0  0  0  0  0  0  0  0
  1  2  2  3
  2  3  1  0
  3  4  2  0
  3  5  1  0
  5  6  2  0
  6  7  1  0
  7  8  2  0
  8  9  1  0
  9 10  2  0
 10 11  1  0
 11 12  2  3
 12 13  1  0
 13 14  3  0
 12 15  1  0
 15 16  3  0
  8 17  1  0
 17 18  1  0
 18 19  1  0
 19 20  2  0
 20 21  1  0
 21 22  1  0
 21 23  1  0
  1 24  1  0
 24 25  1  0
 25 26  1  0
 26 27  1  0
 27 28  1  0
 28 29  2  0
 29 30  1  0
 30 31  1  0
 31 32  1  0
 30 33  1  0
 33 34  2  0
 34 35  1  0
 35 36  1  0
 36 37  1  0
 37 38  1  0
 38 39  2  0
 39 40  1  0
 40 41  1  0
 41 42  1  0
 42 43  1  0
 41 44  1  0
 44 45  1  0
 45 46  1  0
 46 47  1  0
 47 48  1  0
 46 49  1  0
 49 50  1  0
 38 51  1  0
 51 52  2  3
 52 53  1  0
 53 54  2  0
 53 55  1  0
 55 56  2  0
 56 57  1  0
 57 58  1  0
 57 59  2  0
 59 60  1  0
 59 61  1  0
 61 62  2  0
 62 63  1  0
 63 64  2  3
 64 65  1  0
 65 66  3  0
 64 67  1  0
 67 68  3  0
 11  2  1  0
 23 17  1  0
 48 24  2  0
 63 52  1  0
 10  5  1  0
 22 18  1  0
 47 26  2  0
 62 55  1  0
 23  7  1  0
 45 27  2  0
 34 28  1  0
 44 35  2  0
 40 36  2  0
  1 69  1  0
  6 70  1  0
  9 71  1  0
 17 72  1  0
 18 73  1  0
 19 74  1  0
 20 75  1  0
 21 76  1  0
 22 77  1  0
 22 78  1  0
 23 79  1  0
 31 80  1  0
 31 81  1  0
 32 82  1  0
 32 83  1  0
 32 84  1  0
 39 85  1  0
 42 86  1  0
 42 87  1  0
 43 88  1  0
 43 89  1  0
 43 90  1  0
 48 91  1  0
 49 92  1  0
 49 93  1  0
 50 94  1  0
 50 95  1  0
 50 96  1  0
 51 97  1  0
 56 98  1  0
 61 99  1  0
M  END

