
     RDKit          3D

130147  0  0  0  0  0  0  0  0999 V2000
    3.3688    5.0329    1.7266 C   0  0  0  0  0  0  0  0  0  0  0  0
    3.5062    4.8896    3.0643 C   0  0  0  0  0  0  0  0  0  0  0  0
    4.7694    5.1932    3.7398 C   0  0  0  0  0  0  0  0  0  0  0  0
    5.8925    5.3245    3.1847 O   0  0  0  0  0  0  0  0  0  0  0  0
    4.5214    5.3485    5.1525 C   0  0  0  0  0  0  0  0  0  0  0  0
    5.4886    5.4990    6.1754 C   0  0  0  0  0  0  0  0  0  0  0  0
    4.9607    5.4363    7.4508 C   0  0  0  0  0  0  0  0  0  0  0  0
    3.5610    5.2718    7.7116 C   0  0  0  0  0  0  0  0  0  0  0  0
    2.6133    5.1272    6.7125 C   0  0  0  0  0  0  0  0  0  0  0  0
    3.1380    5.1560    5.3925 C   0  0  0  0  0  0  0  0  0  0  0  0
    2.4577    4.7647    4.1233 C   0  0  0  0  0  0  0  0  0  0  0  0
    1.5310    3.7917    4.1531 C   0  0  0  0  0  0  0  0  0  0  0  0
    0.3089    3.9571    4.8965 C   0  0  0  0  0  0  0  0  0  0  0  0
   -0.6788    4.0958    5.4865 N   0  0  0  0  0  0  0  0  0  0  0  0
    1.8337    2.4640    3.6612 C   0  0  0  0  0  0  0  0  0  0  0  0
    2.0710    1.3935    3.2828 N   0  0  0  0  0  0  0  0  0  0  0  0
    3.8254    5.2422    9.1899 C   0  0  0  0  0  0  0  0  0  0  0  0
    3.7273    3.8626    9.9119 C   0  0  0  0  0  0  0  0  0  0  0  0
    4.0937    2.7551    8.9536 C   0  0  0  0  0  0  0  0  0  0  0  0
    5.3969    2.8837    8.7035 C   0  0  0  0  0  0  0  0  0  0  0  0
    5.8740    4.0782    9.5000 C   0  0  0  0  0  0  0  0  0  0  0  0
    5.0048    3.9045   10.7312 C   0  0  0  0  0  0  0  0  0  0  0  0
    5.2589    5.3930    8.9209 C   0  0  0  0  0  0  0  0  0  0  0  0
    2.1198    4.9951    0.9208 C   0  0  0  0  0  0  0  0  0  0  0  0
    1.9942    5.5455   -0.3740 C   0  0  0  0  0  0  0  0  0  0  0  0
    3.0235    6.3740   -1.0322 C   0  0  0  0  0  0  0  0  0  0  0  0
    3.1981    7.6909   -0.5820 C   0  0  0  0  0  0  0  0  0  0  0  0
    4.1154    8.5365   -1.2072 C   0  0  0  0  0  0  0  0  0  0  0  0
    4.8590    8.0822   -2.2936 C   0  0  0  0  0  0  0  0  0  0  0  0
    4.7210    6.7659   -2.7360 C   0  0  0  0  0  0  0  0  0  0  0  0
    3.8091    5.8916   -2.1112 C   0  0  0  0  0  0  0  0  0  0  0  0
    3.8130    4.4371   -2.5400 C   0  0  0  0  0  0  0  0  0  0  0  0
    4.9473    3.6752   -1.8602 C   0  0  0  0  0  0  0  0  0  0  0  0
    0.8302    5.1086   -1.0187 C   0  0  0  0  0  0  0  0  0  0  0  0
    0.3445    5.1436   -2.6493 S   0  0  0  0  0  0  0  0  0  0  0  0
   -0.8494    3.9645   -2.3822 C   0  0  0  0  0  0  0  0  0  0  0  0
   -1.3231    2.9385   -3.1591 C   0  0  0  0  0  0  0  0  0  0  0  0
   -1.0936    2.6600   -4.5189 C   0  0  0  0  0  0  0  0  0  0  0  0
   -1.3345    1.3355   -5.0063 C   0  0  0  0  0  0  0  0  0  0  0  0
   -1.0424    1.0911   -6.3060 N   0  0  0  0  0  0  0  0  0  0  0  0
   -0.4784    2.5846   -6.7496 S   0  0  0  0  0  0  0  0  0  0  0  0
   -0.5715    3.5505   -5.4047 N   0  0  0  0  0  0  0  0  0  0  0  0
   -1.8325    0.3753   -4.1182 C   0  0  0  0  0  0  0  0  0  0  0  0
   -2.1644   -0.9482   -4.2578 C   0  0  0  0  0  0  0  0  0  0  0  0
   -2.0669   -2.2068   -5.3917 S   0  0  0  0  0  0  0  0  0  0  0  0
   -2.7132   -3.3075   -4.2479 C   0  0  0  0  0  0  0  0  0  0  0  0
   -2.8641   -4.6942   -4.2286 C   0  0  0  0  0  0  0  0  0  0  0  0
   -2.3963   -5.5799   -5.3103 C   0  0  0  0  0  0  0  0  0  0  0  0
   -1.0162   -5.8449   -5.5189 C   0  0  0  0  0  0  0  0  0  0  0  0
    0.0678   -5.2742   -4.6266 C   0  0  0  0  0  0  0  0  0  0  0  0
    0.3324   -6.1759   -3.4268 C   0  0  0  0  0  0  0  0  0  0  0  0
   -0.6408   -6.7203   -6.5554 C   0  0  0  0  0  0  0  0  0  0  0  0
   -1.6050   -7.2994   -7.3835 C   0  0  0  0  0  0  0  0  0  0  0  0
   -2.9592   -7.0336   -7.1757 C   0  0  0  0  0  0  0  0  0  0  0  0
   -3.3528   -6.1855   -6.1388 C   0  0  0  0  0  0  0  0  0  0  0  0
   -3.3643   -5.1431   -2.9885 C   0  0  0  0  0  0  0  0  0  0  0  0
   -3.4785   -3.8150   -1.9117 S   0  0  0  0  0  0  0  0  0  0  0  0
   -3.0023   -2.6947   -3.0594 C   0  0  0  0  0  0  0  0  0  0  0  0
   -2.6602   -1.3589   -3.0642 C   0  0  0  0  0  0  0  0  0  0  0  0
   -2.6674   -0.3846   -2.1273 N   0  0  0  0  0  0  0  0  0  0  0  0
   -2.0852    0.6713   -2.7719 C   0  0  0  0  0  0  0  0  0  0  0  0
   -1.7033    1.9303   -2.2603 C   0  0  0  0  0  0  0  0  0  0  0  0
   -1.2790    2.2251   -0.9903 N   0  0  0  0  0  0  0  0  0  0  0  0
   -0.8432    3.5115   -1.0879 C   0  0  0  0  0  0  0  0  0  0  0  0
    0.0905    4.1999   -0.3170 C   0  0  0  0  0  0  0  0  0  0  0  0
    0.8160    3.9308    1.1556 S   0  0  0  0  0  0  0  0  0  0  0  0
   -0.6587    1.2429   -0.0837 C   0  0  0  0  0  0  0  0  0  0  0  0
    0.7371    0.8523   -0.5712 C   0  0  0  0  0  0  0  0  0  0  0  0
   -3.5168   -0.3588   -0.9330 C   0  0  0  0  0  0  0  0  0  0  0  0
   -4.9965   -0.4314   -1.3053 C   0  0  0  0  0  0  0  0  0  0  0  0
   -3.4410   -6.5625   -2.5868 C   0  0  0  0  0  0  0  0  0  0  0  0
   -4.2954   -7.0666   -1.6757 C   0  0  0  0  0  0  0  0  0  0  0  0
   -5.4801   -6.3696   -1.1082 C   0  0  0  0  0  0  0  0  0  0  0  0
   -6.0099   -5.3054   -1.5238 O   0  0  0  0  0  0  0  0  0  0  0  0
   -6.0321   -7.2237   -0.0827 C   0  0  0  0  0  0  0  0  0  0  0  0
   -5.3190   -8.3817   -0.0062 C   0  0  0  0  0  0  0  0  0  0  0  0
   -5.9045   -9.3797    1.2525 S   0  0  0  0  0  0  0  0  0  0  0  0
   -7.1194   -8.2620    1.6484 C   0  0  0  0  0  0  0  0  0  0  0  0
   -8.1204   -8.2289    2.6103 C   0  0  0  0  0  0  0  0  0  0  0  0
   -8.8553   -7.0393    2.5233 C   0  0  0  0  0  0  0  0  0  0  0  0
   -8.2482   -6.0610    1.2571 S   0  0  0  0  0  0  0  0  0  0  0  0
   -7.0604   -7.1639    0.8400 C   0  0  0  0  0  0  0  0  0  0  0  0
   -4.2219   -8.4138   -0.9936 C   0  0  0  0  0  0  0  0  0  0  0  0
   -3.3723   -9.4516   -1.1858 C   0  0  0  0  0  0  0  0  0  0  0  0
   -3.4831  -10.6563   -0.4032 C   0  0  0  0  0  0  0  0  0  0  0  0
   -3.5608  -11.6362    0.2118 N   0  0  0  0  0  0  0  0  0  0  0  0
   -2.3595   -9.4735   -2.2070 C   0  0  0  0  0  0  0  0  0  0  0  0
   -1.5485   -9.5201   -3.0312 N   0  0  0  0  0  0  0  0  0  0  0  0
    4.2647    5.2791    1.1671 H   0  0  0  0  0  0  0  0  0  0  0  0
    6.5473    5.5794    5.9846 H   0  0  0  0  0  0  0  0  0  0  0  0
    1.5829    4.9306    6.9519 H   0  0  0  0  0  0  0  0  0  0  0  0
    3.3822    6.1004    9.7475 H   0  0  0  0  0  0  0  0  0  0  0  0
    2.7936    3.6993   10.4878 H   0  0  0  0  0  0  0  0  0  0  0  0
    3.4511    1.9597    8.5911 H   0  0  0  0  0  0  0  0  0  0  0  0
    5.9973    2.2058    8.1061 H   0  0  0  0  0  0  0  0  0  0  0  0
    6.9699    4.1012    9.6880 H   0  0  0  0  0  0  0  0  0  0  0  0
    5.2048    2.9552   11.2855 H   0  0  0  0  0  0  0  0  0  0  0  0
    5.0564    4.7658   11.4350 H   0  0  0  0  0  0  0  0  0  0  0  0
    5.6998    6.3354    9.3190 H   0  0  0  0  0  0  0  0  0  0  0  0
    2.6238    8.0620    0.2535 H   0  0  0  0  0  0  0  0  0  0  0  0
    4.2480    9.5502   -0.8529 H   0  0  0  0  0  0  0  0  0  0  0  0
    5.5618    8.7460   -2.7792 H   0  0  0  0  0  0  0  0  0  0  0  0
    5.3350    6.4204   -3.5580 H   0  0  0  0  0  0  0  0  0  0  0  0
    3.9496    4.3720   -3.6435 H   0  0  0  0  0  0  0  0  0  0  0  0
    2.8620    3.9196   -2.3051 H   0  0  0  0  0  0  0  0  0  0  0  0
    5.9252    4.1758   -2.0511 H   0  0  0  0  0  0  0  0  0  0  0  0
    4.7713    3.6252   -0.7594 H   0  0  0  0  0  0  0  0  0  0  0  0
    5.0004    2.6439   -2.2657 H   0  0  0  0  0  0  0  0  0  0  0  0
   -0.1953   -4.2592   -4.2695 H   0  0  0  0  0  0  0  0  0  0  0  0
    1.0124   -5.1656   -5.2029 H   0  0  0  0  0  0  0  0  0  0  0  0
    1.1979   -5.7852   -2.8531 H   0  0  0  0  0  0  0  0  0  0  0  0
   -0.5498   -6.1966   -2.7482 H   0  0  0  0  0  0  0  0  0  0  0  0
    0.5630   -7.2111   -3.7624 H   0  0  0  0  0  0  0  0  0  0  0  0
    0.4056   -6.9505   -6.7234 H   0  0  0  0  0  0  0  0  0  0  0  0
   -1.3022   -7.9632   -8.1814 H   0  0  0  0  0  0  0  0  0  0  0  0
   -3.7027   -7.4878   -7.8168 H   0  0  0  0  0  0  0  0  0  0  0  0
   -4.4076   -5.9944   -5.9828 H   0  0  0  0  0  0  0  0  0  0  0  0
   -1.2472    0.3150   -0.0099 H   0  0  0  0  0  0  0  0  0  0  0  0
   -0.6146    1.6476    0.9473 H   0  0  0  0  0  0  0  0  0  0  0  0
    1.3771    1.7444   -0.7137 H   0  0  0  0  0  0  0  0  0  0  0  0
    0.6696    0.3085   -1.5370 H   0  0  0  0  0  0  0  0  0  0  0  0
    1.2209    0.1848    0.1724 H   0  0  0  0  0  0  0  0  0  0  0  0
   -3.2516   -1.2113   -0.2656 H   0  0  0  0  0  0  0  0  0  0  0  0
   -3.3813    0.5928   -0.3724 H   0  0  0  0  0  0  0  0  0  0  0  0
   -5.2545    0.4202   -1.9737 H   0  0  0  0  0  0  0  0  0  0  0  0
   -5.6097   -0.3871   -0.3854 H   0  0  0  0  0  0  0  0  0  0  0  0
   -5.2226   -1.3893   -1.8298 H   0  0  0  0  0  0  0  0  0  0  0  0
   -2.7038   -7.1953   -3.0382 H   0  0  0  0  0  0  0  0  0  0  0  0
   -8.2926   -9.0072    3.3463 H   0  0  0  0  0  0  0  0  0  0  0  0
   -9.6734   -6.7671    3.1769 H   0  0  0  0  0  0  0  0  0  0  0  0
  1  2  2  3
  2  3  1  0
  3  4  2  0
  3  5  1  0
  5  6  2  0
  6  7  1  0
  7  8  2  0
  8  9  1  0
  9 10  2  0
 10 11  1  0
 11 12  2  3
 12 13  1  0
 13 14  3  0
 12 15  1  0
 15 16  3  0
  8 17  1  0
 17 18  1  0
 18 19  1  0
 19 20  2  0
 20 21  1  0
 21 22  1  0
 21 23  1  0
  1 24  1  0
 24 25  2  0
 25 26  1  0
 26 27  2  0
 27 28  1  0
 28 29  2  0
 29 30  1  0
 30 31  2  0
 31 32  1  0
 32 33  1  0
 25 34  1  0
 34 35  1  0
 35 36  1  0
 36 37  1  0
 37 38  1  0
 38 39  1  0
 39 40  2  0
 40 41  1  0
 41 42  1  0
 39 43  1  0
 43 44  1  0
 44 45  1  0
 45 46  1  0
 46 47  1  0
 47 48  1  0
 48 49  2  0
 49 50  1  0
 50 51  1  0
 49 52  1  0
 52 53  2  0
 53 54  1  0
 54 55  2  0
 47 56  2  0
 56 57  1  0
 57 58  1  0
 58 59  1  0
 59 60  1  0
 60 61  1  0
 61 62  1  0
 62 63  1  0
 63 64  1  0
 64 65  1  0
 65 66  1  0
 63 67  1  0
 67 68  1  0
 60 69  1  0
 69 70  1  0
 56 71  1  0
 71 72  2  3
 72 73  1  0
 73 74  2  0
 73 75  1  0
 75 76  2  0
 76 77  1  0
 77 78  1  0
 78 79  1  0
 79 80  2  0
 80 81  1  0
 81 82  1  0
 76 83  1  0
 83 84  2  3
 84 85  1  0
 85 86  3  0
 84 87  1  0
 87 88  3  0
 11  2  1  0
 23 17  1  0
 66 24  1  0
 83 72  1  0
 10  5  1  0
 22 18  1  0
 31 26  1  0
 65 34  2  0
 82 75  1  0
 23  7  1  0
 64 36  2  0
 82 78  2  0
 62 37  2  0
 42 38  2  0
 61 43  2  0
 59 44  2  0
 58 46  2  0
 55 48  1  0
  1 89  1  0
  6 90  1  0
  9 91  1  0
 17 92  1  0
 18 93  1  0
 19 94  1  0
 20 95  1  0
 21 96  1  0
 22 97  1  0
 22 98  1  0
 23 99  1  0
 27100  1  0
 28101  1  0
 29102  1  0
 30103  1  0
 32104  1  0
 32105  1  0
 33106  1  0
 33107  1  0
 33108  1  0
 50109  1  0
 50110  1  0
 51111  1  0
 51112  1  0
 51113  1  0
 52114  1  0
 53115  1  0
 54116  1  0
 55117  1  0
 67118  1  0
 67119  1  0
 68120  1  0
 68121  1  0
 68122  1  0
 69123  1  0
 69124  1  0
 70125  1  0
 70126  1  0
 70127  1  0
 71128  1  0
 79129  1  0
 80130  1  0
M  END

