
     RDKit          3D

105118  0  0  0  0  0  0  0  0999 V2000
    0.5068    3.3000    6.2807 C   0  0  0  0  0  0  0  0  0  0  0  0
   -0.8357    3.2333    6.2420 C   0  0  0  0  0  0  0  0  0  0  0  0
   -1.6756    3.1851    5.0797 C   0  0  0  0  0  0  0  0  0  0  0  0
   -1.3196    3.3350    3.8578 O   0  0  0  0  0  0  0  0  0  0  0  0
   -3.0434    2.9367    5.4565 C   0  0  0  0  0  0  0  0  0  0  0  0
   -4.1451    2.7345    4.6474 C   0  0  0  0  0  0  0  0  0  0  0  0
   -5.3677    2.3902    5.1992 C   0  0  0  0  0  0  0  0  0  0  0  0
   -5.4821    2.2546    6.5405 C   0  0  0  0  0  0  0  0  0  0  0  0
   -4.3390    2.4730    7.3294 C   0  0  0  0  0  0  0  0  0  0  0  0
   -3.1236    2.8177    6.8286 C   0  0  0  0  0  0  0  0  0  0  0  0
   -1.7011    3.0027    7.4065 C   0  0  0  0  0  0  0  0  0  0  0  0
   -1.4989    2.5681    8.5896 C   0  0  0  0  0  0  0  0  0  0  0  0
   -0.7269    2.0857    9.5278 C   0  0  0  0  0  0  0  0  0  0  0  0
    0.0187    1.6227   10.4104 N   0  0  0  0  0  0  0  0  0  0  0  0
   -2.8851    2.9708    9.4664 C   0  0  0  0  0  0  0  0  0  0  0  0
   -3.7710    3.2415   10.0464 N   0  0  0  0  0  0  0  0  0  0  0  0
   -6.9273    1.9379    6.5121 C   0  0  0  0  0  0  0  0  0  0  0  0
   -7.7199    3.1754    6.9085 C   0  0  0  0  0  0  0  0  0  0  0  0
   -6.9064    4.3429    6.5004 C   0  0  0  0  0  0  0  0  0  0  0  0
   -6.9706    4.4161    5.1707 C   0  0  0  0  0  0  0  0  0  0  0  0
   -7.7011    3.2146    4.6725 C   0  0  0  0  0  0  0  0  0  0  0  0
   -8.7553    3.1440    5.7828 C   0  0  0  0  0  0  0  0  0  0  0  0
   -6.8327    2.0515    4.9937 C   0  0  0  0  0  0  0  0  0  0  0  0
    1.1027    3.2918    4.8959 C   0  0  0  0  0  0  0  0  0  0  0  0
    0.7190    4.3373    3.4366 Se  0  0  0  0  0  2  0  0  0  0  0  0
    1.5317    3.0367    2.1941 C   0  0  0  0  0  0  0  0  0  0  0  0
    1.6567    2.7114    0.8900 C   0  0  0  0  0  0  0  0  0  0  0  0
    1.0606    3.2816   -0.2649 C   0  0  0  0  0  0  0  0  0  0  0  0
    1.0405    2.5174   -1.3704 C   0  0  0  0  0  0  0  0  0  0  0  0
    0.4700    3.0876   -2.4610 N   0  0  0  0  0  0  0  0  0  0  0  0
   -0.0137    4.5852   -1.9408 S   0  0  0  0  0  0  0  0  0  0  0  0
    0.5191    4.5013   -0.3484 N   0  0  0  0  0  0  0  0  0  0  0  0
    1.6226    1.2409   -1.3588 C   0  0  0  0  0  0  0  0  0  0  0  0
    1.7558    0.2996   -2.3485 C   0  0  0  0  0  0  0  0  0  0  0  0
    1.2720   -0.1298   -3.9149 S   0  0  0  0  0  0  0  0  0  0  0  0
    1.9937   -1.7359   -3.9906 C   0  0  0  0  0  0  0  0  0  0  0  0
    2.1512   -2.7604   -4.8990 C   0  0  0  0  0  0  0  0  0  0  0  0
    1.2314   -2.7432   -6.1459 C   0  0  0  0  0  0  0  0  0  0  0  0
   -0.1941   -2.9623   -5.5494 C   0  0  0  0  0  0  0  0  0  0  0  0
    2.9232   -3.8069   -4.5377 C   0  0  0  0  0  0  0  0  0  0  0  0
    3.3912   -3.3742   -2.9491 S   0  0  0  0  0  0  0  0  0  0  0  0
    2.5642   -1.8242   -2.8130 C   0  0  0  0  0  0  0  0  0  0  0  0
    2.4609   -0.7826   -1.9100 C   0  0  0  0  0  0  0  0  0  0  0  0
    2.7689   -0.5329   -0.5709 N   0  0  0  0  0  0  0  0  0  0  0  0
    2.2501    0.6775   -0.2645 C   0  0  0  0  0  0  0  0  0  0  0  0
    2.2274    1.4454    0.9035 C   0  0  0  0  0  0  0  0  0  0  0  0
    2.4084    1.0645    2.1789 N   0  0  0  0  0  0  0  0  0  0  0  0
    1.9444    2.0962    3.0393 C   0  0  0  0  0  0  0  0  0  0  0  0
    1.7433    2.2278    4.3538 C   0  0  0  0  0  0  0  0  0  0  0  0
    2.8006   -0.1999    2.7406 C   0  0  0  0  0  0  0  0  0  0  0  0
    1.4954   -1.0355    2.9088 C   0  0  0  0  0  0  0  0  0  0  0  0
    3.6821   -1.3778    0.1381 C   0  0  0  0  0  0  0  0  0  0  0  0
    3.2317   -2.6564    0.6788 C   0  0  0  0  0  0  0  0  0  0  0  0
    3.3944   -4.9551   -5.3372 C   0  0  0  0  0  0  0  0  0  0  0  0
    3.8754   -4.7507   -6.6137 C   0  0  0  0  0  0  0  0  0  0  0  0
    3.9677   -3.4606   -7.2476 C   0  0  0  0  0  0  0  0  0  0  0  0
    3.9363   -2.3311   -6.6739 O   0  0  0  0  0  0  0  0  0  0  0  0
    4.1185   -3.6449   -8.6792 C   0  0  0  0  0  0  0  0  0  0  0  0
    4.2044   -2.7840   -9.7597 C   0  0  0  0  0  0  0  0  0  0  0  0
    4.3095   -3.2400  -11.0924 C   0  0  0  0  0  0  0  0  0  0  0  0
    4.3808   -2.3366  -12.1418 O   0  0  0  0  0  0  0  0  0  0  0  0
    4.3439   -0.9438  -11.9094 C   0  0  0  0  0  0  0  0  0  0  0  0
    4.3379   -4.6123  -11.2862 C   0  0  0  0  0  0  0  0  0  0  0  0
    4.2477   -5.4994  -10.1703 C   0  0  0  0  0  0  0  0  0  0  0  0
    4.1470   -4.9956   -8.9442 C   0  0  0  0  0  0  0  0  0  0  0  0
    3.9968   -5.7539   -7.5274 C   0  0  0  0  0  0  0  0  0  0  0  0
    4.3435   -6.9882   -7.6603 C   0  0  0  0  0  0  0  0  0  0  0  0
    4.4854   -8.0467   -8.5545 C   0  0  0  0  0  0  0  0  0  0  0  0
    4.6160   -8.8902   -9.2695 N   0  0  0  0  0  0  0  0  0  0  0  0
    4.6625   -7.6261   -6.2419 C   0  0  0  0  0  0  0  0  0  0  0  0
    4.8851   -8.1065   -5.2004 N   0  0  0  0  0  0  0  0  0  0  0  0
    1.0843    3.3439    7.1338 H   0  0  0  0  0  0  0  0  0  0  0  0
   -4.1067    2.8291    3.5642 H   0  0  0  0  0  0  0  0  0  0  0  0
   -4.4973    2.2676    8.3592 H   0  0  0  0  0  0  0  0  0  0  0  0
   -7.2580    0.9761    6.9250 H   0  0  0  0  0  0  0  0  0  0  0  0
   -8.0701    3.1873    7.9045 H   0  0  0  0  0  0  0  0  0  0  0  0
   -6.3782    4.9607    7.2170 H   0  0  0  0  0  0  0  0  0  0  0  0
   -6.5547    5.2115    4.5821 H   0  0  0  0  0  0  0  0  0  0  0  0
   -8.1007    3.2867    3.6802 H   0  0  0  0  0  0  0  0  0  0  0  0
   -9.4374    4.0292    5.8179 H   0  0  0  0  0  0  0  0  0  0  0  0
   -9.3085    2.1876    5.7887 H   0  0  0  0  0  0  0  0  0  0  0  0
   -6.9665    1.1228    4.4567 H   0  0  0  0  0  0  0  0  0  0  0  0
    1.4045   -3.6206   -6.7532 H   0  0  0  0  0  0  0  0  0  0  0  0
    1.2693   -1.7702   -6.5509 H   0  0  0  0  0  0  0  0  0  0  0  0
   -0.2944   -2.3125   -4.6408 H   0  0  0  0  0  0  0  0  0  0  0  0
   -0.9676   -2.7767   -6.3122 H   0  0  0  0  0  0  0  0  0  0  0  0
   -0.1690   -4.0058   -5.1797 H   0  0  0  0  0  0  0  0  0  0  0  0
    2.1070    1.4653    5.1184 H   0  0  0  0  0  0  0  0  0  0  0  0
    2.9830   -0.0269    3.9003 H   0  0  0  0  0  0  0  0  0  0  0  0
    3.6784   -0.6579    2.5283 H   0  0  0  0  0  0  0  0  0  0  0  0
    1.7666   -2.0110    3.2330 H   0  0  0  0  0  0  0  0  0  0  0  0
    0.7815   -0.4788    3.5441 H   0  0  0  0  0  0  0  0  0  0  0  0
    1.0487   -1.0330    1.9050 H   0  0  0  0  0  0  0  0  0  0  0  0
    4.4344   -0.8310    0.7680 H   0  0  0  0  0  0  0  0  0  0  0  0
    4.4236   -1.7521   -0.7428 H   0  0  0  0  0  0  0  0  0  0  0  0
    3.7468   -2.9242    1.6445 H   0  0  0  0  0  0  0  0  0  0  0  0
    2.1281   -2.7528    0.7579 H   0  0  0  0  0  0  0  0  0  0  0  0
    3.5120   -3.5633    0.0187 H   0  0  0  0  0  0  0  0  0  0  0  0
    3.3698   -5.9273   -4.9488 H   0  0  0  0  0  0  0  0  0  0  0  0
    4.1820   -1.7530   -9.6025 H   0  0  0  0  0  0  0  0  0  0  0  0
    4.2597   -0.3468  -12.8638 H   0  0  0  0  0  0  0  0  0  0  0  0
    3.4602   -0.6509  -11.3038 H   0  0  0  0  0  0  0  0  0  0  0  0
    5.2497   -0.5548  -11.4067 H   0  0  0  0  0  0  0  0  0  0  0  0
    4.4117   -4.9826  -12.2745 H   0  0  0  0  0  0  0  0  0  0  0  0
    4.2696   -6.5248  -10.4357 H   0  0  0  0  0  0  0  0  0  0  0  0
  1  2  2  3
  2  3  1  0
  3  4  2  0
  3  5  1  0
  5  6  2  0
  6  7  1  0
  7  8  2  0
  8  9  1  0
  9 10  2  0
 10 11  1  0
 11 12  2  3
 12 13  1  0
 13 14  3  0
 12 15  1  0
 15 16  3  0
  8 17  1  0
 17 18  1  0
 18 19  1  0
 19 20  2  0
 20 21  1  0
 21 22  1  0
 21 23  1  0
  1 24  1  0
 24 25  1  0
 25 26  1  0
 26 27  1  0
 27 28  1  0
 28 29  1  0
 29 30  2  0
 30 31  1  0
 31 32  1  0
 29 33  1  0
 33 34  1  0
 34 35  1  0
 35 36  1  0
 36 37  1  0
 37 38  1  0
 38 39  1  0
 37 40  2  0
 40 41  1  0
 41 42  1  0
 42 43  1  0
 43 44  1  0
 44 45  1  0
 45 46  1  0
 46 47  1  0
 47 48  1  0
 48 49  1  0
 47 50  1  0
 50 51  1  0
 44 52  1  0
 52 53  1  0
 40 54  1  0
 54 55  2  3
 55 56  1  0
 56 57  2  0
 56 58  1  0
 58 59  2  0
 59 60  1  0
 60 61  1  0
 61 62  1  0
 60 63  2  0
 63 64  1  0
 64 65  2  0
 65 66  1  0
 66 67  2  3
 67 68  1  0
 68 69  3  0
 67 70  1  0
 70 71  3  0
 11  2  1  0
 23 17  1  0
 49 24  2  0
 66 55  1  0
 10  5  1  0
 22 18  1  0
 48 26  2  0
 65 58  1  0
 23  7  1  0
 46 27  2  0
 32 28  2  0
 45 33  2  0
 43 34  2  0
 42 36  2  0
  1 72  1  0
  6 73  1  0
  9 74  1  0
 17 75  1  0
 18 76  1  0
 19 77  1  0
 20 78  1  0
 21 79  1  0
 22 80  1  0
 22 81  1  0
 23 82  1  0
 38 83  1  0
 38 84  1  0
 39 85  1  0
 39 86  1  0
 39 87  1  0
 49 88  1  0
 50 89  1  0
 50 90  1  0
 51 91  1  0
 51 92  1  0
 51 93  1  0
 52 94  1  0
 52 95  1  0
 53 96  1  0
 53 97  1  0
 53 98  1  0
 54 99  1  0
 59100  1  0
 62101  1  0
 62102  1  0
 62103  1  0
 63104  1  0
 64105  1  0
M  END

