
     RDKit          3D

125139  0  0  0  0  0  0  0  0999 V2000
   -5.4551    1.3492   -4.0815 C   0  0  0  0  0  0  0  0  0  0  0  0
   -5.9344    2.2877   -3.2339 C   0  0  0  0  0  0  0  0  0  0  0  0
   -5.4135    2.5210   -1.8775 C   0  0  0  0  0  0  0  0  0  0  0  0
   -4.5124    1.8562   -1.2966 O   0  0  0  0  0  0  0  0  0  0  0  0
   -6.1397    3.6078   -1.2721 C   0  0  0  0  0  0  0  0  0  0  0  0
   -5.9478    4.1265    0.0296 C   0  0  0  0  0  0  0  0  0  0  0  0
   -6.7866    5.1764    0.3437 C   0  0  0  0  0  0  0  0  0  0  0  0
   -7.7579    5.6962   -0.5683 C   0  0  0  0  0  0  0  0  0  0  0  0
   -7.9495    5.1940   -1.8446 C   0  0  0  0  0  0  0  0  0  0  0  0
   -7.1136    4.0887   -2.1859 C   0  0  0  0  0  0  0  0  0  0  0  0
   -7.0578    3.2718   -3.4426 C   0  0  0  0  0  0  0  0  0  0  0  0
   -7.8851    3.3852   -4.5222 C   0  0  0  0  0  0  0  0  0  0  0  0
   -8.9799    4.3176   -4.5787 C   0  0  0  0  0  0  0  0  0  0  0  0
   -9.8780    5.0397   -4.6498 N   0  0  0  0  0  0  0  0  0  0  0  0
   -7.8048    2.5386   -5.6814 C   0  0  0  0  0  0  0  0  0  0  0  0
   -7.7736    1.8609   -6.6182 N   0  0  0  0  0  0  0  0  0  0  0  0
   -8.2099    6.6940    0.4546 C   0  0  0  0  0  0  0  0  0  0  0  0
   -9.5697    6.3994    1.1544 C   0  0  0  0  0  0  0  0  0  0  0  0
   -9.6059    7.2841    2.3772 C   0  0  0  0  0  0  0  0  0  0  0  0
   -8.7023    6.7910    3.2326 C   0  0  0  0  0  0  0  0  0  0  0  0
   -8.0844    5.5915    2.5558 C   0  0  0  0  0  0  0  0  0  0  0  0
   -9.3192    5.0677    1.8412 C   0  0  0  0  0  0  0  0  0  0  0  0
   -7.2173    6.1567    1.3916 C   0  0  0  0  0  0  0  0  0  0  0  0
   -4.2614    0.5454   -3.7780 C   0  0  0  0  0  0  0  0  0  0  0  0
   -4.3934   -0.7822   -3.3172 C   0  0  0  0  0  0  0  0  0  0  0  0
   -3.2657   -1.5163   -2.9123 C   0  0  0  0  0  0  0  0  0  0  0  0
   -2.0084   -0.9097   -3.0099 C   0  0  0  0  0  0  0  0  0  0  0  0
   -0.7328   -1.2745   -2.5916 C   0  0  0  0  0  0  0  0  0  0  0  0
    0.0585   -0.1915   -2.7696 C   0  0  0  0  0  0  0  0  0  0  0  0
   -0.6054    0.8550   -3.3199 N   0  0  0  0  0  0  0  0  0  0  0  0
   -1.8741    0.3959   -3.4707 C   0  0  0  0  0  0  0  0  0  0  0  0
   -2.9886    1.1389   -3.8719 C   0  0  0  0  0  0  0  0  0  0  0  0
   -0.1317    2.2141   -3.5964 C   0  0  0  0  0  0  0  0  0  0  0  0
   -0.5263    3.1702   -2.4709 C   0  0  0  0  0  0  0  0  0  0  0  0
    1.0787   -0.2913   -1.8467 C   0  0  0  0  0  0  0  0  0  0  0  0
    1.9432    0.6615   -1.2960 C   0  0  0  0  0  0  0  0  0  0  0  0
    2.6356    0.4030   -0.1502 C   0  0  0  0  0  0  0  0  0  0  0  0
    3.3158    1.5018    0.1992 N   0  0  0  0  0  0  0  0  0  0  0  0
    3.0270    2.3950   -0.7416 N   0  0  0  0  0  0  0  0  0  0  0  0
    3.5379    3.7611   -0.7387 C   0  0  0  0  0  0  0  0  0  0  0  0
    4.3921    4.0096   -1.9756 C   0  0  0  0  0  0  0  0  0  0  0  0
    2.1939    1.9257   -1.6640 N   0  0  0  0  0  0  0  0  0  0  0  0
    2.5421   -0.8399    0.4760 C   0  0  0  0  0  0  0  0  0  0  0  0
    1.7276   -1.8587   -0.0706 C   0  0  0  0  0  0  0  0  0  0  0  0
    0.9004   -1.5420   -1.2069 C   0  0  0  0  0  0  0  0  0  0  0  0
   -0.2685   -2.1265   -1.6373 N   0  0  0  0  0  0  0  0  0  0  0  0
   -1.0978   -3.1043   -0.9269 C   0  0  0  0  0  0  0  0  0  0  0  0
   -1.3278   -4.3573   -1.7770 C   0  0  0  0  0  0  0  0  0  0  0  0
    2.0200   -3.0715    0.5194 N   0  0  0  0  0  0  0  0  0  0  0  0
    1.8685   -4.4096   -0.0631 C   0  0  0  0  0  0  0  0  0  0  0  0
    0.9633   -5.3086    0.7908 C   0  0  0  0  0  0  0  0  0  0  0  0
    2.9255   -2.7434    1.4801 C   0  0  0  0  0  0  0  0  0  0  0  0
    3.2433   -1.4394    1.4928 C   0  0  0  0  0  0  0  0  0  0  0  0
    4.3677   -1.1692    2.1961 N   0  0  0  0  0  0  0  0  0  0  0  0
    5.0688    0.1115    2.3435 C   0  0  0  0  0  0  0  0  0  0  0  0
    4.2817    1.0480    3.2569 C   0  0  0  0  0  0  0  0  0  0  0  0
    4.7451   -2.3912    2.6678 C   0  0  0  0  0  0  0  0  0  0  0  0
    3.9036   -3.4033    2.2083 C   0  0  0  0  0  0  0  0  0  0  0  0
    4.1679   -4.7469    2.4741 C   0  0  0  0  0  0  0  0  0  0  0  0
    5.2820   -5.0583    3.2724 C   0  0  0  0  0  0  0  0  0  0  0  0
    6.1387   -4.0375    3.7522 C   0  0  0  0  0  0  0  0  0  0  0  0
    5.8597   -2.6892    3.4582 C   0  0  0  0  0  0  0  0  0  0  0  0
    7.2753   -4.3473    4.6401 C   0  0  0  0  0  0  0  0  0  0  0  0
    8.3008   -5.1574    4.3117 C   0  0  0  0  0  0  0  0  0  0  0  0
    8.4215   -5.9435    3.0774 C   0  0  0  0  0  0  0  0  0  0  0  0
    7.7875   -5.7605    2.0040 O   0  0  0  0  0  0  0  0  0  0  0  0
    9.4435   -6.9466    3.2774 C   0  0  0  0  0  0  0  0  0  0  0  0
    9.8009   -7.9944    2.4293 C   0  0  0  0  0  0  0  0  0  0  0  0
   10.7672   -8.9087    2.8690 C   0  0  0  0  0  0  0  0  0  0  0  0
   11.1315   -9.9404    2.0684 F   0  0  0  0  0  0  0  0  0  0  0  0
   11.3386   -8.7749    4.1473 C   0  0  0  0  0  0  0  0  0  0  0  0
   12.2460   -9.6865    4.5801 F   0  0  0  0  0  0  0  0  0  0  0  0
   10.9573   -7.7160    4.9901 C   0  0  0  0  0  0  0  0  0  0  0  0
   10.0178   -6.7805    4.5258 C   0  0  0  0  0  0  0  0  0  0  0  0
    9.4354   -5.5798    5.1900 C   0  0  0  0  0  0  0  0  0  0  0  0
    9.9864   -4.8757    6.2142 C   0  0  0  0  0  0  0  0  0  0  0  0
    9.5088   -3.5763    6.6076 C   0  0  0  0  0  0  0  0  0  0  0  0
    9.1369   -2.5271    6.9272 N   0  0  0  0  0  0  0  0  0  0  0  0
   11.1886   -5.2994    6.8846 C   0  0  0  0  0  0  0  0  0  0  0  0
   12.1552   -5.6261    7.4328 N   0  0  0  0  0  0  0  0  0  0  0  0
   -5.8896    1.1666   -5.0423 H   0  0  0  0  0  0  0  0  0  0  0  0
   -5.2172    3.7323    0.7245 H   0  0  0  0  0  0  0  0  0  0  0  0
   -8.6862    5.6423   -2.4845 H   0  0  0  0  0  0  0  0  0  0  0  0
   -8.0393    7.7517    0.1536 H   0  0  0  0  0  0  0  0  0  0  0  0
  -10.4668    6.4490    0.5037 H   0  0  0  0  0  0  0  0  0  0  0  0
  -10.2914    8.0993    2.5796 H   0  0  0  0  0  0  0  0  0  0  0  0
   -8.5323    7.1361    4.2470 H   0  0  0  0  0  0  0  0  0  0  0  0
   -7.5733    4.8743    3.2335 H   0  0  0  0  0  0  0  0  0  0  0  0
  -10.1383    4.7666    2.5369 H   0  0  0  0  0  0  0  0  0  0  0  0
   -9.1217    4.2221    1.1450 H   0  0  0  0  0  0  0  0  0  0  0  0
   -6.4187    6.8745    1.6867 H   0  0  0  0  0  0  0  0  0  0  0  0
   -5.3770   -1.2286   -3.2312 H   0  0  0  0  0  0  0  0  0  0  0  0
   -3.4019   -2.5122   -2.5235 H   0  0  0  0  0  0  0  0  0  0  0  0
   -2.8896    2.1657   -4.1976 H   0  0  0  0  0  0  0  0  0  0  0  0
   -0.5739    2.5762   -4.5515 H   0  0  0  0  0  0  0  0  0  0  0  0
    0.9645    2.2112   -3.7574 H   0  0  0  0  0  0  0  0  0  0  0  0
   -1.6205    3.3570   -2.4906 H   0  0  0  0  0  0  0  0  0  0  0  0
   -0.2648    2.7444   -1.4805 H   0  0  0  0  0  0  0  0  0  0  0  0
    0.0044    4.1363   -2.6009 H   0  0  0  0  0  0  0  0  0  0  0  0
    2.6845    4.4720   -0.7246 H   0  0  0  0  0  0  0  0  0  0  0  0
    4.1529    3.9341    0.1717 H   0  0  0  0  0  0  0  0  0  0  0  0
    5.2259    3.2756   -2.0191 H   0  0  0  0  0  0  0  0  0  0  0  0
    4.8171    5.0354   -1.9351 H   0  0  0  0  0  0  0  0  0  0  0  0
    3.7712    3.9130   -2.8929 H   0  0  0  0  0  0  0  0  0  0  0  0
   -0.6413   -3.3619    0.0344 H   0  0  0  0  0  0  0  0  0  0  0  0
   -2.0723   -2.6459   -0.6578 H   0  0  0  0  0  0  0  0  0  0  0  0
   -0.3723   -4.8064   -2.1081 H   0  0  0  0  0  0  0  0  0  0  0  0
   -1.9057   -4.1234   -2.6937 H   0  0  0  0  0  0  0  0  0  0  0  0
   -1.8897   -5.1108   -1.1850 H   0  0  0  0  0  0  0  0  0  0  0  0
    1.4779   -4.3230   -1.0901 H   0  0  0  0  0  0  0  0  0  0  0  0
    2.8663   -4.8862   -0.1760 H   0  0  0  0  0  0  0  0  0  0  0  0
    1.5555   -5.9933    1.4300 H   0  0  0  0  0  0  0  0  0  0  0  0
    0.3095   -4.7143    1.4669 H   0  0  0  0  0  0  0  0  0  0  0  0
    0.3299   -5.9460    0.1370 H   0  0  0  0  0  0  0  0  0  0  0  0
    6.0777   -0.0339    2.7757 H   0  0  0  0  0  0  0  0  0  0  0  0
    5.2395    0.5661    1.3515 H   0  0  0  0  0  0  0  0  0  0  0  0
    3.2415    1.1777    2.8871 H   0  0  0  0  0  0  0  0  0  0  0  0
    4.2467    0.6305    4.2859 H   0  0  0  0  0  0  0  0  0  0  0  0
    4.7795    2.0430    3.2867 H   0  0  0  0  0  0  0  0  0  0  0  0
    3.5503   -5.5375    2.0962 H   0  0  0  0  0  0  0  0  0  0  0  0
    5.4784   -6.0937    3.5213 H   0  0  0  0  0  0  0  0  0  0  0  0
    6.5061   -1.9115    3.8400 H   0  0  0  0  0  0  0  0  0  0  0  0
    7.2429   -3.8751    5.6072 H   0  0  0  0  0  0  0  0  0  0  0  0
    9.3330   -8.1113    1.4605 H   0  0  0  0  0  0  0  0  0  0  0  0
   11.3731   -7.6705    5.9822 H   0  0  0  0  0  0  0  0  0  0  0  0
  1  2  2  3
  2  3  1  0
  3  4  2  0
  3  5  1  0
  5  6  2  0
  6  7  1  0
  7  8  2  0
  8  9  1  0
  9 10  2  0
 10 11  1  0
 11 12  2  3
 12 13  1  0
 13 14  3  0
 12 15  1  0
 15 16  3  0
  8 17  1  0
 17 18  1  0
 18 19  1  0
 19 20  2  0
 20 21  1  0
 21 22  1  0
 21 23  1  0
  1 24  1  0
 24 25  2  0
 25 26  1  0
 26 27  2  0
 27 28  1  0
 28 29  2  0
 29 30  1  0
 30 31  1  0
 31 32  2  0
 30 33  1  0
 33 34  1  0
 29 35  1  0
 35 36  1  0
 36 37  1  0
 37 38  2  0
 38 39  1  0
 39 40  1  0
 40 41  1  0
 39 42  1  0
 37 43  1  0
 43 44  2  0
 44 45  1  0
 45 46  1  0
 46 47  1  0
 47 48  1  0
 44 49  1  0
 49 50  1  0
 50 51  1  0
 49 52  1  0
 52 53  2  0
 53 54  1  0
 54 55  1  0
 55 56  1  0
 54 57  1  0
 57 58  2  0
 58 59  1  0
 59 60  2  0
 60 61  1  0
 61 62  2  0
 61 63  1  0
 63 64  2  3
 64 65  1  0
 65 66  2  0
 65 67  1  0
 67 68  2  0
 68 69  1  0
 69 70  1  0
 69 71  2  0
 71 72  1  0
 71 73  1  0
 73 74  2  0
 74 75  1  0
 75 76  2  3
 76 77  1  0
 77 78  3  0
 76 79  1  0
 79 80  3  0
 11  2  1  0
 23 17  1  0
 32 24  1  0
 45 35  2  0
 58 52  1  0
 75 64  1  0
 10  5  1  0
 22 18  1  0
 31 27  1  0
 42 36  2  0
 53 43  1  0
 62 57  1  0
 74 67  1  0
 23  7  1  0
 46 28  1  0
  1 81  1  0
  6 82  1  0
  9 83  1  0
 17 84  1  0
 18 85  1  0
 19 86  1  0
 20 87  1  0
 21 88  1  0
 22 89  1  0
 22 90  1  0
 23 91  1  0
 25 92  1  0
 26 93  1  0
 32 94  1  0
 33 95  1  0
 33 96  1  0
 34 97  1  0
 34 98  1  0
 34 99  1  0
 40100  1  0
 40101  1  0
 41102  1  0
 41103  1  0
 41104  1  0
 47105  1  0
 47106  1  0
 48107  1  0
 48108  1  0
 48109  1  0
 50110  1  0
 50111  1  0
 51112  1  0
 51113  1  0
 51114  1  0
 55115  1  0
 55116  1  0
 56117  1  0
 56118  1  0
 56119  1  0
 59120  1  0
 60121  1  0
 62122  1  0
 63123  1  0
 68124  1  0
 73125  1  0
M  END

