
     RDKit          3D

102115  0  0  0  0  0  0  0  0999 V2000
    3.4188   -5.5302    3.6776 C   0  0  0  0  0  0  0  0  0  0  0  0
    4.0050   -5.7092    2.5005 C   0  0  0  0  0  0  0  0  0  0  0  0
    3.9490   -4.8778    1.3353 C   0  0  0  0  0  0  0  0  0  0  0  0
    3.2667   -3.8204    1.1416 O   0  0  0  0  0  0  0  0  0  0  0  0
    4.7955   -5.3709    0.2720 C   0  0  0  0  0  0  0  0  0  0  0  0
    5.0657   -4.8481   -0.9681 C   0  0  0  0  0  0  0  0  0  0  0  0
    5.9696   -5.4427   -1.8006 C   0  0  0  0  0  0  0  0  0  0  0  0
    6.5989   -6.5809   -1.3650 C   0  0  0  0  0  0  0  0  0  0  0  0
    6.3162   -7.1195   -0.1076 C   0  0  0  0  0  0  0  0  0  0  0  0
    5.4167   -6.5486    0.7286 C   0  0  0  0  0  0  0  0  0  0  0  0
    4.9406   -6.8381    2.1291 C   0  0  0  0  0  0  0  0  0  0  0  0
    4.9991   -7.9168    2.7521 C   0  0  0  0  0  0  0  0  0  0  0  0
    4.5696   -8.7234    3.8087 C   0  0  0  0  0  0  0  0  0  0  0  0
    4.2618   -9.3305    4.6149 N   0  0  0  0  0  0  0  0  0  0  0  0
    5.7305   -8.9703    1.7752 C   0  0  0  0  0  0  0  0  0  0  0  0
    6.2659   -9.7114    1.0639 N   0  0  0  0  0  0  0  0  0  0  0  0
    7.4094   -6.7533   -2.5690 C   0  0  0  0  0  0  0  0  0  0  0  0
    6.8707   -7.8928   -3.4256 C   0  0  0  0  0  0  0  0  0  0  0  0
    5.4304   -7.9814   -3.2134 C   0  0  0  0  0  0  0  0  0  0  0  0
    4.8243   -6.9430   -3.7714 C   0  0  0  0  0  0  0  0  0  0  0  0
    5.9319   -6.0244   -4.2644 C   0  0  0  0  0  0  0  0  0  0  0  0
    6.8829   -7.1357   -4.7624 C   0  0  0  0  0  0  0  0  0  0  0  0
    6.6828   -5.5107   -3.0971 C   0  0  0  0  0  0  0  0  0  0  0  0
    2.5776   -4.3000    3.7298 C   0  0  0  0  0  0  0  0  0  0  0  0
    0.7377   -4.4850    4.2254 Se  0  0  0  0  0  2  0  0  0  0  0  0
    0.3833   -2.6185    3.7317 C   0  0  0  0  0  0  0  0  0  0  0  0
   -0.5154   -1.7246    3.4871 C   0  0  0  0  0  0  0  0  0  0  0  0
   -2.3235   -1.8941    3.7192 C   0  0  0  0  0  0  0  0  0  0  0  0
   -2.2240   -0.9758    3.2055 C   0  0  0  0  0  0  0  0  0  0  0  0
   -3.8982   -1.0936    3.4293 N   0  0  0  0  0  0  0  0  0  0  0  0
   -3.9986   -2.6389    4.2816 S   0  0  0  0  0  0  0  0  0  0  0  0
   -2.0688   -2.9956    4.3122 N   0  0  0  0  0  0  0  0  0  0  0  0
   -2.0738    0.2143    2.5385 C   0  0  0  0  0  0  0  0  0  0  0  0
   -2.6777    1.1853    1.8828 C   0  0  0  0  0  0  0  0  0  0  0  0
   -4.2006    1.8394    1.5013 S   0  0  0  0  0  0  0  0  0  0  0  0
   -3.5966    3.1790    0.5248 C   0  0  0  0  0  0  0  0  0  0  0  0
   -4.1957    4.1886   -0.1069 C   0  0  0  0  0  0  0  0  0  0  0  0
   -5.7058    4.3232   -0.1763 C   0  0  0  0  0  0  0  0  0  0  0  0
   -6.1998    4.8907    1.1190 C   0  0  0  0  0  0  0  0  0  0  0  0
   -3.3542    5.1196   -0.7596 C   0  0  0  0  0  0  0  0  0  0  0  0
   -1.8532    4.4549   -0.3956 S   0  0  0  0  0  0  0  0  0  0  0  0
   -2.3619    3.0105    0.5687 C   0  0  0  0  0  0  0  0  0  0  0  0
   -1.7310    2.0062    1.2518 C   0  0  0  0  0  0  0  0  0  0  0  0
   -0.5273    1.4232    1.5902 N   0  0  0  0  0  0  0  0  0  0  0  0
   -0.6599    0.4025    2.3432 C   0  0  0  0  0  0  0  0  0  0  0  0
    0.0179   -0.6960    2.9117 C   0  0  0  0  0  0  0  0  0  0  0  0
    1.3809   -0.9060    2.8005 N   0  0  0  0  0  0  0  0  0  0  0  0
    1.6219   -2.2025    3.3216 C   0  0  0  0  0  0  0  0  0  0  0  0
    2.6338   -3.0479    3.3552 C   0  0  0  0  0  0  0  0  0  0  0  0
    2.3859    0.0753    2.6077 C   0  0  0  0  0  0  0  0  0  0  0  0
    3.4141    0.0728    3.7765 C   0  0  0  0  0  0  0  0  0  0  0  0
    0.6822    1.7532    0.8121 C   0  0  0  0  0  0  0  0  0  0  0  0
    0.9236    0.6814   -0.2873 C   0  0  0  0  0  0  0  0  0  0  0  0
   -3.9872    6.1941   -1.3538 C   0  0  0  0  0  0  0  0  0  0  0  0
   -4.5040    7.1851   -1.9731 C   0  0  0  0  0  0  0  0  0  0  0  0
   -5.7894    7.8042   -1.4462 C   0  0  0  0  0  0  0  0  0  0  0  0
   -6.4436    7.5767   -0.4451 O   0  0  0  0  0  0  0  0  0  0  0  0
   -6.2212    8.8609   -2.4437 C   0  0  0  0  0  0  0  0  0  0  0  0
   -7.3486    9.6065   -2.3271 C   0  0  0  0  0  0  0  0  0  0  0  0
   -8.2935    9.6156   -1.3784 O   0  0  0  0  0  0  0  0  0  0  0  0
   -7.5571   10.5320   -3.4149 C   0  0  0  0  0  0  0  0  0  0  0  0
   -6.6433   10.5393   -4.3714 C   0  0  0  0  0  0  0  0  0  0  0  0
   -5.5134    9.7649   -4.4491 C   0  0  0  0  0  0  0  0  0  0  0  0
   -5.2975    8.8405   -3.3700 C   0  0  0  0  0  0  0  0  0  0  0  0
   -4.2007    7.8334   -3.1496 C   0  0  0  0  0  0  0  0  0  0  0  0
   -3.2054    7.8386   -4.0632 C   0  0  0  0  0  0  0  0  0  0  0  0
   -3.0105    8.5485   -5.2318 C   0  0  0  0  0  0  0  0  0  0  0  0
   -2.8529    9.1188   -6.2079 N   0  0  0  0  0  0  0  0  0  0  0  0
   -2.1724    6.8080   -3.7383 C   0  0  0  0  0  0  0  0  0  0  0  0
   -1.3608    6.0208   -3.4780 N   0  0  0  0  0  0  0  0  0  0  0  0
    3.5154   -6.1530    4.5174 H   0  0  0  0  0  0  0  0  0  0  0  0
    4.5559   -3.9476   -1.3196 H   0  0  0  0  0  0  0  0  0  0  0  0
    6.9117   -7.9480    0.2089 H   0  0  0  0  0  0  0  0  0  0  0  0
    8.5108   -6.7206   -2.5137 H   0  0  0  0  0  0  0  0  0  0  0  0
    7.4191   -8.7957   -3.4008 H   0  0  0  0  0  0  0  0  0  0  0  0
    4.8644   -8.7677   -2.6640 H   0  0  0  0  0  0  0  0  0  0  0  0
    3.7934   -6.7265   -3.9086 H   0  0  0  0  0  0  0  0  0  0  0  0
    5.6443   -5.3073   -5.0099 H   0  0  0  0  0  0  0  0  0  0  0  0
    7.8961   -6.7455   -4.9841 H   0  0  0  0  0  0  0  0  0  0  0  0
    6.4377   -7.7715   -5.5312 H   0  0  0  0  0  0  0  0  0  0  0  0
    7.3587   -4.6431   -3.2995 H   0  0  0  0  0  0  0  0  0  0  0  0
   -6.0845    4.7962   -1.0715 H   0  0  0  0  0  0  0  0  0  0  0  0
   -6.1133    3.2351   -0.2385 H   0  0  0  0  0  0  0  0  0  0  0  0
   -7.1810    5.3805    1.0875 H   0  0  0  0  0  0  0  0  0  0  0  0
   -5.4540    5.5679    1.6420 H   0  0  0  0  0  0  0  0  0  0  0  0
   -6.2787    4.0270    1.8628 H   0  0  0  0  0  0  0  0  0  0  0  0
    3.7157   -2.6726    3.1172 H   0  0  0  0  0  0  0  0  0  0  0  0
    1.9470    1.1044    2.8404 H   0  0  0  0  0  0  0  0  0  0  0  0
    2.8855    0.0760    1.6841 H   0  0  0  0  0  0  0  0  0  0  0  0
    4.2916   -0.5178    3.3712 H   0  0  0  0  0  0  0  0  0  0  0  0
    3.8244    1.0882    3.8759 H   0  0  0  0  0  0  0  0  0  0  0  0
    3.0098   -0.2886    4.7136 H   0  0  0  0  0  0  0  0  0  0  0  0
    1.5500    2.0609    1.2304 H   0  0  0  0  0  0  0  0  0  0  0  0
    0.3022    2.6138    0.1087 H   0  0  0  0  0  0  0  0  0  0  0  0
    1.9924    0.6821   -0.5686 H   0  0  0  0  0  0  0  0  0  0  0  0
    0.2351    0.7817   -1.1311 H   0  0  0  0  0  0  0  0  0  0  0  0
    0.7289   -0.3039    0.1567 H   0  0  0  0  0  0  0  0  0  0  0  0
   -4.4119    6.7147   -0.1083 H   0  0  0  0  0  0  0  0  0  0  0  0
   -9.1263   10.2567   -1.4540 H   0  0  0  0  0  0  0  0  0  0  0  0
   -8.4326   11.1236   -3.3659 H   0  0  0  0  0  0  0  0  0  0  0  0
   -6.7405   11.2384   -5.2487 H   0  0  0  0  0  0  0  0  0  0  0  0
   -4.8514    9.8556   -5.2326 H   0  0  0  0  0  0  0  0  0  0  0  0
  1  2  2  3
  2  3  1  0
  3  4  2  0
  3  5  1  0
  5  6  2  0
  6  7  1  0
  7  8  2  0
  8  9  1  0
  9 10  2  0
 10 11  1  0
 11 12  2  3
 12 13  1  0
 13 14  3  0
 12 15  1  0
 15 16  3  0
  8 17  1  0
 17 18  1  0
 18 19  1  0
 19 20  2  0
 20 21  1  0
 21 22  1  0
 21 23  1  0
  1 24  1  0
 24 25  1  0
 25 26  1  0
 26 27  1  0
 27 28  1  0
 28 29  1  0
 29 30  2  0
 30 31  1  0
 31 32  1  0
 29 33  1  0
 33 34  1  0
 34 35  1  0
 35 36  1  0
 36 37  1  0
 37 38  1  0
 38 39  1  0
 37 40  2  0
 40 41  1  0
 41 42  1  0
 42 43  1  0
 43 44  1  0
 44 45  1  0
 45 46  1  0
 46 47  1  0
 47 48  1  0
 48 49  1  0
 47 50  1  0
 50 51  1  0
 44 52  1  0
 52 53  1  0
 40 54  1  0
 54 55  2  3
 55 56  1  0
 56 57  2  0
 56 58  1  0
 58 59  2  0
 59 60  1  0
 59 61  1  0
 61 62  2  0
 62 63  1  0
 63 64  2  0
 64 65  1  0
 65 66  2  3
 66 67  1  0
 67 68  3  0
 66 69  1  0
 69 70  3  0
 11  2  1  0
 23 17  1  0
 49 24  2  0
 65 55  1  0
 10  5  1  0
 22 18  1  0
 48 26  2  0
 64 58  1  0
 23  7  1  0
 46 27  2  0
 32 28  2  0
 45 33  2  0
 43 34  2  0
 42 36  2  0
  1 71  1  0
  6 72  1  0
  9 73  1  0
 17 74  1  0
 18 75  1  0
 19 76  1  0
 20 77  1  0
 21 78  1  0
 22 79  1  0
 22 80  1  0
 23 81  1  0
 38 82  1  0
 38 83  1  0
 39 84  1  0
 39 85  1  0
 39 86  1  0
 49 87  1  0
 50 88  1  0
 50 89  1  0
 51 90  1  0
 51 91  1  0
 51 92  1  0
 52 93  1  0
 52 94  1  0
 53 95  1  0
 53 96  1  0
 53 97  1  0
 54 98  1  0
 60 99  1  0
 61100  1  0
 62101  1  0
 63102  1  0
M  END

