
     RDKit          3D

110122  0  0  0  0  0  0  0  0999 V2000
    4.5172    0.7530   -2.5141 C   0  0  0  0  0  0  0  0  0  0  0  0
    5.8276    0.4134   -2.5256 C   0  0  0  0  0  0  0  0  0  0  0  0
    6.6365    0.1873   -1.3259 C   0  0  0  0  0  0  0  0  0  0  0  0
    6.3587    0.5727   -0.1590 O   0  0  0  0  0  0  0  0  0  0  0  0
    7.8427   -0.5108   -1.7060 C   0  0  0  0  0  0  0  0  0  0  0  0
    8.8045   -1.0811   -0.8383 C   0  0  0  0  0  0  0  0  0  0  0  0
    9.7592   -1.8418   -1.4859 C   0  0  0  0  0  0  0  0  0  0  0  0
    9.7705   -2.0354   -2.9060 C   0  0  0  0  0  0  0  0  0  0  0  0
    8.8363   -1.4752   -3.7608 C   0  0  0  0  0  0  0  0  0  0  0  0
    7.8594   -0.6640   -3.1173 C   0  0  0  0  0  0  0  0  0  0  0  0
    6.6647    0.0143   -3.7000 C   0  0  0  0  0  0  0  0  0  0  0  0
    6.4730    0.3274   -5.0130 C   0  0  0  0  0  0  0  0  0  0  0  0
    5.3280    1.0596   -5.4992 C   0  0  0  0  0  0  0  0  0  0  0  0
    4.4118    1.6519   -5.8916 N   0  0  0  0  0  0  0  0  0  0  0  0
    7.4756    0.0667   -6.0127 C   0  0  0  0  0  0  0  0  0  0  0  0
    8.2819   -0.1338   -6.8180 N   0  0  0  0  0  0  0  0  0  0  0  0
   10.9794   -2.9171   -2.7953 C   0  0  0  0  0  0  0  0  0  0  0  0
   12.3394   -2.2911   -3.2342 C   0  0  0  0  0  0  0  0  0  0  0  0
   13.4075   -3.1970   -2.6689 C   0  0  0  0  0  0  0  0  0  0  0  0
   13.3927   -3.0299   -1.3421 C   0  0  0  0  0  0  0  0  0  0  0  0
   12.3202   -2.0042   -1.0558 C   0  0  0  0  0  0  0  0  0  0  0  0
   12.5082   -1.1156   -2.2811 C   0  0  0  0  0  0  0  0  0  0  0  0
   10.9664   -2.7201   -1.3429 C   0  0  0  0  0  0  0  0  0  0  0  0
    3.6807    0.7734   -1.2962 C   0  0  0  0  0  0  0  0  0  0  0  0
    2.7768    1.8080   -1.0576 C   0  0  0  0  0  0  0  0  0  0  0  0
    1.8688    1.2892   -0.1650 C   0  0  0  0  0  0  0  0  0  0  0  0
    2.2353    0.0202    0.1260 C   0  0  0  0  0  0  0  0  0  0  0  0
    3.3342   -0.3462   -0.5874 N   0  0  0  0  0  0  0  0  0  0  0  0
    3.8021   -1.7109   -0.8684 C   0  0  0  0  0  0  0  0  0  0  0  0
    4.5872   -2.2771    0.3184 C   0  0  0  0  0  0  0  0  0  0  0  0
    1.0605   -0.6605    0.4314 C   0  0  0  0  0  0  0  0  0  0  0  0
    0.7887   -2.0368    0.6042 C   0  0  0  0  0  0  0  0  0  0  0  0
   -0.5599   -2.4837    0.5367 C   0  0  0  0  0  0  0  0  0  0  0  0
   -0.7886   -3.8091    0.7069 N   0  0  0  0  0  0  0  0  0  0  0  0
    0.7592   -4.3295    0.9534 S   0  0  0  0  0  0  0  0  0  0  0  0
    1.7162   -2.9867    0.8676 N   0  0  0  0  0  0  0  0  0  0  0  0
   -1.5667   -1.5396    0.3753 C   0  0  0  0  0  0  0  0  0  0  0  0
   -2.9170   -1.6809    0.3170 C   0  0  0  0  0  0  0  0  0  0  0  0
   -4.0575   -2.9291    0.2200 S   0  0  0  0  0  0  0  0  0  0  0  0
   -5.3191   -1.7848    0.2225 C   0  0  0  0  0  0  0  0  0  0  0  0
   -6.6933   -1.9013    0.0396 C   0  0  0  0  0  0  0  0  0  0  0  0
   -7.4022   -3.2042   -0.1753 C   0  0  0  0  0  0  0  0  0  0  0  0
   -7.9745   -3.7330    1.1344 C   0  0  0  0  0  0  0  0  0  0  0  0
   -7.3112   -0.6407    0.0847 C   0  0  0  0  0  0  0  0  0  0  0  0
   -6.1276    0.5862    0.2492 S   0  0  0  0  0  0  0  0  0  0  0  0
   -4.8494   -0.4951    0.3293 C   0  0  0  0  0  0  0  0  0  0  0  0
   -3.4589   -0.4425    0.3529 C   0  0  0  0  0  0  0  0  0  0  0  0
   -2.5198    0.5385    0.4193 N   0  0  0  0  0  0  0  0  0  0  0  0
   -1.3290   -0.1590    0.3684 C   0  0  0  0  0  0  0  0  0  0  0  0
    0.0210    0.2920    0.3210 C   0  0  0  0  0  0  0  0  0  0  0  0
    0.5291    1.4947   -0.0998 N   0  0  0  0  0  0  0  0  0  0  0  0
   -0.1445    2.5345   -0.8876 C   0  0  0  0  0  0  0  0  0  0  0  0
    0.0811    3.9168   -0.2767 C   0  0  0  0  0  0  0  0  0  0  0  0
   -2.7580    1.8464    1.0468 C   0  0  0  0  0  0  0  0  0  0  0  0
   -3.5456    2.7913    0.1274 C   0  0  0  0  0  0  0  0  0  0  0  0
   -8.7367   -0.3952   -0.2070 C   0  0  0  0  0  0  0  0  0  0  0  0
   -9.5669    0.3375    0.5697 C   0  0  0  0  0  0  0  0  0  0  0  0
   -9.1419    0.8842    1.8779 C   0  0  0  0  0  0  0  0  0  0  0  0
   -8.2721    0.2910    2.5703 O   0  0  0  0  0  0  0  0  0  0  0  0
   -9.7665    2.0845    2.3650 N   0  0  0  0  0  0  0  0  0  0  0  0
   -9.0970    2.8875    3.3984 C   0  0  0  0  0  0  0  0  0  0  0  0
   -7.9828    3.7119    2.7752 C   0  0  0  0  0  0  0  0  0  0  0  0
  -10.9458    2.5740    1.6962 C   0  0  0  0  0  0  0  0  0  0  0  0
  -11.4752    3.6588    2.0592 O   0  0  0  0  0  0  0  0  0  0  0  0
  -11.5612    1.7877    0.5991 C   0  0  0  0  0  0  0  0  0  0  0  0
  -10.9495    0.6833    0.1076 C   0  0  0  0  0  0  0  0  0  0  0  0
  -11.6202   -0.1719   -0.9519 C   0  0  0  0  0  0  0  0  0  0  0  0
  -12.8311    2.2414    0.0685 C   0  0  0  0  0  0  0  0  0  0  0  0
  -13.8424    2.6167   -0.3537 N   0  0  0  0  0  0  0  0  0  0  0  0
    3.9770    0.8887   -3.4315 H   0  0  0  0  0  0  0  0  0  0  0  0
    8.7665   -0.9807    0.2344 H   0  0  0  0  0  0  0  0  0  0  0  0
    8.8523   -1.7145   -4.8110 H   0  0  0  0  0  0  0  0  0  0  0  0
   10.7965   -3.9626   -3.1278 H   0  0  0  0  0  0  0  0  0  0  0  0
   12.4456   -2.0610   -4.3168 H   0  0  0  0  0  0  0  0  0  0  0  0
   14.1177   -3.8056   -3.2183 H   0  0  0  0  0  0  0  0  0  0  0  0
   14.0874   -3.4757   -0.6362 H   0  0  0  0  0  0  0  0  0  0  0  0
   12.3933   -1.4940   -0.0706 H   0  0  0  0  0  0  0  0  0  0  0  0
   11.7298   -0.3241   -2.4005 H   0  0  0  0  0  0  0  0  0  0  0  0
   13.5164   -0.6385   -2.3375 H   0  0  0  0  0  0  0  0  0  0  0  0
   10.7776   -3.6445   -0.7570 H   0  0  0  0  0  0  0  0  0  0  0  0
    2.6603    2.6959   -1.6625 H   0  0  0  0  0  0  0  0  0  0  0  0
    2.9459   -2.3587   -1.1413 H   0  0  0  0  0  0  0  0  0  0  0  0
    4.4599   -1.7335   -1.7553 H   0  0  0  0  0  0  0  0  0  0  0  0
    4.0782   -2.0601    1.2806 H   0  0  0  0  0  0  0  0  0  0  0  0
    5.6067   -1.8375    0.3565 H   0  0  0  0  0  0  0  0  0  0  0  0
    4.6785   -3.3754    0.1989 H   0  0  0  0  0  0  0  0  0  0  0  0
   -8.2289   -3.0692   -0.9099 H   0  0  0  0  0  0  0  0  0  0  0  0
   -6.6997   -3.9616   -0.5930 H   0  0  0  0  0  0  0  0  0  0  0  0
   -8.4642   -4.7116    0.9544 H   0  0  0  0  0  0  0  0  0  0  0  0
   -7.1579   -3.8728    1.8793 H   0  0  0  0  0  0  0  0  0  0  0  0
   -8.7266   -3.0257    1.5415 H   0  0  0  0  0  0  0  0  0  0  0  0
    0.2621    2.5305   -1.9228 H   0  0  0  0  0  0  0  0  0  0  0  0
   -1.2179    2.3144   -1.0130 H   0  0  0  0  0  0  0  0  0  0  0  0
   -0.2780    4.6985   -0.9779 H   0  0  0  0  0  0  0  0  0  0  0  0
    1.1600    4.0777   -0.0842 H   0  0  0  0  0  0  0  0  0  0  0  0
   -0.4736    4.0317    0.6877 H   0  0  0  0  0  0  0  0  0  0  0  0
   -1.8014    2.3120    1.3508 H   0  0  0  0  0  0  0  0  0  0  0  0
   -3.3311    1.6938    1.9867 H   0  0  0  0  0  0  0  0  0  0  0  0
   -4.5127    3.0777    0.6026 H   0  0  0  0  0  0  0  0  0  0  0  0
   -2.9748    3.7229   -0.0572 H   0  0  0  0  0  0  0  0  0  0  0  0
   -3.7624    2.3133   -0.8524 H   0  0  0  0  0  0  0  0  0  0  0  0
   -9.0904   -0.8058   -1.1402 H   0  0  0  0  0  0  0  0  0  0  0  0
   -8.6693    2.2259    4.1841 H   0  0  0  0  0  0  0  0  0  0  0  0
   -9.8211    3.5589    3.9041 H   0  0  0  0  0  0  0  0  0  0  0  0
   -7.4474    4.2865    3.5582 H   0  0  0  0  0  0  0  0  0  0  0  0
   -8.4128    4.4221    2.0358 H   0  0  0  0  0  0  0  0  0  0  0  0
   -7.2584    3.0519    2.2532 H   0  0  0  0  0  0  0  0  0  0  0  0
  -11.3475    0.1864   -1.9670 H   0  0  0  0  0  0  0  0  0  0  0  0
  -12.7287   -0.1580   -0.8628 H   0  0  0  0  0  0  0  0  0  0  0  0
  -11.3232   -1.2370   -0.8448 H   0  0  0  0  0  0  0  0  0  0  0  0
  1  2  2  3
  2  3  1  0
  3  4  2  0
  3  5  1  0
  5  6  2  0
  6  7  1  0
  7  8  2  0
  8  9  1  0
  9 10  2  0
 10 11  1  0
 11 12  2  3
 12 13  1  0
 13 14  3  0
 12 15  1  0
 15 16  3  0
  8 17  1  0
 17 18  1  0
 18 19  1  0
 19 20  2  0
 20 21  1  0
 21 22  1  0
 21 23  1  0
  1 24  1  0
 24 25  2  0
 25 26  1  0
 26 27  2  0
 27 28  1  0
 28 29  1  0
 29 30  1  0
 27 31  1  0
 31 32  1  0
 32 33  1  0
 33 34  2  0
 34 35  1  0
 35 36  1  0
 33 37  1  0
 37 38  1  0
 38 39  1  0
 39 40  1  0
 40 41  1  0
 41 42  1  0
 42 43  1  0
 41 44  2  0
 44 45  1  0
 45 46  1  0
 46 47  1  0
 47 48  1  0
 48 49  1  0
 49 50  1  0
 50 51  1  0
 51 52  1  0
 52 53  1  0
 48 54  1  0
 54 55  1  0
 44 56  1  0
 56 57  2  3
 57 58  1  0
 58 59  2  0
 58 60  1  0
 60 61  1  0
 61 62  1  0
 60 63  1  0
 63 64  2  0
 63 65  1  0
 65 66  2  0
 66 67  1  0
 65 68  1  0
 68 69  3  0
 11  2  1  0
 23 17  1  0
 28 24  1  0
 50 31  2  0
 66 57  1  0
 10  5  1  0
 22 18  1  0
 51 26  1  0
 23  7  1  0
 36 32  2  0
 49 37  2  0
 47 38  2  0
 46 40  2  0
  1 70  1  0
  6 71  1  0
  9 72  1  0
 17 73  1  0
 18 74  1  0
 19 75  1  0
 20 76  1  0
 21 77  1  0
 22 78  1  0
 22 79  1  0
 23 80  1  0
 25 81  1  0
 29 82  1  0
 29 83  1  0
 30 84  1  0
 30 85  1  0
 30 86  1  0
 42 87  1  0
 42 88  1  0
 43 89  1  0
 43 90  1  0
 43 91  1  0
 52 92  1  0
 52 93  1  0
 53 94  1  0
 53 95  1  0
 53 96  1  0
 54 97  1  0
 54 98  1  0
 55 99  1  0
 55100  1  0
 55101  1  0
 56102  1  0
 61103  1  0
 61104  1  0
 62105  1  0
 62106  1  0
 62107  1  0
 67108  1  0
 67109  1  0
 67110  1  0
M  END

