
     RDKit          3D

104118  0  0  0  0  0  0  0  0999 V2000
    2.6677    4.2400    3.3919 C   0  0  0  0  0  0  0  0  0  0  0  0
    2.0665    3.7464    4.4918 C   0  0  0  0  0  0  0  0  0  0  0  0
    1.5870    2.3708    4.6743 C   0  0  0  0  0  0  0  0  0  0  0  0
    1.9558    1.3556    4.0252 O   0  0  0  0  0  0  0  0  0  0  0  0
    0.6564    2.3501    5.7806 C   0  0  0  0  0  0  0  0  0  0  0  0
   -0.1242    1.2561    6.2193 C   0  0  0  0  0  0  0  0  0  0  0  0
   -0.9794    1.5625    7.2613 C   0  0  0  0  0  0  0  0  0  0  0  0
   -1.0723    2.8700    7.8384 C   0  0  0  0  0  0  0  0  0  0  0  0
   -0.3119    3.9461    7.4118 C   0  0  0  0  0  0  0  0  0  0  0  0
    0.5970    3.6451    6.3582 C   0  0  0  0  0  0  0  0  0  0  0  0
    1.5741    4.5310    5.6646 C   0  0  0  0  0  0  0  0  0  0  0  0
    2.1119    5.6796    6.1532 C   0  0  0  0  0  0  0  0  0  0  0  0
    3.2970    6.2726    5.5892 C   0  0  0  0  0  0  0  0  0  0  0  0
    4.2551    6.7463    5.1466 N   0  0  0  0  0  0  0  0  0  0  0  0
    1.6393    6.3066    7.3582 C   0  0  0  0  0  0  0  0  0  0  0  0
    1.2728    6.8237    8.3271 N   0  0  0  0  0  0  0  0  0  0  0  0
   -2.1482    2.3992    8.7730 C   0  0  0  0  0  0  0  0  0  0  0  0
   -3.6168    2.8256    8.4669 C   0  0  0  0  0  0  0  0  0  0  0  0
   -3.8082    2.9840    6.9752 C   0  0  0  0  0  0  0  0  0  0  0  0
   -3.7234    1.7639    6.4468 C   0  0  0  0  0  0  0  0  0  0  0  0
   -3.4701    0.8148    7.5940 C   0  0  0  0  0  0  0  0  0  0  0  0
   -4.3165    1.4921    8.6561 C   0  0  0  0  0  0  0  0  0  0  0  0
   -2.0488    1.0587    8.1855 C   0  0  0  0  0  0  0  0  0  0  0  0
    3.0223    3.4339    2.2138 C   0  0  0  0  0  0  0  0  0  0  0  0
    4.3172    3.3196    1.6786 C   0  0  0  0  0  0  0  0  0  0  0  0
    5.5599    3.8695    2.3196 C   0  0  0  0  0  0  0  0  0  0  0  0
    6.0449    2.9488    3.4353 C   0  0  0  0  0  0  0  0  0  0  0  0
    4.3155    2.4919    0.5566 C   0  0  0  0  0  0  0  0  0  0  0  0
    3.0857    2.0037    0.1989 C   0  0  0  0  0  0  0  0  0  0  0  0
    1.9113    2.5547    1.2602 S   0  0  0  0  0  0  0  0  0  0  0  0
    3.1449    1.0961   -0.8504 C   0  0  0  0  0  0  0  0  0  0  0  0
    4.4264    0.9014   -1.2716 C   0  0  0  0  0  0  0  0  0  0  0  0
    5.5594    1.7853   -0.3674 S   0  0  0  0  0  0  0  0  0  0  0  0
    4.4433   -0.2697   -1.9762 C   0  0  0  0  0  0  0  0  0  0  0  0
    5.5050   -1.1257   -2.3071 C   0  0  0  0  0  0  0  0  0  0  0  0
    6.8153   -0.7998   -2.1856 N   0  0  0  0  0  0  0  0  0  0  0  0
    7.5069   -2.2190   -2.6896 S   0  0  0  0  0  0  0  0  0  0  0  0
    6.2622   -3.2525   -3.0474 N   0  0  0  0  0  0  0  0  0  0  0  0
    5.2092   -2.4490   -2.7583 C   0  0  0  0  0  0  0  0  0  0  0  0
    3.8678   -2.8304   -2.8733 C   0  0  0  0  0  0  0  0  0  0  0  0
    3.2722   -3.9483   -3.3834 C   0  0  0  0  0  0  0  0  0  0  0  0
    3.7081   -5.4012   -4.1469 S   0  0  0  0  0  0  0  0  0  0  0  0
    2.0755   -5.6980   -4.5464 C   0  0  0  0  0  0  0  0  0  0  0  0
    1.4336   -6.7216   -5.2319 C   0  0  0  0  0  0  0  0  0  0  0  0
    0.0533   -6.4838   -5.2995 C   0  0  0  0  0  0  0  0  0  0  0  0
   -0.3290   -4.9777   -4.5766 S   0  0  0  0  0  0  0  0  0  0  0  0
    1.2562   -4.6827   -4.1293 C   0  0  0  0  0  0  0  0  0  0  0  0
    1.9417   -3.6908   -3.4536 C   0  0  0  0  0  0  0  0  0  0  0  0
    1.6161   -2.4437   -3.0329 N   0  0  0  0  0  0  0  0  0  0  0  0
    0.4954   -1.6572   -3.5724 C   0  0  0  0  0  0  0  0  0  0  0  0
    0.6766   -1.3982   -5.0690 C   0  0  0  0  0  0  0  0  0  0  0  0
    2.8142   -1.9504   -2.5894 C   0  0  0  0  0  0  0  0  0  0  0  0
    3.1064   -0.6889   -2.0297 C   0  0  0  0  0  0  0  0  0  0  0  0
    2.3068    0.1009   -1.2442 N   0  0  0  0  0  0  0  0  0  0  0  0
    1.1621   -0.3640   -0.4409 C   0  0  0  0  0  0  0  0  0  0  0  0
    1.6395   -1.1101    0.8045 C   0  0  0  0  0  0  0  0  0  0  0  0
   -0.8963   -7.3672   -5.9952 C   0  0  0  0  0  0  0  0  0  0  0  0
   -2.1853   -7.5292   -5.6502 C   0  0  0  0  0  0  0  0  0  0  0  0
   -3.2077   -7.9655   -6.5988 C   0  0  0  0  0  0  0  0  0  0  0  0
   -3.0003   -8.5168   -7.7129 O   0  0  0  0  0  0  0  0  0  0  0  0
   -4.5022   -7.5713   -6.0801 C   0  0  0  0  0  0  0  0  0  0  0  0
   -5.7517   -7.6697   -6.6936 C   0  0  0  0  0  0  0  0  0  0  0  0
   -6.8652   -7.1376   -6.0275 C   0  0  0  0  0  0  0  0  0  0  0  0
   -6.7079   -6.4963   -4.7842 C   0  0  0  0  0  0  0  0  0  0  0  0
   -8.2264   -5.7373   -3.9054 Br  0  0  0  0  0  0  0  0  0  0  0  0
   -5.4382   -6.4029   -4.1882 C   0  0  0  0  0  0  0  0  0  0  0  0
   -4.3370   -6.9739   -4.8420 C   0  0  0  0  0  0  0  0  0  0  0  0
   -2.9083   -7.0548   -4.4342 C   0  0  0  0  0  0  0  0  0  0  0  0
   -2.4532   -7.1334   -3.1590 C   0  0  0  0  0  0  0  0  0  0  0  0
   -3.2722   -6.7971   -2.0237 C   0  0  0  0  0  0  0  0  0  0  0  0
   -3.9205   -6.5289   -1.1025 N   0  0  0  0  0  0  0  0  0  0  0  0
   -1.1743   -7.7200   -2.8442 C   0  0  0  0  0  0  0  0  0  0  0  0
   -0.1509   -8.1945   -2.5849 N   0  0  0  0  0  0  0  0  0  0  0  0
    2.9038    5.2887    3.3192 H   0  0  0  0  0  0  0  0  0  0  0  0
   -0.0774    0.2725    5.7690 H   0  0  0  0  0  0  0  0  0  0  0  0
   -0.4530    4.9242    7.8404 H   0  0  0  0  0  0  0  0  0  0  0  0
   -1.8619    2.4377    9.8484 H   0  0  0  0  0  0  0  0  0  0  0  0
   -4.0049    3.6653    9.0842 H   0  0  0  0  0  0  0  0  0  0  0  0
   -4.0534    3.8932    6.4384 H   0  0  0  0  0  0  0  0  0  0  0  0
   -3.8792    1.5108    5.4034 H   0  0  0  0  0  0  0  0  0  0  0  0
   -3.7221   -0.2449    7.3882 H   0  0  0  0  0  0  0  0  0  0  0  0
   -4.1816    1.0613    9.6772 H   0  0  0  0  0  0  0  0  0  0  0  0
   -5.4040    1.5225    8.4054 H   0  0  0  0  0  0  0  0  0  0  0  0
   -1.7008    0.2823    8.9019 H   0  0  0  0  0  0  0  0  0  0  0  0
    5.3522    4.8775    2.7367 H   0  0  0  0  0  0  0  0  0  0  0  0
    6.3633    3.9781    1.5595 H   0  0  0  0  0  0  0  0  0  0  0  0
    6.9653    3.3686    3.8938 H   0  0  0  0  0  0  0  0  0  0  0  0
    5.2694    2.8547    4.2255 H   0  0  0  0  0  0  0  0  0  0  0  0
    6.2778    1.9414    3.0296 H   0  0  0  0  0  0  0  0  0  0  0  0
    1.9350   -7.5847   -5.6501 H   0  0  0  0  0  0  0  0  0  0  0  0
   -0.4592   -2.1952   -3.3963 H   0  0  0  0  0  0  0  0  0  0  0  0
    0.4340   -0.6620   -3.0932 H   0  0  0  0  0  0  0  0  0  0  0  0
    0.6739   -2.3487   -5.6414 H   0  0  0  0  0  0  0  0  0  0  0  0
   -0.1565   -0.7648   -5.4424 H   0  0  0  0  0  0  0  0  0  0  0  0
    1.6350   -0.8670   -5.2512 H   0  0  0  0  0  0  0  0  0  0  0  0
    0.5322    0.4991   -0.1463 H   0  0  0  0  0  0  0  0  0  0  0  0
    0.5155   -1.0587   -1.0016 H   0  0  0  0  0  0  0  0  0  0  0  0
    2.2985   -0.4681    1.4247 H   0  0  0  0  0  0  0  0  0  0  0  0
    2.2047   -2.0167    0.5041 H   0  0  0  0  0  0  0  0  0  0  0  0
    0.7645   -1.4203    1.4148 H   0  0  0  0  0  0  0  0  0  0  0  0
   -0.5448   -7.8171   -6.9163 H   0  0  0  0  0  0  0  0  0  0  0  0
   -5.8596   -8.1359   -7.6635 H   0  0  0  0  0  0  0  0  0  0  0  0
   -7.8440   -7.2019   -6.4846 H   0  0  0  0  0  0  0  0  0  0  0  0
   -5.3308   -5.8720   -3.2585 H   0  0  0  0  0  0  0  0  0  0  0  0
  1  2  2  3
  2  3  1  0
  3  4  2  0
  3  5  1  0
  5  6  2  0
  6  7  1  0
  7  8  2  0
  8  9  1  0
  9 10  2  0
 10 11  1  0
 11 12  2  3
 12 13  1  0
 13 14  3  0
 12 15  1  0
 15 16  3  0
  8 17  1  0
 17 18  1  0
 18 19  1  0
 19 20  2  0
 20 21  1  0
 21 22  1  0
 21 23  1  0
  1 24  1  0
 24 25  2  0
 25 26  1  0
 26 27  1  0
 25 28  1  0
 28 29  2  0
 29 30  1  0
 29 31  1  0
 31 32  2  0
 32 33  1  0
 32 34  1  0
 34 35  1  0
 35 36  2  0
 36 37  1  0
 37 38  1  0
 38 39  2  0
 39 40  1  0
 40 41  1  0
 41 42  1  0
 42 43  1  0
 43 44  1  0
 44 45  2  0
 45 46  1  0
 46 47  1  0
 47 48  1  0
 48 49  1  0
 49 50  1  0
 50 51  1  0
 49 52  1  0
 52 53  1  0
 53 54  1  0
 54 55  1  0
 55 56  1  0
 45 57  1  0
 57 58  2  3
 58 59  1  0
 59 60  2  0
 59 61  1  0
 61 62  2  0
 62 63  1  0
 63 64  2  0
 64 65  1  0
 64 66  1  0
 66 67  2  0
 67 68  1  0
 68 69  2  3
 69 70  1  0
 70 71  3  0
 69 72  1  0
 72 73  3  0
 11  2  1  0
 23 17  1  0
 30 24  1  0
 54 31  1  0
 68 58  1  0
 10  5  1  0
 22 18  1  0
 33 28  1  0
 53 34  2  0
 67 61  1  0
 23  7  1  0
 39 35  1  0
 52 40  2  0
 48 41  2  0
 47 43  2  0
  1 74  1  0
  6 75  1  0
  9 76  1  0
 17 77  1  0
 18 78  1  0
 19 79  1  0
 20 80  1  0
 21 81  1  0
 22 82  1  0
 22 83  1  0
 23 84  1  0
 26 85  1  0
 26 86  1  0
 27 87  1  0
 27 88  1  0
 27 89  1  0
 44 90  1  0
 50 91  1  0
 50 92  1  0
 51 93  1  0
 51 94  1  0
 51 95  1  0
 55 96  1  0
 55 97  1  0
 56 98  1  0
 56 99  1  0
 56100  1  0
 57101  1  0
 62102  1  0
 63103  1  0
 66104  1  0
M  END

