
     RDKit          3D

 92105  0  0  0  0  0  0  0  0999 V2000
   -4.8695   -5.0937    0.4684 C   0  0  0  0  0  0  0  0  0  0  0  0
   -4.7247   -4.8175   -0.8364 C   0  0  0  0  0  0  0  0  0  0  0  0
   -5.4218   -5.2050   -2.0479 C   0  0  0  0  0  0  0  0  0  0  0  0
   -6.5763   -5.7680   -1.9803 O   0  0  0  0  0  0  0  0  0  0  0  0
   -4.6892   -4.8921   -3.2552 C   0  0  0  0  0  0  0  0  0  0  0  0
   -4.9535   -5.0315   -4.5995 C   0  0  0  0  0  0  0  0  0  0  0  0
   -4.0908   -4.6206   -5.5954 C   0  0  0  0  0  0  0  0  0  0  0  0
   -2.9050   -4.0388   -5.2020 C   0  0  0  0  0  0  0  0  0  0  0  0
   -2.6088   -3.8828   -3.8337 C   0  0  0  0  0  0  0  0  0  0  0  0
   -3.4954   -4.3094   -2.8904 C   0  0  0  0  0  0  0  0  0  0  0  0
   -3.4523   -4.2548   -1.3940 C   0  0  0  0  0  0  0  0  0  0  0  0
   -2.2104   -4.4784   -0.8425 C   0  0  0  0  0  0  0  0  0  0  0  0
   -1.0128   -4.0020   -1.2134 C   0  0  0  0  0  0  0  0  0  0  0  0
    0.0418   -3.5627   -1.5410 N   0  0  0  0  0  0  0  0  0  0  0  0
   -2.2801   -5.8248   -0.0832 C   0  0  0  0  0  0  0  0  0  0  0  0
   -2.3509   -6.8306    0.4786 N   0  0  0  0  0  0  0  0  0  0  0  0
   -2.5382   -3.8599   -6.6144 C   0  0  0  0  0  0  0  0  0  0  0  0
   -1.4998   -4.8610   -7.0397 C   0  0  0  0  0  0  0  0  0  0  0  0
   -1.7235   -6.0784   -6.2034 C   0  0  0  0  0  0  0  0  0  0  0  0
   -2.8486   -6.6601   -6.5924 C   0  0  0  0  0  0  0  0  0  0  0  0
   -3.4215   -5.8283   -7.6519 C   0  0  0  0  0  0  0  0  0  0  0  0
   -2.1115   -5.3619   -8.3482 C   0  0  0  0  0  0  0  0  0  0  0  0
   -3.8250   -4.5257   -7.0534 C   0  0  0  0  0  0  0  0  0  0  0  0
   -3.9437   -4.4115    1.3828 C   0  0  0  0  0  0  0  0  0  0  0  0
   -3.2483   -4.6362    2.4939 C   0  0  0  0  0  0  0  0  0  0  0  0
   -2.4029   -3.7307    3.0273 C   0  0  0  0  0  0  0  0  0  0  0  0
   -1.2248   -3.8004    4.3901 S   0  0  0  0  0  0  0  0  0  0  0  0
   -0.5440   -2.2250    4.1572 C   0  0  0  0  0  0  0  0  0  0  0  0
    0.4330   -1.3373    4.5582 C   0  0  0  0  0  0  0  0  0  0  0  0
    1.4373   -1.4784    5.5182 C   0  0  0  0  0  0  0  0  0  0  0  0
    2.3652   -0.4890    5.5893 C   0  0  0  0  0  0  0  0  0  0  0  0
    3.3251   -0.6507    6.5122 N   0  0  0  0  0  0  0  0  0  0  0  0
    2.9628   -2.1074    7.2540 S   0  0  0  0  0  0  0  0  0  0  0  0
    1.5867   -2.4931    6.3732 N   0  0  0  0  0  0  0  0  0  0  0  0
    2.2512    0.5856    4.7318 C   0  0  0  0  0  0  0  0  0  0  0  0
    3.0576    1.7175    4.5977 C   0  0  0  0  0  0  0  0  0  0  0  0
    2.5684    2.5157    3.6311 C   0  0  0  0  0  0  0  0  0  0  0  0
    1.4314    1.9036    3.1348 N   0  0  0  0  0  0  0  0  0  0  0  0
    0.5515    2.5816    2.2164 C   0  0  0  0  0  0  0  0  0  0  0  0
    0.9804    2.5046    0.8133 C   0  0  0  0  0  0  0  0  0  0  0  0
    1.2471    0.7525    3.7791 C   0  0  0  0  0  0  0  0  0  0  0  0
    0.3063   -0.2661    3.6855 C   0  0  0  0  0  0  0  0  0  0  0  0
   -0.6645   -0.4818    2.8169 N   0  0  0  0  0  0  0  0  0  0  0  0
   -1.2309   -1.7340    3.0939 C   0  0  0  0  0  0  0  0  0  0  0  0
   -2.1071   -2.5757    2.6449 C   0  0  0  0  0  0  0  0  0  0  0  0
   -3.3952   -2.6268    0.9437 Se  0  0  0  0  0  2  0  0  0  0  0  0
   -1.0918    0.1959    1.6274 C   0  0  0  0  0  0  0  0  0  0  0  0
   -0.4902   -0.4700    0.3817 C   0  0  0  0  0  0  0  0  0  0  0  0
    3.3008    3.6297    3.3527 C   0  0  0  0  0  0  0  0  0  0  0  0
    4.3999    3.9048    3.9812 C   0  0  0  0  0  0  0  0  0  0  0  0
    4.4837    2.5212    5.0923 S   0  0  0  0  0  0  0  0  0  0  0  0
    5.1673    5.0012    3.7281 C   0  0  0  0  0  0  0  0  0  0  0  0
    4.8369    5.8837    2.8004 C   0  0  0  0  0  0  0  0  0  0  0  0
    3.2241    5.1523    2.1326 Se  0  0  0  0  0  2  0  0  0  0  0  0
    5.4286    7.0983    2.2495 C   0  0  0  0  0  0  0  0  0  0  0  0
    4.8387    7.9682    1.3652 C   0  0  0  0  0  0  0  0  0  0  0  0
    5.5633    9.0185    1.0115 C   0  0  0  0  0  0  0  0  0  0  0  0
    6.8147    9.1861    1.5128 C   0  0  0  0  0  0  0  0  0  0  0  0
    7.8252   10.2029    1.2665 C   0  0  0  0  0  0  0  0  0  0  0  0
    8.3303   10.8218    2.3457 C   0  0  0  0  0  0  0  0  0  0  0  0
    7.8067   10.4112    3.6420 C   0  0  0  0  0  0  0  0  0  0  0  0
    7.3900   10.0744    4.7287 N   0  0  0  0  0  0  0  0  0  0  0  0
    9.2735   11.8185    2.3166 C   0  0  0  0  0  0  0  0  0  0  0  0
   10.1398   12.7121    2.2997 N   0  0  0  0  0  0  0  0  0  0  0  0
    8.2158   10.5055   -0.0436 C   0  0  0  0  0  0  0  0  0  0  0  0
    8.5492   10.7783   -1.1418 N   0  0  0  0  0  0  0  0  0  0  0  0
    6.9372    7.7831    2.5297 S   0  0  0  0  0  0  0  0  0  0  0  0
   -5.5828   -5.7483    0.8806 H   0  0  0  0  0  0  0  0  0  0  0  0
   -5.8864   -5.4951   -4.8916 H   0  0  0  0  0  0  0  0  0  0  0  0
   -1.6771   -3.4256   -3.5904 H   0  0  0  0  0  0  0  0  0  0  0  0
   -2.3795   -2.8150   -6.9668 H   0  0  0  0  0  0  0  0  0  0  0  0
   -0.4860   -4.5391   -7.1080 H   0  0  0  0  0  0  0  0  0  0  0  0
   -1.0521   -6.3896   -5.4216 H   0  0  0  0  0  0  0  0  0  0  0  0
   -3.2542   -7.5678   -6.1993 H   0  0  0  0  0  0  0  0  0  0  0  0
   -4.1197   -6.3005   -8.3335 H   0  0  0  0  0  0  0  0  0  0  0  0
   -1.5516   -6.2248   -8.7338 H   0  0  0  0  0  0  0  0  0  0  0  0
   -2.2890   -4.5519   -9.0475 H   0  0  0  0  0  0  0  0  0  0  0  0
   -4.5028   -3.8800   -7.6279 H   0  0  0  0  0  0  0  0  0  0  0  0
   -3.4361   -5.6719    2.9603 H   0  0  0  0  0  0  0  0  0  0  0  0
   -0.4830    2.6167    2.5220 H   0  0  0  0  0  0  0  0  0  0  0  0
    0.7109    3.7599    2.4326 H   0  0  0  0  0  0  0  0  0  0  0  0
    0.1642    2.2984    0.0727 H   0  0  0  0  0  0  0  0  0  0  0  0
    1.4422    3.4528    0.3815 H   0  0  0  0  0  0  0  0  0  0  0  0
    1.8161    1.7505    0.6533 H   0  0  0  0  0  0  0  0  0  0  0  0
   -1.3142    1.2231    1.5566 H   0  0  0  0  0  0  0  0  0  0  0  0
   -2.2253   -0.1551    1.4582 H   0  0  0  0  0  0  0  0  0  0  0  0
   -1.2241   -0.4907   -0.4758 H   0  0  0  0  0  0  0  0  0  0  0  0
   -0.3352   -1.5665    0.5957 H   0  0  0  0  0  0  0  0  0  0  0  0
    0.4159   -0.0432    0.0011 H   0  0  0  0  0  0  0  0  0  0  0  0
    6.1232    5.1795    4.3133 H   0  0  0  0  0  0  0  0  0  0  0  0
    3.8181    7.7849    0.9869 H   0  0  0  0  0  0  0  0  0  0  0  0
    5.1967    9.8145    0.2870 H   0  0  0  0  0  0  0  0  0  0  0  0
  1  2  2  3
  2  3  1  0
  3  4  2  0
  3  5  1  0
  5  6  2  0
  6  7  1  0
  7  8  2  0
  8  9  1  0
  9 10  2  0
 10 11  1  0
 11 12  2  3
 12 13  1  0
 13 14  3  0
 12 15  1  0
 15 16  3  0
  8 17  1  0
 17 18  1  0
 18 19  1  0
 19 20  2  0
 20 21  1  0
 21 22  1  0
 21 23  1  0
  1 24  1  0
 24 25  2  0
 25 26  1  0
 26 27  1  0
 27 28  1  0
 28 29  1  0
 29 30  1  0
 30 31  1  0
 31 32  2  0
 32 33  1  0
 33 34  1  0
 31 35  1  0
 35 36  1  0
 36 37  2  0
 37 38  1  0
 38 39  1  0
 39 40  1  0
 38 41  1  0
 41 42  1  0
 42 43  1  0
 43 44  1  0
 44 45  1  0
 45 46  1  0
 43 47  1  0
 47 48  1  0
 37 49  1  0
 49 50  2  0
 50 51  1  0
 50 52  1  0
 52 53  2  0
 53 54  1  0
 53 55  1  0
 55 56  2  0
 56 57  1  0
 57 58  2  0
 58 59  1  0
 59 60  2  3
 60 61  1  0
 61 62  3  0
 60 63  1  0
 63 64  3  0
 59 65  1  0
 65 66  3  0
 58 67  1  0
 11  2  1  0
 23 17  1  0
 46 24  1  0
 54 49  1  0
 67 55  1  0
 10  5  1  0
 22 18  1  0
 45 26  2  0
 23  7  1  0
 44 28  2  0
 42 29  2  0
 34 30  2  0
 41 35  2  0
 51 36  1  0
  1 68  1  0
  6 69  1  0
  9 70  1  0
 17 71  1  0
 18 72  1  0
 19 73  1  0
 20 74  1  0
 21 75  1  0
 22 76  1  0
 22 77  1  0
 23 78  1  0
 25 79  1  0
 39 80  1  0
 39 81  1  0
 40 82  1  0
 40 83  1  0
 40 84  1  0
 47 85  1  0
 47 86  1  0
 48 87  1  0
 48 88  1  0
 48 89  1  0
 52 90  1  0
 56 91  1  0
 57 92  1  0
M  END

