
     RDKit          3D

108121  0  0  0  0  0  0  0  0999 V2000
    3.8448   -3.0985   -1.0505 C   0  0  0  0  0  0  0  0  0  0  0  0
    2.9801   -2.7049   -2.0062 C   0  0  0  0  0  0  0  0  0  0  0  0
    1.9016   -1.7226   -1.8214 C   0  0  0  0  0  0  0  0  0  0  0  0
    1.7804   -0.9110   -0.8656 O   0  0  0  0  0  0  0  0  0  0  0  0
    0.9546   -1.8682   -2.9035 C   0  0  0  0  0  0  0  0  0  0  0  0
   -0.2929   -1.2140   -3.0347 C   0  0  0  0  0  0  0  0  0  0  0  0
   -1.0396   -1.6456   -4.1141 C   0  0  0  0  0  0  0  0  0  0  0  0
   -0.5962   -2.6675   -5.0129 C   0  0  0  0  0  0  0  0  0  0  0  0
    0.6217   -3.3150   -4.8875 C   0  0  0  0  0  0  0  0  0  0  0  0
    1.4203   -2.8676   -3.7966 C   0  0  0  0  0  0  0  0  0  0  0  0
    2.7556   -3.3481   -3.3367 C   0  0  0  0  0  0  0  0  0  0  0  0
    3.6731   -4.0271   -4.0745 C   0  0  0  0  0  0  0  0  0  0  0  0
    5.0309   -4.2156   -3.6307 C   0  0  0  0  0  0  0  0  0  0  0  0
    6.1250   -4.3696   -3.2827 N   0  0  0  0  0  0  0  0  0  0  0  0
    3.4047   -4.4941   -5.4091 C   0  0  0  0  0  0  0  0  0  0  0  0
    3.2064   -4.8716   -6.4860 N   0  0  0  0  0  0  0  0  0  0  0  0
   -1.8852   -2.5814   -5.7754 C   0  0  0  0  0  0  0  0  0  0  0  0
   -2.9292   -3.7215   -5.5726 C   0  0  0  0  0  0  0  0  0  0  0  0
   -2.8098   -4.2909   -4.1775 C   0  0  0  0  0  0  0  0  0  0  0  0
   -3.2212   -3.3379   -3.3403 C   0  0  0  0  0  0  0  0  0  0  0  0
   -3.6080   -2.1514   -4.1940 C   0  0  0  0  0  0  0  0  0  0  0  0
   -4.1870   -2.8929   -5.3849 C   0  0  0  0  0  0  0  0  0  0  0  0
   -2.3388   -1.5328   -4.8550 C   0  0  0  0  0  0  0  0  0  0  0  0
    3.8949   -2.4658    0.2764 C   0  0  0  0  0  0  0  0  0  0  0  0
    3.0759   -2.8688    1.3325 C   0  0  0  0  0  0  0  0  0  0  0  0
    3.1880   -1.8483    2.2469 C   0  0  0  0  0  0  0  0  0  0  0  0
    4.0459   -0.9228    1.7680 C   0  0  0  0  0  0  0  0  0  0  0  0
    4.4657   -1.2510    0.5259 N   0  0  0  0  0  0  0  0  0  0  0  0
    5.1622   -0.3982   -0.4423 C   0  0  0  0  0  0  0  0  0  0  0  0
    6.6665   -0.4580   -0.2127 C   0  0  0  0  0  0  0  0  0  0  0  0
    3.6645    0.2879    2.3161 C   0  0  0  0  0  0  0  0  0  0  0  0
    4.2397    1.5668    2.3044 C   0  0  0  0  0  0  0  0  0  0  0  0
    3.5754    2.6233    2.9963 C   0  0  0  0  0  0  0  0  0  0  0  0
    4.1645    3.8452    2.9648 N   0  0  0  0  0  0  0  0  0  0  0  0
    5.5204    3.4832    2.0875 S   0  0  0  0  0  0  0  0  0  0  0  0
    5.4237    1.8732    1.7205 N   0  0  0  0  0  0  0  0  0  0  0  0
    2.3483    2.3623    3.6222 C   0  0  0  0  0  0  0  0  0  0  0  0
    1.3583    3.2393    3.9693 C   0  0  0  0  0  0  0  0  0  0  0  0
    1.1011    4.8706    3.5770 S   0  0  0  0  0  0  0  0  0  0  0  0
   -0.5804    4.6566    3.5415 C   0  0  0  0  0  0  0  0  0  0  0  0
   -1.6069    5.4513    3.0245 C   0  0  0  0  0  0  0  0  0  0  0  0
   -1.4097    6.8575    2.5267 C   0  0  0  0  0  0  0  0  0  0  0  0
   -1.0335    6.8642    1.0474 C   0  0  0  0  0  0  0  0  0  0  0  0
   -2.7746    4.6956    2.8372 C   0  0  0  0  0  0  0  0  0  0  0  0
   -2.5135    3.0904    3.3421 S   0  0  0  0  0  0  0  0  0  0  0  0
   -0.9142    3.3452    3.7787 C   0  0  0  0  0  0  0  0  0  0  0  0
    0.1932    2.5247    4.0171 C   0  0  0  0  0  0  0  0  0  0  0  0
    0.3895    1.2000    3.7638 N   0  0  0  0  0  0  0  0  0  0  0  0
    1.7486    1.0945    3.5820 C   0  0  0  0  0  0  0  0  0  0  0  0
    2.4959    0.0170    3.0407 C   0  0  0  0  0  0  0  0  0  0  0  0
    2.2324   -1.3218    3.0443 N   0  0  0  0  0  0  0  0  0  0  0  0
    1.4064   -2.0870    3.9858 C   0  0  0  0  0  0  0  0  0  0  0  0
    2.2483   -3.0755    4.7916 C   0  0  0  0  0  0  0  0  0  0  0  0
   -0.6516    0.3155    3.2158 C   0  0  0  0  0  0  0  0  0  0  0  0
   -1.6433   -0.1161    4.2979 C   0  0  0  0  0  0  0  0  0  0  0  0
   -3.9942    5.1592    2.1569 C   0  0  0  0  0  0  0  0  0  0  0  0
   -4.4609    4.6025    1.0216 C   0  0  0  0  0  0  0  0  0  0  0  0
   -3.7090    3.6971    0.1387 C   0  0  0  0  0  0  0  0  0  0  0  0
   -2.5685    3.2077    0.3592 O   0  0  0  0  0  0  0  0  0  0  0  0
   -4.4192    3.5822   -1.1157 C   0  0  0  0  0  0  0  0  0  0  0  0
   -4.0361    2.8830   -2.2642 C   0  0  0  0  0  0  0  0  0  0  0  0
   -2.9139    2.1218   -2.2805 F   0  0  0  0  0  0  0  0  0  0  0  0
   -4.8401    2.9849   -3.4071 C   0  0  0  0  0  0  0  0  0  0  0  0
   -5.9850    3.7979   -3.3932 C   0  0  0  0  0  0  0  0  0  0  0  0
   -6.3505    4.4982   -2.2314 C   0  0  0  0  0  0  0  0  0  0  0  0
   -5.5643    4.3607   -1.0743 C   0  0  0  0  0  0  0  0  0  0  0  0
   -5.7095    4.9696    0.2818 C   0  0  0  0  0  0  0  0  0  0  0  0
   -6.8346    5.5205    0.8104 C   0  0  0  0  0  0  0  0  0  0  0  0
   -6.9530    5.8377    2.2101 C   0  0  0  0  0  0  0  0  0  0  0  0
   -7.0592    6.0912    3.3345 N   0  0  0  0  0  0  0  0  0  0  0  0
   -8.0421    5.7064    0.0496 C   0  0  0  0  0  0  0  0  0  0  0  0
   -9.0229    5.8597   -0.5476 N   0  0  0  0  0  0  0  0  0  0  0  0
    4.4579   -3.9735   -1.1854 H   0  0  0  0  0  0  0  0  0  0  0  0
   -0.6531   -0.4736   -2.3329 H   0  0  0  0  0  0  0  0  0  0  0  0
    0.8827   -4.1235   -5.5489 H   0  0  0  0  0  0  0  0  0  0  0  0
   -1.7683   -2.2328   -6.8256 H   0  0  0  0  0  0  0  0  0  0  0  0
   -2.9706   -4.4759   -6.3853 H   0  0  0  0  0  0  0  0  0  0  0  0
   -2.5221   -5.2997   -3.9014 H   0  0  0  0  0  0  0  0  0  0  0  0
   -3.3255   -3.4389   -2.2655 H   0  0  0  0  0  0  0  0  0  0  0  0
   -4.2897   -1.4244   -3.7050 H   0  0  0  0  0  0  0  0  0  0  0  0
   -5.0872   -3.5026   -5.1331 H   0  0  0  0  0  0  0  0  0  0  0  0
   -4.4177   -2.2307   -6.2523 H   0  0  0  0  0  0  0  0  0  0  0  0
   -2.4982   -0.5456   -5.3427 H   0  0  0  0  0  0  0  0  0  0  0  0
    2.3264   -3.6488    1.3112 H   0  0  0  0  0  0  0  0  0  0  0  0
    4.9538   -0.7296   -1.4809 H   0  0  0  0  0  0  0  0  0  0  0  0
    4.7930    0.6445   -0.3745 H   0  0  0  0  0  0  0  0  0  0  0  0
    7.0339   -1.4890   -0.4011 H   0  0  0  0  0  0  0  0  0  0  0  0
    7.1776    0.2393   -0.9081 H   0  0  0  0  0  0  0  0  0  0  0  0
    6.9148   -0.1736    0.8302 H   0  0  0  0  0  0  0  0  0  0  0  0
   -0.6034    7.3547    3.1081 H   0  0  0  0  0  0  0  0  0  0  0  0
   -2.3406    7.4445    2.6756 H   0  0  0  0  0  0  0  0  0  0  0  0
   -0.8550    7.9067    0.7123 H   0  0  0  0  0  0  0  0  0  0  0  0
   -0.1076    6.2751    0.8801 H   0  0  0  0  0  0  0  0  0  0  0  0
   -1.8529    6.4301    0.4354 H   0  0  0  0  0  0  0  0  0  0  0  0
    0.6190   -2.6422    3.4321 H   0  0  0  0  0  0  0  0  0  0  0  0
    0.9398   -1.3991    4.7143 H   0  0  0  0  0  0  0  0  0  0  0  0
    3.0770   -2.5426    5.3043 H   0  0  0  0  0  0  0  0  0  0  0  0
    2.6696   -3.8591    4.1271 H   0  0  0  0  0  0  0  0  0  0  0  0
    1.6114   -3.5690    5.5557 H   0  0  0  0  0  0  0  0  0  0  0  0
   -0.2219   -0.5685    2.7180 H   0  0  0  0  0  0  0  0  0  0  0  0
   -1.1950    0.8424    2.4041 H   0  0  0  0  0  0  0  0  0  0  0  0
   -2.0032    0.7561    4.8781 H   0  0  0  0  0  0  0  0  0  0  0  0
   -1.1804   -0.8287    5.0063 H   0  0  0  0  0  0  0  0  0  0  0  0
   -2.5145   -0.6126    3.8240 H   0  0  0  0  0  0  0  0  0  0  0  0
   -4.4678    6.0333    2.5705 H   0  0  0  0  0  0  0  0  0  0  0  0
   -4.5677    2.4511   -4.3087 H   0  0  0  0  0  0  0  0  0  0  0  0
   -6.5876    3.8924   -4.2885 H   0  0  0  0  0  0  0  0  0  0  0  0
   -7.2081    5.1476   -2.2742 H   0  0  0  0  0  0  0  0  0  0  0  0
  1  2  2  3
  2  3  1  0
  3  4  2  0
  3  5  1  0
  5  6  2  0
  6  7  1  0
  7  8  2  0
  8  9  1  0
  9 10  2  0
 10 11  1  0
 11 12  2  3
 12 13  1  0
 13 14  3  0
 12 15  1  0
 15 16  3  0
  8 17  1  0
 17 18  1  0
 18 19  1  0
 19 20  2  0
 20 21  1  0
 21 22  1  0
 21 23  1  0
  1 24  1  0
 24 25  2  0
 25 26  1  0
 26 27  2  0
 27 28  1  0
 28 29  1  0
 29 30  1  0
 27 31  1  0
 31 32  1  0
 32 33  1  0
 33 34  2  0
 34 35  1  0
 35 36  1  0
 33 37  1  0
 37 38  1  0
 38 39  1  0
 39 40  1  0
 40 41  1  0
 41 42  1  0
 42 43  1  0
 41 44  2  0
 44 45  1  0
 45 46  1  0
 46 47  1  0
 47 48  1  0
 48 49  1  0
 49 50  1  0
 50 51  1  0
 51 52  1  0
 52 53  1  0
 48 54  1  0
 54 55  1  0
 44 56  1  0
 56 57  2  3
 57 58  1  0
 58 59  2  0
 58 60  1  0
 60 61  2  0
 61 62  1  0
 61 63  1  0
 63 64  2  0
 64 65  1  0
 65 66  2  0
 66 67  1  0
 67 68  2  3
 68 69  1  0
 69 70  3  0
 68 71  1  0
 71 72  3  0
 11  2  1  0
 23 17  1  0
 28 24  1  0
 50 31  2  0
 67 57  1  0
 10  5  1  0
 22 18  1  0
 51 26  1  0
 66 60  1  0
 23  7  1  0
 36 32  2  0
 49 37  2  0
 47 38  2  0
 46 40  2  0
  1 73  1  0
  6 74  1  0
  9 75  1  0
 17 76  1  0
 18 77  1  0
 19 78  1  0
 20 79  1  0
 21 80  1  0
 22 81  1  0
 22 82  1  0
 23 83  1  0
 25 84  1  0
 29 85  1  0
 29 86  1  0
 30 87  1  0
 30 88  1  0
 30 89  1  0
 42 90  1  0
 42 91  1  0
 43 92  1  0
 43 93  1  0
 43 94  1  0
 52 95  1  0
 52 96  1  0
 53 97  1  0
 53 98  1  0
 53 99  1  0
 54100  1  0
 54101  1  0
 55102  1  0
 55103  1  0
 55104  1  0
 56105  1  0
 63106  1  0
 64107  1  0
 65108  1  0
M  END

