
     RDKit          3D

116131  0  0  0  0  0  0  0  0999 V2000
    2.6154   -3.1540   -4.8236 C   0  0  0  0  0  0  0  0  0  0  0  0
    2.0049   -3.7485   -5.8328 C   0  0  0  0  0  0  0  0  0  0  0  0
    1.0835   -3.2871   -6.7770 C   0  0  0  0  0  0  0  0  0  0  0  0
    0.7804   -2.0411   -6.9453 O   0  0  0  0  0  0  0  0  0  0  0  0
    0.5142   -4.3912   -7.5367 C   0  0  0  0  0  0  0  0  0  0  0  0
   -0.3481   -4.3489   -8.6139 C   0  0  0  0  0  0  0  0  0  0  0  0
   -0.6630   -5.4865   -9.2495 C   0  0  0  0  0  0  0  0  0  0  0  0
   -0.1378   -6.7183   -8.8242 C   0  0  0  0  0  0  0  0  0  0  0  0
    0.7276   -6.7493   -7.7328 C   0  0  0  0  0  0  0  0  0  0  0  0
    1.0547   -5.5765   -7.0957 C   0  0  0  0  0  0  0  0  0  0  0  0
    2.0617   -5.2829   -5.9877 C   0  0  0  0  0  0  0  0  0  0  0  0
    2.9267   -6.0873   -5.5696 C   0  0  0  0  0  0  0  0  0  0  0  0
    4.1742   -5.5844   -4.7887 C   0  0  0  0  0  0  0  0  0  0  0  0
    5.1017   -5.2215   -4.2082 N   0  0  0  0  0  0  0  0  0  0  0  0
    2.8608   -7.4461   -5.6381 C   0  0  0  0  0  0  0  0  0  0  0  0
    2.7959   -8.7499   -5.6810 N   0  0  0  0  0  0  0  0  0  0  0  0
   -0.7625   -7.5123   -9.8492 C   0  0  0  0  0  0  0  0  0  0  0  0
   -1.9809   -8.3230   -9.6281 C   0  0  0  0  0  0  0  0  0  0  0  0
   -2.8248   -7.7884   -8.5827 C   0  0  0  0  0  0  0  0  0  0  0  0
   -3.2543   -6.5676   -9.0099 C   0  0  0  0  0  0  0  0  0  0  0  0
   -2.7694   -6.3653  -10.3753 C   0  0  0  0  0  0  0  0  0  0  0  0
   -2.8316   -7.8367  -10.8640 C   0  0  0  0  0  0  0  0  0  0  0  0
   -1.3074   -6.1689  -10.3707 C   0  0  0  0  0  0  0  0  0  0  0  0
    2.4805   -1.7666   -4.3930 C   0  0  0  0  0  0  0  0  0  0  0  0
    2.5941   -0.5296   -4.8446 C   0  0  0  0  0  0  0  0  0  0  0  0
    3.3530   -0.2805   -6.1541 C   0  0  0  0  0  0  0  0  0  0  0  0
    3.2968    1.1531   -6.5604 C   0  0  0  0  0  0  0  0  0  0  0  0
    2.1556    0.4562   -4.0669 C   0  0  0  0  0  0  0  0  0  0  0  0
    1.9663    2.4742   -4.1938 Se  0  0  0  0  0  2  0  0  0  0  0  0
    1.1595    2.5311   -2.5111 C   0  0  0  0  0  0  0  0  0  0  0  0
    0.6670    3.4682   -1.6505 C   0  0  0  0  0  0  0  0  0  0  0  0
    0.4562    4.8398   -1.6834 C   0  0  0  0  0  0  0  0  0  0  0  0
   -0.1321    5.4222   -0.6220 C   0  0  0  0  0  0  0  0  0  0  0  0
   -0.3113    6.7494   -0.7169 N   0  0  0  0  0  0  0  0  0  0  0  0
    0.3225    7.1617   -2.2172 S   0  0  0  0  0  0  0  0  0  0  0  0
    0.7965    5.6124   -2.6858 N   0  0  0  0  0  0  0  0  0  0  0  0
   -0.4837    4.6054    0.4668 C   0  0  0  0  0  0  0  0  0  0  0  0
   -0.9871    4.9564    1.6816 C   0  0  0  0  0  0  0  0  0  0  0  0
   -1.5519    6.4645    2.6781 Se  0  0  0  0  0  2  0  0  0  0  0  0
   -1.9391    5.1753    4.3235 C   0  0  0  0  0  0  0  0  0  0  0  0
   -2.2696    5.4034    5.5671 C   0  0  0  0  0  0  0  0  0  0  0  0
   -2.7104    6.7438    6.1048 C   0  0  0  0  0  0  0  0  0  0  0  0
   -1.5549    7.6737    6.3150 C   0  0  0  0  0  0  0  0  0  0  0  0
   -2.2138    4.3169    6.3361 C   0  0  0  0  0  0  0  0  0  0  0  0
   -1.7144    3.0693    5.2208 S   0  0  0  0  0  0  0  0  0  0  0  0
   -1.5880    4.1241    3.7688 C   0  0  0  0  0  0  0  0  0  0  0  0
   -1.1140    3.9198    2.5055 C   0  0  0  0  0  0  0  0  0  0  0  0
   -0.6449    2.8039    1.7485 N   0  0  0  0  0  0  0  0  0  0  0  0
   -0.2969    3.2579    0.5483 C   0  0  0  0  0  0  0  0  0  0  0  0
    0.2917    2.6295   -0.5605 C   0  0  0  0  0  0  0  0  0  0  0  0
    0.5462    1.3901   -0.8370 N   0  0  0  0  0  0  0  0  0  0  0  0
    1.1287    1.3167   -2.1336 C   0  0  0  0  0  0  0  0  0  0  0  0
    1.6223    0.2703   -2.9016 C   0  0  0  0  0  0  0  0  0  0  0  0
    1.7099   -1.4741   -2.8132 S   0  0  0  0  0  0  0  0  0  0  0  0
    0.2349    0.1606   -0.1345 C   0  0  0  0  0  0  0  0  0  0  0  0
    1.2550   -0.5585    0.6065 C   0  0  0  0  0  0  0  0  0  0  0  0
   -0.4205    1.5359    2.3979 C   0  0  0  0  0  0  0  0  0  0  0  0
   -1.6644    0.7357    2.5131 C   0  0  0  0  0  0  0  0  0  0  0  0
   -2.3679    4.0117    7.7782 C   0  0  0  0  0  0  0  0  0  0  0  0
   -1.2918    3.3215    8.2743 C   0  0  0  0  0  0  0  0  0  0  0  0
   -0.1027    2.9236    7.6300 C   0  0  0  0  0  0  0  0  0  0  0  0
    0.2614    3.1525    6.4173 O   0  0  0  0  0  0  0  0  0  0  0  0
    0.7671    2.1872    8.5053 C   0  0  0  0  0  0  0  0  0  0  0  0
    1.9736    1.5686    8.3456 C   0  0  0  0  0  0  0  0  0  0  0  0
    2.5957    0.8698    9.3366 C   0  0  0  0  0  0  0  0  0  0  0  0
    3.8093    0.2329    9.1407 C   0  0  0  0  0  0  0  0  0  0  0  0
    4.3973   -0.4633   10.0979 C   0  0  0  0  0  0  0  0  0  0  0  0
    3.8253   -0.5842   11.3674 C   0  0  0  0  0  0  0  0  0  0  0  0
    2.5943    0.0523   11.5919 C   0  0  0  0  0  0  0  0  0  0  0  0
    1.9764    0.7977   10.5364 C   0  0  0  0  0  0  0  0  0  0  0  0
    0.7598    1.3944   10.7643 C   0  0  0  0  0  0  0  0  0  0  0  0
    0.1156    2.0990    9.7787 C   0  0  0  0  0  0  0  0  0  0  0  0
   -1.1755    2.8104    9.6227 C   0  0  0  0  0  0  0  0  0  0  0  0
   -2.2158    2.6960   10.5276 C   0  0  0  0  0  0  0  0  0  0  0  0
   -2.0023    2.2344   11.8456 C   0  0  0  0  0  0  0  0  0  0  0  0
   -1.8006    1.8432   13.0129 N   0  0  0  0  0  0  0  0  0  0  0  0
   -3.4494    2.7137    9.9961 C   0  0  0  0  0  0  0  0  0  0  0  0
   -4.7149    2.7358    9.4756 N   0  0  0  0  0  0  0  0  0  0  0  0
    3.2453   -3.7704   -4.1606 H   0  0  0  0  0  0  0  0  0  0  0  0
   -0.7105   -3.3975   -8.9366 H   0  0  0  0  0  0  0  0  0  0  0  0
    1.1477   -7.6530   -7.3459 H   0  0  0  0  0  0  0  0  0  0  0  0
   -0.0500   -7.9742  -10.6187 H   0  0  0  0  0  0  0  0  0  0  0  0
   -1.8430   -9.4005   -9.6419 H   0  0  0  0  0  0  0  0  0  0  0  0
   -3.0741   -8.2069   -7.6360 H   0  0  0  0  0  0  0  0  0  0  0  0
   -3.8311   -5.8931   -8.4247 H   0  0  0  0  0  0  0  0  0  0  0  0
   -3.3295   -5.6828  -11.0152 H   0  0  0  0  0  0  0  0  0  0  0  0
   -2.2904   -7.9831  -11.7901 H   0  0  0  0  0  0  0  0  0  0  0  0
   -3.8612   -8.2486  -10.8199 H   0  0  0  0  0  0  0  0  0  0  0  0
   -0.8428   -5.9316  -11.3760 H   0  0  0  0  0  0  0  0  0  0  0  0
    4.4600   -0.4812   -5.8277 H   0  0  0  0  0  0  0  0  0  0  0  0
    3.1369   -0.9776   -6.9238 H   0  0  0  0  0  0  0  0  0  0  0  0
    3.6673    1.2895   -7.5910 H   0  0  0  0  0  0  0  0  0  0  0  0
    2.2541    1.4983   -6.5571 H   0  0  0  0  0  0  0  0  0  0  0  0
    3.8785    1.7644   -5.8160 H   0  0  0  0  0  0  0  0  0  0  0  0
   -3.2262    6.5457    7.0630 H   0  0  0  0  0  0  0  0  0  0  0  0
   -3.4876    7.1920    5.4379 H   0  0  0  0  0  0  0  0  0  0  0  0
   -0.6941    7.1540    6.6991 H   0  0  0  0  0  0  0  0  0  0  0  0
   -1.3651    8.1553    5.3400 H   0  0  0  0  0  0  0  0  0  0  0  0
   -1.9083    8.4320    7.0556 H   0  0  0  0  0  0  0  0  0  0  0  0
   -0.8294    0.1943    0.2243 H   0  0  0  0  0  0  0  0  0  0  0  0
   -0.0442   -0.5977   -1.0334 H   0  0  0  0  0  0  0  0  0  0  0  0
    0.7617   -1.0416    1.5120 H   0  0  0  0  0  0  0  0  0  0  0  0
    2.1023    0.0077    0.9388 H   0  0  0  0  0  0  0  0  0  0  0  0
    1.6410   -1.4539    0.0740 H   0  0  0  0  0  0  0  0  0  0  0  0
   -0.2337    1.8003    3.5626 H   0  0  0  0  0  0  0  0  0  0  0  0
    0.5275    1.0618    2.2593 H   0  0  0  0  0  0  0  0  0  0  0  0
   -2.1676    0.7487    3.5233 H   0  0  0  0  0  0  0  0  0  0  0  0
   -2.4539    0.9868    1.7691 H   0  0  0  0  0  0  0  0  0  0  0  0
   -1.3779   -0.3537    2.3952 H   0  0  0  0  0  0  0  0  0  0  0  0
   -3.1794    4.3494    8.2851 H   0  0  0  0  0  0  0  0  0  0  0  0
    2.5219    1.6278    7.3794 H   0  0  0  0  0  0  0  0  0  0  0  0
    4.2442    0.3256    8.1316 H   0  0  0  0  0  0  0  0  0  0  0  0
    5.3460   -1.0163    9.9499 H   0  0  0  0  0  0  0  0  0  0  0  0
    4.3061   -1.1512   12.1410 H   0  0  0  0  0  0  0  0  0  0  0  0
    2.0837    0.0426   12.5365 H   0  0  0  0  0  0  0  0  0  0  0  0
    0.3211    1.2908   11.7285 H   0  0  0  0  0  0  0  0  0  0  0  0
  1  2  2  3
  2  3  1  0
  3  4  2  0
  3  5  1  0
  5  6  2  0
  6  7  1  0
  7  8  2  0
  8  9  1  0
  9 10  2  0
 10 11  1  0
 11 12  2  3
 12 13  1  0
 13 14  3  0
 12 15  1  0
 15 16  3  0
  8 17  1  0
 17 18  1  0
 18 19  1  0
 19 20  2  0
 20 21  1  0
 21 22  1  0
 21 23  1  0
  1 24  1  0
 24 25  2  0
 25 26  1  0
 26 27  1  0
 25 28  1  0
 28 29  1  0
 29 30  1  0
 30 31  1  0
 31 32  1  0
 32 33  1  0
 33 34  2  0
 34 35  1  0
 35 36  1  0
 33 37  1  0
 37 38  1  0
 38 39  1  0
 39 40  1  0
 40 41  1  0
 41 42  1  0
 42 43  1  0
 41 44  2  0
 44 45  1  0
 45 46  1  0
 46 47  1  0
 47 48  1  0
 48 49  1  0
 49 50  1  0
 50 51  1  0
 51 52  1  0
 52 53  1  0
 53 54  1  0
 51 55  1  0
 55 56  1  0
 48 57  1  0
 57 58  1  0
 44 59  1  0
 59 60  2  3
 60 61  1  0
 61 62  2  0
 61 63  1  0
 63 64  2  0
 64 65  1  0
 65 66  2  0
 66 67  1  0
 67 68  2  0
 68 69  1  0
 69 70  2  0
 70 71  1  0
 71 72  2  0
 72 73  1  0
 73 74  2  3
 74 75  1  0
 75 76  3  0
 74 77  1  0
 77 78  3  0
 11  2  1  0
 23 17  1  0
 54 24  1  0
 73 60  1  0
 10  5  1  0
 22 18  1  0
 53 28  2  0
 72 63  1  0
 23  7  1  0
 52 30  2  0
 70 65  1  0
 50 31  2  0
 36 32  2  0
 49 37  2  0
 47 38  2  0
 46 40  2  0
  1 79  1  0
  6 80  1  0
  9 81  1  0
 17 82  1  0
 18 83  1  0
 19 84  1  0
 20 85  1  0
 21 86  1  0
 22 87  1  0
 22 88  1  0
 23 89  1  0
 26 90  1  0
 26 91  1  0
 27 92  1  0
 27 93  1  0
 27 94  1  0
 42 95  1  0
 42 96  1  0
 43 97  1  0
 43 98  1  0
 43 99  1  0
 55100  1  0
 55101  1  0
 56102  1  0
 56103  1  0
 56104  1  0
 57105  1  0
 57106  1  0
 58107  1  0
 58108  1  0
 58109  1  0
 59110  1  0
 64111  1  0
 66112  1  0
 67113  1  0
 68114  1  0
 69115  1  0
 71116  1  0
M  END

