
     RDKit          3D

109121  0  0  0  0  0  0  0  0999 V2000
   -1.0779    4.0293   -5.1092 C   0  0  0  0  0  0  0  0  0  0  0  0
   -1.6492    3.1489   -5.9520 C   0  0  0  0  0  0  0  0  0  0  0  0
   -2.2490    1.8632   -5.5760 C   0  0  0  0  0  0  0  0  0  0  0  0
   -2.1226    1.2718   -4.4709 O   0  0  0  0  0  0  0  0  0  0  0  0
   -3.0325    1.3779   -6.6923 C   0  0  0  0  0  0  0  0  0  0  0  0
   -3.8450    0.2199   -6.7242 C   0  0  0  0  0  0  0  0  0  0  0  0
   -4.5212    0.0441   -7.9172 C   0  0  0  0  0  0  0  0  0  0  0  0
   -4.4249    0.9609   -9.0116 C   0  0  0  0  0  0  0  0  0  0  0  0
   -3.6420    2.1020   -8.9828 C   0  0  0  0  0  0  0  0  0  0  0  0
   -2.9046    2.2812   -7.7786 C   0  0  0  0  0  0  0  0  0  0  0  0
   -1.9384    3.3523   -7.4066 C   0  0  0  0  0  0  0  0  0  0  0  0
   -1.2591    4.1616   -8.2634 C   0  0  0  0  0  0  0  0  0  0  0  0
   -1.5363    4.2100   -9.6750 C   0  0  0  0  0  0  0  0  0  0  0  0
   -1.7409    4.2641  -10.8141 N   0  0  0  0  0  0  0  0  0  0  0  0
   -0.1000    4.9145   -7.8542 C   0  0  0  0  0  0  0  0  0  0  0  0
    0.8365    5.5186   -7.5385 N   0  0  0  0  0  0  0  0  0  0  0  0
   -5.3937    0.1395   -9.8089 C   0  0  0  0  0  0  0  0  0  0  0  0
   -6.8401    0.7019   -9.9397 C   0  0  0  0  0  0  0  0  0  0  0  0
   -7.6854   -0.4495  -10.4276 C   0  0  0  0  0  0  0  0  0  0  0  0
   -7.7741   -1.3110   -9.4081 C   0  0  0  0  0  0  0  0  0  0  0  0
   -6.9862   -0.7124   -8.2677 C   0  0  0  0  0  0  0  0  0  0  0  0
   -7.3203    0.7512   -8.4983 C   0  0  0  0  0  0  0  0  0  0  0  0
   -5.4902   -0.8025   -8.6894 C   0  0  0  0  0  0  0  0  0  0  0  0
   -0.8262    3.7560   -3.6868 C   0  0  0  0  0  0  0  0  0  0  0  0
   -2.0435    3.7284   -2.4992 S   0  0  0  0  0  0  0  0  0  0  0  0
   -0.9400    3.4483   -1.2776 C   0  0  0  0  0  0  0  0  0  0  0  0
   -0.9847    3.0013    0.0068 C   0  0  0  0  0  0  0  0  0  0  0  0
   -2.0836    2.5967    0.7742 C   0  0  0  0  0  0  0  0  0  0  0  0
   -1.8521    1.8477    1.9599 C   0  0  0  0  0  0  0  0  0  0  0  0
   -2.9432    1.4339    2.6544 N   0  0  0  0  0  0  0  0  0  0  0  0
   -4.1371    2.0555    1.6872 S   0  0  0  0  0  0  0  0  0  0  0  0
   -3.3761    2.8180    0.4285 N   0  0  0  0  0  0  0  0  0  0  0  0
   -0.5353    1.5809    2.3334 C   0  0  0  0  0  0  0  0  0  0  0  0
   -0.0308    0.9370    3.4194 C   0  0  0  0  0  0  0  0  0  0  0  0
   -0.5748    0.1309    4.8098 S   0  0  0  0  0  0  0  0  0  0  0  0
    1.0349   -0.0637    5.3435 C   0  0  0  0  0  0  0  0  0  0  0  0
    1.6117   -0.7250    6.4267 C   0  0  0  0  0  0  0  0  0  0  0  0
    0.8303   -1.3926    7.5204 C   0  0  0  0  0  0  0  0  0  0  0  0
    0.6198   -0.4339    8.6875 C   0  0  0  0  0  0  0  0  0  0  0  0
    3.0137   -0.6717    6.3555 C   0  0  0  0  0  0  0  0  0  0  0  0
    3.5023    0.2093    4.9761 S   0  0  0  0  0  0  0  0  0  0  0  0
    1.9295    0.5077    4.4756 C   0  0  0  0  0  0  0  0  0  0  0  0
    1.3108    1.0784    3.3738 C   0  0  0  0  0  0  0  0  0  0  0  0
    1.7437    1.8192    2.3208 N   0  0  0  0  0  0  0  0  0  0  0  0
    0.5806    2.0587    1.6139 C   0  0  0  0  0  0  0  0  0  0  0  0
    0.3447    2.7124    0.3583 C   0  0  0  0  0  0  0  0  0  0  0  0
    1.1662    2.8998   -0.7353 N   0  0  0  0  0  0  0  0  0  0  0  0
    0.3309    3.3450   -1.7238 C   0  0  0  0  0  0  0  0  0  0  0  0
    0.4460    3.5114   -3.1260 C   0  0  0  0  0  0  0  0  0  0  0  0
    1.6618    3.2985   -3.9966 C   0  0  0  0  0  0  0  0  0  0  0  0
    1.6799    1.8887   -4.5803 C   0  0  0  0  0  0  0  0  0  0  0  0
    2.5568    2.4780   -0.9065 C   0  0  0  0  0  0  0  0  0  0  0  0
    3.5026    3.6854   -0.8697 C   0  0  0  0  0  0  0  0  0  0  0  0
    2.9175    2.7014    2.4425 C   0  0  0  0  0  0  0  0  0  0  0  0
    2.4997    4.1493    2.7081 C   0  0  0  0  0  0  0  0  0  0  0  0
    3.9366   -1.2734    7.3294 C   0  0  0  0  0  0  0  0  0  0  0  0
    4.8189   -2.2569    7.0349 C   0  0  0  0  0  0  0  0  0  0  0  0
    4.8626   -2.9013    5.6958 C   0  0  0  0  0  0  0  0  0  0  0  0
    3.8419   -2.9157    4.9541 O   0  0  0  0  0  0  0  0  0  0  0  0
    6.0616   -3.5662    5.2708 N   0  0  0  0  0  0  0  0  0  0  0  0
    6.1853   -4.0680    3.8938 C   0  0  0  0  0  0  0  0  0  0  0  0
    5.5856   -5.4638    3.7724 C   0  0  0  0  0  0  0  0  0  0  0  0
    7.0951   -3.8159    6.2410 C   0  0  0  0  0  0  0  0  0  0  0  0
    8.1568   -4.4008    5.8949 O   0  0  0  0  0  0  0  0  0  0  0  0
    6.9153   -3.4114    7.6546 C   0  0  0  0  0  0  0  0  0  0  0  0
    5.8134   -2.7284    8.0553 C   0  0  0  0  0  0  0  0  0  0  0  0
    5.5983   -2.3965    9.5208 C   0  0  0  0  0  0  0  0  0  0  0  0
    7.9680   -3.7655    8.5850 C   0  0  0  0  0  0  0  0  0  0  0  0
    8.8165   -4.0450    9.3239 N   0  0  0  0  0  0  0  0  0  0  0  0
   -0.7744    5.0035   -5.4535 H   0  0  0  0  0  0  0  0  0  0  0  0
   -3.9410   -0.4643   -5.8929 H   0  0  0  0  0  0  0  0  0  0  0  0
   -3.6417    2.7870   -9.8116 H   0  0  0  0  0  0  0  0  0  0  0  0
   -4.9564   -0.2882  -10.7387 H   0  0  0  0  0  0  0  0  0  0  0  0
   -6.9386    1.6448  -10.5182 H   0  0  0  0  0  0  0  0  0  0  0  0
   -8.1947   -0.5345  -11.3805 H   0  0  0  0  0  0  0  0  0  0  0  0
   -8.3730   -2.2141   -9.3931 H   0  0  0  0  0  0  0  0  0  0  0  0
   -7.2290   -1.1118   -7.2629 H   0  0  0  0  0  0  0  0  0  0  0  0
   -6.7531    1.4553   -7.8501 H   0  0  0  0  0  0  0  0  0  0  0  0
   -8.4113    0.9783   -8.4037 H   0  0  0  0  0  0  0  0  0  0  0  0
   -5.1125   -1.8257   -8.9116 H   0  0  0  0  0  0  0  0  0  0  0  0
    1.3716   -2.2967    7.8788 H   0  0  0  0  0  0  0  0  0  0  0  0
   -0.1579   -1.7243    7.1336 H   0  0  0  0  0  0  0  0  0  0  0  0
    1.5963   -0.1787    9.1530 H   0  0  0  0  0  0  0  0  0  0  0  0
    0.1264    0.4959    8.3427 H   0  0  0  0  0  0  0  0  0  0  0  0
   -0.0207   -0.9153    9.4554 H   0  0  0  0  0  0  0  0  0  0  0  0
    1.6468    4.0276   -4.8343 H   0  0  0  0  0  0  0  0  0  0  0  0
    2.6033    3.4900   -3.4663 H   0  0  0  0  0  0  0  0  0  0  0  0
    0.8249    1.7462   -5.2752 H   0  0  0  0  0  0  0  0  0  0  0  0
    2.6208    1.7342   -5.1492 H   0  0  0  0  0  0  0  0  0  0  0  0
    1.6178    1.1267   -3.7754 H   0  0  0  0  0  0  0  0  0  0  0  0
    2.6765    1.9421   -1.8650 H   0  0  0  0  0  0  0  0  0  0  0  0
    2.8271    1.7109   -0.1562 H   0  0  0  0  0  0  0  0  0  0  0  0
    3.2416    4.4346   -1.6410 H   0  0  0  0  0  0  0  0  0  0  0  0
    3.4479    4.2213    0.0934 H   0  0  0  0  0  0  0  0  0  0  0  0
    4.5471    3.3470   -1.0344 H   0  0  0  0  0  0  0  0  0  0  0  0
    3.5924    2.6152    1.5849 H   0  0  0  0  0  0  0  0  0  0  0  0
    3.5474    2.3916    3.2975 H   0  0  0  0  0  0  0  0  0  0  0  0
    1.9273    4.5556    1.8513 H   0  0  0  0  0  0  0  0  0  0  0  0
    1.8693    4.2001    3.6200 H   0  0  0  0  0  0  0  0  0  0  0  0
    3.4003    4.7787    2.8570 H   0  0  0  0  0  0  0  0  0  0  0  0
    3.8971   -0.8455    8.3197 H   0  0  0  0  0  0  0  0  0  0  0  0
    7.2494   -4.0991    3.5841 H   0  0  0  0  0  0  0  0  0  0  0  0
    5.6704   -3.3807    3.1896 H   0  0  0  0  0  0  0  0  0  0  0  0
    5.6873   -5.8228    2.7270 H   0  0  0  0  0  0  0  0  0  0  0  0
    6.1091   -6.1681    4.4496 H   0  0  0  0  0  0  0  0  0  0  0  0
    4.5090   -5.4409    4.0337 H   0  0  0  0  0  0  0  0  0  0  0  0
    5.9628   -1.3681    9.7299 H   0  0  0  0  0  0  0  0  0  0  0  0
    6.1147   -3.1053   10.2007 H   0  0  0  0  0  0  0  0  0  0  0  0
    4.5223   -2.4710    9.7824 H   0  0  0  0  0  0  0  0  0  0  0  0
  1  2  2  3
  2  3  1  0
  3  4  2  0
  3  5  1  0
  5  6  2  0
  6  7  1  0
  7  8  2  0
  8  9  1  0
  9 10  2  0
 10 11  1  0
 11 12  2  3
 12 13  1  0
 13 14  3  0
 12 15  1  0
 15 16  3  0
  8 17  1  0
 17 18  1  0
 18 19  1  0
 19 20  2  0
 20 21  1  0
 21 22  1  0
 21 23  1  0
  1 24  1  0
 24 25  1  0
 25 26  1  0
 26 27  1  0
 27 28  1  0
 28 29  1  0
 29 30  2  0
 30 31  1  0
 31 32  1  0
 29 33  1  0
 33 34  1  0
 34 35  1  0
 35 36  1  0
 36 37  1  0
 37 38  1  0
 38 39  1  0
 37 40  2  0
 40 41  1  0
 41 42  1  0
 42 43  1  0
 43 44  1  0
 44 45  1  0
 45 46  1  0
 46 47  1  0
 47 48  1  0
 48 49  1  0
 49 50  1  0
 50 51  1  0
 47 52  1  0
 52 53  1  0
 44 54  1  0
 54 55  1  0
 40 56  1  0
 56 57  2  3
 57 58  1  0
 58 59  2  0
 58 60  1  0
 60 61  1  0
 61 62  1  0
 60 63  1  0
 63 64  2  0
 63 65  1  0
 65 66  2  0
 66 67  1  0
 65 68  1  0
 68 69  3  0
 11  2  1  0
 23 17  1  0
 49 24  2  0
 66 57  1  0
 10  5  1  0
 22 18  1  0
 48 26  2  0
 23  7  1  0
 46 27  2  0
 32 28  2  0
 45 33  2  0
 43 34  2  0
 42 36  2  0
  1 70  1  0
  6 71  1  0
  9 72  1  0
 17 73  1  0
 18 74  1  0
 19 75  1  0
 20 76  1  0
 21 77  1  0
 22 78  1  0
 22 79  1  0
 23 80  1  0
 38 81  1  0
 38 82  1  0
 39 83  1  0
 39 84  1  0
 39 85  1  0
 50 86  1  0
 50 87  1  0
 51 88  1  0
 51 89  1  0
 51 90  1  0
 52 91  1  0
 52 92  1  0
 53 93  1  0
 53 94  1  0
 53 95  1  0
 54 96  1  0
 54 97  1  0
 55 98  1  0
 55 99  1  0
 55100  1  0
 56101  1  0
 61102  1  0
 61103  1  0
 62104  1  0
 62105  1  0
 62106  1  0
 67107  1  0
 67108  1  0
 67109  1  0
M  END

