
     RDKit          3D

131147  0  0  0  0  0  0  0  0999 V2000
    3.4850   -4.8253   -4.0053 C   0  0  0  0  0  0  0  0  0  0  0  0
    4.7770   -4.5742   -4.2860 C   0  0  0  0  0  0  0  0  0  0  0  0
    5.4285   -5.1770   -5.4491 C   0  0  0  0  0  0  0  0  0  0  0  0
    5.1384   -6.2885   -5.9630 O   0  0  0  0  0  0  0  0  0  0  0  0
    6.4092   -4.2416   -5.9624 C   0  0  0  0  0  0  0  0  0  0  0  0
    7.1758   -4.3583   -7.1442 C   0  0  0  0  0  0  0  0  0  0  0  0
    7.9958   -3.2700   -7.3876 C   0  0  0  0  0  0  0  0  0  0  0  0
    8.0517   -2.1229   -6.5279 C   0  0  0  0  0  0  0  0  0  0  0  0
    7.2887   -1.9953   -5.3784 C   0  0  0  0  0  0  0  0  0  0  0  0
    6.4594   -3.1155   -5.1003 C   0  0  0  0  0  0  0  0  0  0  0  0
    5.5676   -3.3620   -3.9383 C   0  0  0  0  0  0  0  0  0  0  0  0
    5.8526   -2.9826   -2.6705 C   0  0  0  0  0  0  0  0  0  0  0  0
    5.5114   -3.8234   -1.5496 C   0  0  0  0  0  0  0  0  0  0  0  0
    5.2403   -4.4960   -0.6450 N   0  0  0  0  0  0  0  0  0  0  0  0
    6.6580   -1.8259   -2.3699 C   0  0  0  0  0  0  0  0  0  0  0  0
    7.2889   -0.8917   -2.1140 N   0  0  0  0  0  0  0  0  0  0  0  0
    9.0588   -1.4758   -7.4297 C   0  0  0  0  0  0  0  0  0  0  0  0
    8.5405   -0.3182   -8.3322 C   0  0  0  0  0  0  0  0  0  0  0  0
    9.5985   -0.1115   -9.3897 C   0  0  0  0  0  0  0  0  0  0  0  0
    9.5471   -1.1820  -10.1917 C   0  0  0  0  0  0  0  0  0  0  0  0
    8.4553   -2.0731   -9.6495 C   0  0  0  0  0  0  0  0  0  0  0  0
    7.4856   -0.9967   -9.1904 C   0  0  0  0  0  0  0  0  0  0  0  0
    9.0028   -2.6487   -8.3099 C   0  0  0  0  0  0  0  0  0  0  0  0
    2.5302   -3.8037   -3.5208 C   0  0  0  0  0  0  0  0  0  0  0  0
    1.4238   -3.3274   -4.2586 C   0  0  0  0  0  0  0  0  0  0  0  0
    1.0433   -3.7694   -5.6143 C   0  0  0  0  0  0  0  0  0  0  0  0
    0.7205   -5.1134   -5.8581 C   0  0  0  0  0  0  0  0  0  0  0  0
    0.3336   -5.5244   -7.1364 C   0  0  0  0  0  0  0  0  0  0  0  0
    0.2640   -4.5965   -8.1878 C   0  0  0  0  0  0  0  0  0  0  0  0
   -0.1705   -5.0345   -9.5621 C   0  0  0  0  0  0  0  0  0  0  0  0
   -1.6650   -4.8048   -9.7636 C   0  0  0  0  0  0  0  0  0  0  0  0
    0.5563   -3.2479   -7.9354 C   0  0  0  0  0  0  0  0  0  0  0  0
    0.9420   -2.8360   -6.6561 C   0  0  0  0  0  0  0  0  0  0  0  0
    0.6984   -2.3870   -3.5288 C   0  0  0  0  0  0  0  0  0  0  0  0
   -0.7250   -1.4931   -3.8422 S   0  0  0  0  0  0  0  0  0  0  0  0
   -0.6760   -0.8367   -2.2771 C   0  0  0  0  0  0  0  0  0  0  0  0
   -1.3259    0.0894   -1.5117 C   0  0  0  0  0  0  0  0  0  0  0  0
   -2.3766    0.9699   -1.7898 C   0  0  0  0  0  0  0  0  0  0  0  0
   -2.7594    1.9121   -0.7876 C   0  0  0  0  0  0  0  0  0  0  0  0
   -3.7945    2.7357   -1.0858 N   0  0  0  0  0  0  0  0  0  0  0  0
   -4.1339    2.2163   -2.6225 S   0  0  0  0  0  0  0  0  0  0  0  0
   -3.0632    0.9972   -2.9595 N   0  0  0  0  0  0  0  0  0  0  0  0
   -2.0914    1.8963    0.4463 C   0  0  0  0  0  0  0  0  0  0  0  0
   -2.4088    2.4700    1.6447 C   0  0  0  0  0  0  0  0  0  0  0  0
   -3.7261    3.3341    2.2811 S   0  0  0  0  0  0  0  0  0  0  0  0
   -3.3010    2.8722    3.8678 C   0  0  0  0  0  0  0  0  0  0  0  0
   -3.8697    3.0921    5.1253 C   0  0  0  0  0  0  0  0  0  0  0  0
   -5.0523    3.9474    5.3696 C   0  0  0  0  0  0  0  0  0  0  0  0
   -5.0256    4.9228    6.3797 C   0  0  0  0  0  0  0  0  0  0  0  0
   -6.1401    5.7335    6.6081 C   0  0  0  0  0  0  0  0  0  0  0  0
   -7.3051    5.5695    5.8431 C   0  0  0  0  0  0  0  0  0  0  0  0
   -8.4948    6.4650    6.0680 C   0  0  0  0  0  0  0  0  0  0  0  0
   -8.4391    7.6819    5.1506 C   0  0  0  0  0  0  0  0  0  0  0  0
   -7.3322    4.5963    4.8314 C   0  0  0  0  0  0  0  0  0  0  0  0
   -6.2157    3.7883    4.5996 C   0  0  0  0  0  0  0  0  0  0  0  0
   -3.1533    2.3922    6.1192 C   0  0  0  0  0  0  0  0  0  0  0  0
   -1.8536    1.5369    5.4254 S   0  0  0  0  0  0  0  0  0  0  0  0
   -2.2028    2.0514    3.8692 C   0  0  0  0  0  0  0  0  0  0  0  0
   -1.6929    1.8184    2.6003 C   0  0  0  0  0  0  0  0  0  0  0  0
   -0.9194    0.8222    2.0945 N   0  0  0  0  0  0  0  0  0  0  0  0
   -1.0957    0.9521    0.7411 C   0  0  0  0  0  0  0  0  0  0  0  0
   -0.6319    0.1109   -0.2935 C   0  0  0  0  0  0  0  0  0  0  0  0
    0.4901   -0.6755   -0.3436 N   0  0  0  0  0  0  0  0  0  0  0  0
    0.3851   -1.2733   -1.5551 C   0  0  0  0  0  0  0  0  0  0  0  0
    1.1772   -2.1501   -2.2699 C   0  0  0  0  0  0  0  0  0  0  0  0
    2.5339   -3.0764   -1.9757 S   0  0  0  0  0  0  0  0  0  0  0  0
    1.7502   -0.4861    0.3908 C   0  0  0  0  0  0  0  0  0  0  0  0
    2.7444    0.3371   -0.4269 C   0  0  0  0  0  0  0  0  0  0  0  0
   -0.6671   -0.4400    2.8105 C   0  0  0  0  0  0  0  0  0  0  0  0
   -1.9530   -1.2550    2.9511 C   0  0  0  0  0  0  0  0  0  0  0  0
   -3.4613    2.3488    7.5533 C   0  0  0  0  0  0  0  0  0  0  0  0
   -4.6049    1.8435    8.0511 C   0  0  0  0  0  0  0  0  0  0  0  0
   -5.5757    1.0320    7.3038 C   0  0  0  0  0  0  0  0  0  0  0  0
   -5.6127    0.8693    6.0552 O   0  0  0  0  0  0  0  0  0  0  0  0
   -6.4279    0.3460    8.2542 C   0  0  0  0  0  0  0  0  0  0  0  0
   -7.4115   -0.6145    7.9997 C   0  0  0  0  0  0  0  0  0  0  0  0
   -7.7473   -0.9600    6.6920 O   0  0  0  0  0  0  0  0  0  0  0  0
   -8.0425   -1.2282    9.0945 C   0  0  0  0  0  0  0  0  0  0  0  0
   -7.6581   -0.9010   10.4038 C   0  0  0  0  0  0  0  0  0  0  0  0
   -6.6601    0.0571   10.6366 C   0  0  0  0  0  0  0  0  0  0  0  0
   -6.0633    0.7044    9.5415 C   0  0  0  0  0  0  0  0  0  0  0  0
   -4.9791    1.7286    9.4938 C   0  0  0  0  0  0  0  0  0  0  0  0
   -4.5852    2.5500   10.5035 C   0  0  0  0  0  0  0  0  0  0  0  0
   -3.6880    3.6543   10.2911 C   0  0  0  0  0  0  0  0  0  0  0  0
   -2.9729    4.5508   10.1300 N   0  0  0  0  0  0  0  0  0  0  0  0
   -5.1059    2.4427   11.8403 C   0  0  0  0  0  0  0  0  0  0  0  0
   -5.5185    2.3748   12.9194 N   0  0  0  0  0  0  0  0  0  0  0  0
    3.0428   -5.6957   -4.4678 H   0  0  0  0  0  0  0  0  0  0  0  0
    7.1193   -5.2107   -7.8098 H   0  0  0  0  0  0  0  0  0  0  0  0
    7.3293   -1.0999   -4.7783 H   0  0  0  0  0  0  0  0  0  0  0  0
   10.0467   -1.3067   -6.9447 H   0  0  0  0  0  0  0  0  0  0  0  0
    8.2183    0.6001   -7.7991 H   0  0  0  0  0  0  0  0  0  0  0  0
   10.2190    0.7659   -9.5397 H   0  0  0  0  0  0  0  0  0  0  0  0
   10.1166   -1.3201  -11.1046 H   0  0  0  0  0  0  0  0  0  0  0  0
    8.0495   -2.8169  -10.3684 H   0  0  0  0  0  0  0  0  0  0  0  0
    6.6135   -1.3838   -8.6207 H   0  0  0  0  0  0  0  0  0  0  0  0
    7.1116   -0.3502  -10.0220 H   0  0  0  0  0  0  0  0  0  0  0  0
    9.9554   -3.2225   -8.3841 H   0  0  0  0  0  0  0  0  0  0  0  0
    0.7462   -5.8392   -5.0544 H   0  0  0  0  0  0  0  0  0  0  0  0
    0.0809   -6.5641   -7.3042 H   0  0  0  0  0  0  0  0  0  0  0  0
    0.0559   -6.1130   -9.7109 H   0  0  0  0  0  0  0  0  0  0  0  0
    0.3964   -4.4719  -10.3338 H   0  0  0  0  0  0  0  0  0  0  0  0
   -1.9040   -3.7227   -9.6753 H   0  0  0  0  0  0  0  0  0  0  0  0
   -2.2470   -5.3693   -9.0065 H   0  0  0  0  0  0  0  0  0  0  0  0
   -1.9616   -5.1515  -10.7753 H   0  0  0  0  0  0  0  0  0  0  0  0
    0.4808   -2.5140   -8.7285 H   0  0  0  0  0  0  0  0  0  0  0  0
    1.1641   -1.7908   -6.4783 H   0  0  0  0  0  0  0  0  0  0  0  0
   -4.1356    5.0702    6.9781 H   0  0  0  0  0  0  0  0  0  0  0  0
   -6.0961    6.4910    7.3818 H   0  0  0  0  0  0  0  0  0  0  0  0
   -8.5236    6.8065    7.1263 H   0  0  0  0  0  0  0  0  0  0  0  0
   -9.4373    5.9031    5.8783 H   0  0  0  0  0  0  0  0  0  0  0  0
   -8.4677    7.3651    4.0867 H   0  0  0  0  0  0  0  0  0  0  0  0
   -7.5086    8.2606    5.3344 H   0  0  0  0  0  0  0  0  0  0  0  0
   -9.3125    8.3391    5.3496 H   0  0  0  0  0  0  0  0  0  0  0  0
   -8.2210    4.4598    4.2273 H   0  0  0  0  0  0  0  0  0  0  0  0
   -6.2661    3.0276    3.8290 H   0  0  0  0  0  0  0  0  0  0  0  0
    2.1900   -1.4763    0.6349 H   0  0  0  0  0  0  0  0  0  0  0  0
    1.5871    0.0737    1.3307 H   0  0  0  0  0  0  0  0  0  0  0  0
    2.9726   -0.1516   -1.4012 H   0  0  0  0  0  0  0  0  0  0  0  0
    3.6939    0.4362    0.1392 H   0  0  0  0  0  0  0  0  0  0  0  0
    2.3282    1.3515   -0.6167 H   0  0  0  0  0  0  0  0  0  0  0  0
    0.0548   -1.0811    2.2774 H   0  0  0  0  0  0  0  0  0  0  0  0
   -0.2420   -0.2261    3.8129 H   0  0  0  0  0  0  0  0  0  0  0  0
   -1.7356   -2.2038    3.4827 H   0  0  0  0  0  0  0  0  0  0  0  0
   -2.7165   -0.6960    3.5264 H   0  0  0  0  0  0  0  0  0  0  0  0
   -2.3633   -1.4925    1.9457 H   0  0  0  0  0  0  0  0  0  0  0  0
   -2.6691    2.6586    8.2156 H   0  0  0  0  0  0  0  0  0  0  0  0
   -8.4581   -1.6565    6.4959 H   0  0  0  0  0  0  0  0  0  0  0  0
   -8.8088   -1.9751    8.9316 H   0  0  0  0  0  0  0  0  0  0  0  0
   -8.1252   -1.4037   11.2407 H   0  0  0  0  0  0  0  0  0  0  0  0
   -6.3553    0.2432   11.6519 H   0  0  0  0  0  0  0  0  0  0  0  0
  1  2  2  3
  2  3  1  0
  3  4  2  0
  3  5  1  0
  5  6  2  0
  6  7  1  0
  7  8  2  0
  8  9  1  0
  9 10  2  0
 10 11  1  0
 11 12  2  3
 12 13  1  0
 13 14  3  0
 12 15  1  0
 15 16  3  0
  8 17  1  0
 17 18  1  0
 18 19  1  0
 19 20  2  0
 20 21  1  0
 21 22  1  0
 21 23  1  0
  1 24  1  0
 24 25  2  0
 25 26  1  0
 26 27  2  0
 27 28  1  0
 28 29  2  0
 29 30  1  0
 30 31  1  0
 29 32  1  0
 32 33  2  0
 25 34  1  0
 34 35  1  0
 35 36  1  0
 36 37  1  0
 37 38  1  0
 38 39  1  0
 39 40  2  0
 40 41  1  0
 41 42  1  0
 39 43  1  0
 43 44  1  0
 44 45  1  0
 45 46  1  0
 46 47  1  0
 47 48  1  0
 48 49  2  0
 49 50  1  0
 50 51  2  0
 51 52  1  0
 52 53  1  0
 51 54  1  0
 54 55  2  0
 47 56  2  0
 56 57  1  0
 57 58  1  0
 58 59  1  0
 59 60  1  0
 60 61  1  0
 61 62  1  0
 62 63  1  0
 63 64  1  0
 64 65  1  0
 65 66  1  0
 63 67  1  0
 67 68  1  0
 60 69  1  0
 69 70  1  0
 56 71  1  0
 71 72  2  3
 72 73  1  0
 73 74  2  0
 73 75  1  0
 75 76  2  0
 76 77  1  0
 76 78  1  0
 78 79  2  0
 79 80  1  0
 80 81  2  0
 81 82  1  0
 82 83  2  3
 83 84  1  0
 84 85  3  0
 83 86  1  0
 86 87  3  0
 11  2  1  0
 23 17  1  0
 66 24  1  0
 82 72  1  0
 10  5  1  0
 22 18  1  0
 33 26  1  0
 65 34  2  0
 81 75  1  0
 23  7  1  0
 64 36  2  0
 62 37  2  0
 42 38  2  0
 61 43  2  0
 59 44  2  0
 58 46  2  0
 55 48  1  0
  1 88  1  0
  6 89  1  0
  9 90  1  0
 17 91  1  0
 18 92  1  0
 19 93  1  0
 20 94  1  0
 21 95  1  0
 22 96  1  0
 22 97  1  0
 23 98  1  0
 27 99  1  0
 28100  1  0
 30101  1  0
 30102  1  0
 31103  1  0
 31104  1  0
 31105  1  0
 32106  1  0
 33107  1  0
 49108  1  0
 50109  1  0
 52110  1  0
 52111  1  0
 53112  1  0
 53113  1  0
 53114  1  0
 54115  1  0
 55116  1  0
 67117  1  0
 67118  1  0
 68119  1  0
 68120  1  0
 68121  1  0
 69122  1  0
 69123  1  0
 70124  1  0
 70125  1  0
 70126  1  0
 71127  1  0
 77128  1  0
 78129  1  0
 79130  1  0
 80131  1  0
M  END

