
     RDKit          3D

104119  0  0  0  0  0  0  0  0999 V2000
   -3.5773    3.8189   -2.4059 C   0  0  0  0  0  0  0  0  0  0  0  0
   -4.6643    3.4637   -1.6995 C   0  0  0  0  0  0  0  0  0  0  0  0
   -4.7679    3.4205   -0.2335 C   0  0  0  0  0  0  0  0  0  0  0  0
   -3.8200    3.5007    0.5925 O   0  0  0  0  0  0  0  0  0  0  0  0
   -6.1722    3.4342    0.1240 C   0  0  0  0  0  0  0  0  0  0  0  0
   -6.7197    3.5035    1.4266 C   0  0  0  0  0  0  0  0  0  0  0  0
   -8.0972    3.6401    1.4488 C   0  0  0  0  0  0  0  0  0  0  0  0
   -8.8930    3.7278    0.2620 C   0  0  0  0  0  0  0  0  0  0  0  0
   -8.3652    3.6570   -1.0145 C   0  0  0  0  0  0  0  0  0  0  0  0
   -6.9545    3.4735   -1.0595 C   0  0  0  0  0  0  0  0  0  0  0  0
   -6.0549    3.3666   -2.2379 C   0  0  0  0  0  0  0  0  0  0  0  0
   -6.4032    2.9607   -3.4871 C   0  0  0  0  0  0  0  0  0  0  0  0
   -5.4199    2.5760   -4.4685 C   0  0  0  0  0  0  0  0  0  0  0  0
   -4.6338    2.2525   -5.2519 N   0  0  0  0  0  0  0  0  0  0  0  0
   -7.7690    2.7064   -3.8679 C   0  0  0  0  0  0  0  0  0  0  0  0
   -8.8607    2.4864   -4.1894 N   0  0  0  0  0  0  0  0  0  0  0  0
  -10.1365    3.8943    1.0857 C   0  0  0  0  0  0  0  0  0  0  0  0
  -11.1107    2.6830    1.1872 C   0  0  0  0  0  0  0  0  0  0  0  0
  -10.3393    1.3902    1.0676 C   0  0  0  0  0  0  0  0  0  0  0  0
   -9.5930    1.2874    2.1673 C   0  0  0  0  0  0  0  0  0  0  0  0
   -9.8851    2.5125    3.0038 C   0  0  0  0  0  0  0  0  0  0  0  0
  -11.3602    2.6740    2.6848 C   0  0  0  0  0  0  0  0  0  0  0  0
   -9.3233    3.7869    2.3020 C   0  0  0  0  0  0  0  0  0  0  0  0
   -2.1880    3.7941   -1.9072 C   0  0  0  0  0  0  0  0  0  0  0  0
   -1.1562    4.6374   -2.3703 C   0  0  0  0  0  0  0  0  0  0  0  0
   -1.3492    5.8150   -3.2837 C   0  0  0  0  0  0  0  0  0  0  0  0
   -1.2081    5.4031   -4.7470 C   0  0  0  0  0  0  0  0  0  0  0  0
    0.0943    4.1744   -1.9565 C   0  0  0  0  0  0  0  0  0  0  0  0
    0.0716    3.0231   -1.2095 C   0  0  0  0  0  0  0  0  0  0  0  0
   -1.5074    2.4991   -1.0236 S   0  0  0  0  0  0  0  0  0  0  0  0
    1.3455    2.5590   -0.9019 C   0  0  0  0  0  0  0  0  0  0  0  0
    2.3070    3.3740   -1.3908 C   0  0  0  0  0  0  0  0  0  0  0  0
    1.6910    4.7092   -2.2395 S   0  0  0  0  0  0  0  0  0  0  0  0
    3.4980    2.9248   -0.9090 C   0  0  0  0  0  0  0  0  0  0  0  0
    4.7741    3.4912   -0.9586 C   0  0  0  0  0  0  0  0  0  0  0  0
    5.0834    4.6187   -1.6465 N   0  0  0  0  0  0  0  0  0  0  0  0
    6.7026    4.7144   -1.3088 S   0  0  0  0  0  0  0  0  0  0  0  0
    7.0593    3.4213   -0.3334 N   0  0  0  0  0  0  0  0  0  0  0  0
    5.8301    2.8568   -0.2443 C   0  0  0  0  0  0  0  0  0  0  0  0
    5.5498    1.6862    0.4690 C   0  0  0  0  0  0  0  0  0  0  0  0
    6.3904    0.7907    1.0588 C   0  0  0  0  0  0  0  0  0  0  0  0
    8.0637    0.5443    1.2206 S   0  0  0  0  0  0  0  0  0  0  0  0
    7.7915   -1.0506    1.7598 C   0  0  0  0  0  0  0  0  0  0  0  0
    8.6405   -2.0687    2.1828 C   0  0  0  0  0  0  0  0  0  0  0  0
    7.9211   -3.2190    2.5461 C   0  0  0  0  0  0  0  0  0  0  0  0
    6.2454   -2.9120    2.3737 S   0  0  0  0  0  0  0  0  0  0  0  0
    6.4571   -1.3595    1.7794 C   0  0  0  0  0  0  0  0  0  0  0  0
    5.6557   -0.3011    1.3697 C   0  0  0  0  0  0  0  0  0  0  0  0
    4.3513   -0.1920    0.9965 N   0  0  0  0  0  0  0  0  0  0  0  0
    3.5357   -1.3581    0.6354 C   0  0  0  0  0  0  0  0  0  0  0  0
    3.5626   -1.6062   -0.8716 C   0  0  0  0  0  0  0  0  0  0  0  0
    4.2718    1.0896    0.4910 C   0  0  0  0  0  0  0  0  0  0  0  0
    3.1994    1.7705   -0.1603 C   0  0  0  0  0  0  0  0  0  0  0  0
    1.8376    1.5731   -0.1085 N   0  0  0  0  0  0  0  0  0  0  0  0
    1.0599    0.9113    0.9432 C   0  0  0  0  0  0  0  0  0  0  0  0
    0.2388   -0.2536    0.3830 C   0  0  0  0  0  0  0  0  0  0  0  0
    8.5477   -4.3691    3.2313 C   0  0  0  0  0  0  0  0  0  0  0  0
    8.0279   -5.6078    3.3663 C   0  0  0  0  0  0  0  0  0  0  0  0
    6.9089   -6.1916    2.5785 C   0  0  0  0  0  0  0  0  0  0  0  0
    6.3199   -5.6819    1.5908 O   0  0  0  0  0  0  0  0  0  0  0  0
    6.7556   -7.5615    3.0049 C   0  0  0  0  0  0  0  0  0  0  0  0
    7.7012   -7.8767    3.9296 C   0  0  0  0  0  0  0  0  0  0  0  0
    7.5315   -9.4932    4.4519 S   0  0  0  0  0  0  0  0  0  0  0  0
    6.2088   -9.7495    3.4208 C   0  0  0  0  0  0  0  0  0  0  0  0
    5.3707  -10.8314    3.1759 C   0  0  0  0  0  0  0  0  0  0  0  0
    4.3946  -10.4983    2.2266 C   0  0  0  0  0  0  0  0  0  0  0  0
    4.5920   -8.8774    1.7211 S   0  0  0  0  0  0  0  0  0  0  0  0
    5.9172   -8.6206    2.7130 C   0  0  0  0  0  0  0  0  0  0  0  0
    8.5557   -6.7191    4.2463 C   0  0  0  0  0  0  0  0  0  0  0  0
    9.5171   -6.6997    5.2040 C   0  0  0  0  0  0  0  0  0  0  0  0
   10.2400   -5.5147    5.5813 C   0  0  0  0  0  0  0  0  0  0  0  0
   10.8316   -4.5699    5.8923 N   0  0  0  0  0  0  0  0  0  0  0  0
    9.8649   -7.8910    5.9369 C   0  0  0  0  0  0  0  0  0  0  0  0
   10.1523   -8.8429    6.5310 N   0  0  0  0  0  0  0  0  0  0  0  0
   -3.7030    4.1346   -3.4301 H   0  0  0  0  0  0  0  0  0  0  0  0
   -6.1176    3.4827    2.3262 H   0  0  0  0  0  0  0  0  0  0  0  0
   -8.9945    3.7690   -1.8793 H   0  0  0  0  0  0  0  0  0  0  0  0
  -10.6291    4.8850    0.9637 H   0  0  0  0  0  0  0  0  0  0  0  0
  -12.0177    2.7536    0.5526 H   0  0  0  0  0  0  0  0  0  0  0  0
  -10.4315    0.6397    0.2902 H   0  0  0  0  0  0  0  0  0  0  0  0
   -8.9753    0.4384    2.4367 H   0  0  0  0  0  0  0  0  0  0  0  0
   -9.6357    2.4155    4.0804 H   0  0  0  0  0  0  0  0  0  0  0  0
  -11.7984    3.6237    3.0711 H   0  0  0  0  0  0  0  0  0  0  0  0
  -11.9863    1.8166    3.0249 H   0  0  0  0  0  0  0  0  0  0  0  0
   -9.3326    4.7099    2.9256 H   0  0  0  0  0  0  0  0  0  0  0  0
   -2.3514    6.2646   -3.1175 H   0  0  0  0  0  0  0  0  0  0  0  0
   -0.5967    6.5978   -3.0496 H   0  0  0  0  0  0  0  0  0  0  0  0
   -1.4524    6.2637   -5.4004 H   0  0  0  0  0  0  0  0  0  0  0  0
   -0.1675    5.0712   -4.9585 H   0  0  0  0  0  0  0  0  0  0  0  0
   -1.9025    4.5740   -4.9911 H   0  0  0  0  0  0  0  0  0  0  0  0
    9.7144   -1.9702    2.2550 H   0  0  0  0  0  0  0  0  0  0  0  0
    2.5132   -1.2683    1.0080 H   0  0  0  0  0  0  0  0  0  0  0  0
    3.9161   -2.2660    1.1376 H   0  0  0  0  0  0  0  0  0  0  0  0
    3.0038   -2.5355   -1.1086 H   0  0  0  0  0  0  0  0  0  0  0  0
    3.0999   -0.7598   -1.4250 H   0  0  0  0  0  0  0  0  0  0  0  0
    4.6109   -1.7319   -1.2174 H   0  0  0  0  0  0  0  0  0  0  0  0
    0.3698    1.6433    1.4137 H   0  0  0  0  0  0  0  0  0  0  0  0
    1.7255    0.5800    1.7647 H   0  0  0  0  0  0  0  0  0  0  0  0
    0.0159   -0.9776    1.1937 H   0  0  0  0  0  0  0  0  0  0  0  0
    0.7837   -0.7735   -0.4299 H   0  0  0  0  0  0  0  0  0  0  0  0
   -0.7226    0.1023   -0.0294 H   0  0  0  0  0  0  0  0  0  0  0  0
    9.5063   -4.1513    3.6649 H   0  0  0  0  0  0  0  0  0  0  0  0
    5.4565  -11.7967    3.6577 H   0  0  0  0  0  0  0  0  0  0  0  0
    3.6261  -11.1735    1.8706 H   0  0  0  0  0  0  0  0  0  0  0  0
  1  2  2  3
  2  3  1  0
  3  4  2  0
  3  5  1  0
  5  6  2  0
  6  7  1  0
  7  8  2  0
  8  9  1  0
  9 10  2  0
 10 11  1  0
 11 12  2  3
 12 13  1  0
 13 14  3  0
 12 15  1  0
 15 16  3  0
  8 17  1  0
 17 18  1  0
 18 19  1  0
 19 20  2  0
 20 21  1  0
 21 22  1  0
 21 23  1  0
  1 24  1  0
 24 25  2  0
 25 26  1  0
 26 27  1  0
 25 28  1  0
 28 29  2  0
 29 30  1  0
 29 31  1  0
 31 32  2  0
 32 33  1  0
 32 34  1  0
 34 35  1  0
 35 36  2  0
 36 37  1  0
 37 38  1  0
 38 39  2  0
 39 40  1  0
 40 41  1  0
 41 42  1  0
 42 43  1  0
 43 44  1  0
 44 45  2  0
 45 46  1  0
 46 47  1  0
 47 48  1  0
 48 49  1  0
 49 50  1  0
 50 51  1  0
 49 52  1  0
 52 53  1  0
 53 54  1  0
 54 55  1  0
 55 56  1  0
 45 57  1  0
 57 58  2  3
 58 59  1  0
 59 60  2  0
 59 61  1  0
 61 62  2  0
 62 63  1  0
 63 64  1  0
 64 65  1  0
 65 66  2  0
 66 67  1  0
 67 68  1  0
 62 69  1  0
 69 70  2  3
 70 71  1  0
 71 72  3  0
 70 73  1  0
 73 74  3  0
 11  2  1  0
 23 17  1  0
 30 24  1  0
 54 31  1  0
 69 58  1  0
 10  5  1  0
 22 18  1  0
 33 28  1  0
 53 34  2  0
 68 61  1  0
 23  7  1  0
 39 35  1  0
 52 40  2  0
 68 64  2  0
 48 41  2  0
 47 43  2  0
  1 75  1  0
  6 76  1  0
  9 77  1  0
 17 78  1  0
 18 79  1  0
 19 80  1  0
 20 81  1  0
 21 82  1  0
 22 83  1  0
 22 84  1  0
 23 85  1  0
 26 86  1  0
 26 87  1  0
 27 88  1  0
 27 89  1  0
 27 90  1  0
 44 91  1  0
 50 92  1  0
 50 93  1  0
 51 94  1  0
 51 95  1  0
 51 96  1  0
 55 97  1  0
 55 98  1  0
 56 99  1  0
 56100  1  0
 56101  1  0
 57102  1  0
 65103  1  0
 66104  1  0
M  END

