
     RDKit          3D

100112  0  0  0  0  0  0  0  0999 V2000
    5.6341    3.7499   -2.3878 C   0  0  0  0  0  0  0  0  0  0  0  0
    5.0158    4.4393   -1.4286 C   0  0  0  0  0  0  0  0  0  0  0  0
    3.8538    4.1105   -0.6011 C   0  0  0  0  0  0  0  0  0  0  0  0
    3.3608    2.9336   -0.4900 O   0  0  0  0  0  0  0  0  0  0  0  0
    3.3703    5.2617    0.0406 C   0  0  0  0  0  0  0  0  0  0  0  0
    2.2687    5.5319    1.0378 C   0  0  0  0  0  0  0  0  0  0  0  0
    2.1184    6.6626    1.5107 C   0  0  0  0  0  0  0  0  0  0  0  0
    2.8511    7.7881    1.2427 C   0  0  0  0  0  0  0  0  0  0  0  0
    3.8846    7.6528    0.3122 C   0  0  0  0  0  0  0  0  0  0  0  0
    4.1020    6.3407   -0.2735 C   0  0  0  0  0  0  0  0  0  0  0  0
    5.1718    5.9581   -1.2043 C   0  0  0  0  0  0  0  0  0  0  0  0
    6.1316    6.5634   -1.7683 C   0  0  0  0  0  0  0  0  0  0  0  0
    6.1772    8.1811   -1.5763 C   0  0  0  0  0  0  0  0  0  0  0  0
    6.1952    9.1481   -1.4620 N   0  0  0  0  0  0  0  0  0  0  0  0
    7.2351    6.2283   -2.5808 C   0  0  0  0  0  0  0  0  0  0  0  0
    8.0903    5.9857   -3.2196 N   0  0  0  0  0  0  0  0  0  0  0  0
    2.1247    8.5350    2.2912 C   0  0  0  0  0  0  0  0  0  0  0  0
    2.7125    8.4733    3.6964 C   0  0  0  0  0  0  0  0  0  0  0  0
    1.7096    8.9012    4.6958 C   0  0  0  0  0  0  0  0  0  0  0  0
    0.7078    8.0204    4.7023 C   0  0  0  0  0  0  0  0  0  0  0  0
    1.1319    6.9152    3.7911 C   0  0  0  0  0  0  0  0  0  0  0  0
    2.6424    6.9561    3.9774 C   0  0  0  0  0  0  0  0  0  0  0  0
    1.0724    7.4710    2.4031 C   0  0  0  0  0  0  0  0  0  0  0  0
    5.0772    2.4386   -2.6909 C   0  0  0  0  0  0  0  0  0  0  0  0
    4.1273    2.1635   -4.4540 Se  0  0  0  0  0  2  0  0  0  0  0  0
    3.4552    0.5522   -3.8970 C   0  0  0  0  0  0  0  0  0  0  0  0
    2.4881   -0.3817   -4.2109 C   0  0  0  0  0  0  0  0  0  0  0  0
    1.6058   -0.5050   -5.2890 C   0  0  0  0  0  0  0  0  0  0  0  0
    0.5774   -1.4112   -5.2165 C   0  0  0  0  0  0  0  0  0  0  0  0
   -0.2041   -1.4856   -6.2842 N   0  0  0  0  0  0  0  0  0  0  0  0
    0.4348   -0.3497   -7.3532 S   0  0  0  0  0  0  0  0  0  0  0  0
    1.6821    0.1941   -6.4266 N   0  0  0  0  0  0  0  0  0  0  0  0
    0.4872   -2.1486   -4.0281 C   0  0  0  0  0  0  0  0  0  0  0  0
   -0.6066   -2.9333   -3.6157 C   0  0  0  0  0  0  0  0  0  0  0  0
   -2.1596   -3.5290   -4.0117 S   0  0  0  0  0  0  0  0  0  0  0  0
   -2.5499   -4.2703   -2.4587 C   0  0  0  0  0  0  0  0  0  0  0  0
   -3.5876   -4.9027   -1.7869 C   0  0  0  0  0  0  0  0  0  0  0  0
   -4.8337   -5.1858   -2.6358 C   0  0  0  0  0  0  0  0  0  0  0  0
   -4.5499   -6.3967   -3.5072 C   0  0  0  0  0  0  0  0  0  0  0  0
   -3.5287   -5.2293   -0.5211 C   0  0  0  0  0  0  0  0  0  0  0  0
   -1.8805   -4.6275   -0.2072 S   0  0  0  0  0  0  0  0  0  0  0  0
   -1.4942   -4.0181   -1.7781 C   0  0  0  0  0  0  0  0  0  0  0  0
   -0.4051   -3.3046   -2.3510 C   0  0  0  0  0  0  0  0  0  0  0  0
    0.8116   -2.7953   -1.9236 N   0  0  0  0  0  0  0  0  0  0  0  0
    1.3380   -2.0929   -2.9409 C   0  0  0  0  0  0  0  0  0  0  0  0
    2.3842   -1.1593   -3.0564 C   0  0  0  0  0  0  0  0  0  0  0  0
    3.2594   -0.7181   -2.1554 N   0  0  0  0  0  0  0  0  0  0  0  0
    3.9466    0.4064   -2.6854 C   0  0  0  0  0  0  0  0  0  0  0  0
    4.7446    1.3274   -2.0799 C   0  0  0  0  0  0  0  0  0  0  0  0
    3.6150   -1.2576   -0.8599 C   0  0  0  0  0  0  0  0  0  0  0  0
    3.1472   -0.4481    0.2872 C   0  0  0  0  0  0  0  0  0  0  0  0
    1.2976   -3.0513   -0.6117 C   0  0  0  0  0  0  0  0  0  0  0  0
    2.0050   -4.4045   -0.6366 C   0  0  0  0  0  0  0  0  0  0  0  0
   -4.2215   -5.7821    0.6154 C   0  0  0  0  0  0  0  0  0  0  0  0
   -5.4886   -6.0541    0.8673 C   0  0  0  0  0  0  0  0  0  0  0  0
   -6.5732   -5.9205    0.1305 C   0  0  0  0  0  0  0  0  0  0  0  0
   -7.6949   -5.8029   -0.6447 N   0  0  0  0  0  0  0  0  0  0  0  0
   -5.5999   -6.3202    2.3649 C   0  0  0  0  0  0  0  0  0  0  0  0
   -6.7674   -6.6286    3.0146 C   0  0  0  0  0  0  0  0  0  0  0  0
   -7.8906   -6.7180    2.2674 C   0  0  0  0  0  0  0  0  0  0  0  0
   -8.9311   -6.8081    1.5549 N   0  0  0  0  0  0  0  0  0  0  0  0
   -6.7218   -6.6355    4.4686 C   0  0  0  0  0  0  0  0  0  0  0  0
   -6.6789   -6.6597    5.6523 N   0  0  0  0  0  0  0  0  0  0  0  0
   -4.3575   -6.1927    2.8744 O   0  0  0  0  0  0  0  0  0  0  0  0
   -3.4447   -6.3137    1.8093 C   0  0  0  0  0  0  0  0  0  0  0  0
   -2.2380   -5.4617    2.1585 C   0  0  0  0  0  0  0  0  0  0  0  0
   -3.0271   -7.7599    1.6161 C   0  0  0  0  0  0  0  0  0  0  0  0
    6.4785    4.0431   -2.8869 H   0  0  0  0  0  0  0  0  0  0  0  0
    1.7485    4.5674    1.1807 H   0  0  0  0  0  0  0  0  0  0  0  0
    4.4858    8.4503    0.0536 H   0  0  0  0  0  0  0  0  0  0  0  0
    1.7817    9.5508    2.0012 H   0  0  0  0  0  0  0  0  0  0  0  0
    3.6881    8.9040    3.8027 H   0  0  0  0  0  0  0  0  0  0  0  0
    1.7452    9.7819    5.3343 H   0  0  0  0  0  0  0  0  0  0  0  0
   -0.2539    8.0524    5.2362 H   0  0  0  0  0  0  0  0  0  0  0  0
    0.6628    5.9580    3.9655 H   0  0  0  0  0  0  0  0  0  0  0  0
    2.8931    6.7128    5.0226 H   0  0  0  0  0  0  0  0  0  0  0  0
    3.1535    6.3627    3.2083 H   0  0  0  0  0  0  0  0  0  0  0  0
    0.1510    7.5568    1.8897 H   0  0  0  0  0  0  0  0  0  0  0  0
   -5.7436   -5.2729   -2.1373 H   0  0  0  0  0  0  0  0  0  0  0  0
   -4.9851   -4.3265   -3.3752 H   0  0  0  0  0  0  0  0  0  0  0  0
   -5.3682   -7.1015   -3.3292 H   0  0  0  0  0  0  0  0  0  0  0  0
   -4.4840   -6.1489   -4.5875 H   0  0  0  0  0  0  0  0  0  0  0  0
   -3.5827   -6.8589   -3.1912 H   0  0  0  0  0  0  0  0  0  0  0  0
    5.2513    1.2023   -1.0484 H   0  0  0  0  0  0  0  0  0  0  0  0
    3.7099   -2.3272   -0.7897 H   0  0  0  0  0  0  0  0  0  0  0  0
    4.7949   -1.0359   -0.7915 H   0  0  0  0  0  0  0  0  0  0  0  0
    2.1536    0.0962    0.1379 H   0  0  0  0  0  0  0  0  0  0  0  0
    3.8487    0.4059    0.5508 H   0  0  0  0  0  0  0  0  0  0  0  0
    3.1753   -1.0875    1.2108 H   0  0  0  0  0  0  0  0  0  0  0  0
    0.3391   -3.3798    0.0573 H   0  0  0  0  0  0  0  0  0  0  0  0
    1.6266   -2.3103    0.0290 H   0  0  0  0  0  0  0  0  0  0  0  0
    2.9520   -4.4179   -0.0634 H   0  0  0  0  0  0  0  0  0  0  0  0
    2.3021   -4.6899   -1.7111 H   0  0  0  0  0  0  0  0  0  0  0  0
    1.3943   -5.2664   -0.2442 H   0  0  0  0  0  0  0  0  0  0  0  0
   -2.4525   -4.3857    2.1358 H   0  0  0  0  0  0  0  0  0  0  0  0
   -1.3525   -5.8348    1.6030 H   0  0  0  0  0  0  0  0  0  0  0  0
   -1.9542   -5.6374    3.2558 H   0  0  0  0  0  0  0  0  0  0  0  0
   -3.8287   -8.2937    1.1025 H   0  0  0  0  0  0  0  0  0  0  0  0
   -2.8164   -8.1604    2.6243 H   0  0  0  0  0  0  0  0  0  0  0  0
   -2.0492   -7.7334    1.0963 H   0  0  0  0  0  0  0  0  0  0  0  0
  1  2  2  3
  2  3  1  0
  3  4  2  0
  3  5  1  0
  5  6  2  0
  6  7  1  0
  7  8  2  0
  8  9  1  0
  9 10  2  0
 10 11  1  0
 11 12  2  3
 12 13  1  0
 13 14  3  0
 12 15  1  0
 15 16  3  0
  8 17  1  0
 17 18  1  0
 18 19  1  0
 19 20  2  0
 20 21  1  0
 21 22  1  0
 21 23  1  0
  1 24  1  0
 24 25  1  0
 25 26  1  0
 26 27  1  0
 27 28  1  0
 28 29  1  0
 29 30  2  0
 30 31  1  0
 31 32  1  0
 29 33  1  0
 33 34  1  0
 34 35  1  0
 35 36  1  0
 36 37  1  0
 37 38  1  0
 38 39  1  0
 37 40  2  0
 40 41  1  0
 41 42  1  0
 42 43  1  0
 43 44  1  0
 44 45  1  0
 45 46  1  0
 46 47  1  0
 47 48  1  0
 48 49  1  0
 47 50  1  0
 50 51  1  0
 44 52  1  0
 52 53  1  0
 40 54  1  0
 54 55  2  0
 55 56  1  0
 56 57  3  0
 55 58  1  0
 58 59  2  3
 59 60  1  0
 60 61  3  0
 59 62  1  0
 62 63  3  0
 58 64  1  0
 64 65  1  0
 65 66  1  0
 65 67  1  0
 11  2  1  0
 23 17  1  0
 49 24  2  0
 65 54  1  0
 10  5  1  0
 22 18  1  0
 48 26  2  0
 23  7  1  0
 46 27  2  0
 32 28  2  0
 45 33  2  0
 43 34  2  0
 42 36  2  0
  1 68  1  0
  6 69  1  0
  9 70  1  0
 17 71  1  0
 18 72  1  0
 19 73  1  0
 20 74  1  0
 21 75  1  0
 22 76  1  0
 22 77  1  0
 23 78  1  0
 38 79  1  0
 38 80  1  0
 39 81  1  0
 39 82  1  0
 39 83  1  0
 49 84  1  0
 50 85  1  0
 50 86  1  0
 51 87  1  0
 51 88  1  0
 51 89  1  0
 52 90  1  0
 52 91  1  0
 53 92  1  0
 53 93  1  0
 53 94  1  0
 66 95  1  0
 66 96  1  0
 66 97  1  0
 67 98  1  0
 67 99  1  0
 67100  1  0
M  END

