
     RDKit          3D

114128  0  0  0  0  0  0  0  0999 V2000
    1.0358    1.3156   -6.9067 C   0  0  0  0  0  0  0  0  0  0  0  0
    2.2744    1.1291   -6.3081 C   0  0  0  0  0  0  0  0  0  0  0  0
    2.5363    0.2245   -5.2107 C   0  0  0  0  0  0  0  0  0  0  0  0
    1.7876   -0.7030   -4.7316 O   0  0  0  0  0  0  0  0  0  0  0  0
    3.8577    0.4798   -4.6594 C   0  0  0  0  0  0  0  0  0  0  0  0
    4.5720   -0.0513   -3.5841 C   0  0  0  0  0  0  0  0  0  0  0  0
    5.7815    0.3875   -3.1975 C   0  0  0  0  0  0  0  0  0  0  0  0
    6.3606    1.3996   -3.9024 C   0  0  0  0  0  0  0  0  0  0  0  0
    5.6775    1.9703   -5.0073 C   0  0  0  0  0  0  0  0  0  0  0  0
    4.4249    1.4938   -5.3573 C   0  0  0  0  0  0  0  0  0  0  0  0
    3.4558    1.9578   -6.4466 C   0  0  0  0  0  0  0  0  0  0  0  0
    3.6039    2.9770   -7.1955 C   0  0  0  0  0  0  0  0  0  0  0  0
    4.8149    3.7555   -7.2796 C   0  0  0  0  0  0  0  0  0  0  0  0
    5.7526    4.3584   -7.3324 N   0  0  0  0  0  0  0  0  0  0  0  0
    2.5225    3.6065   -8.0098 C   0  0  0  0  0  0  0  0  0  0  0  0
    1.7020    4.0899   -8.6309 N   0  0  0  0  0  0  0  0  0  0  0  0
    7.5505    1.3550   -3.0560 C   0  0  0  0  0  0  0  0  0  0  0  0
    7.6832    2.4748   -2.1098 C   0  0  0  0  0  0  0  0  0  0  0  0
    8.5925    2.0002   -1.0003 C   0  0  0  0  0  0  0  0  0  0  0  0
    7.9204    1.1675   -0.2068 C   0  0  0  0  0  0  0  0  0  0  0  0
    6.6312    0.9484   -0.8709 C   0  0  0  0  0  0  0  0  0  0  0  0
    6.3406    2.3749   -1.3515 C   0  0  0  0  0  0  0  0  0  0  0  0
    6.8848    0.2820   -2.1990 C   0  0  0  0  0  0  0  0  0  0  0  0
    0.0085    0.5340   -6.2723 C   0  0  0  0  0  0  0  0  0  0  0  0
   -0.9699   -0.4762   -6.5621 C   0  0  0  0  0  0  0  0  0  0  0  0
   -1.1888   -0.9881   -7.8572 C   0  0  0  0  0  0  0  0  0  0  0  0
   -1.9974    0.0259   -8.7105 C   0  0  0  0  0  0  0  0  0  0  0  0
   -1.3258   -0.5606   -5.2671 C   0  0  0  0  0  0  0  0  0  0  0  0
   -3.6825   -1.2839   -5.2982 Se  0  0  0  0  0  2  0  0  0  0  0  0
   -3.5355   -1.2440   -3.4278 C   0  0  0  0  0  0  0  0  0  0  0  0
   -4.1341   -1.4786   -2.2308 C   0  0  0  0  0  0  0  0  0  0  0  0
   -5.3983   -2.0440   -1.9298 C   0  0  0  0  0  0  0  0  0  0  0  0
   -5.6914   -2.3987   -0.7739 C   0  0  0  0  0  0  0  0  0  0  0  0
   -6.9464   -2.6571   -0.3108 N   0  0  0  0  0  0  0  0  0  0  0  0
   -7.8103   -2.3570   -1.7681 S   0  0  0  0  0  0  0  0  0  0  0  0
   -6.5376   -1.9466   -2.7574 N   0  0  0  0  0  0  0  0  0  0  0  0
   -4.7316   -2.1912    0.3062 C   0  0  0  0  0  0  0  0  0  0  0  0
   -4.7692   -2.3738    1.6350 C   0  0  0  0  0  0  0  0  0  0  0  0
   -5.7757   -3.1757    3.1039 Se  0  0  0  0  0  2  0  0  0  0  0  0
   -4.0202   -2.4551    4.4381 C   0  0  0  0  0  0  0  0  0  0  0  0
   -4.1500   -2.8553    5.7141 C   0  0  0  0  0  0  0  0  0  0  0  0
   -5.1759   -3.3553    6.5697 C   0  0  0  0  0  0  0  0  0  0  0  0
   -5.6269   -4.7789    6.2823 C   0  0  0  0  0  0  0  0  0  0  0  0
   -2.8482   -2.6175    6.1592 C   0  0  0  0  0  0  0  0  0  0  0  0
   -2.0481   -1.9259    4.6540 S   0  0  0  0  0  0  0  0  0  0  0  0
   -3.6880   -2.1349    3.6511 C   0  0  0  0  0  0  0  0  0  0  0  0
   -3.5893   -1.8443    2.2231 C   0  0  0  0  0  0  0  0  0  0  0  0
   -2.8984   -1.3724    1.2004 N   0  0  0  0  0  0  0  0  0  0  0  0
   -3.4987   -1.5686    0.0487 C   0  0  0  0  0  0  0  0  0  0  0  0
   -3.1830   -1.2337   -1.2490 C   0  0  0  0  0  0  0  0  0  0  0  0
   -2.0259   -0.8636   -1.8246 N   0  0  0  0  0  0  0  0  0  0  0  0
   -2.2660   -0.8605   -3.2063 C   0  0  0  0  0  0  0  0  0  0  0  0
   -1.5955   -0.6476   -4.3975 C   0  0  0  0  0  0  0  0  0  0  0  0
   -0.1326    0.7790   -4.4504 S   0  0  0  0  0  0  0  0  0  0  0  0
   -0.6959   -0.6240   -1.2964 C   0  0  0  0  0  0  0  0  0  0  0  0
   -0.3121    0.7924   -1.1886 C   0  0  0  0  0  0  0  0  0  0  0  0
   -1.8148   -0.3682    1.4303 C   0  0  0  0  0  0  0  0  0  0  0  0
   -2.4611    1.0141    1.1877 C   0  0  0  0  0  0  0  0  0  0  0  0
   -1.8647   -2.9137    7.1889 C   0  0  0  0  0  0  0  0  0  0  0  0
   -1.1547   -1.8484    7.6123 C   0  0  0  0  0  0  0  0  0  0  0  0
   -0.0953   -1.9805    8.5669 C   0  0  0  0  0  0  0  0  0  0  0  0
    0.3527   -2.9896    9.1680 O   0  0  0  0  0  0  0  0  0  0  0  0
    0.5145   -0.6494    8.8361 C   0  0  0  0  0  0  0  0  0  0  0  0
    1.5373   -0.1796    9.4701 C   0  0  0  0  0  0  0  0  0  0  0  0
    2.1006    1.1341    9.5150 C   0  0  0  0  0  0  0  0  0  0  0  0
    1.2453    1.9778    8.6304 C   0  0  0  0  0  0  0  0  0  0  0  0
    1.7601    3.2838    8.5628 O   0  0  0  0  0  0  0  0  0  0  0  0
    0.8622    4.3037    8.0157 C   0  0  0  0  0  0  0  0  0  0  0  0
    0.2237    1.5093    8.0065 C   0  0  0  0  0  0  0  0  0  0  0  0
   -0.2451    0.2277    8.0101 C   0  0  0  0  0  0  0  0  0  0  0  0
   -1.3031   -0.5399    7.2507 C   0  0  0  0  0  0  0  0  0  0  0  0
   -2.1919    0.2611    6.6303 C   0  0  0  0  0  0  0  0  0  0  0  0
   -2.7672    1.3054    6.0897 C   0  0  0  0  0  0  0  0  0  0  0  0
   -3.2509    2.1871    5.6483 N   0  0  0  0  0  0  0  0  0  0  0  0
   -3.3942   -0.3387    7.6696 C   0  0  0  0  0  0  0  0  0  0  0  0
   -4.2495   -0.7445    8.3943 N   0  0  0  0  0  0  0  0  0  0  0  0
    0.8827    1.9148   -7.7205 H   0  0  0  0  0  0  0  0  0  0  0  0
    4.0461   -0.8895   -3.0586 H   0  0  0  0  0  0  0  0  0  0  0  0
    6.1562    2.7524   -5.5208 H   0  0  0  0  0  0  0  0  0  0  0  0
    8.4811    1.0095   -3.5669 H   0  0  0  0  0  0  0  0  0  0  0  0
    7.9165    3.4531   -2.4742 H   0  0  0  0  0  0  0  0  0  0  0  0
    9.6289    2.2665   -0.8334 H   0  0  0  0  0  0  0  0  0  0  0  0
    8.2385    0.7536    0.7342 H   0  0  0  0  0  0  0  0  0  0  0  0
    5.8466    0.5279   -0.2683 H   0  0  0  0  0  0  0  0  0  0  0  0
    5.4797    2.4187   -2.0216 H   0  0  0  0  0  0  0  0  0  0  0  0
    6.3128    3.0973   -0.5101 H   0  0  0  0  0  0  0  0  0  0  0  0
    7.3722   -0.6944   -2.1775 H   0  0  0  0  0  0  0  0  0  0  0  0
   -0.2003   -1.1576   -8.4328 H   0  0  0  0  0  0  0  0  0  0  0  0
   -1.7394   -1.9326   -7.9490 H   0  0  0  0  0  0  0  0  0  0  0  0
   -3.0000   -0.3562   -8.9045 H   0  0  0  0  0  0  0  0  0  0  0  0
   -1.4317    0.3717   -9.5615 H   0  0  0  0  0  0  0  0  0  0  0  0
   -2.1375    0.9079   -8.0306 H   0  0  0  0  0  0  0  0  0  0  0  0
   -4.8941   -3.2936    7.6632 H   0  0  0  0  0  0  0  0  0  0  0  0
   -6.0851   -2.6857    6.5291 H   0  0  0  0  0  0  0  0  0  0  0  0
   -4.8234   -5.2909    5.7501 H   0  0  0  0  0  0  0  0  0  0  0  0
   -5.8884   -5.2391    7.2525 H   0  0  0  0  0  0  0  0  0  0  0  0
   -6.5669   -4.7644    5.7059 H   0  0  0  0  0  0  0  0  0  0  0  0
    0.0485   -0.9769   -2.1903 H   0  0  0  0  0  0  0  0  0  0  0  0
   -0.3128   -1.3500   -0.5990 H   0  0  0  0  0  0  0  0  0  0  0  0
    0.6458    1.0499   -1.7865 H   0  0  0  0  0  0  0  0  0  0  0  0
   -1.0591    1.5142   -1.5734 H   0  0  0  0  0  0  0  0  0  0  0  0
   -0.0049    1.1624   -0.1788 H   0  0  0  0  0  0  0  0  0  0  0  0
   -1.7587   -0.3681    2.6194 H   0  0  0  0  0  0  0  0  0  0  0  0
   -0.9018   -0.5116    1.0978 H   0  0  0  0  0  0  0  0  0  0  0  0
   -2.9694    0.9291    0.2314 H   0  0  0  0  0  0  0  0  0  0  0  0
   -3.2499    1.1664    1.9753 H   0  0  0  0  0  0  0  0  0  0  0  0
   -1.7136    1.7732    1.3075 H   0  0  0  0  0  0  0  0  0  0  0  0
   -1.7119   -3.8925    7.4889 H   0  0  0  0  0  0  0  0  0  0  0  0
    2.1666   -0.8614   10.1413 H   0  0  0  0  0  0  0  0  0  0  0  0
    2.8863    1.4368   10.0192 H   0  0  0  0  0  0  0  0  0  0  0  0
   -0.1531    4.1553    8.4500 H   0  0  0  0  0  0  0  0  0  0  0  0
    1.1952    5.3012    8.2957 H   0  0  0  0  0  0  0  0  0  0  0  0
    0.7992    4.2084    6.9230 H   0  0  0  0  0  0  0  0  0  0  0  0
   -0.3800    2.2146    7.3646 H   0  0  0  0  0  0  0  0  0  0  0  0
  1  2  2  3
  2  3  1  0
  3  4  2  0
  3  5  1  0
  5  6  2  0
  6  7  1  0
  7  8  2  0
  8  9  1  0
  9 10  2  0
 10 11  1  0
 11 12  2  3
 12 13  1  0
 13 14  3  0
 12 15  1  0
 15 16  3  0
  8 17  1  0
 17 18  1  0
 18 19  1  0
 19 20  2  0
 20 21  1  0
 21 22  1  0
 21 23  1  0
  1 24  1  0
 24 25  2  0
 25 26  1  0
 26 27  1  0
 25 28  1  0
 28 29  1  0
 29 30  1  0
 30 31  1  0
 31 32  1  0
 32 33  1  0
 33 34  2  0
 34 35  1  0
 35 36  1  0
 33 37  1  0
 37 38  1  0
 38 39  1  0
 39 40  1  0
 40 41  1  0
 41 42  1  0
 42 43  1  0
 41 44  2  0
 44 45  1  0
 45 46  1  0
 46 47  1  0
 47 48  1  0
 48 49  1  0
 49 50  1  0
 50 51  1  0
 51 52  1  0
 52 53  1  0
 53 54  1  0
 51 55  1  0
 55 56  1  0
 48 57  1  0
 57 58  1  0
 44 59  1  0
 59 60  2  3
 60 61  1  0
 61 62  2  0
 61 63  1  0
 63 64  2  0
 64 65  1  0
 65 66  2  0
 66 67  1  0
 67 68  1  0
 66 69  1  0
 69 70  2  0
 70 71  1  0
 71 72  2  3
 72 73  1  0
 73 74  3  0
 72 75  1  0
 75 76  3  0
 11  2  1  0
 23 17  1  0
 54 24  1  0
 71 60  1  0
 10  5  1  0
 22 18  1  0
 53 28  2  0
 70 63  1  0
 23  7  1  0
 52 30  2  0
 50 31  2  0
 36 32  2  0
 49 37  2  0
 47 38  2  0
 46 40  2  0
  1 77  1  0
  6 78  1  0
  9 79  1  0
 17 80  1  0
 18 81  1  0
 19 82  1  0
 20 83  1  0
 21 84  1  0
 22 85  1  0
 22 86  1  0
 23 87  1  0
 26 88  1  0
 26 89  1  0
 27 90  1  0
 27 91  1  0
 27 92  1  0
 42 93  1  0
 42 94  1  0
 43 95  1  0
 43 96  1  0
 43 97  1  0
 55 98  1  0
 55 99  1  0
 56100  1  0
 56101  1  0
 56102  1  0
 57103  1  0
 57104  1  0
 58105  1  0
 58106  1  0
 58107  1  0
 59108  1  0
 64109  1  0
 65110  1  0
 68111  1  0
 68112  1  0
 68113  1  0
 69114  1  0
M  END

