
     RDKit          3D

 98111  0  0  0  0  0  0  0  0999 V2000
    1.6302    4.9587   -4.5067 C   0  0  0  0  0  0  0  0  0  0  0  0
    2.8570    4.4201   -4.2788 C   0  0  0  0  0  0  0  0  0  0  0  0
    3.4382    3.6687   -3.2616 C   0  0  0  0  0  0  0  0  0  0  0  0
    3.0459    3.6799   -2.0223 O   0  0  0  0  0  0  0  0  0  0  0  0
    4.5861    2.8630   -3.7013 C   0  0  0  0  0  0  0  0  0  0  0  0
    5.2352    1.8742   -2.9870 C   0  0  0  0  0  0  0  0  0  0  0  0
    6.1792    1.0287   -3.7249 C   0  0  0  0  0  0  0  0  0  0  0  0
    6.2565    1.3568   -5.0205 C   0  0  0  0  0  0  0  0  0  0  0  0
    5.6494    2.2971   -5.7646 C   0  0  0  0  0  0  0  0  0  0  0  0
    4.7173    3.1331   -5.0073 C   0  0  0  0  0  0  0  0  0  0  0  0
    3.6989    4.1039   -5.4840 C   0  0  0  0  0  0  0  0  0  0  0  0
    3.5231    4.3239   -6.7051 C   0  0  0  0  0  0  0  0  0  0  0  0
    4.2918    4.0818   -7.9063 C   0  0  0  0  0  0  0  0  0  0  0  0
    4.8992    3.8987   -8.8707 N   0  0  0  0  0  0  0  0  0  0  0  0
    2.0286    4.5006   -7.2063 C   0  0  0  0  0  0  0  0  0  0  0  0
    1.0590    4.6183   -7.5490 N   0  0  0  0  0  0  0  0  0  0  0  0
    7.1026    0.0371   -5.1728 C   0  0  0  0  0  0  0  0  0  0  0  0
    6.1902   -1.1045   -5.6127 C   0  0  0  0  0  0  0  0  0  0  0  0
    6.8708   -2.3897   -5.4025 C   0  0  0  0  0  0  0  0  0  0  0  0
    7.1470   -2.4002   -4.0921 C   0  0  0  0  0  0  0  0  0  0  0  0
    6.4254   -1.3524   -3.4049 C   0  0  0  0  0  0  0  0  0  0  0  0
    5.2579   -1.1493   -4.3588 C   0  0  0  0  0  0  0  0  0  0  0  0
    7.1090   -0.0325   -3.6823 C   0  0  0  0  0  0  0  0  0  0  0  0
    0.7021    4.6108   -3.4099 C   0  0  0  0  0  0  0  0  0  0  0  0
   -0.9955    5.6488   -3.0098 Se  0  0  0  0  0  2  0  0  0  0  0  0
   -1.4771    4.3453   -1.6780 C   0  0  0  0  0  0  0  0  0  0  0  0
   -2.3989    3.9482   -0.7918 C   0  0  0  0  0  0  0  0  0  0  0  0
   -3.7347    4.4098   -0.5561 C   0  0  0  0  0  0  0  0  0  0  0  0
   -4.5168    3.6144    0.2364 C   0  0  0  0  0  0  0  0  0  0  0  0
   -5.7527    4.1539    0.4290 N   0  0  0  0  0  0  0  0  0  0  0  0
   -5.7925    5.6294   -0.4367 S   0  0  0  0  0  0  0  0  0  0  0  0
   -4.2085    5.4859   -1.0100 N   0  0  0  0  0  0  0  0  0  0  0  0
   -4.0602    2.4703    0.7956 C   0  0  0  0  0  0  0  0  0  0  0  0
   -4.6648    1.5173    1.6304 C   0  0  0  0  0  0  0  0  0  0  0  0
   -6.1780    0.9669    2.3037 S   0  0  0  0  0  0  0  0  0  0  0  0
   -5.6118   -0.5099    3.0163 C   0  0  0  0  0  0  0  0  0  0  0  0
   -5.9839   -1.6339    3.7162 C   0  0  0  0  0  0  0  0  0  0  0  0
   -7.5487   -1.8346    4.0060 C   0  0  0  0  0  0  0  0  0  0  0  0
   -7.9449   -0.9526    5.0979 C   0  0  0  0  0  0  0  0  0  0  0  0
   -5.2651   -2.5657    4.0667 C   0  0  0  0  0  0  0  0  0  0  0  0
   -3.6887   -1.9582    3.3841 S   0  0  0  0  0  0  0  0  0  0  0  0
   -4.3479   -0.4575    2.6929 C   0  0  0  0  0  0  0  0  0  0  0  0
   -3.7604    0.5573    1.9771 C   0  0  0  0  0  0  0  0  0  0  0  0
   -2.5665    0.9068    1.3646 N   0  0  0  0  0  0  0  0  0  0  0  0
   -2.7507    2.0222    0.6388 C   0  0  0  0  0  0  0  0  0  0  0  0
   -1.9147    2.7467   -0.1929 C   0  0  0  0  0  0  0  0  0  0  0  0
   -0.7925    2.4828   -0.7265 N   0  0  0  0  0  0  0  0  0  0  0  0
   -0.3201    3.3104   -1.6949 C   0  0  0  0  0  0  0  0  0  0  0  0
    0.4347    3.8076   -2.6138 C   0  0  0  0  0  0  0  0  0  0  0  0
    0.1211    1.3445   -0.4361 C   0  0  0  0  0  0  0  0  0  0  0  0
    1.2288    1.7183    0.4756 C   0  0  0  0  0  0  0  0  0  0  0  0
   -1.4218    0.1667    1.7121 C   0  0  0  0  0  0  0  0  0  0  0  0
   -0.8941    0.8204    3.0432 C   0  0  0  0  0  0  0  0  0  0  0  0
   -5.0047   -3.9168    4.7679 C   0  0  0  0  0  0  0  0  0  0  0  0
   -4.3003   -4.7518    4.0022 C   0  0  0  0  0  0  0  0  0  0  0  0
   -3.7984   -4.5478    2.6609 C   0  0  0  0  0  0  0  0  0  0  0  0
   -4.3387   -3.6763    1.8811 O   0  0  0  0  0  0  0  0  0  0  0  0
   -2.6537   -5.4022    2.3752 C   0  0  0  0  0  0  0  0  0  0  0  0
   -1.8626   -5.5123    1.2598 C   0  0  0  0  0  0  0  0  0  0  0  0
   -0.7406   -6.7025    1.7594 S   0  0  0  0  0  0  0  0  0  0  0  0
   -1.3204   -7.0116    3.3223 C   0  0  0  0  0  0  0  0  0  0  0  0
   -2.4160   -6.1432    3.4365 C   0  0  0  0  0  0  0  0  0  0  0  0
   -3.4391   -5.7793    4.5079 C   0  0  0  0  0  0  0  0  0  0  0  0
   -3.5894   -6.4613    5.6133 C   0  0  0  0  0  0  0  0  0  0  0  0
   -2.6406   -7.4364    5.9959 C   0  0  0  0  0  0  0  0  0  0  0  0
   -1.7849   -8.3361    6.3384 N   0  0  0  0  0  0  0  0  0  0  0  0
   -4.7966   -6.3235    6.4890 C   0  0  0  0  0  0  0  0  0  0  0  0
   -5.6855   -6.2281    7.1122 N   0  0  0  0  0  0  0  0  0  0  0  0
    1.3295    5.5719   -5.2776 H   0  0  0  0  0  0  0  0  0  0  0  0
    5.1023    1.6849   -1.9660 H   0  0  0  0  0  0  0  0  0  0  0  0
    5.7961    2.4902   -6.7745 H   0  0  0  0  0  0  0  0  0  0  0  0
    8.0155    0.2000   -5.7465 H   0  0  0  0  0  0  0  0  0  0  0  0
    5.6643   -0.9808   -6.5505 H   0  0  0  0  0  0  0  0  0  0  0  0
    7.1077   -3.1792   -6.1095 H   0  0  0  0  0  0  0  0  0  0  0  0
    7.8699   -3.1838   -3.5887 H   0  0  0  0  0  0  0  0  0  0  0  0
    6.1174   -1.5645   -2.4282 H   0  0  0  0  0  0  0  0  0  0  0  0
    4.6880   -0.2240   -4.2276 H   0  0  0  0  0  0  0  0  0  0  0  0
    4.6459   -2.0566   -4.5084 H   0  0  0  0  0  0  0  0  0  0  0  0
    8.0829    0.0816   -3.2157 H   0  0  0  0  0  0  0  0  0  0  0  0
   -8.0870   -1.6483    3.0386 H   0  0  0  0  0  0  0  0  0  0  0  0
   -7.6959   -2.8946    4.2670 H   0  0  0  0  0  0  0  0  0  0  0  0
   -9.0057   -0.5554    4.8121 H   0  0  0  0  0  0  0  0  0  0  0  0
   -7.2831   -0.2026    5.4548 H   0  0  0  0  0  0  0  0  0  0  0  0
   -8.2446   -1.6402    6.0367 H   0  0  0  0  0  0  0  0  0  0  0  0
    1.2653    2.7940   -2.8364 H   0  0  0  0  0  0  0  0  0  0  0  0
   -0.2577    0.3810   -0.6234 H   0  0  0  0  0  0  0  0  0  0  0  0
    0.7426    1.3339   -1.4669 H   0  0  0  0  0  0  0  0  0  0  0  0
    1.8238    0.8001    0.6154 H   0  0  0  0  0  0  0  0  0  0  0  0
    1.9430    2.4593   -0.0318 H   0  0  0  0  0  0  0  0  0  0  0  0
    0.9664    2.1484    1.4359 H   0  0  0  0  0  0  0  0  0  0  0  0
   -0.5343    0.0362    1.1958 H   0  0  0  0  0  0  0  0  0  0  0  0
   -1.7590   -0.8723    2.1468 H   0  0  0  0  0  0  0  0  0  0  0  0
    0.1549    0.4842    3.2525 H   0  0  0  0  0  0  0  0  0  0  0  0
   -1.6043    0.5694    3.7927 H   0  0  0  0  0  0  0  0  0  0  0  0
   -0.8551    1.8901    2.9019 H   0  0  0  0  0  0  0  0  0  0  0  0
   -5.3777   -4.0844    5.7263 H   0  0  0  0  0  0  0  0  0  0  0  0
   -1.8547   -4.9770    0.2735 H   0  0  0  0  0  0  0  0  0  0  0  0
   -0.9609   -7.6822    4.0905 H   0  0  0  0  0  0  0  0  0  0  0  0
  1  2  2  3
  2  3  1  0
  3  4  2  0
  3  5  1  0
  5  6  2  0
  6  7  1  0
  7  8  2  0
  8  9  1  0
  9 10  2  0
 10 11  1  0
 11 12  2  3
 12 13  1  0
 13 14  3  0
 12 15  1  0
 15 16  3  0
  8 17  1  0
 17 18  1  0
 18 19  1  0
 19 20  2  0
 20 21  1  0
 21 22  1  0
 21 23  1  0
  1 24  1  0
 24 25  1  0
 25 26  1  0
 26 27  1  0
 27 28  1  0
 28 29  1  0
 29 30  2  0
 30 31  1  0
 31 32  1  0
 29 33  1  0
 33 34  1  0
 34 35  1  0
 35 36  1  0
 36 37  1  0
 37 38  1  0
 38 39  1  0
 37 40  2  0
 40 41  1  0
 41 42  1  0
 42 43  1  0
 43 44  1  0
 44 45  1  0
 45 46  1  0
 46 47  1  0
 47 48  1  0
 48 49  1  0
 47 50  1  0
 50 51  1  0
 44 52  1  0
 52 53  1  0
 40 54  1  0
 54 55  2  3
 55 56  1  0
 56 57  2  0
 56 58  1  0
 58 59  2  0
 59 60  1  0
 60 61  1  0
 61 62  2  0
 62 63  1  0
 63 64  2  3
 64 65  1  0
 65 66  3  0
 64 67  1  0
 67 68  3  0
 11  2  1  0
 23 17  1  0
 49 24  2  0
 63 55  1  0
 10  5  1  0
 22 18  1  0
 48 26  2  0
 62 58  1  0
 23  7  1  0
 46 27  2  0
 32 28  2  0
 45 33  2  0
 43 34  2  0
 42 36  2  0
  1 69  1  0
  6 70  1  0
  9 71  1  0
 17 72  1  0
 18 73  1  0
 19 74  1  0
 20 75  1  0
 21 76  1  0
 22 77  1  0
 22 78  1  0
 23 79  1  0
 38 80  1  0
 38 81  1  0
 39 82  1  0
 39 83  1  0
 39 84  1  0
 49 85  1  0
 50 86  1  0
 50 87  1  0
 51 88  1  0
 51 89  1  0
 51 90  1  0
 52 91  1  0
 52 92  1  0
 53 93  1  0
 53 94  1  0
 53 95  1  0
 54 96  1  0
 59 97  1  0
 61 98  1  0
M  END

