
     RDKit          3D

107120  0  0  0  0  0  0  0  0999 V2000
    2.8159   -5.3611   -2.7178 C   0  0  0  0  0  0  0  0  0  0  0  0
    1.7778   -5.8924   -2.0355 C   0  0  0  0  0  0  0  0  0  0  0  0
    0.9999   -5.1930   -1.0061 C   0  0  0  0  0  0  0  0  0  0  0  0
    1.0012   -3.9561   -0.7760 O   0  0  0  0  0  0  0  0  0  0  0  0
    0.2124   -6.1670   -0.2814 C   0  0  0  0  0  0  0  0  0  0  0  0
   -0.5994   -5.9246    0.8498 C   0  0  0  0  0  0  0  0  0  0  0  0
   -1.1901   -7.0614    1.3658 C   0  0  0  0  0  0  0  0  0  0  0  0
   -1.0044   -8.3647    0.8059 C   0  0  0  0  0  0  0  0  0  0  0  0
   -0.2003   -8.6103   -0.2913 C   0  0  0  0  0  0  0  0  0  0  0  0
    0.4075   -7.4501   -0.8525 C   0  0  0  0  0  0  0  0  0  0  0  0
    1.3272   -7.3171   -2.0328 C   0  0  0  0  0  0  0  0  0  0  0  0
    1.5132   -8.2312   -3.0201 C   0  0  0  0  0  0  0  0  0  0  0  0
    0.9581   -9.5657   -2.9641 C   0  0  0  0  0  0  0  0  0  0  0  0
    0.5173  -10.6371   -2.9178 N   0  0  0  0  0  0  0  0  0  0  0  0
    2.1635   -7.9009   -4.2606 C   0  0  0  0  0  0  0  0  0  0  0  0
    2.6795   -7.6616   -5.2750 N   0  0  0  0  0  0  0  0  0  0  0  0
   -1.9077   -8.9537    1.8502 C   0  0  0  0  0  0  0  0  0  0  0  0
   -3.3524   -9.3422    1.4038 C   0  0  0  0  0  0  0  0  0  0  0  0
   -4.1411   -9.5385    2.6783 C   0  0  0  0  0  0  0  0  0  0  0  0
   -4.2891   -8.3218    3.2214 C   0  0  0  0  0  0  0  0  0  0  0  0
   -3.6031   -7.3494    2.2892 C   0  0  0  0  0  0  0  0  0  0  0  0
   -3.9430   -8.0115    0.9626 C   0  0  0  0  0  0  0  0  0  0  0  0
   -2.0784   -7.6228    2.4373 C   0  0  0  0  0  0  0  0  0  0  0  0
    3.2120   -3.9481   -2.5883 C   0  0  0  0  0  0  0  0  0  0  0  0
    3.9917   -3.3493   -1.2020 S   0  0  0  0  0  0  0  0  0  0  0  0
    3.8373   -1.7606   -1.6958 C   0  0  0  0  0  0  0  0  0  0  0  0
    3.7689   -0.5714   -1.0357 C   0  0  0  0  0  0  0  0  0  0  0  0
    3.8912   -0.3340    0.3388 C   0  0  0  0  0  0  0  0  0  0  0  0
    3.3379    0.8585    0.8764 C   0  0  0  0  0  0  0  0  0  0  0  0
    3.4350    1.0415    2.2153 N   0  0  0  0  0  0  0  0  0  0  0  0
    4.2214   -0.3542    2.6295 S   0  0  0  0  0  0  0  0  0  0  0  0
    4.4601   -1.1948    1.2201 N   0  0  0  0  0  0  0  0  0  0  0  0
    2.7342    1.7628    0.0041 C   0  0  0  0  0  0  0  0  0  0  0  0
    2.2128    2.9934    0.2319 C   0  0  0  0  0  0  0  0  0  0  0  0
    1.9618    4.0544    1.5289 S   0  0  0  0  0  0  0  0  0  0  0  0
    1.4420    5.2734    0.4546 C   0  0  0  0  0  0  0  0  0  0  0  0
    0.9694    6.5688    0.6600 C   0  0  0  0  0  0  0  0  0  0  0  0
    1.0389    7.2692    1.9885 C   0  0  0  0  0  0  0  0  0  0  0  0
    2.4734    7.6721    2.3243 C   0  0  0  0  0  0  0  0  0  0  0  0
    0.6361    7.1584   -0.5808 C   0  0  0  0  0  0  0  0  0  0  0  0
    0.9791    6.0859   -1.8573 S   0  0  0  0  0  0  0  0  0  0  0  0
    1.5118    4.8604   -0.8496 C   0  0  0  0  0  0  0  0  0  0  0  0
    1.9482    3.5476   -0.9688 C   0  0  0  0  0  0  0  0  0  0  0  0
    2.2775    2.7409   -2.0125 N   0  0  0  0  0  0  0  0  0  0  0  0
    2.6966    1.5807   -1.3893 C   0  0  0  0  0  0  0  0  0  0  0  0
    3.1301    0.3221   -1.9150 C   0  0  0  0  0  0  0  0  0  0  0  0
    2.7206   -0.3564   -3.0444 N   0  0  0  0  0  0  0  0  0  0  0  0
    3.1629   -1.6394   -2.8657 C   0  0  0  0  0  0  0  0  0  0  0  0
    2.7801   -2.8904   -3.4263 C   0  0  0  0  0  0  0  0  0  0  0  0
    1.8881   -3.1482   -4.6137 C   0  0  0  0  0  0  0  0  0  0  0  0
    0.4286   -3.3442   -4.2037 C   0  0  0  0  0  0  0  0  0  0  0  0
    1.7869    0.1016   -4.0768 C   0  0  0  0  0  0  0  0  0  0  0  0
    2.5316    0.3807   -5.3812 C   0  0  0  0  0  0  0  0  0  0  0  0
    2.7268    3.2831   -3.3072 C   0  0  0  0  0  0  0  0  0  0  0  0
    4.2473    3.2606   -3.4242 C   0  0  0  0  0  0  0  0  0  0  0  0
    0.1104    8.5047   -0.8368 C   0  0  0  0  0  0  0  0  0  0  0  0
   -0.8954    9.1037   -0.1832 C   0  0  0  0  0  0  0  0  0  0  0  0
   -1.0445   10.5577   -0.1586 C   0  0  0  0  0  0  0  0  0  0  0  0
   -0.4837   11.3733   -0.9414 O   0  0  0  0  0  0  0  0  0  0  0  0
   -1.8401   10.9121    1.0129 C   0  0  0  0  0  0  0  0  0  0  0  0
   -2.0531   12.1705    1.5790 C   0  0  0  0  0  0  0  0  0  0  0  0
   -1.5241   13.6383    0.7493 Cl  0  0  0  0  0  0  0  0  0  0  0  0
   -2.6651   12.2443    2.8492 C   0  0  0  0  0  0  0  0  0  0  0  0
   -2.9775   13.8240    3.5793 Cl  0  0  0  0  0  0  0  0  0  0  0  0
   -2.9568   11.0605    3.5638 C   0  0  0  0  0  0  0  0  0  0  0  0
   -3.6271   11.1625    5.1968 Cl  0  0  0  0  0  0  0  0  0  0  0  0
   -2.6760    9.7991    2.9967 C   0  0  0  0  0  0  0  0  0  0  0  0
   -2.6997    8.3694    4.0343 Cl  0  0  0  0  0  0  0  0  0  0  0  0
   -2.2003    9.7440    1.6692 C   0  0  0  0  0  0  0  0  0  0  0  0
   -1.8168    8.5701    0.8388 C   0  0  0  0  0  0  0  0  0  0  0  0
   -2.5595    7.4342    0.6965 C   0  0  0  0  0  0  0  0  0  0  0  0
   -2.2950    6.4462   -0.3247 C   0  0  0  0  0  0  0  0  0  0  0  0
   -2.1051    5.6434   -1.1377 N   0  0  0  0  0  0  0  0  0  0  0  0
   -3.7792    7.2175    1.4216 C   0  0  0  0  0  0  0  0  0  0  0  0
   -4.7688    7.0321    1.9889 N   0  0  0  0  0  0  0  0  0  0  0  0
    3.4395   -5.9699   -3.3513 H   0  0  0  0  0  0  0  0  0  0  0  0
   -0.7372   -4.9442    1.2882 H   0  0  0  0  0  0  0  0  0  0  0  0
   -0.0356   -9.6171   -0.6280 H   0  0  0  0  0  0  0  0  0  0  0  0
   -1.4017   -9.6839    2.5173 H   0  0  0  0  0  0  0  0  0  0  0  0
   -3.4255  -10.1617    0.6654 H   0  0  0  0  0  0  0  0  0  0  0  0
   -4.6222  -10.4451    3.0180 H   0  0  0  0  0  0  0  0  0  0  0  0
   -4.8861   -8.0868    4.0969 H   0  0  0  0  0  0  0  0  0  0  0  0
   -3.9058   -6.2851    2.4032 H   0  0  0  0  0  0  0  0  0  0  0  0
   -5.0429   -8.0536    0.7738 H   0  0  0  0  0  0  0  0  0  0  0  0
   -3.4401   -7.5522    0.0824 H   0  0  0  0  0  0  0  0  0  0  0  0
   -1.6668   -7.5124    3.4629 H   0  0  0  0  0  0  0  0  0  0  0  0
    0.4201    8.1804    2.0146 H   0  0  0  0  0  0  0  0  0  0  0  0
    0.6653    6.5899    2.7832 H   0  0  0  0  0  0  0  0  0  0  0  0
    2.8334    8.4438    1.6139 H   0  0  0  0  0  0  0  0  0  0  0  0
    2.5117    8.0979    3.3503 H   0  0  0  0  0  0  0  0  0  0  0  0
    3.1521    6.7880    2.2725 H   0  0  0  0  0  0  0  0  0  0  0  0
    1.9595   -2.3404   -5.3593 H   0  0  0  0  0  0  0  0  0  0  0  0
    2.2385   -4.0634   -5.1344 H   0  0  0  0  0  0  0  0  0  0  0  0
   -0.2265   -3.2456   -5.0893 H   0  0  0  0  0  0  0  0  0  0  0  0
    0.2805   -4.3584   -3.7771 H   0  0  0  0  0  0  0  0  0  0  0  0
    0.1176   -2.5940   -3.4396 H   0  0  0  0  0  0  0  0  0  0  0  0
    1.0009   -0.6468   -4.2570 H   0  0  0  0  0  0  0  0  0  0  0  0
    1.2164    0.9777   -3.7313 H   0  0  0  0  0  0  0  0  0  0  0  0
    1.8127    0.6657   -6.1804 H   0  0  0  0  0  0  0  0  0  0  0  0
    3.1068   -0.5100   -5.7102 H   0  0  0  0  0  0  0  0  0  0  0  0
    3.2742    1.1956   -5.2544 H   0  0  0  0  0  0  0  0  0  0  0  0
    2.4028    4.3366   -3.4190 H   0  0  0  0  0  0  0  0  0  0  0  0
    2.2584    2.7754   -4.1534 H   0  0  0  0  0  0  0  0  0  0  0  0
    4.7025    3.7986   -2.5642 H   0  0  0  0  0  0  0  0  0  0  0  0
    4.6156    2.2112   -3.4456 H   0  0  0  0  0  0  0  0  0  0  0  0
    4.5645    3.7547   -4.3690 H   0  0  0  0  0  0  0  0  0  0  0  0
    0.6195    9.0649   -1.6159 H   0  0  0  0  0  0  0  0  0  0  0  0
  1  2  2  3
  2  3  1  0
  3  4  2  0
  3  5  1  0
  5  6  2  0
  6  7  1  0
  7  8  2  0
  8  9  1  0
  9 10  2  0
 10 11  1  0
 11 12  2  3
 12 13  1  0
 13 14  3  0
 12 15  1  0
 15 16  3  0
  8 17  1  0
 17 18  1  0
 18 19  1  0
 19 20  2  0
 20 21  1  0
 21 22  1  0
 21 23  1  0
  1 24  1  0
 24 25  1  0
 25 26  1  0
 26 27  1  0
 27 28  1  0
 28 29  1  0
 29 30  2  0
 30 31  1  0
 31 32  1  0
 29 33  1  0
 33 34  1  0
 34 35  1  0
 35 36  1  0
 36 37  1  0
 37 38  1  0
 38 39  1  0
 37 40  2  0
 40 41  1  0
 41 42  1  0
 42 43  1  0
 43 44  1  0
 44 45  1  0
 45 46  1  0
 46 47  1  0
 47 48  1  0
 48 49  1  0
 49 50  1  0
 50 51  1  0
 47 52  1  0
 52 53  1  0
 44 54  1  0
 54 55  1  0
 40 56  1  0
 56 57  2  3
 57 58  1  0
 58 59  2  0
 58 60  1  0
 60 61  2  0
 61 62  1  0
 61 63  1  0
 63 64  1  0
 63 65  2  0
 65 66  1  0
 65 67  1  0
 67 68  1  0
 67 69  2  0
 69 70  1  0
 70 71  2  3
 71 72  1  0
 72 73  3  0
 71 74  1  0
 74 75  3  0
 11  2  1  0
 23 17  1  0
 49 24  2  0
 70 57  1  0
 10  5  1  0
 22 18  1  0
 48 26  2  0
 69 60  1  0
 23  7  1  0
 46 27  2  0
 32 28  2  0
 45 33  2  0
 43 34  2  0
 42 36  2  0
  1 76  1  0
  6 77  1  0
  9 78  1  0
 17 79  1  0
 18 80  1  0
 19 81  1  0
 20 82  1  0
 21 83  1  0
 22 84  1  0
 22 85  1  0
 23 86  1  0
 38 87  1  0
 38 88  1  0
 39 89  1  0
 39 90  1  0
 39 91  1  0
 50 92  1  0
 50 93  1  0
 51 94  1  0
 51 95  1  0
 51 96  1  0
 52 97  1  0
 52 98  1  0
 53 99  1  0
 53100  1  0
 53101  1  0
 54102  1  0
 54103  1  0
 55104  1  0
 55105  1  0
 55106  1  0
 56107  1  0
M  END

