
     RDKit          3D

108121  0  0  0  0  0  0  0  0999 V2000
    0.4785   -3.9950   -4.4906 C   0  0  0  0  0  0  0  0  0  0  0  0
    1.6770   -3.3827   -4.4689 C   0  0  0  0  0  0  0  0  0  0  0  0
    2.1136   -2.4071   -3.4583 C   0  0  0  0  0  0  0  0  0  0  0  0
    1.3829   -1.8129   -2.6226 O   0  0  0  0  0  0  0  0  0  0  0  0
    3.5534   -2.2983   -3.5103 C   0  0  0  0  0  0  0  0  0  0  0  0
    4.3818   -1.5694   -2.6258 C   0  0  0  0  0  0  0  0  0  0  0  0
    5.7331   -1.7606   -2.8403 C   0  0  0  0  0  0  0  0  0  0  0  0
    6.2486   -2.6236   -3.8598 C   0  0  0  0  0  0  0  0  0  0  0  0
    5.4421   -3.3418   -4.7270 C   0  0  0  0  0  0  0  0  0  0  0  0
    4.0450   -3.1409   -4.5403 C   0  0  0  0  0  0  0  0  0  0  0  0
    2.8921   -3.7631   -5.2521 C   0  0  0  0  0  0  0  0  0  0  0  0
    2.9128   -4.3422   -6.4810 C   0  0  0  0  0  0  0  0  0  0  0  0
    4.1266   -4.5260   -7.2320 C   0  0  0  0  0  0  0  0  0  0  0  0
    5.0930   -4.6785   -7.8509 N   0  0  0  0  0  0  0  0  0  0  0  0
    1.7065   -4.6853   -7.1891 C   0  0  0  0  0  0  0  0  0  0  0  0
    0.7420   -4.9601   -7.7665 N   0  0  0  0  0  0  0  0  0  0  0  0
    7.6517   -2.3332   -3.4189 C   0  0  0  0  0  0  0  0  0  0  0  0
    8.3712   -3.4551   -2.6148 C   0  0  0  0  0  0  0  0  0  0  0  0
    9.5633   -2.7968   -1.9632 C   0  0  0  0  0  0  0  0  0  0  0  0
    9.0792   -1.9921   -1.0095 C   0  0  0  0  0  0  0  0  0  0  0  0
    7.5773   -2.1328   -1.0518 C   0  0  0  0  0  0  0  0  0  0  0  0
    7.4936   -3.6135   -1.3838 C   0  0  0  0  0  0  0  0  0  0  0  0
    7.1227   -1.4495   -2.3751 C   0  0  0  0  0  0  0  0  0  0  0  0
   -0.6393   -3.5871   -3.6245 C   0  0  0  0  0  0  0  0  0  0  0  0
   -1.2903   -2.3597   -3.7403 C   0  0  0  0  0  0  0  0  0  0  0  0
   -2.0991   -2.3087   -2.6261 C   0  0  0  0  0  0  0  0  0  0  0  0
   -1.9280   -3.4291   -1.9117 C   0  0  0  0  0  0  0  0  0  0  0  0
   -1.0106   -4.2439   -2.4878 N   0  0  0  0  0  0  0  0  0  0  0  0
   -0.4193   -5.4870   -1.9819 C   0  0  0  0  0  0  0  0  0  0  0  0
   -1.4355   -6.6226   -2.0430 C   0  0  0  0  0  0  0  0  0  0  0  0
   -2.2995   -3.1360   -0.6092 C   0  0  0  0  0  0  0  0  0  0  0  0
   -2.1187   -3.8268    0.6057 C   0  0  0  0  0  0  0  0  0  0  0  0
   -2.3530   -3.1417    1.8314 C   0  0  0  0  0  0  0  0  0  0  0  0
   -2.1586   -3.8352    2.9816 N   0  0  0  0  0  0  0  0  0  0  0  0
   -1.7034   -5.2959    2.3548 S   0  0  0  0  0  0  0  0  0  0  0  0
   -1.7379   -5.1218    0.7110 N   0  0  0  0  0  0  0  0  0  0  0  0
   -2.8106   -1.8294    1.7872 C   0  0  0  0  0  0  0  0  0  0  0  0
   -3.1293   -0.9701    2.7938 C   0  0  0  0  0  0  0  0  0  0  0  0
   -3.0079   -0.8584    4.4825 S   0  0  0  0  0  0  0  0  0  0  0  0
   -3.6339    0.7309    4.4353 C   0  0  0  0  0  0  0  0  0  0  0  0
   -3.7617    1.7327    5.3970 C   0  0  0  0  0  0  0  0  0  0  0  0
   -3.3765    1.5684    6.8406 C   0  0  0  0  0  0  0  0  0  0  0  0
   -1.8940    1.8607    7.0434 C   0  0  0  0  0  0  0  0  0  0  0  0
   -4.1475    2.9454    4.7979 C   0  0  0  0  0  0  0  0  0  0  0  0
   -4.3319    2.7509    3.1130 S   0  0  0  0  0  0  0  0  0  0  0  0
   -3.9242    1.1244    3.1520 C   0  0  0  0  0  0  0  0  0  0  0  0
   -3.6250    0.1435    2.2198 C   0  0  0  0  0  0  0  0  0  0  0  0
   -3.6755    0.0701    0.8674 N   0  0  0  0  0  0  0  0  0  0  0  0
   -3.0906   -1.1494    0.5886 C   0  0  0  0  0  0  0  0  0  0  0  0
   -2.7493   -1.7895   -0.6453 C   0  0  0  0  0  0  0  0  0  0  0  0
   -2.5588   -1.2621   -1.9034 N   0  0  0  0  0  0  0  0  0  0  0  0
   -2.4042    0.1328   -2.3413 C   0  0  0  0  0  0  0  0  0  0  0  0
   -1.3083    0.8526   -1.5588 C   0  0  0  0  0  0  0  0  0  0  0  0
   -4.5392    0.9328    0.0497 C   0  0  0  0  0  0  0  0  0  0  0  0
   -5.5848    0.1246   -0.7209 C   0  0  0  0  0  0  0  0  0  0  0  0
   -4.2246    4.2400    5.4839 C   0  0  0  0  0  0  0  0  0  0  0  0
   -3.2150    5.1307    5.4692 C   0  0  0  0  0  0  0  0  0  0  0  0
   -1.9896    5.0191    4.6662 C   0  0  0  0  0  0  0  0  0  0  0  0
   -1.5742    3.9927    4.0661 O   0  0  0  0  0  0  0  0  0  0  0  0
   -1.3295    6.3049    4.6622 C   0  0  0  0  0  0  0  0  0  0  0  0
   -0.1933    6.6866    3.9483 C   0  0  0  0  0  0  0  0  0  0  0  0
    0.2290    8.0192    4.0282 C   0  0  0  0  0  0  0  0  0  0  0  0
   -0.4972    8.9456    4.7978 C   0  0  0  0  0  0  0  0  0  0  0  0
    0.1241   10.9604    4.8713 I   0  0  0  0  0  0  0  0  0  0  0  0
   -1.6411    8.5410    5.5078 C   0  0  0  0  0  0  0  0  0  0  0  0
   -2.0392    7.1943    5.4514 C   0  0  0  0  0  0  0  0  0  0  0  0
   -3.1912    6.4920    6.0891 C   0  0  0  0  0  0  0  0  0  0  0  0
   -3.8949    6.9086    7.1747 C   0  0  0  0  0  0  0  0  0  0  0  0
   -4.8040    6.0463    7.8843 C   0  0  0  0  0  0  0  0  0  0  0  0
   -5.5341    5.3601    8.4649 N   0  0  0  0  0  0  0  0  0  0  0  0
   -3.6872    8.1941    7.7871 C   0  0  0  0  0  0  0  0  0  0  0  0
   -3.5304    9.2234    8.2936 N   0  0  0  0  0  0  0  0  0  0  0  0
    0.3309   -4.8891   -5.0736 H   0  0  0  0  0  0  0  0  0  0  0  0
    3.9981   -0.9517   -1.8253 H   0  0  0  0  0  0  0  0  0  0  0  0
    5.8740   -4.0278   -5.4345 H   0  0  0  0  0  0  0  0  0  0  0  0
    8.2669   -1.8212   -4.1915 H   0  0  0  0  0  0  0  0  0  0  0  0
    8.5917   -4.3861   -3.1786 H   0  0  0  0  0  0  0  0  0  0  0  0
   10.6118   -3.0008   -2.1506 H   0  0  0  0  0  0  0  0  0  0  0  0
    9.6675   -1.4317   -0.2923 H   0  0  0  0  0  0  0  0  0  0  0  0
    7.0434   -1.8098   -0.1334 H   0  0  0  0  0  0  0  0  0  0  0  0
    6.4651   -3.9787   -1.6002 H   0  0  0  0  0  0  0  0  0  0  0  0
    7.9440   -4.2697   -0.6001 H   0  0  0  0  0  0  0  0  0  0  0  0
    7.4006   -0.3780   -2.4859 H   0  0  0  0  0  0  0  0  0  0  0  0
   -1.0617   -1.5700   -4.4434 H   0  0  0  0  0  0  0  0  0  0  0  0
    0.4573   -5.7831   -2.5956 H   0  0  0  0  0  0  0  0  0  0  0  0
   -0.0221   -5.3376   -0.9611 H   0  0  0  0  0  0  0  0  0  0  0  0
   -1.0134   -7.5317   -1.5645 H   0  0  0  0  0  0  0  0  0  0  0  0
   -2.3742   -6.3430   -1.5218 H   0  0  0  0  0  0  0  0  0  0  0  0
   -1.6770   -6.8538   -3.1022 H   0  0  0  0  0  0  0  0  0  0  0  0
   -3.9778    2.2540    7.4754 H   0  0  0  0  0  0  0  0  0  0  0  0
   -3.5940    0.5297    7.1694 H   0  0  0  0  0  0  0  0  0  0  0  0
   -1.6216    1.6819    8.1049 H   0  0  0  0  0  0  0  0  0  0  0  0
   -1.6700    2.9190    6.7943 H   0  0  0  0  0  0  0  0  0  0  0  0
   -1.2767    1.1957    6.4020 H   0  0  0  0  0  0  0  0  0  0  0  0
   -3.3664    0.6595   -2.3327 H   0  0  0  0  0  0  0  0  0  0  0  0
   -2.1188    0.1696   -3.4122 H   0  0  0  0  0  0  0  0  0  0  0  0
   -0.3575    0.2870   -1.6338 H   0  0  0  0  0  0  0  0  0  0  0  0
   -1.1544    1.8676   -1.9783 H   0  0  0  0  0  0  0  0  0  0  0  0
   -1.5756    0.9531   -0.4913 H   0  0  0  0  0  0  0  0  0  0  0  0
   -3.9417    1.6103   -0.5823 H   0  0  0  0  0  0  0  0  0  0  0  0
   -5.1150    1.6176    0.7041 H   0  0  0  0  0  0  0  0  0  0  0  0
   -6.2402    0.8150   -1.2915 H   0  0  0  0  0  0  0  0  0  0  0  0
   -5.1188   -0.5812   -1.4330 H   0  0  0  0  0  0  0  0  0  0  0  0
   -6.2111   -0.4549   -0.0105 H   0  0  0  0  0  0  0  0  0  0  0  0
   -5.1530    4.4556    5.9822 H   0  0  0  0  0  0  0  0  0  0  0  0
    0.3430    5.9760    3.3332 H   0  0  0  0  0  0  0  0  0  0  0  0
    1.1063    8.3388    3.4800 H   0  0  0  0  0  0  0  0  0  0  0  0
   -2.2031    9.2832    6.0478 H   0  0  0  0  0  0  0  0  0  0  0  0
  1  2  2  3
  2  3  1  0
  3  4  2  0
  3  5  1  0
  5  6  2  0
  6  7  1  0
  7  8  2  0
  8  9  1  0
  9 10  2  0
 10 11  1  0
 11 12  2  3
 12 13  1  0
 13 14  3  0
 12 15  1  0
 15 16  3  0
  8 17  1  0
 17 18  1  0
 18 19  1  0
 19 20  2  0
 20 21  1  0
 21 22  1  0
 21 23  1  0
  1 24  1  0
 24 25  2  0
 25 26  1  0
 26 27  2  0
 27 28  1  0
 28 29  1  0
 29 30  1  0
 27 31  1  0
 31 32  1  0
 32 33  1  0
 33 34  2  0
 34 35  1  0
 35 36  1  0
 33 37  1  0
 37 38  1  0
 38 39  1  0
 39 40  1  0
 40 41  1  0
 41 42  1  0
 42 43  1  0
 41 44  2  0
 44 45  1  0
 45 46  1  0
 46 47  1  0
 47 48  1  0
 48 49  1  0
 49 50  1  0
 50 51  1  0
 51 52  1  0
 52 53  1  0
 48 54  1  0
 54 55  1  0
 44 56  1  0
 56 57  2  3
 57 58  1  0
 58 59  2  0
 58 60  1  0
 60 61  2  0
 61 62  1  0
 62 63  2  0
 63 64  1  0
 63 65  1  0
 65 66  2  0
 66 67  1  0
 67 68  2  3
 68 69  1  0
 69 70  3  0
 68 71  1  0
 71 72  3  0
 11  2  1  0
 23 17  1  0
 28 24  1  0
 50 31  2  0
 67 57  1  0
 10  5  1  0
 22 18  1  0
 51 26  1  0
 66 60  1  0
 23  7  1  0
 36 32  2  0
 49 37  2  0
 47 38  2  0
 46 40  2  0
  1 73  1  0
  6 74  1  0
  9 75  1  0
 17 76  1  0
 18 77  1  0
 19 78  1  0
 20 79  1  0
 21 80  1  0
 22 81  1  0
 22 82  1  0
 23 83  1  0
 25 84  1  0
 29 85  1  0
 29 86  1  0
 30 87  1  0
 30 88  1  0
 30 89  1  0
 42 90  1  0
 42 91  1  0
 43 92  1  0
 43 93  1  0
 43 94  1  0
 52 95  1  0
 52 96  1  0
 53 97  1  0
 53 98  1  0
 53 99  1  0
 54100  1  0
 54101  1  0
 55102  1  0
 55103  1  0
 55104  1  0
 56105  1  0
 61106  1  0
 62107  1  0
 65108  1  0
M  END

