
     RDKit          3D

110124  0  0  0  0  0  0  0  0999 V2000
    0.6892   -5.2441   -2.1857 C   0  0  0  0  0  0  0  0  0  0  0  0
    1.2873   -6.1421   -1.3805 C   0  0  0  0  0  0  0  0  0  0  0  0
    0.8919   -6.4097    0.0077 C   0  0  0  0  0  0  0  0  0  0  0  0
   -0.2654   -6.2779    0.4902 O   0  0  0  0  0  0  0  0  0  0  0  0
    2.0680   -6.7930    0.7555 C   0  0  0  0  0  0  0  0  0  0  0  0
    2.1781   -6.8806    2.1611 C   0  0  0  0  0  0  0  0  0  0  0  0
    3.4771   -7.0113    2.6125 C   0  0  0  0  0  0  0  0  0  0  0  0
    4.6111   -7.0460    1.7364 C   0  0  0  0  0  0  0  0  0  0  0  0
    4.5088   -6.9708    0.3544 C   0  0  0  0  0  0  0  0  0  0  0  0
    3.1747   -6.8618   -0.1298 C   0  0  0  0  0  0  0  0  0  0  0  0
    2.6945   -6.6170   -1.5184 C   0  0  0  0  0  0  0  0  0  0  0  0
    3.3323   -6.9340   -2.6705 C   0  0  0  0  0  0  0  0  0  0  0  0
    4.6677   -7.4695   -2.6897 C   0  0  0  0  0  0  0  0  0  0  0  0
    5.7451   -7.8965   -2.7086 N   0  0  0  0  0  0  0  0  0  0  0  0
    2.6657   -6.8844   -3.9472 C   0  0  0  0  0  0  0  0  0  0  0  0
    2.1409   -6.8554   -4.9814 N   0  0  0  0  0  0  0  0  0  0  0  0
    5.5400   -7.0793    2.9158 C   0  0  0  0  0  0  0  0  0  0  0  0
    6.2840   -5.7494    3.2504 C   0  0  0  0  0  0  0  0  0  0  0  0
    6.8130   -5.9111    4.6578 C   0  0  0  0  0  0  0  0  0  0  0  0
    5.7492   -5.8841    5.4691 C   0  0  0  0  0  0  0  0  0  0  0  0
    4.5396   -5.7041    4.5830 C   0  0  0  0  0  0  0  0  0  0  0  0
    5.1475   -4.7804    3.5414 C   0  0  0  0  0  0  0  0  0  0  0  0
    4.3767   -7.0496    3.8093 C   0  0  0  0  0  0  0  0  0  0  0  0
   -0.3810   -4.3534   -1.7025 C   0  0  0  0  0  0  0  0  0  0  0  0
   -1.9136   -4.2445   -2.4315 S   0  0  0  0  0  0  0  0  0  0  0  0
   -2.4109   -3.0368   -1.3873 C   0  0  0  0  0  0  0  0  0  0  0  0
   -3.4065   -2.1032   -1.3611 C   0  0  0  0  0  0  0  0  0  0  0  0
   -4.3624   -1.7986   -2.3401 C   0  0  0  0  0  0  0  0  0  0  0  0
   -5.0042   -0.5265   -2.3020 C   0  0  0  0  0  0  0  0  0  0  0  0
   -5.8606   -0.2352   -3.3119 N   0  0  0  0  0  0  0  0  0  0  0  0
   -5.7215   -1.6249   -4.2041 S   0  0  0  0  0  0  0  0  0  0  0  0
   -4.6399   -2.5928   -3.4045 N   0  0  0  0  0  0  0  0  0  0  0  0
   -4.7195    0.3328   -1.2385 C   0  0  0  0  0  0  0  0  0  0  0  0
   -5.0812    1.6336   -1.0008 C   0  0  0  0  0  0  0  0  0  0  0  0
   -5.5140    2.9738   -1.9542 S   0  0  0  0  0  0  0  0  0  0  0  0
   -4.8986    4.0546   -0.7829 C   0  0  0  0  0  0  0  0  0  0  0  0
   -4.5375    5.4006   -0.8435 C   0  0  0  0  0  0  0  0  0  0  0  0
   -4.9592    6.3414   -1.9358 C   0  0  0  0  0  0  0  0  0  0  0  0
   -6.2458    7.0648   -1.5423 C   0  0  0  0  0  0  0  0  0  0  0  0
   -3.6920    5.7425    0.2319 C   0  0  0  0  0  0  0  0  0  0  0  0
   -3.3800    4.3743    1.1924 S   0  0  0  0  0  0  0  0  0  0  0  0
   -4.3635    3.3733    0.2826 C   0  0  0  0  0  0  0  0  0  0  0  0
   -4.4625    2.0029    0.1468 C   0  0  0  0  0  0  0  0  0  0  0  0
   -3.7303    1.0104    0.7002 N   0  0  0  0  0  0  0  0  0  0  0  0
   -3.8263   -0.0114   -0.2068 C   0  0  0  0  0  0  0  0  0  0  0  0
   -3.0473   -1.1999   -0.3481 C   0  0  0  0  0  0  0  0  0  0  0  0
   -1.7925   -1.5091    0.1390 N   0  0  0  0  0  0  0  0  0  0  0  0
   -1.4368   -2.6487   -0.5313 C   0  0  0  0  0  0  0  0  0  0  0  0
   -0.2230   -3.3583   -0.7070 C   0  0  0  0  0  0  0  0  0  0  0  0
    1.1408   -2.9791   -0.1804 C   0  0  0  0  0  0  0  0  0  0  0  0
    1.8817   -2.0826   -1.1678 C   0  0  0  0  0  0  0  0  0  0  0  0
   -0.9214   -0.6749    0.9749 C   0  0  0  0  0  0  0  0  0  0  0  0
   -0.8350   -1.2154    2.4114 C   0  0  0  0  0  0  0  0  0  0  0  0
   -3.4527    0.9114    2.1423 C   0  0  0  0  0  0  0  0  0  0  0  0
   -4.6759    1.2750    2.9857 C   0  0  0  0  0  0  0  0  0  0  0  0
   -2.9293    6.9904    0.3705 C   0  0  0  0  0  0  0  0  0  0  0  0
   -1.7935    7.2189   -0.3189 C   0  0  0  0  0  0  0  0  0  0  0  0
   -1.1366    6.2515   -1.2127 C   0  0  0  0  0  0  0  0  0  0  0  0
   -1.6401    5.1890   -1.6685 O   0  0  0  0  0  0  0  0  0  0  0  0
    0.2213    6.6880   -1.4480 C   0  0  0  0  0  0  0  0  0  0  0  0
    1.2286    6.0166   -2.1555 C   0  0  0  0  0  0  0  0  0  0  0  0
    2.4986    6.6045   -2.1719 C   0  0  0  0  0  0  0  0  0  0  0  0
    3.6365    6.0887   -2.8050 C   0  0  0  0  0  0  0  0  0  0  0  0
    4.7565    6.8945   -2.6141 C   0  0  0  0  0  0  0  0  0  0  0  0
    6.5011    6.5404   -3.2942 Br  0  0  0  0  0  0  0  0  0  0  0  0
    4.3436    8.2317   -1.6673 S   0  0  0  0  0  0  0  0  0  0  0  0
    2.7315    7.7984   -1.4950 C   0  0  0  0  0  0  0  0  0  0  0  0
    1.7313    8.4678   -0.7826 C   0  0  0  0  0  0  0  0  0  0  0  0
    0.4420    7.8967   -0.7852 C   0  0  0  0  0  0  0  0  0  0  0  0
   -0.8232    8.3418   -0.1239 C   0  0  0  0  0  0  0  0  0  0  0  0
   -1.0900    9.5748    0.3862 C   0  0  0  0  0  0  0  0  0  0  0  0
   -2.4090    9.9727    0.8035 C   0  0  0  0  0  0  0  0  0  0  0  0
   -3.4640   10.3091    1.1458 N   0  0  0  0  0  0  0  0  0  0  0  0
   -0.0966   10.6094    0.4794 C   0  0  0  0  0  0  0  0  0  0  0  0
    0.6880   11.4529    0.5682 N   0  0  0  0  0  0  0  0  0  0  0  0
    1.1111   -5.0015   -3.1493 H   0  0  0  0  0  0  0  0  0  0  0  0
    1.3362   -6.7674    2.8311 H   0  0  0  0  0  0  0  0  0  0  0  0
    5.3899   -6.9128   -0.2674 H   0  0  0  0  0  0  0  0  0  0  0  0
    6.1545   -8.0083    2.9824 H   0  0  0  0  0  0  0  0  0  0  0  0
    7.0285   -5.4109    2.5010 H   0  0  0  0  0  0  0  0  0  0  0  0
    7.8522   -5.9271    4.9728 H   0  0  0  0  0  0  0  0  0  0  0  0
    5.7744   -5.8824    6.5566 H   0  0  0  0  0  0  0  0  0  0  0  0
    3.6281   -5.3300    5.0966 H   0  0  0  0  0  0  0  0  0  0  0  0
    5.4920   -3.8049    3.9635 H   0  0  0  0  0  0  0  0  0  0  0  0
    4.4857   -4.5799    2.6679 H   0  0  0  0  0  0  0  0  0  0  0  0
    4.2412   -7.9588    4.4381 H   0  0  0  0  0  0  0  0  0  0  0  0
   -5.1186    5.7805   -2.8864 H   0  0  0  0  0  0  0  0  0  0  0  0
   -4.1623    7.1000   -2.1283 H   0  0  0  0  0  0  0  0  0  0  0  0
   -6.6020    7.6751   -2.4016 H   0  0  0  0  0  0  0  0  0  0  0  0
   -7.0393    6.3330   -1.2556 H   0  0  0  0  0  0  0  0  0  0  0  0
   -6.0448    7.7492   -0.6852 H   0  0  0  0  0  0  0  0  0  0  0  0
    1.7561   -3.8785   -0.0028 H   0  0  0  0  0  0  0  0  0  0  0  0
    1.0910   -2.5033    0.8026 H   0  0  0  0  0  0  0  0  0  0  0  0
    2.1143   -2.6499   -2.0943 H   0  0  0  0  0  0  0  0  0  0  0  0
    1.2737   -1.1930   -1.4374 H   0  0  0  0  0  0  0  0  0  0  0  0
    2.8357   -1.7438   -0.7105 H   0  0  0  0  0  0  0  0  0  0  0  0
    0.0857   -0.5928    0.5321 H   0  0  0  0  0  0  0  0  0  0  0  0
   -1.2646    0.3712    0.9680 H   0  0  0  0  0  0  0  0  0  0  0  0
   -0.0246   -1.9585    2.5308 H   0  0  0  0  0  0  0  0  0  0  0  0
   -0.6288   -0.3806    3.1165 H   0  0  0  0  0  0  0  0  0  0  0  0
   -1.7725   -1.7260    2.7129 H   0  0  0  0  0  0  0  0  0  0  0  0
   -2.6087    1.5806    2.4155 H   0  0  0  0  0  0  0  0  0  0  0  0
   -3.2189   -0.1301    2.3996 H   0  0  0  0  0  0  0  0  0  0  0  0
   -5.5425    0.6417    2.6991 H   0  0  0  0  0  0  0  0  0  0  0  0
   -4.9420    2.3461    2.8583 H   0  0  0  0  0  0  0  0  0  0  0  0
   -4.4454    1.1039    4.0602 H   0  0  0  0  0  0  0  0  0  0  0  0
   -3.2272    7.6356    1.1793 H   0  0  0  0  0  0  0  0  0  0  0  0
    1.0329    5.0786   -2.6568 H   0  0  0  0  0  0  0  0  0  0  0  0
    3.6525    5.1660   -3.3698 H   0  0  0  0  0  0  0  0  0  0  0  0
    1.9809    9.3669   -0.2439 H   0  0  0  0  0  0  0  0  0  0  0  0
  1  2  2  3
  2  3  1  0
  3  4  2  0
  3  5  1  0
  5  6  2  0
  6  7  1  0
  7  8  2  0
  8  9  1  0
  9 10  2  0
 10 11  1  0
 11 12  2  3
 12 13  1  0
 13 14  3  0
 12 15  1  0
 15 16  3  0
  8 17  1  0
 17 18  1  0
 18 19  1  0
 19 20  2  0
 20 21  1  0
 21 22  1  0
 21 23  1  0
  1 24  1  0
 24 25  1  0
 25 26  1  0
 26 27  1  0
 27 28  1  0
 28 29  1  0
 29 30  2  0
 30 31  1  0
 31 32  1  0
 29 33  1  0
 33 34  1  0
 34 35  1  0
 35 36  1  0
 36 37  1  0
 37 38  1  0
 38 39  1  0
 37 40  2  0
 40 41  1  0
 41 42  1  0
 42 43  1  0
 43 44  1  0
 44 45  1  0
 45 46  1  0
 46 47  1  0
 47 48  1  0
 48 49  1  0
 49 50  1  0
 50 51  1  0
 47 52  1  0
 52 53  1  0
 44 54  1  0
 54 55  1  0
 40 56  1  0
 56 57  2  3
 57 58  1  0
 58 59  2  0
 58 60  1  0
 60 61  2  0
 61 62  1  0
 62 63  1  0
 63 64  2  0
 64 65  1  0
 64 66  1  0
 66 67  1  0
 67 68  1  0
 68 69  2  0
 69 70  1  0
 70 71  2  3
 71 72  1  0
 72 73  3  0
 71 74  1  0
 74 75  3  0
 11  2  1  0
 23 17  1  0
 49 24  2  0
 70 57  1  0
 10  5  1  0
 22 18  1  0
 48 26  2  0
 69 60  1  0
 23  7  1  0
 46 27  2  0
 67 62  2  0
 32 28  2  0
 45 33  2  0
 43 34  2  0
 42 36  2  0
  1 76  1  0
  6 77  1  0
  9 78  1  0
 17 79  1  0
 18 80  1  0
 19 81  1  0
 20 82  1  0
 21 83  1  0
 22 84  1  0
 22 85  1  0
 23 86  1  0
 38 87  1  0
 38 88  1  0
 39 89  1  0
 39 90  1  0
 39 91  1  0
 50 92  1  0
 50 93  1  0
 51 94  1  0
 51 95  1  0
 51 96  1  0
 52 97  1  0
 52 98  1  0
 53 99  1  0
 53100  1  0
 53101  1  0
 54102  1  0
 54103  1  0
 55104  1  0
 55105  1  0
 55106  1  0
 56107  1  0
 61108  1  0
 63109  1  0
 68110  1  0
M  END

