
     RDKit          3D

109122  0  0  0  0  0  0  0  0999 V2000
   -2.1998   -4.5678   -4.0203 C   0  0  0  0  0  0  0  0  0  0  0  0
   -3.4622   -4.1678   -4.2607 C   0  0  0  0  0  0  0  0  0  0  0  0
   -4.4187   -5.0222   -4.9607 C   0  0  0  0  0  0  0  0  0  0  0  0
   -4.1344   -6.0282   -5.6643 O   0  0  0  0  0  0  0  0  0  0  0  0
   -5.7569   -4.5788   -4.6389 C   0  0  0  0  0  0  0  0  0  0  0  0
   -6.9730   -5.1973   -5.0091 C   0  0  0  0  0  0  0  0  0  0  0  0
   -8.0948   -4.5790   -4.4908 C   0  0  0  0  0  0  0  0  0  0  0  0
   -8.0321   -3.4247   -3.6452 C   0  0  0  0  0  0  0  0  0  0  0  0
   -6.8433   -2.8225   -3.2671 C   0  0  0  0  0  0  0  0  0  0  0  0
   -5.6752   -3.4283   -3.8112 C   0  0  0  0  0  0  0  0  0  0  0  0
   -4.2430   -3.0420   -3.6621 C   0  0  0  0  0  0  0  0  0  0  0  0
   -3.7808   -1.7963   -3.3871 C   0  0  0  0  0  0  0  0  0  0  0  0
   -2.4601   -1.3681   -3.7685 C   0  0  0  0  0  0  0  0  0  0  0  0
   -1.4075   -1.0022   -4.0790 N   0  0  0  0  0  0  0  0  0  0  0  0
   -4.6188   -0.7546   -2.8535 C   0  0  0  0  0  0  0  0  0  0  0  0
   -5.2767    0.0951   -2.4213 N   0  0  0  0  0  0  0  0  0  0  0  0
   -9.5279   -3.4139   -3.5199 C   0  0  0  0  0  0  0  0  0  0  0  0
  -10.1523   -3.9031   -2.1780 C   0  0  0  0  0  0  0  0  0  0  0  0
   -9.2579   -4.9401   -1.5393 C   0  0  0  0  0  0  0  0  0  0  0  0
   -9.3091   -6.0197   -2.3204 C   0  0  0  0  0  0  0  0  0  0  0  0
  -10.2392   -5.6820   -3.4641 C   0  0  0  0  0  0  0  0  0  0  0  0
  -11.2370   -4.8201   -2.7129 C   0  0  0  0  0  0  0  0  0  0  0  0
   -9.5908   -4.5996   -4.3810 C   0  0  0  0  0  0  0  0  0  0  0  0
   -1.3006   -4.0129   -2.9946 C   0  0  0  0  0  0  0  0  0  0  0  0
    0.0169   -3.6516   -3.2755 C   0  0  0  0  0  0  0  0  0  0  0  0
    0.4875   -3.1215   -2.0934 C   0  0  0  0  0  0  0  0  0  0  0  0
   -0.5112   -3.1645   -1.1885 C   0  0  0  0  0  0  0  0  0  0  0  0
   -1.6257   -3.7343   -1.6950 N   0  0  0  0  0  0  0  0  0  0  0  0
   -2.7630   -4.2411   -0.9099 C   0  0  0  0  0  0  0  0  0  0  0  0
   -2.9587   -5.7466   -1.0909 C   0  0  0  0  0  0  0  0  0  0  0  0
   -0.3311   -2.0705   -0.3600 C   0  0  0  0  0  0  0  0  0  0  0  0
   -1.2304   -1.3353    0.4429 C   0  0  0  0  0  0  0  0  0  0  0  0
   -0.8194   -0.0688    0.9645 C   0  0  0  0  0  0  0  0  0  0  0  0
   -1.7146    0.6147    1.7194 N   0  0  0  0  0  0  0  0  0  0  0  0
   -2.9924   -0.4345    1.6538 S   0  0  0  0  0  0  0  0  0  0  0  0
   -2.4977   -1.7162    0.7315 N   0  0  0  0  0  0  0  0  0  0  0  0
    0.4567    0.4022    0.6541 C   0  0  0  0  0  0  0  0  0  0  0  0
    1.1693    1.4674    1.1242 C   0  0  0  0  0  0  0  0  0  0  0  0
    1.0359    2.6138    2.3675 S   0  0  0  0  0  0  0  0  0  0  0  0
    2.7001    2.9807    2.2496 C   0  0  0  0  0  0  0  0  0  0  0  0
    3.5598    3.7939    2.9945 C   0  0  0  0  0  0  0  0  0  0  0  0
    3.1308    4.5788    4.2109 C   0  0  0  0  0  0  0  0  0  0  0  0
    2.1424    5.6912    3.8656 C   0  0  0  0  0  0  0  0  0  0  0  0
    4.8960    3.6129    2.5694 C   0  0  0  0  0  0  0  0  0  0  0  0
    4.9747    2.4243    1.3518 S   0  0  0  0  0  0  0  0  0  0  0  0
    3.3187    2.1856    1.3179 C   0  0  0  0  0  0  0  0  0  0  0  0
    2.4412    1.3266    0.6724 C   0  0  0  0  0  0  0  0  0  0  0  0
    2.6131    0.2043   -0.0696 N   0  0  0  0  0  0  0  0  0  0  0  0
    1.3497   -0.3239   -0.1400 C   0  0  0  0  0  0  0  0  0  0  0  0
    0.9138   -1.5291   -0.7369 C   0  0  0  0  0  0  0  0  0  0  0  0
    1.3846   -2.1289   -1.8747 N   0  0  0  0  0  0  0  0  0  0  0  0
    2.1424   -1.4769   -2.9550 C   0  0  0  0  0  0  0  0  0  0  0  0
    3.2384   -2.3960   -3.4959 C   0  0  0  0  0  0  0  0  0  0  0  0
    3.8800   -0.5337   -0.1668 C   0  0  0  0  0  0  0  0  0  0  0  0
    4.2083   -1.2242    1.1564 C   0  0  0  0  0  0  0  0  0  0  0  0
    6.0969    4.1848    3.1986 C   0  0  0  0  0  0  0  0  0  0  0  0
    6.3795    5.4998    3.1963 C   0  0  0  0  0  0  0  0  0  0  0  0
    5.5326    6.5545    2.6339 C   0  0  0  0  0  0  0  0  0  0  0  0
    4.6883    6.4018    1.7110 O   0  0  0  0  0  0  0  0  0  0  0  0
    5.8950    7.8173    3.2613 C   0  0  0  0  0  0  0  0  0  0  0  0
    5.2667    9.0744    3.1863 C   0  0  0  0  0  0  0  0  0  0  0  0
    4.1552    9.3181    2.3791 O   0  0  0  0  0  0  0  0  0  0  0  0
    5.7754   10.1188    3.9709 C   0  0  0  0  0  0  0  0  0  0  0  0
    6.8641    9.9007    4.8299 C   0  0  0  0  0  0  0  0  0  0  0  0
    7.4696    8.6391    4.9055 C   0  0  0  0  0  0  0  0  0  0  0  0
    6.9914    7.6022    4.0893 C   0  0  0  0  0  0  0  0  0  0  0  0
    7.4388    6.1857    3.9871 C   0  0  0  0  0  0  0  0  0  0  0  0
    8.6640    5.6904    4.3015 C   0  0  0  0  0  0  0  0  0  0  0  0
    9.6791    6.4808    4.9479 C   0  0  0  0  0  0  0  0  0  0  0  0
   10.5077    7.1024    5.4651 N   0  0  0  0  0  0  0  0  0  0  0  0
    9.0924    4.3840    3.8705 C   0  0  0  0  0  0  0  0  0  0  0  0
    9.4406    3.3365    3.5176 N   0  0  0  0  0  0  0  0  0  0  0  0
   -1.8100   -5.4084   -4.5812 H   0  0  0  0  0  0  0  0  0  0  0  0
   -7.0251   -6.0848   -5.6249 H   0  0  0  0  0  0  0  0  0  0  0  0
   -6.8427   -1.9876   -2.5884 H   0  0  0  0  0  0  0  0  0  0  0  0
  -10.0121   -2.5152   -3.9633 H   0  0  0  0  0  0  0  0  0  0  0  0
  -10.4997   -3.0985   -1.4972 H   0  0  0  0  0  0  0  0  0  0  0  0
   -8.7315   -4.8634   -0.5937 H   0  0  0  0  0  0  0  0  0  0  0  0
   -8.8333   -6.9736   -2.1192 H   0  0  0  0  0  0  0  0  0  0  0  0
  -10.6692   -6.5573   -3.9955 H   0  0  0  0  0  0  0  0  0  0  0  0
  -11.7872   -5.3715   -1.9128 H   0  0  0  0  0  0  0  0  0  0  0  0
  -11.9699   -4.3041   -3.3778 H   0  0  0  0  0  0  0  0  0  0  0  0
  -10.1163   -4.4246   -5.3462 H   0  0  0  0  0  0  0  0  0  0  0  0
    0.4827   -3.6211   -4.2516 H   0  0  0  0  0  0  0  0  0  0  0  0
   -3.6923   -3.6971   -1.1683 H   0  0  0  0  0  0  0  0  0  0  0  0
   -2.5649   -4.0907    0.1704 H   0  0  0  0  0  0  0  0  0  0  0  0
   -3.3858   -5.9786   -2.0859 H   0  0  0  0  0  0  0  0  0  0  0  0
   -1.9901   -6.2762   -0.9691 H   0  0  0  0  0  0  0  0  0  0  0  0
   -3.6675   -6.1226   -0.3229 H   0  0  0  0  0  0  0  0  0  0  0  0
    4.0095    5.0305    4.7160 H   0  0  0  0  0  0  0  0  0  0  0  0
    2.6562    3.8831    4.9360 H   0  0  0  0  0  0  0  0  0  0  0  0
    2.5807    6.3974    3.1321 H   0  0  0  0  0  0  0  0  0  0  0  0
    1.2029    5.2737    3.4490 H   0  0  0  0  0  0  0  0  0  0  0  0
    1.8912    6.2577    4.7875 H   0  0  0  0  0  0  0  0  0  0  0  0
    2.5907   -0.5212   -2.6175 H   0  0  0  0  0  0  0  0  0  0  0  0
    1.4508   -1.2111   -3.7844 H   0  0  0  0  0  0  0  0  0  0  0  0
    3.9036   -2.7491   -2.6820 H   0  0  0  0  0  0  0  0  0  0  0  0
    2.7984   -3.2827   -3.9958 H   0  0  0  0  0  0  0  0  0  0  0  0
    3.8479   -1.8441   -4.2419 H   0  0  0  0  0  0  0  0  0  0  0  0
    3.8272   -1.3171   -0.9356 H   0  0  0  0  0  0  0  0  0  0  0  0
    4.7013    0.1569   -0.4504 H   0  0  0  0  0  0  0  0  0  0  0  0
    4.3352   -0.4780    1.9675 H   0  0  0  0  0  0  0  0  0  0  0  0
    3.3923   -1.9253    1.4330 H   0  0  0  0  0  0  0  0  0  0  0  0
    5.1537   -1.7976    1.0525 H   0  0  0  0  0  0  0  0  0  0  0  0
    6.7300    3.4874    3.7237 H   0  0  0  0  0  0  0  0  0  0  0  0
    3.7274    8.6084    1.8016 H   0  0  0  0  0  0  0  0  0  0  0  0
    5.3130   11.0971    3.9344 H   0  0  0  0  0  0  0  0  0  0  0  0
    7.2314   10.7102    5.4484 H   0  0  0  0  0  0  0  0  0  0  0  0
    8.2677    8.4912    5.6149 H   0  0  0  0  0  0  0  0  0  0  0  0
  1  2  2  3
  2  3  1  0
  3  4  2  0
  3  5  1  0
  5  6  2  0
  6  7  1  0
  7  8  2  0
  8  9  1  0
  9 10  2  0
 10 11  1  0
 11 12  2  3
 12 13  1  0
 13 14  3  0
 12 15  1  0
 15 16  3  0
  8 17  1  0
 17 18  1  0
 18 19  1  0
 19 20  2  0
 20 21  1  0
 21 22  1  0
 21 23  1  0
  1 24  1  0
 24 25  2  0
 25 26  1  0
 26 27  2  0
 27 28  1  0
 28 29  1  0
 29 30  1  0
 27 31  1  0
 31 32  1  0
 32 33  1  0
 33 34  2  0
 34 35  1  0
 35 36  1  0
 33 37  1  0
 37 38  1  0
 38 39  1  0
 39 40  1  0
 40 41  1  0
 41 42  1  0
 42 43  1  0
 41 44  2  0
 44 45  1  0
 45 46  1  0
 46 47  1  0
 47 48  1  0
 48 49  1  0
 49 50  1  0
 50 51  1  0
 51 52  1  0
 52 53  1  0
 48 54  1  0
 54 55  1  0
 44 56  1  0
 56 57  2  3
 57 58  1  0
 58 59  2  0
 58 60  1  0
 60 61  2  0
 61 62  1  0
 61 63  1  0
 63 64  2  0
 64 65  1  0
 65 66  2  0
 66 67  1  0
 67 68  2  3
 68 69  1  0
 69 70  3  0
 68 71  1  0
 71 72  3  0
 11  2  1  0
 23 17  1  0
 28 24  1  0
 50 31  2  0
 67 57  1  0
 10  5  1  0
 22 18  1  0
 51 26  1  0
 66 60  1  0
 23  7  1  0
 36 32  2  0
 49 37  2  0
 47 38  2  0
 46 40  2  0
  1 73  1  0
  6 74  1  0
  9 75  1  0
 17 76  1  0
 18 77  1  0
 19 78  1  0
 20 79  1  0
 21 80  1  0
 22 81  1  0
 22 82  1  0
 23 83  1  0
 25 84  1  0
 29 85  1  0
 29 86  1  0
 30 87  1  0
 30 88  1  0
 30 89  1  0
 42 90  1  0
 42 91  1  0
 43 92  1  0
 43 93  1  0
 43 94  1  0
 52 95  1  0
 52 96  1  0
 53 97  1  0
 53 98  1  0
 53 99  1  0
 54100  1  0
 54101  1  0
 55102  1  0
 55103  1  0
 55104  1  0
 56105  1  0
 62106  1  0
 63107  1  0
 64108  1  0
 65109  1  0
M  END

