
     RDKit          3D

188208  0  0  0  0  0  0  0  0999 V2000
    0.8986    4.6447    8.0251 C   0  0  0  0  0  0  0  0  0  0  0  0
    1.6481    3.9488    8.9085 C   0  0  0  0  0  0  0  0  0  0  0  0
    2.0143    2.5292    8.7864 C   0  0  0  0  0  0  0  0  0  0  0  0
    1.2430    1.5805    8.4891 O   0  0  0  0  0  0  0  0  0  0  0  0
    3.3914    2.3657    9.1842 C   0  0  0  0  0  0  0  0  0  0  0  0
    4.2128    1.2437    8.9327 C   0  0  0  0  0  0  0  0  0  0  0  0
    5.5509    1.4782    9.1641 C   0  0  0  0  0  0  0  0  0  0  0  0
    6.0656    2.7357    9.6167 C   0  0  0  0  0  0  0  0  0  0  0  0
    5.2590    3.8287    9.8977 C   0  0  0  0  0  0  0  0  0  0  0  0
    3.8705    3.6022    9.6823 C   0  0  0  0  0  0  0  0  0  0  0  0
    2.7469    4.5761    9.6976 C   0  0  0  0  0  0  0  0  0  0  0  0
    2.6710    5.7232   10.4109 C   0  0  0  0  0  0  0  0  0  0  0  0
    1.4491    6.4878   10.4874 C   0  0  0  0  0  0  0  0  0  0  0  0
    0.4695    7.1009   10.5485 N   0  0  0  0  0  0  0  0  0  0  0  0
    3.7599    6.1950   11.2273 C   0  0  0  0  0  0  0  0  0  0  0  0
    4.6423    6.5828   11.8703 N   0  0  0  0  0  0  0  0  0  0  0  0
    7.4705    2.2373    9.4577 C   0  0  0  0  0  0  0  0  0  0  0  0
    8.2860    2.7398    8.2263 C   0  0  0  0  0  0  0  0  0  0  0  0
    7.3535    3.0224    7.0684 C   0  0  0  0  0  0  0  0  0  0  0  0
    6.8783    1.8418    6.6656 C   0  0  0  0  0  0  0  0  0  0  0  0
    7.5009    0.7968    7.5633 C   0  0  0  0  0  0  0  0  0  0  0  0
    8.8716    1.4253    7.7438 C   0  0  0  0  0  0  0  0  0  0  0  0
    6.9422    0.9409    9.0118 C   0  0  0  0  0  0  0  0  0  0  0  0
    0.5414    4.1297    6.6892 C   0  0  0  0  0  0  0  0  0  0  0  0
    1.0302    4.7166    5.5103 C   0  0  0  0  0  0  0  0  0  0  0  0
    0.7621    3.9133    4.4117 C   0  0  0  0  0  0  0  0  0  0  0  0
    1.1488    4.0228    2.7620 S   0  0  0  0  0  0  0  0  0  0  0  0
    0.4759    2.4926    2.4718 C   0  0  0  0  0  0  0  0  0  0  0  0
    0.0540    1.7522    1.3187 C   0  0  0  0  0  0  0  0  0  0  0  0
    0.2445    2.0133   -0.0410 C   0  0  0  0  0  0  0  0  0  0  0  0
   -0.4342    1.1800   -0.9459 C   0  0  0  0  0  0  0  0  0  0  0  0
   -0.3579    1.1544   -2.4721 C   0  0  0  0  0  0  0  0  0  0  0  0
    1.1140    1.0429   -2.8866 C   0  0  0  0  0  0  0  0  0  0  0  0
    1.8001   -0.1850   -2.7836 C   0  0  0  0  0  0  0  0  0  0  0  0
    3.1447   -0.2854   -3.1616 C   0  0  0  0  0  0  0  0  0  0  0  0
    3.8460    0.8471   -3.5970 C   0  0  0  0  0  0  0  0  0  0  0  0
    5.2814    0.7413   -4.0465 C   0  0  0  0  0  0  0  0  0  0  0  0
    5.3681    0.6363   -5.5674 C   0  0  0  0  0  0  0  0  0  0  0  0
    3.1944    2.0848   -3.6331 C   0  0  0  0  0  0  0  0  0  0  0  0
    1.8536    2.1870   -3.2600 C   0  0  0  0  0  0  0  0  0  0  0  0
   -1.0914    2.3659   -3.0943 C   0  0  0  0  0  0  0  0  0  0  0  0
   -0.9874    2.6112   -4.4784 C   0  0  0  0  0  0  0  0  0  0  0  0
   -1.5932    3.7191   -5.0681 C   0  0  0  0  0  0  0  0  0  0  0  0
   -2.3407    4.6119   -4.2877 C   0  0  0  0  0  0  0  0  0  0  0  0
   -2.9098    5.8663   -4.9029 C   0  0  0  0  0  0  0  0  0  0  0  0
   -1.8182    6.9211   -5.0615 C   0  0  0  0  0  0  0  0  0  0  0  0
   -2.5100    4.3529   -2.9223 C   0  0  0  0  0  0  0  0  0  0  0  0
   -1.9103    3.2348   -2.3352 C   0  0  0  0  0  0  0  0  0  0  0  0
   -1.1716   -0.1176   -2.7479 C   0  0  0  0  0  0  0  0  0  0  0  0
   -1.8701   -0.4449   -1.6130 C   0  0  0  0  0  0  0  0  0  0  0  0
   -1.3625    0.2551   -0.4786 C   0  0  0  0  0  0  0  0  0  0  0  0
   -1.5539   -0.0104    0.8739 C   0  0  0  0  0  0  0  0  0  0  0  0
   -0.7719    0.7198    1.7841 C   0  0  0  0  0  0  0  0  0  0  0  0
   -0.7650    0.6109    3.3139 C   0  0  0  0  0  0  0  0  0  0  0  0
    0.1050   -0.5851    3.7729 C   0  0  0  0  0  0  0  0  0  0  0  0
    0.0742   -1.8207    3.0884 C   0  0  0  0  0  0  0  0  0  0  0  0
    0.8157   -2.9157    3.5434 C   0  0  0  0  0  0  0  0  0  0  0  0
    1.5832   -2.8192    4.7086 C   0  0  0  0  0  0  0  0  0  0  0  0
    2.4186   -3.9799    5.1757 C   0  0  0  0  0  0  0  0  0  0  0  0
    3.7842   -3.9696    4.4911 C   0  0  0  0  0  0  0  0  0  0  0  0
    1.6123   -1.6100    5.4090 C   0  0  0  0  0  0  0  0  0  0  0  0
    0.8750   -0.5142    4.9551 C   0  0  0  0  0  0  0  0  0  0  0  0
   -2.1836    0.6057    3.8876 C   0  0  0  0  0  0  0  0  0  0  0  0
   -2.6290   -0.3948    4.7806 C   0  0  0  0  0  0  0  0  0  0  0  0
   -3.9460   -0.3988    5.2460 C   0  0  0  0  0  0  0  0  0  0  0  0
   -4.8464    0.5882    4.8349 C   0  0  0  0  0  0  0  0  0  0  0  0
   -6.2604    0.5821    5.3495 C   0  0  0  0  0  0  0  0  0  0  0  0
   -6.3705    1.4088    6.6277 C   0  0  0  0  0  0  0  0  0  0  0  0
   -4.4087    1.6071    3.9763 C   0  0  0  0  0  0  0  0  0  0  0  0
   -3.0916    1.6164    3.5090 C   0  0  0  0  0  0  0  0  0  0  0  0
   -0.0611    1.9250    3.5961 C   0  0  0  0  0  0  0  0  0  0  0  0
    0.0869    2.7584    4.6923 C   0  0  0  0  0  0  0  0  0  0  0  0
   -0.2821    2.6791    6.3244 S   0  0  0  0  0  0  0  0  0  0  0  0
   -3.4086   -1.0337   -1.9444 S   0  0  0  0  0  0  0  0  0  0  0  0
   -3.1366   -0.9633   -3.6094 C   0  0  0  0  0  0  0  0  0  0  0  0
   -3.5546   -1.9145   -4.5802 C   0  0  0  0  0  0  0  0  0  0  0  0
   -2.5279   -2.2343   -5.3947 C   0  0  0  0  0  0  0  0  0  0  0  0
   -1.2714   -1.4639   -5.0412 C   0  0  0  0  0  0  0  0  0  0  0  0
   -1.8367   -0.5556   -3.9125 C   0  0  0  0  0  0  0  0  0  0  0  0
   -0.2504   -2.5117   -4.5324 C   0  0  0  0  0  0  0  0  0  0  0  0
   -0.4141   -3.1239   -3.2697 C   0  0  0  0  0  0  0  0  0  0  0  0
    0.4976   -4.0698   -2.7998 C   0  0  0  0  0  0  0  0  0  0  0  0
    1.5782   -4.4671   -3.5948 C   0  0  0  0  0  0  0  0  0  0  0  0
    2.6077   -5.4257   -3.0519 C   0  0  0  0  0  0  0  0  0  0  0  0
    3.5199   -4.7246   -2.0466 C   0  0  0  0  0  0  0  0  0  0  0  0
    1.6977   -3.9479   -4.8895 C   0  0  0  0  0  0  0  0  0  0  0  0
    0.7727   -3.0153   -5.3692 C   0  0  0  0  0  0  0  0  0  0  0  0
   -0.7732   -0.5977   -6.2085 C   0  0  0  0  0  0  0  0  0  0  0  0
   -1.6242   -0.2270   -7.2751 C   0  0  0  0  0  0  0  0  0  0  0  0
   -1.1512    0.5512   -8.3304 C   0  0  0  0  0  0  0  0  0  0  0  0
    0.1714    1.0128   -8.3365 C   0  0  0  0  0  0  0  0  0  0  0  0
    0.6922    1.8181   -9.4954 C   0  0  0  0  0  0  0  0  0  0  0  0
    1.6328    0.9822  -10.3631 C   0  0  0  0  0  0  0  0  0  0  0  0
    1.0114    0.6955   -7.2609 C   0  0  0  0  0  0  0  0  0  0  0  0
    0.5440   -0.0955   -6.2116 C   0  0  0  0  0  0  0  0  0  0  0  0
   -2.7919   -3.3181   -6.2365 C   0  0  0  0  0  0  0  0  0  0  0  0
   -4.0797   -3.8349   -6.0082 C   0  0  0  0  0  0  0  0  0  0  0  0
   -4.8552   -2.9387   -4.7767 S   0  0  0  0  0  0  0  0  0  0  0  0
   -4.6935   -4.9216   -6.7913 C   0  0  0  0  0  0  0  0  0  0  0  0
   -5.6941   -5.7064   -6.3482 C   0  0  0  0  0  0  0  0  0  0  0  0
   -6.6913   -6.2934   -7.2402 C   0  0  0  0  0  0  0  0  0  0  0  0
   -6.5735   -6.4238   -8.4878 O   0  0  0  0  0  0  0  0  0  0  0  0
   -7.8826   -6.6012   -6.4556 C   0  0  0  0  0  0  0  0  0  0  0  0
   -7.6255   -6.3051   -5.1242 C   0  0  0  0  0  0  0  0  0  0  0  0
   -8.6518   -6.3902   -4.1727 C   0  0  0  0  0  0  0  0  0  0  0  0
   -9.9198   -6.8291   -4.5808 C   0  0  0  0  0  0  0  0  0  0  0  0
  -10.1683   -7.1626   -5.9259 C   0  0  0  0  0  0  0  0  0  0  0  0
  -11.9296   -7.7397   -6.4086 Br  0  0  0  0  0  0  0  0  0  0  0  0
   -9.1436   -7.0381   -6.8864 C   0  0  0  0  0  0  0  0  0  0  0  0
   -9.4348   -7.4105   -8.5803 Cl  0  0  0  0  0  0  0  0  0  0  0  0
   -6.2129   -5.8792   -4.9614 C   0  0  0  0  0  0  0  0  0  0  0  0
   -5.4548   -6.0446   -3.8488 C   0  0  0  0  0  0  0  0  0  0  0  0
   -6.0164   -6.3926   -2.5707 C   0  0  0  0  0  0  0  0  0  0  0  0
   -6.4591   -6.6698   -1.5368 N   0  0  0  0  0  0  0  0  0  0  0  0
   -4.0106   -6.0325   -3.9074 C   0  0  0  0  0  0  0  0  0  0  0  0
   -2.8552   -6.0212   -3.9419 N   0  0  0  0  0  0  0  0  0  0  0  0
    0.9133    5.7250    8.0851 H   0  0  0  0  0  0  0  0  0  0  0  0
    3.8502    0.3281    8.4856 H   0  0  0  0  0  0  0  0  0  0  0  0
    5.6856    4.7848   10.1548 H   0  0  0  0  0  0  0  0  0  0  0  0
    8.0439    2.1843   10.4107 H   0  0  0  0  0  0  0  0  0  0  0  0
    9.0234    3.5424    8.4392 H   0  0  0  0  0  0  0  0  0  0  0  0
    7.1552    3.9772    6.5958 H   0  0  0  0  0  0  0  0  0  0  0  0
    6.2259    1.6753    5.8161 H   0  0  0  0  0  0  0  0  0  0  0  0
    7.4950   -0.2323    7.1528 H   0  0  0  0  0  0  0  0  0  0  0  0
    9.4434    1.5150    6.7880 H   0  0  0  0  0  0  0  0  0  0  0  0
    9.4967    0.9085    8.5075 H   0  0  0  0  0  0  0  0  0  0  0  0
    7.1807    0.0986    9.6975 H   0  0  0  0  0  0  0  0  0  0  0  0
    1.5974    5.6355    5.4657 H   0  0  0  0  0  0  0  0  0  0  0  0
    0.9012    2.8052   -0.3811 H   0  0  0  0  0  0  0  0  0  0  0  0
    1.2995   -1.0688   -2.4162 H   0  0  0  0  0  0  0  0  0  0  0  0
    3.6373   -1.2479   -3.1080 H   0  0  0  0  0  0  0  0  0  0  0  0
    5.7663   -0.1532   -3.5911 H   0  0  0  0  0  0  0  0  0  0  0  0
    5.8463    1.6400   -3.7075 H   0  0  0  0  0  0  0  0  0  0  0  0
    4.9062    1.5245   -6.0498 H   0  0  0  0  0  0  0  0  0  0  0  0
    4.8505   -0.2824   -5.9202 H   0  0  0  0  0  0  0  0  0  0  0  0
    6.4342    0.5816   -5.8707 H   0  0  0  0  0  0  0  0  0  0  0  0
    3.7243    2.9713   -3.9521 H   0  0  0  0  0  0  0  0  0  0  0  0
    1.4007    3.1678   -3.2707 H   0  0  0  0  0  0  0  0  0  0  0  0
   -0.3719    1.9828   -5.0924 H   0  0  0  0  0  0  0  0  0  0  0  0
   -1.4396    3.9069   -6.1233 H   0  0  0  0  0  0  0  0  0  0  0  0
   -3.3505    5.6324   -5.8976 H   0  0  0  0  0  0  0  0  0  0  0  0
   -3.7230    6.2812   -4.2665 H   0  0  0  0  0  0  0  0  0  0  0  0
   -1.3606    7.1514   -4.0737 H   0  0  0  0  0  0  0  0  0  0  0  0
   -2.2547    7.8523   -5.4796 H   0  0  0  0  0  0  0  0  0  0  0  0
   -1.0289    6.5599   -5.7568 H   0  0  0  0  0  0  0  0  0  0  0  0
   -3.0978    5.0194   -2.3058 H   0  0  0  0  0  0  0  0  0  0  0  0
   -2.0891    3.0756   -1.2829 H   0  0  0  0  0  0  0  0  0  0  0  0
   -2.2524   -0.7675    1.2055 H   0  0  0  0  0  0  0  0  0  0  0  0
   -0.5177   -1.9632    2.2007 H   0  0  0  0  0  0  0  0  0  0  0  0
    0.7922   -3.8418    2.9831 H   0  0  0  0  0  0  0  0  0  0  0  0
    2.5654   -3.9296    6.2774 H   0  0  0  0  0  0  0  0  0  0  0  0
    1.8991   -4.9364    4.9540 H   0  0  0  0  0  0  0  0  0  0  0  0
    4.3920   -4.8240    4.8613 H   0  0  0  0  0  0  0  0  0  0  0  0
    3.6640   -4.0697    3.3909 H   0  0  0  0  0  0  0  0  0  0  0  0
    4.3219   -3.0244    4.7197 H   0  0  0  0  0  0  0  0  0  0  0  0
    2.2013   -1.5142    6.3137 H   0  0  0  0  0  0  0  0  0  0  0  0
    0.9157    0.3802    5.5457 H   0  0  0  0  0  0  0  0  0  0  0  0
   -1.9707   -1.1810    5.1219 H   0  0  0  0  0  0  0  0  0  0  0  0
   -4.2586   -1.1746    5.9321 H   0  0  0  0  0  0  0  0  0  0  0  0
   -6.9490    0.9986    4.5812 H   0  0  0  0  0  0  0  0  0  0  0  0
   -6.5877   -0.4612    5.5583 H   0  0  0  0  0  0  0  0  0  0  0  0
   -5.6913    1.0102    7.4085 H   0  0  0  0  0  0  0  0  0  0  0  0
   -7.4138    1.3702    7.0082 H   0  0  0  0  0  0  0  0  0  0  0  0
   -6.1050    2.4687    6.4169 H   0  0  0  0  0  0  0  0  0  0  0  0
   -5.0867    2.3874    3.6597 H   0  0  0  0  0  0  0  0  0  0  0  0
   -2.7821    2.4057    2.8364 H   0  0  0  0  0  0  0  0  0  0  0  0
   -1.2537   -2.8832   -2.6394 H   0  0  0  0  0  0  0  0  0  0  0  0
    0.3564   -4.4935   -1.8119 H   0  0  0  0  0  0  0  0  0  0  0  0
    3.2299   -5.8342   -3.8759 H   0  0  0  0  0  0  0  0  0  0  0  0
    2.0987   -6.2828   -2.5581 H   0  0  0  0  0  0  0  0  0  0  0  0
    4.3066   -5.4292   -1.7076 H   0  0  0  0  0  0  0  0  0  0  0  0
    2.9343   -4.3879   -1.1633 H   0  0  0  0  0  0  0  0  0  0  0  0
    4.0037   -3.8428   -2.5154 H   0  0  0  0  0  0  0  0  0  0  0  0
    2.5032   -4.2729   -5.5369 H   0  0  0  0  0  0  0  0  0  0  0  0
    0.8687   -2.6945   -6.3977 H   0  0  0  0  0  0  0  0  0  0  0  0
   -2.6596   -0.5386   -7.3035 H   0  0  0  0  0  0  0  0  0  0  0  0
   -1.8198    0.7967   -9.1462 H   0  0  0  0  0  0  0  0  0  0  0  0
    1.2392    2.7107   -9.1166 H   0  0  0  0  0  0  0  0  0  0  0  0
   -0.1461    2.1851  -10.1273 H   0  0  0  0  0  0  0  0  0  0  0  0
    1.9200    1.5622  -11.2606 H   0  0  0  0  0  0  0  0  0  0  0  0
    2.5511    0.7220   -9.7893 H   0  0  0  0  0  0  0  0  0  0  0  0
    1.1286    0.0431  -10.6905 H   0  0  0  0  0  0  0  0  0  0  0  0
    2.0321    1.0669   -7.2320 H   0  0  0  0  0  0  0  0  0  0  0  0
    1.2178   -0.3105   -5.3971 H   0  0  0  0  0  0  0  0  0  0  0  0
   -2.0802   -3.7314   -6.9398 H   0  0  0  0  0  0  0  0  0  0  0  0
   -4.4244   -4.9652   -7.8386 H   0  0  0  0  0  0  0  0  0  0  0  0
   -8.5092   -6.0902   -3.1488 H   0  0  0  0  0  0  0  0  0  0  0  0
  -10.7154   -6.9009   -3.8520 H   0  0  0  0  0  0  0  0  0  0  0  0
  1  2  2  3
  2  3  1  0
  3  4  2  0
  3  5  1  0
  5  6  2  0
  6  7  1  0
  7  8  2  0
  8  9  1  0
  9 10  2  0
 10 11  1  0
 11 12  2  3
 12 13  1  0
 13 14  3  0
 12 15  1  0
 15 16  3  0
  8 17  1  0
 17 18  1  0
 18 19  1  0
 19 20  2  0
 20 21  1  0
 21 22  1  0
 21 23  1  0
  1 24  1  0
 24 25  2  0
 25 26  1  0
 26 27  1  0
 27 28  1  0
 28 29  1  0
 29 30  2  0
 30 31  1  0
 31 32  1  0
 32 33  1  0
 33 34  2  0
 34 35  1  0
 35 36  2  0
 36 37  1  0
 37 38  1  0
 36 39  1  0
 39 40  2  0
 32 41  1  0
 41 42  2  0
 42 43  1  0
 43 44  2  0
 44 45  1  0
 45 46  1  0
 44 47  1  0
 47 48  2  0
 32 49  1  0
 49 50  2  0
 50 51  1  0
 51 52  1  0
 52 53  2  0
 53 54  1  0
 54 55  1  0
 55 56  2  0
 56 57  1  0
 57 58  2  0
 58 59  1  0
 59 60  1  0
 58 61  1  0
 61 62  2  0
 54 63  1  0
 63 64  2  0
 64 65  1  0
 65 66  2  0
 66 67  1  0
 67 68  1  0
 66 69  1  0
 69 70  2  0
 54 71  1  0
 71 72  1  0
 72 73  1  0
 50 74  1  0
 74 75  1  0
 75 76  1  0
 76 77  2  0
 77 78  1  0
 78 79  1  0
 78 80  1  0
 80 81  2  0
 81 82  1  0
 82 83  2  0
 83 84  1  0
 84 85  1  0
 83 86  1  0
 86 87  2  0
 78 88  1  0
 88 89  2  0
 89 90  1  0
 90 91  2  0
 91 92  1  0
 92 93  1  0
 91 94  1  0
 94 95  2  0
 77 96  1  0
 96 97  2  0
 97 98  1  0
 97 99  1  0
 99100  2  3
100101  1  0
101102  2  0
101103  1  0
103104  2  0
104105  1  0
105106  2  0
106107  1  0
107108  1  0
107109  2  0
109110  1  0
104111  1  0
111112  2  3
112113  1  0
113114  3  0
112115  1  0
115116  3  0
 11  2  1  0
 23 17  1  0
 73 24  1  0
 79 75  2  0
 87 80  1  0
 95 88  1  0
111100  1  0
 10  5  1  0
 22 18  1  0
 72 26  2  0
 98 76  1  0
109103  1  0
 23  7  1  0
 71 28  2  0
 53 29  1  0
 62 55  1  0
 70 63  1  0
 51 31  2  0
 40 33  1  0
 48 41  1  0
 79 49  1  0
  1117  1  0
  6118  1  0
  9119  1  0
 17120  1  0
 18121  1  0
 19122  1  0
 20123  1  0
 21124  1  0
 22125  1  0
 22126  1  0
 23127  1  0
 25128  1  0
 30129  1  0
 34130  1  0
 35131  1  0
 37132  1  0
 37133  1  0
 38134  1  0
 38135  1  0
 38136  1  0
 39137  1  0
 40138  1  0
 42139  1  0
 43140  1  0
 45141  1  0
 45142  1  0
 46143  1  0
 46144  1  0
 46145  1  0
 47146  1  0
 48147  1  0
 52148  1  0
 56149  1  0
 57150  1  0
 59151  1  0
 59152  1  0
 60153  1  0
 60154  1  0
 60155  1  0
 61156  1  0
 62157  1  0
 64158  1  0
 65159  1  0
 67160  1  0
 67161  1  0
 68162  1  0
 68163  1  0
 68164  1  0
 69165  1  0
 70166  1  0
 81167  1  0
 82168  1  0
 84169  1  0
 84170  1  0
 85171  1  0
 85172  1  0
 85173  1  0
 86174  1  0
 87175  1  0
 89176  1  0
 90177  1  0
 92178  1  0
 92179  1  0
 93180  1  0
 93181  1  0
 93182  1  0
 94183  1  0
 95184  1  0
 96185  1  0
 99186  1  0
105187  1  0
106188  1  0
M  END

