
     RDKit          3D

101114  0  0  0  0  0  0  0  0999 V2000
    3.1924   -3.3671   -6.1604 C   0  0  0  0  0  0  0  0  0  0  0  0
    3.8427   -2.1893   -6.1718 C   0  0  0  0  0  0  0  0  0  0  0  0
    3.4492   -0.8753   -5.7744 C   0  0  0  0  0  0  0  0  0  0  0  0
    2.2459   -0.4153   -5.8829 O   0  0  0  0  0  0  0  0  0  0  0  0
    4.5569   -0.1151   -5.2445 C   0  0  0  0  0  0  0  0  0  0  0  0
    4.6362    1.1235   -4.6683 C   0  0  0  0  0  0  0  0  0  0  0  0
    5.7956    1.6281   -4.1254 C   0  0  0  0  0  0  0  0  0  0  0  0
    6.9108    0.8341   -4.1779 C   0  0  0  0  0  0  0  0  0  0  0  0
    6.8603   -0.4378   -4.7717 C   0  0  0  0  0  0  0  0  0  0  0  0
    5.6781   -0.9109   -5.3013 C   0  0  0  0  0  0  0  0  0  0  0  0
    5.3283   -2.2488   -5.8869 C   0  0  0  0  0  0  0  0  0  0  0  0
    6.1645   -3.1690   -6.2282 C   0  0  0  0  0  0  0  0  0  0  0  0
    5.9221   -4.3315   -6.9705 C   0  0  0  0  0  0  0  0  0  0  0  0
    5.7315   -5.3430   -7.6206 N   0  0  0  0  0  0  0  0  0  0  0  0
    7.5941   -3.1862   -5.7015 C   0  0  0  0  0  0  0  0  0  0  0  0
    8.6635   -3.1829   -5.3094 N   0  0  0  0  0  0  0  0  0  0  0  0
    7.7579    1.8073   -3.4396 C   0  0  0  0  0  0  0  0  0  0  0  0
    7.9783    1.3712   -2.0066 C   0  0  0  0  0  0  0  0  0  0  0  0
    6.8500    0.5057   -1.6205 C   0  0  0  0  0  0  0  0  0  0  0  0
    5.7571    1.3350   -1.5741 C   0  0  0  0  0  0  0  0  0  0  0  0
    6.1897    2.7136   -1.9177 C   0  0  0  0  0  0  0  0  0  0  0  0
    7.5762    2.6648   -1.2956 C   0  0  0  0  0  0  0  0  0  0  0  0
    6.5483    2.6864   -3.3990 C   0  0  0  0  0  0  0  0  0  0  0  0
    1.8286   -3.2599   -5.5811 C   0  0  0  0  0  0  0  0  0  0  0  0
    0.1995   -4.0042   -5.8661 Se  0  0  0  0  0  2  0  0  0  0  0  0
   -0.6216   -3.1696   -4.3246 C   0  0  0  0  0  0  0  0  0  0  0  0
   -1.7273   -3.0017   -3.5595 C   0  0  0  0  0  0  0  0  0  0  0  0
   -2.9619   -3.6776   -3.6235 C   0  0  0  0  0  0  0  0  0  0  0  0
   -3.8215   -3.4696   -2.6232 C   0  0  0  0  0  0  0  0  0  0  0  0
   -5.0104   -4.1442   -2.6959 N   0  0  0  0  0  0  0  0  0  0  0  0
   -4.8936   -5.0047   -4.1072 S   0  0  0  0  0  0  0  0  0  0  0  0
   -3.3667   -4.5331   -4.6012 N   0  0  0  0  0  0  0  0  0  0  0  0
   -3.4796   -2.6032   -1.5757 C   0  0  0  0  0  0  0  0  0  0  0  0
   -4.1479   -2.2506   -0.4132 C   0  0  0  0  0  0  0  0  0  0  0  0
   -5.5415   -2.4601    0.5804 S   0  0  0  0  0  0  0  0  0  0  0  0
   -5.0730   -1.4174    1.9033 C   0  0  0  0  0  0  0  0  0  0  0  0
   -5.5667   -1.0168    3.1371 C   0  0  0  0  0  0  0  0  0  0  0  0
   -6.8722   -1.6050    3.6671 C   0  0  0  0  0  0  0  0  0  0  0  0
   -8.0183   -1.0946    2.8294 C   0  0  0  0  0  0  0  0  0  0  0  0
   -4.8410   -0.2036    3.8785 C   0  0  0  0  0  0  0  0  0  0  0  0
   -3.4343    0.0180    2.8407 S   0  0  0  0  0  0  0  0  0  0  0  0
   -3.9181   -0.9960    1.4956 C   0  0  0  0  0  0  0  0  0  0  0  0
   -3.3871   -1.4038    0.2900 C   0  0  0  0  0  0  0  0  0  0  0  0
   -2.1864   -1.1724   -0.4228 N   0  0  0  0  0  0  0  0  0  0  0  0
   -2.2737   -1.9230   -1.5253 C   0  0  0  0  0  0  0  0  0  0  0  0
   -1.3456   -2.1407   -2.5541 C   0  0  0  0  0  0  0  0  0  0  0  0
   -0.0694   -1.7896   -2.6894 N   0  0  0  0  0  0  0  0  0  0  0  0
    0.4143   -2.4674   -3.8402 C   0  0  0  0  0  0  0  0  0  0  0  0
    1.5968   -2.5194   -4.4529 C   0  0  0  0  0  0  0  0  0  0  0  0
    0.7868   -0.9163   -1.9522 C   0  0  0  0  0  0  0  0  0  0  0  0
    0.7198    0.4542   -2.5097 C   0  0  0  0  0  0  0  0  0  0  0  0
   -1.2771   -0.1558    0.0119 C   0  0  0  0  0  0  0  0  0  0  0  0
   -1.8193    1.2093   -0.5675 C   0  0  0  0  0  0  0  0  0  0  0  0
   -4.7821    0.5305    5.1187 C   0  0  0  0  0  0  0  0  0  0  0  0
   -5.4818    1.4350    5.6921 C   0  0  0  0  0  0  0  0  0  0  0  0
   -6.7070    2.0821    5.2690 C   0  0  0  0  0  0  0  0  0  0  0  0
   -7.4071    1.7213    4.2932 O   0  0  0  0  0  0  0  0  0  0  0  0
   -6.9961    3.2158    6.1471 C   0  0  0  0  0  0  0  0  0  0  0  0
   -8.0441    4.1215    6.0873 C   0  0  0  0  0  0  0  0  0  0  0  0
   -8.1178    5.1611    6.9859 C   0  0  0  0  0  0  0  0  0  0  0  0
   -7.1317    5.2707    7.9274 C   0  0  0  0  0  0  0  0  0  0  0  0
   -6.0865    4.3514    7.9801 C   0  0  0  0  0  0  0  0  0  0  0  0
   -6.0115    3.3108    7.0882 C   0  0  0  0  0  0  0  0  0  0  0  0
   -5.0071    2.2250    6.8683 C   0  0  0  0  0  0  0  0  0  0  0  0
   -3.8981    2.1847    7.5067 C   0  0  0  0  0  0  0  0  0  0  0  0
   -2.7742    1.2642    7.1717 C   0  0  0  0  0  0  0  0  0  0  0  0
   -1.9106    0.5457    6.9179 N   0  0  0  0  0  0  0  0  0  0  0  0
   -3.4612    3.0596    8.5334 C   0  0  0  0  0  0  0  0  0  0  0  0
   -3.0692    3.7982    9.4063 N   0  0  0  0  0  0  0  0  0  0  0  0
    3.5453   -4.2492   -6.5023 H   0  0  0  0  0  0  0  0  0  0  0  0
    3.7448    1.7801   -4.6314 H   0  0  0  0  0  0  0  0  0  0  0  0
    7.7692   -0.9697   -4.7836 H   0  0  0  0  0  0  0  0  0  0  0  0
    8.6436    2.1798   -3.9903 H   0  0  0  0  0  0  0  0  0  0  0  0
    8.9639    1.0364   -1.7476 H   0  0  0  0  0  0  0  0  0  0  0  0
    6.8800   -0.5554   -1.4236 H   0  0  0  0  0  0  0  0  0  0  0  0
    4.7914    0.9384   -1.3278 H   0  0  0  0  0  0  0  0  0  0  0  0
    5.5890    3.5252   -1.5953 H   0  0  0  0  0  0  0  0  0  0  0  0
    7.5090    2.5278   -0.1908 H   0  0  0  0  0  0  0  0  0  0  0  0
    8.2097    3.4937   -1.5932 H   0  0  0  0  0  0  0  0  0  0  0  0
    6.5948    3.6319   -3.9219 H   0  0  0  0  0  0  0  0  0  0  0  0
   -6.8276   -2.7247    3.4927 H   0  0  0  0  0  0  0  0  0  0  0  0
   -6.9616   -1.4499    4.7278 H   0  0  0  0  0  0  0  0  0  0  0  0
   -7.6784   -0.7413    1.8207 H   0  0  0  0  0  0  0  0  0  0  0  0
   -8.7318   -1.9573    2.5806 H   0  0  0  0  0  0  0  0  0  0  0  0
   -8.6266   -0.3820    3.3852 H   0  0  0  0  0  0  0  0  0  0  0  0
    2.5292   -2.0081   -4.0211 H   0  0  0  0  0  0  0  0  0  0  0  0
    1.9118   -1.1768   -2.2516 H   0  0  0  0  0  0  0  0  0  0  0  0
    0.9227   -1.1440   -0.9108 H   0  0  0  0  0  0  0  0  0  0  0  0
    1.4234    0.6440   -3.3644 H   0  0  0  0  0  0  0  0  0  0  0  0
   -0.3023    0.5724   -3.0009 H   0  0  0  0  0  0  0  0  0  0  0  0
    0.8916    1.2563   -1.7597 H   0  0  0  0  0  0  0  0  0  0  0  0
   -1.5042    0.0459    1.1318 H   0  0  0  0  0  0  0  0  0  0  0  0
   -0.2841   -0.1721   -0.0457 H   0  0  0  0  0  0  0  0  0  0  0  0
   -2.1021    0.9741   -1.6453 H   0  0  0  0  0  0  0  0  0  0  0  0
   -2.7507    1.4831   -0.0312 H   0  0  0  0  0  0  0  0  0  0  0  0
   -1.0214    1.9279   -0.5228 H   0  0  0  0  0  0  0  0  0  0  0  0
   -3.9478    0.1348    5.7731 H   0  0  0  0  0  0  0  0  0  0  0  0
   -8.8041    4.0101    5.3415 H   0  0  0  0  0  0  0  0  0  0  0  0
   -8.9333    5.8820    6.9498 H   0  0  0  0  0  0  0  0  0  0  0  0
   -7.1681    6.1181    8.6447 H   0  0  0  0  0  0  0  0  0  0  0  0
   -5.3801    4.4948    8.7228 H   0  0  0  0  0  0  0  0  0  0  0  0
  1  2  2  3
  2  3  1  0
  3  4  2  0
  3  5  1  0
  5  6  2  0
  6  7  1  0
  7  8  2  0
  8  9  1  0
  9 10  2  0
 10 11  1  0
 11 12  2  3
 12 13  1  0
 13 14  3  0
 12 15  1  0
 15 16  3  0
  8 17  1  0
 17 18  1  0
 18 19  1  0
 19 20  2  0
 20 21  1  0
 21 22  1  0
 21 23  1  0
  1 24  1  0
 24 25  1  0
 25 26  1  0
 26 27  1  0
 27 28  1  0
 28 29  1  0
 29 30  2  0
 30 31  1  0
 31 32  1  0
 29 33  1  0
 33 34  1  0
 34 35  1  0
 35 36  1  0
 36 37  1  0
 37 38  1  0
 38 39  1  0
 37 40  2  0
 40 41  1  0
 41 42  1  0
 42 43  1  0
 43 44  1  0
 44 45  1  0
 45 46  1  0
 46 47  1  0
 47 48  1  0
 48 49  1  0
 47 50  1  0
 50 51  1  0
 44 52  1  0
 52 53  1  0
 40 54  1  0
 54 55  2  3
 55 56  1  0
 56 57  2  0
 56 58  1  0
 58 59  2  0
 59 60  1  0
 60 61  2  0
 61 62  1  0
 62 63  2  0
 63 64  1  0
 64 65  2  3
 65 66  1  0
 66 67  3  0
 65 68  1  0
 68 69  3  0
 11  2  1  0
 23 17  1  0
 49 24  2  0
 64 55  1  0
 10  5  1  0
 22 18  1  0
 48 26  2  0
 63 58  1  0
 23  7  1  0
 46 27  2  0
 32 28  2  0
 45 33  2  0
 43 34  2  0
 42 36  2  0
  1 70  1  0
  6 71  1  0
  9 72  1  0
 17 73  1  0
 18 74  1  0
 19 75  1  0
 20 76  1  0
 21 77  1  0
 22 78  1  0
 22 79  1  0
 23 80  1  0
 38 81  1  0
 38 82  1  0
 39 83  1  0
 39 84  1  0
 39 85  1  0
 49 86  1  0
 50 87  1  0
 50 88  1  0
 51 89  1  0
 51 90  1  0
 51 91  1  0
 52 92  1  0
 52 93  1  0
 53 94  1  0
 53 95  1  0
 53 96  1  0
 54 97  1  0
 59 98  1  0
 60 99  1  0
 61100  1  0
 62101  1  0
M  END

