
     RDKit          3D

 98111  0  0  0  0  0  0  0  0999 V2000
    1.5254    2.7950    4.8022 C   0  0  0  0  0  0  0  0  0  0  0  0
    1.4063    4.0137    4.3926 C   0  0  0  0  0  0  0  0  0  0  0  0
    1.3204    4.6725    3.2465 C   0  0  0  0  0  0  0  0  0  0  0  0
    1.7574    4.1306    2.0496 O   0  0  0  0  0  0  0  0  0  0  0  0
    0.7912    5.9954    3.1937 C   0  0  0  0  0  0  0  0  0  0  0  0
    0.5623    6.8565    2.1376 C   0  0  0  0  0  0  0  0  0  0  0  0
   -0.0558    8.0955    2.4629 C   0  0  0  0  0  0  0  0  0  0  0  0
   -0.3528    8.3246    3.6987 C   0  0  0  0  0  0  0  0  0  0  0  0
   -0.1762    7.5745    4.8320 C   0  0  0  0  0  0  0  0  0  0  0  0
    0.4755    6.2731    4.4786 C   0  0  0  0  0  0  0  0  0  0  0  0
    0.7727    5.1655    5.4124 C   0  0  0  0  0  0  0  0  0  0  0  0
    0.5195    4.9634    6.6115 C   0  0  0  0  0  0  0  0  0  0  0  0
    0.7268    3.6829    7.3880 C   0  0  0  0  0  0  0  0  0  0  0  0
    0.8788    2.7542    7.9311 N   0  0  0  0  0  0  0  0  0  0  0  0
   -0.3147    5.8893    7.4568 C   0  0  0  0  0  0  0  0  0  0  0  0
   -0.9207    6.5715    8.0874 N   0  0  0  0  0  0  0  0  0  0  0  0
   -1.0846    9.6536    3.3684 C   0  0  0  0  0  0  0  0  0  0  0  0
   -2.5492    9.5783    3.2295 C   0  0  0  0  0  0  0  0  0  0  0  0
   -2.9348   10.7283    2.3372 C   0  0  0  0  0  0  0  0  0  0  0  0
   -2.4841   10.4840    1.0820 C   0  0  0  0  0  0  0  0  0  0  0  0
   -1.8187    9.1487    1.1163 C   0  0  0  0  0  0  0  0  0  0  0  0
   -2.7156    8.5032    2.1707 C   0  0  0  0  0  0  0  0  0  0  0  0
   -0.5551    9.3616    1.9520 C   0  0  0  0  0  0  0  0  0  0  0  0
    1.5650    1.6566    3.9865 C   0  0  0  0  0  0  0  0  0  0  0  0
    2.0924   -0.0981    4.9739 Se  0  0  0  0  0  2  0  0  0  0  0  0
    1.7268   -1.1594    3.4143 C   0  0  0  0  0  0  0  0  0  0  0  0
    1.7060   -2.4249    2.8686 C   0  0  0  0  0  0  0  0  0  0  0  0
    2.0143   -3.6629    3.4990 C   0  0  0  0  0  0  0  0  0  0  0  0
    1.8379   -4.6813    2.7361 C   0  0  0  0  0  0  0  0  0  0  0  0
    1.9819   -5.9223    3.3840 N   0  0  0  0  0  0  0  0  0  0  0  0
    2.3631   -5.4643    4.9543 S   0  0  0  0  0  0  0  0  0  0  0  0
    2.3289   -3.7571    4.7792 N   0  0  0  0  0  0  0  0  0  0  0  0
    1.4296   -4.5823    1.4204 C   0  0  0  0  0  0  0  0  0  0  0  0
    1.2561   -5.4865    0.4139 C   0  0  0  0  0  0  0  0  0  0  0  0
    1.3182   -7.2158   -0.0068 S   0  0  0  0  0  0  0  0  0  0  0  0
    0.8310   -6.9708   -1.7923 C   0  0  0  0  0  0  0  0  0  0  0  0
    0.7752   -7.7913   -2.8451 C   0  0  0  0  0  0  0  0  0  0  0  0
    0.9401   -9.2738   -2.9232 C   0  0  0  0  0  0  0  0  0  0  0  0
    2.4206   -9.6670   -2.9772 C   0  0  0  0  0  0  0  0  0  0  0  0
    0.5845   -7.1181   -4.0356 C   0  0  0  0  0  0  0  0  0  0  0  0
    0.4893   -5.5182   -3.4907 S   0  0  0  0  0  0  0  0  0  0  0  0
    0.7447   -5.8288   -1.6549 C   0  0  0  0  0  0  0  0  0  0  0  0
    0.8850   -4.9165   -0.7481 C   0  0  0  0  0  0  0  0  0  0  0  0
    0.8588   -3.5087   -0.4318 N   0  0  0  0  0  0  0  0  0  0  0  0
    1.1437   -3.3907    0.8018 C   0  0  0  0  0  0  0  0  0  0  0  0
    1.2788   -2.1870    1.6015 C   0  0  0  0  0  0  0  0  0  0  0  0
    1.0287   -0.9959    1.3514 N   0  0  0  0  0  0  0  0  0  0  0  0
    1.3441   -0.1659    2.5240 C   0  0  0  0  0  0  0  0  0  0  0  0
    1.3116    1.0394    2.8799 C   0  0  0  0  0  0  0  0  0  0  0  0
    0.0615   -0.3542    0.3818 C   0  0  0  0  0  0  0  0  0  0  0  0
   -1.2015    0.1504    1.2752 C   0  0  0  0  0  0  0  0  0  0  0  0
    0.7714   -2.6048   -1.5710 C   0  0  0  0  0  0  0  0  0  0  0  0
    2.2012   -2.7416   -2.2850 C   0  0  0  0  0  0  0  0  0  0  0  0
    0.3884   -7.6400   -5.4244 C   0  0  0  0  0  0  0  0  0  0  0  0
   -0.1856   -6.4532   -6.1812 C   0  0  0  0  0  0  0  0  0  0  0  0
   -0.5148   -5.3089   -6.0023 C   0  0  0  0  0  0  0  0  0  0  0  0
   -0.3196   -4.3847   -5.1074 O   0  0  0  0  0  0  0  0  0  0  0  0
   -1.4473   -4.7371   -7.1938 C   0  0  0  0  0  0  0  0  0  0  0  0
   -1.5550   -5.7549   -7.9830 C   0  0  0  0  0  0  0  0  0  0  0  0
   -2.3447   -5.5273   -9.1437 C   0  0  0  0  0  0  0  0  0  0  0  0
   -2.8111   -3.8747   -8.9153 S   0  0  0  0  0  0  0  0  0  0  0  0
   -2.0048   -3.5545   -7.3898 C   0  0  0  0  0  0  0  0  0  0  0  0
   -2.0535   -2.0158   -6.5335 Cl  0  0  0  0  0  0  0  0  0  0  0  0
   -0.7695   -6.9629   -7.4887 C   0  0  0  0  0  0  0  0  0  0  0  0
   -0.3566   -8.0013   -8.1600 C   0  0  0  0  0  0  0  0  0  0  0  0
   -1.3095   -8.1719   -9.4493 C   0  0  0  0  0  0  0  0  0  0  0  0
   -1.9380   -8.2663  -10.2995 N   0  0  0  0  0  0  0  0  0  0  0  0
    0.7376   -8.8236   -8.1463 C   0  0  0  0  0  0  0  0  0  0  0  0
    1.5991   -9.4855   -8.1261 N   0  0  0  0  0  0  0  0  0  0  0  0
    1.6905    2.6945    5.8783 H   0  0  0  0  0  0  0  0  0  0  0  0
    0.7993    6.6249    1.1419 H   0  0  0  0  0  0  0  0  0  0  0  0
   -0.3833    7.7199    5.8153 H   0  0  0  0  0  0  0  0  0  0  0  0
   -0.6422   10.4955    3.8661 H   0  0  0  0  0  0  0  0  0  0  0  0
   -3.1624    9.4907    4.0985 H   0  0  0  0  0  0  0  0  0  0  0  0
   -3.4616   11.6074    2.6737 H   0  0  0  0  0  0  0  0  0  0  0  0
   -2.5779   11.0978    0.2099 H   0  0  0  0  0  0  0  0  0  0  0  0
   -1.7178    8.6583    0.1759 H   0  0  0  0  0  0  0  0  0  0  0  0
   -2.3747    7.4913    2.5111 H   0  0  0  0  0  0  0  0  0  0  0  0
   -3.7944    8.5155    1.7772 H   0  0  0  0  0  0  0  0  0  0  0  0
    0.1859   10.0521    1.5437 H   0  0  0  0  0  0  0  0  0  0  0  0
    0.4216   -9.7242   -3.7074 H   0  0  0  0  0  0  0  0  0  0  0  0
    0.5707   -9.7381   -1.9662 H   0  0  0  0  0  0  0  0  0  0  0  0
    2.7693  -10.3100   -2.2122 H   0  0  0  0  0  0  0  0  0  0  0  0
    3.0072   -8.7433   -2.9964 H   0  0  0  0  0  0  0  0  0  0  0  0
    2.5756  -10.2002   -3.9596 H   0  0  0  0  0  0  0  0  0  0  0  0
    0.9199    1.8717    2.0694 H   0  0  0  0  0  0  0  0  0  0  0  0
   -0.4566   -1.0386   -0.1807 H   0  0  0  0  0  0  0  0  0  0  0  0
    0.5713    0.5240   -0.0092 H   0  0  0  0  0  0  0  0  0  0  0  0
   -2.1259   -0.2038    0.9171 H   0  0  0  0  0  0  0  0  0  0  0  0
   -1.1669    1.2343    1.1551 H   0  0  0  0  0  0  0  0  0  0  0  0
   -1.0394   -0.1783    2.2629 H   0  0  0  0  0  0  0  0  0  0  0  0
    0.7518   -1.6178   -1.5030 H   0  0  0  0  0  0  0  0  0  0  0  0
    0.0926   -2.9696   -2.3739 H   0  0  0  0  0  0  0  0  0  0  0  0
    2.4871   -3.8134   -2.1155 H   0  0  0  0  0  0  0  0  0  0  0  0
    2.8971   -2.0535   -1.7911 H   0  0  0  0  0  0  0  0  0  0  0  0
    2.0700   -2.6784   -3.3737 H   0  0  0  0  0  0  0  0  0  0  0  0
    0.5492   -8.4676   -5.8610 H   0  0  0  0  0  0  0  0  0  0  0  0
   -2.6001   -6.1213   -9.9790 H   0  0  0  0  0  0  0  0  0  0  0  0
  1  2  2  3
  2  3  1  0
  3  4  2  0
  3  5  1  0
  5  6  2  0
  6  7  1  0
  7  8  2  0
  8  9  1  0
  9 10  2  0
 10 11  1  0
 11 12  2  3
 12 13  1  0
 13 14  3  0
 12 15  1  0
 15 16  3  0
  8 17  1  0
 17 18  1  0
 18 19  1  0
 19 20  2  0
 20 21  1  0
 21 22  1  0
 21 23  1  0
  1 24  1  0
 24 25  1  0
 25 26  1  0
 26 27  1  0
 27 28  1  0
 28 29  1  0
 29 30  2  0
 30 31  1  0
 31 32  1  0
 29 33  1  0
 33 34  1  0
 34 35  1  0
 35 36  1  0
 36 37  1  0
 37 38  1  0
 38 39  1  0
 37 40  2  0
 40 41  1  0
 41 42  1  0
 42 43  1  0
 43 44  1  0
 44 45  1  0
 45 46  1  0
 46 47  1  0
 47 48  1  0
 48 49  1  0
 47 50  1  0
 50 51  1  0
 44 52  1  0
 52 53  1  0
 40 54  1  0
 54 55  2  3
 55 56  1  0
 56 57  2  0
 56 58  1  0
 58 59  1  0
 59 60  2  0
 60 61  1  0
 61 62  1  0
 62 63  1  0
 59 64  1  0
 64 65  2  3
 65 66  1  0
 66 67  3  0
 65 68  1  0
 68 69  3  0
 11  2  1  0
 23 17  1  0
 49 24  2  0
 64 55  1  0
 10  5  1  0
 22 18  1  0
 48 26  2  0
 62 58  2  0
 23  7  1  0
 46 27  2  0
 32 28  2  0
 45 33  2  0
 43 34  2  0
 42 36  2  0
  1 70  1  0
  6 71  1  0
  9 72  1  0
 17 73  1  0
 18 74  1  0
 19 75  1  0
 20 76  1  0
 21 77  1  0
 22 78  1  0
 22 79  1  0
 23 80  1  0
 38 81  1  0
 38 82  1  0
 39 83  1  0
 39 84  1  0
 39 85  1  0
 49 86  1  0
 50 87  1  0
 50 88  1  0
 51 89  1  0
 51 90  1  0
 51 91  1  0
 52 92  1  0
 52 93  1  0
 53 94  1  0
 53 95  1  0
 53 96  1  0
 54 97  1  0
 60 98  1  0
M  END

