
     RDKit          3D

104118  0  0  0  0  0  0  0  0999 V2000
    3.1587   -2.8184   -4.3006 C   0  0  0  0  0  0  0  0  0  0  0  0
    3.3050   -4.0435   -3.7652 C   0  0  0  0  0  0  0  0  0  0  0  0
    3.3742   -4.3445   -2.3278 C   0  0  0  0  0  0  0  0  0  0  0  0
    3.0682   -3.5678   -1.3840 O   0  0  0  0  0  0  0  0  0  0  0  0
    3.9018   -5.6846   -2.1612 C   0  0  0  0  0  0  0  0  0  0  0  0
    4.2415   -6.3221   -0.9439 C   0  0  0  0  0  0  0  0  0  0  0  0
    4.8267   -7.5633   -1.1080 C   0  0  0  0  0  0  0  0  0  0  0  0
    5.0833   -8.1435   -2.3934 C   0  0  0  0  0  0  0  0  0  0  0  0
    4.7641   -7.5207   -3.5874 C   0  0  0  0  0  0  0  0  0  0  0  0
    4.1214   -6.2574   -3.4403 C   0  0  0  0  0  0  0  0  0  0  0  0
    3.6482   -5.3069   -4.4880 C   0  0  0  0  0  0  0  0  0  0  0  0
    3.3425   -5.6137   -5.7760 C   0  0  0  0  0  0  0  0  0  0  0  0
    2.6107   -4.7141   -6.6290 C   0  0  0  0  0  0  0  0  0  0  0  0
    2.0156   -3.9976   -7.3135 N   0  0  0  0  0  0  0  0  0  0  0  0
    3.5621   -6.9247   -6.3355 C   0  0  0  0  0  0  0  0  0  0  0  0
    3.7305   -7.9743   -6.7980 N   0  0  0  0  0  0  0  0  0  0  0  0
    5.7269   -9.3328   -1.7467 C   0  0  0  0  0  0  0  0  0  0  0  0
    7.2811   -9.4351   -1.7947 C   0  0  0  0  0  0  0  0  0  0  0  0
    7.8936   -8.0525   -1.8067 C   0  0  0  0  0  0  0  0  0  0  0  0
    7.6507   -7.5169   -0.6095 C   0  0  0  0  0  0  0  0  0  0  0  0
    6.8834   -8.5553    0.1777 C   0  0  0  0  0  0  0  0  0  0  0  0
    7.5617   -9.8064   -0.3501 C   0  0  0  0  0  0  0  0  0  0  0  0
    5.4604   -8.7417   -0.4308 C   0  0  0  0  0  0  0  0  0  0  0  0
    2.8782   -1.6243   -3.4968 C   0  0  0  0  0  0  0  0  0  0  0  0
    3.8218   -0.8598   -2.7876 C   0  0  0  0  0  0  0  0  0  0  0  0
    5.2994   -1.1283   -2.7429 C   0  0  0  0  0  0  0  0  0  0  0  0
    6.0179   -0.3531   -3.8420 C   0  0  0  0  0  0  0  0  0  0  0  0
    3.2026    0.2087   -2.1400 C   0  0  0  0  0  0  0  0  0  0  0  0
    1.8437    0.2913   -2.3193 C   0  0  0  0  0  0  0  0  0  0  0  0
    1.3182   -0.9818   -3.2802 S   0  0  0  0  0  0  0  0  0  0  0  0
    1.2544    1.3062   -1.5670 C   0  0  0  0  0  0  0  0  0  0  0  0
    2.1772    1.9516   -0.8014 C   0  0  0  0  0  0  0  0  0  0  0  0
    3.7487    1.3308   -0.9858 S   0  0  0  0  0  0  0  0  0  0  0  0
    1.4980    2.5644    0.2110 C   0  0  0  0  0  0  0  0  0  0  0  0
    1.9634    3.0384    1.4432 C   0  0  0  0  0  0  0  0  0  0  0  0
    3.2727    3.2068    1.7537 N   0  0  0  0  0  0  0  0  0  0  0  0
    3.1211    3.7681    3.3044 S   0  0  0  0  0  0  0  0  0  0  0  0
    1.4999    3.8083    3.6359 N   0  0  0  0  0  0  0  0  0  0  0  0
    1.0140    3.3469    2.4580 C   0  0  0  0  0  0  0  0  0  0  0  0
   -0.3462    3.1818    2.1797 C   0  0  0  0  0  0  0  0  0  0  0  0
   -1.4440    3.6214    2.8591 C   0  0  0  0  0  0  0  0  0  0  0  0
   -1.7371    4.6069    4.2101 S   0  0  0  0  0  0  0  0  0  0  0  0
   -3.3146    4.9247    3.6612 C   0  0  0  0  0  0  0  0  0  0  0  0
   -4.3293    5.7441    4.1417 C   0  0  0  0  0  0  0  0  0  0  0  0
   -5.3958    5.8002    3.2331 C   0  0  0  0  0  0  0  0  0  0  0  0
   -5.0672    4.8047    1.8882 S   0  0  0  0  0  0  0  0  0  0  0  0
   -3.5648    4.3239    2.4529 C   0  0  0  0  0  0  0  0  0  0  0  0
   -2.4974    3.5562    2.0027 C   0  0  0  0  0  0  0  0  0  0  0  0
   -2.1569    3.0454    0.7905 N   0  0  0  0  0  0  0  0  0  0  0  0
   -2.8785    3.3198   -0.4561 C   0  0  0  0  0  0  0  0  0  0  0  0
   -4.1233    2.4377   -0.6034 C   0  0  0  0  0  0  0  0  0  0  0  0
   -0.8165    2.7591    0.9255 C   0  0  0  0  0  0  0  0  0  0  0  0
    0.1340    2.3468   -0.0518 C   0  0  0  0  0  0  0  0  0  0  0  0
   -0.0192    1.5140   -1.1378 N   0  0  0  0  0  0  0  0  0  0  0  0
   -1.1297    0.5907   -1.3990 C   0  0  0  0  0  0  0  0  0  0  0  0
   -1.6968    0.7694   -2.8101 C   0  0  0  0  0  0  0  0  0  0  0  0
   -6.6921    6.4614    3.4545 C   0  0  0  0  0  0  0  0  0  0  0  0
   -6.8573    7.6691    4.0310 C   0  0  0  0  0  0  0  0  0  0  0  0
   -5.8262    8.7092    4.1622 C   0  0  0  0  0  0  0  0  0  0  0  0
   -4.5983    8.5731    3.9200 O   0  0  0  0  0  0  0  0  0  0  0  0
   -6.4782    9.9716    4.4622 C   0  0  0  0  0  0  0  0  0  0  0  0
   -5.9081   11.2452    4.5967 C   0  0  0  0  0  0  0  0  0  0  0  0
   -4.1739   11.5042    4.4980 Cl  0  0  0  0  0  0  0  0  0  0  0  0
   -6.7627   12.3376    4.8047 C   0  0  0  0  0  0  0  0  0  0  0  0
   -8.1535   12.1531    4.8494 C   0  0  0  0  0  0  0  0  0  0  0  0
   -8.7070   10.8728    4.7070 C   0  0  0  0  0  0  0  0  0  0  0  0
   -7.8499    9.7714    4.5343 C   0  0  0  0  0  0  0  0  0  0  0  0
   -8.1608    8.3223    4.3565 C   0  0  0  0  0  0  0  0  0  0  0  0
   -9.3305    7.6927    4.6580 C   0  0  0  0  0  0  0  0  0  0  0  0
   -9.4481    6.2561    4.6917 C   0  0  0  0  0  0  0  0  0  0  0  0
   -9.5416    5.1029    4.7163 N   0  0  0  0  0  0  0  0  0  0  0  0
  -10.5184    8.3979    5.0581 C   0  0  0  0  0  0  0  0  0  0  0  0
  -11.4852    8.9494    5.3790 N   0  0  0  0  0  0  0  0  0  0  0  0
    3.2833   -2.6564   -5.3569 H   0  0  0  0  0  0  0  0  0  0  0  0
    4.0892   -5.8709    0.0292 H   0  0  0  0  0  0  0  0  0  0  0  0
    5.0377   -7.9628   -4.5282 H   0  0  0  0  0  0  0  0  0  0  0  0
    5.1889  -10.2901   -1.9248 H   0  0  0  0  0  0  0  0  0  0  0  0
    7.6915  -10.1348   -2.5546 H   0  0  0  0  0  0  0  0  0  0  0  0
    8.4852   -7.5996   -2.5960 H   0  0  0  0  0  0  0  0  0  0  0  0
    8.0048   -6.5535   -0.2569 H   0  0  0  0  0  0  0  0  0  0  0  0
    6.9159   -8.4242    1.2800 H   0  0  0  0  0  0  0  0  0  0  0  0
    7.0647  -10.7521   -0.0279 H   0  0  0  0  0  0  0  0  0  0  0  0
    8.6522   -9.8560   -0.1063 H   0  0  0  0  0  0  0  0  0  0  0  0
    4.7581   -9.3402    0.1912 H   0  0  0  0  0  0  0  0  0  0  0  0
    5.7087   -0.8251   -1.7550 H   0  0  0  0  0  0  0  0  0  0  0  0
    5.4982   -2.2137   -2.8691 H   0  0  0  0  0  0  0  0  0  0  0  0
    7.1095   -0.5504   -3.7858 H   0  0  0  0  0  0  0  0  0  0  0  0
    5.8469    0.7389   -3.7207 H   0  0  0  0  0  0  0  0  0  0  0  0
    5.6492   -0.6719   -4.8421 H   0  0  0  0  0  0  0  0  0  0  0  0
   -4.2923    6.2630    5.0905 H   0  0  0  0  0  0  0  0  0  0  0  0
   -2.2043    3.1879   -1.3195 H   0  0  0  0  0  0  0  0  0  0  0  0
   -3.1816    4.3891   -0.4830 H   0  0  0  0  0  0  0  0  0  0  0  0
   -4.4408    2.4210   -1.6677 H   0  0  0  0  0  0  0  0  0  0  0  0
   -3.9420    1.4006   -0.2656 H   0  0  0  0  0  0  0  0  0  0  0  0
   -4.9612    2.8369   -0.0042 H   0  0  0  0  0  0  0  0  0  0  0  0
   -1.9216    0.7192   -0.6471 H   0  0  0  0  0  0  0  0  0  0  0  0
   -0.7763   -0.4568   -1.2785 H   0  0  0  0  0  0  0  0  0  0  0  0
   -0.9118    0.6189   -3.5778 H   0  0  0  0  0  0  0  0  0  0  0  0
   -2.5059    0.0251   -2.9791 H   0  0  0  0  0  0  0  0  0  0  0  0
   -2.1223    1.7796   -2.9634 H   0  0  0  0  0  0  0  0  0  0  0  0
   -7.5517    5.9276    3.0787 H   0  0  0  0  0  0  0  0  0  0  0  0
   -6.3518   13.3325    4.9130 H   0  0  0  0  0  0  0  0  0  0  0  0
   -8.8051   13.0074    4.9867 H   0  0  0  0  0  0  0  0  0  0  0  0
   -9.7791   10.7805    4.7015 H   0  0  0  0  0  0  0  0  0  0  0  0
  1  2  2  3
  2  3  1  0
  3  4  2  0
  3  5  1  0
  5  6  2  0
  6  7  1  0
  7  8  2  0
  8  9  1  0
  9 10  2  0
 10 11  1  0
 11 12  2  3
 12 13  1  0
 13 14  3  0
 12 15  1  0
 15 16  3  0
  8 17  1  0
 17 18  1  0
 18 19  1  0
 19 20  2  0
 20 21  1  0
 21 22  1  0
 21 23  1  0
  1 24  1  0
 24 25  2  0
 25 26  1  0
 26 27  1  0
 25 28  1  0
 28 29  2  0
 29 30  1  0
 29 31  1  0
 31 32  2  0
 32 33  1  0
 32 34  1  0
 34 35  1  0
 35 36  2  0
 36 37  1  0
 37 38  1  0
 38 39  2  0
 39 40  1  0
 40 41  1  0
 41 42  1  0
 42 43  1  0
 43 44  1  0
 44 45  2  0
 45 46  1  0
 46 47  1  0
 47 48  1  0
 48 49  1  0
 49 50  1  0
 50 51  1  0
 49 52  1  0
 52 53  1  0
 53 54  1  0
 54 55  1  0
 55 56  1  0
 45 57  1  0
 57 58  2  3
 58 59  1  0
 59 60  2  0
 59 61  1  0
 61 62  2  0
 62 63  1  0
 62 64  1  0
 64 65  2  0
 65 66  1  0
 66 67  2  0
 67 68  1  0
 68 69  2  3
 69 70  1  0
 70 71  3  0
 69 72  1  0
 72 73  3  0
 11  2  1  0
 23 17  1  0
 30 24  1  0
 54 31  1  0
 68 58  1  0
 10  5  1  0
 22 18  1  0
 33 28  1  0
 53 34  2  0
 67 61  1  0
 23  7  1  0
 39 35  1  0
 52 40  2  0
 48 41  2  0
 47 43  2  0
  1 74  1  0
  6 75  1  0
  9 76  1  0
 17 77  1  0
 18 78  1  0
 19 79  1  0
 20 80  1  0
 21 81  1  0
 22 82  1  0
 22 83  1  0
 23 84  1  0
 26 85  1  0
 26 86  1  0
 27 87  1  0
 27 88  1  0
 27 89  1  0
 44 90  1  0
 50 91  1  0
 50 92  1  0
 51 93  1  0
 51 94  1  0
 51 95  1  0
 55 96  1  0
 55 97  1  0
 56 98  1  0
 56 99  1  0
 56100  1  0
 57101  1  0
 64102  1  0
 65103  1  0
 66104  1  0
M  END

