
     RDKit          3D

131146  0  0  0  0  0  0  0  0999 V2000
   -1.0175   -7.7951   -1.9129 C   0  0  0  0  0  0  0  0  0  0  0  0
   -1.0477   -7.4416   -0.6126 C   0  0  0  0  0  0  0  0  0  0  0  0
   -1.1104   -6.0560   -0.1180 C   0  0  0  0  0  0  0  0  0  0  0  0
   -1.4597   -5.0399   -0.7763 O   0  0  0  0  0  0  0  0  0  0  0  0
   -0.6670   -6.0288    1.2543 C   0  0  0  0  0  0  0  0  0  0  0  0
   -0.4396   -4.8814    2.0466 C   0  0  0  0  0  0  0  0  0  0  0  0
    0.1290   -5.1556    3.2739 C   0  0  0  0  0  0  0  0  0  0  0  0
    0.4702   -6.4792    3.7011 C   0  0  0  0  0  0  0  0  0  0  0  0
    0.2438   -7.6091    2.9292 C   0  0  0  0  0  0  0  0  0  0  0  0
   -0.3735   -7.3525    1.6715 C   0  0  0  0  0  0  0  0  0  0  0  0
   -0.7210   -8.2982    0.5695 C   0  0  0  0  0  0  0  0  0  0  0  0
   -0.9123   -9.6367    0.6848 C   0  0  0  0  0  0  0  0  0  0  0  0
   -1.4414  -10.4336   -0.3914 C   0  0  0  0  0  0  0  0  0  0  0  0
   -1.8642  -11.0841   -1.2509 N   0  0  0  0  0  0  0  0  0  0  0  0
   -0.7363  -10.3390    1.9311 C   0  0  0  0  0  0  0  0  0  0  0  0
   -0.6062  -10.9140    2.9286 N   0  0  0  0  0  0  0  0  0  0  0  0
    1.0420   -5.9359    4.9782 C   0  0  0  0  0  0  0  0  0  0  0  0
    2.5937   -5.8688    5.1151 C   0  0  0  0  0  0  0  0  0  0  0  0
    3.2267   -5.6597    3.7592 C   0  0  0  0  0  0  0  0  0  0  0  0
    2.8981   -4.4267    3.3699 C   0  0  0  0  0  0  0  0  0  0  0  0
    2.0471   -3.8399    4.4727 C   0  0  0  0  0  0  0  0  0  0  0  0
    2.7449   -4.4638    5.6672 C   0  0  0  0  0  0  0  0  0  0  0  0
    0.6788   -4.5823    4.5446 C   0  0  0  0  0  0  0  0  0  0  0  0
   -1.0199   -6.7789   -2.9753 C   0  0  0  0  0  0  0  0  0  0  0  0
   -2.2375   -6.2326   -3.4393 C   0  0  0  0  0  0  0  0  0  0  0  0
   -2.2480   -5.0226   -4.1537 C   0  0  0  0  0  0  0  0  0  0  0  0
   -1.0235   -4.3888   -4.4057 C   0  0  0  0  0  0  0  0  0  0  0  0
   -0.6926   -3.0935   -4.8055 C   0  0  0  0  0  0  0  0  0  0  0  0
    0.6546   -2.9742   -4.6203 C   0  0  0  0  0  0  0  0  0  0  0  0
    1.2195   -4.1257   -4.1917 N   0  0  0  0  0  0  0  0  0  0  0  0
    0.1767   -4.9759   -4.0281 C   0  0  0  0  0  0  0  0  0  0  0  0
    0.2011   -6.1724   -3.3108 C   0  0  0  0  0  0  0  0  0  0  0  0
    2.6515   -4.4292   -4.0785 C   0  0  0  0  0  0  0  0  0  0  0  0
    3.0491   -5.5678   -5.0200 C   0  0  0  0  0  0  0  0  0  0  0  0
    0.8684   -1.6808   -4.1839 C   0  0  0  0  0  0  0  0  0  0  0  0
    1.8273   -1.1720   -3.2845 C   0  0  0  0  0  0  0  0  0  0  0  0
    1.6209    0.0083   -2.6238 C   0  0  0  0  0  0  0  0  0  0  0  0
    2.5747    0.1660   -1.6965 N   0  0  0  0  0  0  0  0  0  0  0  0
    3.3309   -0.9226   -1.8062 N   0  0  0  0  0  0  0  0  0  0  0  0
    4.4863   -1.1838   -0.9570 C   0  0  0  0  0  0  0  0  0  0  0  0
    5.7064   -0.4458   -1.4896 C   0  0  0  0  0  0  0  0  0  0  0  0
    2.9033   -1.7649   -2.7443 N   0  0  0  0  0  0  0  0  0  0  0  0
    0.4727    0.7542   -2.8569 C   0  0  0  0  0  0  0  0  0  0  0  0
   -0.5110    0.2882   -3.7530 C   0  0  0  0  0  0  0  0  0  0  0  0
   -0.3689   -1.0129   -4.3257 C   0  0  0  0  0  0  0  0  0  0  0  0
   -1.3575   -1.9138   -4.6389 N   0  0  0  0  0  0  0  0  0  0  0  0
   -2.7868   -1.8137   -4.2967 C   0  0  0  0  0  0  0  0  0  0  0  0
   -3.6648   -2.1150   -5.5146 C   0  0  0  0  0  0  0  0  0  0  0  0
   -1.5184    1.2080   -3.9047 N   0  0  0  0  0  0  0  0  0  0  0  0
   -2.3670    1.4055   -5.0860 C   0  0  0  0  0  0  0  0  0  0  0  0
   -1.8101    2.5107   -5.9825 C   0  0  0  0  0  0  0  0  0  0  0  0
   -1.1782    2.1696   -3.0147 C   0  0  0  0  0  0  0  0  0  0  0  0
   -0.0198    1.9430   -2.3904 C   0  0  0  0  0  0  0  0  0  0  0  0
    0.3109    2.9081   -1.5054 N   0  0  0  0  0  0  0  0  0  0  0  0
    1.4182    2.9268   -0.5501 C   0  0  0  0  0  0  0  0  0  0  0  0
    1.0801    2.0659    0.6618 C   0  0  0  0  0  0  0  0  0  0  0  0
   -0.7491    3.7674   -1.5870 C   0  0  0  0  0  0  0  0  0  0  0  0
   -1.6889    3.3495   -2.5295 C   0  0  0  0  0  0  0  0  0  0  0  0
   -2.8843    4.0283   -2.7376 C   0  0  0  0  0  0  0  0  0  0  0  0
   -3.1344    5.1653   -1.9457 C   0  0  0  0  0  0  0  0  0  0  0  0
   -2.2049    5.5896   -0.9625 C   0  0  0  0  0  0  0  0  0  0  0  0
   -0.9772    4.9062   -0.8138 C   0  0  0  0  0  0  0  0  0  0  0  0
   -2.4931    6.8017   -0.1661 C   0  0  0  0  0  0  0  0  0  0  0  0
   -2.2947    6.9095    1.1675 C   0  0  0  0  0  0  0  0  0  0  0  0
   -1.7961    5.8579    2.0646 C   0  0  0  0  0  0  0  0  0  0  0  0
   -1.8724    4.6139    1.8788 O   0  0  0  0  0  0  0  0  0  0  0  0
   -1.2721    6.4879    3.2564 C   0  0  0  0  0  0  0  0  0  0  0  0
   -0.5462    5.9006    4.2916 C   0  0  0  0  0  0  0  0  0  0  0  0
   -0.0249    6.7277    5.3024 C   0  0  0  0  0  0  0  0  0  0  0  0
    0.7162    6.1804    6.3614 C   0  0  0  0  0  0  0  0  0  0  0  0
    1.2494    7.0140    7.3493 C   0  0  0  0  0  0  0  0  0  0  0  0
    1.0495    8.3953    7.2890 C   0  0  0  0  0  0  0  0  0  0  0  0
    0.3130    8.9556    6.2418 C   0  0  0  0  0  0  0  0  0  0  0  0
   -0.2331    8.1350    5.2424 C   0  0  0  0  0  0  0  0  0  0  0  0
   -0.9721    8.6962    4.1801 C   0  0  0  0  0  0  0  0  0  0  0  0
   -1.5138    7.8485    3.2004 C   0  0  0  0  0  0  0  0  0  0  0  0
   -2.2952    8.1702    1.9710 C   0  0  0  0  0  0  0  0  0  0  0  0
   -3.0612    9.2716    1.7655 C   0  0  0  0  0  0  0  0  0  0  0  0
   -3.1284   10.3486    2.7173 C   0  0  0  0  0  0  0  0  0  0  0  0
   -3.1967   11.2205    3.4756 N   0  0  0  0  0  0  0  0  0  0  0  0
   -3.9843    9.3772    0.6642 C   0  0  0  0  0  0  0  0  0  0  0  0
   -4.7304    9.4682   -0.2165 N   0  0  0  0  0  0  0  0  0  0  0  0
   -0.7752   -8.8026   -2.2088 H   0  0  0  0  0  0  0  0  0  0  0  0
   -0.6469   -3.8752    1.7113 H   0  0  0  0  0  0  0  0  0  0  0  0
    0.5771   -8.5785    3.2616 H   0  0  0  0  0  0  0  0  0  0  0  0
    0.5028   -6.2725    5.8916 H   0  0  0  0  0  0  0  0  0  0  0  0
    3.0527   -6.6726    5.7278 H   0  0  0  0  0  0  0  0  0  0  0  0
    3.8975   -6.3326    3.2369 H   0  0  0  0  0  0  0  0  0  0  0  0
    3.2561   -3.9281    2.4752 H   0  0  0  0  0  0  0  0  0  0  0  0
    1.9840   -2.7326    4.4766 H   0  0  0  0  0  0  0  0  0  0  0  0
    2.2060   -4.3032    6.6318 H   0  0  0  0  0  0  0  0  0  0  0  0
    3.8063   -4.1391    5.7778 H   0  0  0  0  0  0  0  0  0  0  0  0
   -0.0879   -4.0962    5.1888 H   0  0  0  0  0  0  0  0  0  0  0  0
   -3.1796   -6.6916   -3.1625 H   0  0  0  0  0  0  0  0  0  0  0  0
   -3.1914   -4.5924   -4.4430 H   0  0  0  0  0  0  0  0  0  0  0  0
    1.1272   -6.5461   -2.8893 H   0  0  0  0  0  0  0  0  0  0  0  0
    3.2485   -3.5488   -4.3910 H   0  0  0  0  0  0  0  0  0  0  0  0
    2.9062   -4.6902   -3.0300 H   0  0  0  0  0  0  0  0  0  0  0  0
    4.1545   -5.6680   -5.0392 H   0  0  0  0  0  0  0  0  0  0  0  0
    2.6940   -5.3527   -6.0506 H   0  0  0  0  0  0  0  0  0  0  0  0
    2.6233   -6.5324   -4.6807 H   0  0  0  0  0  0  0  0  0  0  0  0
    4.2702   -0.8436    0.0794 H   0  0  0  0  0  0  0  0  0  0  0  0
    4.6956   -2.2753   -0.9278 H   0  0  0  0  0  0  0  0  0  0  0  0
    5.5115    0.6477   -1.5198 H   0  0  0  0  0  0  0  0  0  0  0  0
    5.9490   -0.8029   -2.5138 H   0  0  0  0  0  0  0  0  0  0  0  0
    6.5766   -0.6378   -0.8273 H   0  0  0  0  0  0  0  0  0  0  0  0
   -3.0508   -0.8249   -3.8864 H   0  0  0  0  0  0  0  0  0  0  0  0
   -3.0196   -2.5192   -3.4729 H   0  0  0  0  0  0  0  0  0  0  0  0
   -4.6855   -2.3886   -5.1753 H   0  0  0  0  0  0  0  0  0  0  0  0
   -3.2506   -2.9527   -6.1100 H   0  0  0  0  0  0  0  0  0  0  0  0
   -3.7485   -1.2332   -6.1758 H   0  0  0  0  0  0  0  0  0  0  0  0
   -3.4018    1.6527   -4.7737 H   0  0  0  0  0  0  0  0  0  0  0  0
   -2.3888    0.4872   -5.6939 H   0  0  0  0  0  0  0  0  0  0  0  0
   -1.8978    3.4992   -5.4879 H   0  0  0  0  0  0  0  0  0  0  0  0
   -0.7434    2.3100   -6.2118 H   0  0  0  0  0  0  0  0  0  0  0  0
   -2.3818    2.5447   -6.9339 H   0  0  0  0  0  0  0  0  0  0  0  0
    2.3431    2.5645   -1.0364 H   0  0  0  0  0  0  0  0  0  0  0  0
    1.6288    3.9625   -0.2156 H   0  0  0  0  0  0  0  0  0  0  0  0
    0.1787    2.4660    1.1708 H   0  0  0  0  0  0  0  0  0  0  0  0
    0.8810    1.0195    0.3509 H   0  0  0  0  0  0  0  0  0  0  0  0
    1.9316    2.0721    1.3754 H   0  0  0  0  0  0  0  0  0  0  0  0
   -3.6132    3.6852   -3.4589 H   0  0  0  0  0  0  0  0  0  0  0  0
   -4.0630    5.7064   -2.0789 H   0  0  0  0  0  0  0  0  0  0  0  0
   -0.2349    5.2522   -0.1085 H   0  0  0  0  0  0  0  0  0  0  0  0
   -2.8099    7.6587   -0.7364 H   0  0  0  0  0  0  0  0  0  0  0  0
   -0.3660    4.8321    4.2933 H   0  0  0  0  0  0  0  0  0  0  0  0
    0.8872    5.1135    6.4249 H   0  0  0  0  0  0  0  0  0  0  0  0
    1.8217    6.5900    8.1658 H   0  0  0  0  0  0  0  0  0  0  0  0
    1.4645    9.0345    8.0573 H   0  0  0  0  0  0  0  0  0  0  0  0
    0.1704   10.0278    6.2129 H   0  0  0  0  0  0  0  0  0  0  0  0
   -1.0735    9.7677    4.1120 H   0  0  0  0  0  0  0  0  0  0  0  0
  1  2  2  3
  2  3  1  0
  3  4  2  0
  3  5  1  0
  5  6  2  0
  6  7  1  0
  7  8  2  0
  8  9  1  0
  9 10  2  0
 10 11  1  0
 11 12  2  3
 12 13  1  0
 13 14  3  0
 12 15  1  0
 15 16  3  0
  8 17  1  0
 17 18  1  0
 18 19  1  0
 19 20  2  0
 20 21  1  0
 21 22  1  0
 21 23  1  0
  1 24  1  0
 24 25  2  0
 25 26  1  0
 26 27  2  0
 27 28  1  0
 28 29  2  0
 29 30  1  0
 30 31  1  0
 31 32  2  0
 30 33  1  0
 33 34  1  0
 29 35  1  0
 35 36  1  0
 36 37  1  0
 37 38  2  0
 38 39  1  0
 39 40  1  0
 40 41  1  0
 39 42  1  0
 37 43  1  0
 43 44  2  0
 44 45  1  0
 45 46  1  0
 46 47  1  0
 47 48  1  0
 44 49  1  0
 49 50  1  0
 50 51  1  0
 49 52  1  0
 52 53  2  0
 53 54  1  0
 54 55  1  0
 55 56  1  0
 54 57  1  0
 57 58  2  0
 58 59  1  0
 59 60  2  0
 60 61  1  0
 61 62  2  0
 61 63  1  0
 63 64  2  3
 64 65  1  0
 65 66  2  0
 65 67  1  0
 67 68  2  0
 68 69  1  0
 69 70  2  0
 70 71  1  0
 71 72  2  0
 72 73  1  0
 73 74  2  0
 74 75  1  0
 75 76  2  0
 76 77  1  0
 77 78  2  3
 78 79  1  0
 79 80  3  0
 78 81  1  0
 81 82  3  0
 11  2  1  0
 23 17  1  0
 32 24  1  0
 45 35  2  0
 58 52  1  0
 77 64  1  0
 10  5  1  0
 22 18  1  0
 31 27  1  0
 42 36  2  0
 53 43  1  0
 62 57  1  0
 76 67  1  0
 23  7  1  0
 46 28  1  0
 74 69  1  0
  1 83  1  0
  6 84  1  0
  9 85  1  0
 17 86  1  0
 18 87  1  0
 19 88  1  0
 20 89  1  0
 21 90  1  0
 22 91  1  0
 22 92  1  0
 23 93  1  0
 25 94  1  0
 26 95  1  0
 32 96  1  0
 33 97  1  0
 33 98  1  0
 34 99  1  0
 34100  1  0
 34101  1  0
 40102  1  0
 40103  1  0
 41104  1  0
 41105  1  0
 41106  1  0
 47107  1  0
 47108  1  0
 48109  1  0
 48110  1  0
 48111  1  0
 50112  1  0
 50113  1  0
 51114  1  0
 51115  1  0
 51116  1  0
 55117  1  0
 55118  1  0
 56119  1  0
 56120  1  0
 56121  1  0
 59122  1  0
 60123  1  0
 62124  1  0
 63125  1  0
 68126  1  0
 70127  1  0
 71128  1  0
 72129  1  0
 73130  1  0
 75131  1  0
M  END

