
     RDKit          3D

133149  0  0  0  0  0  0  0  0999 V2000
   -6.4313   -0.6180    0.4969 C   0  0  0  0  0  0  0  0  0  0  0  0
   -6.7458   -1.2373    1.6569 C   0  0  0  0  0  0  0  0  0  0  0  0
   -5.8190   -1.7832    2.6597 C   0  0  0  0  0  0  0  0  0  0  0  0
   -4.8303   -2.5273    2.4361 O   0  0  0  0  0  0  0  0  0  0  0  0
   -6.3620   -1.5362    3.9760 C   0  0  0  0  0  0  0  0  0  0  0  0
   -5.6859   -1.6564    5.2114 C   0  0  0  0  0  0  0  0  0  0  0  0
   -6.3964   -1.1519    6.2831 C   0  0  0  0  0  0  0  0  0  0  0  0
   -7.6973   -0.5642    6.1574 C   0  0  0  0  0  0  0  0  0  0  0  0
   -8.3743   -0.4676    4.9507 C   0  0  0  0  0  0  0  0  0  0  0  0
   -7.6652   -0.9986    3.8388 C   0  0  0  0  0  0  0  0  0  0  0  0
   -8.0155   -0.9643    2.3947 C   0  0  0  0  0  0  0  0  0  0  0  0
   -9.2630   -0.9174    1.8644 C   0  0  0  0  0  0  0  0  0  0  0  0
   -9.5009   -1.1516    0.4620 C   0  0  0  0  0  0  0  0  0  0  0  0
   -9.6956   -1.3421   -0.6628 N   0  0  0  0  0  0  0  0  0  0  0  0
  -10.4412   -0.7595    2.6798 C   0  0  0  0  0  0  0  0  0  0  0  0
  -11.3924   -0.6330    3.3293 N   0  0  0  0  0  0  0  0  0  0  0  0
   -7.6881   -0.1977    7.6118 C   0  0  0  0  0  0  0  0  0  0  0  0
   -7.4272    1.3048    7.9364 C   0  0  0  0  0  0  0  0  0  0  0  0
   -7.0805    1.3500    9.4039 C   0  0  0  0  0  0  0  0  0  0  0  0
   -5.8703    0.7907    9.5266 C   0  0  0  0  0  0  0  0  0  0  0  0
   -5.4452    0.3843    8.1364 C   0  0  0  0  0  0  0  0  0  0  0  0
   -6.0428    1.5509    7.3628 C   0  0  0  0  0  0  0  0  0  0  0  0
   -6.3630   -0.8090    7.7404 C   0  0  0  0  0  0  0  0  0  0  0  0
   -5.0706   -0.2637    0.0123 C   0  0  0  0  0  0  0  0  0  0  0  0
   -4.7797    0.8611   -0.7997 C   0  0  0  0  0  0  0  0  0  0  0  0
   -5.7560    1.8794   -1.2412 C   0  0  0  0  0  0  0  0  0  0  0  0
   -6.6193    2.4943   -0.3192 C   0  0  0  0  0  0  0  0  0  0  0  0
   -7.5345    3.4626   -0.7430 C   0  0  0  0  0  0  0  0  0  0  0  0
   -7.5811    3.8486   -2.0931 C   0  0  0  0  0  0  0  0  0  0  0  0
   -8.5798    4.8733   -2.5602 C   0  0  0  0  0  0  0  0  0  0  0  0
   -9.8264    4.1963   -3.1222 C   0  0  0  0  0  0  0  0  0  0  0  0
   -6.7151    3.2399   -3.0134 C   0  0  0  0  0  0  0  0  0  0  0  0
   -5.8048    2.2654   -2.5913 C   0  0  0  0  0  0  0  0  0  0  0  0
   -3.4085    0.9660   -1.0506 C   0  0  0  0  0  0  0  0  0  0  0  0
   -2.4417    2.2206   -1.6856 S   0  0  0  0  0  0  0  0  0  0  0  0
   -1.0255    1.3996   -1.2380 C   0  0  0  0  0  0  0  0  0  0  0  0
    0.2642    1.7501   -0.9571 C   0  0  0  0  0  0  0  0  0  0  0  0
    0.9526    2.9513   -1.1434 C   0  0  0  0  0  0  0  0  0  0  0  0
    2.2434    3.0952   -0.5612 C   0  0  0  0  0  0  0  0  0  0  0  0
    2.8862    4.2687   -0.7829 N   0  0  0  0  0  0  0  0  0  0  0  0
    1.7480    5.0471   -1.6979 S   0  0  0  0  0  0  0  0  0  0  0  0
    0.4754    4.0006   -1.8539 N   0  0  0  0  0  0  0  0  0  0  0  0
    2.7820    2.0280    0.1700 C   0  0  0  0  0  0  0  0  0  0  0  0
    4.0822    1.7839    0.5088 C   0  0  0  0  0  0  0  0  0  0  0  0
    5.5341    2.4387   -0.0811 S   0  0  0  0  0  0  0  0  0  0  0  0
    6.3350    0.9517    0.0738 C   0  0  0  0  0  0  0  0  0  0  0  0
    7.5455    0.4827   -0.4436 C   0  0  0  0  0  0  0  0  0  0  0  0
    8.4900    1.2956   -1.2327 C   0  0  0  0  0  0  0  0  0  0  0  0
    9.8565    1.2991   -0.9134 C   0  0  0  0  0  0  0  0  0  0  0  0
   10.7547    2.0470   -1.6754 C   0  0  0  0  0  0  0  0  0  0  0  0
   10.3050    2.7778   -2.7861 C   0  0  0  0  0  0  0  0  0  0  0  0
   11.2687    3.6105   -3.5897 C   0  0  0  0  0  0  0  0  0  0  0  0
   11.3017    5.0470   -3.0726 C   0  0  0  0  0  0  0  0  0  0  0  0
    8.9382    2.7712   -3.1101 C   0  0  0  0  0  0  0  0  0  0  0  0
    8.0371    2.0299   -2.3404 C   0  0  0  0  0  0  0  0  0  0  0  0
    7.6296   -0.9142   -0.3349 C   0  0  0  0  0  0  0  0  0  0  0  0
    6.1980   -1.5226    0.3465 S   0  0  0  0  0  0  0  0  0  0  0  0
    5.4851   -0.0195    0.5437 C   0  0  0  0  0  0  0  0  0  0  0  0
    4.1838    0.4413    0.7659 C   0  0  0  0  0  0  0  0  0  0  0  0
    2.9850   -0.1984    0.6440 N   0  0  0  0  0  0  0  0  0  0  0  0
    2.1049    0.8090    0.3239 C   0  0  0  0  0  0  0  0  0  0  0  0
    0.7801    0.7054   -0.1778 C   0  0  0  0  0  0  0  0  0  0  0  0
   -0.1992   -0.2107    0.1159 N   0  0  0  0  0  0  0  0  0  0  0  0
   -1.2741    0.2336   -0.5842 C   0  0  0  0  0  0  0  0  0  0  0  0
   -2.6369   -0.0089   -0.4750 C   0  0  0  0  0  0  0  0  0  0  0  0
   -3.6060   -1.0611    0.3771 S   0  0  0  0  0  0  0  0  0  0  0  0
   -0.2820   -1.0529    1.3144 C   0  0  0  0  0  0  0  0  0  0  0  0
   -0.5124   -2.5260    0.9498 C   0  0  0  0  0  0  0  0  0  0  0  0
    2.8447   -1.6140    0.2834 C   0  0  0  0  0  0  0  0  0  0  0  0
    3.0805   -2.5260    1.4868 C   0  0  0  0  0  0  0  0  0  0  0  0
    8.5828   -1.7569   -1.0716 C   0  0  0  0  0  0  0  0  0  0  0  0
    8.2850   -2.2927   -2.2700 C   0  0  0  0  0  0  0  0  0  0  0  0
    6.9811   -2.2051   -2.9434 C   0  0  0  0  0  0  0  0  0  0  0  0
    6.0907   -1.3347   -2.7460 O   0  0  0  0  0  0  0  0  0  0  0  0
    6.8948   -3.2789   -3.9084 C   0  0  0  0  0  0  0  0  0  0  0  0
    5.7802   -3.6948   -4.6333 C   0  0  0  0  0  0  0  0  0  0  0  0
    5.8865   -4.8463   -5.4320 C   0  0  0  0  0  0  0  0  0  0  0  0
    4.6915   -5.3572   -6.1792 C   0  0  0  0  0  0  0  0  0  0  0  0
    7.0942   -5.5779   -5.4396 C   0  0  0  0  0  0  0  0  0  0  0  0
    8.2026   -5.1447   -4.6911 C   0  0  0  0  0  0  0  0  0  0  0  0
    8.0959   -3.9644   -3.9394 C   0  0  0  0  0  0  0  0  0  0  0  0
    9.0734   -3.3117   -3.0225 C   0  0  0  0  0  0  0  0  0  0  0  0
   10.4233   -3.4312   -3.0562 C   0  0  0  0  0  0  0  0  0  0  0  0
   11.0947   -4.3130   -3.9768 C   0  0  0  0  0  0  0  0  0  0  0  0
   11.6449   -5.0122   -4.7155 N   0  0  0  0  0  0  0  0  0  0  0  0
   11.2883   -2.5687   -2.2924 C   0  0  0  0  0  0  0  0  0  0  0  0
   11.9919   -1.8783   -1.6840 N   0  0  0  0  0  0  0  0  0  0  0  0
   -7.2289   -0.1281   -0.0381 H   0  0  0  0  0  0  0  0  0  0  0  0
   -4.6756   -2.0331    5.3054 H   0  0  0  0  0  0  0  0  0  0  0  0
   -9.3192    0.0459    4.8789 H   0  0  0  0  0  0  0  0  0  0  0  0
   -8.4850   -0.6911    8.2119 H   0  0  0  0  0  0  0  0  0  0  0  0
   -8.2199    2.0124    7.6119 H   0  0  0  0  0  0  0  0  0  0  0  0
   -7.6431    1.8257   10.2010 H   0  0  0  0  0  0  0  0  0  0  0  0
   -5.2842    0.7337   10.4371 H   0  0  0  0  0  0  0  0  0  0  0  0
   -4.3551    0.2167    8.0000 H   0  0  0  0  0  0  0  0  0  0  0  0
   -5.9764    1.4416    6.2551 H   0  0  0  0  0  0  0  0  0  0  0  0
   -5.6087    2.5387    7.6563 H   0  0  0  0  0  0  0  0  0  0  0  0
   -6.3214   -1.6961    8.4108 H   0  0  0  0  0  0  0  0  0  0  0  0
   -6.5805    2.2299    0.7311 H   0  0  0  0  0  0  0  0  0  0  0  0
   -8.2015    3.9170   -0.0206 H   0  0  0  0  0  0  0  0  0  0  0  0
   -8.1256    5.5115   -3.3475 H   0  0  0  0  0  0  0  0  0  0  0  0
   -8.8730    5.5403   -1.7185 H   0  0  0  0  0  0  0  0  0  0  0  0
   -9.5656    3.5824   -4.0106 H   0  0  0  0  0  0  0  0  0  0  0  0
  -10.2960    3.5454   -2.3527 H   0  0  0  0  0  0  0  0  0  0  0  0
  -10.5631    4.9690   -3.4271 H   0  0  0  0  0  0  0  0  0  0  0  0
   -6.7472    3.5180   -4.0615 H   0  0  0  0  0  0  0  0  0  0  0  0
   -5.1491    1.8045   -3.3193 H   0  0  0  0  0  0  0  0  0  0  0  0
   10.2216    0.7336   -0.0655 H   0  0  0  0  0  0  0  0  0  0  0  0
   11.8043    2.0615   -1.3987 H   0  0  0  0  0  0  0  0  0  0  0  0
   10.9681    3.6142   -4.6575 H   0  0  0  0  0  0  0  0  0  0  0  0
   12.2906    3.1778   -3.5307 H   0  0  0  0  0  0  0  0  0  0  0  0
   10.3059    5.5241   -3.2072 H   0  0  0  0  0  0  0  0  0  0  0  0
   12.0570    5.6309   -3.6410 H   0  0  0  0  0  0  0  0  0  0  0  0
   11.5765    5.0630   -1.9960 H   0  0  0  0  0  0  0  0  0  0  0  0
    8.5718    3.3353   -3.9590 H   0  0  0  0  0  0  0  0  0  0  0  0
    6.9910    2.0123   -2.6169 H   0  0  0  0  0  0  0  0  0  0  0  0
   -1.1112   -0.6985    1.9693 H   0  0  0  0  0  0  0  0  0  0  0  0
    0.6364   -0.9460    1.9253 H   0  0  0  0  0  0  0  0  0  0  0  0
   -0.3458   -2.7131   -0.1313 H   0  0  0  0  0  0  0  0  0  0  0  0
   -1.5502   -2.8274    1.1972 H   0  0  0  0  0  0  0  0  0  0  0  0
    0.1717   -3.1740    1.5347 H   0  0  0  0  0  0  0  0  0  0  0  0
    3.5626   -1.8728   -0.5224 H   0  0  0  0  0  0  0  0  0  0  0  0
    1.8531   -1.8220   -0.1467 H   0  0  0  0  0  0  0  0  0  0  0  0
    4.0875   -2.3607    1.9324 H   0  0  0  0  0  0  0  0  0  0  0  0
    2.3302   -2.3425    2.2813 H   0  0  0  0  0  0  0  0  0  0  0  0
    3.0102   -3.5847    1.1608 H   0  0  0  0  0  0  0  0  0  0  0  0
    9.5108   -1.9861   -0.5745 H   0  0  0  0  0  0  0  0  0  0  0  0
    4.8443   -3.1556   -4.5589 H   0  0  0  0  0  0  0  0  0  0  0  0
    4.1586   -6.1045   -5.5534 H   0  0  0  0  0  0  0  0  0  0  0  0
    5.0036   -5.8421   -7.1287 H   0  0  0  0  0  0  0  0  0  0  0  0
    3.9958   -4.5293   -6.4256 H   0  0  0  0  0  0  0  0  0  0  0  0
    7.1696   -6.4958   -6.0113 H   0  0  0  0  0  0  0  0  0  0  0  0
    9.0888   -5.7570   -4.6736 H   0  0  0  0  0  0  0  0  0  0  0  0
  1  2  2  3
  2  3  1  0
  3  4  2  0
  3  5  1  0
  5  6  2  0
  6  7  1  0
  7  8  2  0
  8  9  1  0
  9 10  2  0
 10 11  1  0
 11 12  2  3
 12 13  1  0
 13 14  3  0
 12 15  1  0
 15 16  3  0
  8 17  1  0
 17 18  1  0
 18 19  1  0
 19 20  2  0
 20 21  1  0
 21 22  1  0
 21 23  1  0
  1 24  1  0
 24 25  2  0
 25 26  1  0
 26 27  2  0
 27 28  1  0
 28 29  2  0
 29 30  1  0
 30 31  1  0
 29 32  1  0
 32 33  2  0
 25 34  1  0
 34 35  1  0
 35 36  1  0
 36 37  1  0
 37 38  1  0
 38 39  1  0
 39 40  2  0
 40 41  1  0
 41 42  1  0
 39 43  1  0
 43 44  1  0
 44 45  1  0
 45 46  1  0
 46 47  1  0
 47 48  1  0
 48 49  2  0
 49 50  1  0
 50 51  2  0
 51 52  1  0
 52 53  1  0
 51 54  1  0
 54 55  2  0
 47 56  2  0
 56 57  1  0
 57 58  1  0
 58 59  1  0
 59 60  1  0
 60 61  1  0
 61 62  1  0
 62 63  1  0
 63 64  1  0
 64 65  1  0
 65 66  1  0
 63 67  1  0
 67 68  1  0
 60 69  1  0
 69 70  1  0
 56 71  1  0
 71 72  2  3
 72 73  1  0
 73 74  2  0
 73 75  1  0
 75 76  2  0
 76 77  1  0
 77 78  1  0
 77 79  2  0
 79 80  1  0
 80 81  2  0
 81 82  1  0
 82 83  2  3
 83 84  1  0
 84 85  3  0
 83 86  1  0
 86 87  3  0
 11  2  1  0
 23 17  1  0
 66 24  1  0
 82 72  1  0
 10  5  1  0
 22 18  1  0
 33 26  1  0
 65 34  2  0
 81 75  1  0
 23  7  1  0
 64 36  2  0
 62 37  2  0
 42 38  2  0
 61 43  2  0
 59 44  2  0
 58 46  2  0
 55 48  1  0
  1 88  1  0
  6 89  1  0
  9 90  1  0
 17 91  1  0
 18 92  1  0
 19 93  1  0
 20 94  1  0
 21 95  1  0
 22 96  1  0
 22 97  1  0
 23 98  1  0
 27 99  1  0
 28100  1  0
 30101  1  0
 30102  1  0
 31103  1  0
 31104  1  0
 31105  1  0
 32106  1  0
 33107  1  0
 49108  1  0
 50109  1  0
 52110  1  0
 52111  1  0
 53112  1  0
 53113  1  0
 53114  1  0
 54115  1  0
 55116  1  0
 67117  1  0
 67118  1  0
 68119  1  0
 68120  1  0
 68121  1  0
 69122  1  0
 69123  1  0
 70124  1  0
 70125  1  0
 70126  1  0
 71127  1  0
 76128  1  0
 78129  1  0
 78130  1  0
 78131  1  0
 79132  1  0
 80133  1  0
M  END

