
     RDKit          3D

104118  0  0  0  0  0  0  0  0999 V2000
   -3.6831   -3.8461   -2.8019 C   0  0  0  0  0  0  0  0  0  0  0  0
   -2.8741   -3.6290   -3.8596 C   0  0  0  0  0  0  0  0  0  0  0  0
   -1.9438   -2.5057   -4.0196 C   0  0  0  0  0  0  0  0  0  0  0  0
   -2.0951   -1.3424   -3.5584 O   0  0  0  0  0  0  0  0  0  0  0  0
   -0.8610   -2.9225   -4.8803 C   0  0  0  0  0  0  0  0  0  0  0  0
    0.3597   -2.2464   -5.1012 C   0  0  0  0  0  0  0  0  0  0  0  0
    1.2826   -2.9861   -5.8146 C   0  0  0  0  0  0  0  0  0  0  0  0
    1.0289   -4.3147   -6.2874 C   0  0  0  0  0  0  0  0  0  0  0  0
   -0.1686   -4.9777   -6.0813 C   0  0  0  0  0  0  0  0  0  0  0  0
   -1.1413   -4.2256   -5.3676 C   0  0  0  0  0  0  0  0  0  0  0  0
   -2.4841   -4.6458   -4.8801 C   0  0  0  0  0  0  0  0  0  0  0  0
   -3.2790   -5.6038   -5.4176 C   0  0  0  0  0  0  0  0  0  0  0  0
   -2.8384   -6.4477   -6.4968 C   0  0  0  0  0  0  0  0  0  0  0  0
   -2.4988   -7.1326   -7.3665 N   0  0  0  0  0  0  0  0  0  0  0  0
   -4.6656   -5.7453   -5.0485 C   0  0  0  0  0  0  0  0  0  0  0  0
   -5.7807   -5.8615   -4.7576 N   0  0  0  0  0  0  0  0  0  0  0  0
    2.4287   -4.4103   -6.8157 C   0  0  0  0  0  0  0  0  0  0  0  0
    3.4215   -5.2822   -5.9892 C   0  0  0  0  0  0  0  0  0  0  0  0
    4.8033   -4.9092   -6.4740 C   0  0  0  0  0  0  0  0  0  0  0  0
    5.0398   -3.6679   -6.0324 C   0  0  0  0  0  0  0  0  0  0  0  0
    3.8072   -3.2419   -5.2701 C   0  0  0  0  0  0  0  0  0  0  0  0
    3.4571   -4.5808   -4.6387 C   0  0  0  0  0  0  0  0  0  0  0  0
    2.6851   -3.0488   -6.3342 C   0  0  0  0  0  0  0  0  0  0  0  0
   -3.6667   -3.0403   -1.5638 C   0  0  0  0  0  0  0  0  0  0  0  0
   -4.7706   -2.8262   -0.7090 C   0  0  0  0  0  0  0  0  0  0  0  0
   -6.1942   -3.1828   -1.0375 C   0  0  0  0  0  0  0  0  0  0  0  0
   -6.8127   -2.1361   -1.9568 C   0  0  0  0  0  0  0  0  0  0  0  0
   -4.3765   -2.1606    0.4569 C   0  0  0  0  0  0  0  0  0  0  0  0
   -3.0371   -1.8910    0.5339 C   0  0  0  0  0  0  0  0  0  0  0  0
   -2.2442   -2.4561   -0.8205 S   0  0  0  0  0  0  0  0  0  0  0  0
   -2.6806   -1.1987    1.6759 C   0  0  0  0  0  0  0  0  0  0  0  0
   -3.7558   -0.9409    2.4680 C   0  0  0  0  0  0  0  0  0  0  0  0
   -5.2125   -1.5110    1.7977 S   0  0  0  0  0  0  0  0  0  0  0  0
   -3.3649    0.0087    3.3716 C   0  0  0  0  0  0  0  0  0  0  0  0
   -4.1054    0.8557    4.2092 C   0  0  0  0  0  0  0  0  0  0  0  0
   -5.4369    0.7381    4.4292 N   0  0  0  0  0  0  0  0  0  0  0  0
   -5.6708    2.0363    5.4317 S   0  0  0  0  0  0  0  0  0  0  0  0
   -4.1972    2.7716    5.6106 N   0  0  0  0  0  0  0  0  0  0  0  0
   -3.4427    1.9576    4.8337 C   0  0  0  0  0  0  0  0  0  0  0  0
   -2.0691    2.1222    4.6175 C   0  0  0  0  0  0  0  0  0  0  0  0
   -1.1533    3.0127    5.1058 C   0  0  0  0  0  0  0  0  0  0  0  0
   -1.0592    4.3755    6.1171 S   0  0  0  0  0  0  0  0  0  0  0  0
    0.6378    4.4292    5.9197 C   0  0  0  0  0  0  0  0  0  0  0  0
    1.6248    5.3083    6.3494 C   0  0  0  0  0  0  0  0  0  0  0  0
    2.8715    4.9481    5.8149 C   0  0  0  0  0  0  0  0  0  0  0  0
    2.7382    3.5309    4.8662 S   0  0  0  0  0  0  0  0  0  0  0  0
    1.0867    3.4130    5.1180 C   0  0  0  0  0  0  0  0  0  0  0  0
    0.0625    2.6117    4.6566 C   0  0  0  0  0  0  0  0  0  0  0  0
    0.0149    1.4841    3.9099 N   0  0  0  0  0  0  0  0  0  0  0  0
    1.1082    0.5014    3.7971 C   0  0  0  0  0  0  0  0  0  0  0  0
    1.5636    0.0168    5.1747 C   0  0  0  0  0  0  0  0  0  0  0  0
   -1.3274    1.2357    3.8224 C   0  0  0  0  0  0  0  0  0  0  0  0
   -2.0051    0.2304    3.1052 C   0  0  0  0  0  0  0  0  0  0  0  0
   -1.6009   -0.4362    1.9784 N   0  0  0  0  0  0  0  0  0  0  0  0
   -0.6644    0.0715    0.9573 C   0  0  0  0  0  0  0  0  0  0  0  0
   -1.3543    1.0833    0.0381 C   0  0  0  0  0  0  0  0  0  0  0  0
    4.1279    5.6610    6.0783 C   0  0  0  0  0  0  0  0  0  0  0  0
    4.8998    6.1840    5.1050 C   0  0  0  0  0  0  0  0  0  0  0  0
    4.6015    6.1410    3.6664 C   0  0  0  0  0  0  0  0  0  0  0  0
    3.4756    5.9254    3.1395 O   0  0  0  0  0  0  0  0  0  0  0  0
    5.8016    6.4839    2.9403 C   0  0  0  0  0  0  0  0  0  0  0  0
    5.9994    6.4920    1.5591 C   0  0  0  0  0  0  0  0  0  0  0  0
    7.2638    6.8372    1.0663 C   0  0  0  0  0  0  0  0  0  0  0  0
    8.3017    7.1641    1.9550 C   0  0  0  0  0  0  0  0  0  0  0  0
    8.0827    7.1511    3.3431 C   0  0  0  0  0  0  0  0  0  0  0  0
    6.8065    6.8169    3.8336 C   0  0  0  0  0  0  0  0  0  0  0  0
    6.2790    6.7554    5.2314 C   0  0  0  0  0  0  0  0  0  0  0  0
    6.8544    7.2856    6.3444 C   0  0  0  0  0  0  0  0  0  0  0  0
    8.1645    7.8823    6.3391 C   0  0  0  0  0  0  0  0  0  0  0  0
    9.2170    8.3607    6.3568 N   0  0  0  0  0  0  0  0  0  0  0  0
    6.1642    7.3875    7.6036 C   0  0  0  0  0  0  0  0  0  0  0  0
    5.6244    7.4782    8.6247 N   0  0  0  0  0  0  0  0  0  0  0  0
   -4.2732   -4.7456   -2.7564 H   0  0  0  0  0  0  0  0  0  0  0  0
    0.5821   -1.2679   -4.6938 H   0  0  0  0  0  0  0  0  0  0  0  0
   -0.2945   -6.0022   -6.3881 H   0  0  0  0  0  0  0  0  0  0  0  0
    2.4850   -4.5349   -7.9195 H   0  0  0  0  0  0  0  0  0  0  0  0
    3.2067   -6.3740   -5.9660 H   0  0  0  0  0  0  0  0  0  0  0  0
    5.5162   -5.5508   -6.9819 H   0  0  0  0  0  0  0  0  0  0  0  0
    5.9762   -3.1255   -6.1351 H   0  0  0  0  0  0  0  0  0  0  0  0
    3.9586   -2.3993   -4.5644 H   0  0  0  0  0  0  0  0  0  0  0  0
    2.4842   -4.5916   -4.0956 H   0  0  0  0  0  0  0  0  0  0  0  0
    4.2520   -4.9721   -3.9519 H   0  0  0  0  0  0  0  0  0  0  0  0
    2.9027   -2.3066   -7.1320 H   0  0  0  0  0  0  0  0  0  0  0  0
   -6.2348   -4.1776   -1.5270 H   0  0  0  0  0  0  0  0  0  0  0  0
   -6.7936   -3.2500   -0.1062 H   0  0  0  0  0  0  0  0  0  0  0  0
   -6.8360   -1.1489   -1.4507 H   0  0  0  0  0  0  0  0  0  0  0  0
   -7.8530   -2.4279   -2.2100 H   0  0  0  0  0  0  0  0  0  0  0  0
   -6.2314   -2.0523   -2.8991 H   0  0  0  0  0  0  0  0  0  0  0  0
    1.4448    6.1733    6.9761 H   0  0  0  0  0  0  0  0  0  0  0  0
    0.7743   -0.4032    3.2493 H   0  0  0  0  0  0  0  0  0  0  0  0
    1.9637    0.9542    3.2529 H   0  0  0  0  0  0  0  0  0  0  0  0
    0.7032   -0.4006    5.7418 H   0  0  0  0  0  0  0  0  0  0  0  0
    2.0125    0.8465    5.7577 H   0  0  0  0  0  0  0  0  0  0  0  0
    2.3312   -0.7804    5.0531 H   0  0  0  0  0  0  0  0  0  0  0  0
   -0.2613   -0.7722    0.3580 H   0  0  0  0  0  0  0  0  0  0  0  0
    0.1997    0.5868    1.4068 H   0  0  0  0  0  0  0  0  0  0  0  0
   -2.2218    0.6201   -0.4797 H   0  0  0  0  0  0  0  0  0  0  0  0
   -0.6294    1.4531   -0.7211 H   0  0  0  0  0  0  0  0  0  0  0  0
   -1.7150    1.9486    0.6339 H   0  0  0  0  0  0  0  0  0  0  0  0
    4.4336    5.6812    7.1075 H   0  0  0  0  0  0  0  0  0  0  0  0
    5.1959    6.2428    0.8813 H   0  0  0  0  0  0  0  0  0  0  0  0
    7.4387    6.8586   -0.0017 H   0  0  0  0  0  0  0  0  0  0  0  0
    9.2772    7.4319    1.5664 H   0  0  0  0  0  0  0  0  0  0  0  0
    8.9095    7.3927    3.9866 H   0  0  0  0  0  0  0  0  0  0  0  0
  1  2  2  3
  2  3  1  0
  3  4  2  0
  3  5  1  0
  5  6  2  0
  6  7  1  0
  7  8  2  0
  8  9  1  0
  9 10  2  0
 10 11  1  0
 11 12  2  3
 12 13  1  0
 13 14  3  0
 12 15  1  0
 15 16  3  0
  8 17  1  0
 17 18  1  0
 18 19  1  0
 19 20  2  0
 20 21  1  0
 21 22  1  0
 21 23  1  0
  1 24  1  0
 24 25  2  0
 25 26  1  0
 26 27  1  0
 25 28  1  0
 28 29  2  0
 29 30  1  0
 29 31  1  0
 31 32  2  0
 32 33  1  0
 32 34  1  0
 34 35  1  0
 35 36  2  0
 36 37  1  0
 37 38  1  0
 38 39  2  0
 39 40  1  0
 40 41  1  0
 41 42  1  0
 42 43  1  0
 43 44  1  0
 44 45  2  0
 45 46  1  0
 46 47  1  0
 47 48  1  0
 48 49  1  0
 49 50  1  0
 50 51  1  0
 49 52  1  0
 52 53  1  0
 53 54  1  0
 54 55  1  0
 55 56  1  0
 45 57  1  0
 57 58  2  3
 58 59  1  0
 59 60  2  0
 59 61  1  0
 61 62  2  0
 62 63  1  0
 63 64  2  0
 64 65  1  0
 65 66  2  0
 66 67  1  0
 67 68  2  3
 68 69  1  0
 69 70  3  0
 68 71  1  0
 71 72  3  0
 11  2  1  0
 23 17  1  0
 30 24  1  0
 54 31  1  0
 67 58  1  0
 10  5  1  0
 22 18  1  0
 33 28  1  0
 53 34  2  0
 66 61  1  0
 23  7  1  0
 39 35  1  0
 52 40  2  0
 48 41  2  0
 47 43  2  0
  1 73  1  0
  6 74  1  0
  9 75  1  0
 17 76  1  0
 18 77  1  0
 19 78  1  0
 20 79  1  0
 21 80  1  0
 22 81  1  0
 22 82  1  0
 23 83  1  0
 26 84  1  0
 26 85  1  0
 27 86  1  0
 27 87  1  0
 27 88  1  0
 44 89  1  0
 50 90  1  0
 50 91  1  0
 51 92  1  0
 51 93  1  0
 51 94  1  0
 55 95  1  0
 55 96  1  0
 56 97  1  0
 56 98  1  0
 56 99  1  0
 57100  1  0
 62101  1  0
 63102  1  0
 64103  1  0
 65104  1  0
M  END

