
     RDKit          3D

107120  0  0  0  0  0  0  0  0999 V2000
   -5.1612    3.5285    0.4279 C   0  0  0  0  0  0  0  0  0  0  0  0
   -4.9122    4.7453    0.9668 C   0  0  0  0  0  0  0  0  0  0  0  0
   -3.6027    5.4078    1.1108 C   0  0  0  0  0  0  0  0  0  0  0  0
   -2.5541    5.1377    0.4550 O   0  0  0  0  0  0  0  0  0  0  0  0
   -3.7053    6.4047    2.1561 C   0  0  0  0  0  0  0  0  0  0  0  0
   -2.6398    6.9320    2.9400 C   0  0  0  0  0  0  0  0  0  0  0  0
   -3.0608    7.5147    4.1296 C   0  0  0  0  0  0  0  0  0  0  0  0
   -4.4376    7.6100    4.5252 C   0  0  0  0  0  0  0  0  0  0  0  0
   -5.4852    7.1328    3.7483 C   0  0  0  0  0  0  0  0  0  0  0  0
   -5.0697    6.5003    2.5315 C   0  0  0  0  0  0  0  0  0  0  0  0
   -5.8910    5.5902    1.7181 C   0  0  0  0  0  0  0  0  0  0  0  0
   -7.2255    5.7514    1.4969 C   0  0  0  0  0  0  0  0  0  0  0  0
   -7.8193    7.0561    1.6881 C   0  0  0  0  0  0  0  0  0  0  0  0
   -8.2233    8.1363    1.7799 N   0  0  0  0  0  0  0  0  0  0  0  0
   -8.0272    4.7768    0.8285 C   0  0  0  0  0  0  0  0  0  0  0  0
   -8.7047    4.0311    0.2444 N   0  0  0  0  0  0  0  0  0  0  0  0
   -4.0538    8.1882    5.8414 C   0  0  0  0  0  0  0  0  0  0  0  0
   -4.3228    9.7115    6.0305 C   0  0  0  0  0  0  0  0  0  0  0  0
   -3.5112   10.1087    7.2428 C   0  0  0  0  0  0  0  0  0  0  0  0
   -2.2265   10.0478    6.8732 C   0  0  0  0  0  0  0  0  0  0  0  0
   -2.2087    9.6180    5.4303 C   0  0  0  0  0  0  0  0  0  0  0  0
   -3.4569   10.3439    4.9536 C   0  0  0  0  0  0  0  0  0  0  0  0
   -2.6417    8.1240    5.4332 C   0  0  0  0  0  0  0  0  0  0  0  0
   -4.1343    2.6320   -0.1585 C   0  0  0  0  0  0  0  0  0  0  0  0
   -4.4853    1.6609   -1.5209 S   0  0  0  0  0  0  0  0  0  0  0  0
   -2.9998    0.8913   -1.4660 C   0  0  0  0  0  0  0  0  0  0  0  0
   -2.4698   -0.2680   -1.9694 C   0  0  0  0  0  0  0  0  0  0  0  0
   -3.0551   -1.2920   -2.7322 C   0  0  0  0  0  0  0  0  0  0  0  0
   -2.3777   -2.5415   -2.8450 C   0  0  0  0  0  0  0  0  0  0  0  0
   -2.9970   -3.5258   -3.5449 N   0  0  0  0  0  0  0  0  0  0  0  0
   -4.3793   -2.7206   -3.9785 S   0  0  0  0  0  0  0  0  0  0  0  0
   -4.2627   -1.1917   -3.3396 N   0  0  0  0  0  0  0  0  0  0  0  0
   -1.1402   -2.7001   -2.2019 C   0  0  0  0  0  0  0  0  0  0  0  0
   -0.2378   -3.7357   -2.1948 C   0  0  0  0  0  0  0  0  0  0  0  0
   -0.0365   -5.3055   -2.8323 S   0  0  0  0  0  0  0  0  0  0  0  0
    1.5885   -5.3247   -2.3020 C   0  0  0  0  0  0  0  0  0  0  0  0
    2.5902   -6.2798   -2.3344 C   0  0  0  0  0  0  0  0  0  0  0  0
    2.3867   -7.6943   -2.8031 C   0  0  0  0  0  0  0  0  0  0  0  0
    1.7105   -8.5165   -1.7107 C   0  0  0  0  0  0  0  0  0  0  0  0
    3.7734   -5.7804   -1.7463 C   0  0  0  0  0  0  0  0  0  0  0  0
    3.5324   -4.2127   -1.1472 S   0  0  0  0  0  0  0  0  0  0  0  0
    1.9419   -4.1545   -1.6825 C   0  0  0  0  0  0  0  0  0  0  0  0
    0.8912   -3.2569   -1.6157 C   0  0  0  0  0  0  0  0  0  0  0  0
    0.7896   -1.9558   -1.2384 N   0  0  0  0  0  0  0  0  0  0  0  0
   -0.5225   -1.6442   -1.5126 C   0  0  0  0  0  0  0  0  0  0  0  0
   -1.2666   -0.4508   -1.2801 C   0  0  0  0  0  0  0  0  0  0  0  0
   -1.1579    0.4872   -0.2713 N   0  0  0  0  0  0  0  0  0  0  0  0
   -2.2495    1.2964   -0.4172 C   0  0  0  0  0  0  0  0  0  0  0  0
   -2.9039    2.2228    0.4265 C   0  0  0  0  0  0  0  0  0  0  0  0
   -2.6250    2.3733    1.9093 C   0  0  0  0  0  0  0  0  0  0  0  0
   -3.1384    1.1714    2.6995 C   0  0  0  0  0  0  0  0  0  0  0  0
   -0.1377    0.5886    0.7789 C   0  0  0  0  0  0  0  0  0  0  0  0
    0.7970    1.7753    0.4898 C   0  0  0  0  0  0  0  0  0  0  0  0
    1.9395   -1.0436   -1.3330 C   0  0  0  0  0  0  0  0  0  0  0  0
    2.0356   -0.4252   -2.7232 C   0  0  0  0  0  0  0  0  0  0  0  0
    5.0495   -6.5083   -1.6230 C   0  0  0  0  0  0  0  0  0  0  0  0
    5.8196   -6.8296   -2.6901 C   0  0  0  0  0  0  0  0  0  0  0  0
    5.4982   -6.5000   -4.0989 C   0  0  0  0  0  0  0  0  0  0  0  0
    4.4836   -5.8881   -4.5397 O   0  0  0  0  0  0  0  0  0  0  0  0
    6.5732   -7.0134   -4.9098 C   0  0  0  0  0  0  0  0  0  0  0  0
    6.7652   -7.3232   -6.5534 S   0  0  0  0  0  0  0  0  0  0  0  0
    8.1730   -8.2595   -6.2776 C   0  0  0  0  0  0  0  0  0  0  0  0
    8.9745   -8.9197   -7.3394 C   0  0  0  0  0  0  0  0  0  0  0  0
    8.4504   -8.3389   -4.9057 C   0  0  0  0  0  0  0  0  0  0  0  0
    7.5115   -7.6303   -4.1587 C   0  0  0  0  0  0  0  0  0  0  0  0
    7.1547   -7.5448   -2.7220 C   0  0  0  0  0  0  0  0  0  0  0  0
    7.9063   -8.0116   -1.6961 C   0  0  0  0  0  0  0  0  0  0  0  0
    7.4853   -7.9618   -0.3228 C   0  0  0  0  0  0  0  0  0  0  0  0
    7.1740   -7.9325    0.7928 N   0  0  0  0  0  0  0  0  0  0  0  0
    9.2184   -8.5830   -1.8977 C   0  0  0  0  0  0  0  0  0  0  0  0
   10.2763   -9.0247   -2.0615 N   0  0  0  0  0  0  0  0  0  0  0  0
   -6.1725    3.1526    0.3635 H   0  0  0  0  0  0  0  0  0  0  0  0
   -1.5911    6.8097    2.6720 H   0  0  0  0  0  0  0  0  0  0  0  0
   -6.5099    7.1325    4.0937 H   0  0  0  0  0  0  0  0  0  0  0  0
   -4.3437    7.5360    6.7067 H   0  0  0  0  0  0  0  0  0  0  0  0
   -5.3891   10.0212    6.0356 H   0  0  0  0  0  0  0  0  0  0  0  0
   -3.8655   10.4222    8.2168 H   0  0  0  0  0  0  0  0  0  0  0  0
   -1.3879   10.3312    7.4901 H   0  0  0  0  0  0  0  0  0  0  0  0
   -1.2772    9.8229    4.8692 H   0  0  0  0  0  0  0  0  0  0  0  0
   -3.3781   11.4613    5.0194 H   0  0  0  0  0  0  0  0  0  0  0  0
   -3.7615   10.0877    3.9043 H   0  0  0  0  0  0  0  0  0  0  0  0
   -2.0422    7.4391    6.0674 H   0  0  0  0  0  0  0  0  0  0  0  0
    3.3635   -8.1692   -3.0589 H   0  0  0  0  0  0  0  0  0  0  0  0
    1.7543   -7.7140   -3.7175 H   0  0  0  0  0  0  0  0  0  0  0  0
    1.7025   -9.5943   -1.9840 H   0  0  0  0  0  0  0  0  0  0  0  0
    0.6634   -8.1670   -1.5719 H   0  0  0  0  0  0  0  0  0  0  0  0
    2.2254   -8.3872   -0.7340 H   0  0  0  0  0  0  0  0  0  0  0  0
   -3.1447    3.2516    2.3221 H   0  0  0  0  0  0  0  0  0  0  0  0
   -1.5582    2.5697    2.1076 H   0  0  0  0  0  0  0  0  0  0  0  0
   -2.7987    0.2201    2.2533 H   0  0  0  0  0  0  0  0  0  0  0  0
   -2.7529    1.2492    3.7368 H   0  0  0  0  0  0  0  0  0  0  0  0
   -4.2598    1.1773    2.7006 H   0  0  0  0  0  0  0  0  0  0  0  0
    0.4053   -0.3719    0.8861 H   0  0  0  0  0  0  0  0  0  0  0  0
   -0.5945    0.6974    1.7811 H   0  0  0  0  0  0  0  0  0  0  0  0
    1.7421    1.6650    1.0675 H   0  0  0  0  0  0  0  0  0  0  0  0
    1.0296    1.8462   -0.6044 H   0  0  0  0  0  0  0  0  0  0  0  0
    0.3181    2.7406    0.7792 H   0  0  0  0  0  0  0  0  0  0  0  0
    2.8935   -1.5828   -1.1034 H   0  0  0  0  0  0  0  0  0  0  0  0
    1.9315   -0.2555   -0.5888 H   0  0  0  0  0  0  0  0  0  0  0  0
    2.1912   -1.2399   -3.4711 H   0  0  0  0  0  0  0  0  0  0  0  0
    2.9129    0.2637   -2.7681 H   0  0  0  0  0  0  0  0  0  0  0  0
    1.1172    0.1467   -2.9748 H   0  0  0  0  0  0  0  0  0  0  0  0
    5.3788   -6.6845   -0.6180 H   0  0  0  0  0  0  0  0  0  0  0  0
    9.8732   -8.2867   -7.6071 H   0  0  0  0  0  0  0  0  0  0  0  0
    9.3284   -9.9178   -6.9655 H   0  0  0  0  0  0  0  0  0  0  0  0
    8.3333   -9.0781   -8.2443 H   0  0  0  0  0  0  0  0  0  0  0  0
    9.2271   -8.9627   -4.4781 H   0  0  0  0  0  0  0  0  0  0  0  0
  1  2  2  3
  2  3  1  0
  3  4  2  0
  3  5  1  0
  5  6  2  0
  6  7  1  0
  7  8  2  0
  8  9  1  0
  9 10  2  0
 10 11  1  0
 11 12  2  3
 12 13  1  0
 13 14  3  0
 12 15  1  0
 15 16  3  0
  8 17  1  0
 17 18  1  0
 18 19  1  0
 19 20  2  0
 20 21  1  0
 21 22  1  0
 21 23  1  0
  1 24  1  0
 24 25  1  0
 25 26  1  0
 26 27  1  0
 27 28  1  0
 28 29  1  0
 29 30  2  0
 30 31  1  0
 31 32  1  0
 29 33  1  0
 33 34  1  0
 34 35  1  0
 35 36  1  0
 36 37  1  0
 37 38  1  0
 38 39  1  0
 37 40  2  0
 40 41  1  0
 41 42  1  0
 42 43  1  0
 43 44  1  0
 44 45  1  0
 45 46  1  0
 46 47  1  0
 47 48  1  0
 48 49  1  0
 49 50  1  0
 50 51  1  0
 47 52  1  0
 52 53  1  0
 44 54  1  0
 54 55  1  0
 40 56  1  0
 56 57  2  3
 57 58  1  0
 58 59  2  0
 58 60  1  0
 60 61  1  0
 61 62  1  0
 62 63  1  0
 62 64  2  0
 64 65  1  0
 65 66  1  0
 66 67  2  3
 67 68  1  0
 68 69  3  0
 67 70  1  0
 70 71  3  0
 11  2  1  0
 23 17  1  0
 49 24  2  0
 66 57  1  0
 10  5  1  0
 22 18  1  0
 48 26  2  0
 65 60  2  0
 23  7  1  0
 46 27  2  0
 32 28  2  0
 45 33  2  0
 43 34  2  0
 42 36  2  0
  1 72  1  0
  6 73  1  0
  9 74  1  0
 17 75  1  0
 18 76  1  0
 19 77  1  0
 20 78  1  0
 21 79  1  0
 22 80  1  0
 22 81  1  0
 23 82  1  0
 38 83  1  0
 38 84  1  0
 39 85  1  0
 39 86  1  0
 39 87  1  0
 50 88  1  0
 50 89  1  0
 51 90  1  0
 51 91  1  0
 51 92  1  0
 52 93  1  0
 52 94  1  0
 53 95  1  0
 53 96  1  0
 53 97  1  0
 54 98  1  0
 54 99  1  0
 55100  1  0
 55101  1  0
 55102  1  0
 56103  1  0
 63104  1  0
 63105  1  0
 63106  1  0
 64107  1  0
M  END

