
     RDKit          3D

 96108  0  0  0  0  0  0  0  0999 V2000
   -2.4939    2.3447   -3.4526 C   0  0  0  0  0  0  0  0  0  0  0  0
   -1.8901    3.5400   -3.3219 C   0  0  0  0  0  0  0  0  0  0  0  0
   -1.8362    4.5118   -4.4140 C   0  0  0  0  0  0  0  0  0  0  0  0
   -2.5917    4.5384   -5.4223 O   0  0  0  0  0  0  0  0  0  0  0  0
   -0.6987    5.3813   -4.1963 C   0  0  0  0  0  0  0  0  0  0  0  0
   -0.1996    6.3760   -5.0697 C   0  0  0  0  0  0  0  0  0  0  0  0
    0.9613    6.9799   -4.6263 C   0  0  0  0  0  0  0  0  0  0  0  0
    1.6134    6.6178   -3.4045 C   0  0  0  0  0  0  0  0  0  0  0  0
    1.1396    5.6356   -2.5513 C   0  0  0  0  0  0  0  0  0  0  0  0
   -0.0755    5.0273   -2.9713 C   0  0  0  0  0  0  0  0  0  0  0  0
   -0.8863    3.9737   -2.3042 C   0  0  0  0  0  0  0  0  0  0  0  0
   -0.9530    3.7520   -0.9681 C   0  0  0  0  0  0  0  0  0  0  0  0
   -2.1086    3.1541   -0.3526 C   0  0  0  0  0  0  0  0  0  0  0  0
   -3.0370    2.6910    0.1601 N   0  0  0  0  0  0  0  0  0  0  0  0
    0.0169    4.2790   -0.0449 C   0  0  0  0  0  0  0  0  0  0  0  0
    0.7894    4.6960    0.7100 N   0  0  0  0  0  0  0  0  0  0  0  0
    2.7031    7.6125   -3.6712 C   0  0  0  0  0  0  0  0  0  0  0  0
    4.0686    7.0355   -4.1479 C   0  0  0  0  0  0  0  0  0  0  0  0
    4.8376    8.2081   -4.7078 C   0  0  0  0  0  0  0  0  0  0  0  0
    4.2280    8.5488   -5.8496 C   0  0  0  0  0  0  0  0  0  0  0  0
    3.0669    7.5977   -6.0186 C   0  0  0  0  0  0  0  0  0  0  0  0
    3.7130    6.3445   -5.4541 C   0  0  0  0  0  0  0  0  0  0  0  0
    2.0323    7.9863   -4.9212 C   0  0  0  0  0  0  0  0  0  0  0  0
   -2.2217    1.1760   -2.5987 C   0  0  0  0  0  0  0  0  0  0  0  0
   -3.2358    0.4525   -1.9598 C   0  0  0  0  0  0  0  0  0  0  0  0
   -2.5378   -0.4810   -1.2351 C   0  0  0  0  0  0  0  0  0  0  0  0
   -1.2400   -0.3570   -1.4790 C   0  0  0  0  0  0  0  0  0  0  0  0
   -0.9809    0.6474   -2.3441 N   0  0  0  0  0  0  0  0  0  0  0  0
    0.2472    0.8992   -3.1025 C   0  0  0  0  0  0  0  0  0  0  0  0
    0.3998   -0.1246   -4.2237 C   0  0  0  0  0  0  0  0  0  0  0  0
   -0.6059   -1.4329   -0.8932 C   0  0  0  0  0  0  0  0  0  0  0  0
    0.7231   -1.8885   -0.9048 C   0  0  0  0  0  0  0  0  0  0  0  0
    1.0369   -3.0984   -0.2240 C   0  0  0  0  0  0  0  0  0  0  0  0
    2.3338   -3.4966   -0.2390 N   0  0  0  0  0  0  0  0  0  0  0  0
    2.9979   -2.2787   -1.1392 S   0  0  0  0  0  0  0  0  0  0  0  0
    1.7551   -1.2564   -1.5135 N   0  0  0  0  0  0  0  0  0  0  0  0
    0.0266   -3.7690    0.4690 C   0  0  0  0  0  0  0  0  0  0  0  0
    0.1295   -4.7706    1.3884 C   0  0  0  0  0  0  0  0  0  0  0  0
    1.3850   -5.5898    2.1834 S   0  0  0  0  0  0  0  0  0  0  0  0
    0.3196   -6.0858    3.4169 C   0  0  0  0  0  0  0  0  0  0  0  0
    0.5234   -6.7346    4.6381 C   0  0  0  0  0  0  0  0  0  0  0  0
    1.8827   -7.1714    5.1153 C   0  0  0  0  0  0  0  0  0  0  0  0
    2.5341   -6.0939    5.9718 C   0  0  0  0  0  0  0  0  0  0  0  0
   -0.6537   -6.7091    5.4163 C   0  0  0  0  0  0  0  0  0  0  0  0
   -1.8747   -5.8654    4.5814 S   0  0  0  0  0  0  0  0  0  0  0  0
   -0.9402   -5.5782    3.2214 C   0  0  0  0  0  0  0  0  0  0  0  0
   -1.0477   -4.8278    2.0517 C   0  0  0  0  0  0  0  0  0  0  0  0
   -1.9559   -3.9270    1.5870 N   0  0  0  0  0  0  0  0  0  0  0  0
   -1.2944   -3.2884    0.5546 C   0  0  0  0  0  0  0  0  0  0  0  0
   -1.6433   -2.1396   -0.2262 C   0  0  0  0  0  0  0  0  0  0  0  0
   -2.8688   -1.5751   -0.5181 N   0  0  0  0  0  0  0  0  0  0  0  0
   -4.2257   -2.1354   -0.5074 C   0  0  0  0  0  0  0  0  0  0  0  0
   -4.2711   -3.5306   -1.1319 C   0  0  0  0  0  0  0  0  0  0  0  0
   -3.1908   -3.5658    2.2913 C   0  0  0  0  0  0  0  0  0  0  0  0
   -3.0907   -2.1808    2.9248 C   0  0  0  0  0  0  0  0  0  0  0  0
   -0.8204   -7.1908    6.7955 C   0  0  0  0  0  0  0  0  0  0  0  0
   -0.4011   -8.4155    7.3028 C   0  0  0  0  0  0  0  0  0  0  0  0
   -0.7569   -8.6098    8.6429 C   0  0  0  0  0  0  0  0  0  0  0  0
   -1.4670   -7.5471    9.1772 C   0  0  0  0  0  0  0  0  0  0  0  0
   -1.9879   -7.4774   10.5140 C   0  0  0  0  0  0  0  0  0  0  0  0
   -2.4083   -7.4206   11.5897 N   0  0  0  0  0  0  0  0  0  0  0  0
   -1.6665   -6.3690    7.9989 S   0  0  0  0  0  0  0  0  0  0  0  0
   -3.1984    2.2000   -4.2631 H   0  0  0  0  0  0  0  0  0  0  0  0
   -0.6626    6.6318   -6.0129 H   0  0  0  0  0  0  0  0  0  0  0  0
    1.6901    5.3546   -1.6686 H   0  0  0  0  0  0  0  0  0  0  0  0
    2.7625    8.4232   -2.9104 H   0  0  0  0  0  0  0  0  0  0  0  0
    4.6168    6.4164   -3.4066 H   0  0  0  0  0  0  0  0  0  0  0  0
    5.7589    8.6395   -4.3275 H   0  0  0  0  0  0  0  0  0  0  0  0
    4.5715    9.2999   -6.5537 H   0  0  0  0  0  0  0  0  0  0  0  0
    2.6663    7.5134   -7.0501 H   0  0  0  0  0  0  0  0  0  0  0  0
    4.6073    6.0087   -6.0345 H   0  0  0  0  0  0  0  0  0  0  0  0
    3.0147    5.4855   -5.3422 H   0  0  0  0  0  0  0  0  0  0  0  0
    1.6617    9.0349   -4.9542 H   0  0  0  0  0  0  0  0  0  0  0  0
   -4.3060    0.6078   -2.0148 H   0  0  0  0  0  0  0  0  0  0  0  0
    1.1201    0.9042   -2.4253 H   0  0  0  0  0  0  0  0  0  0  0  0
    0.2222    1.9021   -3.5670 H   0  0  0  0  0  0  0  0  0  0  0  0
    1.3258    0.0845   -4.7978 H   0  0  0  0  0  0  0  0  0  0  0  0
    0.4600   -1.1535   -3.8151 H   0  0  0  0  0  0  0  0  0  0  0  0
   -0.4717   -0.0636   -4.9119 H   0  0  0  0  0  0  0  0  0  0  0  0
    2.5370   -7.3866    4.2452 H   0  0  0  0  0  0  0  0  0  0  0  0
    1.8143   -8.1067    5.6959 H   0  0  0  0  0  0  0  0  0  0  0  0
    1.9153   -5.8818    6.8679 H   0  0  0  0  0  0  0  0  0  0  0  0
    3.5360   -6.4365    6.3024 H   0  0  0  0  0  0  0  0  0  0  0  0
    2.6549   -5.1581    5.3887 H   0  0  0  0  0  0  0  0  0  0  0  0
   -4.6693   -2.0801    0.4981 H   0  0  0  0  0  0  0  0  0  0  0  0
   -4.8997   -1.4980   -1.1156 H   0  0  0  0  0  0  0  0  0  0  0  0
   -3.9292   -3.4825   -2.1884 H   0  0  0  0  0  0  0  0  0  0  0  0
   -3.6252   -4.2458   -0.5925 H   0  0  0  0  0  0  0  0  0  0  0  0
   -5.3115   -3.9129   -1.1103 H   0  0  0  0  0  0  0  0  0  0  0  0
   -4.0675   -3.6902    1.6411 H   0  0  0  0  0  0  0  0  0  0  0  0
   -3.3980   -4.2862    3.1028 H   0  0  0  0  0  0  0  0  0  0  0  0
   -4.0354   -1.9537    3.4585 H   0  0  0  0  0  0  0  0  0  0  0  0
   -2.2494   -2.1599    3.6512 H   0  0  0  0  0  0  0  0  0  0  0  0
   -2.9190   -1.4001    2.1601 H   0  0  0  0  0  0  0  0  0  0  0  0
    0.1062   -9.1688    6.7186 H   0  0  0  0  0  0  0  0  0  0  0  0
   -0.5182   -9.5078    9.1952 H   0  0  0  0  0  0  0  0  0  0  0  0
  1  2  2  3
  2  3  1  0
  3  4  2  0
  3  5  1  0
  5  6  2  0
  6  7  1  0
  7  8  2  0
  8  9  1  0
  9 10  2  0
 10 11  1  0
 11 12  2  3
 12 13  1  0
 13 14  3  0
 12 15  1  0
 15 16  3  0
  8 17  1  0
 17 18  1  0
 18 19  1  0
 19 20  2  0
 20 21  1  0
 21 22  1  0
 21 23  1  0
  1 24  1  0
 24 25  2  0
 25 26  1  0
 26 27  2  0
 27 28  1  0
 28 29  1  0
 29 30  1  0
 27 31  1  0
 31 32  1  0
 32 33  1  0
 33 34  2  0
 34 35  1  0
 35 36  1  0
 33 37  1  0
 37 38  1  0
 38 39  1  0
 39 40  1  0
 40 41  1  0
 41 42  1  0
 42 43  1  0
 41 44  2  0
 44 45  1  0
 45 46  1  0
 46 47  1  0
 47 48  1  0
 48 49  1  0
 49 50  1  0
 50 51  1  0
 51 52  1  0
 52 53  1  0
 48 54  1  0
 54 55  1  0
 44 56  1  0
 56 57  2  0
 57 58  1  0
 58 59  2  0
 59 60  1  0
 60 61  3  0
 59 62  1  0
 11  2  1  0
 23 17  1  0
 28 24  1  0
 50 31  2  0
 62 56  1  0
 10  5  1  0
 22 18  1  0
 51 26  1  0
 23  7  1  0
 36 32  2  0
 49 37  2  0
 47 38  2  0
 46 40  2  0
  1 63  1  0
  6 64  1  0
  9 65  1  0
 17 66  1  0
 18 67  1  0
 19 68  1  0
 20 69  1  0
 21 70  1  0
 22 71  1  0
 22 72  1  0
 23 73  1  0
 25 74  1  0
 29 75  1  0
 29 76  1  0
 30 77  1  0
 30 78  1  0
 30 79  1  0
 42 80  1  0
 42 81  1  0
 43 82  1  0
 43 83  1  0
 43 84  1  0
 52 85  1  0
 52 86  1  0
 53 87  1  0
 53 88  1  0
 53 89  1  0
 54 90  1  0
 54 91  1  0
 55 92  1  0
 55 93  1  0
 55 94  1  0
 57 95  1  0
 58 96  1  0
M  END

