
     RDKit          3D

122135  0  0  0  0  0  0  0  0999 V2000
   -4.2904    3.9997    4.4755 C   0  0  0  0  0  0  0  0  0  0  0  0
   -4.7061    4.7042    3.4061 C   0  0  0  0  0  0  0  0  0  0  0  0
   -3.9704    4.8228    2.1393 C   0  0  0  0  0  0  0  0  0  0  0  0
   -2.7313    4.6646    1.9740 O   0  0  0  0  0  0  0  0  0  0  0  0
   -4.9105    5.1294    1.0885 C   0  0  0  0  0  0  0  0  0  0  0  0
   -4.6506    5.1417   -0.3005 C   0  0  0  0  0  0  0  0  0  0  0  0
   -5.7811    5.2963   -1.0777 C   0  0  0  0  0  0  0  0  0  0  0  0
   -7.0980    5.4201   -0.5294 C   0  0  0  0  0  0  0  0  0  0  0  0
   -7.3588    5.4145    0.8323 C   0  0  0  0  0  0  0  0  0  0  0  0
   -6.2035    5.2799    1.6526 C   0  0  0  0  0  0  0  0  0  0  0  0
   -6.1014    5.1636    3.1351 C   0  0  0  0  0  0  0  0  0  0  0  0
   -7.0117    5.5838    4.0493 C   0  0  0  0  0  0  0  0  0  0  0  0
   -8.2744    6.1619    3.6678 C   0  0  0  0  0  0  0  0  0  0  0  0
   -9.2924    6.6330    3.3785 N   0  0  0  0  0  0  0  0  0  0  0  0
   -6.7318    5.6012    5.4609 C   0  0  0  0  0  0  0  0  0  0  0  0
   -6.5209    5.6162    6.6001 N   0  0  0  0  0  0  0  0  0  0  0  0
   -7.6829    5.5057   -1.9091 C   0  0  0  0  0  0  0  0  0  0  0  0
   -8.1573    6.9003   -2.4179 C   0  0  0  0  0  0  0  0  0  0  0  0
   -7.3285    7.9920   -1.7830 C   0  0  0  0  0  0  0  0  0  0  0  0
   -6.0979    7.8796   -2.2872 C   0  0  0  0  0  0  0  0  0  0  0  0
   -6.1319    6.7144   -3.2498 C   0  0  0  0  0  0  0  0  0  0  0  0
   -7.5324    6.9007   -3.8013 C   0  0  0  0  0  0  0  0  0  0  0  0
   -6.3320    5.3809   -2.4704 C   0  0  0  0  0  0  0  0  0  0  0  0
   -3.0299    3.2451    4.4646 C   0  0  0  0  0  0  0  0  0  0  0  0
   -1.5304    3.9441    4.9076 S   0  0  0  0  0  0  0  0  0  0  0  0
   -0.6704    2.6579    4.2800 C   0  0  0  0  0  0  0  0  0  0  0  0
    0.6206    2.3434    3.9614 C   0  0  0  0  0  0  0  0  0  0  0  0
    1.8473    2.9572    4.2384 C   0  0  0  0  0  0  0  0  0  0  0  0
    3.0393    2.3642    3.7182 C   0  0  0  0  0  0  0  0  0  0  0  0
    4.2082    2.9917    3.9917 N   0  0  0  0  0  0  0  0  0  0  0  0
    3.6355    4.2541    4.9030 S   0  0  0  0  0  0  0  0  0  0  0  0
    1.9908    4.0792    4.9851 N   0  0  0  0  0  0  0  0  0  0  0  0
    2.9251    1.2310    2.9024 C   0  0  0  0  0  0  0  0  0  0  0  0
    3.8277    0.6209    2.0765 C   0  0  0  0  0  0  0  0  0  0  0  0
    5.4668    0.7375    1.6480 S   0  0  0  0  0  0  0  0  0  0  0  0
    5.2303   -0.3615    0.3588 C   0  0  0  0  0  0  0  0  0  0  0  0
    6.0915   -0.9655   -0.5629 C   0  0  0  0  0  0  0  0  0  0  0  0
    7.5655   -0.6724   -0.6374 C   0  0  0  0  0  0  0  0  0  0  0  0
    7.8308    0.4767   -1.6051 C   0  0  0  0  0  0  0  0  0  0  0  0
    5.3851   -1.8427   -1.4176 C   0  0  0  0  0  0  0  0  0  0  0  0
    3.7302   -1.8474   -0.9853 S   0  0  0  0  0  0  0  0  0  0  0  0
    3.9182   -0.7428    0.2586 C   0  0  0  0  0  0  0  0  0  0  0  0
    3.1242   -0.1936    1.2498 C   0  0  0  0  0  0  0  0  0  0  0  0
    1.7875   -0.1626    1.4772 N   0  0  0  0  0  0  0  0  0  0  0  0
    1.6817    0.6686    2.5678 C   0  0  0  0  0  0  0  0  0  0  0  0
    0.5216    1.1785    3.1947 C   0  0  0  0  0  0  0  0  0  0  0  0
   -0.7637    0.7155    3.1451 N   0  0  0  0  0  0  0  0  0  0  0  0
   -1.4734    1.7040    3.7577 C   0  0  0  0  0  0  0  0  0  0  0  0
   -2.8453    2.0005    3.8129 C   0  0  0  0  0  0  0  0  0  0  0  0
   -3.9103    1.3244    2.9856 C   0  0  0  0  0  0  0  0  0  0  0  0
   -5.0747    0.8193    3.8273 C   0  0  0  0  0  0  0  0  0  0  0  0
   -1.1141   -0.7176    3.1701 C   0  0  0  0  0  0  0  0  0  0  0  0
   -1.5683   -1.1684    4.5592 C   0  0  0  0  0  0  0  0  0  0  0  0
    0.7752   -0.4074    0.4336 C   0  0  0  0  0  0  0  0  0  0  0  0
    0.3145    0.9042   -0.2059 C   0  0  0  0  0  0  0  0  0  0  0  0
    6.0014   -2.7756   -2.4375 C   0  0  0  0  0  0  0  0  0  0  0  0
    5.0942   -2.9518   -3.6291 C   0  0  0  0  0  0  0  0  0  0  0  0
    4.3428   -4.0438   -3.8193 C   0  0  0  0  0  0  0  0  0  0  0  0
    4.3758   -5.2048   -2.8818 C   0  0  0  0  0  0  0  0  0  0  0  0
    3.6922   -6.3567   -3.1492 C   0  0  0  0  0  0  0  0  0  0  0  0
    3.4030   -6.8088   -4.5369 C   0  0  0  0  0  0  0  0  0  0  0  0
    3.9266   -6.2137   -5.5202 O   0  0  0  0  0  0  0  0  0  0  0  0
    2.6033   -7.9855   -4.7759 N   0  0  0  0  0  0  0  0  0  0  0  0
    2.1503   -8.2603   -6.1545 C   0  0  0  0  0  0  0  0  0  0  0  0
    3.2074   -9.0504   -6.9227 C   0  0  0  0  0  0  0  0  0  0  0  0
    2.3985   -8.9385   -3.7064 C   0  0  0  0  0  0  0  0  0  0  0  0
    1.7178  -10.4095   -4.0279 S   0  0  0  0  0  0  0  0  0  0  0  0
    2.7854   -8.5971   -2.3527 N   0  0  0  0  0  0  0  0  0  0  0  0
    3.2340   -7.2614   -2.0614 C   0  0  0  0  0  0  0  0  0  0  0  0
    3.1627   -6.8340   -0.8735 O   0  0  0  0  0  0  0  0  0  0  0  0
    2.8320   -9.6128   -1.2824 C   0  0  0  0  0  0  0  0  0  0  0  0
    4.1488  -10.3846   -1.3378 C   0  0  0  0  0  0  0  0  0  0  0  0
    5.1462   -5.0214   -1.5840 C   0  0  0  0  0  0  0  0  0  0  0  0
    6.3737   -4.1287   -1.8019 C   0  0  0  0  0  0  0  0  0  0  0  0
   -4.9566    3.7977    5.2977 H   0  0  0  0  0  0  0  0  0  0  0  0
   -3.6636    5.0099   -0.7260 H   0  0  0  0  0  0  0  0  0  0  0  0
   -8.3709    5.4505    1.2007 H   0  0  0  0  0  0  0  0  0  0  0  0
   -8.3526    4.6573   -2.1680 H   0  0  0  0  0  0  0  0  0  0  0  0
   -9.2550    7.0668   -2.3873 H   0  0  0  0  0  0  0  0  0  0  0  0
   -7.6699    8.7718   -1.1091 H   0  0  0  0  0  0  0  0  0  0  0  0
   -5.2681    8.5510   -2.0935 H   0  0  0  0  0  0  0  0  0  0  0  0
   -5.3193    6.7045   -4.0040 H   0  0  0  0  0  0  0  0  0  0  0  0
   -7.8749    6.0557   -4.4453 H   0  0  0  0  0  0  0  0  0  0  0  0
   -7.6696    7.8624   -4.3505 H   0  0  0  0  0  0  0  0  0  0  0  0
   -6.1801    4.4569   -3.0714 H   0  0  0  0  0  0  0  0  0  0  0  0
    8.1286   -1.5705   -0.9610 H   0  0  0  0  0  0  0  0  0  0  0  0
    7.9493   -0.3968    0.3687 H   0  0  0  0  0  0  0  0  0  0  0  0
    7.4731    0.2191   -2.6246 H   0  0  0  0  0  0  0  0  0  0  0  0
    7.3144    1.3977   -1.2600 H   0  0  0  0  0  0  0  0  0  0  0  0
    8.9224    0.6757   -1.6519 H   0  0  0  0  0  0  0  0  0  0  0  0
   -3.4918    0.4770    2.4159 H   0  0  0  0  0  0  0  0  0  0  0  0
   -4.2820    2.0367    2.2235 H   0  0  0  0  0  0  0  0  0  0  0  0
   -4.7094    0.1704    4.6501 H   0  0  0  0  0  0  0  0  0  0  0  0
   -5.6516    1.6654    4.2571 H   0  0  0  0  0  0  0  0  0  0  0  0
   -5.7612    0.2290    3.1882 H   0  0  0  0  0  0  0  0  0  0  0  0
   -0.2181   -1.3324    2.9357 H   0  0  0  0  0  0  0  0  0  0  0  0
   -1.8833   -0.9525    2.4125 H   0  0  0  0  0  0  0  0  0  0  0  0
   -1.7819   -2.2592    4.5408 H   0  0  0  0  0  0  0  0  0  0  0  0
   -0.7689   -0.9719    5.3043 H   0  0  0  0  0  0  0  0  0  0  0  0
   -2.4913   -0.6373    4.8686 H   0  0  0  0  0  0  0  0  0  0  0  0
   -0.0978   -0.9580    0.8185 H   0  0  0  0  0  0  0  0  0  0  0  0
    1.1906   -1.0556   -0.3649 H   0  0  0  0  0  0  0  0  0  0  0  0
   -0.3293    0.6857   -1.0856 H   0  0  0  0  0  0  0  0  0  0  0  0
   -0.2835    1.4980    0.5219 H   0  0  0  0  0  0  0  0  0  0  0  0
    1.1918    1.5097   -0.5323 H   0  0  0  0  0  0  0  0  0  0  0  0
    6.9352   -2.3143   -2.8224 H   0  0  0  0  0  0  0  0  0  0  0  0
    5.0003   -2.1254   -4.3275 H   0  0  0  0  0  0  0  0  0  0  0  0
    3.6532   -4.0302   -4.6523 H   0  0  0  0  0  0  0  0  0  0  0  0
    1.1908   -8.8191   -6.1566 H   0  0  0  0  0  0  0  0  0  0  0  0
    1.9458   -7.3081   -6.6923 H   0  0  0  0  0  0  0  0  0  0  0  0
    3.4011  -10.0272   -6.4309 H   0  0  0  0  0  0  0  0  0  0  0  0
    2.8487   -9.2389   -7.9566 H   0  0  0  0  0  0  0  0  0  0  0  0
    4.1570   -8.4753   -6.9765 H   0  0  0  0  0  0  0  0  0  0  0  0
    1.9763  -10.3144   -1.3622 H   0  0  0  0  0  0  0  0  0  0  0  0
    2.7340   -9.1445   -0.2805 H   0  0  0  0  0  0  0  0  0  0  0  0
    4.1546  -11.1603   -0.5425 H   0  0  0  0  0  0  0  0  0  0  0  0
    4.2657  -10.8798   -2.3238 H   0  0  0  0  0  0  0  0  0  0  0  0
    5.0007   -9.6960   -1.1632 H   0  0  0  0  0  0  0  0  0  0  0  0
    4.4813   -4.5817   -0.8111 H   0  0  0  0  0  0  0  0  0  0  0  0
    5.5184   -6.0017   -1.2152 H   0  0  0  0  0  0  0  0  0  0  0  0
    7.0868   -4.6569   -2.4748 H   0  0  0  0  0  0  0  0  0  0  0  0
    6.8966   -3.9696   -0.8352 H   0  0  0  0  0  0  0  0  0  0  0  0
  1  2  2  3
  2  3  1  0
  3  4  2  0
  3  5  1  0
  5  6  2  0
  6  7  1  0
  7  8  2  0
  8  9  1  0
  9 10  2  0
 10 11  1  0
 11 12  2  3
 12 13  1  0
 13 14  3  0
 12 15  1  0
 15 16  3  0
  8 17  1  0
 17 18  1  0
 18 19  1  0
 19 20  2  0
 20 21  1  0
 21 22  1  0
 21 23  1  0
  1 24  1  0
 24 25  1  0
 25 26  1  0
 26 27  1  0
 27 28  1  0
 28 29  1  0
 29 30  2  0
 30 31  1  0
 31 32  1  0
 29 33  1  0
 33 34  1  0
 34 35  1  0
 35 36  1  0
 36 37  1  0
 37 38  1  0
 38 39  1  0
 37 40  2  0
 40 41  1  0
 41 42  1  0
 42 43  1  0
 43 44  1  0
 44 45  1  0
 45 46  1  0
 46 47  1  0
 47 48  1  0
 48 49  1  0
 49 50  1  0
 50 51  1  0
 47 52  1  0
 52 53  1  0
 44 54  1  0
 54 55  1  0
 40 56  1  0
 56 57  1  0
 57 58  2  0
 58 59  1  0
 59 60  2  3
 60 61  1  0
 61 62  2  0
 61 63  1  0
 63 64  1  0
 64 65  1  0
 63 66  1  0
 66 67  2  0
 66 68  1  0
 68 69  1  0
 69 70  2  0
 68 71  1  0
 71 72  1  0
 59 73  1  0
 73 74  1  0
 11  2  1  0
 23 17  1  0
 49 24  2  0
 74 56  1  0
 10  5  1  0
 22 18  1  0
 48 26  2  0
 69 60  1  0
 23  7  1  0
 46 27  2  0
 32 28  2  0
 45 33  2  0
 43 34  2  0
 42 36  2  0
  1 75  1  0
  6 76  1  0
  9 77  1  0
 17 78  1  0
 18 79  1  0
 19 80  1  0
 20 81  1  0
 21 82  1  0
 22 83  1  0
 22 84  1  0
 23 85  1  0
 38 86  1  0
 38 87  1  0
 39 88  1  0
 39 89  1  0
 39 90  1  0
 50 91  1  0
 50 92  1  0
 51 93  1  0
 51 94  1  0
 51 95  1  0
 52 96  1  0
 52 97  1  0
 53 98  1  0
 53 99  1  0
 53100  1  0
 54101  1  0
 54102  1  0
 55103  1  0
 55104  1  0
 55105  1  0
 56106  1  0
 57107  1  0
 58108  1  0
 64109  1  0
 64110  1  0
 65111  1  0
 65112  1  0
 65113  1  0
 71114  1  0
 71115  1  0
 72116  1  0
 72117  1  0
 72118  1  0
 73119  1  0
 73120  1  0
 74121  1  0
 74122  1  0
M  END

