
     RDKit          3D

190212  0  0  0  0  0  0  0  0999 V2000
   -1.0415    6.9151    3.2547 C   0  0  0  0  0  0  0  0  0  0  0  0
   -1.8233    7.1298    4.3250 C   0  0  0  0  0  0  0  0  0  0  0  0
   -2.6056    8.3630    4.4226 C   0  0  0  0  0  0  0  0  0  0  0  0
   -2.3050    9.4725    3.9090 O   0  0  0  0  0  0  0  0  0  0  0  0
   -3.8700    8.0455    5.0552 C   0  0  0  0  0  0  0  0  0  0  0  0
   -5.0564    8.8069    5.0068 C   0  0  0  0  0  0  0  0  0  0  0  0
   -6.1758    8.1168    5.4273 C   0  0  0  0  0  0  0  0  0  0  0  0
   -6.1441    6.7511    5.8744 C   0  0  0  0  0  0  0  0  0  0  0  0
   -4.9829    5.9979    5.9206 C   0  0  0  0  0  0  0  0  0  0  0  0
   -3.8252    6.6985    5.4980 C   0  0  0  0  0  0  0  0  0  0  0  0
   -2.4781    6.1538    5.2250 C   0  0  0  0  0  0  0  0  0  0  0  0
   -1.8215    5.2731    6.0220 C   0  0  0  0  0  0  0  0  0  0  0  0
   -2.4689    4.6495    7.1529 C   0  0  0  0  0  0  0  0  0  0  0  0
   -2.9749    4.1883    8.0801 N   0  0  0  0  0  0  0  0  0  0  0  0
   -0.4019    5.0570    5.8874 C   0  0  0  0  0  0  0  0  0  0  0  0
    0.7367    4.8776    5.7823 N   0  0  0  0  0  0  0  0  0  0  0  0
   -7.6360    6.7487    6.0127 C   0  0  0  0  0  0  0  0  0  0  0  0
   -8.4278    5.9758    4.9159 C   0  0  0  0  0  0  0  0  0  0  0  0
   -9.8592    6.4460    5.0235 C   0  0  0  0  0  0  0  0  0  0  0  0
   -9.8797    7.7094    4.5840 C   0  0  0  0  0  0  0  0  0  0  0  0
   -8.4581    8.0506    4.2007 C   0  0  0  0  0  0  0  0  0  0  0  0
   -8.0423    6.6993    3.6364 C   0  0  0  0  0  0  0  0  0  0  0  0
   -7.6676    8.1369    5.5434 C   0  0  0  0  0  0  0  0  0  0  0  0
   -0.8367    5.6370    2.5401 C   0  0  0  0  0  0  0  0  0  0  0  0
   -1.2724    4.3407    2.8775 C   0  0  0  0  0  0  0  0  0  0  0  0
   -0.9568    3.4364    1.8750 C   0  0  0  0  0  0  0  0  0  0  0  0
   -1.0786    1.7515    1.7475 S   0  0  0  0  0  0  0  0  0  0  0  0
   -0.4037    1.7899    0.1864 C   0  0  0  0  0  0  0  0  0  0  0  0
    0.1404    0.8470   -0.7597 C   0  0  0  0  0  0  0  0  0  0  0  0
    0.0770   -0.5521   -0.7894 C   0  0  0  0  0  0  0  0  0  0  0  0
   -0.4977   -1.2652    0.3612 C   0  0  0  0  0  0  0  0  0  0  0  0
   -1.8403   -1.5433    0.5967 C   0  0  0  0  0  0  0  0  0  0  0  0
   -2.0890   -2.0470    1.8809 C   0  0  0  0  0  0  0  0  0  0  0  0
   -0.9504   -2.1249    2.6722 C   0  0  0  0  0  0  0  0  0  0  0  0
   -0.9093   -2.5040    4.1168 C   0  0  0  0  0  0  0  0  0  0  0  0
   -0.9661   -1.2599    5.0010 C   0  0  0  0  0  0  0  0  0  0  0  0
    0.3570   -1.5451    1.7885 S   0  0  0  0  0  0  0  0  0  0  0  0
    0.8164   -1.1916   -1.8175 C   0  0  0  0  0  0  0  0  0  0  0  0
    0.5544   -2.5054   -2.5701 C   0  0  0  0  0  0  0  0  0  0  0  0
    0.1512   -3.7402   -1.7489 C   0  0  0  0  0  0  0  0  0  0  0  0
   -0.6350   -4.7578   -2.3405 C   0  0  0  0  0  0  0  0  0  0  0  0
   -1.0396   -5.8731   -1.6055 C   0  0  0  0  0  0  0  0  0  0  0  0
   -0.6681   -6.0083   -0.2590 C   0  0  0  0  0  0  0  0  0  0  0  0
   -1.1763   -7.1804    0.5469 C   0  0  0  0  0  0  0  0  0  0  0  0
   -2.6904   -7.0987    0.7589 C   0  0  0  0  0  0  0  0  0  0  0  0
    0.2030   -5.0643    0.3042 C   0  0  0  0  0  0  0  0  0  0  0  0
    0.6371   -3.9614   -0.4460 C   0  0  0  0  0  0  0  0  0  0  0  0
   -0.5173   -2.1566   -3.6406 C   0  0  0  0  0  0  0  0  0  0  0  0
   -0.2474   -2.1786   -5.0291 C   0  0  0  0  0  0  0  0  0  0  0  0
   -1.1533   -1.6334   -5.9464 C   0  0  0  0  0  0  0  0  0  0  0  0
   -2.3622   -1.0802   -5.5119 C   0  0  0  0  0  0  0  0  0  0  0  0
   -3.3003   -0.4352   -6.4999 C   0  0  0  0  0  0  0  0  0  0  0  0
   -2.7786    0.9314   -6.9549 C   0  0  0  0  0  0  0  0  0  0  0  0
   -2.6837   -1.1384   -4.1502 C   0  0  0  0  0  0  0  0  0  0  0  0
   -1.7831   -1.6916   -3.2348 C   0  0  0  0  0  0  0  0  0  0  0  0
    1.9211   -2.6288   -3.2242 C   0  0  0  0  0  0  0  0  0  0  0  0
    2.4672   -1.3712   -3.4329 C   0  0  0  0  0  0  0  0  0  0  0  0
    1.7120   -0.4468   -2.5987 C   0  0  0  0  0  0  0  0  0  0  0  0
    1.6417    0.9557   -2.6722 C   0  0  0  0  0  0  0  0  0  0  0  0
    0.7968    1.5968   -1.7434 C   0  0  0  0  0  0  0  0  0  0  0  0
    0.4500    3.0872   -1.6150 C   0  0  0  0  0  0  0  0  0  0  0  0
   -0.7461    3.4865   -2.5043 C   0  0  0  0  0  0  0  0  0  0  0  0
   -1.5909    2.5150   -3.0899 C   0  0  0  0  0  0  0  0  0  0  0  0
   -2.8198    2.8683   -3.6466 C   0  0  0  0  0  0  0  0  0  0  0  0
   -3.1991    4.2157   -3.7333 C   0  0  0  0  0  0  0  0  0  0  0  0
   -4.5427    4.5892   -4.3156 C   0  0  0  0  0  0  0  0  0  0  0  0
   -4.6829    4.1397   -5.7684 C   0  0  0  0  0  0  0  0  0  0  0  0
   -2.3704    5.1920   -3.1666 C   0  0  0  0  0  0  0  0  0  0  0  0
   -1.1685    4.8361   -2.5460 C   0  0  0  0  0  0  0  0  0  0  0  0
    1.6972    3.9683   -1.7453 C   0  0  0  0  0  0  0  0  0  0  0  0
    1.9331    4.7476   -2.9005 C   0  0  0  0  0  0  0  0  0  0  0  0
    3.0837    5.5302   -3.0136 C   0  0  0  0  0  0  0  0  0  0  0  0
    4.0398    5.5293   -1.9927 C   0  0  0  0  0  0  0  0  0  0  0  0
    5.2886    6.3592   -2.1243 C   0  0  0  0  0  0  0  0  0  0  0  0
    6.3724    5.5849   -2.8678 C   0  0  0  0  0  0  0  0  0  0  0  0
    3.8518    4.7094   -0.8684 C   0  0  0  0  0  0  0  0  0  0  0  0
    2.6973    3.9309   -0.7529 C   0  0  0  0  0  0  0  0  0  0  0  0
   -0.0962    3.0504   -0.2185 C   0  0  0  0  0  0  0  0  0  0  0  0
   -0.3848    3.9800    0.7627 C   0  0  0  0  0  0  0  0  0  0  0  0
   -0.1633    5.6210    0.9683 S   0  0  0  0  0  0  0  0  0  0  0  0
    2.2285    1.6691   -3.8158 C   0  0  0  0  0  0  0  0  0  0  0  0
    1.5223    2.0618   -4.9477 C   0  0  0  0  0  0  0  0  0  0  0  0
    2.3407    2.5976   -5.9510 C   0  0  0  0  0  0  0  0  0  0  0  0
    3.6884    2.6147   -5.6036 C   0  0  0  0  0  0  0  0  0  0  0  0
    4.8176    2.9627   -6.5281 C   0  0  0  0  0  0  0  0  0  0  0  0
    5.1038    1.7996   -7.4738 C   0  0  0  0  0  0  0  0  0  0  0  0
    3.8678    1.9668   -4.0564 S   0  0  0  0  0  0  0  0  0  0  0  0
    4.1640   -1.4840   -3.5071 S   0  0  0  0  0  0  0  0  0  0  0  0
    4.1927   -3.1576   -3.3323 C   0  0  0  0  0  0  0  0  0  0  0  0
    5.2104   -3.9750   -2.8297 C   0  0  0  0  0  0  0  0  0  0  0  0
    4.6992   -5.1174   -2.1888 C   0  0  0  0  0  0  0  0  0  0  0  0
    2.9976   -5.0542   -2.2805 S   0  0  0  0  0  0  0  0  0  0  0  0
    2.9134   -3.6171   -3.1424 C   0  0  0  0  0  0  0  0  0  0  0  0
    5.4839   -5.8962   -1.1967 C   0  0  0  0  0  0  0  0  0  0  0  0
    5.0315   -6.9520   -0.4893 C   0  0  0  0  0  0  0  0  0  0  0  0
    3.7674   -7.6754   -0.6978 C   0  0  0  0  0  0  0  0  0  0  0  0
    3.2009   -7.8964   -1.8020 O   0  0  0  0  0  0  0  0  0  0  0  0
    3.3187   -8.1984    0.5809 C   0  0  0  0  0  0  0  0  0  0  0  0
    2.0564   -8.7478    0.8774 C   0  0  0  0  0  0  0  0  0  0  0  0
    1.8495   -8.9726    2.2287 C   0  0  0  0  0  0  0  0  0  0  0  0
    2.8413   -8.6920    3.2289 C   0  0  0  0  0  0  0  0  0  0  0  0
    4.0955   -8.1823    2.9334 C   0  0  0  0  0  0  0  0  0  0  0  0
    4.3248   -7.9581    1.5475 C   0  0  0  0  0  0  0  0  0  0  0  0
    5.5010   -7.3472    0.8733 C   0  0  0  0  0  0  0  0  0  0  0  0
    6.7834   -7.4059    1.3121 C   0  0  0  0  0  0  0  0  0  0  0  0
    7.1378   -8.1079    2.5181 C   0  0  0  0  0  0  0  0  0  0  0  0
    7.4232   -8.6821    3.4756 N   0  0  0  0  0  0  0  0  0  0  0  0
    7.8865   -6.9653    0.5013 C   0  0  0  0  0  0  0  0  0  0  0  0
    8.7855   -6.6190   -0.1443 N   0  0  0  0  0  0  0  0  0  0  0  0
    1.9010   -9.1467    4.3058 C   0  0  0  0  0  0  0  0  0  0  0  0
    2.1935  -10.5371    4.9413 C   0  0  0  0  0  0  0  0  0  0  0  0
    0.9313  -10.9337    5.6721 C   0  0  0  0  0  0  0  0  0  0  0  0
    0.0197  -11.2024    4.7267 C   0  0  0  0  0  0  0  0  0  0  0  0
    0.6962  -10.9782    3.3971 C   0  0  0  0  0  0  0  0  0  0  0  0
    2.0834  -11.4815    3.7569 C   0  0  0  0  0  0  0  0  0  0  0  0
    0.8938   -9.4407    3.2821 C   0  0  0  0  0  0  0  0  0  0  0  0
   -0.7120    7.7878    2.7061 H   0  0  0  0  0  0  0  0  0  0  0  0
   -5.1080    9.7987    4.5849 H   0  0  0  0  0  0  0  0  0  0  0  0
   -4.9949    4.9452    6.1689 H   0  0  0  0  0  0  0  0  0  0  0  0
   -7.9852    6.5991    7.0563 H   0  0  0  0  0  0  0  0  0  0  0  0
   -8.2876    4.8737    4.9121 H   0  0  0  0  0  0  0  0  0  0  0  0
  -10.7262    5.8535    5.2991 H   0  0  0  0  0  0  0  0  0  0  0  0
  -10.7653    8.3188    4.4390 H   0  0  0  0  0  0  0  0  0  0  0  0
   -8.3386    8.9191    3.5183 H   0  0  0  0  0  0  0  0  0  0  0  0
   -6.9621    6.6165    3.3762 H   0  0  0  0  0  0  0  0  0  0  0  0
   -8.6461    6.3830    2.7539 H   0  0  0  0  0  0  0  0  0  0  0  0
   -8.0495    8.8749    6.2830 H   0  0  0  0  0  0  0  0  0  0  0  0
   -1.7784    4.0371    3.7738 H   0  0  0  0  0  0  0  0  0  0  0  0
   -2.6321   -1.3435   -0.1032 H   0  0  0  0  0  0  0  0  0  0  0  0
   -3.0779   -2.3033    2.2306 H   0  0  0  0  0  0  0  0  0  0  0  0
    0.0310   -3.0587    4.3226 H   0  0  0  0  0  0  0  0  0  0  0  0
   -1.7647   -3.1735    4.3586 H   0  0  0  0  0  0  0  0  0  0  0  0
   -1.9149   -0.7088    4.8216 H   0  0  0  0  0  0  0  0  0  0  0  0
   -0.9166   -1.5630    6.0696 H   0  0  0  0  0  0  0  0  0  0  0  0
   -0.1077   -0.5909    4.7820 H   0  0  0  0  0  0  0  0  0  0  0  0
   -0.9413   -4.6934   -3.3776 H   0  0  0  0  0  0  0  0  0  0  0  0
   -1.6706   -6.6151   -2.0793 H   0  0  0  0  0  0  0  0  0  0  0  0
   -0.6772   -7.2245    1.5417 H   0  0  0  0  0  0  0  0  0  0  0  0
   -0.9335   -8.1246    0.0082 H   0  0  0  0  0  0  0  0  0  0  0  0
   -3.2117   -7.0849   -0.2277 H   0  0  0  0  0  0  0  0  0  0  0  0
   -2.9482   -6.1777    1.3292 H   0  0  0  0  0  0  0  0  0  0  0  0
   -3.0257   -7.9889    1.3382 H   0  0  0  0  0  0  0  0  0  0  0  0
    0.5520   -5.1771    1.3232 H   0  0  0  0  0  0  0  0  0  0  0  0
    1.3812   -3.3023   -0.0316 H   0  0  0  0  0  0  0  0  0  0  0  0
    0.6853   -2.5656   -5.4191 H   0  0  0  0  0  0  0  0  0  0  0  0
   -0.9027   -1.6290   -7.0002 H   0  0  0  0  0  0  0  0  0  0  0  0
   -4.3097   -0.3070   -6.0527 H   0  0  0  0  0  0  0  0  0  0  0  0
   -3.4163   -1.0967   -7.3860 H   0  0  0  0  0  0  0  0  0  0  0  0
   -3.5197    1.4152   -7.6243 H   0  0  0  0  0  0  0  0  0  0  0  0
   -1.8119    0.8271   -7.5001 H   0  0  0  0  0  0  0  0  0  0  0  0
   -2.6157    1.5947   -6.0838 H   0  0  0  0  0  0  0  0  0  0  0  0
   -3.6206   -0.7346   -3.7904 H   0  0  0  0  0  0  0  0  0  0  0  0
   -2.0602   -1.7226   -2.2007 H   0  0  0  0  0  0  0  0  0  0  0  0
   -1.3518    1.4582   -3.0548 H   0  0  0  0  0  0  0  0  0  0  0  0
   -3.4812    2.0921   -4.0062 H   0  0  0  0  0  0  0  0  0  0  0  0
   -5.3467    4.1202   -3.7044 H   0  0  0  0  0  0  0  0  0  0  0  0
   -4.6889    5.6908   -4.2733 H   0  0  0  0  0  0  0  0  0  0  0  0
   -4.7491    3.0322   -5.8239 H   0  0  0  0  0  0  0  0  0  0  0  0
   -3.8196    4.4935   -6.3780 H   0  0  0  0  0  0  0  0  0  0  0  0
   -5.6151    4.5641   -6.1973 H   0  0  0  0  0  0  0  0  0  0  0  0
   -2.6610    6.2349   -3.1817 H   0  0  0  0  0  0  0  0  0  0  0  0
   -0.5982    5.6030   -2.0422 H   0  0  0  0  0  0  0  0  0  0  0  0
    1.2361    4.7437   -3.7240 H   0  0  0  0  0  0  0  0  0  0  0  0
    3.2280    6.1256   -3.9066 H   0  0  0  0  0  0  0  0  0  0  0  0
    5.6672    6.6463   -1.1190 H   0  0  0  0  0  0  0  0  0  0  0  0
    5.0651    7.3002   -2.6741 H   0  0  0  0  0  0  0  0  0  0  0  0
    6.6161    4.6452   -2.3274 H   0  0  0  0  0  0  0  0  0  0  0  0
    7.2920    6.2038   -2.9337 H   0  0  0  0  0  0  0  0  0  0  0  0
    6.0344    5.3407   -3.8972 H   0  0  0  0  0  0  0  0  0  0  0  0
    4.6023    4.6692   -0.0867 H   0  0  0  0  0  0  0  0  0  0  0  0
    2.5857    3.2957    0.1188 H   0  0  0  0  0  0  0  0  0  0  0  0
    0.4563    1.9203   -5.0703 H   0  0  0  0  0  0  0  0  0  0  0  0
    1.9689    2.9067   -6.9212 H   0  0  0  0  0  0  0  0  0  0  0  0
    4.5468    3.8640   -7.1188 H   0  0  0  0  0  0  0  0  0  0  0  0
    5.7307    3.1975   -5.9366 H   0  0  0  0  0  0  0  0  0  0  0  0
    5.9206    2.0763   -8.1748 H   0  0  0  0  0  0  0  0  0  0  0  0
    4.1937    1.5523   -8.0679 H   0  0  0  0  0  0  0  0  0  0  0  0
    5.4185    0.9019   -6.8941 H   0  0  0  0  0  0  0  0  0  0  0  0
    6.2493   -3.6670   -2.7598 H   0  0  0  0  0  0  0  0  0  0  0  0
    6.4117   -5.4321   -0.8906 H   0  0  0  0  0  0  0  0  0  0  0  0
    1.3090   -8.9468    0.1292 H   0  0  0  0  0  0  0  0  0  0  0  0
    4.8042   -7.9459    3.7114 H   0  0  0  0  0  0  0  0  0  0  0  0
    1.6117   -8.3404    5.0152 H   0  0  0  0  0  0  0  0  0  0  0  0
    3.1279  -10.6073    5.5383 H   0  0  0  0  0  0  0  0  0  0  0  0
    0.7958  -11.0517    6.7402 H   0  0  0  0  0  0  0  0  0  0  0  0
   -0.9762  -11.5904    4.8953 H   0  0  0  0  0  0  0  0  0  0  0  0
    0.2090  -11.4713    2.5237 H   0  0  0  0  0  0  0  0  0  0  0  0
    2.0995  -12.5581    4.0490 H   0  0  0  0  0  0  0  0  0  0  0  0
    2.8524  -11.3169    2.9720 H   0  0  0  0  0  0  0  0  0  0  0  0
   -0.0319   -8.8272    3.3515 H   0  0  0  0  0  0  0  0  0  0  0  0
  1  2  2  3
  2  3  1  0
  3  4  2  0
  3  5  1  0
  5  6  2  0
  6  7  1  0
  7  8  2  0
  8  9  1  0
  9 10  2  0
 10 11  1  0
 11 12  2  3
 12 13  1  0
 13 14  3  0
 12 15  1  0
 15 16  3  0
  8 17  1  0
 17 18  1  0
 18 19  1  0
 19 20  2  0
 20 21  1  0
 21 22  1  0
 21 23  1  0
  1 24  1  0
 24 25  2  0
 25 26  1  0
 26 27  1  0
 27 28  1  0
 28 29  1  0
 29 30  2  0
 30 31  1  0
 31 32  2  0
 32 33  1  0
 33 34  2  0
 34 35  1  0
 35 36  1  0
 34 37  1  0
 30 38  1  0
 38 39  1  0
 39 40  1  0
 40 41  2  0
 41 42  1  0
 42 43  2  0
 43 44  1  0
 44 45  1  0
 43 46  1  0
 46 47  2  0
 39 48  1  0
 48 49  2  0
 49 50  1  0
 50 51  2  0
 51 52  1  0
 52 53  1  0
 51 54  1  0
 54 55  2  0
 39 56  1  0
 56 57  2  0
 57 58  1  0
 58 59  1  0
 59 60  2  0
 60 61  1  0
 61 62  1  0
 62 63  2  0
 63 64  1  0
 64 65  2  0
 65 66  1  0
 66 67  1  0
 65 68  1  0
 68 69  2  0
 61 70  1  0
 70 71  2  0
 71 72  1  0
 72 73  2  0
 73 74  1  0
 74 75  1  0
 73 76  1  0
 76 77  2  0
 61 78  1  0
 78 79  1  0
 79 80  1  0
 59 81  1  0
 81 82  2  0
 82 83  1  0
 83 84  2  0
 84 85  1  0
 85 86  1  0
 84 87  1  0
 57 88  1  0
 88 89  1  0
 89 90  1  0
 90 91  2  0
 91 92  1  0
 92 93  1  0
 91 94  1  0
 94 95  2  3
 95 96  1  0
 96 97  2  0
 96 98  1  0
 98 99  2  0
 99100  1  0
100101  2  0
101102  1  0
102103  2  0
103104  1  0
104105  2  3
105106  1  0
106107  3  0
105108  1  0
108109  3  0
101110  1  0
110111  1  0
111112  1  0
112113  2  0
113114  1  0
114115  1  0
114116  1  0
 11  2  1  0
 23 17  1  0
 80 24  1  0
 87 81  1  0
 93 89  2  0
104 95  1  0
116110  1  0
 10  5  1  0
 22 18  1  0
 79 26  2  0
103 98  1  0
115111  1  0
 23  7  1  0
 78 28  2  0
116100  1  0
 60 29  1  0
 69 62  1  0
 77 70  1  0
 37 31  1  0
 58 38  2  0
 47 40  1  0
 55 48  1  0
 93 56  1  0
  1117  1  0
  6118  1  0
  9119  1  0
 17120  1  0
 18121  1  0
 19122  1  0
 20123  1  0
 21124  1  0
 22125  1  0
 22126  1  0
 23127  1  0
 25128  1  0
 32129  1  0
 33130  1  0
 35131  1  0
 35132  1  0
 36133  1  0
 36134  1  0
 36135  1  0
 41136  1  0
 42137  1  0
 44138  1  0
 44139  1  0
 45140  1  0
 45141  1  0
 45142  1  0
 46143  1  0
 47144  1  0
 49145  1  0
 50146  1  0
 52147  1  0
 52148  1  0
 53149  1  0
 53150  1  0
 53151  1  0
 54152  1  0
 55153  1  0
 63154  1  0
 64155  1  0
 66156  1  0
 66157  1  0
 67158  1  0
 67159  1  0
 67160  1  0
 68161  1  0
 69162  1  0
 71163  1  0
 72164  1  0
 74165  1  0
 74166  1  0
 75167  1  0
 75168  1  0
 75169  1  0
 76170  1  0
 77171  1  0
 82172  1  0
 83173  1  0
 85174  1  0
 85175  1  0
 86176  1  0
 86177  1  0
 86178  1  0
 90179  1  0
 94180  1  0
 99181  1  0
102182  1  0
110183  1  0
111184  1  0
112185  1  0
113186  1  0
114187  1  0
115188  1  0
115189  1  0
116190  1  0
M  END

