
     RDKit          3D

139155  0  0  0  0  0  0  0  0999 V2000
   -6.3648    0.5366   -1.9010 C   0  0  0  0  0  0  0  0  0  0  0  0
   -7.4544    1.2853   -1.6886 C   0  0  0  0  0  0  0  0  0  0  0  0
   -8.5149    0.8291   -0.7746 C   0  0  0  0  0  0  0  0  0  0  0  0
   -8.3424    0.0996    0.2352 O   0  0  0  0  0  0  0  0  0  0  0  0
   -9.8145    1.1476   -1.3394 C   0  0  0  0  0  0  0  0  0  0  0  0
  -11.0867    0.7750   -0.8371 C   0  0  0  0  0  0  0  0  0  0  0  0
  -12.1359    1.0542   -1.7041 C   0  0  0  0  0  0  0  0  0  0  0  0
  -11.9441    1.6512   -2.9908 C   0  0  0  0  0  0  0  0  0  0  0  0
  -10.7079    2.0219   -3.4800 C   0  0  0  0  0  0  0  0  0  0  0  0
   -9.6225    1.7680   -2.5954 C   0  0  0  0  0  0  0  0  0  0  0  0
   -8.1692    1.9374   -2.8264 C   0  0  0  0  0  0  0  0  0  0  0  0
   -7.5641    2.6809   -3.7878 C   0  0  0  0  0  0  0  0  0  0  0  0
   -6.1324    2.8589   -3.8113 C   0  0  0  0  0  0  0  0  0  0  0  0
   -4.9836    3.0047   -3.8286 N   0  0  0  0  0  0  0  0  0  0  0  0
   -8.2956    3.4352   -4.7727 C   0  0  0  0  0  0  0  0  0  0  0  0
   -8.8670    4.0501   -5.5704 N   0  0  0  0  0  0  0  0  0  0  0  0
  -13.4049    1.5409   -3.2853 C   0  0  0  0  0  0  0  0  0  0  0  0
  -13.8254    0.4077   -4.2674 C   0  0  0  0  0  0  0  0  0  0  0  0
  -15.3152    0.2674   -4.1109 C   0  0  0  0  0  0  0  0  0  0  0  0
  -15.5155   -0.2695   -2.9000 C   0  0  0  0  0  0  0  0  0  0  0  0
  -14.1524   -0.4785   -2.2847 C   0  0  0  0  0  0  0  0  0  0  0  0
  -13.3922   -0.8554   -3.5447 C   0  0  0  0  0  0  0  0  0  0  0  0
  -13.6119    0.9446   -1.9590 C   0  0  0  0  0  0  0  0  0  0  0  0
   -5.1144    0.5740   -1.0972 C   0  0  0  0  0  0  0  0  0  0  0  0
   -4.8059    1.1502    0.1650 C   0  0  0  0  0  0  0  0  0  0  0  0
   -5.7616    1.7513    1.1600 C   0  0  0  0  0  0  0  0  0  0  0  0
   -6.0871    0.7455    2.2655 C   0  0  0  0  0  0  0  0  0  0  0  0
   -3.4278    1.0490    0.4294 C   0  0  0  0  0  0  0  0  0  0  0  0
   -2.4341    1.4876    1.7526 S   0  0  0  0  0  0  0  0  0  0  0  0
   -1.0495    0.8972    0.9576 C   0  0  0  0  0  0  0  0  0  0  0  0
    0.2797    0.6831    1.1823 C   0  0  0  0  0  0  0  0  0  0  0  0
    1.0404    0.9500    2.3275 C   0  0  0  0  0  0  0  0  0  0  0  0
    0.5081    1.5486    3.4243 N   0  0  0  0  0  0  0  0  0  0  0  0
    1.2533    1.8234    4.5294 C   0  0  0  0  0  0  0  0  0  0  0  0
    0.5734    2.5271    5.6362 C   0  0  0  0  0  0  0  0  0  0  0  0
    1.0870    3.5508    6.4337 C   0  0  0  0  0  0  0  0  0  0  0  0
    0.1371    4.1061    7.3017 C   0  0  0  0  0  0  0  0  0  0  0  0
   -1.1278    3.5497    7.1571 C   0  0  0  0  0  0  0  0  0  0  0  0
   -2.3557    3.9316    7.9190 C   0  0  0  0  0  0  0  0  0  0  0  0
   -2.5356    3.0327    9.1393 C   0  0  0  0  0  0  0  0  0  0  0  0
   -1.0662    2.3615    5.9681 S   0  0  0  0  0  0  0  0  0  0  0  0
    2.6252    1.4610    4.5328 C   0  0  0  0  0  0  0  0  0  0  0  0
    3.5093    1.6425    5.7006 C   0  0  0  0  0  0  0  0  0  0  0  0
    4.8252    2.0936    5.6416 C   0  0  0  0  0  0  0  0  0  0  0  0
    5.4691    2.0922    6.8833 C   0  0  0  0  0  0  0  0  0  0  0  0
    4.6703    1.6198    7.9150 C   0  0  0  0  0  0  0  0  0  0  0  0
    5.0973    1.4594    9.3411 C   0  0  0  0  0  0  0  0  0  0  0  0
    5.9010    0.1767    9.5272 C   0  0  0  0  0  0  0  0  0  0  0  0
    3.1704    1.1860    7.2911 S   0  0  0  0  0  0  0  0  0  0  0  0
    3.1497    0.8591    3.4283 N   0  0  0  0  0  0  0  0  0  0  0  0
    2.3942    0.5912    2.3320 C   0  0  0  0  0  0  0  0  0  0  0  0
    2.9280   -0.0263    1.1981 C   0  0  0  0  0  0  0  0  0  0  0  0
    4.2194   -0.3930    0.9429 C   0  0  0  0  0  0  0  0  0  0  0  0
    5.7581   -0.2873    1.6625 S   0  0  0  0  0  0  0  0  0  0  0  0
    6.4950   -0.8204    0.2162 C   0  0  0  0  0  0  0  0  0  0  0  0
    7.8257   -0.9591   -0.1975 C   0  0  0  0  0  0  0  0  0  0  0  0
    9.0050   -0.7522    0.7171 C   0  0  0  0  0  0  0  0  0  0  0  0
    9.6489   -2.0900    1.0813 C   0  0  0  0  0  0  0  0  0  0  0  0
    7.9056   -1.3060   -1.5669 C   0  0  0  0  0  0  0  0  0  0  0  0
    6.3263   -1.3644   -2.2151 S   0  0  0  0  0  0  0  0  0  0  0  0
    5.5638   -1.0391   -0.7610 C   0  0  0  0  0  0  0  0  0  0  0  0
    4.2628   -0.8177   -0.3294 C   0  0  0  0  0  0  0  0  0  0  0  0
    3.0530   -0.8029   -0.9432 N   0  0  0  0  0  0  0  0  0  0  0  0
    2.8972   -1.1437   -2.3568 C   0  0  0  0  0  0  0  0  0  0  0  0
    2.9505    0.1139   -3.2228 C   0  0  0  0  0  0  0  0  0  0  0  0
    2.1911   -0.2917    0.0162 C   0  0  0  0  0  0  0  0  0  0  0  0
    0.7913    0.0622    0.0164 C   0  0  0  0  0  0  0  0  0  0  0  0
   -0.2404   -0.1111   -0.8931 N   0  0  0  0  0  0  0  0  0  0  0  0
   -1.3263    0.3984   -0.2573 C   0  0  0  0  0  0  0  0  0  0  0  0
   -2.6818    0.4633   -0.5530 C   0  0  0  0  0  0  0  0  0  0  0  0
   -3.6734   -0.0008   -1.8080 S   0  0  0  0  0  0  0  0  0  0  0  0
   -0.3386   -0.8280   -2.1611 C   0  0  0  0  0  0  0  0  0  0  0  0
   -0.4559   -2.3284   -1.9211 C   0  0  0  0  0  0  0  0  0  0  0  0
    9.1642   -1.3767   -2.3474 C   0  0  0  0  0  0  0  0  0  0  0  0
    9.3567   -1.9987   -3.5388 C   0  0  0  0  0  0  0  0  0  0  0  0
    8.3646   -2.7204   -4.3523 C   0  0  0  0  0  0  0  0  0  0  0  0
    7.3738   -3.3677   -3.9269 O   0  0  0  0  0  0  0  0  0  0  0  0
    8.8222   -2.7304   -5.7272 C   0  0  0  0  0  0  0  0  0  0  0  0
    8.1225   -3.1175   -6.8761 C   0  0  0  0  0  0  0  0  0  0  0  0
    8.7417   -2.9574   -8.1214 C   0  0  0  0  0  0  0  0  0  0  0  0
    8.0871   -3.3133   -9.2548 F   0  0  0  0  0  0  0  0  0  0  0  0
   10.0321   -2.4030   -8.2002 C   0  0  0  0  0  0  0  0  0  0  0  0
   10.6282   -2.2419   -9.4116 F   0  0  0  0  0  0  0  0  0  0  0  0
   10.7162   -2.0155   -7.0320 C   0  0  0  0  0  0  0  0  0  0  0  0
   10.0988   -2.2041   -5.7851 C   0  0  0  0  0  0  0  0  0  0  0  0
   10.5654   -1.8618   -4.4125 C   0  0  0  0  0  0  0  0  0  0  0  0
   11.8558   -1.7795   -3.9977 C   0  0  0  0  0  0  0  0  0  0  0  0
   12.9609   -1.9024   -4.9114 C   0  0  0  0  0  0  0  0  0  0  0  0
   13.8562   -2.0002   -5.6383 N   0  0  0  0  0  0  0  0  0  0  0  0
   12.2161   -1.6793   -2.6099 C   0  0  0  0  0  0  0  0  0  0  0  0
   12.5076   -1.6057   -1.4922 N   0  0  0  0  0  0  0  0  0  0  0  0
   -6.1851    0.2454   -2.9304 H   0  0  0  0  0  0  0  0  0  0  0  0
  -11.2304    0.2718    0.1107 H   0  0  0  0  0  0  0  0  0  0  0  0
  -10.6022    2.3879   -4.4912 H   0  0  0  0  0  0  0  0  0  0  0  0
  -13.9039    2.5258   -3.4319 H   0  0  0  0  0  0  0  0  0  0  0  0
  -13.4674    0.5149   -5.3161 H   0  0  0  0  0  0  0  0  0  0  0  0
  -16.0783    0.4646   -4.8555 H   0  0  0  0  0  0  0  0  0  0  0  0
  -16.4742   -0.5791   -2.4943 H   0  0  0  0  0  0  0  0  0  0  0  0
  -14.1112   -1.2130   -1.4530 H   0  0  0  0  0  0  0  0  0  0  0  0
  -13.7660   -1.7904   -4.0268 H   0  0  0  0  0  0  0  0  0  0  0  0
  -12.2984   -0.9495   -3.4003 H   0  0  0  0  0  0  0  0  0  0  0  0
  -14.2377    1.5565   -1.2646 H   0  0  0  0  0  0  0  0  0  0  0  0
   -6.6865    2.1034    0.6735 H   0  0  0  0  0  0  0  0  0  0  0  0
   -5.2939    2.6471    1.6263 H   0  0  0  0  0  0  0  0  0  0  0  0
   -5.1979    0.5799    2.9069 H   0  0  0  0  0  0  0  0  0  0  0  0
   -6.9090    1.1359    2.9008 H   0  0  0  0  0  0  0  0  0  0  0  0
   -6.3939   -0.2326    1.8470 H   0  0  0  0  0  0  0  0  0  0  0  0
    2.1041    3.9124    6.3736 H   0  0  0  0  0  0  0  0  0  0  0  0
    0.3647    4.9068    7.9951 H   0  0  0  0  0  0  0  0  0  0  0  0
   -2.2954    4.9932    8.2404 H   0  0  0  0  0  0  0  0  0  0  0  0
   -3.2432    3.8180    7.2565 H   0  0  0  0  0  0  0  0  0  0  0  0
   -1.6627    3.1299    9.8272 H   0  0  0  0  0  0  0  0  0  0  0  0
   -2.6404    1.9669    8.8268 H   0  0  0  0  0  0  0  0  0  0  0  0
   -3.4539    3.3330    9.6866 H   0  0  0  0  0  0  0  0  0  0  0  0
    5.3072    2.4174    4.7271 H   0  0  0  0  0  0  0  0  0  0  0  0
    6.4950    2.4090    7.0192 H   0  0  0  0  0  0  0  0  0  0  0  0
    5.7240    2.3268    9.6378 H   0  0  0  0  0  0  0  0  0  0  0  0
    4.2022    1.4308    9.9976 H   0  0  0  0  0  0  0  0  0  0  0  0
    6.2352    0.1005   10.5827 H   0  0  0  0  0  0  0  0  0  0  0  0
    5.2798   -0.7140    9.2864 H   0  0  0  0  0  0  0  0  0  0  0  0
    6.7979    0.1780    8.8677 H   0  0  0  0  0  0  0  0  0  0  0  0
    9.7524   -0.0912    0.2359 H   0  0  0  0  0  0  0  0  0  0  0  0
    8.6806   -0.2466    1.6489 H   0  0  0  0  0  0  0  0  0  0  0  0
    8.9131   -2.7285    1.6161 H   0  0  0  0  0  0  0  0  0  0  0  0
   10.5145   -1.9191    1.7572 H   0  0  0  0  0  0  0  0  0  0  0  0
   10.0070   -2.6188    0.1693 H   0  0  0  0  0  0  0  0  0  0  0  0
    2.0315   -1.7928   -2.5194 H   0  0  0  0  0  0  0  0  0  0  0  0
    3.7189   -1.8151   -2.6793 H   0  0  0  0  0  0  0  0  0  0  0  0
    2.6556   -0.1413   -4.2626 H   0  0  0  0  0  0  0  0  0  0  0  0
    2.2699    0.8980   -2.8213 H   0  0  0  0  0  0  0  0  0  0  0  0
    3.9852    0.5211   -3.2314 H   0  0  0  0  0  0  0  0  0  0  0  0
   -1.2339   -0.5093   -2.7231 H   0  0  0  0  0  0  0  0  0  0  0  0
    0.4463   -0.5239   -2.8595 H   0  0  0  0  0  0  0  0  0  0  0  0
   -1.4410   -2.5513   -1.4539 H   0  0  0  0  0  0  0  0  0  0  0  0
    0.3446   -2.6908   -1.2372 H   0  0  0  0  0  0  0  0  0  0  0  0
   -0.3871   -2.8760   -2.8836 H   0  0  0  0  0  0  0  0  0  0  0  0
    9.9730   -0.7911   -1.9490 H   0  0  0  0  0  0  0  0  0  0  0  0
    7.1185   -3.5120   -6.8094 H   0  0  0  0  0  0  0  0  0  0  0  0
   11.6939   -1.5588   -7.1250 H   0  0  0  0  0  0  0  0  0  0  0  0
  1  2  2  3
  2  3  1  0
  3  4  2  0
  3  5  1  0
  5  6  2  0
  6  7  1  0
  7  8  2  0
  8  9  1  0
  9 10  2  0
 10 11  1  0
 11 12  2  3
 12 13  1  0
 13 14  3  0
 12 15  1  0
 15 16  3  0
  8 17  1  0
 17 18  1  0
 18 19  1  0
 19 20  2  0
 20 21  1  0
 21 22  1  0
 21 23  1  0
  1 24  1  0
 24 25  2  0
 25 26  1  0
 26 27  1  0
 25 28  1  0
 28 29  1  0
 29 30  1  0
 30 31  1  0
 31 32  2  0
 32 33  1  0
 33 34  2  0
 34 35  1  0
 35 36  2  0
 36 37  1  0
 37 38  2  0
 38 39  1  0
 39 40  1  0
 38 41  1  0
 34 42  1  0
 42 43  1  0
 43 44  2  0
 44 45  1  0
 45 46  2  0
 46 47  1  0
 47 48  1  0
 46 49  1  0
 42 50  2  0
 50 51  1  0
 51 52  2  0
 52 53  1  0
 53 54  1  0
 54 55  1  0
 55 56  1  0
 56 57  1  0
 57 58  1  0
 56 59  2  0
 59 60  1  0
 60 61  1  0
 61 62  1  0
 62 63  1  0
 63 64  1  0
 64 65  1  0
 63 66  1  0
 66 67  2  0
 67 68  1  0
 68 69  1  0
 69 70  1  0
 70 71  1  0
 68 72  1  0
 72 73  1  0
 59 74  1  0
 74 75  2  3
 75 76  1  0
 76 77  2  0
 76 78  1  0
 78 79  2  0
 79 80  1  0
 80 81  1  0
 80 82  2  0
 82 83  1  0
 82 84  1  0
 84 85  2  0
 85 86  1  0
 86 87  2  3
 87 88  1  0
 88 89  3  0
 87 90  1  0
 90 91  3  0
 11  2  1  0
 23 17  1  0
 71 24  1  0
 86 75  1  0
 10  5  1  0
 22 18  1  0
 70 28  2  0
 85 78  1  0
 23  7  1  0
 69 30  2  0
 67 31  1  0
 51 32  1  0
 66 52  1  0
 41 35  1  0
 49 43  1  0
 62 53  2  0
 61 55  2  0
  1 92  1  0
  6 93  1  0
  9 94  1  0
 17 95  1  0
 18 96  1  0
 19 97  1  0
 20 98  1  0
 21 99  1  0
 22100  1  0
 22101  1  0
 23102  1  0
 26103  1  0
 26104  1  0
 27105  1  0
 27106  1  0
 27107  1  0
 36108  1  0
 37109  1  0
 39110  1  0
 39111  1  0
 40112  1  0
 40113  1  0
 40114  1  0
 44115  1  0
 45116  1  0
 47117  1  0
 47118  1  0
 48119  1  0
 48120  1  0
 48121  1  0
 57122  1  0
 57123  1  0
 58124  1  0
 58125  1  0
 58126  1  0
 64127  1  0
 64128  1  0
 65129  1  0
 65130  1  0
 65131  1  0
 72132  1  0
 72133  1  0
 73134  1  0
 73135  1  0
 73136  1  0
 74137  1  0
 79138  1  0
 84139  1  0
M  END

