
     RDKit          3D

110124  0  0  0  0  0  0  0  0999 V2000
   -1.5611    2.3274    6.0837 C   0  0  0  0  0  0  0  0  0  0  0  0
   -2.2517    1.1987    5.8864 C   0  0  0  0  0  0  0  0  0  0  0  0
   -1.9907    0.1100    4.9920 C   0  0  0  0  0  0  0  0  0  0  0  0
   -1.0410   -0.0417    4.1744 O   0  0  0  0  0  0  0  0  0  0  0  0
   -3.0456   -0.9290    5.1243 C   0  0  0  0  0  0  0  0  0  0  0  0
   -3.1625   -2.1002    4.4138 C   0  0  0  0  0  0  0  0  0  0  0  0
   -4.2426   -2.8943    4.6633 C   0  0  0  0  0  0  0  0  0  0  0  0
   -5.1859   -2.5419    5.5814 C   0  0  0  0  0  0  0  0  0  0  0  0
   -5.0137   -1.3271    6.2809 C   0  0  0  0  0  0  0  0  0  0  0  0
   -3.9337   -0.5088    6.0603 C   0  0  0  0  0  0  0  0  0  0  0  0
   -3.5061    0.8423    6.6061 C   0  0  0  0  0  0  0  0  0  0  0  0
   -4.1740    1.5253    7.3587 C   0  0  0  0  0  0  0  0  0  0  0  0
   -4.1794    2.9048    7.9283 C   0  0  0  0  0  0  0  0  0  0  0  0
   -4.1800    3.8433    8.2973 N   0  0  0  0  0  0  0  0  0  0  0  0
   -5.0987    0.6917    8.3700 C   0  0  0  0  0  0  0  0  0  0  0  0
   -5.6686    0.1789    9.0148 N   0  0  0  0  0  0  0  0  0  0  0  0
   -6.0480   -3.7083    5.3706 C   0  0  0  0  0  0  0  0  0  0  0  0
   -7.2395   -3.4976    4.5038 C   0  0  0  0  0  0  0  0  0  0  0  0
   -6.9759   -2.4041    3.5472 C   0  0  0  0  0  0  0  0  0  0  0  0
   -6.0903   -2.8831    2.6757 C   0  0  0  0  0  0  0  0  0  0  0  0
   -5.6843   -4.2354    3.0956 C   0  0  0  0  0  0  0  0  0  0  0  0
   -7.0488   -4.7191    3.5732 C   0  0  0  0  0  0  0  0  0  0  0  0
   -4.9539   -4.1450    4.3823 C   0  0  0  0  0  0  0  0  0  0  0  0
   -0.3490    2.5900    5.3297 C   0  0  0  0  0  0  0  0  0  0  0  0
    0.4355    3.6755    5.1602 C   0  0  0  0  0  0  0  0  0  0  0  0
    0.1200    4.9675    5.8964 C   0  0  0  0  0  0  0  0  0  0  0  0
   -1.1205    5.6084    5.3318 C   0  0  0  0  0  0  0  0  0  0  0  0
    1.4938    3.5516    4.3283 C   0  0  0  0  0  0  0  0  0  0  0  0
    2.9041    4.6850    3.6321 Se  0  0  0  0  0  2  0  0  0  0  0  0
    3.5884    3.1217    2.4802 C   0  0  0  0  0  0  0  0  0  0  0  0
    4.3987    3.0349    1.3516 C   0  0  0  0  0  0  0  0  0  0  0  0
    5.2550    3.8399    0.6369 C   0  0  0  0  0  0  0  0  0  0  0  0
    5.6136    3.4892   -0.6337 C   0  0  0  0  0  0  0  0  0  0  0  0
    6.4764    4.3008   -1.2513 N   0  0  0  0  0  0  0  0  0  0  0  0
    6.7902    5.5000   -0.1386 S   0  0  0  0  0  0  0  0  0  0  0  0
    5.8185    4.9613    1.1084 N   0  0  0  0  0  0  0  0  0  0  0  0
    5.0846    2.3093   -1.1500 C   0  0  0  0  0  0  0  0  0  0  0  0
    4.9957    1.7964   -2.4241 C   0  0  0  0  0  0  0  0  0  0  0  0
    5.4564    2.2064   -4.3175 Se  0  0  0  0  0  2  0  0  0  0  0  0
    4.2978    0.6899   -4.9112 C   0  0  0  0  0  0  0  0  0  0  0  0
    3.8090    0.2519   -6.1221 C   0  0  0  0  0  0  0  0  0  0  0  0
    4.3915    0.7684   -7.4133 C   0  0  0  0  0  0  0  0  0  0  0  0
    4.0401    2.2233   -7.6465 C   0  0  0  0  0  0  0  0  0  0  0  0
    2.8589   -0.6632   -6.1018 C   0  0  0  0  0  0  0  0  0  0  0  0
    2.6922   -0.9132   -4.3549 S   0  0  0  0  0  0  0  0  0  0  0  0
    3.8859    0.2501   -3.7871 C   0  0  0  0  0  0  0  0  0  0  0  0
    4.2068    0.7627   -2.5347 C   0  0  0  0  0  0  0  0  0  0  0  0
    3.7366    0.5169   -1.2116 N   0  0  0  0  0  0  0  0  0  0  0  0
    4.2473    1.4617   -0.4288 C   0  0  0  0  0  0  0  0  0  0  0  0
    3.8743    1.8284    0.8752 C   0  0  0  0  0  0  0  0  0  0  0  0
    2.9218    1.3920    1.7237 N   0  0  0  0  0  0  0  0  0  0  0  0
    2.8823    2.5250    2.8357 C   0  0  0  0  0  0  0  0  0  0  0  0
    1.7181    2.3071    3.6926 C   0  0  0  0  0  0  0  0  0  0  0  0
    0.4304    1.4681    4.3251 S   0  0  0  0  0  0  0  0  0  0  0  0
    2.0928    0.2790    1.6942 C   0  0  0  0  0  0  0  0  0  0  0  0
    2.6294   -0.9527    2.3519 C   0  0  0  0  0  0  0  0  0  0  0  0
    3.1074   -0.7236   -0.9044 C   0  0  0  0  0  0  0  0  0  0  0  0
    4.2493   -1.7850   -0.6203 C   0  0  0  0  0  0  0  0  0  0  0  0
    1.8211   -1.4233   -6.7848 C   0  0  0  0  0  0  0  0  0  0  0  0
    0.8495   -1.0303   -7.6009 C   0  0  0  0  0  0  0  0  0  0  0  0
    0.4631    0.2258   -8.1690 C   0  0  0  0  0  0  0  0  0  0  0  0
    1.2806    1.1679   -8.4370 O   0  0  0  0  0  0  0  0  0  0  0  0
   -0.9701    0.2872   -8.3999 C   0  0  0  0  0  0  0  0  0  0  0  0
   -1.7521    1.3205   -8.9417 C   0  0  0  0  0  0  0  0  0  0  0  0
   -3.1299    1.1573   -9.0885 C   0  0  0  0  0  0  0  0  0  0  0  0
   -4.1464    2.4249   -9.7534 Cl  0  0  0  0  0  0  0  0  0  0  0  0
   -3.6771   -0.0062   -8.6959 C   0  0  0  0  0  0  0  0  0  0  0  0
   -2.9072   -1.0267   -8.1585 C   0  0  0  0  0  0  0  0  0  0  0  0
   -1.5202   -0.8820   -7.9986 C   0  0  0  0  0  0  0  0  0  0  0  0
   -0.4822   -1.7740   -7.4826 C   0  0  0  0  0  0  0  0  0  0  0  0
   -0.6737   -2.9719   -7.0186 C   0  0  0  0  0  0  0  0  0  0  0  0
    0.0830   -4.0216   -6.5391 C   0  0  0  0  0  0  0  0  0  0  0  0
    0.6825   -4.8662   -6.1739 N   0  0  0  0  0  0  0  0  0  0  0  0
   -2.0324   -2.7575   -6.1319 C   0  0  0  0  0  0  0  0  0  0  0  0
   -2.9575   -2.6308   -5.5297 N   0  0  0  0  0  0  0  0  0  0  0  0
   -1.9058    3.0366    6.8106 H   0  0  0  0  0  0  0  0  0  0  0  0
   -2.4079   -2.3719    3.6870 H   0  0  0  0  0  0  0  0  0  0  0  0
   -5.7788   -1.0452    6.9682 H   0  0  0  0  0  0  0  0  0  0  0  0
   -6.1725   -4.4011    6.2280 H   0  0  0  0  0  0  0  0  0  0  0  0
   -8.2040   -3.4890    4.9752 H   0  0  0  0  0  0  0  0  0  0  0  0
   -7.4474   -1.4535    3.5749 H   0  0  0  0  0  0  0  0  0  0  0  0
   -5.6923   -2.3735    1.8096 H   0  0  0  0  0  0  0  0  0  0  0  0
   -5.2490   -4.8661    2.3331 H   0  0  0  0  0  0  0  0  0  0  0  0
   -7.7895   -4.7667    2.7822 H   0  0  0  0  0  0  0  0  0  0  0  0
   -6.9439   -5.6151    4.2170 H   0  0  0  0  0  0  0  0  0  0  0  0
   -4.4288   -5.0790    4.6986 H   0  0  0  0  0  0  0  0  0  0  0  0
   -0.0436    4.7818    6.9505 H   0  0  0  0  0  0  0  0  0  0  0  0
    0.9313    5.6854    5.6958 H   0  0  0  0  0  0  0  0  0  0  0  0
   -1.3903    5.2921    4.3411 H   0  0  0  0  0  0  0  0  0  0  0  0
   -1.9755    5.2940    5.9931 H   0  0  0  0  0  0  0  0  0  0  0  0
   -1.0420    6.7074    5.4850 H   0  0  0  0  0  0  0  0  0  0  0  0
    5.4911    0.7194   -7.3150 H   0  0  0  0  0  0  0  0  0  0  0  0
    3.9785    0.1929   -8.2681 H   0  0  0  0  0  0  0  0  0  0  0  0
    4.9278    2.8907   -7.5808 H   0  0  0  0  0  0  0  0  0  0  0  0
    3.2451    2.5334   -6.9168 H   0  0  0  0  0  0  0  0  0  0  0  0
    3.6505    2.3259   -8.6549 H   0  0  0  0  0  0  0  0  0  0  0  0
    1.4817    0.1824    0.7589 H   0  0  0  0  0  0  0  0  0  0  0  0
    1.1238    0.4113    2.3372 H   0  0  0  0  0  0  0  0  0  0  0  0
    3.7277   -1.0080    2.2516 H   0  0  0  0  0  0  0  0  0  0  0  0
    2.2335   -1.9079    1.9296 H   0  0  0  0  0  0  0  0  0  0  0  0
    2.4224   -0.9806    3.4480 H   0  0  0  0  0  0  0  0  0  0  0  0
    2.4433   -0.9139   -0.1887 H   0  0  0  0  0  0  0  0  0  0  0  0
    2.6386   -1.1708   -1.8874 H   0  0  0  0  0  0  0  0  0  0  0  0
    4.8960   -1.8685   -1.4920 H   0  0  0  0  0  0  0  0  0  0  0  0
    4.8358   -1.3258    0.1919 H   0  0  0  0  0  0  0  0  0  0  0  0
    3.7008   -2.6807   -0.3505 H   0  0  0  0  0  0  0  0  0  0  0  0
    1.8655   -2.5286   -6.6550 H   0  0  0  0  0  0  0  0  0  0  0  0
   -1.3313    2.2526   -9.2507 H   0  0  0  0  0  0  0  0  0  0  0  0
   -4.7665   -0.1608   -8.8063 H   0  0  0  0  0  0  0  0  0  0  0  0
   -3.4225   -1.9160   -7.9220 H   0  0  0  0  0  0  0  0  0  0  0  0
  1  2  2  3
  2  3  1  0
  3  4  2  0
  3  5  1  0
  5  6  2  0
  6  7  1  0
  7  8  2  0
  8  9  1  0
  9 10  2  0
 10 11  1  0
 11 12  2  3
 12 13  1  0
 13 14  3  0
 12 15  1  0
 15 16  3  0
  8 17  1  0
 17 18  1  0
 18 19  1  0
 19 20  2  0
 20 21  1  0
 21 22  1  0
 21 23  1  0
  1 24  1  0
 24 25  2  0
 25 26  1  0
 26 27  1  0
 25 28  1  0
 28 29  1  0
 29 30  1  0
 30 31  1  0
 31 32  1  0
 32 33  1  0
 33 34  2  0
 34 35  1  0
 35 36  1  0
 33 37  1  0
 37 38  1  0
 38 39  1  0
 39 40  1  0
 40 41  1  0
 41 42  1  0
 42 43  1  0
 41 44  2  0
 44 45  1  0
 45 46  1  0
 46 47  1  0
 47 48  1  0
 48 49  1  0
 49 50  1  0
 50 51  1  0
 51 52  1  0
 52 53  1  0
 53 54  1  0
 51 55  1  0
 55 56  1  0
 48 57  1  0
 57 58  1  0
 44 59  1  0
 59 60  2  3
 60 61  1  0
 61 62  2  0
 61 63  1  0
 63 64  2  0
 64 65  1  0
 65 66  1  0
 65 67  2  0
 67 68  1  0
 68 69  2  0
 69 70  1  0
 70 71  2  3
 71 72  1  0
 72 73  3  0
 71 74  1  0
 74 75  3  0
 11  2  1  0
 23 17  1  0
 54 24  1  0
 70 60  1  0
 10  5  1  0
 22 18  1  0
 53 28  2  0
 69 63  1  0
 23  7  1  0
 52 30  2  0
 50 31  2  0
 36 32  2  0
 49 37  2  0
 47 38  2  0
 46 40  2  0
  1 76  1  0
  6 77  1  0
  9 78  1  0
 17 79  1  0
 18 80  1  0
 19 81  1  0
 20 82  1  0
 21 83  1  0
 22 84  1  0
 22 85  1  0
 23 86  1  0
 26 87  1  0
 26 88  1  0
 27 89  1  0
 27 90  1  0
 27 91  1  0
 42 92  1  0
 42 93  1  0
 43 94  1  0
 43 95  1  0
 43 96  1  0
 55 97  1  0
 55 98  1  0
 56 99  1  0
 56100  1  0
 56101  1  0
 57102  1  0
 57103  1  0
 58104  1  0
 58105  1  0
 58106  1  0
 59107  1  0
 64108  1  0
 67109  1  0
 68110  1  0
M  END

