
     RDKit          3D

131146  0  0  0  0  0  0  0  0999 V2000
    5.2559   -3.8167   -1.6386 C   0  0  0  0  0  0  0  0  0  0  0  0
    4.4161   -3.5828   -2.6683 C   0  0  0  0  0  0  0  0  0  0  0  0
    3.2796   -2.6522   -2.6340 C   0  0  0  0  0  0  0  0  0  0  0  0
    3.1264   -1.6852   -1.8362 O   0  0  0  0  0  0  0  0  0  0  0  0
    2.3385   -3.0291   -3.6648 C   0  0  0  0  0  0  0  0  0  0  0  0
    1.0407   -2.5043   -3.8655 C   0  0  0  0  0  0  0  0  0  0  0  0
    0.3008   -3.1901   -4.8107 C   0  0  0  0  0  0  0  0  0  0  0  0
    0.7978   -4.3341   -5.5136 C   0  0  0  0  0  0  0  0  0  0  0  0
    2.0717   -4.8459   -5.3301 C   0  0  0  0  0  0  0  0  0  0  0  0
    2.8632   -4.1331   -4.3847 C   0  0  0  0  0  0  0  0  0  0  0  0
    4.2380   -4.4288   -3.8845 C   0  0  0  0  0  0  0  0  0  0  0  0
    5.1792   -5.1961   -4.4984 C   0  0  0  0  0  0  0  0  0  0  0  0
    6.5409   -5.2564   -4.0328 C   0  0  0  0  0  0  0  0  0  0  0  0
    7.6389   -5.3064   -3.6679 N   0  0  0  0  0  0  0  0  0  0  0  0
    4.9404   -5.8684   -5.7470 C   0  0  0  0  0  0  0  0  0  0  0  0
    4.7685   -6.4097   -6.7547 N   0  0  0  0  0  0  0  0  0  0  0  0
   -0.5211   -4.5027   -6.2088 C   0  0  0  0  0  0  0  0  0  0  0  0
   -0.5805   -4.0827   -7.7071 C   0  0  0  0  0  0  0  0  0  0  0  0
   -2.0479   -3.9666   -8.0461 C   0  0  0  0  0  0  0  0  0  0  0  0
   -2.5015   -2.8851   -7.4018 C   0  0  0  0  0  0  0  0  0  0  0  0
   -1.3248   -2.3102   -6.6469 C   0  0  0  0  0  0  0  0  0  0  0  0
   -0.2322   -2.6039   -7.6631 C   0  0  0  0  0  0  0  0  0  0  0  0
   -1.0247   -3.3210   -5.4985 C   0  0  0  0  0  0  0  0  0  0  0  0
    5.0539   -3.1977   -0.3207 C   0  0  0  0  0  0  0  0  0  0  0  0
    5.6073   -1.9367   -0.0205 C   0  0  0  0  0  0  0  0  0  0  0  0
    5.2356   -1.2587    1.1494 C   0  0  0  0  0  0  0  0  0  0  0  0
    4.3082   -1.8665    2.0039 C   0  0  0  0  0  0  0  0  0  0  0  0
    3.5672   -1.3873    3.0775 C   0  0  0  0  0  0  0  0  0  0  0  0
    2.6650   -2.3620    3.3876 C   0  0  0  0  0  0  0  0  0  0  0  0
    2.7961   -3.4598    2.5994 N   0  0  0  0  0  0  0  0  0  0  0  0
    3.8050   -3.1358    1.7436 C   0  0  0  0  0  0  0  0  0  0  0  0
    4.1753   -3.8215    0.5801 C   0  0  0  0  0  0  0  0  0  0  0  0
    1.9555   -4.6653    2.5664 C   0  0  0  0  0  0  0  0  0  0  0  0
    1.9621   -5.3683    3.9227 C   0  0  0  0  0  0  0  0  0  0  0  0
    1.5509   -1.7146    3.8943 C   0  0  0  0  0  0  0  0  0  0  0  0
    0.2021   -2.0916    3.9983 C   0  0  0  0  0  0  0  0  0  0  0  0
   -0.7844   -1.1553    4.1354 C   0  0  0  0  0  0  0  0  0  0  0  0
   -1.9713   -1.7747    4.2005 N   0  0  0  0  0  0  0  0  0  0  0  0
   -1.6781   -3.0682    4.0973 N   0  0  0  0  0  0  0  0  0  0  0  0
   -2.6849   -4.1205    4.0441 C   0  0  0  0  0  0  0  0  0  0  0  0
   -3.1678   -4.3121    2.6114 C   0  0  0  0  0  0  0  0  0  0  0  0
   -0.3751   -3.2998    3.9616 N   0  0  0  0  0  0  0  0  0  0  0  0
   -0.4692    0.1969    4.2349 C   0  0  0  0  0  0  0  0  0  0  0  0
    0.8706    0.6058    4.2403 C   0  0  0  0  0  0  0  0  0  0  0  0
    1.8953   -0.3463    3.9511 C   0  0  0  0  0  0  0  0  0  0  0  0
    3.1264   -0.1337    3.3788 N   0  0  0  0  0  0  0  0  0  0  0  0
    3.5875    1.0861    2.6949 C   0  0  0  0  0  0  0  0  0  0  0  0
    4.9448    1.5475    3.2386 C   0  0  0  0  0  0  0  0  0  0  0  0
    0.9629    1.9495    4.4636 N   0  0  0  0  0  0  0  0  0  0  0  0
    2.0704    2.6413    5.1364 C   0  0  0  0  0  0  0  0  0  0  0  0
    1.6721    3.1146    6.5343 C   0  0  0  0  0  0  0  0  0  0  0  0
   -0.3286    2.3635    4.5044 C   0  0  0  0  0  0  0  0  0  0  0  0
   -1.2201    1.3469    4.3589 C   0  0  0  0  0  0  0  0  0  0  0  0
   -2.3496    1.7432    3.7203 N   0  0  0  0  0  0  0  0  0  0  0  0
   -3.4197    0.8951    3.1793 C   0  0  0  0  0  0  0  0  0  0  0  0
   -4.4028    0.5219    4.2819 C   0  0  0  0  0  0  0  0  0  0  0  0
   -2.1531    3.0724    3.4914 C   0  0  0  0  0  0  0  0  0  0  0  0
   -0.9021    3.4780    3.9365 C   0  0  0  0  0  0  0  0  0  0  0  0
   -0.3617    4.7172    3.5985 C   0  0  0  0  0  0  0  0  0  0  0  0
   -1.1436    5.5856    2.8161 C   0  0  0  0  0  0  0  0  0  0  0  0
   -2.4144    5.1823    2.3438 C   0  0  0  0  0  0  0  0  0  0  0  0
   -2.9419    3.9268    2.7125 C   0  0  0  0  0  0  0  0  0  0  0  0
   -3.1657    6.0647    1.4310 C   0  0  0  0  0  0  0  0  0  0  0  0
   -3.5734    5.6870    0.2015 C   0  0  0  0  0  0  0  0  0  0  0  0
   -3.1177    4.4917   -0.5245 C   0  0  0  0  0  0  0  0  0  0  0  0
   -2.4185    3.5490   -0.0657 O   0  0  0  0  0  0  0  0  0  0  0  0
   -3.5047    4.6230   -1.9111 C   0  0  0  0  0  0  0  0  0  0  0  0
   -3.2176    3.7544   -2.9646 C   0  0  0  0  0  0  0  0  0  0  0  0
   -3.6247    4.1106   -4.2618 C   0  0  0  0  0  0  0  0  0  0  0  0
   -3.3755    3.2586   -5.3482 C   0  0  0  0  0  0  0  0  0  0  0  0
   -3.7906    3.6177   -6.6327 C   0  0  0  0  0  0  0  0  0  0  0  0
   -4.4407    4.8361   -6.8491 C   0  0  0  0  0  0  0  0  0  0  0  0
   -4.8480    5.1770   -8.0950 F   0  0  0  0  0  0  0  0  0  0  0  0
   -4.6815    5.7041   -5.7804 C   0  0  0  0  0  0  0  0  0  0  0  0
   -4.2881    5.3513   -4.4793 C   0  0  0  0  0  0  0  0  0  0  0  0
   -4.5494    6.2123   -3.3940 C   0  0  0  0  0  0  0  0  0  0  0  0
   -4.1787    5.8181   -2.0971 C   0  0  0  0  0  0  0  0  0  0  0  0
   -4.3500    6.5057   -0.7827 C   0  0  0  0  0  0  0  0  0  0  0  0
   -5.2328    7.4999   -0.4963 C   0  0  0  0  0  0  0  0  0  0  0  0
   -5.5159    7.9151    0.8536 C   0  0  0  0  0  0  0  0  0  0  0  0
   -5.7561    8.2517    1.9365 N   0  0  0  0  0  0  0  0  0  0  0  0
   -6.0688    8.1092   -1.4957 C   0  0  0  0  0  0  0  0  0  0  0  0
   -6.7534    8.6015   -2.2917 N   0  0  0  0  0  0  0  0  0  0  0  0
    5.9335   -4.6545   -1.6638 H   0  0  0  0  0  0  0  0  0  0  0  0
    0.6334   -1.6858   -3.2892 H   0  0  0  0  0  0  0  0  0  0  0  0
    2.3806   -5.7451   -5.8373 H   0  0  0  0  0  0  0  0  0  0  0  0
   -1.0430   -5.4524   -5.9494 H   0  0  0  0  0  0  0  0  0  0  0  0
    0.0234   -4.7007   -8.4016 H   0  0  0  0  0  0  0  0  0  0  0  0
   -2.6143   -4.5726   -8.7467 H   0  0  0  0  0  0  0  0  0  0  0  0
   -3.4961   -2.4611   -7.4905 H   0  0  0  0  0  0  0  0  0  0  0  0
   -1.4321   -1.2484   -6.3407 H   0  0  0  0  0  0  0  0  0  0  0  0
    0.7960   -2.3856   -7.3004 H   0  0  0  0  0  0  0  0  0  0  0  0
   -0.3836   -2.0862   -8.6423 H   0  0  0  0  0  0  0  0  0  0  0  0
   -1.8696   -3.5242   -4.8049 H   0  0  0  0  0  0  0  0  0  0  0  0
    6.2755   -1.4542   -0.7230 H   0  0  0  0  0  0  0  0  0  0  0  0
    5.6468   -0.2832    1.3450 H   0  0  0  0  0  0  0  0  0  0  0  0
    3.7317   -4.7701    0.3093 H   0  0  0  0  0  0  0  0  0  0  0  0
    2.3338   -5.3974    1.8286 H   0  0  0  0  0  0  0  0  0  0  0  0
    0.9314   -4.4065    2.2358 H   0  0  0  0  0  0  0  0  0  0  0  0
    1.6672   -4.6768    4.7361 H   0  0  0  0  0  0  0  0  0  0  0  0
    1.2488   -6.2183    3.8997 H   0  0  0  0  0  0  0  0  0  0  0  0
    2.9801   -5.7530    4.1427 H   0  0  0  0  0  0  0  0  0  0  0  0
   -2.2493   -5.0721    4.4180 H   0  0  0  0  0  0  0  0  0  0  0  0
   -3.5442   -3.8477    4.6954 H   0  0  0  0  0  0  0  0  0  0  0  0
   -3.8870   -5.1530    2.5723 H   0  0  0  0  0  0  0  0  0  0  0  0
   -2.3077   -4.5405    1.9460 H   0  0  0  0  0  0  0  0  0  0  0  0
   -3.6697   -3.3926    2.2500 H   0  0  0  0  0  0  0  0  0  0  0  0
    3.6671    0.8929    1.6032 H   0  0  0  0  0  0  0  0  0  0  0  0
    2.8518    1.9074    2.7690 H   0  0  0  0  0  0  0  0  0  0  0  0
    4.8216    2.1734    4.1433 H   0  0  0  0  0  0  0  0  0  0  0  0
    5.4612    2.1552    2.4691 H   0  0  0  0  0  0  0  0  0  0  0  0
    5.5836    0.6794    3.5009 H   0  0  0  0  0  0  0  0  0  0  0  0
    2.4043    3.5095    4.5298 H   0  0  0  0  0  0  0  0  0  0  0  0
    2.9206    1.9453    5.2701 H   0  0  0  0  0  0  0  0  0  0  0  0
    1.2998    2.2593    7.1353 H   0  0  0  0  0  0  0  0  0  0  0  0
    2.5539    3.5563    7.0474 H   0  0  0  0  0  0  0  0  0  0  0  0
    0.8843    3.8910    6.4722 H   0  0  0  0  0  0  0  0  0  0  0  0
   -3.9685    1.4122    2.3702 H   0  0  0  0  0  0  0  0  0  0  0  0
   -2.9881   -0.0138    2.7151 H   0  0  0  0  0  0  0  0  0  0  0  0
   -4.8442    1.4409    4.7211 H   0  0  0  0  0  0  0  0  0  0  0  0
   -5.2154   -0.1011    3.8589 H   0  0  0  0  0  0  0  0  0  0  0  0
   -3.8900   -0.0499    5.0842 H   0  0  0  0  0  0  0  0  0  0  0  0
    0.6339    5.0054    3.9080 H   0  0  0  0  0  0  0  0  0  0  0  0
   -0.7393    6.5493    2.5295 H   0  0  0  0  0  0  0  0  0  0  0  0
   -3.9132    3.6238    2.3487 H   0  0  0  0  0  0  0  0  0  0  0  0
   -3.3073    7.0817    1.7604 H   0  0  0  0  0  0  0  0  0  0  0  0
   -2.6842    2.8287   -2.7783 H   0  0  0  0  0  0  0  0  0  0  0  0
   -2.8693    2.3116   -5.2008 H   0  0  0  0  0  0  0  0  0  0  0  0
   -3.6080    2.9501   -7.4637 H   0  0  0  0  0  0  0  0  0  0  0  0
   -5.1854    6.6454   -5.9689 H   0  0  0  0  0  0  0  0  0  0  0  0
   -5.0014    7.1714   -3.5857 H   0  0  0  0  0  0  0  0  0  0  0  0
  1  2  2  3
  2  3  1  0
  3  4  2  0
  3  5  1  0
  5  6  2  0
  6  7  1  0
  7  8  2  0
  8  9  1  0
  9 10  2  0
 10 11  1  0
 11 12  2  3
 12 13  1  0
 13 14  3  0
 12 15  1  0
 15 16  3  0
  8 17  1  0
 17 18  1  0
 18 19  1  0
 19 20  2  0
 20 21  1  0
 21 22  1  0
 21 23  1  0
  1 24  1  0
 24 25  2  0
 25 26  1  0
 26 27  2  0
 27 28  1  0
 28 29  2  0
 29 30  1  0
 30 31  1  0
 31 32  2  0
 30 33  1  0
 33 34  1  0
 29 35  1  0
 35 36  1  0
 36 37  1  0
 37 38  2  0
 38 39  1  0
 39 40  1  0
 40 41  1  0
 39 42  1  0
 37 43  1  0
 43 44  2  0
 44 45  1  0
 45 46  1  0
 46 47  1  0
 47 48  1  0
 44 49  1  0
 49 50  1  0
 50 51  1  0
 49 52  1  0
 52 53  2  0
 53 54  1  0
 54 55  1  0
 55 56  1  0
 54 57  1  0
 57 58  2  0
 58 59  1  0
 59 60  2  0
 60 61  1  0
 61 62  2  0
 61 63  1  0
 63 64  2  3
 64 65  1  0
 65 66  2  0
 65 67  1  0
 67 68  2  0
 68 69  1  0
 69 70  2  0
 70 71  1  0
 71 72  2  0
 72 73  1  0
 72 74  1  0
 74 75  2  0
 75 76  1  0
 76 77  2  0
 77 78  1  0
 78 79  2  3
 79 80  1  0
 80 81  3  0
 79 82  1  0
 82 83  3  0
 11  2  1  0
 23 17  1  0
 32 24  1  0
 45 35  2  0
 58 52  1  0
 78 64  1  0
 10  5  1  0
 22 18  1  0
 31 27  1  0
 42 36  2  0
 53 43  1  0
 62 57  1  0
 77 67  1  0
 23  7  1  0
 46 28  1  0
 75 69  1  0
  1 84  1  0
  6 85  1  0
  9 86  1  0
 17 87  1  0
 18 88  1  0
 19 89  1  0
 20 90  1  0
 21 91  1  0
 22 92  1  0
 22 93  1  0
 23 94  1  0
 25 95  1  0
 26 96  1  0
 32 97  1  0
 33 98  1  0
 33 99  1  0
 34100  1  0
 34101  1  0
 34102  1  0
 40103  1  0
 40104  1  0
 41105  1  0
 41106  1  0
 41107  1  0
 47108  1  0
 47109  1  0
 48110  1  0
 48111  1  0
 48112  1  0
 50113  1  0
 50114  1  0
 51115  1  0
 51116  1  0
 51117  1  0
 55118  1  0
 55119  1  0
 56120  1  0
 56121  1  0
 56122  1  0
 59123  1  0
 60124  1  0
 62125  1  0
 63126  1  0
 68127  1  0
 70128  1  0
 71129  1  0
 74130  1  0
 76131  1  0
M  END

