
     RDKit          3D

114128  0  0  0  0  0  0  0  0999 V2000
    5.4147    1.5490   -0.0563 C   0  0  0  0  0  0  0  0  0  0  0  0
    6.0644    1.4745    1.1251 C   0  0  0  0  0  0  0  0  0  0  0  0
    6.5538    0.2329    1.7227 C   0  0  0  0  0  0  0  0  0  0  0  0
    6.3462   -0.9339    1.3009 O   0  0  0  0  0  0  0  0  0  0  0  0
    7.3743    0.5675    2.8866 C   0  0  0  0  0  0  0  0  0  0  0  0
    8.0673   -0.3422    3.7284 C   0  0  0  0  0  0  0  0  0  0  0  0
    8.6024    0.2635    4.8466 C   0  0  0  0  0  0  0  0  0  0  0  0
    8.4632    1.6682    5.1405 C   0  0  0  0  0  0  0  0  0  0  0  0
    7.8216    2.5644    4.2982 C   0  0  0  0  0  0  0  0  0  0  0  0
    7.3380    1.9823    3.0891 C   0  0  0  0  0  0  0  0  0  0  0  0
    6.5172    2.6044    2.0117 C   0  0  0  0  0  0  0  0  0  0  0  0
    6.1445    3.8934    1.9213 C   0  0  0  0  0  0  0  0  0  0  0  0
    4.9804    4.3122    1.1694 C   0  0  0  0  0  0  0  0  0  0  0  0
    4.0309    4.6528    0.5937 N   0  0  0  0  0  0  0  0  0  0  0  0
    6.8257    4.9462    2.6229 C   0  0  0  0  0  0  0  0  0  0  0  0
    7.3962    5.7798    3.1809 N   0  0  0  0  0  0  0  0  0  0  0  0
    9.1506    1.4686    6.4643 C   0  0  0  0  0  0  0  0  0  0  0  0
    8.2729    1.4452    7.7639 C   0  0  0  0  0  0  0  0  0  0  0  0
    6.8997    0.8956    7.4559 C   0  0  0  0  0  0  0  0  0  0  0  0
    7.0694   -0.3932    7.1530 C   0  0  0  0  0  0  0  0  0  0  0  0
    8.5429   -0.6860    7.2876 C   0  0  0  0  0  0  0  0  0  0  0  0
    8.8524    0.2227    8.4689 C   0  0  0  0  0  0  0  0  0  0  0  0
    9.3231    0.0434    6.1460 C   0  0  0  0  0  0  0  0  0  0  0  0
    4.2855    0.6361   -0.2831 C   0  0  0  0  0  0  0  0  0  0  0  0
    3.0442    0.8838    0.3032 C   0  0  0  0  0  0  0  0  0  0  0  0
    2.2396   -0.1250   -0.1661 C   0  0  0  0  0  0  0  0  0  0  0  0
    2.9239   -0.8518   -1.0566 C   0  0  0  0  0  0  0  0  0  0  0  0
    4.2040   -0.4203   -1.1727 N   0  0  0  0  0  0  0  0  0  0  0  0
    5.2288   -0.8474   -2.1336 C   0  0  0  0  0  0  0  0  0  0  0  0
    5.7607   -2.2383   -1.7852 C   0  0  0  0  0  0  0  0  0  0  0  0
    2.0056   -1.6901   -1.6848 C   0  0  0  0  0  0  0  0  0  0  0  0
    2.0470   -2.5673   -2.7974 C   0  0  0  0  0  0  0  0  0  0  0  0
    0.8438   -3.2805   -3.1583 C   0  0  0  0  0  0  0  0  0  0  0  0
    0.9108   -4.0731   -4.2583 N   0  0  0  0  0  0  0  0  0  0  0  0
    2.4635   -3.7405   -4.7332 S   0  0  0  0  0  0  0  0  0  0  0  0
    3.0980   -2.6877   -3.6222 N   0  0  0  0  0  0  0  0  0  0  0  0
   -0.2973   -3.1117   -2.3680 C   0  0  0  0  0  0  0  0  0  0  0  0
   -1.5676   -3.6366   -2.4370 C   0  0  0  0  0  0  0  0  0  0  0  0
   -2.5325   -4.3158   -3.6385 S   0  0  0  0  0  0  0  0  0  0  0  0
   -3.9503   -3.9304   -2.7786 C   0  0  0  0  0  0  0  0  0  0  0  0
   -5.2622   -3.6627   -3.2222 C   0  0  0  0  0  0  0  0  0  0  0  0
   -5.6994   -3.8437   -4.6440 C   0  0  0  0  0  0  0  0  0  0  0  0
   -4.9793   -2.8669   -5.5999 C   0  0  0  0  0  0  0  0  0  0  0  0
   -6.0074   -2.8806   -2.3019 C   0  0  0  0  0  0  0  0  0  0  0  0
   -5.0410   -2.7192   -0.8730 S   0  0  0  0  0  0  0  0  0  0  0  0
   -3.6569   -3.3775   -1.5535 C   0  0  0  0  0  0  0  0  0  0  0  0
   -2.2912   -3.1471   -1.4037 C   0  0  0  0  0  0  0  0  0  0  0  0
   -1.5740   -2.2281   -0.6944 N   0  0  0  0  0  0  0  0  0  0  0  0
   -0.3448   -2.1936   -1.3081 C   0  0  0  0  0  0  0  0  0  0  0  0
    0.7938   -1.4096   -1.0264 C   0  0  0  0  0  0  0  0  0  0  0  0
    0.9027   -0.3016   -0.2166 N   0  0  0  0  0  0  0  0  0  0  0  0
   -0.0108    0.8510   -0.2847 C   0  0  0  0  0  0  0  0  0  0  0  0
    0.4366    1.8979   -1.3263 C   0  0  0  0  0  0  0  0  0  0  0  0
   -2.0209   -1.5849    0.5629 C   0  0  0  0  0  0  0  0  0  0  0  0
   -3.0682   -0.4694    0.3169 C   0  0  0  0  0  0  0  0  0  0  0  0
   -6.6512   -1.5890   -2.7767 C   0  0  0  0  0  0  0  0  0  0  0  0
   -7.6784   -1.4156   -3.6372 C   0  0  0  0  0  0  0  0  0  0  0  0
   -7.4815   -0.2698   -4.5653 C   0  0  0  0  0  0  0  0  0  0  0  0
   -6.6471   -0.2286   -5.5378 O   0  0  0  0  0  0  0  0  0  0  0  0
   -8.0433    0.9289   -3.9615 C   0  0  0  0  0  0  0  0  0  0  0  0
   -7.5714    2.2250   -3.9964 C   0  0  0  0  0  0  0  0  0  0  0  0
   -8.0430    3.1310   -3.0478 C   0  0  0  0  0  0  0  0  0  0  0  0
   -7.4165    4.3702   -2.8891 C   0  0  0  0  0  0  0  0  0  0  0  0
   -7.7729    5.2167   -1.8282 C   0  0  0  0  0  0  0  0  0  0  0  0
   -8.6804    4.7795   -0.8790 C   0  0  0  0  0  0  0  0  0  0  0  0
   -9.3981    3.5827   -1.0570 C   0  0  0  0  0  0  0  0  0  0  0  0
   -9.0763    2.7473   -2.1315 C   0  0  0  0  0  0  0  0  0  0  0  0
   -9.5510    1.4223   -2.1480 C   0  0  0  0  0  0  0  0  0  0  0  0
   -9.0002    0.5110   -3.0601 C   0  0  0  0  0  0  0  0  0  0  0  0
   -8.9871   -0.9674   -3.0245 C   0  0  0  0  0  0  0  0  0  0  0  0
  -10.0529   -1.7124   -2.6863 C   0  0  0  0  0  0  0  0  0  0  0  0
  -10.0412   -3.1463   -2.7959 C   0  0  0  0  0  0  0  0  0  0  0  0
  -10.0699   -4.3104   -2.8669 N   0  0  0  0  0  0  0  0  0  0  0  0
  -11.3309   -1.1014   -2.3444 C   0  0  0  0  0  0  0  0  0  0  0  0
  -12.3433   -0.5885   -2.0625 N   0  0  0  0  0  0  0  0  0  0  0  0
    5.2576    2.5100   -0.5264 H   0  0  0  0  0  0  0  0  0  0  0  0
    8.1036   -1.4236    3.5449 H   0  0  0  0  0  0  0  0  0  0  0  0
    7.6794    3.6049    4.6064 H   0  0  0  0  0  0  0  0  0  0  0  0
   10.1149    2.0207    6.5744 H   0  0  0  0  0  0  0  0  0  0  0  0
    8.2962    2.3737    8.3738 H   0  0  0  0  0  0  0  0  0  0  0  0
    5.9705    1.4490    7.4809 H   0  0  0  0  0  0  0  0  0  0  0  0
    6.2928   -1.0782    6.8475 H   0  0  0  0  0  0  0  0  0  0  0  0
    8.8006   -1.7551    7.4433 H   0  0  0  0  0  0  0  0  0  0  0  0
    9.9556    0.2928    8.6747 H   0  0  0  0  0  0  0  0  0  0  0  0
    8.3055   -0.0632    9.4177 H   0  0  0  0  0  0  0  0  0  0  0  0
   10.3906   -0.2684    6.0333 H   0  0  0  0  0  0  0  0  0  0  0  0
    2.7584    1.7304    0.9231 H   0  0  0  0  0  0  0  0  0  0  0  0
    4.7965   -0.8428   -3.1529 H   0  0  0  0  0  0  0  0  0  0  0  0
    6.0883   -0.1309   -2.1270 H   0  0  0  0  0  0  0  0  0  0  0  0
    5.9821   -2.3083   -0.6960 H   0  0  0  0  0  0  0  0  0  0  0  0
    6.6939   -2.4408   -2.3764 H   0  0  0  0  0  0  0  0  0  0  0  0
    5.0188   -3.0157   -2.0312 H   0  0  0  0  0  0  0  0  0  0  0  0
   -5.4998   -4.8989   -4.9548 H   0  0  0  0  0  0  0  0  0  0  0  0
   -6.8135   -3.7057   -4.7243 H   0  0  0  0  0  0  0  0  0  0  0  0
   -4.6591   -1.8871   -5.1225 H   0  0  0  0  0  0  0  0  0  0  0  0
   -4.0668   -3.3333   -6.0128 H   0  0  0  0  0  0  0  0  0  0  0  0
   -5.6466   -2.5919   -6.4548 H   0  0  0  0  0  0  0  0  0  0  0  0
   -0.9856    0.5089   -0.6362 H   0  0  0  0  0  0  0  0  0  0  0  0
   -0.1051    1.3333    0.7129 H   0  0  0  0  0  0  0  0  0  0  0  0
    1.3064    2.4605   -0.9592 H   0  0  0  0  0  0  0  0  0  0  0  0
   -0.3869    2.6215   -1.5176 H   0  0  0  0  0  0  0  0  0  0  0  0
    0.7304    1.4072   -2.2768 H   0  0  0  0  0  0  0  0  0  0  0  0
   -1.1654   -1.1529    1.1195 H   0  0  0  0  0  0  0  0  0  0  0  0
   -2.4691   -2.3713    1.2363 H   0  0  0  0  0  0  0  0  0  0  0  0
   -3.2451   -0.3369   -0.7614 H   0  0  0  0  0  0  0  0  0  0  0  0
   -2.6798    0.4977    0.7335 H   0  0  0  0  0  0  0  0  0  0  0  0
   -4.0287   -0.7104    0.8283 H   0  0  0  0  0  0  0  0  0  0  0  0
   -5.8352   -0.8127   -2.8081 H   0  0  0  0  0  0  0  0  0  0  0  0
   -6.7361    2.4679   -4.6354 H   0  0  0  0  0  0  0  0  0  0  0  0
   -6.5523    4.6418   -3.5020 H   0  0  0  0  0  0  0  0  0  0  0  0
   -7.1662    6.1117   -1.6531 H   0  0  0  0  0  0  0  0  0  0  0  0
   -8.8143    5.3530    0.0359 H   0  0  0  0  0  0  0  0  0  0  0  0
  -10.0375    3.2320   -0.2617 H   0  0  0  0  0  0  0  0  0  0  0  0
  -10.1759    1.0607   -1.3186 H   0  0  0  0  0  0  0  0  0  0  0  0
  1  2  2  3
  2  3  1  0
  3  4  2  0
  3  5  1  0
  5  6  2  0
  6  7  1  0
  7  8  2  0
  8  9  1  0
  9 10  2  0
 10 11  1  0
 11 12  2  3
 12 13  1  0
 13 14  3  0
 12 15  1  0
 15 16  3  0
  8 17  1  0
 17 18  1  0
 18 19  1  0
 19 20  2  0
 20 21  1  0
 21 22  1  0
 21 23  1  0
  1 24  1  0
 24 25  2  0
 25 26  1  0
 26 27  2  0
 27 28  1  0
 28 29  1  0
 29 30  1  0
 27 31  1  0
 31 32  1  0
 32 33  1  0
 33 34  2  0
 34 35  1  0
 35 36  1  0
 33 37  1  0
 37 38  1  0
 38 39  1  0
 39 40  1  0
 40 41  1  0
 41 42  1  0
 42 43  1  0
 41 44  2  0
 44 45  1  0
 45 46  1  0
 46 47  1  0
 47 48  1  0
 48 49  1  0
 49 50  1  0
 50 51  1  0
 51 52  1  0
 52 53  1  0
 48 54  1  0
 54 55  1  0
 44 56  1  0
 56 57  2  3
 57 58  1  0
 58 59  2  0
 58 60  1  0
 60 61  2  0
 61 62  1  0
 62 63  2  0
 63 64  1  0
 64 65  2  0
 65 66  1  0
 66 67  2  0
 67 68  1  0
 68 69  2  0
 69 70  1  0
 70 71  2  3
 71 72  1  0
 72 73  3  0
 71 74  1  0
 74 75  3  0
 11  2  1  0
 23 17  1  0
 28 24  1  0
 50 31  2  0
 70 57  1  0
 10  5  1  0
 22 18  1  0
 51 26  1  0
 69 60  1  0
 23  7  1  0
 36 32  2  0
 49 37  2  0
 67 62  1  0
 47 38  2  0
 46 40  2  0
  1 76  1  0
  6 77  1  0
  9 78  1  0
 17 79  1  0
 18 80  1  0
 19 81  1  0
 20 82  1  0
 21 83  1  0
 22 84  1  0
 22 85  1  0
 23 86  1  0
 25 87  1  0
 29 88  1  0
 29 89  1  0
 30 90  1  0
 30 91  1  0
 30 92  1  0
 42 93  1  0
 42 94  1  0
 43 95  1  0
 43 96  1  0
 43 97  1  0
 52 98  1  0
 52 99  1  0
 53100  1  0
 53101  1  0
 53102  1  0
 54103  1  0
 54104  1  0
 55105  1  0
 55106  1  0
 55107  1  0
 56108  1  0
 61109  1  0
 63110  1  0
 64111  1  0
 65112  1  0
 66113  1  0
 68114  1  0
M  END

