
     RDKit          3D

 93105  0  0  0  0  0  0  0  0999 V2000
   -3.4944   -3.7293    0.0118 C   0  0  0  0  0  0  0  0  0  0  0  0
   -3.3403   -4.8008    0.8159 C   0  0  0  0  0  0  0  0  0  0  0  0
   -2.6551   -4.7958    2.1144 C   0  0  0  0  0  0  0  0  0  0  0  0
   -2.0528   -3.8237    2.6408 O   0  0  0  0  0  0  0  0  0  0  0  0
   -2.9393   -6.0386    2.7952 C   0  0  0  0  0  0  0  0  0  0  0  0
   -2.4865   -6.4211    4.0798 C   0  0  0  0  0  0  0  0  0  0  0  0
   -2.9476   -7.6551    4.4890 C   0  0  0  0  0  0  0  0  0  0  0  0
   -3.8155   -8.4666    3.6918 C   0  0  0  0  0  0  0  0  0  0  0  0
   -4.2730   -8.0929    2.4410 C   0  0  0  0  0  0  0  0  0  0  0  0
   -3.7922   -6.8320    1.9864 C   0  0  0  0  0  0  0  0  0  0  0  0
   -4.0229   -6.1294    0.6884 C   0  0  0  0  0  0  0  0  0  0  0  0
   -4.5282   -6.6737   -0.4494 C   0  0  0  0  0  0  0  0  0  0  0  0
   -4.4123   -6.0207   -1.7244 C   0  0  0  0  0  0  0  0  0  0  0  0
   -4.3142   -5.4979   -2.7517 N   0  0  0  0  0  0  0  0  0  0  0  0
   -5.1143   -7.9879   -0.5006 C   0  0  0  0  0  0  0  0  0  0  0  0
   -5.5944   -9.0392   -0.5674 N   0  0  0  0  0  0  0  0  0  0  0  0
   -3.8359   -9.5234    4.7554 C   0  0  0  0  0  0  0  0  0  0  0  0
   -5.1215   -9.6603    5.6244 C   0  0  0  0  0  0  0  0  0  0  0  0
   -5.8014   -8.3162    5.7584 C   0  0  0  0  0  0  0  0  0  0  0  0
   -4.9981   -7.5548    6.5043 C   0  0  0  0  0  0  0  0  0  0  0  0
   -3.7980   -8.4084    6.8532 C   0  0  0  0  0  0  0  0  0  0  0  0
   -4.4925   -9.7516    7.0015 C   0  0  0  0  0  0  0  0  0  0  0  0
   -2.9511   -8.6890    5.5755 C   0  0  0  0  0  0  0  0  0  0  0  0
   -2.6382   -2.5308    0.0507 C   0  0  0  0  0  0  0  0  0  0  0  0
   -0.9341   -2.5492    0.2277 S   0  0  0  0  0  0  0  0  0  0  0  0
   -0.8153   -0.9036   -0.0224 C   0  0  0  0  0  0  0  0  0  0  0  0
    0.1475    0.0318   -0.2508 C   0  0  0  0  0  0  0  0  0  0  0  0
    1.5382   -0.0981   -0.3068 C   0  0  0  0  0  0  0  0  0  0  0  0
    2.3104    1.0166   -0.7325 C   0  0  0  0  0  0  0  0  0  0  0  0
    3.6566    0.8572   -0.7702 N   0  0  0  0  0  0  0  0  0  0  0  0
    3.7631   -0.7223   -0.2782 S   0  0  0  0  0  0  0  0  0  0  0  0
    2.2110   -1.2359    0.0007 N   0  0  0  0  0  0  0  0  0  0  0  0
    1.6510    2.2016   -1.0583 C   0  0  0  0  0  0  0  0  0  0  0  0
    2.1482    3.4219   -1.3903 C   0  0  0  0  0  0  0  0  0  0  0  0
    1.1159    4.2790   -1.4469 C   0  0  0  0  0  0  0  0  0  0  0  0
   -0.0766    3.6889   -1.1624 N   0  0  0  0  0  0  0  0  0  0  0  0
   -1.2849    4.4461   -0.8187 C   0  0  0  0  0  0  0  0  0  0  0  0
   -1.6650    4.2542    0.6488 C   0  0  0  0  0  0  0  0  0  0  0  0
    0.2498    2.3602   -0.9693 C   0  0  0  0  0  0  0  0  0  0  0  0
   -0.5358    1.2085   -0.6238 C   0  0  0  0  0  0  0  0  0  0  0  0
   -1.8892    0.9465   -0.7050 N   0  0  0  0  0  0  0  0  0  0  0  0
   -2.0016   -0.3474   -0.3035 C   0  0  0  0  0  0  0  0  0  0  0  0
   -3.0747   -1.2412   -0.2985 C   0  0  0  0  0  0  0  0  0  0  0  0
   -2.9634    1.6792   -1.3872 C   0  0  0  0  0  0  0  0  0  0  0  0
   -2.6454    1.8945   -2.8646 C   0  0  0  0  0  0  0  0  0  0  0  0
    1.4782    5.6032   -1.7022 C   0  0  0  0  0  0  0  0  0  0  0  0
    2.8716    5.6960   -1.8360 C   0  0  0  0  0  0  0  0  0  0  0  0
    3.6262    4.1727   -1.6216 S   0  0  0  0  0  0  0  0  0  0  0  0
    3.5969    6.9194   -2.1905 C   0  0  0  0  0  0  0  0  0  0  0  0
    3.6966    7.3556   -3.4593 C   0  0  0  0  0  0  0  0  0  0  0  0
    3.2496    6.6188   -4.6480 C   0  0  0  0  0  0  0  0  0  0  0  0
    2.4393    5.6570   -4.6550 O   0  0  0  0  0  0  0  0  0  0  0  0
    3.9191    7.1709   -5.8145 C   0  0  0  0  0  0  0  0  0  0  0  0
    3.9033    6.7361   -7.1539 C   0  0  0  0  0  0  0  0  0  0  0  0
    3.1175    5.6713   -7.5927 O   0  0  0  0  0  0  0  0  0  0  0  0
    4.7210    7.4033   -8.0781 C   0  0  0  0  0  0  0  0  0  0  0  0
    5.5450    8.4629   -7.6695 C   0  0  0  0  0  0  0  0  0  0  0  0
    5.5464    8.8870   -6.3335 C   0  0  0  0  0  0  0  0  0  0  0  0
    4.7072    8.2448   -5.4100 C   0  0  0  0  0  0  0  0  0  0  0  0
    4.5242    8.4930   -3.9497 C   0  0  0  0  0  0  0  0  0  0  0  0
    4.8205    9.6293   -3.2664 C   0  0  0  0  0  0  0  0  0  0  0  0
    4.3561    9.8580   -1.9208 C   0  0  0  0  0  0  0  0  0  0  0  0
    3.9836   10.0471   -0.8414 N   0  0  0  0  0  0  0  0  0  0  0  0
    5.4957   10.7492   -3.8704 C   0  0  0  0  0  0  0  0  0  0  0  0
    6.0341   11.6576   -4.3462 N   0  0  0  0  0  0  0  0  0  0  0  0
   -4.2900   -3.7170   -0.7179 H   0  0  0  0  0  0  0  0  0  0  0  0
   -1.8435   -5.8049    4.6936 H   0  0  0  0  0  0  0  0  0  0  0  0
   -4.9458   -8.7355    1.9016 H   0  0  0  0  0  0  0  0  0  0  0  0
   -3.3766  -10.4865    4.4351 H   0  0  0  0  0  0  0  0  0  0  0  0
   -5.7894  -10.5053    5.3494 H   0  0  0  0  0  0  0  0  0  0  0  0
   -6.7840   -8.0414    5.3908 H   0  0  0  0  0  0  0  0  0  0  0  0
   -5.2179   -6.5529    6.8579 H   0  0  0  0  0  0  0  0  0  0  0  0
   -3.2188   -8.0695    7.7382 H   0  0  0  0  0  0  0  0  0  0  0  0
   -3.7873  -10.6124    7.1099 H   0  0  0  0  0  0  0  0  0  0  0  0
   -5.2400   -9.7773    7.8318 H   0  0  0  0  0  0  0  0  0  0  0  0
   -1.9569   -9.1470    5.7643 H   0  0  0  0  0  0  0  0  0  0  0  0
   -2.1017    4.2297   -1.5252 H   0  0  0  0  0  0  0  0  0  0  0  0
   -1.1106    5.5328   -0.9617 H   0  0  0  0  0  0  0  0  0  0  0  0
   -0.8952    4.7163    1.3042 H   0  0  0  0  0  0  0  0  0  0  0  0
   -2.6368    4.7569    0.8469 H   0  0  0  0  0  0  0  0  0  0  0  0
   -1.7535    3.1798    0.9133 H   0  0  0  0  0  0  0  0  0  0  0  0
   -4.0929   -0.9953   -0.5550 H   0  0  0  0  0  0  0  0  0  0  0  0
   -3.2102    2.6049   -0.8521 H   0  0  0  0  0  0  0  0  0  0  0  0
   -3.9088    1.1066   -1.3418 H   0  0  0  0  0  0  0  0  0  0  0  0
   -3.4475    2.5053   -3.3363 H   0  0  0  0  0  0  0  0  0  0  0  0
   -2.5972    0.9121   -3.3810 H   0  0  0  0  0  0  0  0  0  0  0  0
   -1.6773    2.4155   -2.9996 H   0  0  0  0  0  0  0  0  0  0  0  0
    0.7992    6.4439   -1.8003 H   0  0  0  0  0  0  0  0  0  0  0  0
    4.1603    7.3872   -1.3974 H   0  0  0  0  0  0  0  0  0  0  0  0
    2.4916    5.1559   -6.9890 H   0  0  0  0  0  0  0  0  0  0  0  0
    4.7378    7.0906   -9.1148 H   0  0  0  0  0  0  0  0  0  0  0  0
    6.1963    8.9483   -8.3869 H   0  0  0  0  0  0  0  0  0  0  0  0
    6.2224    9.6742   -6.0484 H   0  0  0  0  0  0  0  0  0  0  0  0
  1  2  2  3
  2  3  1  0
  3  4  2  0
  3  5  1  0
  5  6  2  0
  6  7  1  0
  7  8  2  0
  8  9  1  0
  9 10  2  0
 10 11  1  0
 11 12  2  3
 12 13  1  0
 13 14  3  0
 12 15  1  0
 15 16  3  0
  8 17  1  0
 17 18  1  0
 18 19  1  0
 19 20  2  0
 20 21  1  0
 21 22  1  0
 21 23  1  0
  1 24  1  0
 24 25  1  0
 25 26  1  0
 26 27  1  0
 27 28  1  0
 28 29  1  0
 29 30  2  0
 30 31  1  0
 31 32  1  0
 29 33  1  0
 33 34  1  0
 34 35  2  0
 35 36  1  0
 36 37  1  0
 37 38  1  0
 36 39  1  0
 39 40  1  0
 40 41  1  0
 41 42  1  0
 42 43  1  0
 41 44  1  0
 44 45  1  0
 35 46  1  0
 46 47  2  0
 47 48  1  0
 47 49  1  0
 49 50  2  3
 50 51  1  0
 51 52  2  0
 51 53  1  0
 53 54  2  0
 54 55  1  0
 54 56  1  0
 56 57  2  0
 57 58  1  0
 58 59  2  0
 59 60  1  0
 60 61  2  3
 61 62  1  0
 62 63  3  0
 61 64  1  0
 64 65  3  0
 11  2  1  0
 23 17  1  0
 43 24  2  0
 60 50  1  0
 10  5  1  0
 22 18  1  0
 42 26  2  0
 59 53  1  0
 23  7  1  0
 40 27  2  0
 32 28  2  0
 39 33  2  0
 48 34  1  0
  1 66  1  0
  6 67  1  0
  9 68  1  0
 17 69  1  0
 18 70  1  0
 19 71  1  0
 20 72  1  0
 21 73  1  0
 22 74  1  0
 22 75  1  0
 23 76  1  0
 37 77  1  0
 37 78  1  0
 38 79  1  0
 38 80  1  0
 38 81  1  0
 43 82  1  0
 44 83  1  0
 44 84  1  0
 45 85  1  0
 45 86  1  0
 45 87  1  0
 46 88  1  0
 49 89  1  0
 55 90  1  0
 56 91  1  0
 57 92  1  0
 58 93  1  0
M  END

