
     RDKit          3D

108121  0  0  0  0  0  0  0  0999 V2000
    3.7527   -2.7887    2.8849 C   0  0  0  0  0  0  0  0  0  0  0  0
    4.9347   -3.0300    2.2910 C   0  0  0  0  0  0  0  0  0  0  0  0
    6.1531   -3.2934    3.0554 C   0  0  0  0  0  0  0  0  0  0  0  0
    6.2071   -3.6342    4.2677 O   0  0  0  0  0  0  0  0  0  0  0  0
    7.2962   -3.0066    2.2152 C   0  0  0  0  0  0  0  0  0  0  0  0
    8.6623   -3.0427    2.5835 C   0  0  0  0  0  0  0  0  0  0  0  0
    9.5234   -2.6638    1.5703 C   0  0  0  0  0  0  0  0  0  0  0  0
    9.0753   -2.2505    0.2750 C   0  0  0  0  0  0  0  0  0  0  0  0
    7.7382   -2.2034   -0.0873 C   0  0  0  0  0  0  0  0  0  0  0  0
    6.8356   -2.6254    0.9284 C   0  0  0  0  0  0  0  0  0  0  0  0
    5.3524   -2.7739    0.8822 C   0  0  0  0  0  0  0  0  0  0  0  0
    4.6178   -3.0211   -0.2312 C   0  0  0  0  0  0  0  0  0  0  0  0
    3.3560   -3.7115   -0.1776 C   0  0  0  0  0  0  0  0  0  0  0  0
    2.3464   -4.2793   -0.1600 N   0  0  0  0  0  0  0  0  0  0  0  0
    5.1151   -2.7719   -1.5594 C   0  0  0  0  0  0  0  0  0  0  0  0
    5.4987   -2.5708   -2.6344 N   0  0  0  0  0  0  0  0  0  0  0  0
   10.4906   -1.9946   -0.1537 C   0  0  0  0  0  0  0  0  0  0  0  0
   10.9733   -0.5156   -0.2441 C   0  0  0  0  0  0  0  0  0  0  0  0
   10.2373    0.3306    0.7703 C   0  0  0  0  0  0  0  0  0  0  0  0
   10.6621   -0.0611    1.9717 C   0  0  0  0  0  0  0  0  0  0  0  0
   11.6676   -1.1650    1.7359 C   0  0  0  0  0  0  0  0  0  0  0  0
   12.3076   -0.6359    0.4655 C   0  0  0  0  0  0  0  0  0  0  0  0
   10.9501   -2.4282    1.1701 C   0  0  0  0  0  0  0  0  0  0  0  0
    2.6161   -2.1031    2.2470 C   0  0  0  0  0  0  0  0  0  0  0  0
    1.3308   -2.6562    2.2093 C   0  0  0  0  0  0  0  0  0  0  0  0
    0.5819   -1.6746    1.6076 C   0  0  0  0  0  0  0  0  0  0  0  0
    1.3443   -0.6110    1.3894 C   0  0  0  0  0  0  0  0  0  0  0  0
    2.6241   -0.8149    1.7779 N   0  0  0  0  0  0  0  0  0  0  0  0
    3.7079    0.1667    1.9107 C   0  0  0  0  0  0  0  0  0  0  0  0
    4.2661    0.5675    0.5428 C   0  0  0  0  0  0  0  0  0  0  0  0
    0.5020    0.4357    1.0703 C   0  0  0  0  0  0  0  0  0  0  0  0
    0.7095    1.8160    0.9036 C   0  0  0  0  0  0  0  0  0  0  0  0
   -0.4089    2.6501    0.6193 C   0  0  0  0  0  0  0  0  0  0  0  0
   -0.1690    3.9737    0.4426 N   0  0  0  0  0  0  0  0  0  0  0  0
    1.4657    4.0010    0.6877 S   0  0  0  0  0  0  0  0  0  0  0  0
    1.9091    2.4368    0.9935 N   0  0  0  0  0  0  0  0  0  0  0  0
   -1.6700    2.0715    0.4975 C   0  0  0  0  0  0  0  0  0  0  0  0
   -2.8282    2.6141    0.0293 C   0  0  0  0  0  0  0  0  0  0  0  0
   -3.3341    4.0761   -0.6644 S   0  0  0  0  0  0  0  0  0  0  0  0
   -4.7721    3.3415   -1.2074 C   0  0  0  0  0  0  0  0  0  0  0  0
   -5.8190    3.7936   -2.0118 C   0  0  0  0  0  0  0  0  0  0  0  0
   -5.9834    5.2170   -2.4672 C   0  0  0  0  0  0  0  0  0  0  0  0
   -7.0618    5.9215   -1.6546 C   0  0  0  0  0  0  0  0  0  0  0  0
   -6.7228    2.7521   -2.2931 C   0  0  0  0  0  0  0  0  0  0  0  0
   -6.1502    1.2932   -1.6090 S   0  0  0  0  0  0  0  0  0  0  0  0
   -4.8130    2.0067   -0.8864 C   0  0  0  0  0  0  0  0  0  0  0  0
   -3.6947    1.5988   -0.1635 C   0  0  0  0  0  0  0  0  0  0  0  0
   -3.1812    0.3948    0.2011 N   0  0  0  0  0  0  0  0  0  0  0  0
   -1.9058    0.6908    0.6466 C   0  0  0  0  0  0  0  0  0  0  0  0
   -0.7979   -0.1430    1.0254 C   0  0  0  0  0  0  0  0  0  0  0  0
   -0.7415   -1.4582    1.4434 N   0  0  0  0  0  0  0  0  0  0  0  0
   -1.7635   -2.3403    2.0189 C   0  0  0  0  0  0  0  0  0  0  0  0
   -2.5025   -1.6636    3.1722 C   0  0  0  0  0  0  0  0  0  0  0  0
   -3.8520   -0.8880   -0.0397 C   0  0  0  0  0  0  0  0  0  0  0  0
   -3.1528   -1.6828   -1.1403 C   0  0  0  0  0  0  0  0  0  0  0  0
   -7.8660    2.8685   -3.2194 C   0  0  0  0  0  0  0  0  0  0  0  0
   -9.0991    2.3781   -2.9919 C   0  0  0  0  0  0  0  0  0  0  0  0
   -9.5144    1.5555   -1.8531 C   0  0  0  0  0  0  0  0  0  0  0  0
   -8.9700    1.5179   -0.7173 O   0  0  0  0  0  0  0  0  0  0  0  0
  -10.7408    0.8755   -2.2129 C   0  0  0  0  0  0  0  0  0  0  0  0
  -11.4311   -0.0906   -1.4851 C   0  0  0  0  0  0  0  0  0  0  0  0
  -12.5803   -0.6655   -2.0489 C   0  0  0  0  0  0  0  0  0  0  0  0
  -13.5139   -2.0062   -1.0497 Br  0  0  0  0  0  0  0  0  0  0  0  0
  -13.0216   -0.2497   -3.3247 C   0  0  0  0  0  0  0  0  0  0  0  0
  -14.5875   -1.0008   -4.1349 Br  0  0  0  0  0  0  0  0  0  0  0  0
  -12.3088    0.7337   -4.0340 C   0  0  0  0  0  0  0  0  0  0  0  0
  -11.1664    1.3048   -3.4544 C   0  0  0  0  0  0  0  0  0  0  0  0
  -10.2415    2.3629   -3.9556 C   0  0  0  0  0  0  0  0  0  0  0  0
  -10.5081    3.2887   -4.9146 C   0  0  0  0  0  0  0  0  0  0  0  0
   -9.6935    4.4615   -5.1070 C   0  0  0  0  0  0  0  0  0  0  0  0
   -9.0506    5.4123   -5.2688 N   0  0  0  0  0  0  0  0  0  0  0  0
  -11.6885    3.2337   -5.7367 C   0  0  0  0  0  0  0  0  0  0  0  0
  -12.6302    3.1921   -6.4115 N   0  0  0  0  0  0  0  0  0  0  0  0
    3.6335   -3.0401    3.9314 H   0  0  0  0  0  0  0  0  0  0  0  0
    9.0066   -3.3207    3.5691 H   0  0  0  0  0  0  0  0  0  0  0  0
    7.4421   -1.8417   -1.0575 H   0  0  0  0  0  0  0  0  0  0  0  0
   10.8368   -2.6528   -0.9817 H   0  0  0  0  0  0  0  0  0  0  0  0
   11.0148   -0.0918   -1.2699 H   0  0  0  0  0  0  0  0  0  0  0  0
    9.5577    1.1505    0.5720 H   0  0  0  0  0  0  0  0  0  0  0  0
   10.3797    0.3805    2.9227 H   0  0  0  0  0  0  0  0  0  0  0  0
   12.3650   -1.3532    2.5792 H   0  0  0  0  0  0  0  0  0  0  0  0
   12.8263    0.3427    0.6061 H   0  0  0  0  0  0  0  0  0  0  0  0
   13.0053   -1.3608   -0.0150 H   0  0  0  0  0  0  0  0  0  0  0  0
   11.5704   -3.3526    1.1462 H   0  0  0  0  0  0  0  0  0  0  0  0
    1.0099   -3.6149    2.5932 H   0  0  0  0  0  0  0  0  0  0  0  0
    4.5364   -0.2453    2.5222 H   0  0  0  0  0  0  0  0  0  0  0  0
    3.3382    1.0524    2.4661 H   0  0  0  0  0  0  0  0  0  0  0  0
    4.8827    1.4835    0.6500 H   0  0  0  0  0  0  0  0  0  0  0  0
    4.9070   -0.2352    0.1353 H   0  0  0  0  0  0  0  0  0  0  0  0
    3.4504    0.7631   -0.1826 H   0  0  0  0  0  0  0  0  0  0  0  0
   -5.0279    5.7673   -2.3511 H   0  0  0  0  0  0  0  0  0  0  0  0
   -6.2529    5.2398   -3.5438 H   0  0  0  0  0  0  0  0  0  0  0  0
   -8.0389    5.4092   -1.7789 H   0  0  0  0  0  0  0  0  0  0  0  0
   -6.7832    5.9234   -0.5778 H   0  0  0  0  0  0  0  0  0  0  0  0
   -7.1627    6.9708   -1.9966 H   0  0  0  0  0  0  0  0  0  0  0  0
   -1.2909   -3.2544    2.4369 H   0  0  0  0  0  0  0  0  0  0  0  0
   -2.4234   -2.7469    1.2393 H   0  0  0  0  0  0  0  0  0  0  0  0
   -3.3580   -2.3015    3.4867 H   0  0  0  0  0  0  0  0  0  0  0  0
   -1.8105   -1.5486    4.0392 H   0  0  0  0  0  0  0  0  0  0  0  0
   -2.8873   -0.6607    2.8885 H   0  0  0  0  0  0  0  0  0  0  0  0
   -3.9876   -1.4337    0.9026 H   0  0  0  0  0  0  0  0  0  0  0  0
   -4.8970   -0.7273   -0.3649 H   0  0  0  0  0  0  0  0  0  0  0  0
   -3.6092   -2.6940   -1.2141 H   0  0  0  0  0  0  0  0  0  0  0  0
   -3.2796   -1.1637   -2.1155 H   0  0  0  0  0  0  0  0  0  0  0  0
   -2.0673   -1.7940   -0.9344 H   0  0  0  0  0  0  0  0  0  0  0  0
   -7.6545    3.3717   -4.1466 H   0  0  0  0  0  0  0  0  0  0  0  0
  -11.0771   -0.4007   -0.5081 H   0  0  0  0  0  0  0  0  0  0  0  0
  -12.6428    1.0028   -5.0203 H   0  0  0  0  0  0  0  0  0  0  0  0
  1  2  2  3
  2  3  1  0
  3  4  2  0
  3  5  1  0
  5  6  2  0
  6  7  1  0
  7  8  2  0
  8  9  1  0
  9 10  2  0
 10 11  1  0
 11 12  2  3
 12 13  1  0
 13 14  3  0
 12 15  1  0
 15 16  3  0
  8 17  1  0
 17 18  1  0
 18 19  1  0
 19 20  2  0
 20 21  1  0
 21 22  1  0
 21 23  1  0
  1 24  1  0
 24 25  2  0
 25 26  1  0
 26 27  2  0
 27 28  1  0
 28 29  1  0
 29 30  1  0
 27 31  1  0
 31 32  1  0
 32 33  1  0
 33 34  2  0
 34 35  1  0
 35 36  1  0
 33 37  1  0
 37 38  1  0
 38 39  1  0
 39 40  1  0
 40 41  1  0
 41 42  1  0
 42 43  1  0
 41 44  2  0
 44 45  1  0
 45 46  1  0
 46 47  1  0
 47 48  1  0
 48 49  1  0
 49 50  1  0
 50 51  1  0
 51 52  1  0
 52 53  1  0
 48 54  1  0
 54 55  1  0
 44 56  1  0
 56 57  2  3
 57 58  1  0
 58 59  2  0
 58 60  1  0
 60 61  2  0
 61 62  1  0
 62 63  1  0
 62 64  2  0
 64 65  1  0
 64 66  1  0
 66 67  2  0
 67 68  1  0
 68 69  2  3
 69 70  1  0
 70 71  3  0
 69 72  1  0
 72 73  3  0
 11  2  1  0
 23 17  1  0
 28 24  1  0
 50 31  2  0
 68 57  1  0
 10  5  1  0
 22 18  1  0
 51 26  1  0
 67 60  1  0
 23  7  1  0
 36 32  2  0
 49 37  2  0
 47 38  2  0
 46 40  2  0
  1 74  1  0
  6 75  1  0
  9 76  1  0
 17 77  1  0
 18 78  1  0
 19 79  1  0
 20 80  1  0
 21 81  1  0
 22 82  1  0
 22 83  1  0
 23 84  1  0
 25 85  1  0
 29 86  1  0
 29 87  1  0
 30 88  1  0
 30 89  1  0
 30 90  1  0
 42 91  1  0
 42 92  1  0
 43 93  1  0
 43 94  1  0
 43 95  1  0
 52 96  1  0
 52 97  1  0
 53 98  1  0
 53 99  1  0
 53100  1  0
 54101  1  0
 54102  1  0
 55103  1  0
 55104  1  0
 55105  1  0
 56106  1  0
 61107  1  0
 66108  1  0
M  END

