
     RDKit          3D

130146  0  0  0  0  0  0  0  0999 V2000
    4.2855    4.1173    1.3722 C   0  0  0  0  0  0  0  0  0  0  0  0
    5.1735    3.9428    0.3697 C   0  0  0  0  0  0  0  0  0  0  0  0
    4.8878    3.9199   -1.0692 C   0  0  0  0  0  0  0  0  0  0  0  0
    3.9678    4.5456   -1.6574 O   0  0  0  0  0  0  0  0  0  0  0  0
    5.9324    3.1646   -1.7300 C   0  0  0  0  0  0  0  0  0  0  0  0
    5.9626    2.7486   -3.0810 C   0  0  0  0  0  0  0  0  0  0  0  0
    7.0293    1.9237   -3.3884 C   0  0  0  0  0  0  0  0  0  0  0  0
    8.0136    1.5255   -2.4255 C   0  0  0  0  0  0  0  0  0  0  0  0
    7.9968    1.9418   -1.1044 C   0  0  0  0  0  0  0  0  0  0  0  0
    6.9196    2.8105   -0.7756 C   0  0  0  0  0  0  0  0  0  0  0  0
    6.5648    3.4265    0.5307 C   0  0  0  0  0  0  0  0  0  0  0  0
    7.4130    3.6933    1.5573 C   0  0  0  0  0  0  0  0  0  0  0  0
    8.7796    3.2424    1.5665 C   0  0  0  0  0  0  0  0  0  0  0  0
    9.8825    2.8884    1.5855 N   0  0  0  0  0  0  0  0  0  0  0  0
    7.0629    4.5965    2.6250 C   0  0  0  0  0  0  0  0  0  0  0  0
    6.7952    5.3321    3.4765 N   0  0  0  0  0  0  0  0  0  0  0  0
    8.7067    0.6876   -3.4573 C   0  0  0  0  0  0  0  0  0  0  0  0
   10.0402    1.2497   -4.0314 C   0  0  0  0  0  0  0  0  0  0  0  0
   10.3165    0.4571   -5.2879 C   0  0  0  0  0  0  0  0  0  0  0  0
    9.4034    0.8414   -6.1863 C   0  0  0  0  0  0  0  0  0  0  0  0
    8.5404    1.8777   -5.5072 C   0  0  0  0  0  0  0  0  0  0  0  0
    9.6124    2.5592   -4.6722 C   0  0  0  0  0  0  0  0  0  0  0  0
    7.7045    1.1033   -4.4445 C   0  0  0  0  0  0  0  0  0  0  0  0
    2.8177    4.2414    1.2227 C   0  0  0  0  0  0  0  0  0  0  0  0
    1.9569    4.7511    2.2152 C   0  0  0  0  0  0  0  0  0  0  0  0
    2.3877    5.3429    3.4918 C   0  0  0  0  0  0  0  0  0  0  0  0
    2.9463    4.5380    4.4948 C   0  0  0  0  0  0  0  0  0  0  0  0
    3.3121    5.0994    5.7207 C   0  0  0  0  0  0  0  0  0  0  0  0
    3.1110    6.4683    5.9613 C   0  0  0  0  0  0  0  0  0  0  0  0
    3.5420    7.0820    7.2673 C   0  0  0  0  0  0  0  0  0  0  0  0
    5.0012    7.5186    7.2036 C   0  0  0  0  0  0  0  0  0  0  0  0
    2.5533    7.2704    4.9534 C   0  0  0  0  0  0  0  0  0  0  0  0
    2.1839    6.7081    3.7288 C   0  0  0  0  0  0  0  0  0  0  0  0
    0.6183    4.4925    1.9192 C   0  0  0  0  0  0  0  0  0  0  0  0
   -0.7714    4.4953    2.8981 S   0  0  0  0  0  0  0  0  0  0  0  0
   -1.6643    3.6644    1.7181 C   0  0  0  0  0  0  0  0  0  0  0  0
   -2.6894    2.7585    1.7746 C   0  0  0  0  0  0  0  0  0  0  0  0
   -3.4160    2.3153    2.8894 C   0  0  0  0  0  0  0  0  0  0  0  0
   -4.0916    1.0614    2.8182 C   0  0  0  0  0  0  0  0  0  0  0  0
   -4.7507    0.6518    3.9277 N   0  0  0  0  0  0  0  0  0  0  0  0
   -4.4048    1.9172    4.9391 S   0  0  0  0  0  0  0  0  0  0  0  0
   -3.4678    2.9715    4.0737 N   0  0  0  0  0  0  0  0  0  0  0  0
   -4.0552    0.3520    1.6149 C   0  0  0  0  0  0  0  0  0  0  0  0
   -4.6487   -0.8133    1.2300 C   0  0  0  0  0  0  0  0  0  0  0  0
   -5.5780   -2.0745    1.8844 S   0  0  0  0  0  0  0  0  0  0  0  0
   -5.7276   -2.7871    0.3393 C   0  0  0  0  0  0  0  0  0  0  0  0
   -6.3533   -3.9442   -0.1287 C   0  0  0  0  0  0  0  0  0  0  0  0
   -6.8614   -5.0179    0.7494 C   0  0  0  0  0  0  0  0  0  0  0  0
   -8.1543   -5.5370    0.5878 C   0  0  0  0  0  0  0  0  0  0  0  0
   -8.5784   -6.6263    1.3575 C   0  0  0  0  0  0  0  0  0  0  0  0
   -7.7204   -7.1998    2.3112 C   0  0  0  0  0  0  0  0  0  0  0  0
   -8.1527   -8.4072    3.0993 C   0  0  0  0  0  0  0  0  0  0  0  0
   -7.6930   -9.6921    2.4177 C   0  0  0  0  0  0  0  0  0  0  0  0
   -6.4323   -6.6695    2.4815 C   0  0  0  0  0  0  0  0  0  0  0  0
   -6.0073   -5.5862    1.7089 C   0  0  0  0  0  0  0  0  0  0  0  0
   -6.2114   -4.0544   -1.5249 C   0  0  0  0  0  0  0  0  0  0  0  0
   -5.3119   -2.7377   -2.1367 S   0  0  0  0  0  0  0  0  0  0  0  0
   -5.1068   -2.0376   -0.6288 C   0  0  0  0  0  0  0  0  0  0  0  0
   -4.4623   -0.9294   -0.1049 C   0  0  0  0  0  0  0  0  0  0  0  0
   -3.7541    0.0958   -0.6400 N   0  0  0  0  0  0  0  0  0  0  0  0
   -3.4148    0.8441    0.4669 C   0  0  0  0  0  0  0  0  0  0  0  0
   -2.5969    1.9972    0.5956 C   0  0  0  0  0  0  0  0  0  0  0  0
   -1.4442    2.3121   -0.0830 N   0  0  0  0  0  0  0  0  0  0  0  0
   -0.9133    3.3418    0.6278 C   0  0  0  0  0  0  0  0  0  0  0  0
    0.3974    3.8025    0.7546 C   0  0  0  0  0  0  0  0  0  0  0  0
    1.8727    3.4283    0.0546 S   0  0  0  0  0  0  0  0  0  0  0  0
   -0.6668    1.4367   -0.9690 C   0  0  0  0  0  0  0  0  0  0  0  0
   -0.0160    0.3027   -0.1805 C   0  0  0  0  0  0  0  0  0  0  0  0
   -3.8339    0.4770   -2.0645 C   0  0  0  0  0  0  0  0  0  0  0  0
   -4.0440    1.9764   -2.2765 C   0  0  0  0  0  0  0  0  0  0  0  0
   -6.8344   -5.0871   -2.3660 C   0  0  0  0  0  0  0  0  0  0  0  0
   -6.1498   -5.9151   -3.1722 C   0  0  0  0  0  0  0  0  0  0  0  0
   -4.7016   -6.1482   -3.1251 C   0  0  0  0  0  0  0  0  0  0  0  0
   -3.8462   -5.4508   -2.5189 O   0  0  0  0  0  0  0  0  0  0  0  0
   -4.4232   -7.3930   -3.8091 C   0  0  0  0  0  0  0  0  0  0  0  0
   -3.2066   -8.0666   -3.9017 C   0  0  0  0  0  0  0  0  0  0  0  0
   -3.1813   -9.3282   -4.5127 C   0  0  0  0  0  0  0  0  0  0  0  0
   -1.6518  -10.1829   -4.6256 Cl  0  0  0  0  0  0  0  0  0  0  0  0
   -4.3794   -9.9028   -4.9980 C   0  0  0  0  0  0  0  0  0  0  0  0
   -4.3974  -11.6478   -5.7875 Br  0  0  0  0  0  0  0  0  0  0  0  0
   -5.5938   -9.2034   -4.8865 C   0  0  0  0  0  0  0  0  0  0  0  0
   -5.5997   -7.9254   -4.3082 C   0  0  0  0  0  0  0  0  0  0  0  0
   -6.7266   -6.9902   -4.0350 C   0  0  0  0  0  0  0  0  0  0  0  0
   -7.9469   -6.9842   -4.6333 C   0  0  0  0  0  0  0  0  0  0  0  0
   -8.8742   -5.8929   -4.4819 C   0  0  0  0  0  0  0  0  0  0  0  0
   -9.6246   -5.0183   -4.3678 N   0  0  0  0  0  0  0  0  0  0  0  0
   -8.3545   -7.9943   -5.5759 C   0  0  0  0  0  0  0  0  0  0  0  0
   -8.6969   -8.7956   -6.3378 N   0  0  0  0  0  0  0  0  0  0  0  0
    4.6312    4.0307    2.3880 H   0  0  0  0  0  0  0  0  0  0  0  0
    5.1992    3.0130   -3.8017 H   0  0  0  0  0  0  0  0  0  0  0  0
    8.7267    1.5792   -0.3984 H   0  0  0  0  0  0  0  0  0  0  0  0
    8.7017   -0.4004   -3.2257 H   0  0  0  0  0  0  0  0  0  0  0  0
   10.8860    1.3096   -3.3163 H   0  0  0  0  0  0  0  0  0  0  0  0
   11.1371   -0.2304   -5.4668 H   0  0  0  0  0  0  0  0  0  0  0  0
    9.3586    0.5246   -7.2219 H   0  0  0  0  0  0  0  0  0  0  0  0
    7.9635    2.5359   -6.1900 H   0  0  0  0  0  0  0  0  0  0  0  0
    9.2214    3.3106   -3.9527 H   0  0  0  0  0  0  0  0  0  0  0  0
   10.4156    3.0354   -5.2851 H   0  0  0  0  0  0  0  0  0  0  0  0
    7.0728    0.2767   -4.8381 H   0  0  0  0  0  0  0  0  0  0  0  0
    3.0889    3.4763    4.3291 H   0  0  0  0  0  0  0  0  0  0  0  0
    3.7497    4.4669    6.4830 H   0  0  0  0  0  0  0  0  0  0  0  0
    3.4140    6.3475    8.0929 H   0  0  0  0  0  0  0  0  0  0  0  0
    2.9070    7.9630    7.5035 H   0  0  0  0  0  0  0  0  0  0  0  0
    5.2939    7.9888    8.1673 H   0  0  0  0  0  0  0  0  0  0  0  0
    5.6588    6.6414    7.0201 H   0  0  0  0  0  0  0  0  0  0  0  0
    5.1458    8.2605    6.3896 H   0  0  0  0  0  0  0  0  0  0  0  0
    2.4066    8.3310    5.1160 H   0  0  0  0  0  0  0  0  0  0  0  0
    1.7436    7.3380    2.9639 H   0  0  0  0  0  0  0  0  0  0  0  0
   -8.8341   -5.1023   -0.1330 H   0  0  0  0  0  0  0  0  0  0  0  0
   -9.5727   -7.0257    1.2056 H   0  0  0  0  0  0  0  0  0  0  0  0
   -7.7248   -8.3633    4.1247 H   0  0  0  0  0  0  0  0  0  0  0  0
   -9.2602   -8.4222    3.2050 H   0  0  0  0  0  0  0  0  0  0  0  0
   -6.5839   -9.7264    2.3694 H   0  0  0  0  0  0  0  0  0  0  0  0
   -8.0476  -10.5686    2.9985 H   0  0  0  0  0  0  0  0  0  0  0  0
   -8.1087   -9.7546    1.3887 H   0  0  0  0  0  0  0  0  0  0  0  0
   -5.7496   -7.1111    3.1977 H   0  0  0  0  0  0  0  0  0  0  0  0
   -4.9995   -5.2111    1.8389 H   0  0  0  0  0  0  0  0  0  0  0  0
   -1.2958    1.0174   -1.7575 H   0  0  0  0  0  0  0  0  0  0  0  0
    0.1093    2.0201   -1.5032 H   0  0  0  0  0  0  0  0  0  0  0  0
    0.6208   -0.3052   -0.8556 H   0  0  0  0  0  0  0  0  0  0  0  0
    0.6168    0.7085    0.6379 H   0  0  0  0  0  0  0  0  0  0  0  0
   -0.7944   -0.3596    0.2558 H   0  0  0  0  0  0  0  0  0  0  0  0
   -2.9661    0.0901   -2.6332 H   0  0  0  0  0  0  0  0  0  0  0  0
   -4.7202   -0.0087   -2.5207 H   0  0  0  0  0  0  0  0  0  0  0  0
   -3.1301    2.5575   -2.0452 H   0  0  0  0  0  0  0  0  0  0  0  0
   -4.8789    2.3397   -1.6434 H   0  0  0  0  0  0  0  0  0  0  0  0
   -4.2964    2.1658   -3.3397 H   0  0  0  0  0  0  0  0  0  0  0  0
   -7.9020   -5.1925   -2.2704 H   0  0  0  0  0  0  0  0  0  0  0  0
   -2.3046   -7.6310   -3.4903 H   0  0  0  0  0  0  0  0  0  0  0  0
   -6.5002   -9.6846   -5.2113 H   0  0  0  0  0  0  0  0  0  0  0  0
  1  2  2  3
  2  3  1  0
  3  4  2  0
  3  5  1  0
  5  6  2  0
  6  7  1  0
  7  8  2  0
  8  9  1  0
  9 10  2  0
 10 11  1  0
 11 12  2  3
 12 13  1  0
 13 14  3  0
 12 15  1  0
 15 16  3  0
  8 17  1  0
 17 18  1  0
 18 19  1  0
 19 20  2  0
 20 21  1  0
 21 22  1  0
 21 23  1  0
  1 24  1  0
 24 25  2  0
 25 26  1  0
 26 27  2  0
 27 28  1  0
 28 29  2  0
 29 30  1  0
 30 31  1  0
 29 32  1  0
 32 33  2  0
 25 34  1  0
 34 35  1  0
 35 36  1  0
 36 37  1  0
 37 38  1  0
 38 39  1  0
 39 40  2  0
 40 41  1  0
 41 42  1  0
 39 43  1  0
 43 44  1  0
 44 45  1  0
 45 46  1  0
 46 47  1  0
 47 48  1  0
 48 49  2  0
 49 50  1  0
 50 51  2  0
 51 52  1  0
 52 53  1  0
 51 54  1  0
 54 55  2  0
 47 56  2  0
 56 57  1  0
 57 58  1  0
 58 59  1  0
 59 60  1  0
 60 61  1  0
 61 62  1  0
 62 63  1  0
 63 64  1  0
 64 65  1  0
 65 66  1  0
 63 67  1  0
 67 68  1  0
 60 69  1  0
 69 70  1  0
 56 71  1  0
 71 72  2  3
 72 73  1  0
 73 74  2  0
 73 75  1  0
 75 76  2  0
 76 77  1  0
 77 78  1  0
 77 79  2  0
 79 80  1  0
 79 81  1  0
 81 82  2  0
 82 83  1  0
 83 84  2  3
 84 85  1  0
 85 86  3  0
 84 87  1  0
 87 88  3  0
 11  2  1  0
 23 17  1  0
 66 24  1  0
 83 72  1  0
 10  5  1  0
 22 18  1  0
 33 26  1  0
 65 34  2  0
 82 75  1  0
 23  7  1  0
 64 36  2  0
 62 37  2  0
 42 38  2  0
 61 43  2  0
 59 44  2  0
 58 46  2  0
 55 48  1  0
  1 89  1  0
  6 90  1  0
  9 91  1  0
 17 92  1  0
 18 93  1  0
 19 94  1  0
 20 95  1  0
 21 96  1  0
 22 97  1  0
 22 98  1  0
 23 99  1  0
 27100  1  0
 28101  1  0
 30102  1  0
 30103  1  0
 31104  1  0
 31105  1  0
 31106  1  0
 32107  1  0
 33108  1  0
 49109  1  0
 50110  1  0
 52111  1  0
 52112  1  0
 53113  1  0
 53114  1  0
 53115  1  0
 54116  1  0
 55117  1  0
 67118  1  0
 67119  1  0
 68120  1  0
 68121  1  0
 68122  1  0
 69123  1  0
 69124  1  0
 70125  1  0
 70126  1  0
 70127  1  0
 71128  1  0
 76129  1  0
 81130  1  0
M  END

