
     RDKit          3D

 95109  0  0  0  0  0  0  0  0999 V2000
   -1.6880   -1.3622   -6.8715 C   0  0  0  0  0  0  0  0  0  0  0  0
   -1.1348   -0.2479   -6.3543 C   0  0  0  0  0  0  0  0  0  0  0  0
   -0.9356    0.0135   -4.9358 C   0  0  0  0  0  0  0  0  0  0  0  0
   -0.9261   -0.8421   -3.9941 O   0  0  0  0  0  0  0  0  0  0  0  0
   -0.7117    1.4137   -4.6329 C   0  0  0  0  0  0  0  0  0  0  0  0
   -0.5601    2.0487   -3.4305 C   0  0  0  0  0  0  0  0  0  0  0  0
   -0.4590    3.4170   -3.4003 C   0  0  0  0  0  0  0  0  0  0  0  0
   -0.5134    4.0915   -4.5754 C   0  0  0  0  0  0  0  0  0  0  0  0
   -0.6592    3.4671   -5.8228 C   0  0  0  0  0  0  0  0  0  0  0  0
   -0.7533    2.0675   -5.8249 C   0  0  0  0  0  0  0  0  0  0  0  0
   -0.9996    1.1192   -6.9449 C   0  0  0  0  0  0  0  0  0  0  0  0
   -1.0120    1.3478   -8.2456 C   0  0  0  0  0  0  0  0  0  0  0  0
   -1.1354    0.2960   -9.2301 C   0  0  0  0  0  0  0  0  0  0  0  0
   -1.2261   -0.5822  -10.0386 N   0  0  0  0  0  0  0  0  0  0  0  0
   -0.9265    2.6559   -8.7990 C   0  0  0  0  0  0  0  0  0  0  0  0
   -0.8320    3.7746   -9.2710 N   0  0  0  0  0  0  0  0  0  0  0  0
   -0.4522    5.4554   -3.9175 C   0  0  0  0  0  0  0  0  0  0  0  0
   -1.7759    6.1556   -3.7635 C   0  0  0  0  0  0  0  0  0  0  0  0
   -2.8392    5.1153   -3.7699 C   0  0  0  0  0  0  0  0  0  0  0  0
   -2.6851    4.3617   -2.6910 C   0  0  0  0  0  0  0  0  0  0  0  0
   -1.6045    4.9758   -1.8744 C   0  0  0  0  0  0  0  0  0  0  0  0
   -1.7671    6.4249   -2.2308 C   0  0  0  0  0  0  0  0  0  0  0  0
   -0.3026    4.6856   -2.6202 C   0  0  0  0  0  0  0  0  0  0  0  0
   -2.1167   -2.2599   -5.7478 C   0  0  0  0  0  0  0  0  0  0  0  0
   -3.2718   -1.8930   -4.9847 C   0  0  0  0  0  0  0  0  0  0  0  0
   -3.3208   -2.5078   -3.7680 C   0  0  0  0  0  0  0  0  0  0  0  0
   -4.2603   -1.6832   -2.3752 S   0  0  0  0  0  0  0  0  0  0  0  0
   -3.4727   -2.6050   -1.1106 C   0  0  0  0  0  0  0  0  0  0  0  0
   -3.2025   -2.5248    0.2437 C   0  0  0  0  0  0  0  0  0  0  0  0
   -3.7438   -1.6992    1.2128 C   0  0  0  0  0  0  0  0  0  0  0  0
   -3.1402   -1.6856    2.4219 C   0  0  0  0  0  0  0  0  0  0  0  0
   -3.7059   -0.8978    3.3387 N   0  0  0  0  0  0  0  0  0  0  0  0
   -5.0221   -0.2003    2.5807 S   0  0  0  0  0  0  0  0  0  0  0  0
   -4.8342   -0.9305    1.0814 N   0  0  0  0  0  0  0  0  0  0  0  0
   -2.0013   -2.4938    2.5848 C   0  0  0  0  0  0  0  0  0  0  0  0
   -1.0079   -2.3064    3.5733 C   0  0  0  0  0  0  0  0  0  0  0  0
    0.0946   -3.0058    3.2369 C   0  0  0  0  0  0  0  0  0  0  0  0
   -0.1818   -3.6557    2.0395 N   0  0  0  0  0  0  0  0  0  0  0  0
    0.7784   -4.5029    1.4358 C   0  0  0  0  0  0  0  0  0  0  0  0
    1.7578   -3.7431    0.5466 C   0  0  0  0  0  0  0  0  0  0  0  0
   -1.4545   -3.3152    1.6731 C   0  0  0  0  0  0  0  0  0  0  0  0
   -2.1096   -3.3657    0.4005 C   0  0  0  0  0  0  0  0  0  0  0  0
   -1.7932   -3.9104   -0.7602 N   0  0  0  0  0  0  0  0  0  0  0  0
   -2.6677   -3.4106   -1.7768 C   0  0  0  0  0  0  0  0  0  0  0  0
   -2.6961   -3.2855   -3.1012 C   0  0  0  0  0  0  0  0  0  0  0  0
   -1.2429   -3.4730   -4.6910 Se  0  0  0  0  0  2  0  0  0  0  0  0
   -0.8480   -4.9441   -1.0428 C   0  0  0  0  0  0  0  0  0  0  0  0
   -1.4632   -6.3319   -0.8074 C   0  0  0  0  0  0  0  0  0  0  0  0
    1.1751   -2.7493    4.0402 C   0  0  0  0  0  0  0  0  0  0  0  0
    1.1122   -1.9034    5.0437 C   0  0  0  0  0  0  0  0  0  0  0  0
   -0.5891   -1.3922    4.9108 S   0  0  0  0  0  0  0  0  0  0  0  0
    2.1389   -1.5137    5.7984 C   0  0  0  0  0  0  0  0  0  0  0  0
    3.3733   -1.9367    5.6181 C   0  0  0  0  0  0  0  0  0  0  0  0
    3.0871   -3.1432    4.1187 Se  0  0  0  0  0  2  0  0  0  0  0  0
    4.6489   -1.4600    6.1989 C   0  0  0  0  0  0  0  0  0  0  0  0
    4.9948   -0.1926    5.9702 C   0  0  0  0  0  0  0  0  0  0  0  0
    4.1525    0.7138    5.1519 C   0  0  0  0  0  0  0  0  0  0  0  0
    3.0867    0.5014    4.5346 O   0  0  0  0  0  0  0  0  0  0  0  0
    4.7713    2.0532    5.1171 C   0  0  0  0  0  0  0  0  0  0  0  0
    4.6223    3.6554    4.5809 S   0  0  0  0  0  0  0  0  0  0  0  0
    6.0162    4.3176    5.2694 C   0  0  0  0  0  0  0  0  0  0  0  0
    6.6598    6.1242    5.2180 Br  0  0  0  0  0  0  0  0  0  0  0  0
    6.5799    3.2464    5.9138 C   0  0  0  0  0  0  0  0  0  0  0  0
    5.9345    2.0446    5.8487 C   0  0  0  0  0  0  0  0  0  0  0  0
    6.0817    0.6625    6.3854 C   0  0  0  0  0  0  0  0  0  0  0  0
    6.9479    0.2717    7.3278 C   0  0  0  0  0  0  0  0  0  0  0  0
    6.9315   -0.9569    8.0084 C   0  0  0  0  0  0  0  0  0  0  0  0
    6.9272   -2.0032    8.5898 N   0  0  0  0  0  0  0  0  0  0  0  0
    7.9539    1.2728    7.7224 C   0  0  0  0  0  0  0  0  0  0  0  0
    8.7421    2.0530    8.0391 N   0  0  0  0  0  0  0  0  0  0  0  0
   -1.8169   -1.5816   -7.8177 H   0  0  0  0  0  0  0  0  0  0  0  0
   -0.5080    1.5041   -2.5070 H   0  0  0  0  0  0  0  0  0  0  0  0
   -0.6949    4.0304   -6.7264 H   0  0  0  0  0  0  0  0  0  0  0  0
    0.4164    6.0679   -4.1897 H   0  0  0  0  0  0  0  0  0  0  0  0
   -1.9521    7.0473   -4.3083 H   0  0  0  0  0  0  0  0  0  0  0  0
   -3.5769    5.0127   -4.5464 H   0  0  0  0  0  0  0  0  0  0  0  0
   -3.1934    3.4483   -2.4098 H   0  0  0  0  0  0  0  0  0  0  0  0
   -1.5919    4.7357   -0.8396 H   0  0  0  0  0  0  0  0  0  0  0  0
   -2.7631    6.8528   -1.9555 H   0  0  0  0  0  0  0  0  0  0  0  0
   -0.9077    7.0373   -1.9069 H   0  0  0  0  0  0  0  0  0  0  0  0
    0.6135    4.8281   -2.0678 H   0  0  0  0  0  0  0  0  0  0  0  0
   -3.9332   -1.2119   -5.4918 H   0  0  0  0  0  0  0  0  0  0  0  0
    1.4956   -4.8700    2.2736 H   0  0  0  0  0  0  0  0  0  0  0  0
    0.5192   -5.4498    1.0024 H   0  0  0  0  0  0  0  0  0  0  0  0
    2.3466   -4.4189   -0.0740 H   0  0  0  0  0  0  0  0  0  0  0  0
    2.3478   -3.0755    1.2185 H   0  0  0  0  0  0  0  0  0  0  0  0
    1.2154   -3.0606   -0.1451 H   0  0  0  0  0  0  0  0  0  0  0  0
    0.1855   -4.8609   -1.0131 H   0  0  0  0  0  0  0  0  0  0  0  0
   -0.8764   -4.9987   -2.2343 H   0  0  0  0  0  0  0  0  0  0  0  0
   -1.8245   -6.8128   -1.7618 H   0  0  0  0  0  0  0  0  0  0  0  0
   -2.3813   -6.2898   -0.1912 H   0  0  0  0  0  0  0  0  0  0  0  0
   -0.6928   -6.9886   -0.4333 H   0  0  0  0  0  0  0  0  0  0  0  0
    2.0219   -0.7739    6.6859 H   0  0  0  0  0  0  0  0  0  0  0  0
    5.2111   -2.1242    6.7506 H   0  0  0  0  0  0  0  0  0  0  0  0
    7.5500    3.4634    6.4270 H   0  0  0  0  0  0  0  0  0  0  0  0
  1  2  2  3
  2  3  1  0
  3  4  2  0
  3  5  1  0
  5  6  2  0
  6  7  1  0
  7  8  2  0
  8  9  1  0
  9 10  2  0
 10 11  1  0
 11 12  2  3
 12 13  1  0
 13 14  3  0
 12 15  1  0
 15 16  3  0
  8 17  1  0
 17 18  1  0
 18 19  1  0
 19 20  2  0
 20 21  1  0
 21 22  1  0
 21 23  1  0
  1 24  1  0
 24 25  2  0
 25 26  1  0
 26 27  1  0
 27 28  1  0
 28 29  1  0
 29 30  1  0
 30 31  1  0
 31 32  2  0
 32 33  1  0
 33 34  1  0
 31 35  1  0
 35 36  1  0
 36 37  2  0
 37 38  1  0
 38 39  1  0
 39 40  1  0
 38 41  1  0
 41 42  1  0
 42 43  1  0
 43 44  1  0
 44 45  1  0
 45 46  1  0
 43 47  1  0
 47 48  1  0
 37 49  1  0
 49 50  2  0
 50 51  1  0
 50 52  1  0
 52 53  2  0
 53 54  1  0
 53 55  1  0
 55 56  2  3
 56 57  1  0
 57 58  2  0
 57 59  1  0
 59 60  1  0
 60 61  1  0
 61 62  1  0
 61 63  2  0
 63 64  1  0
 64 65  1  0
 65 66  2  3
 66 67  1  0
 67 68  3  0
 66 69  1  0
 69 70  3  0
 11  2  1  0
 23 17  1  0
 46 24  1  0
 54 49  1  0
 65 56  1  0
 10  5  1  0
 22 18  1  0
 45 26  2  0
 64 59  2  0
 23  7  1  0
 44 28  2  0
 42 29  2  0
 34 30  2  0
 41 35  2  0
 51 36  1  0
  1 71  1  0
  6 72  1  0
  9 73  1  0
 17 74  1  0
 18 75  1  0
 19 76  1  0
 20 77  1  0
 21 78  1  0
 22 79  1  0
 22 80  1  0
 23 81  1  0
 25 82  1  0
 39 83  1  0
 39 84  1  0
 40 85  1  0
 40 86  1  0
 40 87  1  0
 47 88  1  0
 47 89  1  0
 48 90  1  0
 48 91  1  0
 48 92  1  0
 52 93  1  0
 55 94  1  0
 63 95  1  0
M  END

