
     RDKit          3D

124138  0  0  0  0  0  0  0  0999 V2000
   -1.5181    5.6811   -3.5088 C   0  0  0  0  0  0  0  0  0  0  0  0
   -2.8297    5.4100   -3.6419 C   0  0  0  0  0  0  0  0  0  0  0  0
   -3.5217    5.5234   -4.9244 C   0  0  0  0  0  0  0  0  0  0  0  0
   -3.1473    6.2155   -5.9085 O   0  0  0  0  0  0  0  0  0  0  0  0
   -4.6440    4.6024   -4.9194 C   0  0  0  0  0  0  0  0  0  0  0  0
   -5.4344    4.2076   -6.0228 C   0  0  0  0  0  0  0  0  0  0  0  0
   -6.3090    3.1720   -5.7448 C   0  0  0  0  0  0  0  0  0  0  0  0
   -6.4068    2.5544   -4.4550 C   0  0  0  0  0  0  0  0  0  0  0  0
   -5.6287    2.9268   -3.3724 C   0  0  0  0  0  0  0  0  0  0  0  0
   -4.7359    4.0010   -3.6374 C   0  0  0  0  0  0  0  0  0  0  0  0
   -3.7085    4.5977   -2.7504 C   0  0  0  0  0  0  0  0  0  0  0  0
   -3.7828    4.7035   -1.3992 C   0  0  0  0  0  0  0  0  0  0  0  0
   -2.9428    5.6177   -0.6649 C   0  0  0  0  0  0  0  0  0  0  0  0
   -2.2713    6.3462   -0.0690 N   0  0  0  0  0  0  0  0  0  0  0  0
   -4.7946    4.0328   -0.6254 C   0  0  0  0  0  0  0  0  0  0  0  0
   -5.6054    3.5002    0.0062 N   0  0  0  0  0  0  0  0  0  0  0  0
   -7.4339    1.5930   -4.9729 C   0  0  0  0  0  0  0  0  0  0  0  0
   -6.9526    0.1326   -5.2116 C   0  0  0  0  0  0  0  0  0  0  0  0
   -8.0025   -0.5114   -6.0844 C   0  0  0  0  0  0  0  0  0  0  0  0
   -7.8893    0.0526   -7.2938 C   0  0  0  0  0  0  0  0  0  0  0  0
   -6.7734    1.0631   -7.1922 C   0  0  0  0  0  0  0  0  0  0  0  0
   -5.8544    0.2988   -6.2502 C   0  0  0  0  0  0  0  0  0  0  0  0
   -7.3222    2.2159   -6.2979 C   0  0  0  0  0  0  0  0  0  0  0  0
   -0.6322    4.9930   -2.5470 C   0  0  0  0  0  0  0  0  0  0  0  0
    0.5356    5.5282   -1.9680 C   0  0  0  0  0  0  0  0  0  0  0  0
    1.0766    6.8706   -2.2530 C   0  0  0  0  0  0  0  0  0  0  0  0
    0.9370    7.8728   -1.2797 C   0  0  0  0  0  0  0  0  0  0  0  0
    1.4050    9.1649   -1.5214 C   0  0  0  0  0  0  0  0  0  0  0  0
    2.0279    9.4674   -2.7324 C   0  0  0  0  0  0  0  0  0  0  0  0
    2.1880    8.4766   -3.7034 C   0  0  0  0  0  0  0  0  0  0  0  0
    1.7152    7.1718   -3.4823 C   0  0  0  0  0  0  0  0  0  0  0  0
    1.9921    6.1142   -4.5275 C   0  0  0  0  0  0  0  0  0  0  0  0
    3.3306    5.4349   -4.2684 C   0  0  0  0  0  0  0  0  0  0  0  0
    1.1050    4.6232   -1.0658 C   0  0  0  0  0  0  0  0  0  0  0  0
    2.4658    4.6655   -0.0376 S   0  0  0  0  0  0  0  0  0  0  0  0
    2.1349    3.0861    0.5027 C   0  0  0  0  0  0  0  0  0  0  0  0
    2.6980    2.1068    1.2673 C   0  0  0  0  0  0  0  0  0  0  0  0
    3.8961    2.1120    1.9835 C   0  0  0  0  0  0  0  0  0  0  0  0
    4.3229    0.9115    2.6098 C   0  0  0  0  0  0  0  0  0  0  0  0
    5.4915    0.9537    3.2990 N   0  0  0  0  0  0  0  0  0  0  0  0
    5.9030    2.5385    3.0492 S   0  0  0  0  0  0  0  0  0  0  0  0
    4.6997    3.1961    2.1176 N   0  0  0  0  0  0  0  0  0  0  0  0
    3.5244   -0.2270    2.4924 C   0  0  0  0  0  0  0  0  0  0  0  0
    3.6692   -1.4534    3.0689 C   0  0  0  0  0  0  0  0  0  0  0  0
    4.6799   -2.2227    4.1975 S   0  0  0  0  0  0  0  0  0  0  0  0
    3.6130   -3.5530    4.2739 C   0  0  0  0  0  0  0  0  0  0  0  0
    3.5832   -4.7137    5.0450 C   0  0  0  0  0  0  0  0  0  0  0  0
    4.6195   -5.0622    6.0338 C   0  0  0  0  0  0  0  0  0  0  0  0
    4.4247   -4.8651    7.4242 C   0  0  0  0  0  0  0  0  0  0  0  0
    3.1619   -4.2456    7.9829 C   0  0  0  0  0  0  0  0  0  0  0  0
    3.3221   -2.7400    8.1538 C   0  0  0  0  0  0  0  0  0  0  0  0
    5.4663   -5.1962    8.3109 C   0  0  0  0  0  0  0  0  0  0  0  0
    6.6673   -5.7244    7.8326 C   0  0  0  0  0  0  0  0  0  0  0  0
    6.8524   -5.9178    6.4628 C   0  0  0  0  0  0  0  0  0  0  0  0
    5.8346   -5.5836    5.5674 C   0  0  0  0  0  0  0  0  0  0  0  0
    2.4255   -5.4747    4.7859 C   0  0  0  0  0  0  0  0  0  0  0  0
    1.4340   -4.6255    3.6796 S   0  0  0  0  0  0  0  0  0  0  0  0
    2.5159   -3.3636    3.4744 C   0  0  0  0  0  0  0  0  0  0  0  0
    2.5612   -2.1628    2.7788 C   0  0  0  0  0  0  0  0  0  0  0  0
    1.6678   -1.4669    2.0326 N   0  0  0  0  0  0  0  0  0  0  0  0
    2.2840   -0.2476    1.8091 C   0  0  0  0  0  0  0  0  0  0  0  0
    1.8763    0.9591    1.1272 C   0  0  0  0  0  0  0  0  0  0  0  0
    0.8514    1.2457    0.2420 N   0  0  0  0  0  0  0  0  0  0  0  0
    1.0540    2.5457   -0.0868 C   0  0  0  0  0  0  0  0  0  0  0  0
    0.4652    3.4137   -0.9895 C   0  0  0  0  0  0  0  0  0  0  0  0
   -0.8400    3.3802   -2.0297 S   0  0  0  0  0  0  0  0  0  0  0  0
   -0.0969    0.3858   -0.4706 C   0  0  0  0  0  0  0  0  0  0  0  0
   -1.5266    0.5884    0.0452 C   0  0  0  0  0  0  0  0  0  0  0  0
    0.2822   -1.9096    1.8512 C   0  0  0  0  0  0  0  0  0  0  0  0
    0.1844   -2.9740    0.7508 C   0  0  0  0  0  0  0  0  0  0  0  0
    2.0556   -6.7229    5.4968 C   0  0  0  0  0  0  0  0  0  0  0  0
    1.2418   -7.6743    5.0110 C   0  0  0  0  0  0  0  0  0  0  0  0
    0.8091   -8.7319    5.8887 C   0  0  0  0  0  0  0  0  0  0  0  0
    0.4514   -9.5840    6.5908 N   0  0  0  0  0  0  0  0  0  0  0  0
    0.7879   -7.7274    3.6099 C   0  0  0  0  0  0  0  0  0  0  0  0
    1.6082   -7.5213    2.6698 O   0  0  0  0  0  0  0  0  0  0  0  0
   -0.5410   -8.0636    3.3344 O   0  0  0  0  0  0  0  0  0  0  0  0
   -1.0764   -8.0666    2.0154 C   0  0  0  0  0  0  0  0  0  0  0  0
   -2.5445   -8.4461    2.0636 C   0  0  0  0  0  0  0  0  0  0  0  0
   -1.0431    6.3134   -4.2473 H   0  0  0  0  0  0  0  0  0  0  0  0
   -5.3275    4.6302   -7.0107 H   0  0  0  0  0  0  0  0  0  0  0  0
   -5.6659    2.3821   -2.4439 H   0  0  0  0  0  0  0  0  0  0  0  0
   -8.4321    1.6978   -4.4914 H   0  0  0  0  0  0  0  0  0  0  0  0
   -6.6747   -0.4407   -4.3019 H   0  0  0  0  0  0  0  0  0  0  0  0
   -8.6514   -1.3424   -5.8295 H   0  0  0  0  0  0  0  0  0  0  0  0
   -8.4326   -0.2383   -8.1855 H   0  0  0  0  0  0  0  0  0  0  0  0
   -6.3270    1.3757   -8.1586 H   0  0  0  0  0  0  0  0  0  0  0  0
   -5.4925   -0.6694   -6.6740 H   0  0  0  0  0  0  0  0  0  0  0  0
   -4.9765    0.8810   -5.8977 H   0  0  0  0  0  0  0  0  0  0  0  0
   -8.2528    2.7092   -6.6597 H   0  0  0  0  0  0  0  0  0  0  0  0
    0.4584    7.6535   -0.3328 H   0  0  0  0  0  0  0  0  0  0  0  0
    1.2881    9.9337   -0.7667 H   0  0  0  0  0  0  0  0  0  0  0  0
    2.3950   10.4700   -2.9150 H   0  0  0  0  0  0  0  0  0  0  0  0
    2.6923    8.7264   -4.6285 H   0  0  0  0  0  0  0  0  0  0  0  0
    2.0084    6.5746   -5.5400 H   0  0  0  0  0  0  0  0  0  0  0  0
    1.1939    5.3461   -4.5498 H   0  0  0  0  0  0  0  0  0  0  0  0
    4.1515    6.1835   -4.2908 H   0  0  0  0  0  0  0  0  0  0  0  0
    3.5205    4.6777   -5.0609 H   0  0  0  0  0  0  0  0  0  0  0  0
    3.3230    4.9219   -3.2816 H   0  0  0  0  0  0  0  0  0  0  0  0
    2.2873   -4.4411    7.3311 H   0  0  0  0  0  0  0  0  0  0  0  0
    2.9196   -4.7034    8.9660 H   0  0  0  0  0  0  0  0  0  0  0  0
    3.5601   -2.2661    7.1792 H   0  0  0  0  0  0  0  0  0  0  0  0
    2.3744   -2.3086    8.5351 H   0  0  0  0  0  0  0  0  0  0  0  0
    4.1320   -2.5212    8.8830 H   0  0  0  0  0  0  0  0  0  0  0  0
    5.3485   -5.0370    9.3766 H   0  0  0  0  0  0  0  0  0  0  0  0
    7.4571   -5.9779    8.5258 H   0  0  0  0  0  0  0  0  0  0  0  0
    7.7860   -6.3257    6.0942 H   0  0  0  0  0  0  0  0  0  0  0  0
    5.9899   -5.7429    4.5081 H   0  0  0  0  0  0  0  0  0  0  0  0
   -0.0732    0.6251   -1.5548 H   0  0  0  0  0  0  0  0  0  0  0  0
    0.2238   -0.6554   -0.4277 H   0  0  0  0  0  0  0  0  0  0  0  0
   -1.9868    1.4950   -0.3964 H   0  0  0  0  0  0  0  0  0  0  0  0
   -1.5448    0.7204    1.1480 H   0  0  0  0  0  0  0  0  0  0  0  0
   -2.1536   -0.2852   -0.2316 H   0  0  0  0  0  0  0  0  0  0  0  0
   -0.0990   -2.3447    2.7997 H   0  0  0  0  0  0  0  0  0  0  0  0
   -0.3749   -1.0562    1.6748 H   0  0  0  0  0  0  0  0  0  0  0  0
   -0.8678   -3.0535    0.3963 H   0  0  0  0  0  0  0  0  0  0  0  0
    0.4974   -3.9636    1.1376 H   0  0  0  0  0  0  0  0  0  0  0  0
    0.8456   -2.7317   -0.1089 H   0  0  0  0  0  0  0  0  0  0  0  0
    2.4323   -6.8396    6.5091 H   0  0  0  0  0  0  0  0  0  0  0  0
   -0.5261   -8.7984    1.3851 H   0  0  0  0  0  0  0  0  0  0  0  0
   -0.9769   -7.0529    1.5700 H   0  0  0  0  0  0  0  0  0  0  0  0
   -2.9760   -8.3994    1.0402 H   0  0  0  0  0  0  0  0  0  0  0  0
   -2.6583   -9.4812    2.4588 H   0  0  0  0  0  0  0  0  0  0  0  0
   -3.0972   -7.7388    2.7218 H   0  0  0  0  0  0  0  0  0  0  0  0
  1  2  2  3
  2  3  1  0
  3  4  2  0
  3  5  1  0
  5  6  2  0
  6  7  1  0
  7  8  2  0
  8  9  1  0
  9 10  2  0
 10 11  1  0
 11 12  2  3
 12 13  1  0
 13 14  3  0
 12 15  1  0
 15 16  3  0
  8 17  1  0
 17 18  1  0
 18 19  1  0
 19 20  2  0
 20 21  1  0
 21 22  1  0
 21 23  1  0
  1 24  1  0
 24 25  2  0
 25 26  1  0
 26 27  2  0
 27 28  1  0
 28 29  2  0
 29 30  1  0
 30 31  2  0
 31 32  1  0
 32 33  1  0
 25 34  1  0
 34 35  1  0
 35 36  1  0
 36 37  1  0
 37 38  1  0
 38 39  1  0
 39 40  2  0
 40 41  1  0
 41 42  1  0
 39 43  1  0
 43 44  1  0
 44 45  1  0
 45 46  1  0
 46 47  1  0
 47 48  1  0
 48 49  2  0
 49 50  1  0
 50 51  1  0
 49 52  1  0
 52 53  2  0
 53 54  1  0
 54 55  2  0
 47 56  2  0
 56 57  1  0
 57 58  1  0
 58 59  1  0
 59 60  1  0
 60 61  1  0
 61 62  1  0
 62 63  1  0
 63 64  1  0
 64 65  1  0
 65 66  1  0
 63 67  1  0
 67 68  1  0
 60 69  1  0
 69 70  1  0
 56 71  1  0
 71 72  2  3
 72 73  1  0
 73 74  3  0
 72 75  1  0
 75 76  2  0
 75 77  1  0
 77 78  1  0
 78 79  1  0
 11  2  1  0
 23 17  1  0
 66 24  1  0
 10  5  1  0
 22 18  1  0
 31 26  1  0
 65 34  2  0
 23  7  1  0
 64 36  2  0
 62 37  2  0
 42 38  2  0
 61 43  2  0
 59 44  2  0
 58 46  2  0
 55 48  1  0
  1 80  1  0
  6 81  1  0
  9 82  1  0
 17 83  1  0
 18 84  1  0
 19 85  1  0
 20 86  1  0
 21 87  1  0
 22 88  1  0
 22 89  1  0
 23 90  1  0
 27 91  1  0
 28 92  1  0
 29 93  1  0
 30 94  1  0
 32 95  1  0
 32 96  1  0
 33 97  1  0
 33 98  1  0
 33 99  1  0
 50100  1  0
 50101  1  0
 51102  1  0
 51103  1  0
 51104  1  0
 52105  1  0
 53106  1  0
 54107  1  0
 55108  1  0
 67109  1  0
 67110  1  0
 68111  1  0
 68112  1  0
 68113  1  0
 69114  1  0
 69115  1  0
 70116  1  0
 70117  1  0
 70118  1  0
 71119  1  0
 78120  1  0
 78121  1  0
 79122  1  0
 79123  1  0
 79124  1  0
M  END

