
     RDKit          3D

129143  0  0  0  0  0  0  0  0999 V2000
   -3.4137   -6.6919    1.1527 C   0  0  0  0  0  0  0  0  0  0  0  0
   -2.5617   -7.4337    0.4179 C   0  0  0  0  0  0  0  0  0  0  0  0
   -1.6101   -6.8982   -0.5657 C   0  0  0  0  0  0  0  0  0  0  0  0
   -1.6670   -5.7695   -1.1286 O   0  0  0  0  0  0  0  0  0  0  0  0
   -0.5592   -7.8694   -0.7625 C   0  0  0  0  0  0  0  0  0  0  0  0
    0.6482   -7.6777   -1.4713 C   0  0  0  0  0  0  0  0  0  0  0  0
    1.5546   -8.7113   -1.3191 C   0  0  0  0  0  0  0  0  0  0  0  0
    1.2954   -9.8692   -0.5123 C   0  0  0  0  0  0  0  0  0  0  0  0
    0.1074  -10.0662    0.1746 C   0  0  0  0  0  0  0  0  0  0  0  0
   -0.8499   -9.0261    0.0069 C   0  0  0  0  0  0  0  0  0  0  0  0
   -2.1788   -8.8562    0.6561 C   0  0  0  0  0  0  0  0  0  0  0  0
   -2.9757   -9.8408    1.1389 C   0  0  0  0  0  0  0  0  0  0  0  0
   -2.5848  -11.2235    1.1183 C   0  0  0  0  0  0  0  0  0  0  0  0
   -2.2840  -12.3396    1.0894 N   0  0  0  0  0  0  0  0  0  0  0  0
   -4.3336   -9.5996    1.5540 C   0  0  0  0  0  0  0  0  0  0  0  0
   -5.4259   -9.4121    1.8863 N   0  0  0  0  0  0  0  0  0  0  0  0
    2.6728  -10.3965   -0.7964 C   0  0  0  0  0  0  0  0  0  0  0  0
    2.8106  -11.5893   -1.7862 C   0  0  0  0  0  0  0  0  0  0  0  0
    1.6850  -11.5439   -2.7964 C   0  0  0  0  0  0  0  0  0  0  0  0
    1.9058  -10.4768   -3.5636 C   0  0  0  0  0  0  0  0  0  0  0  0
    3.1706   -9.8278   -3.0483 C   0  0  0  0  0  0  0  0  0  0  0  0
    3.9410  -11.0784   -2.6617 C   0  0  0  0  0  0  0  0  0  0  0  0
    2.9278   -9.2194   -1.6363 C   0  0  0  0  0  0  0  0  0  0  0  0
   -3.4668   -5.2293    1.0196 C   0  0  0  0  0  0  0  0  0  0  0  0
   -4.2963   -4.6309    0.0491 C   0  0  0  0  0  0  0  0  0  0  0  0
   -4.1814   -3.2621   -0.2437 C   0  0  0  0  0  0  0  0  0  0  0  0
   -3.2447   -2.5068    0.4670 C   0  0  0  0  0  0  0  0  0  0  0  0
   -2.7747   -1.2055    0.3294 C   0  0  0  0  0  0  0  0  0  0  0  0
   -1.7197   -1.0860    1.1677 C   0  0  0  0  0  0  0  0  0  0  0  0
   -1.4721   -2.2222    1.8687 N   0  0  0  0  0  0  0  0  0  0  0  0
   -2.4391   -3.0844    1.4421 C   0  0  0  0  0  0  0  0  0  0  0  0
   -2.5499   -4.4489    1.7448 C   0  0  0  0  0  0  0  0  0  0  0  0
   -0.3101   -2.5303    2.7164 C   0  0  0  0  0  0  0  0  0  0  0  0
   -0.3212   -1.6697    3.9814 C   0  0  0  0  0  0  0  0  0  0  0  0
   -0.9206   -0.0830    0.6617 C   0  0  0  0  0  0  0  0  0  0  0  0
    0.4078    0.2908    0.8874 C   0  0  0  0  0  0  0  0  0  0  0  0
    1.0441    1.1593    0.0495 C   0  0  0  0  0  0  0  0  0  0  0  0
    2.3068    1.3148    0.4723 N   0  0  0  0  0  0  0  0  0  0  0  0
    2.3987    0.5591    1.5625 N   0  0  0  0  0  0  0  0  0  0  0  0
    3.6326    0.3785    2.3158 C   0  0  0  0  0  0  0  0  0  0  0  0
    4.4149   -0.7999    1.7510 C   0  0  0  0  0  0  0  0  0  0  0  0
    1.2707   -0.0866    1.8411 N   0  0  0  0  0  0  0  0  0  0  0  0
    0.3787    1.7257   -1.0402 C   0  0  0  0  0  0  0  0  0  0  0  0
   -0.9802    1.4271   -1.2732 C   0  0  0  0  0  0  0  0  0  0  0  0
   -1.6191    0.4352   -0.4502 C   0  0  0  0  0  0  0  0  0  0  0  0
   -2.7428   -0.3177   -0.7027 N   0  0  0  0  0  0  0  0  0  0  0  0
   -3.3500   -0.5458   -2.0188 C   0  0  0  0  0  0  0  0  0  0  0  0
   -4.8283   -0.1383   -2.0515 C   0  0  0  0  0  0  0  0  0  0  0  0
   -1.5439    2.3654   -2.1101 N   0  0  0  0  0  0  0  0  0  0  0  0
   -2.9310    2.8361   -2.0437 C   0  0  0  0  0  0  0  0  0  0  0  0
   -3.6671    2.6843   -3.3787 C   0  0  0  0  0  0  0  0  0  0  0  0
   -0.4850    3.1439   -2.4746 C   0  0  0  0  0  0  0  0  0  0  0  0
    0.6734    2.7860   -1.8682 C   0  0  0  0  0  0  0  0  0  0  0  0
    1.5598    3.8075   -1.7950 N   0  0  0  0  0  0  0  0  0  0  0  0
    2.8727    3.8537   -1.1437 C   0  0  0  0  0  0  0  0  0  0  0  0
    2.7641    4.4591    0.2565 C   0  0  0  0  0  0  0  0  0  0  0  0
    0.9182    4.8457   -2.3904 C   0  0  0  0  0  0  0  0  0  0  0  0
   -0.3555    4.4883   -2.8104 C   0  0  0  0  0  0  0  0  0  0  0  0
   -1.2265    5.4379   -3.3592 C   0  0  0  0  0  0  0  0  0  0  0  0
   -0.7812    6.7663   -3.4678 C   0  0  0  0  0  0  0  0  0  0  0  0
    0.4784    7.1464   -2.9562 C   0  0  0  0  0  0  0  0  0  0  0  0
    1.3555    6.1675   -2.4540 C   0  0  0  0  0  0  0  0  0  0  0  0
    0.8649    8.5699   -2.9312 C   0  0  0  0  0  0  0  0  0  0  0  0
    1.3805    9.1788   -1.8437 C   0  0  0  0  0  0  0  0  0  0  0  0
    2.2369   10.3602   -1.9213 C   0  0  0  0  0  0  0  0  0  0  0  0
    2.3512   11.1300   -2.9122 O   0  0  0  0  0  0  0  0  0  0  0  0
    3.0199   10.4303   -0.7024 C   0  0  0  0  0  0  0  0  0  0  0  0
    4.0381   11.3243   -0.3766 C   0  0  0  0  0  0  0  0  0  0  0  0
    4.7114   11.1552    0.8411 C   0  0  0  0  0  0  0  0  0  0  0  0
    4.3865   10.0887    1.7006 C   0  0  0  0  0  0  0  0  0  0  0  0
    5.1227    9.9471    2.8865 O   0  0  0  0  0  0  0  0  0  0  0  0
    4.8864    8.9362    3.8655 C   0  0  0  0  0  0  0  0  0  0  0  0
    3.3439    9.1970    1.3463 C   0  0  0  0  0  0  0  0  0  0  0  0
    2.6494    9.4005    0.1440 C   0  0  0  0  0  0  0  0  0  0  0  0
    1.5115    8.6506   -0.4520 C   0  0  0  0  0  0  0  0  0  0  0  0
    0.5526    7.9845    0.2400 C   0  0  0  0  0  0  0  0  0  0  0  0
   -0.7683    7.7815   -0.2956 C   0  0  0  0  0  0  0  0  0  0  0  0
   -1.8396    7.6259   -0.7096 N   0  0  0  0  0  0  0  0  0  0  0  0
    0.7089    7.6081    1.6221 C   0  0  0  0  0  0  0  0  0  0  0  0
    0.8230    7.3014    2.7315 N   0  0  0  0  0  0  0  0  0  0  0  0
   -3.9430   -7.1227    1.9903 H   0  0  0  0  0  0  0  0  0  0  0  0
    0.8748   -6.7819   -2.0344 H   0  0  0  0  0  0  0  0  0  0  0  0
   -0.0231  -10.9140    0.8251 H   0  0  0  0  0  0  0  0  0  0  0  0
    3.3264  -10.4506    0.1006 H   0  0  0  0  0  0  0  0  0  0  0  0
    2.9825  -12.5811   -1.3148 H   0  0  0  0  0  0  0  0  0  0  0  0
    0.9010  -12.2793   -2.9387 H   0  0  0  0  0  0  0  0  0  0  0  0
    1.3275  -10.1935   -4.4346 H   0  0  0  0  0  0  0  0  0  0  0  0
    3.6769   -9.1542   -3.7710 H   0  0  0  0  0  0  0  0  0  0  0  0
    4.8811  -10.8625   -2.1004 H   0  0  0  0  0  0  0  0  0  0  0  0
    4.1687  -11.7449   -3.5286 H   0  0  0  0  0  0  0  0  0  0  0  0
    3.7479   -8.5673   -1.2572 H   0  0  0  0  0  0  0  0  0  0  0  0
   -4.9912   -5.2364   -0.5169 H   0  0  0  0  0  0  0  0  0  0  0  0
   -4.7888   -2.8459   -1.0245 H   0  0  0  0  0  0  0  0  0  0  0  0
   -1.8971   -4.9295    2.4599 H   0  0  0  0  0  0  0  0  0  0  0  0
    0.6262   -2.4052    2.1396 H   0  0  0  0  0  0  0  0  0  0  0  0
   -0.3132   -3.5852    3.0430 H   0  0  0  0  0  0  0  0  0  0  0  0
   -1.1628   -1.9717    4.6400 H   0  0  0  0  0  0  0  0  0  0  0  0
    0.6340   -1.8109    4.5306 H   0  0  0  0  0  0  0  0  0  0  0  0
   -0.4396   -0.5955    3.7314 H   0  0  0  0  0  0  0  0  0  0  0  0
    4.2465    1.2998    2.2481 H   0  0  0  0  0  0  0  0  0  0  0  0
    3.3944    0.1930    3.3842 H   0  0  0  0  0  0  0  0  0  0  0  0
    5.3357   -0.9546    2.3470 H   0  0  0  0  0  0  0  0  0  0  0  0
    4.6950   -0.5979    0.6938 H   0  0  0  0  0  0  0  0  0  0  0  0
    3.7963   -1.7223    1.7904 H   0  0  0  0  0  0  0  0  0  0  0  0
   -3.2608   -1.6171   -2.2958 H   0  0  0  0  0  0  0  0  0  0  0  0
   -2.7742   -0.0148   -2.7959 H   0  0  0  0  0  0  0  0  0  0  0  0
   -5.0150    0.8205   -1.5388 H   0  0  0  0  0  0  0  0  0  0  0  0
   -5.4722   -0.8862   -1.5677 H   0  0  0  0  0  0  0  0  0  0  0  0
   -5.1549   -0.0495   -3.1077 H   0  0  0  0  0  0  0  0  0  0  0  0
   -3.4708    2.3029   -1.2408 H   0  0  0  0  0  0  0  0  0  0  0  0
   -2.9575    3.9051   -1.7371 H   0  0  0  0  0  0  0  0  0  0  0  0
   -3.3649    3.4497   -4.1101 H   0  0  0  0  0  0  0  0  0  0  0  0
   -4.7554    2.7960   -3.2004 H   0  0  0  0  0  0  0  0  0  0  0  0
   -3.4874    1.7087   -3.8543 H   0  0  0  0  0  0  0  0  0  0  0  0
    3.3279    2.8433   -1.1161 H   0  0  0  0  0  0  0  0  0  0  0  0
    3.5670    4.4741   -1.7467 H   0  0  0  0  0  0  0  0  0  0  0  0
    2.0288    3.9013    0.8729 H   0  0  0  0  0  0  0  0  0  0  0  0
    2.4361    5.5171    0.1952 H   0  0  0  0  0  0  0  0  0  0  0  0
    3.7541    4.4297    0.7519 H   0  0  0  0  0  0  0  0  0  0  0  0
   -2.2185    5.1890   -3.6862 H   0  0  0  0  0  0  0  0  0  0  0  0
   -1.4495    7.5115   -3.8795 H   0  0  0  0  0  0  0  0  0  0  0  0
    2.3327    6.4455   -2.0819 H   0  0  0  0  0  0  0  0  0  0  0  0
    0.8421    9.1007   -3.8747 H   0  0  0  0  0  0  0  0  0  0  0  0
    4.3131   12.1267   -1.0521 H   0  0  0  0  0  0  0  0  0  0  0  0
    5.5047   11.8422    1.1082 H   0  0  0  0  0  0  0  0  0  0  0  0
    3.8912    9.0877    4.3308 H   0  0  0  0  0  0  0  0  0  0  0  0
    5.6602    9.0117    4.6521 H   0  0  0  0  0  0  0  0  0  0  0  0
    4.9457    7.9278    3.4074 H   0  0  0  0  0  0  0  0  0  0  0  0
    3.1163    8.3528    1.9752 H   0  0  0  0  0  0  0  0  0  0  0  0
  1  2  2  3
  2  3  1  0
  3  4  2  0
  3  5  1  0
  5  6  2  0
  6  7  1  0
  7  8  2  0
  8  9  1  0
  9 10  2  0
 10 11  1  0
 11 12  2  3
 12 13  1  0
 13 14  3  0
 12 15  1  0
 15 16  3  0
  8 17  1  0
 17 18  1  0
 18 19  1  0
 19 20  2  0
 20 21  1  0
 21 22  1  0
 21 23  1  0
  1 24  1  0
 24 25  2  0
 25 26  1  0
 26 27  2  0
 27 28  1  0
 28 29  2  0
 29 30  1  0
 30 31  1  0
 31 32  2  0
 30 33  1  0
 33 34  1  0
 29 35  1  0
 35 36  1  0
 36 37  1  0
 37 38  2  0
 38 39  1  0
 39 40  1  0
 40 41  1  0
 39 42  1  0
 37 43  1  0
 43 44  2  0
 44 45  1  0
 45 46  1  0
 46 47  1  0
 47 48  1  0
 44 49  1  0
 49 50  1  0
 50 51  1  0
 49 52  1  0
 52 53  2  0
 53 54  1  0
 54 55  1  0
 55 56  1  0
 54 57  1  0
 57 58  2  0
 58 59  1  0
 59 60  2  0
 60 61  1  0
 61 62  2  0
 61 63  1  0
 63 64  2  3
 64 65  1  0
 65 66  2  0
 65 67  1  0
 67 68  2  0
 68 69  1  0
 69 70  2  0
 70 71  1  0
 71 72  1  0
 70 73  1  0
 73 74  2  0
 74 75  1  0
 75 76  2  3
 76 77  1  0
 77 78  3  0
 76 79  1  0
 79 80  3  0
 11  2  1  0
 23 17  1  0
 32 24  1  0
 45 35  2  0
 58 52  1  0
 75 64  1  0
 10  5  1  0
 22 18  1  0
 31 27  1  0
 42 36  2  0
 53 43  1  0
 62 57  1  0
 74 67  1  0
 23  7  1  0
 46 28  1  0
  1 81  1  0
  6 82  1  0
  9 83  1  0
 17 84  1  0
 18 85  1  0
 19 86  1  0
 20 87  1  0
 21 88  1  0
 22 89  1  0
 22 90  1  0
 23 91  1  0
 25 92  1  0
 26 93  1  0
 32 94  1  0
 33 95  1  0
 33 96  1  0
 34 97  1  0
 34 98  1  0
 34 99  1  0
 40100  1  0
 40101  1  0
 41102  1  0
 41103  1  0
 41104  1  0
 47105  1  0
 47106  1  0
 48107  1  0
 48108  1  0
 48109  1  0
 50110  1  0
 50111  1  0
 51112  1  0
 51113  1  0
 51114  1  0
 55115  1  0
 55116  1  0
 56117  1  0
 56118  1  0
 56119  1  0
 59120  1  0
 60121  1  0
 62122  1  0
 63123  1  0
 68124  1  0
 69125  1  0
 72126  1  0
 72127  1  0
 72128  1  0
 73129  1  0
M  END

