
     RDKit          3D

109122  0  0  0  0  0  0  0  0999 V2000
    1.7744    6.6317    3.1813 C   0  0  0  0  0  0  0  0  0  0  0  0
    2.6491    5.5978    3.3959 C   0  0  0  0  0  0  0  0  0  0  0  0
    3.2503    5.3197    4.7264 C   0  0  0  0  0  0  0  0  0  0  0  0
    3.1659    6.0380    5.7344 O   0  0  0  0  0  0  0  0  0  0  0  0
    3.9714    4.0196    4.6097 C   0  0  0  0  0  0  0  0  0  0  0  0
    4.4087    3.1525    5.6573 C   0  0  0  0  0  0  0  0  0  0  0  0
    4.7076    1.8459    5.2847 C   0  0  0  0  0  0  0  0  0  0  0  0
    4.6412    1.3726    4.0190 C   0  0  0  0  0  0  0  0  0  0  0  0
    4.2179    2.2692    3.0304 C   0  0  0  0  0  0  0  0  0  0  0  0
    3.8816    3.5665    3.3733 C   0  0  0  0  0  0  0  0  0  0  0  0
    3.0488    4.5558    2.5117 C   0  0  0  0  0  0  0  0  0  0  0  0
    3.2249    4.4655    1.2591 C   0  0  0  0  0  0  0  0  0  0  0  0
    3.6250    3.3163    0.4493 C   0  0  0  0  0  0  0  0  0  0  0  0
    3.9224    2.4218   -0.1959 N   0  0  0  0  0  0  0  0  0  0  0  0
    3.2726    5.6525    0.1715 C   0  0  0  0  0  0  0  0  0  0  0  0
    3.3127    6.3379   -0.4563 N   0  0  0  0  0  0  0  0  0  0  0  0
    5.0348   -0.0429    4.3393 C   0  0  0  0  0  0  0  0  0  0  0  0
    3.8184   -0.9521    4.1539 C   0  0  0  0  0  0  0  0  0  0  0  0
    3.9360   -2.1084    5.0243 C   0  0  0  0  0  0  0  0  0  0  0  0
    3.8735   -1.6615    6.2921 C   0  0  0  0  0  0  0  0  0  0  0  0
    3.7018   -0.1923    6.2759 C   0  0  0  0  0  0  0  0  0  0  0  0
    2.8367   -0.1074    5.0163 C   0  0  0  0  0  0  0  0  0  0  0  0
    4.9903    0.4043    5.7861 C   0  0  0  0  0  0  0  0  0  0  0  0
    1.1805    6.7062    1.8681 C   0  0  0  0  0  0  0  0  0  0  0  0
    0.8471    7.2015    0.7105 C   0  0  0  0  0  0  0  0  0  0  0  0
    1.1361    8.6643    0.4564 C   0  0  0  0  0  0  0  0  0  0  0  0
    0.1774    9.5298    1.1802 C   0  0  0  0  0  0  0  0  0  0  0  0
    0.2332    6.3836   -0.1737 C   0  0  0  0  0  0  0  0  0  0  0  0
   -0.0502    6.3738   -2.2060 Se  0  0  0  0  0  2  0  0  0  0  0  0
   -0.5261    4.5828   -2.2118 C   0  0  0  0  0  0  0  0  0  0  0  0
   -0.7778    3.4854   -3.0093 C   0  0  0  0  0  0  0  0  0  0  0  0
   -0.8269    3.3769   -4.4204 C   0  0  0  0  0  0  0  0  0  0  0  0
   -0.9653    2.1193   -4.9296 C   0  0  0  0  0  0  0  0  0  0  0  0
   -1.0124    2.0406   -6.2577 N   0  0  0  0  0  0  0  0  0  0  0  0
   -0.8677    3.6237   -6.7874 S   0  0  0  0  0  0  0  0  0  0  0  0
   -0.7502    4.3584   -5.2959 N   0  0  0  0  0  0  0  0  0  0  0  0
   -1.0480    1.0346   -4.0458 C   0  0  0  0  0  0  0  0  0  0  0  0
   -1.2263   -0.2950   -4.2627 C   0  0  0  0  0  0  0  0  0  0  0  0
   -1.4990   -1.6010   -5.6162 Se  0  0  0  0  0  2  0  0  0  0  0  0
   -1.7005   -3.0219   -4.2935 C   0  0  0  0  0  0  0  0  0  0  0  0
   -2.0834   -4.3320   -4.2624 C   0  0  0  0  0  0  0  0  0  0  0  0
   -2.1159   -5.1223   -5.5689 C   0  0  0  0  0  0  0  0  0  0  0  0
   -0.6776   -5.4300   -6.0058 C   0  0  0  0  0  0  0  0  0  0  0  0
   -2.3195   -4.9142   -3.1130 C   0  0  0  0  0  0  0  0  0  0  0  0
   -1.9510   -3.5861   -2.0092 S   0  0  0  0  0  0  0  0  0  0  0  0
   -1.5444   -2.3610   -3.2364 C   0  0  0  0  0  0  0  0  0  0  0  0
   -1.2970   -1.0113   -3.1592 C   0  0  0  0  0  0  0  0  0  0  0  0
   -1.1419   -0.0633   -2.1323 N   0  0  0  0  0  0  0  0  0  0  0  0
   -1.0022    1.1711   -2.6631 C   0  0  0  0  0  0  0  0  0  0  0  0
   -0.8654    2.4251   -2.1474 C   0  0  0  0  0  0  0  0  0  0  0  0
   -0.6934    2.8543   -0.8903 N   0  0  0  0  0  0  0  0  0  0  0  0
   -0.4524    4.2400   -0.9200 C   0  0  0  0  0  0  0  0  0  0  0  0
   -0.0696    5.1841   -0.0088 C   0  0  0  0  0  0  0  0  0  0  0  0
    0.5284    5.0023    1.6339 S   0  0  0  0  0  0  0  0  0  0  0  0
   -0.8272    2.1755    0.3765 C   0  0  0  0  0  0  0  0  0  0  0  0
    0.4058    1.7391    1.0419 C   0  0  0  0  0  0  0  0  0  0  0  0
   -0.9889   -0.4869   -0.7549 C   0  0  0  0  0  0  0  0  0  0  0  0
   -2.2298   -0.7280   -0.0083 C   0  0  0  0  0  0  0  0  0  0  0  0
   -3.0164   -6.0381   -2.5150 C   0  0  0  0  0  0  0  0  0  0  0  0
   -2.6017   -6.9374   -1.6706 C   0  0  0  0  0  0  0  0  0  0  0  0
   -1.3989   -7.1686   -1.0841 C   0  0  0  0  0  0  0  0  0  0  0  0
   -0.2542   -7.3706   -0.5296 N   0  0  0  0  0  0  0  0  0  0  0  0
   -3.8280   -7.4319   -0.9478 C   0  0  0  0  0  0  0  0  0  0  0  0
   -3.9579   -8.3662    0.0594 C   0  0  0  0  0  0  0  0  0  0  0  0
   -3.0199   -9.1230    0.6235 C   0  0  0  0  0  0  0  0  0  0  0  0
   -2.0698   -9.8813    1.2113 N   0  0  0  0  0  0  0  0  0  0  0  0
   -5.0707   -8.0569    0.8949 C   0  0  0  0  0  0  0  0  0  0  0  0
   -6.1295   -7.7472    1.6850 N   0  0  0  0  0  0  0  0  0  0  0  0
   -4.8942   -6.7675   -1.4596 O   0  0  0  0  0  0  0  0  0  0  0  0
   -4.4991   -6.1736   -2.6754 C   0  0  0  0  0  0  0  0  0  0  0  0
   -4.9064   -6.8757   -3.9072 C   0  0  0  0  0  0  0  0  0  0  0  0
   -5.0798   -4.7411   -2.7030 C   0  0  0  0  0  0  0  0  0  0  0  0
    1.5486    7.2989    3.9484 H   0  0  0  0  0  0  0  0  0  0  0  0
    4.4859    3.5325    6.6607 H   0  0  0  0  0  0  0  0  0  0  0  0
    4.1364    1.8436    2.0805 H   0  0  0  0  0  0  0  0  0  0  0  0
    5.9858   -0.3609    3.9210 H   0  0  0  0  0  0  0  0  0  0  0  0
    3.4888   -1.0520    3.1522 H   0  0  0  0  0  0  0  0  0  0  0  0
    4.0283   -3.1590    4.8192 H   0  0  0  0  0  0  0  0  0  0  0  0
    3.9131   -2.2718    7.2016 H   0  0  0  0  0  0  0  0  0  0  0  0
    3.2528    0.2556    7.1503 H   0  0  0  0  0  0  0  0  0  0  0  0
    1.8906   -0.6070    5.1445 H   0  0  0  0  0  0  0  0  0  0  0  0
    2.7659    0.9233    4.6252 H   0  0  0  0  0  0  0  0  0  0  0  0
    5.8821    0.3181    6.3830 H   0  0  0  0  0  0  0  0  0  0  0  0
    2.1808    8.8449    0.8813 H   0  0  0  0  0  0  0  0  0  0  0  0
    1.1777    8.9150   -0.6092 H   0  0  0  0  0  0  0  0  0  0  0  0
   -0.2444    9.0200    2.0981 H   0  0  0  0  0  0  0  0  0  0  0  0
    0.6906   10.4143    1.5598 H   0  0  0  0  0  0  0  0  0  0  0  0
   -0.6866    9.8779    0.5482 H   0  0  0  0  0  0  0  0  0  0  0  0
   -2.5771   -4.5189   -6.3631 H   0  0  0  0  0  0  0  0  0  0  0  0
   -2.6421   -6.0482   -5.4441 H   0  0  0  0  0  0  0  0  0  0  0  0
   -0.7542   -6.3900   -6.5535 H   0  0  0  0  0  0  0  0  0  0  0  0
   -0.3273   -4.6625   -6.7453 H   0  0  0  0  0  0  0  0  0  0  0  0
    0.0233   -5.4909   -5.1903 H   0  0  0  0  0  0  0  0  0  0  0  0
   -1.7560    1.6202    0.4509 H   0  0  0  0  0  0  0  0  0  0  0  0
   -1.2095    3.0227    1.1448 H   0  0  0  0  0  0  0  0  0  0  0  0
    0.1595    0.7678    1.5738 H   0  0  0  0  0  0  0  0  0  0  0  0
    1.3067    1.5943    0.4269 H   0  0  0  0  0  0  0  0  0  0  0  0
    0.7398    2.3562    1.9447 H   0  0  0  0  0  0  0  0  0  0  0  0
   -0.0718   -0.1629   -0.3030 H   0  0  0  0  0  0  0  0  0  0  0  0
   -0.5791   -1.6161   -0.8818 H   0  0  0  0  0  0  0  0  0  0  0  0
   -3.1358   -0.2187   -0.4057 H   0  0  0  0  0  0  0  0  0  0  0  0
   -2.0757   -0.4484    1.0823 H   0  0  0  0  0  0  0  0  0  0  0  0
   -2.5750   -1.8023    0.1205 H   0  0  0  0  0  0  0  0  0  0  0  0
   -5.9888   -7.1149   -3.8721 H   0  0  0  0  0  0  0  0  0  0  0  0
   -4.8709   -6.0508   -4.7283 H   0  0  0  0  0  0  0  0  0  0  0  0
   -4.2927   -7.7033   -4.2010 H   0  0  0  0  0  0  0  0  0  0  0  0
   -4.8262   -4.2427   -1.7485 H   0  0  0  0  0  0  0  0  0  0  0  0
   -4.5508   -4.1987   -3.5505 H   0  0  0  0  0  0  0  0  0  0  0  0
   -6.1285   -4.8587   -2.8874 H   0  0  0  0  0  0  0  0  0  0  0  0
  1  2  2  3
  2  3  1  0
  3  4  2  0
  3  5  1  0
  5  6  2  0
  6  7  1  0
  7  8  2  0
  8  9  1  0
  9 10  2  0
 10 11  1  0
 11 12  2  3
 12 13  1  0
 13 14  3  0
 12 15  1  0
 15 16  3  0
  8 17  1  0
 17 18  1  0
 18 19  1  0
 19 20  2  0
 20 21  1  0
 21 22  1  0
 21 23  1  0
  1 24  1  0
 24 25  2  0
 25 26  1  0
 26 27  1  0
 25 28  1  0
 28 29  1  0
 29 30  1  0
 30 31  1  0
 31 32  1  0
 32 33  1  0
 33 34  2  0
 34 35  1  0
 35 36  1  0
 33 37  1  0
 37 38  1  0
 38 39  1  0
 39 40  1  0
 40 41  1  0
 41 42  1  0
 42 43  1  0
 41 44  2  0
 44 45  1  0
 45 46  1  0
 46 47  1  0
 47 48  1  0
 48 49  1  0
 49 50  1  0
 50 51  1  0
 51 52  1  0
 52 53  1  0
 53 54  1  0
 51 55  1  0
 55 56  1  0
 48 57  1  0
 57 58  1  0
 44 59  1  0
 59 60  2  0
 60 61  1  0
 61 62  3  0
 60 63  1  0
 63 64  2  3
 64 65  1  0
 65 66  3  0
 64 67  1  0
 67 68  3  0
 63 69  1  0
 69 70  1  0
 70 71  1  0
 70 72  1  0
 11  2  1  0
 23 17  1  0
 54 24  1  0
 70 59  1  0
 10  5  1  0
 22 18  1  0
 53 28  2  0
 23  7  1  0
 52 30  2  0
 50 31  2  0
 36 32  2  0
 49 37  2  0
 47 38  2  0
 46 40  2  0
  1 73  1  0
  6 74  1  0
  9 75  1  0
 17 76  1  0
 18 77  1  0
 19 78  1  0
 20 79  1  0
 21 80  1  0
 22 81  1  0
 22 82  1  0
 23 83  1  0
 26 84  1  0
 26 85  1  0
 27 86  1  0
 27 87  1  0
 27 88  1  0
 42 89  1  0
 42 90  1  0
 43 91  1  0
 43 92  1  0
 43 93  1  0
 55 94  1  0
 55 95  1  0
 56 96  1  0
 56 97  1  0
 56 98  1  0
 57 99  1  0
 57100  1  0
 58101  1  0
 58102  1  0
 58103  1  0
 71104  1  0
 71105  1  0
 71106  1  0
 72107  1  0
 72108  1  0
 72109  1  0
M  END

