
     RDKit          3D

 98112  0  0  0  0  0  0  0  0999 V2000
   -7.7372    0.4013   -2.6354 C   0  0  0  0  0  0  0  0  0  0  0  0
   -7.1721    1.5703   -1.9791 C   0  0  0  0  0  0  0  0  0  0  0  0
   -7.0288    2.7713   -1.6744 C   0  0  0  0  0  0  0  0  0  0  0  0
   -6.8868    3.6086   -2.8295 O   0  0  0  0  0  0  0  0  0  0  0  0
   -7.0159    3.3230   -0.4473 C   0  0  0  0  0  0  0  0  0  0  0  0
   -6.6413    4.6409   -0.0756 C   0  0  0  0  0  0  0  0  0  0  0  0
   -6.4280    4.8057    1.3059 C   0  0  0  0  0  0  0  0  0  0  0  0
   -6.5910    3.7684    2.1187 C   0  0  0  0  0  0  0  0  0  0  0  0
   -6.9854    2.4534    1.6635 C   0  0  0  0  0  0  0  0  0  0  0  0
   -7.1819    2.3233    0.3532 C   0  0  0  0  0  0  0  0  0  0  0  0
   -7.3743    0.8012   -0.5064 C   0  0  0  0  0  0  0  0  0  0  0  0
   -7.5327    0.2226    0.6243 C   0  0  0  0  0  0  0  0  0  0  0  0
   -7.0425   -1.3470    0.5776 C   0  0  0  0  0  0  0  0  0  0  0  0
   -6.7012   -2.4785    0.5514 N   0  0  0  0  0  0  0  0  0  0  0  0
   -8.0221    0.4029    1.5614 C   0  0  0  0  0  0  0  0  0  0  0  0
   -8.7593    0.6510    2.9938 N   0  0  0  0  0  0  0  0  0  0  0  0
   -6.2745    4.5377    3.3584 C   0  0  0  0  0  0  0  0  0  0  0  0
   -4.9491    4.2501    3.9415 C   0  0  0  0  0  0  0  0  0  0  0  0
   -4.5615    5.3861    4.8087 C   0  0  0  0  0  0  0  0  0  0  0  0
   -4.3692    6.4600    3.9798 C   0  0  0  0  0  0  0  0  0  0  0  0
   -4.5603    5.9241    2.5532 C   0  0  0  0  0  0  0  0  0  0  0  0
   -4.0211    4.5667    2.7750 C   0  0  0  0  0  0  0  0  0  0  0  0
   -6.0058    5.7243    2.3676 C   0  0  0  0  0  0  0  0  0  0  0  0
   -6.7858   -0.6341   -2.2188 C   0  0  0  0  0  0  0  0  0  0  0  0
   -6.3855   -1.9466   -2.4364 C   0  0  0  0  0  0  0  0  0  0  0  0
   -5.1244   -2.0265   -2.0188 C   0  0  0  0  0  0  0  0  0  0  0  0
   -4.4030   -3.9176   -2.1843 S   0  0  0  0  0  0  0  0  0  0  0  0
   -2.8454   -3.4441   -1.5379 C   0  0  0  0  0  0  0  0  0  0  0  0
   -1.5627   -3.8957   -1.2648 C   0  0  0  0  0  0  0  0  0  0  0  0
   -1.0097   -5.1307   -1.4707 C   0  0  0  0  0  0  0  0  0  0  0  0
    0.3465   -5.3100   -1.2114 C   0  0  0  0  0  0  0  0  0  0  0  0
    0.8366   -6.4457   -1.5470 N   0  0  0  0  0  0  0  0  0  0  0  0
   -0.4050   -7.3167   -2.2040 S   0  0  0  0  0  0  0  0  0  0  0  0
   -1.6229   -6.1995   -2.0627 N   0  0  0  0  0  0  0  0  0  0  0  0
    1.0391   -4.1694   -0.7297 C   0  0  0  0  0  0  0  0  0  0  0  0
    2.3460   -4.1097   -0.3556 C   0  0  0  0  0  0  0  0  0  0  0  0
    2.5434   -2.7260    0.1035 C   0  0  0  0  0  0  0  0  0  0  0  0
    1.3877   -2.1168   -0.0328 N   0  0  0  0  0  0  0  0  0  0  0  0
    1.1744   -0.7686    0.4257 C   0  0  0  0  0  0  0  0  0  0  0  0
    1.5797    0.2985   -0.5061 C   0  0  0  0  0  0  0  0  0  0  0  0
    0.4799   -2.9543   -0.5230 C   0  0  0  0  0  0  0  0  0  0  0  0
   -0.8963   -2.7406   -0.7874 C   0  0  0  0  0  0  0  0  0  0  0  0
   -1.6889   -1.7150   -0.7829 N   0  0  0  0  0  0  0  0  0  0  0  0
   -2.9504   -2.1330   -1.2700 C   0  0  0  0  0  0  0  0  0  0  0  0
   -4.1252   -1.8298   -1.6152 C   0  0  0  0  0  0  0  0  0  0  0  0
   -5.1389    0.2123   -1.4113 Se  0  0  0  0  0  2  0  0  0  0  0  0
   -1.5164   -0.3012   -0.5884 C   0  0  0  0  0  0  0  0  0  0  0  0
   -1.4808    0.4436   -1.9376 C   0  0  0  0  0  0  0  0  0  0  0  0
    3.8885   -2.8839    0.4353 C   0  0  0  0  0  0  0  0  0  0  0  0
    4.7321   -3.2323    0.5701 C   0  0  0  0  0  0  0  0  0  0  0  0
    3.8770   -4.8631   -0.1616 S   0  0  0  0  0  0  0  0  0  0  0  0
    5.9927   -3.2768    1.0522 C   0  0  0  0  0  0  0  0  0  0  0  0
    6.1956   -1.8640    1.9132 C   0  0  0  0  0  0  0  0  0  0  0  0
    4.6772   -1.2471    1.6163 Se  0  0  0  0  0  2  0  0  0  0  0  0
    7.6406   -2.0428    2.3258 C   0  0  0  0  0  0  0  0  0  0  0  0
    8.6152   -2.1907    1.4171 C   0  0  0  0  0  0  0  0  0  0  0  0
    8.5900   -2.2184   -0.0153 C   0  0  0  0  0  0  0  0  0  0  0  0
    7.6057   -2.0263   -0.7847 O   0  0  0  0  0  0  0  0  0  0  0  0
    9.9453   -2.4884   -0.4722 C   0  0  0  0  0  0  0  0  0  0  0  0
   10.7874   -2.6379    0.5922 C   0  0  0  0  0  0  0  0  0  0  0  0
   12.1648   -2.7448    0.3957 C   0  0  0  0  0  0  0  0  0  0  0  0
   12.6793   -2.6728   -0.9269 C   0  0  0  0  0  0  0  0  0  0  0  0
   14.0299   -2.7481   -1.0908 F   0  0  0  0  0  0  0  0  0  0  0  0
   11.8334   -2.5211   -1.9689 C   0  0  0  0  0  0  0  0  0  0  0  0
   12.3700   -2.4303   -3.2154 F   0  0  0  0  0  0  0  0  0  0  0  0
   10.4955   -2.4384   -1.7712 C   0  0  0  0  0  0  0  0  0  0  0  0
    9.6601   -2.3143   -2.7621 F   0  0  0  0  0  0  0  0  0  0  0  0
   10.0041   -2.4652    1.8675 C   0  0  0  0  0  0  0  0  0  0  0  0
   10.6391   -2.1763    2.9969 C   0  0  0  0  0  0  0  0  0  0  0  0
   10.1132   -1.4060    4.0739 C   0  0  0  0  0  0  0  0  0  0  0  0
    9.6822   -0.7801    4.9205 N   0  0  0  0  0  0  0  0  0  0  0  0
   11.7649   -3.0376    3.2626 C   0  0  0  0  0  0  0  0  0  0  0  0
   12.7293   -3.8013    3.4983 N   0  0  0  0  0  0  0  0  0  0  0  0
   -8.5713    0.4267   -3.1973 H   0  0  0  0  0  0  0  0  0  0  0  0
   -6.5057    5.4313   -0.7602 H   0  0  0  0  0  0  0  0  0  0  0  0
   -6.9656    1.7716    2.4960 H   0  0  0  0  0  0  0  0  0  0  0  0
   -7.1077    4.7622    4.0242 H   0  0  0  0  0  0  0  0  0  0  0  0
   -4.7940    3.2912    4.3644 H   0  0  0  0  0  0  0  0  0  0  0  0
   -4.4969    5.3318    5.8610 H   0  0  0  0  0  0  0  0  0  0  0  0
   -4.1574    7.4586    4.3315 H   0  0  0  0  0  0  0  0  0  0  0  0
   -4.0239    6.5515    1.8058 H   0  0  0  0  0  0  0  0  0  0  0  0
   -2.9712    4.5598    3.1066 H   0  0  0  0  0  0  0  0  0  0  0  0
   -4.2064    3.8940    1.8977 H   0  0  0  0  0  0  0  0  0  0  0  0
   -6.6944    6.5816    2.5149 H   0  0  0  0  0  0  0  0  0  0  0  0
   -7.1642   -2.5754   -2.8528 H   0  0  0  0  0  0  0  0  0  0  0  0
    0.3829   -0.6928    1.1064 H   0  0  0  0  0  0  0  0  0  0  0  0
    2.0282   -0.6227    1.2714 H   0  0  0  0  0  0  0  0  0  0  0  0
    2.6883    0.5974   -0.4032 H   0  0  0  0  0  0  0  0  0  0  0  0
    1.4715    0.1265   -1.5787 H   0  0  0  0  0  0  0  0  0  0  0  0
    1.0575    1.3037   -0.2604 H   0  0  0  0  0  0  0  0  0  0  0  0
   -0.9949    0.1550    0.2178 H   0  0  0  0  0  0  0  0  0  0  0  0
   -2.6068    0.0828   -0.1923 H   0  0  0  0  0  0  0  0  0  0  0  0
   -2.3588    0.0390   -2.4913 H   0  0  0  0  0  0  0  0  0  0  0  0
   -0.6087    0.4368   -2.4782 H   0  0  0  0  0  0  0  0  0  0  0  0
   -1.8064    1.5370   -1.7946 H   0  0  0  0  0  0  0  0  0  0  0  0
    6.8134   -3.7824    1.1393 H   0  0  0  0  0  0  0  0  0  0  0  0
    7.8776   -2.0319    3.3546 H   0  0  0  0  0  0  0  0  0  0  0  0
   12.8793   -2.8206    1.1652 H   0  0  0  0  0  0  0  0  0  0  0  0
  1  2  2  3
  2  3  1  0
  3  4  2  0
  3  5  1  0
  5  6  2  0
  6  7  1  0
  7  8  2  0
  8  9  1  0
  9 10  2  0
 10 11  1  0
 11 12  2  3
 12 13  1  0
 13 14  3  0
 12 15  1  0
 15 16  3  0
  8 17  1  0
 17 18  1  0
 18 19  1  0
 19 20  2  0
 20 21  1  0
 21 22  1  0
 21 23  1  0
  1 24  1  0
 24 25  2  0
 25 26  1  0
 26 27  1  0
 27 28  1  0
 28 29  1  0
 29 30  1  0
 30 31  1  0
 31 32  2  0
 32 33  1  0
 33 34  1  0
 31 35  1  0
 35 36  1  0
 36 37  2  0
 37 38  1  0
 38 39  1  0
 39 40  1  0
 38 41  1  0
 41 42  1  0
 42 43  1  0
 43 44  1  0
 44 45  1  0
 45 46  1  0
 43 47  1  0
 47 48  1  0
 37 49  1  0
 49 50  2  0
 50 51  1  0
 50 52  1  0
 52 53  2  0
 53 54  1  0
 53 55  1  0
 55 56  2  3
 56 57  1  0
 57 58  2  0
 57 59  1  0
 59 60  2  0
 60 61  1  0
 61 62  2  0
 62 63  1  0
 62 64  1  0
 64 65  1  0
 64 66  2  0
 66 67  1  0
 60 68  1  0
 68 69  2  3
 69 70  1  0
 70 71  3  0
 69 72  1  0
 72 73  3  0
 11  2  1  0
 23 17  1  0
 46 24  1  0
 54 49  1  0
 68 56  1  0
 10  5  1  0
 22 18  1  0
 45 26  2  0
 66 59  1  0
 23  7  1  0
 44 28  2  0
 42 29  2  0
 34 30  2  0
 41 35  2  0
 51 36  1  0
  1 74  1  0
  6 75  1  0
  9 76  1  0
 17 77  1  0
 18 78  1  0
 19 79  1  0
 20 80  1  0
 21 81  1  0
 22 82  1  0
 22 83  1  0
 23 84  1  0
 25 85  1  0
 39 86  1  0
 39 87  1  0
 40 88  1  0
 40 89  1  0
 40 90  1  0
 47 91  1  0
 47 92  1  0
 48 93  1  0
 48 94  1  0
 48 95  1  0
 52 96  1  0
 55 97  1  0
 61 98  1  0
M  END

