
     RDKit          3D

108121  0  0  0  0  0  0  0  0999 V2000
    2.0266   -6.3912    1.8973 C   0  0  0  0  0  0  0  0  0  0  0  0
    1.7576   -6.4663    0.5784 C   0  0  0  0  0  0  0  0  0  0  0  0
    1.4335   -5.3193   -0.2842 C   0  0  0  0  0  0  0  0  0  0  0  0
    1.7707   -4.1208   -0.0956 O   0  0  0  0  0  0  0  0  0  0  0  0
    0.6295   -5.7824   -1.3885 C   0  0  0  0  0  0  0  0  0  0  0  0
   -0.0642   -4.9811   -2.3207 C   0  0  0  0  0  0  0  0  0  0  0  0
   -0.9057   -5.6970   -3.1439 C   0  0  0  0  0  0  0  0  0  0  0  0
   -1.0710   -7.1195   -3.0568 C   0  0  0  0  0  0  0  0  0  0  0  0
   -0.3818   -7.9122   -2.1480 C   0  0  0  0  0  0  0  0  0  0  0  0
    0.5151   -7.1933   -1.3110 C   0  0  0  0  0  0  0  0  0  0  0  0
    1.3475   -7.6845   -0.1748 C   0  0  0  0  0  0  0  0  0  0  0  0
    1.8290   -8.9388   -0.0075 C   0  0  0  0  0  0  0  0  0  0  0  0
    2.8069   -9.2491    1.0025 C   0  0  0  0  0  0  0  0  0  0  0  0
    3.6009   -9.5107    1.8036 N   0  0  0  0  0  0  0  0  0  0  0  0
    1.5114  -10.0085   -0.9195 C   0  0  0  0  0  0  0  0  0  0  0  0
    1.2641  -10.8732   -1.6479 N   0  0  0  0  0  0  0  0  0  0  0  0
   -2.1312   -7.0759   -4.1204 C   0  0  0  0  0  0  0  0  0  0  0  0
   -3.6234   -7.2192   -3.6812 C   0  0  0  0  0  0  0  0  0  0  0  0
   -3.8083   -6.6648   -2.2848 C   0  0  0  0  0  0  0  0  0  0  0  0
   -3.6360   -5.3449   -2.3754 C   0  0  0  0  0  0  0  0  0  0  0  0
   -3.3429   -5.0475   -3.8279 C   0  0  0  0  0  0  0  0  0  0  0  0
   -4.2415   -6.0841   -4.4726 C   0  0  0  0  0  0  0  0  0  0  0  0
   -1.9461   -5.6224   -4.2188 C   0  0  0  0  0  0  0  0  0  0  0  0
    1.8871   -5.1184    2.6262 C   0  0  0  0  0  0  0  0  0  0  0  0
    0.6632   -4.4603    2.6901 C   0  0  0  0  0  0  0  0  0  0  0  0
    0.9839   -3.1531    2.9874 C   0  0  0  0  0  0  0  0  0  0  0  0
    2.3269   -3.0710    3.1432 C   0  0  0  0  0  0  0  0  0  0  0  0
    2.9206   -4.2719    2.9065 N   0  0  0  0  0  0  0  0  0  0  0  0
    4.3393   -4.5835    2.7056 C   0  0  0  0  0  0  0  0  0  0  0  0
    4.7739   -4.3121    1.2653 C   0  0  0  0  0  0  0  0  0  0  0  0
    2.6822   -1.7680    2.8261 C   0  0  0  0  0  0  0  0  0  0  0  0
    3.9217   -1.1226    2.6421 C   0  0  0  0  0  0  0  0  0  0  0  0
    3.9420    0.1932    2.0864 C   0  0  0  0  0  0  0  0  0  0  0  0
    5.1526    0.7827    1.9349 N   0  0  0  0  0  0  0  0  0  0  0  0
    6.1234   -0.4159    2.5263 S   0  0  0  0  0  0  0  0  0  0  0  0
    5.1213   -1.6524    2.9775 N   0  0  0  0  0  0  0  0  0  0  0  0
    2.7308    0.8154    1.7809 C   0  0  0  0  0  0  0  0  0  0  0  0
    2.4501    2.0931    1.3869 C   0  0  0  0  0  0  0  0  0  0  0  0
    3.2581    3.5463    1.0406 S   0  0  0  0  0  0  0  0  0  0  0  0
    1.7705    4.3764    0.9395 C   0  0  0  0  0  0  0  0  0  0  0  0
    1.4173    5.6904    0.6292 C   0  0  0  0  0  0  0  0  0  0  0  0
    2.4039    6.7856    0.3371 C   0  0  0  0  0  0  0  0  0  0  0  0
    2.7759    7.5310    1.6160 C   0  0  0  0  0  0  0  0  0  0  0  0
    0.0199    5.8459    0.6475 C   0  0  0  0  0  0  0  0  0  0  0  0
   -0.7252    4.3802    1.1032 S   0  0  0  0  0  0  0  0  0  0  0  0
    0.7150    3.5417    1.2072 C   0  0  0  0  0  0  0  0  0  0  0  0
    1.1055    2.2389    1.4503 C   0  0  0  0  0  0  0  0  0  0  0  0
    0.4697    1.1213    1.8754 N   0  0  0  0  0  0  0  0  0  0  0  0
    1.4899    0.2105    2.0248 C   0  0  0  0  0  0  0  0  0  0  0  0
    1.4670   -1.1294    2.4998 C   0  0  0  0  0  0  0  0  0  0  0  0
    0.4225   -2.0153    2.5116 N   0  0  0  0  0  0  0  0  0  0  0  0
   -0.6999   -2.0364    1.5638 C   0  0  0  0  0  0  0  0  0  0  0  0
   -2.0282   -2.3290    2.2611 C   0  0  0  0  0  0  0  0  0  0  0  0
   -0.8487    1.1165    2.5203 C   0  0  0  0  0  0  0  0  0  0  0  0
   -1.9890    1.1941    1.4917 C   0  0  0  0  0  0  0  0  0  0  0  0
   -0.7064    7.0864    0.3401 C   0  0  0  0  0  0  0  0  0  0  0  0
   -1.6548    7.1701   -0.6138 C   0  0  0  0  0  0  0  0  0  0  0  0
   -1.9162    6.1633   -1.6554 C   0  0  0  0  0  0  0  0  0  0  0  0
   -1.4283    5.0051   -1.7206 O   0  0  0  0  0  0  0  0  0  0  0  0
   -2.7287    6.7659   -2.6860 C   0  0  0  0  0  0  0  0  0  0  0  0
   -3.1305    6.2055   -3.8994 C   0  0  0  0  0  0  0  0  0  0  0  0
   -3.8371    7.0071   -4.8049 C   0  0  0  0  0  0  0  0  0  0  0  0
   -4.2382    6.4897   -5.9908 F   0  0  0  0  0  0  0  0  0  0  0  0
   -4.1006    8.3537   -4.4991 C   0  0  0  0  0  0  0  0  0  0  0  0
   -3.6713    8.9050   -3.2782 C   0  0  0  0  0  0  0  0  0  0  0  0
   -3.0014    8.0811   -2.3541 C   0  0  0  0  0  0  0  0  0  0  0  0
   -2.4336    8.3855   -1.0076 C   0  0  0  0  0  0  0  0  0  0  0  0
   -2.7496    9.4416   -0.2137 C   0  0  0  0  0  0  0  0  0  0  0  0
   -3.6166   10.5097   -0.6482 C   0  0  0  0  0  0  0  0  0  0  0  0
   -4.3123   11.3761   -0.9765 N   0  0  0  0  0  0  0  0  0  0  0  0
   -2.3410    9.5243    1.1649 C   0  0  0  0  0  0  0  0  0  0  0  0
   -2.0156    9.6026    2.2734 N   0  0  0  0  0  0  0  0  0  0  0  0
    2.1175   -7.2803    2.4991 H   0  0  0  0  0  0  0  0  0  0  0  0
   -0.0062   -3.8991   -2.3430 H   0  0  0  0  0  0  0  0  0  0  0  0
   -0.5834   -8.9693   -2.0595 H   0  0  0  0  0  0  0  0  0  0  0  0
   -1.8623   -7.6285   -5.0488 H   0  0  0  0  0  0  0  0  0  0  0  0
   -4.0688   -8.2217   -3.8458 H   0  0  0  0  0  0  0  0  0  0  0  0
   -4.0995   -7.2053   -1.3912 H   0  0  0  0  0  0  0  0  0  0  0  0
   -3.7629   -4.6239   -1.5731 H   0  0  0  0  0  0  0  0  0  0  0  0
   -3.5273   -3.9986   -4.1371 H   0  0  0  0  0  0  0  0  0  0  0  0
   -5.3295   -5.9297   -4.2526 H   0  0  0  0  0  0  0  0  0  0  0  0
   -4.0872   -6.1739   -5.5764 H   0  0  0  0  0  0  0  0  0  0  0  0
   -1.5561   -5.2872   -5.2040 H   0  0  0  0  0  0  0  0  0  0  0  0
   -0.2730   -4.8269    2.2902 H   0  0  0  0  0  0  0  0  0  0  0  0
    4.5144   -5.6586    2.9275 H   0  0  0  0  0  0  0  0  0  0  0  0
    4.9585   -4.0259    3.4324 H   0  0  0  0  0  0  0  0  0  0  0  0
    4.4916   -3.2918    0.9480 H   0  0  0  0  0  0  0  0  0  0  0  0
    5.8763   -4.4165    1.1839 H   0  0  0  0  0  0  0  0  0  0  0  0
    4.3085   -5.0422    0.5733 H   0  0  0  0  0  0  0  0  0  0  0  0
    3.3244    6.3574   -0.1165 H   0  0  0  0  0  0  0  0  0  0  0  0
    1.9708    7.5012   -0.3962 H   0  0  0  0  0  0  0  0  0  0  0  0
    1.8756    8.0076    2.0642 H   0  0  0  0  0  0  0  0  0  0  0  0
    3.5223    8.3215    1.3816 H   0  0  0  0  0  0  0  0  0  0  0  0
    3.2239    6.8305    2.3501 H   0  0  0  0  0  0  0  0  0  0  0  0
   -0.7590   -1.0958    0.9984 H   0  0  0  0  0  0  0  0  0  0  0  0
   -0.5197   -2.8064    0.7836 H   0  0  0  0  0  0  0  0  0  0  0  0
   -2.8606   -2.2163    1.5345 H   0  0  0  0  0  0  0  0  0  0  0  0
   -2.0467   -3.3653    2.6496 H   0  0  0  0  0  0  0  0  0  0  0  0
   -2.2001   -1.6383    3.1106 H   0  0  0  0  0  0  0  0  0  0  0  0
   -0.9261    1.9838    3.2139 H   0  0  0  0  0  0  0  0  0  0  0  0
   -0.9543    0.2245    3.1645 H   0  0  0  0  0  0  0  0  0  0  0  0
   -1.6261    0.9449    0.4682 H   0  0  0  0  0  0  0  0  0  0  0  0
   -2.4325    2.2146    1.4561 H   0  0  0  0  0  0  0  0  0  0  0  0
   -2.7985    0.4842    1.7680 H   0  0  0  0  0  0  0  0  0  0  0  0
   -0.3769    7.9750    0.8523 H   0  0  0  0  0  0  0  0  0  0  0  0
   -2.8970    5.1734   -4.1369 H   0  0  0  0  0  0  0  0  0  0  0  0
   -4.6147    8.9778   -5.2161 H   0  0  0  0  0  0  0  0  0  0  0  0
   -3.8481    9.9534   -3.0998 H   0  0  0  0  0  0  0  0  0  0  0  0
  1  2  2  3
  2  3  1  0
  3  4  2  0
  3  5  1  0
  5  6  2  0
  6  7  1  0
  7  8  2  0
  8  9  1  0
  9 10  2  0
 10 11  1  0
 11 12  2  3
 12 13  1  0
 13 14  3  0
 12 15  1  0
 15 16  3  0
  8 17  1  0
 17 18  1  0
 18 19  1  0
 19 20  2  0
 20 21  1  0
 21 22  1  0
 21 23  1  0
  1 24  1  0
 24 25  2  0
 25 26  1  0
 26 27  2  0
 27 28  1  0
 28 29  1  0
 29 30  1  0
 27 31  1  0
 31 32  1  0
 32 33  1  0
 33 34  2  0
 34 35  1  0
 35 36  1  0
 33 37  1  0
 37 38  1  0
 38 39  1  0
 39 40  1  0
 40 41  1  0
 41 42  1  0
 42 43  1  0
 41 44  2  0
 44 45  1  0
 45 46  1  0
 46 47  1  0
 47 48  1  0
 48 49  1  0
 49 50  1  0
 50 51  1  0
 51 52  1  0
 52 53  1  0
 48 54  1  0
 54 55  1  0
 44 56  1  0
 56 57  2  3
 57 58  1  0
 58 59  2  0
 58 60  1  0
 60 61  2  0
 61 62  1  0
 62 63  1  0
 62 64  2  0
 64 65  1  0
 65 66  2  0
 66 67  1  0
 67 68  2  3
 68 69  1  0
 69 70  3  0
 68 71  1  0
 71 72  3  0
 11  2  1  0
 23 17  1  0
 28 24  1  0
 50 31  2  0
 67 57  1  0
 10  5  1  0
 22 18  1  0
 51 26  1  0
 66 60  1  0
 23  7  1  0
 36 32  2  0
 49 37  2  0
 47 38  2  0
 46 40  2  0
  1 73  1  0
  6 74  1  0
  9 75  1  0
 17 76  1  0
 18 77  1  0
 19 78  1  0
 20 79  1  0
 21 80  1  0
 22 81  1  0
 22 82  1  0
 23 83  1  0
 25 84  1  0
 29 85  1  0
 29 86  1  0
 30 87  1  0
 30 88  1  0
 30 89  1  0
 42 90  1  0
 42 91  1  0
 43 92  1  0
 43 93  1  0
 43 94  1  0
 52 95  1  0
 52 96  1  0
 53 97  1  0
 53 98  1  0
 53 99  1  0
 54100  1  0
 54101  1  0
 55102  1  0
 55103  1  0
 55104  1  0
 56105  1  0
 61106  1  0
 64107  1  0
 65108  1  0
M  END

