
     RDKit          3D

130146  0  0  0  0  0  0  0  0999 V2000
    2.2042    6.1689    1.6810 C   0  0  0  0  0  0  0  0  0  0  0  0
    2.3436    5.5678    2.8577 C   0  0  0  0  0  0  0  0  0  0  0  0
    3.4152    5.9339    3.8111 C   0  0  0  0  0  0  0  0  0  0  0  0
    4.3426    6.7643    3.6109 O   0  0  0  0  0  0  0  0  0  0  0  0
    3.4016    4.9653    4.9583 C   0  0  0  0  0  0  0  0  0  0  0  0
    4.2174    4.8844    6.0964 C   0  0  0  0  0  0  0  0  0  0  0  0
    3.8332    3.8927    6.9944 C   0  0  0  0  0  0  0  0  0  0  0  0
    2.7378    3.0664    6.7931 C   0  0  0  0  0  0  0  0  0  0  0  0
    1.9327    3.1053    5.6193 C   0  0  0  0  0  0  0  0  0  0  0  0
    2.3407    4.1013    4.6378 C   0  0  0  0  0  0  0  0  0  0  0  0
    1.6915    4.3936    3.4049 C   0  0  0  0  0  0  0  0  0  0  0  0
    0.4195    4.0772    3.2755 C   0  0  0  0  0  0  0  0  0  0  0  0
   -0.4274    4.7467    4.3108 C   0  0  0  0  0  0  0  0  0  0  0  0
   -1.1512    5.2938    5.0289 N   0  0  0  0  0  0  0  0  0  0  0  0
    0.0506    2.7233    3.1020 C   0  0  0  0  0  0  0  0  0  0  0  0
   -0.2063    1.6195    2.8387 N   0  0  0  0  0  0  0  0  0  0  0  0
    3.0636    2.2228    7.9120 C   0  0  0  0  0  0  0  0  0  0  0  0
    3.7058    0.8422    7.5442 C   0  0  0  0  0  0  0  0  0  0  0  0
    4.5258    0.9857    6.2514 C   0  0  0  0  0  0  0  0  0  0  0  0
    5.5921    1.7602    6.5648 C   0  0  0  0  0  0  0  0  0  0  0  0
    5.4206    2.1355    8.0389 C   0  0  0  0  0  0  0  0  0  0  0  0
    4.8187    0.8439    8.5480 C   0  0  0  0  0  0  0  0  0  0  0  0
    4.2144    3.0838    8.2050 C   0  0  0  0  0  0  0  0  0  0  0  0
    1.4515    5.7184    0.5183 C   0  0  0  0  0  0  0  0  0  0  0  0
    1.7287    6.0501   -0.8506 C   0  0  0  0  0  0  0  0  0  0  0  0
    2.5413    7.2325   -1.1893 C   0  0  0  0  0  0  0  0  0  0  0  0
    1.8922    8.4607   -1.2598 C   0  0  0  0  0  0  0  0  0  0  0  0
    2.6373    9.6732   -1.4144 C   0  0  0  0  0  0  0  0  0  0  0  0
    4.0047    9.5935   -1.4938 C   0  0  0  0  0  0  0  0  0  0  0  0
    4.6736    8.3929   -1.3878 C   0  0  0  0  0  0  0  0  0  0  0  0
    3.9416    7.1654   -1.2171 C   0  0  0  0  0  0  0  0  0  0  0  0
    4.7142    5.8928   -1.1650 C   0  0  0  0  0  0  0  0  0  0  0  0
    4.7659    5.2399   -2.5489 C   0  0  0  0  0  0  0  0  0  0  0  0
    0.9766    5.2867   -1.7642 C   0  0  0  0  0  0  0  0  0  0  0  0
    1.1358    4.8617   -3.4544 S   0  0  0  0  0  0  0  0  0  0  0  0
   -0.0123    3.6488   -3.3052 C   0  0  0  0  0  0  0  0  0  0  0  0
   -0.3789    2.4829   -3.9371 C   0  0  0  0  0  0  0  0  0  0  0  0
    0.0371    1.9676   -5.1345 C   0  0  0  0  0  0  0  0  0  0  0  0
   -0.2836    0.6154   -5.4757 C   0  0  0  0  0  0  0  0  0  0  0  0
    0.2271    0.1379   -6.6502 N   0  0  0  0  0  0  0  0  0  0  0  0
    1.0449    1.4665   -7.1795 S   0  0  0  0  0  0  0  0  0  0  0  0
    0.8231    2.6383   -6.0533 N   0  0  0  0  0  0  0  0  0  0  0  0
   -1.0597   -0.1531   -4.6470 C   0  0  0  0  0  0  0  0  0  0  0  0
   -1.3976   -1.4401   -4.7533 C   0  0  0  0  0  0  0  0  0  0  0  0
   -0.8109   -2.8686   -5.4229 S   0  0  0  0  0  0  0  0  0  0  0  0
   -1.8320   -3.7848   -4.2750 C   0  0  0  0  0  0  0  0  0  0  0  0
   -2.0728   -5.1780   -3.9250 C   0  0  0  0  0  0  0  0  0  0  0  0
   -1.5194   -6.2899   -4.6403 C   0  0  0  0  0  0  0  0  0  0  0  0
   -0.2662   -6.8206   -4.3273 C   0  0  0  0  0  0  0  0  0  0  0  0
    0.6238   -6.1735   -3.2508 C   0  0  0  0  0  0  0  0  0  0  0  0
    0.1464   -6.4844   -1.8547 C   0  0  0  0  0  0  0  0  0  0  0  0
    0.2150   -7.9314   -5.0339 C   0  0  0  0  0  0  0  0  0  0  0  0
   -0.5683   -8.5526   -6.0499 C   0  0  0  0  0  0  0  0  0  0  0  0
   -1.8712   -8.0489   -6.2960 C   0  0  0  0  0  0  0  0  0  0  0  0
   -2.3505   -6.9687   -5.5372 C   0  0  0  0  0  0  0  0  0  0  0  0
   -3.1108   -5.3525   -2.8815 C   0  0  0  0  0  0  0  0  0  0  0  0
   -3.8573   -3.8188   -2.9906 S   0  0  0  0  0  0  0  0  0  0  0  0
   -2.6717   -2.9791   -3.7480 C   0  0  0  0  0  0  0  0  0  0  0  0
   -2.2667   -1.6892   -3.7098 C   0  0  0  0  0  0  0  0  0  0  0  0
   -2.4698   -0.5865   -2.9271 N   0  0  0  0  0  0  0  0  0  0  0  0
   -1.5891    0.3857   -3.4442 C   0  0  0  0  0  0  0  0  0  0  0  0
   -1.1702    1.7109   -3.0209 C   0  0  0  0  0  0  0  0  0  0  0  0
   -1.2137    2.4480   -1.8324 N   0  0  0  0  0  0  0  0  0  0  0  0
   -0.5265    3.5579   -2.0413 C   0  0  0  0  0  0  0  0  0  0  0  0
    0.0776    4.5015   -1.1697 C   0  0  0  0  0  0  0  0  0  0  0  0
    0.1850    4.6134    0.4848 S   0  0  0  0  0  0  0  0  0  0  0  0
   -1.8950    2.1114   -0.5277 C   0  0  0  0  0  0  0  0  0  0  0  0
   -3.3268    2.6619   -0.5160 C   0  0  0  0  0  0  0  0  0  0  0  0
   -3.4830   -0.5060   -1.8953 C   0  0  0  0  0  0  0  0  0  0  0  0
   -4.7565    0.2537   -2.4109 C   0  0  0  0  0  0  0  0  0  0  0  0
   -3.4249   -6.4956   -1.8869 C   0  0  0  0  0  0  0  0  0  0  0  0
   -3.8371   -6.3942   -0.5933 C   0  0  0  0  0  0  0  0  0  0  0  0
   -4.0436   -5.1533    0.2457 C   0  0  0  0  0  0  0  0  0  0  0  0
   -4.1250   -3.9388   -0.1085 O   0  0  0  0  0  0  0  0  0  0  0  0
   -4.2508   -5.5228    1.6550 C   0  0  0  0  0  0  0  0  0  0  0  0
   -4.3559   -6.8633    1.7754 C   0  0  0  0  0  0  0  0  0  0  0  0
   -4.7584   -7.4801    2.9939 C   0  0  0  0  0  0  0  0  0  0  0  0
   -5.0052   -6.7001    4.1608 C   0  0  0  0  0  0  0  0  0  0  0  0
   -4.8823   -5.2993    4.0998 C   0  0  0  0  0  0  0  0  0  0  0  0
   -5.3612   -4.2709    5.6714 Br  0  0  0  0  0  0  0  0  0  0  0  0
   -4.5020   -4.7233    2.8165 C   0  0  0  0  0  0  0  0  0  0  0  0
   -4.4284   -3.0198    2.7314 Cl  0  0  0  0  0  0  0  0  0  0  0  0
   -4.0961   -7.5152    0.4462 C   0  0  0  0  0  0  0  0  0  0  0  0
   -3.6658   -8.8734    0.3108 C   0  0  0  0  0  0  0  0  0  0  0  0
   -4.2418   -9.9207   -0.5125 C   0  0  0  0  0  0  0  0  0  0  0  0
   -4.7038  -10.8401   -1.1211 N   0  0  0  0  0  0  0  0  0  0  0  0
   -2.8405   -9.4187    1.4465 C   0  0  0  0  0  0  0  0  0  0  0  0
   -2.1901   -9.9221    2.3297 N   0  0  0  0  0  0  0  0  0  0  0  0
    2.8646    6.9975    1.4995 H   0  0  0  0  0  0  0  0  0  0  0  0
    5.0757    5.5669    6.2655 H   0  0  0  0  0  0  0  0  0  0  0  0
    1.0890    2.4381    5.4965 H   0  0  0  0  0  0  0  0  0  0  0  0
    2.2439    2.2272    8.6717 H   0  0  0  0  0  0  0  0  0  0  0  0
    3.0083   -0.0107    7.5567 H   0  0  0  0  0  0  0  0  0  0  0  0
    4.3228    0.5913    5.2771 H   0  0  0  0  0  0  0  0  0  0  0  0
    6.3629    2.0349    5.8904 H   0  0  0  0  0  0  0  0  0  0  0  0
    6.3284    2.4783    8.5422 H   0  0  0  0  0  0  0  0  0  0  0  0
    4.4257    0.9091    9.5969 H   0  0  0  0  0  0  0  0  0  0  0  0
    5.4775   -0.0294    8.4554 H   0  0  0  0  0  0  0  0  0  0  0  0
    4.0867    3.6472    9.1437 H   0  0  0  0  0  0  0  0  0  0  0  0
    0.8214    8.5640   -1.1728 H   0  0  0  0  0  0  0  0  0  0  0  0
    2.0982   10.6259   -1.4451 H   0  0  0  0  0  0  0  0  0  0  0  0
    4.5992   10.5250   -1.5885 H   0  0  0  0  0  0  0  0  0  0  0  0
    5.7586    8.3481   -1.4574 H   0  0  0  0  0  0  0  0  0  0  0  0
    5.7554    6.0582   -0.7868 H   0  0  0  0  0  0  0  0  0  0  0  0
    4.2557    5.1737   -0.4398 H   0  0  0  0  0  0  0  0  0  0  0  0
    3.9356    4.5258   -2.6645 H   0  0  0  0  0  0  0  0  0  0  0  0
    4.6861    6.0045   -3.3622 H   0  0  0  0  0  0  0  0  0  0  0  0
    5.7377    4.7096   -2.6889 H   0  0  0  0  0  0  0  0  0  0  0  0
    0.6314   -5.0649   -3.3960 H   0  0  0  0  0  0  0  0  0  0  0  0
    1.6835   -6.5074   -3.3965 H   0  0  0  0  0  0  0  0  0  0  0  0
   -0.4736   -5.6680   -1.4131 H   0  0  0  0  0  0  0  0  0  0  0  0
   -0.4630   -7.4291   -1.8019 H   0  0  0  0  0  0  0  0  0  0  0  0
    1.0311   -6.6036   -1.1950 H   0  0  0  0  0  0  0  0  0  0  0  0
    1.2430   -8.2816   -4.8806 H   0  0  0  0  0  0  0  0  0  0  0  0
   -0.1653   -9.3176   -6.6242 H   0  0  0  0  0  0  0  0  0  0  0  0
   -2.4780   -8.4724   -7.1256 H   0  0  0  0  0  0  0  0  0  0  0  0
   -3.3519   -6.6058   -5.7184 H   0  0  0  0  0  0  0  0  0  0  0  0
   -1.3870    2.5951    0.3282 H   0  0  0  0  0  0  0  0  0  0  0  0
   -1.7066    1.0695   -0.2616 H   0  0  0  0  0  0  0  0  0  0  0  0
   -3.3461    3.6700   -0.0520 H   0  0  0  0  0  0  0  0  0  0  0  0
   -4.0268    2.0030    0.0394 H   0  0  0  0  0  0  0  0  0  0  0  0
   -3.7160    2.8174   -1.5789 H   0  0  0  0  0  0  0  0  0  0  0  0
   -3.8301   -1.4986   -1.4940 H   0  0  0  0  0  0  0  0  0  0  0  0
   -3.2102   -0.0167   -0.9650 H   0  0  0  0  0  0  0  0  0  0  0  0
   -4.4489    1.2091   -2.9182 H   0  0  0  0  0  0  0  0  0  0  0  0
   -5.4708    0.5230   -1.6024 H   0  0  0  0  0  0  0  0  0  0  0  0
   -5.2710   -0.3932   -3.1450 H   0  0  0  0  0  0  0  0  0  0  0  0
   -3.2523   -7.4319   -2.2708 H   0  0  0  0  0  0  0  0  0  0  0  0
   -4.8667   -8.5888    3.0571 H   0  0  0  0  0  0  0  0  0  0  0  0
   -5.2986   -7.1706    5.1219 H   0  0  0  0  0  0  0  0  0  0  0  0
  1  2  2  3
  2  3  1  0
  3  4  2  0
  3  5  1  0
  5  6  2  0
  6  7  1  0
  7  8  2  0
  8  9  1  0
  9 10  2  0
 10 11  1  0
 11 12  2  3
 12 13  1  0
 13 14  3  0
 12 15  1  0
 15 16  3  0
  8 17  1  0
 17 18  1  0
 18 19  1  0
 19 20  2  0
 20 21  1  0
 21 22  1  0
 21 23  1  0
  1 24  1  0
 24 25  2  0
 25 26  1  0
 26 27  2  0
 27 28  1  0
 28 29  2  0
 29 30  1  0
 30 31  2  0
 31 32  1  0
 32 33  1  0
 25 34  1  0
 34 35  1  0
 35 36  1  0
 36 37  1  0
 37 38  1  0
 38 39  1  0
 39 40  2  0
 40 41  1  0
 41 42  1  0
 39 43  1  0
 43 44  1  0
 44 45  1  0
 45 46  1  0
 46 47  1  0
 47 48  1  0
 48 49  2  0
 49 50  1  0
 50 51  1  0
 49 52  1  0
 52 53  2  0
 53 54  1  0
 54 55  2  0
 47 56  2  0
 56 57  1  0
 57 58  1  0
 58 59  1  0
 59 60  1  0
 60 61  1  0
 61 62  1  0
 62 63  1  0
 63 64  1  0
 64 65  1  0
 65 66  1  0
 63 67  1  0
 67 68  1  0
 60 69  1  0
 69 70  1  0
 56 71  1  0
 71 72  2  3
 72 73  1  0
 73 74  2  0
 73 75  1  0
 75 76  2  0
 76 77  1  0
 77 78  2  0
 78 79  1  0
 79 80  1  0
 79 81  2  0
 81 82  1  0
 76 83  1  0
 83 84  2  3
 84 85  1  0
 85 86  3  0
 84 87  1  0
 87 88  3  0
 11  2  1  0
 23 17  1  0
 66 24  1  0
 83 72  1  0
 10  5  1  0
 22 18  1  0
 31 26  1  0
 65 34  2  0
 81 75  1  0
 23  7  1  0
 64 36  2  0
 62 37  2  0
 42 38  2  0
 61 43  2  0
 59 44  2  0
 58 46  2  0
 55 48  1  0
  1 89  1  0
  6 90  1  0
  9 91  1  0
 17 92  1  0
 18 93  1  0
 19 94  1  0
 20 95  1  0
 21 96  1  0
 22 97  1  0
 22 98  1  0
 23 99  1  0
 27100  1  0
 28101  1  0
 29102  1  0
 30103  1  0
 32104  1  0
 32105  1  0
 33106  1  0
 33107  1  0
 33108  1  0
 50109  1  0
 50110  1  0
 51111  1  0
 51112  1  0
 51113  1  0
 52114  1  0
 53115  1  0
 54116  1  0
 55117  1  0
 67118  1  0
 67119  1  0
 68120  1  0
 68121  1  0
 68122  1  0
 69123  1  0
 69124  1  0
 70125  1  0
 70126  1  0
 70127  1  0
 71128  1  0
 77129  1  0
 78130  1  0
M  END

