
     RDKit          3D

108121  0  0  0  0  0  0  0  0999 V2000
    0.0692    0.3372   -4.4651 C   0  0  0  0  0  0  0  0  0  0  0  0
   -0.1278    1.1487   -5.5209 C   0  0  0  0  0  0  0  0  0  0  0  0
   -1.2396    2.0940   -5.6705 C   0  0  0  0  0  0  0  0  0  0  0  0
   -2.3151    2.0975   -5.0068 O   0  0  0  0  0  0  0  0  0  0  0  0
   -0.9199    3.0242   -6.7320 C   0  0  0  0  0  0  0  0  0  0  0  0
   -1.6873    4.1363   -7.1514 C   0  0  0  0  0  0  0  0  0  0  0  0
   -1.1110    4.8587   -8.1799 C   0  0  0  0  0  0  0  0  0  0  0  0
    0.1552    4.5221   -8.7556 C   0  0  0  0  0  0  0  0  0  0  0  0
    0.9211    3.4482   -8.3359 C   0  0  0  0  0  0  0  0  0  0  0  0
    0.3292    2.6628   -7.3043 C   0  0  0  0  0  0  0  0  0  0  0  0
    0.8212    1.4124   -6.6503 C   0  0  0  0  0  0  0  0  0  0  0  0
    1.7908    0.5805   -7.1197 C   0  0  0  0  0  0  0  0  0  0  0  0
    2.5819    0.8830   -8.2825 C   0  0  0  0  0  0  0  0  0  0  0  0
    3.2234    1.1097   -9.2187 N   0  0  0  0  0  0  0  0  0  0  0  0
    2.0108   -0.7366   -6.5806 C   0  0  0  0  0  0  0  0  0  0  0  0
    2.1932   -1.7999   -6.1576 N   0  0  0  0  0  0  0  0  0  0  0  0
    0.0482    5.6797   -9.7038 C   0  0  0  0  0  0  0  0  0  0  0  0
    0.9252    6.9383   -9.4305 C   0  0  0  0  0  0  0  0  0  0  0  0
    1.1583    7.0948   -7.9461 C   0  0  0  0  0  0  0  0  0  0  0  0
   -0.0205    7.4108   -7.4076 C   0  0  0  0  0  0  0  0  0  0  0  0
   -1.0159    7.4573   -8.5428 C   0  0  0  0  0  0  0  0  0  0  0  0
   -0.1176    8.0254   -9.6272 C   0  0  0  0  0  0  0  0  0  0  0  0
   -1.2479    6.0256   -9.1118 C   0  0  0  0  0  0  0  0  0  0  0  0
   -0.8318    0.2644   -3.2993 C   0  0  0  0  0  0  0  0  0  0  0  0
   -1.3463   -0.9536   -2.8287 C   0  0  0  0  0  0  0  0  0  0  0  0
   -1.8435   -0.6233   -1.5920 C   0  0  0  0  0  0  0  0  0  0  0  0
   -1.6445    0.6674   -1.3632 C   0  0  0  0  0  0  0  0  0  0  0  0
   -0.9982    1.2729   -2.3834 N   0  0  0  0  0  0  0  0  0  0  0  0
   -0.2899    2.5585   -2.3659 C   0  0  0  0  0  0  0  0  0  0  0  0
    0.9674    2.4727   -1.5029 C   0  0  0  0  0  0  0  0  0  0  0  0
   -1.8809    0.8899   -0.0235 C   0  0  0  0  0  0  0  0  0  0  0  0
   -1.9521    2.0532    0.7576 C   0  0  0  0  0  0  0  0  0  0  0  0
   -2.2947    1.9344    2.1348 C   0  0  0  0  0  0  0  0  0  0  0  0
   -2.3514    3.0815    2.8585 N   0  0  0  0  0  0  0  0  0  0  0  0
   -1.9932    4.1811    1.6761 S   0  0  0  0  0  0  0  0  0  0  0  0
   -1.7542    3.3101    0.2897 N   0  0  0  0  0  0  0  0  0  0  0  0
   -2.5206    0.6631    2.6696 C   0  0  0  0  0  0  0  0  0  0  0  0
   -2.5683    0.2731    3.9761 C   0  0  0  0  0  0  0  0  0  0  0  0
   -2.1848    1.0176    5.4565 S   0  0  0  0  0  0  0  0  0  0  0  0
   -1.8236   -0.4860    6.1602 C   0  0  0  0  0  0  0  0  0  0  0  0
   -1.2757   -0.8505    7.3915 C   0  0  0  0  0  0  0  0  0  0  0  0
   -1.0251    0.1054    8.5245 C   0  0  0  0  0  0  0  0  0  0  0  0
   -2.1722    0.0743    9.5261 C   0  0  0  0  0  0  0  0  0  0  0  0
   -1.0052   -2.2291    7.4229 C   0  0  0  0  0  0  0  0  0  0  0  0
   -1.4035   -2.9411    5.9314 S   0  0  0  0  0  0  0  0  0  0  0  0
   -1.9568   -1.5077    5.2528 C   0  0  0  0  0  0  0  0  0  0  0  0
   -2.3837   -1.0733    3.9980 C   0  0  0  0  0  0  0  0  0  0  0  0
   -2.2488   -1.6016    2.7512 N   0  0  0  0  0  0  0  0  0  0  0  0
   -2.3916   -0.5151    1.9130 C   0  0  0  0  0  0  0  0  0  0  0  0
   -2.1623   -0.3897    0.5100 C   0  0  0  0  0  0  0  0  0  0  0  0
   -2.1686   -1.3340   -0.4905 N   0  0  0  0  0  0  0  0  0  0  0  0
   -2.8493   -2.6346   -0.5394 C   0  0  0  0  0  0  0  0  0  0  0  0
   -1.8974   -3.7531   -0.9824 C   0  0  0  0  0  0  0  0  0  0  0  0
   -1.5601   -2.8701    2.4829 C   0  0  0  0  0  0  0  0  0  0  0  0
   -2.4807   -4.0672    2.7433 C   0  0  0  0  0  0  0  0  0  0  0  0
   -0.4571   -2.9765    8.5612 C   0  0  0  0  0  0  0  0  0  0  0  0
    0.8301   -2.8964    8.9395 C   0  0  0  0  0  0  0  0  0  0  0  0
    1.9049   -2.2491    8.1771 C   0  0  0  0  0  0  0  0  0  0  0  0
    1.7676   -1.4555    7.2084 O   0  0  0  0  0  0  0  0  0  0  0  0
    3.1698   -2.7324    8.6848 C   0  0  0  0  0  0  0  0  0  0  0  0
    4.4489   -2.4705    8.1948 C   0  0  0  0  0  0  0  0  0  0  0  0
    5.5370   -3.1227    8.7872 C   0  0  0  0  0  0  0  0  0  0  0  0
    5.3292   -4.0409    9.8345 C   0  0  0  0  0  0  0  0  0  0  0  0
    6.6968   -4.8866   10.5363 Cl  0  0  0  0  0  0  0  0  0  0  0  0
    4.0313   -4.2963   10.3080 C   0  0  0  0  0  0  0  0  0  0  0  0
    2.9475   -3.6106    9.7337 C   0  0  0  0  0  0  0  0  0  0  0  0
    1.4880   -3.6765   10.0290 C   0  0  0  0  0  0  0  0  0  0  0  0
    0.9025   -4.1114   11.1739 C   0  0  0  0  0  0  0  0  0  0  0  0
   -0.4690   -3.8087   11.4888 C   0  0  0  0  0  0  0  0  0  0  0  0
   -1.5682   -3.5585   11.7480 N   0  0  0  0  0  0  0  0  0  0  0  0
    1.6406   -4.7635   12.2240 C   0  0  0  0  0  0  0  0  0  0  0  0
    2.2194   -5.2914   13.0753 N   0  0  0  0  0  0  0  0  0  0  0  0
    0.9515   -0.2727   -4.3916 H   0  0  0  0  0  0  0  0  0  0  0  0
   -2.6385    4.4028   -6.7091 H   0  0  0  0  0  0  0  0  0  0  0  0
    1.8862    3.2680   -8.7692 H   0  0  0  0  0  0  0  0  0  0  0  0
   -0.0146    5.3779  -10.7732 H   0  0  0  0  0  0  0  0  0  0  0  0
    1.8343    7.0313  -10.0615 H   0  0  0  0  0  0  0  0  0  0  0  0
    2.1060    7.0603   -7.4207 H   0  0  0  0  0  0  0  0  0  0  0  0
   -0.1941    7.6732   -6.3696 H   0  0  0  0  0  0  0  0  0  0  0  0
   -1.9376    8.0399   -8.3389 H   0  0  0  0  0  0  0  0  0  0  0  0
    0.2628    9.0486   -9.4000 H   0  0  0  0  0  0  0  0  0  0  0  0
   -0.5817    8.0173  -10.6412 H   0  0  0  0  0  0  0  0  0  0  0  0
   -2.0986    5.9351   -9.8234 H   0  0  0  0  0  0  0  0  0  0  0  0
   -1.2162   -1.9375   -3.2598 H   0  0  0  0  0  0  0  0  0  0  0  0
    0.0163    2.8479   -3.3891 H   0  0  0  0  0  0  0  0  0  0  0  0
   -0.9621    3.3617   -2.0167 H   0  0  0  0  0  0  0  0  0  0  0  0
    1.5278    3.4277   -1.5705 H   0  0  0  0  0  0  0  0  0  0  0  0
    0.7027    2.2898   -0.4439 H   0  0  0  0  0  0  0  0  0  0  0  0
    1.6148    1.6468   -1.8609 H   0  0  0  0  0  0  0  0  0  0  0  0
   -0.9094    1.1381    8.1331 H   0  0  0  0  0  0  0  0  0  0  0  0
   -0.0794   -0.1608    9.0424 H   0  0  0  0  0  0  0  0  0  0  0  0
   -1.9535    0.7773   10.3582 H   0  0  0  0  0  0  0  0  0  0  0  0
   -3.1189    0.3819    9.0355 H   0  0  0  0  0  0  0  0  0  0  0  0
   -2.2911   -0.9483    9.9477 H   0  0  0  0  0  0  0  0  0  0  0  0
   -3.3116   -2.8601    0.4313 H   0  0  0  0  0  0  0  0  0  0  0  0
   -3.6943   -2.5805   -1.2646 H   0  0  0  0  0  0  0  0  0  0  0  0
   -1.9631   -3.8985   -2.0789 H   0  0  0  0  0  0  0  0  0  0  0  0
   -2.1867   -4.7066   -0.4904 H   0  0  0  0  0  0  0  0  0  0  0  0
   -0.8435   -3.5155   -0.7158 H   0  0  0  0  0  0  0  0  0  0  0  0
   -1.1680   -2.8907    1.4558 H   0  0  0  0  0  0  0  0  0  0  0  0
   -0.6593   -2.9561    3.1299 H   0  0  0  0  0  0  0  0  0  0  0  0
   -2.5853   -4.2567    3.8281 H   0  0  0  0  0  0  0  0  0  0  0  0
   -3.4992   -3.8975    2.3391 H   0  0  0  0  0  0  0  0  0  0  0  0
   -2.0501   -4.9785    2.2730 H   0  0  0  0  0  0  0  0  0  0  0  0
   -1.1206   -3.6896    9.0288 H   0  0  0  0  0  0  0  0  0  0  0  0
    4.5979   -1.7850    7.3710 H   0  0  0  0  0  0  0  0  0  0  0  0
    6.5371   -2.9310    8.4219 H   0  0  0  0  0  0  0  0  0  0  0  0
    3.8946   -5.0402   11.0755 H   0  0  0  0  0  0  0  0  0  0  0  0
  1  2  2  3
  2  3  1  0
  3  4  2  0
  3  5  1  0
  5  6  2  0
  6  7  1  0
  7  8  2  0
  8  9  1  0
  9 10  2  0
 10 11  1  0
 11 12  2  3
 12 13  1  0
 13 14  3  0
 12 15  1  0
 15 16  3  0
  8 17  1  0
 17 18  1  0
 18 19  1  0
 19 20  2  0
 20 21  1  0
 21 22  1  0
 21 23  1  0
  1 24  1  0
 24 25  2  0
 25 26  1  0
 26 27  2  0
 27 28  1  0
 28 29  1  0
 29 30  1  0
 27 31  1  0
 31 32  1  0
 32 33  1  0
 33 34  2  0
 34 35  1  0
 35 36  1  0
 33 37  1  0
 37 38  1  0
 38 39  1  0
 39 40  1  0
 40 41  1  0
 41 42  1  0
 42 43  1  0
 41 44  2  0
 44 45  1  0
 45 46  1  0
 46 47  1  0
 47 48  1  0
 48 49  1  0
 49 50  1  0
 50 51  1  0
 51 52  1  0
 52 53  1  0
 48 54  1  0
 54 55  1  0
 44 56  1  0
 56 57  2  3
 57 58  1  0
 58 59  2  0
 58 60  1  0
 60 61  2  0
 61 62  1  0
 62 63  2  0
 63 64  1  0
 63 65  1  0
 65 66  2  0
 66 67  1  0
 67 68  2  3
 68 69  1  0
 69 70  3  0
 68 71  1  0
 71 72  3  0
 11  2  1  0
 23 17  1  0
 28 24  1  0
 50 31  2  0
 67 57  1  0
 10  5  1  0
 22 18  1  0
 51 26  1  0
 66 60  1  0
 23  7  1  0
 36 32  2  0
 49 37  2  0
 47 38  2  0
 46 40  2  0
  1 73  1  0
  6 74  1  0
  9 75  1  0
 17 76  1  0
 18 77  1  0
 19 78  1  0
 20 79  1  0
 21 80  1  0
 22 81  1  0
 22 82  1  0
 23 83  1  0
 25 84  1  0
 29 85  1  0
 29 86  1  0
 30 87  1  0
 30 88  1  0
 30 89  1  0
 42 90  1  0
 42 91  1  0
 43 92  1  0
 43 93  1  0
 43 94  1  0
 52 95  1  0
 52 96  1  0
 53 97  1  0
 53 98  1  0
 53 99  1  0
 54100  1  0
 54101  1  0
 55102  1  0
 55103  1  0
 55104  1  0
 56105  1  0
 61106  1  0
 62107  1  0
 65108  1  0
M  END

