
     RDKit          3D

130146  0  0  0  0  0  0  0  0999 V2000
   -6.1541    0.0950    3.7280 C   0  0  0  0  0  0  0  0  0  0  0  0
   -5.3254    0.4590    4.7299 C   0  0  0  0  0  0  0  0  0  0  0  0
   -4.2030    1.4065    4.6083 C   0  0  0  0  0  0  0  0  0  0  0  0
   -3.9355    2.1281    3.6130 O   0  0  0  0  0  0  0  0  0  0  0  0
   -3.3524    1.2828    5.7658 C   0  0  0  0  0  0  0  0  0  0  0  0
   -2.1417    1.9713    5.9999 C   0  0  0  0  0  0  0  0  0  0  0  0
   -1.4410    1.5085    7.0971 C   0  0  0  0  0  0  0  0  0  0  0  0
   -1.8825    0.4043    7.8977 C   0  0  0  0  0  0  0  0  0  0  0  0
   -3.0805   -0.2592    7.6813 C   0  0  0  0  0  0  0  0  0  0  0  0
   -3.8541    0.2540    6.6004 C   0  0  0  0  0  0  0  0  0  0  0  0
   -5.1695   -0.2110    6.0649 C   0  0  0  0  0  0  0  0  0  0  0  0
   -6.0924   -0.9428    6.7417 C   0  0  0  0  0  0  0  0  0  0  0  0
   -5.8855   -1.3763    8.1017 C   0  0  0  0  0  0  0  0  0  0  0  0
   -5.7312   -1.7316    9.1939 N   0  0  0  0  0  0  0  0  0  0  0  0
   -7.3751   -1.2972    6.1960 C   0  0  0  0  0  0  0  0  0  0  0  0
   -8.4067   -1.6148    5.7664 N   0  0  0  0  0  0  0  0  0  0  0  0
   -0.6261    0.4757    8.7141 C   0  0  0  0  0  0  0  0  0  0  0  0
    0.4703   -0.5942    8.4163 C   0  0  0  0  0  0  0  0  0  0  0  0
    1.7252   -0.0845    9.0811 C   0  0  0  0  0  0  0  0  0  0  0  0
    2.1204    0.9816    8.3731 C   0  0  0  0  0  0  0  0  0  0  0  0
    1.1261    1.1476    7.2515 C   0  0  0  0  0  0  0  0  0  0  0  0
    0.8444   -0.3188    6.9677 C   0  0  0  0  0  0  0  0  0  0  0  0
   -0.1947    1.6322    7.9186 C   0  0  0  0  0  0  0  0  0  0  0  0
   -5.9507    0.5253    2.3405 C   0  0  0  0  0  0  0  0  0  0  0  0
   -6.1544    1.8205    1.8120 C   0  0  0  0  0  0  0  0  0  0  0  0
   -6.8729    2.9271    2.4888 C   0  0  0  0  0  0  0  0  0  0  0  0
   -6.1593    4.0961    2.8110 C   0  0  0  0  0  0  0  0  0  0  0  0
   -6.7995    5.1897    3.3920 C   0  0  0  0  0  0  0  0  0  0  0  0
   -8.1714    5.1487    3.6310 C   0  0  0  0  0  0  0  0  0  0  0  0
   -8.9037    4.0088    3.2979 C   0  0  0  0  0  0  0  0  0  0  0  0
   -8.2743    2.8837    2.7296 C   0  0  0  0  0  0  0  0  0  0  0  0
   -9.1441    1.7017    2.3495 C   0  0  0  0  0  0  0  0  0  0  0  0
   -9.7092    1.0043    3.5841 C   0  0  0  0  0  0  0  0  0  0  0  0
   -5.4682    1.9632    0.6005 C   0  0  0  0  0  0  0  0  0  0  0  0
   -4.9590    3.3351   -0.2909 S   0  0  0  0  0  0  0  0  0  0  0  0
   -3.8926    2.3805   -1.2049 C   0  0  0  0  0  0  0  0  0  0  0  0
   -2.8157    2.5315   -2.0366 C   0  0  0  0  0  0  0  0  0  0  0  0
   -2.2828    3.6468   -2.6881 C   0  0  0  0  0  0  0  0  0  0  0  0
   -1.1004    3.4803   -3.4713 C   0  0  0  0  0  0  0  0  0  0  0  0
   -0.6051    4.5875   -4.0762 N   0  0  0  0  0  0  0  0  0  0  0  0
   -1.7279    5.7008   -3.5797 S   0  0  0  0  0  0  0  0  0  0  0  0
   -2.8162    4.8909   -2.6291 N   0  0  0  0  0  0  0  0  0  0  0  0
   -0.4905    2.2206   -3.5154 C   0  0  0  0  0  0  0  0  0  0  0  0
    0.7397    1.8410   -3.9675 C   0  0  0  0  0  0  0  0  0  0  0  0
    2.1330    2.5877   -4.5933 S   0  0  0  0  0  0  0  0  0  0  0  0
    3.0606    1.1960   -4.2520 C   0  0  0  0  0  0  0  0  0  0  0  0
    4.4097    0.8761   -4.3952 C   0  0  0  0  0  0  0  0  0  0  0  0
    5.4314    1.7947   -4.9386 C   0  0  0  0  0  0  0  0  0  0  0  0
    5.5405    2.0653   -6.3258 C   0  0  0  0  0  0  0  0  0  0  0  0
    4.6074    1.4464   -7.3397 C   0  0  0  0  0  0  0  0  0  0  0  0
    5.0524    0.0346   -7.7095 C   0  0  0  0  0  0  0  0  0  0  0  0
    6.5968    2.8744   -6.7810 C   0  0  0  0  0  0  0  0  0  0  0  0
    7.5087    3.4291   -5.8793 C   0  0  0  0  0  0  0  0  0  0  0  0
    7.3809    3.1815   -4.5138 C   0  0  0  0  0  0  0  0  0  0  0  0
    6.3521    2.3661   -4.0444 C   0  0  0  0  0  0  0  0  0  0  0  0
    4.6865   -0.4001   -3.8726 C   0  0  0  0  0  0  0  0  0  0  0  0
    3.2784   -1.0622   -3.1764 S   0  0  0  0  0  0  0  0  0  0  0  0
    2.3129    0.2383   -3.6188 C   0  0  0  0  0  0  0  0  0  0  0  0
    0.9829    0.6026   -3.4671 C   0  0  0  0  0  0  0  0  0  0  0  0
   -0.0218    0.1388   -2.6819 N   0  0  0  0  0  0  0  0  0  0  0  0
   -0.9778    1.1222   -2.7838 C   0  0  0  0  0  0  0  0  0  0  0  0
   -2.2168    1.2621   -2.1056 C   0  0  0  0  0  0  0  0  0  0  0  0
   -2.9551    0.3363   -1.4208 N   0  0  0  0  0  0  0  0  0  0  0  0
   -3.9316    1.0763   -0.8493 C   0  0  0  0  0  0  0  0  0  0  0  0
   -4.8217    0.8293    0.1743 C   0  0  0  0  0  0  0  0  0  0  0  0
   -4.9904   -0.4043    1.2870 S   0  0  0  0  0  0  0  0  0  0  0  0
   -3.0222   -1.1143   -1.6490 C   0  0  0  0  0  0  0  0  0  0  0  0
   -4.3462   -1.5218   -2.3016 C   0  0  0  0  0  0  0  0  0  0  0  0
    0.1976   -0.8003   -1.5679 C   0  0  0  0  0  0  0  0  0  0  0  0
    0.2913   -2.2507   -2.0621 C   0  0  0  0  0  0  0  0  0  0  0  0
    6.0253   -1.0142   -3.8283 C   0  0  0  0  0  0  0  0  0  0  0  0
    6.3173   -2.2292   -4.3313 C   0  0  0  0  0  0  0  0  0  0  0  0
    5.3589   -3.1774   -4.9104 C   0  0  0  0  0  0  0  0  0  0  0  0
    4.1966   -2.9206   -5.3205 O   0  0  0  0  0  0  0  0  0  0  0  0
    5.9932   -4.4752   -4.9961 C   0  0  0  0  0  0  0  0  0  0  0  0
    5.4279   -5.6836   -5.4064 C   0  0  0  0  0  0  0  0  0  0  0  0
    6.2271   -6.8310   -5.3872 C   0  0  0  0  0  0  0  0  0  0  0  0
    7.5589   -6.7592   -4.9397 C   0  0  0  0  0  0  0  0  0  0  0  0
    8.7438   -8.5044   -4.8964 I   0  0  0  0  0  0  0  0  0  0  0  0
    8.1071   -5.5318   -4.5257 C   0  0  0  0  0  0  0  0  0  0  0  0
    7.3099   -4.3772   -4.5778 C   0  0  0  0  0  0  0  0  0  0  0  0
    7.6261   -2.9544   -4.2477 C   0  0  0  0  0  0  0  0  0  0  0  0
    8.8665   -2.4043   -4.1334 C   0  0  0  0  0  0  0  0  0  0  0  0
    9.0898   -0.9798   -4.1125 C   0  0  0  0  0  0  0  0  0  0  0  0
    9.2888    0.1635   -4.0976 N   0  0  0  0  0  0  0  0  0  0  0  0
   10.0718   -3.1926   -4.1625 C   0  0  0  0  0  0  0  0  0  0  0  0
   11.0530   -3.8078   -4.1854 N   0  0  0  0  0  0  0  0  0  0  0  0
   -6.8003   -0.7585    3.8388 H   0  0  0  0  0  0  0  0  0  0  0  0
   -1.7604    2.7448    5.3475 H   0  0  0  0  0  0  0  0  0  0  0  0
   -3.3466   -1.1193    8.2738 H   0  0  0  0  0  0  0  0  0  0  0  0
   -0.8046    0.6951    9.7912 H   0  0  0  0  0  0  0  0  0  0  0  0
    0.1983   -1.6417    8.6592 H   0  0  0  0  0  0  0  0  0  0  0  0
    2.2515   -0.5237    9.9211 H   0  0  0  0  0  0  0  0  0  0  0  0
    3.0377    1.5413    8.5285 H   0  0  0  0  0  0  0  0  0  0  0  0
    1.4787    1.7510    6.3888 H   0  0  0  0  0  0  0  0  0  0  0  0
    1.7515   -0.8776    6.6215 H   0  0  0  0  0  0  0  0  0  0  0  0
    0.0234   -0.4935    6.2400 H   0  0  0  0  0  0  0  0  0  0  0  0
   -0.1290    2.5875    8.4883 H   0  0  0  0  0  0  0  0  0  0  0  0
   -5.0971    4.1659    2.6124 H   0  0  0  0  0  0  0  0  0  0  0  0
   -6.2365    6.0817    3.6414 H   0  0  0  0  0  0  0  0  0  0  0  0
   -8.6704    6.0047    4.0642 H   0  0  0  0  0  0  0  0  0  0  0  0
   -9.9723    4.0098    3.4771 H   0  0  0  0  0  0  0  0  0  0  0  0
   -9.9929    2.0635    1.7288 H   0  0  0  0  0  0  0  0  0  0  0  0
   -8.6005    0.9556    1.7373 H   0  0  0  0  0  0  0  0  0  0  0  0
   -8.8864    0.6569    4.2406 H   0  0  0  0  0  0  0  0  0  0  0  0
  -10.3547    1.6939    4.1644 H   0  0  0  0  0  0  0  0  0  0  0  0
  -10.3169    0.1309    3.2711 H   0  0  0  0  0  0  0  0  0  0  0  0
    3.5684    1.4187   -6.9558 H   0  0  0  0  0  0  0  0  0  0  0  0
    4.5819    2.0655   -8.2631 H   0  0  0  0  0  0  0  0  0  0  0  0
    4.3777   -0.3722   -8.4952 H   0  0  0  0  0  0  0  0  0  0  0  0
    6.0880    0.0430   -8.1030 H   0  0  0  0  0  0  0  0  0  0  0  0
    4.9995   -0.6316   -6.8234 H   0  0  0  0  0  0  0  0  0  0  0  0
    6.7213    3.0696   -7.8375 H   0  0  0  0  0  0  0  0  0  0  0  0
    8.3207    4.0477   -6.2425 H   0  0  0  0  0  0  0  0  0  0  0  0
    8.0869    3.6164   -3.8187 H   0  0  0  0  0  0  0  0  0  0  0  0
    6.2748    2.1710   -2.9795 H   0  0  0  0  0  0  0  0  0  0  0  0
   -2.2327   -1.4228   -2.3570 H   0  0  0  0  0  0  0  0  0  0  0  0
   -2.8941   -1.6540   -0.6845 H   0  0  0  0  0  0  0  0  0  0  0  0
   -4.3364   -2.6101   -2.5099 H   0  0  0  0  0  0  0  0  0  0  0  0
   -5.2028   -1.3068   -1.6307 H   0  0  0  0  0  0  0  0  0  0  0  0
   -4.4803   -0.9758   -3.2582 H   0  0  0  0  0  0  0  0  0  0  0  0
    1.1459   -0.5308   -1.0492 H   0  0  0  0  0  0  0  0  0  0  0  0
   -0.5832   -0.6980   -0.7934 H   0  0  0  0  0  0  0  0  0  0  0  0
    0.2473   -2.3106   -3.1704 H   0  0  0  0  0  0  0  0  0  0  0  0
   -0.5311   -2.8640   -1.6355 H   0  0  0  0  0  0  0  0  0  0  0  0
    1.2521   -2.7041   -1.7307 H   0  0  0  0  0  0  0  0  0  0  0  0
    6.7840   -0.4191   -3.3574 H   0  0  0  0  0  0  0  0  0  0  0  0
    4.3968   -5.7356   -5.7313 H   0  0  0  0  0  0  0  0  0  0  0  0
    5.8122   -7.7773   -5.7063 H   0  0  0  0  0  0  0  0  0  0  0  0
    9.1129   -5.5187   -4.1529 H   0  0  0  0  0  0  0  0  0  0  0  0
  1  2  2  3
  2  3  1  0
  3  4  2  0
  3  5  1  0
  5  6  2  0
  6  7  1  0
  7  8  2  0
  8  9  1  0
  9 10  2  0
 10 11  1  0
 11 12  2  3
 12 13  1  0
 13 14  3  0
 12 15  1  0
 15 16  3  0
  8 17  1  0
 17 18  1  0
 18 19  1  0
 19 20  2  0
 20 21  1  0
 21 22  1  0
 21 23  1  0
  1 24  1  0
 24 25  2  0
 25 26  1  0
 26 27  2  0
 27 28  1  0
 28 29  2  0
 29 30  1  0
 30 31  2  0
 31 32  1  0
 32 33  1  0
 25 34  1  0
 34 35  1  0
 35 36  1  0
 36 37  1  0
 37 38  1  0
 38 39  1  0
 39 40  2  0
 40 41  1  0
 41 42  1  0
 39 43  1  0
 43 44  1  0
 44 45  1  0
 45 46  1  0
 46 47  1  0
 47 48  1  0
 48 49  2  0
 49 50  1  0
 50 51  1  0
 49 52  1  0
 52 53  2  0
 53 54  1  0
 54 55  2  0
 47 56  2  0
 56 57  1  0
 57 58  1  0
 58 59  1  0
 59 60  1  0
 60 61  1  0
 61 62  1  0
 62 63  1  0
 63 64  1  0
 64 65  1  0
 65 66  1  0
 63 67  1  0
 67 68  1  0
 60 69  1  0
 69 70  1  0
 56 71  1  0
 71 72  2  3
 72 73  1  0
 73 74  2  0
 73 75  1  0
 75 76  2  0
 76 77  1  0
 77 78  2  0
 78 79  1  0
 78 80  1  0
 80 81  2  0
 81 82  1  0
 82 83  2  3
 83 84  1  0
 84 85  3  0
 83 86  1  0
 86 87  3  0
 11  2  1  0
 23 17  1  0
 66 24  1  0
 82 72  1  0
 10  5  1  0
 22 18  1  0
 31 26  1  0
 65 34  2  0
 81 75  1  0
 23  7  1  0
 64 36  2  0
 62 37  2  0
 42 38  2  0
 61 43  2  0
 59 44  2  0
 58 46  2  0
 55 48  1  0
  1 88  1  0
  6 89  1  0
  9 90  1  0
 17 91  1  0
 18 92  1  0
 19 93  1  0
 20 94  1  0
 21 95  1  0
 22 96  1  0
 22 97  1  0
 23 98  1  0
 27 99  1  0
 28100  1  0
 29101  1  0
 30102  1  0
 32103  1  0
 32104  1  0
 33105  1  0
 33106  1  0
 33107  1  0
 50108  1  0
 50109  1  0
 51110  1  0
 51111  1  0
 51112  1  0
 52113  1  0
 53114  1  0
 54115  1  0
 55116  1  0
 67117  1  0
 67118  1  0
 68119  1  0
 68120  1  0
 68121  1  0
 69122  1  0
 69123  1  0
 70124  1  0
 70125  1  0
 70126  1  0
 71127  1  0
 76128  1  0
 77129  1  0
 80130  1  0
M  END

