
     RDKit          3D

114127  0  0  0  0  0  0  0  0999 V2000
    6.1397   -1.6710    0.1121 C   0  0  0  0  0  0  0  0  0  0  0  0
    6.7911   -1.4328    1.2841 C   0  0  0  0  0  0  0  0  0  0  0  0
    6.1721   -0.7815    2.4433 C   0  0  0  0  0  0  0  0  0  0  0  0
    4.9482   -0.5966    2.6109 O   0  0  0  0  0  0  0  0  0  0  0  0
    7.2401   -0.4031    3.3666 C   0  0  0  0  0  0  0  0  0  0  0  0
    7.1457    0.4018    4.5147 C   0  0  0  0  0  0  0  0  0  0  0  0
    8.3094    0.8037    5.1096 C   0  0  0  0  0  0  0  0  0  0  0  0
    9.5637    0.4594    4.6542 C   0  0  0  0  0  0  0  0  0  0  0  0
    9.5711   -0.3703    3.4937 C   0  0  0  0  0  0  0  0  0  0  0  0
    8.4403   -0.7728    2.8834 C   0  0  0  0  0  0  0  0  0  0  0  0
    8.1904   -1.4674    1.5089 C   0  0  0  0  0  0  0  0  0  0  0  0
    9.2413   -1.8273    0.9058 C   0  0  0  0  0  0  0  0  0  0  0  0
   10.2464   -2.2637    0.1024 C   0  0  0  0  0  0  0  0  0  0  0  0
   11.0463   -2.6149   -0.5615 N   0  0  0  0  0  0  0  0  0  0  0  0
    8.8996   -0.4814   -0.3256 C   0  0  0  0  0  0  0  0  0  0  0  0
    8.7127    0.3306   -1.0568 N   0  0  0  0  0  0  0  0  0  0  0  0
   10.3226    1.2741    5.5783 C   0  0  0  0  0  0  0  0  0  0  0  0
   11.0630    0.6195    6.6803 C   0  0  0  0  0  0  0  0  0  0  0  0
   10.4707   -0.6575    7.0657 C   0  0  0  0  0  0  0  0  0  0  0  0
    9.2609   -0.3730    7.5566 C   0  0  0  0  0  0  0  0  0  0  0  0
    9.0415    1.0869    7.5496 C   0  0  0  0  0  0  0  0  0  0  0  0
   10.5315    1.5062    7.8473 C   0  0  0  0  0  0  0  0  0  0  0  0
    8.9496    1.6070    6.1780 C   0  0  0  0  0  0  0  0  0  0  0  0
    4.7273   -1.1843    0.0980 C   0  0  0  0  0  0  0  0  0  0  0  0
    4.4373    0.1731    0.2368 C   0  0  0  0  0  0  0  0  0  0  0  0
    5.5122    1.2520    0.0623 C   0  0  0  0  0  0  0  0  0  0  0  0
    5.6304    1.3035   -1.4940 C   0  0  0  0  0  0  0  0  0  0  0  0
    3.1325    0.4909    0.3677 C   0  0  0  0  0  0  0  0  0  0  0  0
    2.1743    2.1802    0.7339 Se  0  0  0  0  0  2  0  0  0  0  0  0
    0.4888    1.1599    0.7837 C   0  0  0  0  0  0  0  0  0  0  0  0
   -0.8501    1.3546    0.8691 C   0  0  0  0  0  0  0  0  0  0  0  0
   -1.5743    2.5337    1.0649 C   0  0  0  0  0  0  0  0  0  0  0  0
   -2.9220    2.4185    1.0324 C   0  0  0  0  0  0  0  0  0  0  0  0
   -3.5970    3.5467    1.2397 N   0  0  0  0  0  0  0  0  0  0  0  0
   -2.4439    4.7310    1.4835 S   0  0  0  0  0  0  0  0  0  0  0  0
   -1.0855    3.7671    1.3017 N   0  0  0  0  0  0  0  0  0  0  0  0
   -3.4417    1.1430    0.7964 C   0  0  0  0  0  0  0  0  0  0  0  0
   -4.7225    0.7992    0.5033 C   0  0  0  0  0  0  0  0  0  0  0  0
   -6.4359    1.6375    0.2923 Se  0  0  0  0  0  2  0  0  0  0  0  0
   -7.1705   -0.3099   -0.4398 C   0  0  0  0  0  0  0  0  0  0  0  0
   -8.2873   -0.5968   -0.9889 C   0  0  0  0  0  0  0  0  0  0  0  0
   -9.5603    0.1759   -0.9949 C   0  0  0  0  0  0  0  0  0  0  0  0
   -9.4673    1.4145   -1.8080 C   0  0  0  0  0  0  0  0  0  0  0  0
   -8.2358   -1.8630   -1.5672 C   0  0  0  0  0  0  0  0  0  0  0  0
   -6.6722   -2.3893   -1.2022 S   0  0  0  0  0  0  0  0  0  0  0  0
   -6.0779   -0.9313   -0.3117 C   0  0  0  0  0  0  0  0  0  0  0  0
   -4.8646   -0.4933    0.1259 C   0  0  0  0  0  0  0  0  0  0  0  0
   -3.5431   -1.0232    0.2238 N   0  0  0  0  0  0  0  0  0  0  0  0
   -2.7483   -0.0309    0.6067 C   0  0  0  0  0  0  0  0  0  0  0  0
   -1.3433    0.0881    0.6590 C   0  0  0  0  0  0  0  0  0  0  0  0
   -0.3602   -0.8020    0.4775 N   0  0  0  0  0  0  0  0  0  0  0  0
    0.8677   -0.0783    0.5591 C   0  0  0  0  0  0  0  0  0  0  0  0
    2.1980   -0.4056    0.3569 C   0  0  0  0  0  0  0  0  0  0  0  0
    3.2005   -1.8521    0.1458 S   0  0  0  0  0  0  0  0  0  0  0  0
   -0.4124   -2.2074    0.3025 C   0  0  0  0  0  0  0  0  0  0  0  0
   -0.3313   -2.9827    1.6176 C   0  0  0  0  0  0  0  0  0  0  0  0
   -3.2950   -2.4255    0.0138 C   0  0  0  0  0  0  0  0  0  0  0  0
   -3.1239   -2.8678   -1.4005 C   0  0  0  0  0  0  0  0  0  0  0  0
   -9.2473   -2.4441   -2.4897 C   0  0  0  0  0  0  0  0  0  0  0  0
   -9.2390   -1.9593   -3.7202 C   0  0  0  0  0  0  0  0  0  0  0  0
   -8.2972   -0.9413   -4.1299 C   0  0  0  0  0  0  0  0  0  0  0  0
   -7.3962   -0.5073   -3.3926 O   0  0  0  0  0  0  0  0  0  0  0  0
   -8.3000   -0.3416   -5.4630 N   0  0  0  0  0  0  0  0  0  0  0  0
   -7.3879    0.7172   -5.7944 C   0  0  0  0  0  0  0  0  0  0  0  0
   -6.0543    0.1871   -6.3336 C   0  0  0  0  0  0  0  0  0  0  0  0
   -9.2780   -0.8041   -6.3694 C   0  0  0  0  0  0  0  0  0  0  0  0
   -9.2989   -0.1338   -7.8735 S   0  0  0  0  0  0  0  0  0  0  0  0
  -10.2168   -1.8064   -6.0149 N   0  0  0  0  0  0  0  0  0  0  0  0
  -11.1356   -2.2234   -7.0868 C   0  0  0  0  0  0  0  0  0  0  0  0
  -10.2674   -3.2690   -7.8740 C   0  0  0  0  0  0  0  0  0  0  0  0
  -10.1976   -2.3759   -4.7098 C   0  0  0  0  0  0  0  0  0  0  0  0
  -11.0495   -3.2691   -4.4435 O   0  0  0  0  0  0  0  0  0  0  0  0
    6.6039   -2.1432   -0.6746 H   0  0  0  0  0  0  0  0  0  0  0  0
    6.1381    0.6717    4.8661 H   0  0  0  0  0  0  0  0  0  0  0  0
   10.5549   -0.6451    3.1407 H   0  0  0  0  0  0  0  0  0  0  0  0
   10.8437    2.1707    5.1371 H   0  0  0  0  0  0  0  0  0  0  0  0
   12.1482    0.6520    6.6231 H   0  0  0  0  0  0  0  0  0  0  0  0
   10.9539   -1.6171    6.9560 H   0  0  0  0  0  0  0  0  0  0  0  0
    8.5434   -1.1064    7.9001 H   0  0  0  0  0  0  0  0  0  0  0  0
    8.3461    1.4604    8.2792 H   0  0  0  0  0  0  0  0  0  0  0  0
   10.6490    2.5769    7.6032 H   0  0  0  0  0  0  0  0  0  0  0  0
   10.8827    1.1652    8.7970 H   0  0  0  0  0  0  0  0  0  0  0  0
    8.6907    2.6993    6.1074 H   0  0  0  0  0  0  0  0  0  0  0  0
    5.2183    2.2296    0.3976 H   0  0  0  0  0  0  0  0  0  0  0  0
    6.4713    0.8923    0.3914 H   0  0  0  0  0  0  0  0  0  0  0  0
    6.2268    2.1187   -1.8544 H   0  0  0  0  0  0  0  0  0  0  0  0
    4.5869    1.2105   -1.9251 H   0  0  0  0  0  0  0  0  0  0  0  0
    6.0795    0.3300   -1.7915 H   0  0  0  0  0  0  0  0  0  0  0  0
   -9.8047    0.5323    0.0762 H   0  0  0  0  0  0  0  0  0  0  0  0
  -10.4185   -0.4532   -1.2497 H   0  0  0  0  0  0  0  0  0  0  0  0
  -10.2036    1.4923   -2.6408 H   0  0  0  0  0  0  0  0  0  0  0  0
   -8.4545    1.6092   -2.2188 H   0  0  0  0  0  0  0  0  0  0  0  0
   -9.6476    2.3724   -1.1801 H   0  0  0  0  0  0  0  0  0  0  0  0
   -0.8963   -2.6585   -0.5266 H   0  0  0  0  0  0  0  0  0  0  0  0
    0.6764   -2.4797   -0.1055 H   0  0  0  0  0  0  0  0  0  0  0  0
    0.7001   -3.0770    2.0061 H   0  0  0  0  0  0  0  0  0  0  0  0
   -0.7055   -4.0109    1.5124 H   0  0  0  0  0  0  0  0  0  0  0  0
   -0.8592   -2.4197    2.4271 H   0  0  0  0  0  0  0  0  0  0  0  0
   -2.7734   -2.9416    0.8188 H   0  0  0  0  0  0  0  0  0  0  0  0
   -4.3315   -2.9549    0.2654 H   0  0  0  0  0  0  0  0  0  0  0  0
   -2.5601   -2.1135   -2.0245 H   0  0  0  0  0  0  0  0  0  0  0  0
   -4.0434   -3.0537   -1.9827 H   0  0  0  0  0  0  0  0  0  0  0  0
   -2.6295   -3.9001   -1.4407 H   0  0  0  0  0  0  0  0  0  0  0  0
   -9.9090   -3.2014   -2.1537 H   0  0  0  0  0  0  0  0  0  0  0  0
   -7.1782    1.4055   -4.9099 H   0  0  0  0  0  0  0  0  0  0  0  0
   -7.8574    1.3767   -6.5725 H   0  0  0  0  0  0  0  0  0  0  0  0
   -5.2195    0.4537   -5.6415 H   0  0  0  0  0  0  0  0  0  0  0  0
   -6.0589   -0.9355   -6.3876 H   0  0  0  0  0  0  0  0  0  0  0  0
   -5.8495    0.5657   -7.3449 H   0  0  0  0  0  0  0  0  0  0  0  0
  -12.0518   -2.6838   -6.6987 H   0  0  0  0  0  0  0  0  0  0  0  0
  -11.3279   -1.3444   -7.7203 H   0  0  0  0  0  0  0  0  0  0  0  0
  -10.1938   -4.1422   -7.2230 H   0  0  0  0  0  0  0  0  0  0  0  0
  -10.6852   -3.4710   -8.8440 H   0  0  0  0  0  0  0  0  0  0  0  0
   -9.2877   -2.7463   -8.0222 H   0  0  0  0  0  0  0  0  0  0  0  0
  1  2  2  3
  2  3  1  0
  3  4  2  0
  3  5  1  0
  5  6  2  0
  6  7  1  0
  7  8  2  0
  8  9  1  0
  9 10  2  0
 10 11  1  0
 11 12  2  3
 12 13  1  0
 13 14  3  0
 12 15  1  0
 15 16  3  0
  8 17  1  0
 17 18  1  0
 18 19  1  0
 19 20  2  0
 20 21  1  0
 21 22  1  0
 21 23  1  0
  1 24  1  0
 24 25  2  0
 25 26  1  0
 26 27  1  0
 25 28  1  0
 28 29  1  0
 29 30  1  0
 30 31  1  0
 31 32  1  0
 32 33  1  0
 33 34  2  0
 34 35  1  0
 35 36  1  0
 33 37  1  0
 37 38  1  0
 38 39  1  0
 39 40  1  0
 40 41  1  0
 41 42  1  0
 42 43  1  0
 41 44  2  0
 44 45  1  0
 45 46  1  0
 46 47  1  0
 47 48  1  0
 48 49  1  0
 49 50  1  0
 50 51  1  0
 51 52  1  0
 52 53  1  0
 53 54  1  0
 51 55  1  0
 55 56  1  0
 48 57  1  0
 57 58  1  0
 44 59  1  0
 59 60  2  3
 60 61  1  0
 61 62  2  0
 61 63  1  0
 63 64  1  0
 64 65  1  0
 63 66  1  0
 66 67  2  0
 66 68  1  0
 68 69  1  0
 69 70  1  0
 68 71  1  0
 71 72  2  0
 11  2  1  0
 23 17  1  0
 54 24  1  0
 71 60  1  0
 10  5  1  0
 22 18  1  0
 53 28  2  0
 23  7  1  0
 52 30  2  0
 50 31  2  0
 36 32  2  0
 49 37  2  0
 47 38  2  0
 46 40  2  0
  1 73  1  0
  6 74  1  0
  9 75  1  0
 17 76  1  0
 18 77  1  0
 19 78  1  0
 20 79  1  0
 21 80  1  0
 22 81  1  0
 22 82  1  0
 23 83  1  0
 26 84  1  0
 26 85  1  0
 27 86  1  0
 27 87  1  0
 27 88  1  0
 42 89  1  0
 42 90  1  0
 43 91  1  0
 43 92  1  0
 43 93  1  0
 55 94  1  0
 55 95  1  0
 56 96  1  0
 56 97  1  0
 56 98  1  0
 57 99  1  0
 57100  1  0
 58101  1  0
 58102  1  0
 58103  1  0
 59104  1  0
 64105  1  0
 64106  1  0
 65107  1  0
 65108  1  0
 65109  1  0
 69110  1  0
 69111  1  0
 70112  1  0
 70113  1  0
 70114  1  0
M  END

