
     RDKit          3D

142158  0  0  0  0  0  0  0  0999 V2000
   -2.5050    5.9768   -0.9592 C   0  0  0  0  0  0  0  0  0  0  0  0
   -2.3170    5.4972   -2.2059 C   0  0  0  0  0  0  0  0  0  0  0  0
   -1.3634    4.4388   -2.5652 C   0  0  0  0  0  0  0  0  0  0  0  0
   -0.7529    3.6763   -1.7693 O   0  0  0  0  0  0  0  0  0  0  0  0
   -1.2133    4.4161   -4.0006 C   0  0  0  0  0  0  0  0  0  0  0  0
   -0.3149    3.6173   -4.7439 C   0  0  0  0  0  0  0  0  0  0  0  0
   -0.3882    3.8156   -6.1093 C   0  0  0  0  0  0  0  0  0  0  0  0
   -1.2977    4.7410   -6.7163 C   0  0  0  0  0  0  0  0  0  0  0  0
   -2.1668    5.5392   -5.9937 C   0  0  0  0  0  0  0  0  0  0  0  0
   -2.1041    5.3579   -4.5814 C   0  0  0  0  0  0  0  0  0  0  0  0
   -2.8800    6.0311   -3.4925 C   0  0  0  0  0  0  0  0  0  0  0  0
   -3.9969    6.7945   -3.6405 C   0  0  0  0  0  0  0  0  0  0  0  0
   -4.5146    7.1942   -4.9235 C   0  0  0  0  0  0  0  0  0  0  0  0
   -4.9526    7.5246   -5.9436 N   0  0  0  0  0  0  0  0  0  0  0  0
   -4.8380    7.1650   -2.5290 C   0  0  0  0  0  0  0  0  0  0  0  0
   -5.5203    7.4600   -1.6395 N   0  0  0  0  0  0  0  0  0  0  0  0
   -0.7838    4.3797   -8.0765 C   0  0  0  0  0  0  0  0  0  0  0  0
    0.1404    5.4258   -8.7682 C   0  0  0  0  0  0  0  0  0  0  0  0
    0.8297    4.6892   -9.8900 C   0  0  0  0  0  0  0  0  0  0  0  0
    1.6948    3.8435   -9.3149 C   0  0  0  0  0  0  0  0  0  0  0  0
    1.5522    4.0319   -7.8252 C   0  0  0  0  0  0  0  0  0  0  0  0
    1.3095    5.5330   -7.8046 C   0  0  0  0  0  0  0  0  0  0  0  0
    0.1593    3.4443   -7.4530 C   0  0  0  0  0  0  0  0  0  0  0  0
   -2.0167    5.2821    0.2385 C   0  0  0  0  0  0  0  0  0  0  0  0
   -0.7016    5.2735    0.7383 C   0  0  0  0  0  0  0  0  0  0  0  0
    0.4658    5.9907    0.1204 C   0  0  0  0  0  0  0  0  0  0  0  0
    0.9713    7.1038    1.0259 C   0  0  0  0  0  0  0  0  0  0  0  0
   -0.5838    4.3580    1.7900 C   0  0  0  0  0  0  0  0  0  0  0  0
    0.7692    3.6659    2.5469 S   0  0  0  0  0  0  0  0  0  0  0  0
   -0.1946    2.5058    3.3281 C   0  0  0  0  0  0  0  0  0  0  0  0
    0.0271    1.2102    3.7065 C   0  0  0  0  0  0  0  0  0  0  0  0
    1.2502    0.5187    3.7408 C   0  0  0  0  0  0  0  0  0  0  0  0
    2.4424    1.1657    3.6996 N   0  0  0  0  0  0  0  0  0  0  0  0
    3.6218    0.4880    3.6740 C   0  0  0  0  0  0  0  0  0  0  0  0
    4.8656    1.2687    3.7311 C   0  0  0  0  0  0  0  0  0  0  0  0
    5.2311    2.5676    2.7246 S   0  0  0  0  0  0  0  0  0  0  0  0
    6.7521    2.8683    3.3826 C   0  0  0  0  0  0  0  0  0  0  0  0
    7.7460    3.8375    2.8302 C   0  0  0  0  0  0  0  0  0  0  0  0
    8.6219    3.1587    1.7821 C   0  0  0  0  0  0  0  0  0  0  0  0
    6.9847    1.9480    4.3997 C   0  0  0  0  0  0  0  0  0  0  0  0
    5.9243    1.0593    4.6078 C   0  0  0  0  0  0  0  0  0  0  0  0
    8.1413    1.8916    5.1041 F   0  0  0  0  0  0  0  0  0  0  0  0
    3.6026   -0.9296    3.6296 C   0  0  0  0  0  0  0  0  0  0  0  0
    4.8157   -1.7534    3.4437 C   0  0  0  0  0  0  0  0  0  0  0  0
    4.9785   -3.0505    3.9191 C   0  0  0  0  0  0  0  0  0  0  0  0
    6.1647   -3.6569    3.4888 C   0  0  0  0  0  0  0  0  0  0  0  0
    6.5123   -4.9220    3.8287 F   0  0  0  0  0  0  0  0  0  0  0  0
    6.9385   -2.8466    2.6678 C   0  0  0  0  0  0  0  0  0  0  0  0
    8.2219   -3.2273    1.9998 C   0  0  0  0  0  0  0  0  0  0  0  0
    7.9674   -3.6942    0.5704 C   0  0  0  0  0  0  0  0  0  0  0  0
    6.1320   -1.3866    2.4498 S   0  0  0  0  0  0  0  0  0  0  0  0
    2.4021   -1.5696    3.6768 N   0  0  0  0  0  0  0  0  0  0  0  0
    1.2328   -0.8850    3.7379 C   0  0  0  0  0  0  0  0  0  0  0  0
   -0.0016   -1.5345    3.7603 C   0  0  0  0  0  0  0  0  0  0  0  0
   -0.2984   -2.8600    3.6636 C   0  0  0  0  0  0  0  0  0  0  0  0
    0.4793   -4.2982    3.2097 S   0  0  0  0  0  0  0  0  0  0  0  0
   -1.0300   -5.0885    3.0728 C   0  0  0  0  0  0  0  0  0  0  0  0
   -1.4113   -6.3092    2.5170 C   0  0  0  0  0  0  0  0  0  0  0  0
   -0.4425   -7.3567    2.0435 C   0  0  0  0  0  0  0  0  0  0  0  0
   -0.1007   -8.3132    3.1779 C   0  0  0  0  0  0  0  0  0  0  0  0
   -2.8130   -6.3925    2.4161 C   0  0  0  0  0  0  0  0  0  0  0  0
   -3.5371   -4.9492    2.9609 S   0  0  0  0  0  0  0  0  0  0  0  0
   -2.0720   -4.2443    3.3706 C   0  0  0  0  0  0  0  0  0  0  0  0
   -1.6411   -2.9688    3.6937 C   0  0  0  0  0  0  0  0  0  0  0  0
   -2.2709   -1.7765    3.8194 N   0  0  0  0  0  0  0  0  0  0  0  0
   -3.6463   -1.6627    4.3289 C   0  0  0  0  0  0  0  0  0  0  0  0
   -3.7173   -0.7963    5.5889 C   0  0  0  0  0  0  0  0  0  0  0  0
   -1.2391   -0.8615    3.7887 C   0  0  0  0  0  0  0  0  0  0  0  0
   -1.2266    0.5638    3.6576 C   0  0  0  0  0  0  0  0  0  0  0  0
   -2.1801    1.4326    3.1654 N   0  0  0  0  0  0  0  0  0  0  0  0
   -1.5064    2.5993    2.9768 C   0  0  0  0  0  0  0  0  0  0  0  0
   -1.7277    3.6653    2.1014 C   0  0  0  0  0  0  0  0  0  0  0  0
   -2.9639    4.1467    1.0746 S   0  0  0  0  0  0  0  0  0  0  0  0
   -3.4942    1.1441    2.5799 C   0  0  0  0  0  0  0  0  0  0  0  0
   -3.3636    0.3359    1.2936 C   0  0  0  0  0  0  0  0  0  0  0  0
   -3.5549   -7.4762    1.7573 C   0  0  0  0  0  0  0  0  0  0  0  0
   -3.6202   -7.5891    0.4164 C   0  0  0  0  0  0  0  0  0  0  0  0
   -2.9040   -6.7365   -0.5384 C   0  0  0  0  0  0  0  0  0  0  0  0
   -2.4446   -5.5841   -0.3231 O   0  0  0  0  0  0  0  0  0  0  0  0
   -2.8276   -7.4379   -1.7994 C   0  0  0  0  0  0  0  0  0  0  0  0
   -2.0945   -7.0847   -2.9321 C   0  0  0  0  0  0  0  0  0  0  0  0
   -2.0427   -7.9827   -4.0107 C   0  0  0  0  0  0  0  0  0  0  0  0
   -1.2591   -7.6266   -5.2415 C   0  0  0  0  0  0  0  0  0  0  0  0
   -2.7573   -9.2018   -3.9386 C   0  0  0  0  0  0  0  0  0  0  0  0
   -2.7181  -10.0784   -4.9729 F   0  0  0  0  0  0  0  0  0  0  0  0
   -3.4824   -9.5372   -2.7839 C   0  0  0  0  0  0  0  0  0  0  0  0
   -3.5163   -8.6339   -1.7101 C   0  0  0  0  0  0  0  0  0  0  0  0
   -4.1505   -8.7452   -0.3657 C   0  0  0  0  0  0  0  0  0  0  0  0
   -5.1557   -9.5804    0.0007 C   0  0  0  0  0  0  0  0  0  0  0  0
   -5.6802  -10.5980   -0.8732 C   0  0  0  0  0  0  0  0  0  0  0  0
   -6.1138  -11.4208   -1.5621 N   0  0  0  0  0  0  0  0  0  0  0  0
   -5.8746   -9.4182    1.2401 C   0  0  0  0  0  0  0  0  0  0  0  0
   -6.4565   -9.2895    2.2331 N   0  0  0  0  0  0  0  0  0  0  0  0
   -3.0872    6.8651   -0.7803 H   0  0  0  0  0  0  0  0  0  0  0  0
    0.3792    2.9228   -4.2873 H   0  0  0  0  0  0  0  0  0  0  0  0
   -2.7910    6.2519   -6.5021 H   0  0  0  0  0  0  0  0  0  0  0  0
   -1.5457    3.8966   -8.7319 H   0  0  0  0  0  0  0  0  0  0  0  0
   -0.3457    6.3834   -9.0543 H   0  0  0  0  0  0  0  0  0  0  0  0
    0.7276    4.8668  -10.9553 H   0  0  0  0  0  0  0  0  0  0  0  0
    2.4149    3.2201   -9.8318 H   0  0  0  0  0  0  0  0  0  0  0  0
    2.4061    3.6714   -7.2132 H   0  0  0  0  0  0  0  0  0  0  0  0
    2.1654    6.1257   -8.2087 H   0  0  0  0  0  0  0  0  0  0  0  0
    1.0432    5.9396   -6.8042 H   0  0  0  0  0  0  0  0  0  0  0  0
    0.0038    2.3740   -7.7200 H   0  0  0  0  0  0  0  0  0  0  0  0
    0.1910    6.4290   -0.8662 H   0  0  0  0  0  0  0  0  0  0  0  0
    1.2860    5.2622   -0.0635 H   0  0  0  0  0  0  0  0  0  0  0  0
    0.1740    7.8645    1.1766 H   0  0  0  0  0  0  0  0  0  0  0  0
    1.2862    6.6949    2.0146 H   0  0  0  0  0  0  0  0  0  0  0  0
    1.8461    7.5983    0.5522 H   0  0  0  0  0  0  0  0  0  0  0  0
    8.3833    4.2268    3.6522 H   0  0  0  0  0  0  0  0  0  0  0  0
    7.2134    4.6963    2.3652 H   0  0  0  0  0  0  0  0  0  0  0  0
    9.2238    2.3515    2.2553 H   0  0  0  0  0  0  0  0  0  0  0  0
    9.3122    3.9039    1.3313 H   0  0  0  0  0  0  0  0  0  0  0  0
    7.9911    2.7259    0.9751 H   0  0  0  0  0  0  0  0  0  0  0  0
    5.9361    0.2802    5.3613 H   0  0  0  0  0  0  0  0  0  0  0  0
    4.2532   -3.5512    4.5467 H   0  0  0  0  0  0  0  0  0  0  0  0
    8.9033   -2.3475    1.9871 H   0  0  0  0  0  0  0  0  0  0  0  0
    8.7211   -4.0390    2.5711 H   0  0  0  0  0  0  0  0  0  0  0  0
    7.5076   -2.8762   -0.0258 H   0  0  0  0  0  0  0  0  0  0  0  0
    8.9289   -3.9847    0.0971 H   0  0  0  0  0  0  0  0  0  0  0  0
    7.2884   -4.5742    0.5685 H   0  0  0  0  0  0  0  0  0  0  0  0
   -0.8705   -7.9337    1.1979 H   0  0  0  0  0  0  0  0  0  0  0  0
    0.4888   -6.8739    1.6772 H   0  0  0  0  0  0  0  0  0  0  0  0
    0.6629   -9.0418    2.8329 H   0  0  0  0  0  0  0  0  0  0  0  0
   -1.0084   -8.8673    3.4953 H   0  0  0  0  0  0  0  0  0  0  0  0
    0.3126   -7.7529    4.0459 H   0  0  0  0  0  0  0  0  0  0  0  0
   -4.3402   -1.3582    3.5268 H   0  0  0  0  0  0  0  0  0  0  0  0
   -4.0155   -2.6676    4.6307 H   0  0  0  0  0  0  0  0  0  0  0  0
   -4.7624   -0.7665    5.9581 H   0  0  0  0  0  0  0  0  0  0  0  0
   -3.3807    0.2412    5.3968 H   0  0  0  0  0  0  0  0  0  0  0  0
   -3.0744   -1.2360    6.3792 H   0  0  0  0  0  0  0  0  0  0  0  0
   -4.0327    2.0822    2.3534 H   0  0  0  0  0  0  0  0  0  0  0  0
   -4.1614    0.6886    3.3137 H   0  0  0  0  0  0  0  0  0  0  0  0
   -2.8249   -0.6185    1.4717 H   0  0  0  0  0  0  0  0  0  0  0  0
   -4.3735    0.1125    0.8901 H   0  0  0  0  0  0  0  0  0  0  0  0
   -2.8027    0.9220    0.5343 H   0  0  0  0  0  0  0  0  0  0  0  0
   -3.9549   -8.2401    2.4025 H   0  0  0  0  0  0  0  0  0  0  0  0
   -1.5472   -6.1485   -2.9548 H   0  0  0  0  0  0  0  0  0  0  0  0
   -0.4251   -6.9351   -4.9911 H   0  0  0  0  0  0  0  0  0  0  0  0
   -1.9267   -7.1347   -5.9798 H   0  0  0  0  0  0  0  0  0  0  0  0
   -0.8129   -8.5363   -5.6968 H   0  0  0  0  0  0  0  0  0  0  0  0
   -3.9581  -10.5016   -2.7396 H   0  0  0  0  0  0  0  0  0  0  0  0
  1  2  2  3
  2  3  1  0
  3  4  2  0
  3  5  1  0
  5  6  2  0
  6  7  1  0
  7  8  2  0
  8  9  1  0
  9 10  2  0
 10 11  1  0
 11 12  2  3
 12 13  1  0
 13 14  3  0
 12 15  1  0
 15 16  3  0
  8 17  1  0
 17 18  1  0
 18 19  1  0
 19 20  2  0
 20 21  1  0
 21 22  1  0
 21 23  1  0
  1 24  1  0
 24 25  2  0
 25 26  1  0
 26 27  1  0
 25 28  1  0
 28 29  1  0
 29 30  1  0
 30 31  1  0
 31 32  2  0
 32 33  1  0
 33 34  2  0
 34 35  1  0
 35 36  1  0
 36 37  1  0
 37 38  1  0
 38 39  1  0
 37 40  2  0
 40 41  1  0
 40 42  1  0
 34 43  1  0
 43 44  1  0
 44 45  2  0
 45 46  1  0
 46 47  1  0
 46 48  2  0
 48 49  1  0
 49 50  1  0
 48 51  1  0
 43 52  2  0
 52 53  1  0
 53 54  2  0
 54 55  1  0
 55 56  1  0
 56 57  1  0
 57 58  1  0
 58 59  1  0
 59 60  1  0
 58 61  2  0
 61 62  1  0
 62 63  1  0
 63 64  1  0
 64 65  1  0
 65 66  1  0
 66 67  1  0
 65 68  1  0
 68 69  2  0
 69 70  1  0
 70 71  1  0
 71 72  1  0
 72 73  1  0
 70 74  1  0
 74 75  1  0
 61 76  1  0
 76 77  2  3
 77 78  1  0
 78 79  2  0
 78 80  1  0
 80 81  2  0
 81 82  1  0
 82 83  1  0
 82 84  2  0
 84 85  1  0
 84 86  1  0
 86 87  2  0
 87 88  1  0
 88 89  2  3
 89 90  1  0
 90 91  3  0
 89 92  1  0
 92 93  3  0
 11  2  1  0
 23 17  1  0
 73 24  1  0
 88 77  1  0
 10  5  1  0
 22 18  1  0
 72 28  2  0
 87 80  1  0
 23  7  1  0
 71 30  2  0
 69 31  1  0
 53 32  1  0
 68 54  1  0
 41 35  2  0
 51 44  1  0
 64 55  2  0
 63 57  2  0
  1 94  1  0
  6 95  1  0
  9 96  1  0
 17 97  1  0
 18 98  1  0
 19 99  1  0
 20100  1  0
 21101  1  0
 22102  1  0
 22103  1  0
 23104  1  0
 26105  1  0
 26106  1  0
 27107  1  0
 27108  1  0
 27109  1  0
 38110  1  0
 38111  1  0
 39112  1  0
 39113  1  0
 39114  1  0
 41115  1  0
 45116  1  0
 49117  1  0
 49118  1  0
 50119  1  0
 50120  1  0
 50121  1  0
 59122  1  0
 59123  1  0
 60124  1  0
 60125  1  0
 60126  1  0
 66127  1  0
 66128  1  0
 67129  1  0
 67130  1  0
 67131  1  0
 74132  1  0
 74133  1  0
 75134  1  0
 75135  1  0
 75136  1  0
 76137  1  0
 81138  1  0
 83139  1  0
 83140  1  0
 83141  1  0
 86142  1  0
M  END

