
     RDKit          3D

109122  0  0  0  0  0  0  0  0999 V2000
    0.2489    5.7672    2.0509 C   0  0  0  0  0  0  0  0  0  0  0  0
    1.2766    5.7934    3.0151 C   0  0  0  0  0  0  0  0  0  0  0  0
    2.1805    4.7660    3.2754 C   0  0  0  0  0  0  0  0  0  0  0  0
    2.0387    3.5219    3.0752 O   0  0  0  0  0  0  0  0  0  0  0  0
    3.3352    5.4170    3.8322 C   0  0  0  0  0  0  0  0  0  0  0  0
    4.5030    4.8670    4.3708 C   0  0  0  0  0  0  0  0  0  0  0  0
    5.4368    5.6506    4.9969 C   0  0  0  0  0  0  0  0  0  0  0  0
    5.1790    6.9852    5.0756 C   0  0  0  0  0  0  0  0  0  0  0  0
    4.0153    7.5407    4.5266 C   0  0  0  0  0  0  0  0  0  0  0  0
    3.1038    6.7680    3.9004 C   0  0  0  0  0  0  0  0  0  0  0  0
    1.6053    7.1123    3.3009 C   0  0  0  0  0  0  0  0  0  0  0  0
    1.3080    8.3501    3.8378 C   0  0  0  0  0  0  0  0  0  0  0  0
    2.4989    9.1533    3.3590 C   0  0  0  0  0  0  0  0  0  0  0  0
    3.3033    9.7092    3.0398 N   0  0  0  0  0  0  0  0  0  0  0  0
    0.1726    8.6826    4.4779 C   0  0  0  0  0  0  0  0  0  0  0  0
   -0.7964    8.9465    5.0146 N   0  0  0  0  0  0  0  0  0  0  0  0
    6.3761    7.2753    5.8515 C   0  0  0  0  0  0  0  0  0  0  0  0
    7.4265    8.0595    5.0919 C   0  0  0  0  0  0  0  0  0  0  0  0
    8.7252    7.8825    5.7196 C   0  0  0  0  0  0  0  0  0  0  0  0
    9.0271    6.5663    5.6257 C   0  0  0  0  0  0  0  0  0  0  0  0
    7.9754    5.9067    4.8157 C   0  0  0  0  0  0  0  0  0  0  0  0
    7.5727    7.0809    3.9051 C   0  0  0  0  0  0  0  0  0  0  0  0
    6.7381    5.8333    5.6902 C   0  0  0  0  0  0  0  0  0  0  0  0
    0.0523    4.6506    1.1744 C   0  0  0  0  0  0  0  0  0  0  0  0
    0.4110    4.7890   -0.2211 C   0  0  0  0  0  0  0  0  0  0  0  0
    1.0143    6.0823   -0.7148 C   0  0  0  0  0  0  0  0  0  0  0  0
    2.4658    6.1734   -0.3861 C   0  0  0  0  0  0  0  0  0  0  0  0
    0.2024    3.6922   -0.9751 C   0  0  0  0  0  0  0  0  0  0  0  0
    0.4029    3.2198   -2.6654 S   0  0  0  0  0  0  0  0  0  0  0  0
   -0.1630    1.6220   -2.5462 C   0  0  0  0  0  0  0  0  0  0  0  0
   -0.4508    0.4655   -3.2519 C   0  0  0  0  0  0  0  0  0  0  0  0
   -0.2517    0.1338   -4.5964 C   0  0  0  0  0  0  0  0  0  0  0  0
   -0.5990   -1.0829   -5.0180 C   0  0  0  0  0  0  0  0  0  0  0  0
   -0.4260   -1.4471   -6.2882 N   0  0  0  0  0  0  0  0  0  0  0  0
    0.3695    0.2384   -7.0195 Se  0  0  0  0  0  2  0  0  0  0  0  0
    0.2764    0.9961   -5.4634 N   0  0  0  0  0  0  0  0  0  0  0  0
   -1.1695   -1.9627   -4.0616 C   0  0  0  0  0  0  0  0  0  0  0  0
   -1.7193   -3.2193   -4.2491 C   0  0  0  0  0  0  0  0  0  0  0  0
   -2.0885   -4.5275   -5.3171 S   0  0  0  0  0  0  0  0  0  0  0  0
   -2.9213   -5.5755   -4.2189 C   0  0  0  0  0  0  0  0  0  0  0  0
   -3.5885   -6.7820   -4.2537 C   0  0  0  0  0  0  0  0  0  0  0  0
   -3.7156   -7.5898   -5.5446 C   0  0  0  0  0  0  0  0  0  0  0  0
   -2.4031   -8.2000   -5.8383 C   0  0  0  0  0  0  0  0  0  0  0  0
   -4.1727   -7.2242   -3.1627 C   0  0  0  0  0  0  0  0  0  0  0  0
   -3.7494   -5.8856   -2.0228 S   0  0  0  0  0  0  0  0  0  0  0  0
   -2.8689   -4.8894   -3.1156 C   0  0  0  0  0  0  0  0  0  0  0  0
   -2.2578   -3.6628   -3.0775 C   0  0  0  0  0  0  0  0  0  0  0  0
   -2.0269   -2.6460   -2.1336 N   0  0  0  0  0  0  0  0  0  0  0  0
   -1.3761   -1.6495   -2.7370 C   0  0  0  0  0  0  0  0  0  0  0  0
   -0.9832   -0.3842   -2.2928 C   0  0  0  0  0  0  0  0  0  0  0  0
   -0.9989    0.2034   -1.1039 N   0  0  0  0  0  0  0  0  0  0  0  0
   -0.4859    1.4953   -1.2461 C   0  0  0  0  0  0  0  0  0  0  0  0
   -0.2842    2.5987   -0.4407 C   0  0  0  0  0  0  0  0  0  0  0  0
   -0.4826    3.0965    1.2360 S   0  0  0  0  0  0  0  0  0  0  0  0
   -1.2575   -0.3785    0.1910 C   0  0  0  0  0  0  0  0  0  0  0  0
    0.0546   -0.9288    0.7908 C   0  0  0  0  0  0  0  0  0  0  0  0
   -2.6636   -2.7236   -0.8538 C   0  0  0  0  0  0  0  0  0  0  0  0
   -1.8968   -3.5297    0.1178 C   0  0  0  0  0  0  0  0  0  0  0  0
   -5.0462   -8.1757   -2.5061 C   0  0  0  0  0  0  0  0  0  0  0  0
   -5.0325   -9.3396   -1.9581 C   0  0  0  0  0  0  0  0  0  0  0  0
   -3.9383  -10.2567   -1.8357 C   0  0  0  0  0  0  0  0  0  0  0  0
   -3.0761  -10.9761   -1.7525 N   0  0  0  0  0  0  0  0  0  0  0  0
   -6.0922   -9.3656   -0.9054 C   0  0  0  0  0  0  0  0  0  0  0  0
   -6.6572  -10.1134    0.0108 C   0  0  0  0  0  0  0  0  0  0  0  0
   -7.6854   -9.2242    0.7122 C   0  0  0  0  0  0  0  0  0  0  0  0
   -8.4907   -8.5116    1.2623 N   0  0  0  0  0  0  0  0  0  0  0  0
   -6.4666  -11.3168    0.4345 C   0  0  0  0  0  0  0  0  0  0  0  0
   -6.2781  -12.4939    0.8719 N   0  0  0  0  0  0  0  0  0  0  0  0
   -6.6408   -7.9946   -1.0482 O   0  0  0  0  0  0  0  0  0  0  0  0
   -6.5729   -7.8588   -2.4803 C   0  0  0  0  0  0  0  0  0  0  0  0
   -6.8228   -6.5287   -3.0088 C   0  0  0  0  0  0  0  0  0  0  0  0
   -7.2719   -9.0139   -3.1136 C   0  0  0  0  0  0  0  0  0  0  0  0
   -0.3933    6.6068    2.0181 H   0  0  0  0  0  0  0  0  0  0  0  0
    4.6169    3.8061    4.2591 H   0  0  0  0  0  0  0  0  0  0  0  0
    3.9289    8.5907    4.7739 H   0  0  0  0  0  0  0  0  0  0  0  0
    6.1861    7.6037    6.8972 H   0  0  0  0  0  0  0  0  0  0  0  0
    7.1291    9.0607    4.8036 H   0  0  0  0  0  0  0  0  0  0  0  0
    9.3252    8.6525    6.1423 H   0  0  0  0  0  0  0  0  0  0  0  0
    9.8833    6.0740    6.0656 H   0  0  0  0  0  0  0  0  0  0  0  0
    8.2652    5.0087    4.2865 H   0  0  0  0  0  0  0  0  0  0  0  0
    8.4010    7.3549    3.2445 H   0  0  0  0  0  0  0  0  0  0  0  0
    6.6195    6.8544    3.4300 H   0  0  0  0  0  0  0  0  0  0  0  0
    6.8057    5.2272    6.6032 H   0  0  0  0  0  0  0  0  0  0  0  0
    0.8444    6.1572   -1.7964 H   0  0  0  0  0  0  0  0  0  0  0  0
    0.4621    6.9368   -0.2738 H   0  0  0  0  0  0  0  0  0  0  0  0
    2.6816    6.6891    0.5786 H   0  0  0  0  0  0  0  0  0  0  0  0
    2.9713    5.2039   -0.4340 H   0  0  0  0  0  0  0  0  0  0  0  0
    2.9358    6.8671   -1.1644 H   0  0  0  0  0  0  0  0  0  0  0  0
   -3.9090   -6.8452   -6.3751 H   0  0  0  0  0  0  0  0  0  0  0  0
   -4.5967   -8.2400   -5.5110 H   0  0  0  0  0  0  0  0  0  0  0  0
   -1.9834   -8.6015   -4.9138 H   0  0  0  0  0  0  0  0  0  0  0  0
   -1.7363   -7.3346   -6.1556 H   0  0  0  0  0  0  0  0  0  0  0  0
   -2.5409   -8.8963   -6.6640 H   0  0  0  0  0  0  0  0  0  0  0  0
   -2.1492   -0.7906    0.5057 H   0  0  0  0  0  0  0  0  0  0  0  0
   -1.3286    0.5999    0.8913 H   0  0  0  0  0  0  0  0  0  0  0  0
   -0.0168   -1.1228    1.8547 H   0  0  0  0  0  0  0  0  0  0  0  0
    0.8731   -0.1764    0.6114 H   0  0  0  0  0  0  0  0  0  0  0  0
    0.4244   -1.8402    0.2530 H   0  0  0  0  0  0  0  0  0  0  0  0
   -3.6394   -3.4047   -0.9800 H   0  0  0  0  0  0  0  0  0  0  0  0
   -3.2532   -1.8554   -0.5842 H   0  0  0  0  0  0  0  0  0  0  0  0
   -2.2981   -4.5744    0.3041 H   0  0  0  0  0  0  0  0  0  0  0  0
   -1.8161   -3.1080    1.1169 H   0  0  0  0  0  0  0  0  0  0  0  0
   -0.8610   -3.7700   -0.2701 H   0  0  0  0  0  0  0  0  0  0  0  0
   -6.7847   -5.7609   -2.2204 H   0  0  0  0  0  0  0  0  0  0  0  0
   -5.9918   -6.2561   -3.7439 H   0  0  0  0  0  0  0  0  0  0  0  0
   -7.7740   -6.4582   -3.6040 H   0  0  0  0  0  0  0  0  0  0  0  0
   -6.5842   -9.9071   -3.1129 H   0  0  0  0  0  0  0  0  0  0  0  0
   -8.1478   -9.3077   -2.4398 H   0  0  0  0  0  0  0  0  0  0  0  0
   -7.6628   -8.8188   -4.1088 H   0  0  0  0  0  0  0  0  0  0  0  0
  1  2  2  3
  2  3  1  0
  3  4  2  0
  3  5  1  0
  5  6  2  0
  6  7  1  0
  7  8  2  0
  8  9  1  0
  9 10  2  0
 10 11  1  0
 11 12  2  3
 12 13  1  0
 13 14  3  0
 12 15  1  0
 15 16  3  0
  8 17  1  0
 17 18  1  0
 18 19  1  0
 19 20  2  0
 20 21  1  0
 21 22  1  0
 21 23  1  0
  1 24  1  0
 24 25  2  0
 25 26  1  0
 26 27  1  0
 25 28  1  0
 28 29  1  0
 29 30  1  0
 30 31  1  0
 31 32  1  0
 32 33  1  0
 33 34  2  0
 34 35  1  0
 35 36  1  0
 33 37  1  0
 37 38  1  0
 38 39  1  0
 39 40  1  0
 40 41  1  0
 41 42  1  0
 42 43  1  0
 41 44  2  0
 44 45  1  0
 45 46  1  0
 46 47  1  0
 47 48  1  0
 48 49  1  0
 49 50  1  0
 50 51  1  0
 51 52  1  0
 52 53  1  0
 53 54  1  0
 51 55  1  0
 55 56  1  0
 48 57  1  0
 57 58  1  0
 44 59  1  0
 59 60  2  0
 60 61  1  0
 61 62  3  0
 60 63  1  0
 63 64  2  3
 64 65  1  0
 65 66  3  0
 64 67  1  0
 67 68  3  0
 63 69  1  0
 69 70  1  0
 70 71  1  0
 70 72  1  0
 11  2  1  0
 23 17  1  0
 54 24  1  0
 70 59  1  0
 10  5  1  0
 22 18  1  0
 53 28  2  0
 23  7  1  0
 52 30  2  0
 50 31  2  0
 36 32  2  0
 49 37  2  0
 47 38  2  0
 46 40  2  0
  1 73  1  0
  6 74  1  0
  9 75  1  0
 17 76  1  0
 18 77  1  0
 19 78  1  0
 20 79  1  0
 21 80  1  0
 22 81  1  0
 22 82  1  0
 23 83  1  0
 26 84  1  0
 26 85  1  0
 27 86  1  0
 27 87  1  0
 27 88  1  0
 42 89  1  0
 42 90  1  0
 43 91  1  0
 43 92  1  0
 43 93  1  0
 55 94  1  0
 55 95  1  0
 56 96  1  0
 56 97  1  0
 56 98  1  0
 57 99  1  0
 57100  1  0
 58101  1  0
 58102  1  0
 58103  1  0
 71104  1  0
 71105  1  0
 71106  1  0
 72107  1  0
 72108  1  0
 72109  1  0
M  END

