
     RDKit          3D

116129  0  0  0  0  0  0  0  0999 V2000
   -1.1265    6.4655    1.6936 C   0  0  0  0  0  0  0  0  0  0  0  0
   -0.8423    7.1735    0.5846 C   0  0  0  0  0  0  0  0  0  0  0  0
   -0.9318    8.6309    0.5615 C   0  0  0  0  0  0  0  0  0  0  0  0
   -1.0471    9.3808    1.5673 O   0  0  0  0  0  0  0  0  0  0  0  0
   -0.9086    9.0784   -0.8107 C   0  0  0  0  0  0  0  0  0  0  0  0
   -0.9262   10.4181   -1.2627 C   0  0  0  0  0  0  0  0  0  0  0  0
   -0.8065   10.5451   -2.6325 C   0  0  0  0  0  0  0  0  0  0  0  0
   -0.6996    9.4266   -3.5196 C   0  0  0  0  0  0  0  0  0  0  0  0
   -0.6933    8.1110   -3.0830 C   0  0  0  0  0  0  0  0  0  0  0  0
   -0.7826    7.9519   -1.6691 C   0  0  0  0  0  0  0  0  0  0  0  0
   -0.6265    6.7239   -0.8292 C   0  0  0  0  0  0  0  0  0  0  0  0
   -0.0364    5.5699   -1.2243 C   0  0  0  0  0  0  0  0  0  0  0  0
   -0.0094    5.1460   -2.5987 C   0  0  0  0  0  0  0  0  0  0  0  0
    0.0055    4.7821   -3.6971 N   0  0  0  0  0  0  0  0  0  0  0  0
    0.7969    4.8079   -0.3320 C   0  0  0  0  0  0  0  0  0  0  0  0
    1.4956    4.2078    0.3658 N   0  0  0  0  0  0  0  0  0  0  0  0
   -0.5897   10.3513   -4.6962 C   0  0  0  0  0  0  0  0  0  0  0  0
    0.8295   10.5058   -5.3209 C   0  0  0  0  0  0  0  0  0  0  0  0
    0.7734   11.7475   -6.1791 C   0  0  0  0  0  0  0  0  0  0  0  0
    0.6900   12.7853   -5.3403 C   0  0  0  0  0  0  0  0  0  0  0  0
    0.6892   12.2090   -3.9455 C   0  0  0  0  0  0  0  0  0  0  0  0
    1.6534   11.0569   -4.1714 C   0  0  0  0  0  0  0  0  0  0  0  0
   -0.6859   11.4949   -3.7842 C   0  0  0  0  0  0  0  0  0  0  0  0
   -1.2953    5.0060    1.7830 C   0  0  0  0  0  0  0  0  0  0  0  0
   -0.5429    4.2275    2.6686 C   0  0  0  0  0  0  0  0  0  0  0  0
   -1.0385    2.9629    2.4766 C   0  0  0  0  0  0  0  0  0  0  0  0
   -2.0062    2.9970    1.5735 C   0  0  0  0  0  0  0  0  0  0  0  0
   -2.2043    4.2468    1.0921 N   0  0  0  0  0  0  0  0  0  0  0  0
   -3.2518    4.7204    0.1793 C   0  0  0  0  0  0  0  0  0  0  0  0
   -4.6181    4.6681    0.8572 C   0  0  0  0  0  0  0  0  0  0  0  0
   -2.3291    1.6890    1.2671 C   0  0  0  0  0  0  0  0  0  0  0  0
   -3.1571    1.1161    0.2878 C   0  0  0  0  0  0  0  0  0  0  0  0
   -3.1361   -0.2973    0.1100 C   0  0  0  0  0  0  0  0  0  0  0  0
   -3.9360   -0.8143   -0.8559 N   0  0  0  0  0  0  0  0  0  0  0  0
   -4.6196    0.5784   -1.4312 S   0  0  0  0  0  0  0  0  0  0  0  0
   -3.9756    1.8118   -0.5359 N   0  0  0  0  0  0  0  0  0  0  0  0
   -2.3215   -1.0685    0.9359 C   0  0  0  0  0  0  0  0  0  0  0  0
   -2.1276   -2.4160    0.9769 C   0  0  0  0  0  0  0  0  0  0  0  0
   -2.6064   -3.8218    0.1623 S   0  0  0  0  0  0  0  0  0  0  0  0
   -1.5903   -4.7872    1.1451 C   0  0  0  0  0  0  0  0  0  0  0  0
   -1.2026   -6.1384    1.1348 C   0  0  0  0  0  0  0  0  0  0  0  0
   -1.8667   -7.2700    0.3839 C   0  0  0  0  0  0  0  0  0  0  0  0
   -2.4826   -6.8723   -0.9559 C   0  0  0  0  0  0  0  0  0  0  0  0
   -0.1583   -6.3502    2.0614 C   0  0  0  0  0  0  0  0  0  0  0  0
    0.1897   -4.9193    2.9152 S   0  0  0  0  0  0  0  0  0  0  0  0
   -0.9336   -4.0094    2.0714 C   0  0  0  0  0  0  0  0  0  0  0  0
   -1.2600   -2.6623    1.9770 C   0  0  0  0  0  0  0  0  0  0  0  0
   -0.8952   -1.5451    2.6544 N   0  0  0  0  0  0  0  0  0  0  0  0
   -1.5145   -0.5247    1.9539 C   0  0  0  0  0  0  0  0  0  0  0  0
   -1.4752    0.9021    2.0924 C   0  0  0  0  0  0  0  0  0  0  0  0
   -0.6275    1.7219    2.8108 N   0  0  0  0  0  0  0  0  0  0  0  0
    0.6606    1.4682    3.4658 C   0  0  0  0  0  0  0  0  0  0  0  0
    1.6700    0.8596    2.4928 C   0  0  0  0  0  0  0  0  0  0  0  0
   -0.3826   -1.5842    4.0302 C   0  0  0  0  0  0  0  0  0  0  0  0
   -1.3793   -0.9792    5.0194 C   0  0  0  0  0  0  0  0  0  0  0  0
    0.3505   -7.6560    2.4692 C   0  0  0  0  0  0  0  0  0  0  0  0
    1.3405   -8.3791    1.9017 C   0  0  0  0  0  0  0  0  0  0  0  0
    1.6539   -9.7200    2.4167 C   0  0  0  0  0  0  0  0  0  0  0  0
    1.0645  -10.2987    3.3698 O   0  0  0  0  0  0  0  0  0  0  0  0
    2.7301  -10.2924    1.6499 C   0  0  0  0  0  0  0  0  0  0  0  0
    3.2414  -11.5877    1.7204 C   0  0  0  0  0  0  0  0  0  0  0  0
    4.1914  -11.9961    0.7611 C   0  0  0  0  0  0  0  0  0  0  0  0
    4.7424  -13.2867    0.7619 O   0  0  0  0  0  0  0  0  0  0  0  0
    4.4737  -14.2822    1.7439 C   0  0  0  0  0  0  0  0  0  0  0  0
    4.5930  -11.0987   -0.2513 C   0  0  0  0  0  0  0  0  0  0  0  0
    5.5381  -11.5389   -1.1912 O   0  0  0  0  0  0  0  0  0  0  0  0
    6.1646  -10.7059   -2.1544 C   0  0  0  0  0  0  0  0  0  0  0  0
    4.0402   -9.7983   -0.3005 C   0  0  0  0  0  0  0  0  0  0  0  0
    3.1338   -9.3886    0.6923 C   0  0  0  0  0  0  0  0  0  0  0  0
    2.3565   -8.1135    0.8098 C   0  0  0  0  0  0  0  0  0  0  0  0
    2.6897   -6.9563    0.1734 C   0  0  0  0  0  0  0  0  0  0  0  0
    1.8201   -5.8380   -0.0269 C   0  0  0  0  0  0  0  0  0  0  0  0
    1.1640   -4.9148   -0.2526 N   0  0  0  0  0  0  0  0  0  0  0  0
    3.9847   -6.7744   -0.4337 C   0  0  0  0  0  0  0  0  0  0  0  0
    5.0241   -6.6128   -0.9169 N   0  0  0  0  0  0  0  0  0  0  0  0
   -1.2297    7.0017    2.6289 H   0  0  0  0  0  0  0  0  0  0  0  0
   -0.9796   11.2697   -0.5982 H   0  0  0  0  0  0  0  0  0  0  0  0
   -0.6096    7.3058   -3.7912 H   0  0  0  0  0  0  0  0  0  0  0  0
   -1.4314   10.2643   -5.4154 H   0  0  0  0  0  0  0  0  0  0  0  0
    1.2350    9.6006   -5.8218 H   0  0  0  0  0  0  0  0  0  0  0  0
    0.8862   11.8094   -7.2555 H   0  0  0  0  0  0  0  0  0  0  0  0
    0.7290   13.8316   -5.6184 H   0  0  0  0  0  0  0  0  0  0  0  0
    0.9616   12.9215   -3.1373 H   0  0  0  0  0  0  0  0  0  0  0  0
    2.6748   11.3876   -4.4805 H   0  0  0  0  0  0  0  0  0  0  0  0
    1.7507   10.3653   -3.3055 H   0  0  0  0  0  0  0  0  0  0  0  0
   -1.5825   12.1374   -3.9276 H   0  0  0  0  0  0  0  0  0  0  0  0
    0.2728    4.5460    3.3029 H   0  0  0  0  0  0  0  0  0  0  0  0
   -3.2431    4.1281   -0.7552 H   0  0  0  0  0  0  0  0  0  0  0  0
   -3.0662    5.7706   -0.1225 H   0  0  0  0  0  0  0  0  0  0  0  0
   -5.4062    4.9580    0.1285 H   0  0  0  0  0  0  0  0  0  0  0  0
   -4.6419    5.3797    1.7146 H   0  0  0  0  0  0  0  0  0  0  0  0
   -4.8348    3.6459    1.2319 H   0  0  0  0  0  0  0  0  0  0  0  0
   -2.6563   -7.7111    1.0280 H   0  0  0  0  0  0  0  0  0  0  0  0
   -1.1152   -8.0638    0.1829 H   0  0  0  0  0  0  0  0  0  0  0  0
   -1.7639   -6.2712   -1.5563 H   0  0  0  0  0  0  0  0  0  0  0  0
   -2.7419   -7.7889   -1.5269 H   0  0  0  0  0  0  0  0  0  0  0  0
   -3.4220   -6.3024   -0.7961 H   0  0  0  0  0  0  0  0  0  0  0  0
    1.0982    2.4224    3.8313 H   0  0  0  0  0  0  0  0  0  0  0  0
    0.5274    0.8931    4.3920 H   0  0  0  0  0  0  0  0  0  0  0  0
    2.6259    0.6681    3.0235 H   0  0  0  0  0  0  0  0  0  0  0  0
    1.8613    1.5655    1.6583 H   0  0  0  0  0  0  0  0  0  0  0  0
    1.2997   -0.0938    2.0694 H   0  0  0  0  0  0  0  0  0  0  0  0
   -0.2372   -2.6351    4.3540 H   0  0  0  0  0  0  0  0  0  0  0  0
    0.6286   -1.1593    4.0915 H   0  0  0  0  0  0  0  0  0  0  0  0
   -2.3201   -1.5725    5.0121 H   0  0  0  0  0  0  0  0  0  0  0  0
   -0.9495   -1.0056    6.0423 H   0  0  0  0  0  0  0  0  0  0  0  0
   -1.6264    0.0687    4.7653 H   0  0  0  0  0  0  0  0  0  0  0  0
   -0.1880   -8.0923    3.2992 H   0  0  0  0  0  0  0  0  0  0  0  0
    2.8849  -12.2600    2.4901 H   0  0  0  0  0  0  0  0  0  0  0  0
    3.3853  -14.5066    1.7777 H   0  0  0  0  0  0  0  0  0  0  0  0
    4.8316  -13.9415    2.7363 H   0  0  0  0  0  0  0  0  0  0  0  0
    5.0105  -15.2121    1.4660 H   0  0  0  0  0  0  0  0  0  0  0  0
    5.4175  -10.3236   -2.8784 H   0  0  0  0  0  0  0  0  0  0  0  0
    6.9214  -11.2990   -2.7081 H   0  0  0  0  0  0  0  0  0  0  0  0
    6.6769   -9.8603   -1.6513 H   0  0  0  0  0  0  0  0  0  0  0  0
    4.2750   -9.1599   -1.1329 H   0  0  0  0  0  0  0  0  0  0  0  0
  1  2  2  3
  2  3  1  0
  3  4  2  0
  3  5  1  0
  5  6  2  0
  6  7  1  0
  7  8  2  0
  8  9  1  0
  9 10  2  0
 10 11  1  0
 11 12  2  3
 12 13  1  0
 13 14  3  0
 12 15  1  0
 15 16  3  0
  8 17  1  0
 17 18  1  0
 18 19  1  0
 19 20  2  0
 20 21  1  0
 21 22  1  0
 21 23  1  0
  1 24  1  0
 24 25  2  0
 25 26  1  0
 26 27  2  0
 27 28  1  0
 28 29  1  0
 29 30  1  0
 27 31  1  0
 31 32  1  0
 32 33  1  0
 33 34  2  0
 34 35  1  0
 35 36  1  0
 33 37  1  0
 37 38  1  0
 38 39  1  0
 39 40  1  0
 40 41  1  0
 41 42  1  0
 42 43  1  0
 41 44  2  0
 44 45  1  0
 45 46  1  0
 46 47  1  0
 47 48  1  0
 48 49  1  0
 49 50  1  0
 50 51  1  0
 51 52  1  0
 52 53  1  0
 48 54  1  0
 54 55  1  0
 44 56  1  0
 56 57  2  3
 57 58  1  0
 58 59  2  0
 58 60  1  0
 60 61  2  0
 61 62  1  0
 62 63  1  0
 63 64  1  0
 62 65  2  0
 65 66  1  0
 66 67  1  0
 65 68  1  0
 68 69  2  0
 69 70  1  0
 70 71  2  3
 71 72  1  0
 72 73  3  0
 71 74  1  0
 74 75  3  0
 11  2  1  0
 23 17  1  0
 28 24  1  0
 50 31  2  0
 70 57  1  0
 10  5  1  0
 22 18  1  0
 51 26  1  0
 69 60  1  0
 23  7  1  0
 36 32  2  0
 49 37  2  0
 47 38  2  0
 46 40  2  0
  1 76  1  0
  6 77  1  0
  9 78  1  0
 17 79  1  0
 18 80  1  0
 19 81  1  0
 20 82  1  0
 21 83  1  0
 22 84  1  0
 22 85  1  0
 23 86  1  0
 25 87  1  0
 29 88  1  0
 29 89  1  0
 30 90  1  0
 30 91  1  0
 30 92  1  0
 42 93  1  0
 42 94  1  0
 43 95  1  0
 43 96  1  0
 43 97  1  0
 52 98  1  0
 52 99  1  0
 53100  1  0
 53101  1  0
 53102  1  0
 54103  1  0
 54104  1  0
 55105  1  0
 55106  1  0
 55107  1  0
 56108  1  0
 61109  1  0
 64110  1  0
 64111  1  0
 64112  1  0
 67113  1  0
 67114  1  0
 67115  1  0
 68116  1  0
M  END

