
     RDKit          3D

110124  0  0  0  0  0  0  0  0999 V2000
    2.7584   -5.8375   -1.7520 C   0  0  0  0  0  0  0  0  0  0  0  0
    2.8379   -5.4980   -0.4507 C   0  0  0  0  0  0  0  0  0  0  0  0
    1.8618   -4.6653    0.2697 C   0  0  0  0  0  0  0  0  0  0  0  0
    0.7027   -4.3595   -0.1186 O   0  0  0  0  0  0  0  0  0  0  0  0
    2.4657   -4.2009    1.4970 C   0  0  0  0  0  0  0  0  0  0  0  0
    1.9065   -3.2952    2.4278 C   0  0  0  0  0  0  0  0  0  0  0  0
    2.7579   -2.9614    3.4627 C   0  0  0  0  0  0  0  0  0  0  0  0
    4.0895   -3.4770    3.5777 C   0  0  0  0  0  0  0  0  0  0  0  0
    4.6445   -4.3625    2.6671 C   0  0  0  0  0  0  0  0  0  0  0  0
    3.7711   -4.7448    1.6081 C   0  0  0  0  0  0  0  0  0  0  0  0
    4.0131   -5.6676    0.4604 C   0  0  0  0  0  0  0  0  0  0  0  0
    4.9630   -6.6358    0.3851 C   0  0  0  0  0  0  0  0  0  0  0  0
    4.9638   -7.6370   -0.6516 C   0  0  0  0  0  0  0  0  0  0  0  0
    4.9707   -8.4482   -1.4783 N   0  0  0  0  0  0  0  0  0  0  0  0
    5.9538   -6.8311    1.4106 C   0  0  0  0  0  0  0  0  0  0  0  0
    6.7530   -7.0080    2.2291 N   0  0  0  0  0  0  0  0  0  0  0  0
    4.2998   -2.6953    4.8394 C   0  0  0  0  0  0  0  0  0  0  0  0
    4.2637   -3.5043    6.1692 C   0  0  0  0  0  0  0  0  0  0  0  0
    4.0973   -2.4847    7.2707 C   0  0  0  0  0  0  0  0  0  0  0  0
    2.8512   -2.0077    7.1625 C   0  0  0  0  0  0  0  0  0  0  0  0
    2.2202   -2.7200    5.9914 C   0  0  0  0  0  0  0  0  0  0  0  0
    2.8591   -4.0873    6.1797 C   0  0  0  0  0  0  0  0  0  0  0  0
    2.9353   -2.1693    4.7224 C   0  0  0  0  0  0  0  0  0  0  0  0
    1.5884   -5.5078   -2.5754 C   0  0  0  0  0  0  0  0  0  0  0  0
    0.3489   -6.1758   -2.5368 C   0  0  0  0  0  0  0  0  0  0  0  0
    0.0786   -7.4412   -1.7689 C   0  0  0  0  0  0  0  0  0  0  0  0
    0.4374   -8.6622   -2.6070 C   0  0  0  0  0  0  0  0  0  0  0  0
   -0.6265   -5.4520   -3.2258 C   0  0  0  0  0  0  0  0  0  0  0  0
   -0.1841   -4.2684   -3.7635 C   0  0  0  0  0  0  0  0  0  0  0  0
    1.4321   -4.0248   -3.3973 S   0  0  0  0  0  0  0  0  0  0  0  0
   -1.2180   -3.4197   -4.1152 C   0  0  0  0  0  0  0  0  0  0  0  0
   -2.4409   -3.9630   -3.8738 C   0  0  0  0  0  0  0  0  0  0  0  0
   -2.3320   -5.4965   -3.1578 S   0  0  0  0  0  0  0  0  0  0  0  0
   -3.3234   -2.9197   -3.7810 C   0  0  0  0  0  0  0  0  0  0  0  0
   -4.6887   -2.8823   -3.4892 C   0  0  0  0  0  0  0  0  0  0  0  0
   -5.4639   -3.9821   -3.3201 N   0  0  0  0  0  0  0  0  0  0  0  0
   -6.9165   -3.2532   -3.0032 S   0  0  0  0  0  0  0  0  0  0  0  0
   -6.6471   -1.6193   -3.0584 N   0  0  0  0  0  0  0  0  0  0  0  0
   -5.3254   -1.6121   -3.3604 C   0  0  0  0  0  0  0  0  0  0  0  0
   -4.5443   -0.4495   -3.4507 C   0  0  0  0  0  0  0  0  0  0  0  0
   -4.8196    0.8134   -3.0018 C   0  0  0  0  0  0  0  0  0  0  0  0
   -6.0680    1.4990   -2.0738 S   0  0  0  0  0  0  0  0  0  0  0  0
   -5.0188    2.6892   -1.4660 C   0  0  0  0  0  0  0  0  0  0  0  0
   -5.1564    3.6198   -0.4377 C   0  0  0  0  0  0  0  0  0  0  0  0
   -3.9199    4.1872   -0.0999 C   0  0  0  0  0  0  0  0  0  0  0  0
   -2.6887    3.4481   -1.0225 S   0  0  0  0  0  0  0  0  0  0  0  0
   -3.7388    2.5011   -1.9204 C   0  0  0  0  0  0  0  0  0  0  0  0
   -3.6223    1.4361   -2.8123 C   0  0  0  0  0  0  0  0  0  0  0  0
   -2.5657    0.6579   -3.1643 N   0  0  0  0  0  0  0  0  0  0  0  0
   -1.2067    0.8387   -2.6308 C   0  0  0  0  0  0  0  0  0  0  0  0
   -0.4724    1.9706   -3.3520 C   0  0  0  0  0  0  0  0  0  0  0  0
   -3.1487   -0.4987   -3.6297 C   0  0  0  0  0  0  0  0  0  0  0  0
   -2.5534   -1.7561   -3.9225 C   0  0  0  0  0  0  0  0  0  0  0  0
   -1.2530   -2.0702   -4.2020 N   0  0  0  0  0  0  0  0  0  0  0  0
   -0.2691   -1.2537   -4.9249 C   0  0  0  0  0  0  0  0  0  0  0  0
    0.0491   -1.8456   -6.2983 C   0  0  0  0  0  0  0  0  0  0  0  0
   -3.6994    5.0275    1.0917 C   0  0  0  0  0  0  0  0  0  0  0  0
   -2.6919    5.9120    1.2296 C   0  0  0  0  0  0  0  0  0  0  0  0
   -1.9355    6.5300    0.1306 C   0  0  0  0  0  0  0  0  0  0  0  0
   -2.0838    6.3103   -1.1013 O   0  0  0  0  0  0  0  0  0  0  0  0
   -1.1251    7.5961    0.6741 C   0  0  0  0  0  0  0  0  0  0  0  0
   -0.3000    8.4801   -0.0204 C   0  0  0  0  0  0  0  0  0  0  0  0
    0.3453    9.5074    0.6954 C   0  0  0  0  0  0  0  0  0  0  0  0
    1.1968   10.4287    0.0687 O   0  0  0  0  0  0  0  0  0  0  0  0
    1.9633   10.1681   -1.0752 C   0  0  0  0  0  0  0  0  0  0  0  0
    2.2212    8.9851   -1.4283 O   0  0  0  0  0  0  0  0  0  0  0  0
    2.5724   11.3038   -1.8216 C   0  0  0  0  0  0  0  0  0  0  0  0
    0.0938    9.6522    2.0725 C   0  0  0  0  0  0  0  0  0  0  0  0
   -0.7548    8.7600    2.7480 C   0  0  0  0  0  0  0  0  0  0  0  0
   -1.3422    7.7014    2.0354 C   0  0  0  0  0  0  0  0  0  0  0  0
   -2.2679    6.6186    2.4832 C   0  0  0  0  0  0  0  0  0  0  0  0
   -2.4803    6.2119    3.7636 C   0  0  0  0  0  0  0  0  0  0  0  0
   -3.2112    5.0139    4.0890 C   0  0  0  0  0  0  0  0  0  0  0  0
   -3.7949    4.0515    4.3619 N   0  0  0  0  0  0  0  0  0  0  0  0
   -1.8679    6.8590    4.8957 C   0  0  0  0  0  0  0  0  0  0  0  0
   -1.3805    7.3646    5.8168 N   0  0  0  0  0  0  0  0  0  0  0  0
    3.6046   -6.2602   -2.2689 H   0  0  0  0  0  0  0  0  0  0  0  0
    0.9098   -2.8860    2.3339 H   0  0  0  0  0  0  0  0  0  0  0  0
    5.6661   -4.6879    2.7686 H   0  0  0  0  0  0  0  0  0  0  0  0
    5.1012   -1.9284    4.7627 H   0  0  0  0  0  0  0  0  0  0  0  0
    5.0926   -4.2299    6.3142 H   0  0  0  0  0  0  0  0  0  0  0  0
    4.8002   -2.2500    8.0619 H   0  0  0  0  0  0  0  0  0  0  0  0
    2.3723   -1.3197    7.8493 H   0  0  0  0  0  0  0  0  0  0  0  0
    1.1101   -2.7006    5.9651 H   0  0  0  0  0  0  0  0  0  0  0  0
    2.6553   -4.8056    5.3537 H   0  0  0  0  0  0  0  0  0  0  0  0
    2.5878   -4.5732    7.1492 H   0  0  0  0  0  0  0  0  0  0  0  0
    2.8719   -1.0682    4.5700 H   0  0  0  0  0  0  0  0  0  0  0  0
    0.6696   -7.4531   -0.8286 H   0  0  0  0  0  0  0  0  0  0  0  0
   -0.9935   -7.4953   -1.4858 H   0  0  0  0  0  0  0  0  0  0  0  0
   -0.1405   -8.6585   -3.5576 H   0  0  0  0  0  0  0  0  0  0  0  0
    1.5259   -8.6654   -2.8363 H   0  0  0  0  0  0  0  0  0  0  0  0
    0.1885   -9.5870   -2.0423 H   0  0  0  0  0  0  0  0  0  0  0  0
   -6.0830    3.8073    0.0896 H   0  0  0  0  0  0  0  0  0  0  0  0
   -0.6220   -0.0935   -2.6792 H   0  0  0  0  0  0  0  0  0  0  0  0
   -1.2586    1.0697   -1.5470 H   0  0  0  0  0  0  0  0  0  0  0  0
    0.5815    2.0125   -3.0031 H   0  0  0  0  0  0  0  0  0  0  0  0
   -0.4782    1.8280   -4.4497 H   0  0  0  0  0  0  0  0  0  0  0  0
   -0.9491    2.9478   -3.1430 H   0  0  0  0  0  0  0  0  0  0  0  0
    0.6681   -1.1720   -4.3329 H   0  0  0  0  0  0  0  0  0  0  0  0
   -0.6842   -0.2475   -5.1084 H   0  0  0  0  0  0  0  0  0  0  0  0
    0.5769   -2.8167   -6.1936 H   0  0  0  0  0  0  0  0  0  0  0  0
   -0.8877   -1.9968   -6.8763 H   0  0  0  0  0  0  0  0  0  0  0  0
    0.7086   -1.1502   -6.8604 H   0  0  0  0  0  0  0  0  0  0  0  0
   -4.4012    4.8836    1.8975 H   0  0  0  0  0  0  0  0  0  0  0  0
   -0.1926    8.3846   -1.0928 H   0  0  0  0  0  0  0  0  0  0  0  0
    3.6026   11.4815   -1.4502 H   0  0  0  0  0  0  0  0  0  0  0  0
    1.9659   12.2226   -1.6750 H   0  0  0  0  0  0  0  0  0  0  0  0
    2.6096   11.0701   -2.9073 H   0  0  0  0  0  0  0  0  0  0  0  0
    0.5566   10.4636    2.6197 H   0  0  0  0  0  0  0  0  0  0  0  0
   -0.9532    8.9369    3.7906 H   0  0  0  0  0  0  0  0  0  0  0  0
  1  2  2  3
  2  3  1  0
  3  4  2  0
  3  5  1  0
  5  6  2  0
  6  7  1  0
  7  8  2  0
  8  9  1  0
  9 10  2  0
 10 11  1  0
 11 12  2  3
 12 13  1  0
 13 14  3  0
 12 15  1  0
 15 16  3  0
  8 17  1  0
 17 18  1  0
 18 19  1  0
 19 20  2  0
 20 21  1  0
 21 22  1  0
 21 23  1  0
  1 24  1  0
 24 25  2  0
 25 26  1  0
 26 27  1  0
 25 28  1  0
 28 29  2  0
 29 30  1  0
 29 31  1  0
 31 32  2  0
 32 33  1  0
 32 34  1  0
 34 35  1  0
 35 36  2  0
 36 37  1  0
 37 38  1  0
 38 39  2  0
 39 40  1  0
 40 41  1  0
 41 42  1  0
 42 43  1  0
 43 44  1  0
 44 45  2  0
 45 46  1  0
 46 47  1  0
 47 48  1  0
 48 49  1  0
 49 50  1  0
 50 51  1  0
 49 52  1  0
 52 53  1  0
 53 54  1  0
 54 55  1  0
 55 56  1  0
 45 57  1  0
 57 58  2  3
 58 59  1  0
 59 60  2  0
 59 61  1  0
 61 62  2  0
 62 63  1  0
 63 64  1  0
 64 65  1  0
 65 66  2  0
 65 67  1  0
 63 68  2  0
 68 69  1  0
 69 70  2  0
 70 71  1  0
 71 72  2  3
 72 73  1  0
 73 74  3  0
 72 75  1  0
 75 76  3  0
 11  2  1  0
 23 17  1  0
 30 24  1  0
 54 31  1  0
 71 58  1  0
 10  5  1  0
 22 18  1  0
 33 28  1  0
 53 34  2  0
 70 61  1  0
 23  7  1  0
 39 35  1  0
 52 40  2  0
 48 41  2  0
 47 43  2  0
  1 77  1  0
  6 78  1  0
  9 79  1  0
 17 80  1  0
 18 81  1  0
 19 82  1  0
 20 83  1  0
 21 84  1  0
 22 85  1  0
 22 86  1  0
 23 87  1  0
 26 88  1  0
 26 89  1  0
 27 90  1  0
 27 91  1  0
 27 92  1  0
 44 93  1  0
 50 94  1  0
 50 95  1  0
 51 96  1  0
 51 97  1  0
 51 98  1  0
 55 99  1  0
 55100  1  0
 56101  1  0
 56102  1  0
 56103  1  0
 57104  1  0
 62105  1  0
 67106  1  0
 67107  1  0
 67108  1  0
 68109  1  0
 69110  1  0
M  END

