
     RDKit          3D

110125  0  0  0  0  0  0  0  0999 V2000
   -5.4847    3.9559   -1.2331 C   0  0  0  0  0  0  0  0  0  0  0  0
   -4.4114    4.2705   -1.9603 C   0  0  0  0  0  0  0  0  0  0  0  0
   -3.0796    3.6999   -1.7818 C   0  0  0  0  0  0  0  0  0  0  0  0
   -2.6730    2.8722   -0.9091 O   0  0  0  0  0  0  0  0  0  0  0  0
   -2.1193    4.1931   -2.7827 C   0  0  0  0  0  0  0  0  0  0  0  0
   -0.7893    3.9755   -3.0152 C   0  0  0  0  0  0  0  0  0  0  0  0
   -0.1216    4.6023   -4.0752 C   0  0  0  0  0  0  0  0  0  0  0  0
   -0.8619    5.4202   -4.8630 C   0  0  0  0  0  0  0  0  0  0  0  0
   -2.1958    5.6613   -4.6462 C   0  0  0  0  0  0  0  0  0  0  0  0
   -2.8582    5.0879   -3.6173 C   0  0  0  0  0  0  0  0  0  0  0  0
   -4.2345    5.1439   -3.1024 C   0  0  0  0  0  0  0  0  0  0  0  0
   -5.1789    5.9008   -3.5748 C   0  0  0  0  0  0  0  0  0  0  0  0
   -6.1721    6.4696   -3.8116 C   0  0  0  0  0  0  0  0  0  0  0  0
   -7.3396    7.1561   -4.0934 N   0  0  0  0  0  0  0  0  0  0  0  0
   -4.0460    7.2981   -3.8604 C   0  0  0  0  0  0  0  0  0  0  0  0
   -3.3362    8.1614   -4.0522 N   0  0  0  0  0  0  0  0  0  0  0  0
    0.3467    5.6789   -5.6952 C   0  0  0  0  0  0  0  0  0  0  0  0
    0.2900    4.8079   -6.9434 C   0  0  0  0  0  0  0  0  0  0  0  0
   -0.2381    3.4790   -6.5751 C   0  0  0  0  0  0  0  0  0  0  0  0
    0.7312    2.7452   -5.9254 C   0  0  0  0  0  0  0  0  0  0  0  0
    1.7534    3.7710   -5.6276 C   0  0  0  0  0  0  0  0  0  0  0  0
    1.7662    4.4762   -7.0256 C   0  0  0  0  0  0  0  0  0  0  0  0
    1.1958    4.8398   -4.7647 C   0  0  0  0  0  0  0  0  0  0  0  0
   -5.3313    2.9452   -0.1706 C   0  0  0  0  0  0  0  0  0  0  0  0
   -5.4685    2.8761    1.1324 C   0  0  0  0  0  0  0  0  0  0  0  0
   -5.9860    4.1425    1.8654 C   0  0  0  0  0  0  0  0  0  0  0  0
   -4.8933    5.1858    1.8516 C   0  0  0  0  0  0  0  0  0  0  0  0
   -5.1537    1.8213    1.8109 C   0  0  0  0  0  0  0  0  0  0  0  0
   -5.0254    1.1054    3.7052 Se  0  0  0  0  0  2  0  0  0  0  0  0
   -4.2539   -0.5952    3.0161 C   0  0  0  0  0  0  0  0  0  0  0  0
   -3.6012   -1.6884    3.5305 C   0  0  0  0  0  0  0  0  0  0  0  0
   -3.3044   -2.0554    4.7921 C   0  0  0  0  0  0  0  0  0  0  0  0
   -2.3815   -3.0226    5.0177 C   0  0  0  0  0  0  0  0  0  0  0  0
   -2.1352   -3.3480    6.2730 N   0  0  0  0  0  0  0  0  0  0  0  0
   -3.1369   -2.3759    7.1736 S   0  0  0  0  0  0  0  0  0  0  0  0
   -3.8765   -1.5426    5.9520 N   0  0  0  0  0  0  0  0  0  0  0  0
   -1.7942   -3.6058    3.8563 C   0  0  0  0  0  0  0  0  0  0  0  0
   -0.5972   -4.3028    3.7615 C   0  0  0  0  0  0  0  0  0  0  0  0
    0.7584   -4.8955    4.7608 Se  0  0  0  0  0  2  0  0  0  0  0  0
    1.9642   -5.2253    3.1013 C   0  0  0  0  0  0  0  0  0  0  0  0
    3.2498   -5.4217    2.9109 C   0  0  0  0  0  0  0  0  0  0  0  0
    4.2322   -5.9294    3.9044 C   0  0  0  0  0  0  0  0  0  0  0  0
    4.1558   -7.4566    3.9573 C   0  0  0  0  0  0  0  0  0  0  0  0
    3.6466   -5.1650    1.5755 C   0  0  0  0  0  0  0  0  0  0  0  0
    2.2249   -4.7539    0.8598 S   0  0  0  0  0  0  0  0  0  0  0  0
    1.0832   -4.8496    2.2054 C   0  0  0  0  0  0  0  0  0  0  0  0
   -0.1813   -4.3976    2.4866 C   0  0  0  0  0  0  0  0  0  0  0  0
   -1.1890   -3.7476    1.7525 N   0  0  0  0  0  0  0  0  0  0  0  0
   -2.1206   -3.2650    2.5830 C   0  0  0  0  0  0  0  0  0  0  0  0
   -3.0852   -2.2351    2.3587 C   0  0  0  0  0  0  0  0  0  0  0  0
   -3.4394   -1.5346    1.2761 N   0  0  0  0  0  0  0  0  0  0  0  0
   -4.2320   -0.3954    1.8027 C   0  0  0  0  0  0  0  0  0  0  0  0
   -4.6339    0.7002    1.0644 C   0  0  0  0  0  0  0  0  0  0  0  0
   -4.7084    1.3751   -0.4626 S   0  0  0  0  0  0  0  0  0  0  0  0
   -3.2367   -1.7017   -0.1329 C   0  0  0  0  0  0  0  0  0  0  0  0
   -2.2208   -0.8849   -0.8054 C   0  0  0  0  0  0  0  0  0  0  0  0
   -1.2433   -3.8519    0.2823 C   0  0  0  0  0  0  0  0  0  0  0  0
   -2.1720   -4.9313   -0.1883 C   0  0  0  0  0  0  0  0  0  0  0  0
    5.0296   -4.8080    1.1982 C   0  0  0  0  0  0  0  0  0  0  0  0
    5.3483   -3.9314    0.2201 C   0  0  0  0  0  0  0  0  0  0  0  0
    4.4465   -3.2301   -0.6776 C   0  0  0  0  0  0  0  0  0  0  0  0
    3.3142   -3.6993   -1.0716 O   0  0  0  0  0  0  0  0  0  0  0  0
    4.9770   -1.9094   -1.1043 C   0  0  0  0  0  0  0  0  0  0  0  0
    6.1783   -1.8015   -0.4880 C   0  0  0  0  0  0  0  0  0  0  0  0
    6.7521   -0.2608   -0.9629 S   0  0  0  0  0  0  0  0  0  0  0  0
    5.3892    0.2266   -1.9744 C   0  0  0  0  0  0  0  0  0  0  0  0
    4.9910    1.3059   -2.7213 C   0  0  0  0  0  0  0  0  0  0  0  0
    3.7026    1.1814   -3.3325 C   0  0  0  0  0  0  0  0  0  0  0  0
    3.2594   -0.3262   -2.8296 S   0  0  0  0  0  0  0  0  0  0  0  0
    4.5898   -0.8397   -1.8748 C   0  0  0  0  0  0  0  0  0  0  0  0
    6.4772   -3.0089    0.3385 C   0  0  0  0  0  0  0  0  0  0  0  0
    7.6962   -3.1764    1.0064 C   0  0  0  0  0  0  0  0  0  0  0  0
    7.9754   -4.2290    1.5726 C   0  0  0  0  0  0  0  0  0  0  0  0
    8.3008   -5.4055    2.2308 N   0  0  0  0  0  0  0  0  0  0  0  0
    8.3820   -2.0169    0.9968 C   0  0  0  0  0  0  0  0  0  0  0  0
    9.1267   -0.8027    0.9959 N   0  0  0  0  0  0  0  0  0  0  0  0
   -6.4052    4.4315   -1.4558 H   0  0  0  0  0  0  0  0  0  0  0  0
   -0.2432    3.3099   -2.3725 H   0  0  0  0  0  0  0  0  0  0  0  0
   -2.7196    6.2530   -5.3930 H   0  0  0  0  0  0  0  0  0  0  0  0
    0.6057    6.7064   -5.8647 H   0  0  0  0  0  0  0  0  0  0  0  0
   -0.1488    5.2577   -7.8167 H   0  0  0  0  0  0  0  0  0  0  0  0
   -1.2113    3.0674   -6.8008 H   0  0  0  0  0  0  0  0  0  0  0  0
    0.7902    1.7391   -5.6996 H   0  0  0  0  0  0  0  0  0  0  0  0
    2.7702    3.4316   -5.4526 H   0  0  0  0  0  0  0  0  0  0  0  0
    2.4168    5.3736   -7.0304 H   0  0  0  0  0  0  0  0  0  0  0  0
    2.0074    3.7440   -7.8137 H   0  0  0  0  0  0  0  0  0  0  0  0
    1.8978    5.4414   -4.1422 H   0  0  0  0  0  0  0  0  0  0  0  0
   -6.1891    3.9025    2.9212 H   0  0  0  0  0  0  0  0  0  0  0  0
   -6.8955    4.4228    1.3677 H   0  0  0  0  0  0  0  0  0  0  0  0
   -4.8547    5.6855    0.8614 H   0  0  0  0  0  0  0  0  0  0  0  0
   -3.8938    4.7309    2.0288 H   0  0  0  0  0  0  0  0  0  0  0  0
   -5.0014    5.9570    2.6317 H   0  0  0  0  0  0  0  0  0  0  0  0
    4.0128   -5.4729    4.9151 H   0  0  0  0  0  0  0  0  0  0  0  0
    5.2101   -5.5822    3.6422 H   0  0  0  0  0  0  0  0  0  0  0  0
    5.0214   -7.7968    4.5342 H   0  0  0  0  0  0  0  0  0  0  0  0
    4.1725   -7.8210    2.9171 H   0  0  0  0  0  0  0  0  0  0  0  0
    3.1792   -7.6963    4.4628 H   0  0  0  0  0  0  0  0  0  0  0  0
   -4.2387   -1.3260   -0.6479 H   0  0  0  0  0  0  0  0  0  0  0  0
   -3.2959   -2.6984   -0.5094 H   0  0  0  0  0  0  0  0  0  0  0  0
   -2.6280   -0.0888   -1.5088 H   0  0  0  0  0  0  0  0  0  0  0  0
   -1.5447   -1.4511   -1.5746 H   0  0  0  0  0  0  0  0  0  0  0  0
   -1.4859   -0.3891   -0.1281 H   0  0  0  0  0  0  0  0  0  0  0  0
   -1.0069   -2.9900   -0.2745 H   0  0  0  0  0  0  0  0  0  0  0  0
   -0.2174   -4.3977    0.0333 H   0  0  0  0  0  0  0  0  0  0  0  0
   -2.4796   -4.7601   -1.2761 H   0  0  0  0  0  0  0  0  0  0  0  0
   -1.7097   -5.9692   -0.2201 H   0  0  0  0  0  0  0  0  0  0  0  0
   -3.0964   -5.0379    0.3938 H   0  0  0  0  0  0  0  0  0  0  0  0
    5.7750   -5.2973    1.7359 H   0  0  0  0  0  0  0  0  0  0  0  0
    5.5336    2.2341   -2.8656 H   0  0  0  0  0  0  0  0  0  0  0  0
    3.3070    1.9623   -3.9625 H   0  0  0  0  0  0  0  0  0  0  0  0
  1  2  2  3
  2  3  1  0
  3  4  2  0
  3  5  1  0
  5  6  2  0
  6  7  1  0
  7  8  2  0
  8  9  1  0
  9 10  2  0
 10 11  1  0
 11 12  2  3
 12 13  1  0
 13 14  3  0
 12 15  1  0
 15 16  3  0
  8 17  1  0
 17 18  1  0
 18 19  1  0
 19 20  2  0
 20 21  1  0
 21 22  1  0
 21 23  1  0
  1 24  1  0
 24 25  2  0
 25 26  1  0
 26 27  1  0
 25 28  1  0
 28 29  1  0
 29 30  1  0
 30 31  1  0
 31 32  1  0
 32 33  1  0
 33 34  2  0
 34 35  1  0
 35 36  1  0
 33 37  1  0
 37 38  1  0
 38 39  1  0
 39 40  1  0
 40 41  1  0
 41 42  1  0
 42 43  1  0
 41 44  2  0
 44 45  1  0
 45 46  1  0
 46 47  1  0
 47 48  1  0
 48 49  1  0
 49 50  1  0
 50 51  1  0
 51 52  1  0
 52 53  1  0
 53 54  1  0
 51 55  1  0
 55 56  1  0
 48 57  1  0
 57 58  1  0
 44 59  1  0
 59 60  2  3
 60 61  1  0
 61 62  2  0
 61 63  1  0
 63 64  2  0
 64 65  1  0
 65 66  1  0
 66 67  1  0
 67 68  2  0
 68 69  1  0
 69 70  1  0
 64 71  1  0
 71 72  2  3
 72 73  1  0
 73 74  3  0
 72 75  1  0
 75 76  3  0
 11  2  1  0
 23 17  1  0
 54 24  1  0
 71 60  1  0
 10  5  1  0
 22 18  1  0
 53 28  2  0
 70 63  1  0
 23  7  1  0
 52 30  2  0
 70 66  2  0
 50 31  2  0
 36 32  2  0
 49 37  2  0
 47 38  2  0
 46 40  2  0
  1 77  1  0
  6 78  1  0
  9 79  1  0
 17 80  1  0
 18 81  1  0
 19 82  1  0
 20 83  1  0
 21 84  1  0
 22 85  1  0
 22 86  1  0
 23 87  1  0
 26 88  1  0
 26 89  1  0
 27 90  1  0
 27 91  1  0
 27 92  1  0
 42 93  1  0
 42 94  1  0
 43 95  1  0
 43 96  1  0
 43 97  1  0
 55 98  1  0
 55 99  1  0
 56100  1  0
 56101  1  0
 56102  1  0
 57103  1  0
 57104  1  0
 58105  1  0
 58106  1  0
 58107  1  0
 59108  1  0
 67109  1  0
 68110  1  0
M  END

