
     RDKit          3D

158176  0  0  0  0  0  0  0  0999 V2000
   -4.2807   -4.7535   -1.5195 C   0  0  0  0  0  0  0  0  0  0  0  0
   -3.6001   -5.4053   -0.5499 C   0  0  0  0  0  0  0  0  0  0  0  0
   -2.4049   -4.8831    0.1235 C   0  0  0  0  0  0  0  0  0  0  0  0
   -1.6999   -3.9035   -0.2519 O   0  0  0  0  0  0  0  0  0  0  0  0
   -2.0570   -5.7498    1.2147 C   0  0  0  0  0  0  0  0  0  0  0  0
   -1.0251   -5.5429    2.1551 C   0  0  0  0  0  0  0  0  0  0  0  0
   -0.9180   -6.5398    3.0972 C   0  0  0  0  0  0  0  0  0  0  0  0
   -1.7631   -7.6940    3.1140 C   0  0  0  0  0  0  0  0  0  0  0  0
   -2.7666   -7.9124    2.1827 C   0  0  0  0  0  0  0  0  0  0  0  0
   -2.9244   -6.8717    1.2176 C   0  0  0  0  0  0  0  0  0  0  0  0
   -3.9312   -6.7187    0.1137 C   0  0  0  0  0  0  0  0  0  0  0  0
   -5.0101   -7.5201   -0.1133 C   0  0  0  0  0  0  0  0  0  0  0  0
   -5.9569   -7.2988   -1.1727 C   0  0  0  0  0  0  0  0  0  0  0  0
   -6.7386   -7.1369   -2.0140 N   0  0  0  0  0  0  0  0  0  0  0  0
   -5.3762   -8.6027    0.7658 C   0  0  0  0  0  0  0  0  0  0  0  0
   -5.7075   -9.4533    1.4758 N   0  0  0  0  0  0  0  0  0  0  0  0
   -1.0676   -8.2056    4.3423 C   0  0  0  0  0  0  0  0  0  0  0  0
   -1.8106   -8.0889    5.7076 C   0  0  0  0  0  0  0  0  0  0  0  0
   -2.7338   -6.8930    5.6956 C   0  0  0  0  0  0  0  0  0  0  0  0
   -1.9522   -5.8116    5.6717 C   0  0  0  0  0  0  0  0  0  0  0  0
   -0.5252   -6.3104    5.6732 C   0  0  0  0  0  0  0  0  0  0  0  0
   -0.6964   -7.5197    6.5690 C   0  0  0  0  0  0  0  0  0  0  0  0
   -0.2045   -7.0206    4.3242 C   0  0  0  0  0  0  0  0  0  0  0  0
   -4.1759   -3.2991   -1.7494 C   0  0  0  0  0  0  0  0  0  0  0  0
   -4.2304   -2.6699   -2.9997 C   0  0  0  0  0  0  0  0  0  0  0  0
   -4.0933   -1.2806   -2.8778 C   0  0  0  0  0  0  0  0  0  0  0  0
   -3.7014   -0.2055   -3.8728 C   0  0  0  0  0  0  0  0  0  0  0  0
   -4.9308    0.4496   -4.5294 C   0  0  0  0  0  0  0  0  0  0  0  0
   -4.7861    1.6508   -5.2544 C   0  0  0  0  0  0  0  0  0  0  0  0
   -5.8985    2.3100   -5.7878 C   0  0  0  0  0  0  0  0  0  0  0  0
   -7.1813    1.7714   -5.6359 C   0  0  0  0  0  0  0  0  0  0  0  0
   -8.3935    2.5074   -6.1474 C   0  0  0  0  0  0  0  0  0  0  0  0
   -9.0602    3.2975   -5.0243 C   0  0  0  0  0  0  0  0  0  0  0  0
   -7.3367    0.5522   -4.9620 C   0  0  0  0  0  0  0  0  0  0  0  0
   -6.2274   -0.1049   -4.4225 C   0  0  0  0  0  0  0  0  0  0  0  0
   -2.6704   -0.7510   -4.8656 C   0  0  0  0  0  0  0  0  0  0  0  0
   -2.9968   -1.0001   -6.2157 C   0  0  0  0  0  0  0  0  0  0  0  0
   -2.0388   -1.5023   -7.0999 C   0  0  0  0  0  0  0  0  0  0  0  0
   -0.7410   -1.7884   -6.6547 C   0  0  0  0  0  0  0  0  0  0  0  0
    0.2798   -2.3592   -7.6036 C   0  0  0  0  0  0  0  0  0  0  0  0
    0.1134   -3.8688   -7.7278 C   0  0  0  0  0  0  0  0  0  0  0  0
   -0.4255   -1.6128   -5.3023 C   0  0  0  0  0  0  0  0  0  0  0  0
   -1.3789   -1.1046   -4.4179 C   0  0  0  0  0  0  0  0  0  0  0  0
   -3.0732    0.7907   -2.8920 C   0  0  0  0  0  0  0  0  0  0  0  0
   -3.2947    0.4065   -1.5660 C   0  0  0  0  0  0  0  0  0  0  0  0
   -3.9864   -0.8465   -1.5924 C   0  0  0  0  0  0  0  0  0  0  0  0
   -3.9944   -2.1307   -0.5272 S   0  0  0  0  0  0  0  0  0  0  0  0
   -2.6210    0.9846   -0.4898 C   0  0  0  0  0  0  0  0  0  0  0  0
   -1.7263    2.0201   -0.7786 C   0  0  0  0  0  0  0  0  0  0  0  0
   -0.7295    2.6496    0.1866 C   0  0  0  0  0  0  0  0  0  0  0  0
    0.1314    1.5310    0.7988 C   0  0  0  0  0  0  0  0  0  0  0  0
   -0.1212    1.0341    2.0968 C   0  0  0  0  0  0  0  0  0  0  0  0
    0.6711    0.0158    2.6394 C   0  0  0  0  0  0  0  0  0  0  0  0
    1.7179   -0.5461    1.8929 C   0  0  0  0  0  0  0  0  0  0  0  0
    2.6223   -1.5859    2.5032 C   0  0  0  0  0  0  0  0  0  0  0  0
    2.5042   -2.9259    1.7842 C   0  0  0  0  0  0  0  0  0  0  0  0
    1.9225   -0.1160    0.5759 C   0  0  0  0  0  0  0  0  0  0  0  0
    1.1177    0.8827    0.0241 C   0  0  0  0  0  0  0  0  0  0  0  0
   -1.3664    3.5790    1.2245 C   0  0  0  0  0  0  0  0  0  0  0  0
   -2.7521    3.8450    1.2555 C   0  0  0  0  0  0  0  0  0  0  0  0
   -3.2935    4.6946    2.2253 C   0  0  0  0  0  0  0  0  0  0  0  0
   -2.4670    5.3177    3.1662 C   0  0  0  0  0  0  0  0  0  0  0  0
   -3.0632    6.2009    4.2291 C   0  0  0  0  0  0  0  0  0  0  0  0
   -3.6098    5.3643    5.3815 C   0  0  0  0  0  0  0  0  0  0  0  0
   -1.0866    5.0672    3.1387 C   0  0  0  0  0  0  0  0  0  0  0  0
   -0.5432    4.2163    2.1778 C   0  0  0  0  0  0  0  0  0  0  0  0
    0.0550    3.4869   -0.8020 C   0  0  0  0  0  0  0  0  0  0  0  0
   -0.4033    3.3484   -2.0754 C   0  0  0  0  0  0  0  0  0  0  0  0
   -1.5079    2.4250   -2.0982 C   0  0  0  0  0  0  0  0  0  0  0  0
   -2.1504    1.8178   -3.1827 C   0  0  0  0  0  0  0  0  0  0  0  0
    0.7560    3.8499   -3.1877 S   0  0  0  0  0  0  0  0  0  0  0  0
    1.8655    4.3090   -1.9815 C   0  0  0  0  0  0  0  0  0  0  0  0
    1.3254    4.0534   -0.7149 C   0  0  0  0  0  0  0  0  0  0  0  0
    3.1987    4.8913   -2.2215 C   0  0  0  0  0  0  0  0  0  0  0  0
    4.2899    4.5190   -1.5217 C   0  0  0  0  0  0  0  0  0  0  0  0
    4.3508    3.3948   -0.5833 C   0  0  0  0  0  0  0  0  0  0  0  0
    3.7277    2.3048   -0.6944 O   0  0  0  0  0  0  0  0  0  0  0  0
    5.2863    3.7155    0.4679 C   0  0  0  0  0  0  0  0  0  0  0  0
    5.4195    3.0600    1.7125 C   0  0  0  0  0  0  0  0  0  0  0  0
    6.1993    3.7486    2.6231 C   0  0  0  0  0  0  0  0  0  0  0  0
    6.8182    5.0077    2.3308 C   0  0  0  0  0  0  0  0  0  0  0  0
    6.7074    5.6440    1.1030 C   0  0  0  0  0  0  0  0  0  0  0  0
    5.9202    4.9436    0.1484 C   0  0  0  0  0  0  0  0  0  0  0  0
    5.4477    5.3932   -1.1899 C   0  0  0  0  0  0  0  0  0  0  0  0
    6.0757    6.2505   -2.0266 C   0  0  0  0  0  0  0  0  0  0  0  0
    5.6575    6.4163   -3.3963 C   0  0  0  0  0  0  0  0  0  0  0  0
    5.3236    6.5483   -4.4957 N   0  0  0  0  0  0  0  0  0  0  0  0
    7.2821    6.9376   -1.6501 C   0  0  0  0  0  0  0  0  0  0  0  0
    8.2490    7.5004   -1.3498 N   0  0  0  0  0  0  0  0  0  0  0  0
    7.3271    5.0986    3.7410 C   0  0  0  0  0  0  0  0  0  0  0  0
    8.8410    4.8393    4.0008 C   0  0  0  0  0  0  0  0  0  0  0  0
    9.3793    3.8740    2.9735 C   0  0  0  0  0  0  0  0  0  0  0  0
    8.8122    2.6942    3.2255 C   0  0  0  0  0  0  0  0  0  0  0  0
    7.9099    2.8937    4.4188 C   0  0  0  0  0  0  0  0  0  0  0  0
    8.7467    3.8967    5.1891 C   0  0  0  0  0  0  0  0  0  0  0  0
    6.7047    3.8028    4.0326 C   0  0  0  0  0  0  0  0  0  0  0  0
   -5.0075   -5.2510   -2.1314 H   0  0  0  0  0  0  0  0  0  0  0  0
   -0.3929   -4.6686    2.1572 H   0  0  0  0  0  0  0  0  0  0  0  0
   -3.3473   -8.8127    2.2259 H   0  0  0  0  0  0  0  0  0  0  0  0
   -0.5150   -9.1615    4.1905 H   0  0  0  0  0  0  0  0  0  0  0  0
   -2.2683   -9.0282    6.0805 H   0  0  0  0  0  0  0  0  0  0  0  0
   -3.8142   -6.8935    5.7880 H   0  0  0  0  0  0  0  0  0  0  0  0
   -2.2906   -4.7861    5.7501 H   0  0  0  0  0  0  0  0  0  0  0  0
    0.2283   -5.5671    6.0080 H   0  0  0  0  0  0  0  0  0  0  0  0
   -1.0220   -7.2614    7.6034 H   0  0  0  0  0  0  0  0  0  0  0  0
    0.2062   -8.1710    6.6182 H   0  0  0  0  0  0  0  0  0  0  0  0
    0.8721   -7.2522    4.1604 H   0  0  0  0  0  0  0  0  0  0  0  0
   -4.2677   -3.1920   -3.9458 H   0  0  0  0  0  0  0  0  0  0  0  0
   -3.8124    2.0904   -5.4056 H   0  0  0  0  0  0  0  0  0  0  0  0
   -5.7568    3.2477   -6.3104 H   0  0  0  0  0  0  0  0  0  0  0  0
   -8.1082    3.2070   -6.9654 H   0  0  0  0  0  0  0  0  0  0  0  0
   -9.1217    1.7856   -6.5727 H   0  0  0  0  0  0  0  0  0  0  0  0
   -8.3603    4.0576   -4.6162 H   0  0  0  0  0  0  0  0  0  0  0  0
   -9.3775    2.6174   -4.2061 H   0  0  0  0  0  0  0  0  0  0  0  0
   -9.9604    3.8179   -5.4195 H   0  0  0  0  0  0  0  0  0  0  0  0
   -8.3199    0.1188   -4.8371 H   0  0  0  0  0  0  0  0  0  0  0  0
   -6.4013   -1.0389   -3.9076 H   0  0  0  0  0  0  0  0  0  0  0  0
   -3.9907   -0.8091   -6.5967 H   0  0  0  0  0  0  0  0  0  0  0  0
   -2.3132   -1.6767   -8.1342 H   0  0  0  0  0  0  0  0  0  0  0  0
    0.1666   -1.8904   -8.6060 H   0  0  0  0  0  0  0  0  0  0  0  0
    1.3079   -2.1324   -7.2439 H   0  0  0  0  0  0  0  0  0  0  0  0
    0.2651   -4.3574   -6.7422 H   0  0  0  0  0  0  0  0  0  0  0  0
    0.8581   -4.2735   -8.4477 H   0  0  0  0  0  0  0  0  0  0  0  0
   -0.9015   -4.1144   -8.1049 H   0  0  0  0  0  0  0  0  0  0  0  0
    0.5587   -1.8673   -4.9309 H   0  0  0  0  0  0  0  0  0  0  0  0
   -1.1032   -0.9848   -3.3765 H   0  0  0  0  0  0  0  0  0  0  0  0
   -2.7187    0.5878    0.5115 H   0  0  0  0  0  0  0  0  0  0  0  0
   -0.9265    1.4352    2.6964 H   0  0  0  0  0  0  0  0  0  0  0  0
    0.4727   -0.3183    3.6497 H   0  0  0  0  0  0  0  0  0  0  0  0
    2.3800   -1.7300    3.5809 H   0  0  0  0  0  0  0  0  0  0  0  0
    3.6737   -1.2323    2.4447 H   0  0  0  0  0  0  0  0  0  0  0  0
    2.9204   -2.8554    0.7572 H   0  0  0  0  0  0  0  0  0  0  0  0
    1.4437   -3.2421    1.7182 H   0  0  0  0  0  0  0  0  0  0  0  0
    3.0756   -3.6957    2.3413 H   0  0  0  0  0  0  0  0  0  0  0  0
    2.7121   -0.5446   -0.0262 H   0  0  0  0  0  0  0  0  0  0  0  0
    1.2846    1.1586   -1.0085 H   0  0  0  0  0  0  0  0  0  0  0  0
   -3.4315    3.4025    0.5419 H   0  0  0  0  0  0  0  0  0  0  0  0
   -4.3626    4.8646    2.2406 H   0  0  0  0  0  0  0  0  0  0  0  0
   -3.8849    6.8086    3.7947 H   0  0  0  0  0  0  0  0  0  0  0  0
   -2.2972    6.9066    4.6218 H   0  0  0  0  0  0  0  0  0  0  0  0
   -4.0063    6.0326    6.1745 H   0  0  0  0  0  0  0  0  0  0  0  0
   -2.8049    4.7335    5.8181 H   0  0  0  0  0  0  0  0  0  0  0  0
   -4.4338    4.7099    5.0263 H   0  0  0  0  0  0  0  0  0  0  0  0
   -0.4314    5.5304    3.8658 H   0  0  0  0  0  0  0  0  0  0  0  0
    0.5244    4.0360    2.1863 H   0  0  0  0  0  0  0  0  0  0  0  0
   -1.8695    2.0653   -4.1953 H   0  0  0  0  0  0  0  0  0  0  0  0
    1.8609    4.1887    0.2136 H   0  0  0  0  0  0  0  0  0  0  0  0
    3.2220    5.7691   -2.8519 H   0  0  0  0  0  0  0  0  0  0  0  0
    4.8857    2.1547    1.9651 H   0  0  0  0  0  0  0  0  0  0  0  0
    7.1181    6.6281    0.9428 H   0  0  0  0  0  0  0  0  0  0  0  0
    6.8909    5.9412    4.3232 H   0  0  0  0  0  0  0  0  0  0  0  0
    9.4543    5.7504    4.1643 H   0  0  0  0  0  0  0  0  0  0  0  0
   10.1289    4.0716    2.2167 H   0  0  0  0  0  0  0  0  0  0  0  0
    9.0359    1.7619    2.7171 H   0  0  0  0  0  0  0  0  0  0  0  0
    7.6434    1.9678    4.9701 H   0  0  0  0  0  0  0  0  0  0  0  0
    8.2185    4.3396    6.0670 H   0  0  0  0  0  0  0  0  0  0  0  0
    9.7342    3.4949    5.5137 H   0  0  0  0  0  0  0  0  0  0  0  0
    5.8951    3.8576    4.7934 H   0  0  0  0  0  0  0  0  0  0  0  0
  1  2  2  3
  2  3  1  0
  3  4  2  0
  3  5  1  0
  5  6  2  0
  6  7  1  0
  7  8  2  0
  8  9  1  0
  9 10  2  0
 10 11  1  0
 11 12  2  3
 12 13  1  0
 13 14  3  0
 12 15  1  0
 15 16  3  0
  8 17  1  0
 17 18  1  0
 18 19  1  0
 19 20  2  0
 20 21  1  0
 21 22  1  0
 21 23  1  0
  1 24  1  0
 24 25  2  0
 25 26  1  0
 26 27  1  0
 27 28  1  0
 28 29  2  0
 29 30  1  0
 30 31  2  0
 31 32  1  0
 32 33  1  0
 31 34  1  0
 34 35  2  0
 27 36  1  0
 36 37  2  0
 37 38  1  0
 38 39  2  0
 39 40  1  0
 40 41  1  0
 39 42  1  0
 42 43  2  0
 27 44  1  0
 44 45  2  0
 45 46  1  0
 46 47  1  0
 45 48  1  0
 48 49  2  0
 49 50  1  0
 50 51  1  0
 51 52  2  0
 52 53  1  0
 53 54  2  0
 54 55  1  0
 55 56  1  0
 54 57  1  0
 57 58  2  0
 50 59  1  0
 59 60  2  0
 60 61  1  0
 61 62  2  0
 62 63  1  0
 63 64  1  0
 62 65  1  0
 65 66  2  0
 50 67  1  0
 67 68  2  0
 68 69  1  0
 69 70  2  0
 68 71  1  0
 71 72  1  0
 72 73  2  0
 72 74  1  0
 74 75  2  3
 75 76  1  0
 76 77  2  0
 76 78  1  0
 78 79  2  0
 79 80  1  0
 80 81  2  0
 81 82  1  0
 82 83  2  0
 83 84  1  0
 84 85  2  3
 85 86  1  0
 86 87  3  0
 85 88  1  0
 88 89  3  0
 81 90  1  0
 90 91  1  0
 91 92  1  0
 92 93  2  0
 93 94  1  0
 94 95  1  0
 94 96  1  0
 11  2  1  0
 23 17  1  0
 47 24  1  0
 69 49  1  0
 84 75  1  0
 96 90  1  0
 10  5  1  0
 22 18  1  0
 46 26  2  0
 58 51  1  0
 66 59  1  0
 73 67  1  0
 83 78  1  0
 95 91  1  0
 23  7  1  0
 35 28  1  0
 43 36  1  0
 70 44  1  0
 96 80  1  0
  1 97  1  0
  6 98  1  0
  9 99  1  0
 17100  1  0
 18101  1  0
 19102  1  0
 20103  1  0
 21104  1  0
 22105  1  0
 22106  1  0
 23107  1  0
 25108  1  0
 29109  1  0
 30110  1  0
 32111  1  0
 32112  1  0
 33113  1  0
 33114  1  0
 33115  1  0
 34116  1  0
 35117  1  0
 37118  1  0
 38119  1  0
 40120  1  0
 40121  1  0
 41122  1  0
 41123  1  0
 41124  1  0
 42125  1  0
 43126  1  0
 48127  1  0
 52128  1  0
 53129  1  0
 55130  1  0
 55131  1  0
 56132  1  0
 56133  1  0
 56134  1  0
 57135  1  0
 58136  1  0
 60137  1  0
 61138  1  0
 63139  1  0
 63140  1  0
 64141  1  0
 64142  1  0
 64143  1  0
 65144  1  0
 66145  1  0
 70146  1  0
 73147  1  0
 74148  1  0
 79149  1  0
 82150  1  0
 90151  1  0
 91152  1  0
 92153  1  0
 93154  1  0
 94155  1  0
 95156  1  0
 95157  1  0
 96158  1  0
M  END

