
     RDKit          3D

107121  0  0  0  0  0  0  0  0999 V2000
   -3.4707    5.4742   -2.6574 C   0  0  0  0  0  0  0  0  0  0  0  0
   -4.0128    4.3204   -3.1559 C   0  0  0  0  0  0  0  0  0  0  0  0
   -4.1913    3.1100   -2.3159 C   0  0  0  0  0  0  0  0  0  0  0  0
   -4.2894    3.0295   -1.0973 O   0  0  0  0  0  0  0  0  0  0  0  0
   -4.2348    1.9612   -3.2664 C   0  0  0  0  0  0  0  0  0  0  0  0
   -4.2883    0.5951   -2.9074 C   0  0  0  0  0  0  0  0  0  0  0  0
   -4.1896   -0.3184   -3.9321 C   0  0  0  0  0  0  0  0  0  0  0  0
   -4.0446    0.0545   -5.2053 C   0  0  0  0  0  0  0  0  0  0  0  0
   -4.0068    1.4296   -5.5264 C   0  0  0  0  0  0  0  0  0  0  0  0
   -4.1089    2.3824   -4.5321 C   0  0  0  0  0  0  0  0  0  0  0  0
   -3.9662    3.8859   -4.5403 C   0  0  0  0  0  0  0  0  0  0  0  0
   -3.6891    4.5293   -5.6099 C   0  0  0  0  0  0  0  0  0  0  0  0
   -3.6671    4.0812   -6.9370 C   0  0  0  0  0  0  0  0  0  0  0  0
   -3.6339    3.7043   -8.0791 N   0  0  0  0  0  0  0  0  0  0  0  0
   -3.1011    5.9769   -5.4966 C   0  0  0  0  0  0  0  0  0  0  0  0
   -2.7132    6.9699   -5.4313 N   0  0  0  0  0  0  0  0  0  0  0  0
   -3.8084   -1.3127   -5.7408 C   0  0  0  0  0  0  0  0  0  0  0  0
   -4.7613   -1.8714   -6.6975 C   0  0  0  0  0  0  0  0  0  0  0  0
   -5.9917   -1.0474   -6.6577 C   0  0  0  0  0  0  0  0  0  0  0  0
   -6.3793   -1.1171   -5.3705 C   0  0  0  0  0  0  0  0  0  0  0  0
   -5.6592   -2.2232   -4.6653 C   0  0  0  0  0  0  0  0  0  0  0  0
   -5.2817   -3.0875   -5.8884 C   0  0  0  0  0  0  0  0  0  0  0  0
   -4.2421   -1.7528   -4.3345 C   0  0  0  0  0  0  0  0  0  0  0  0
   -3.0159    5.3900   -1.2718 C   0  0  0  0  0  0  0  0  0  0  0  0
   -2.9045    5.9756   -0.1174 C   0  0  0  0  0  0  0  0  0  0  0  0
   -3.6024    7.3211    0.0697 C   0  0  0  0  0  0  0  0  0  0  0  0
   -2.7531    8.3688   -0.6455 C   0  0  0  0  0  0  0  0  0  0  0  0
   -2.2058    5.3678    0.8251 C   0  0  0  0  0  0  0  0  0  0  0  0
   -1.5504    5.7182    2.7344 Se  0  0  0  0  0  2  0  0  0  0  0  0
   -0.6362    4.1574    2.8026 C   0  0  0  0  0  0  0  0  0  0  0  0
    0.1690    3.3379    3.5880 C   0  0  0  0  0  0  0  0  0  0  0  0
    0.7070    3.5008    4.8580 C   0  0  0  0  0  0  0  0  0  0  0  0
    1.5239    2.5386    5.3563 C   0  0  0  0  0  0  0  0  0  0  0  0
    1.9835    2.7668    6.5994 N   0  0  0  0  0  0  0  0  0  0  0  0
    1.3193    4.2181    7.0551 S   0  0  0  0  0  0  0  0  0  0  0  0
    0.4608    4.5397    5.6695 N   0  0  0  0  0  0  0  0  0  0  0  0
    1.7603    1.4229    4.5416 C   0  0  0  0  0  0  0  0  0  0  0  0
    2.4775    0.2932    4.7859 C   0  0  0  0  0  0  0  0  0  0  0  0
    3.5962   -0.5618    6.1389 Se  0  0  0  0  0  2  0  0  0  0  0  0
    3.8005   -2.2431    4.8167 C   0  0  0  0  0  0  0  0  0  0  0  0
    4.3881   -3.3924    4.9176 C   0  0  0  0  0  0  0  0  0  0  0  0
    5.2927   -3.8400    6.0434 C   0  0  0  0  0  0  0  0  0  0  0  0
    6.6837   -3.2869    5.8449 C   0  0  0  0  0  0  0  0  0  0  0  0
    4.1950   -4.2002    3.8548 C   0  0  0  0  0  0  0  0  0  0  0  0
    3.2126   -3.2470    2.8412 S   0  0  0  0  0  0  0  0  0  0  0  0
    3.0940   -1.7911    3.8839 C   0  0  0  0  0  0  0  0  0  0  0  0
    2.4394   -0.5976    3.8042 C   0  0  0  0  0  0  0  0  0  0  0  0
    1.6205    0.0228    2.8001 N   0  0  0  0  0  0  0  0  0  0  0  0
    1.2516    1.2074    3.2891 C   0  0  0  0  0  0  0  0  0  0  0  0
    0.4234    2.2274    2.7951 C   0  0  0  0  0  0  0  0  0  0  0  0
   -0.1665    2.3592    1.6317 N   0  0  0  0  0  0  0  0  0  0  0  0
   -0.8542    3.6015    1.6178 C   0  0  0  0  0  0  0  0  0  0  0  0
   -1.6269    4.2450    0.6971 C   0  0  0  0  0  0  0  0  0  0  0  0
   -2.0871    3.9116   -0.9844 S   0  0  0  0  0  0  0  0  0  0  0  0
   -0.1563    1.5186    0.4664 C   0  0  0  0  0  0  0  0  0  0  0  0
    0.9249    1.9144   -0.5200 C   0  0  0  0  0  0  0  0  0  0  0  0
    1.3452   -0.6380    1.5622 C   0  0  0  0  0  0  0  0  0  0  0  0
    0.1640   -1.5983    1.6077 C   0  0  0  0  0  0  0  0  0  0  0  0
    4.7066   -5.5531    3.4099 C   0  0  0  0  0  0  0  0  0  0  0  0
    4.8453   -5.7052    2.1366 C   0  0  0  0  0  0  0  0  0  0  0  0
    4.9810   -5.8378    0.7813 C   0  0  0  0  0  0  0  0  0  0  0  0
    6.2941   -6.0111    0.4082 O   0  0  0  0  0  0  0  0  0  0  0  0
    3.9630   -5.8260   -0.2262 C   0  0  0  0  0  0  0  0  0  0  0  0
    3.8203   -5.9014   -1.5877 C   0  0  0  0  0  0  0  0  0  0  0  0
    2.5536   -5.8099   -2.0887 C   0  0  0  0  0  0  0  0  0  0  0  0
    2.0566   -5.8857   -3.7898 Cl  0  0  0  0  0  0  0  0  0  0  0  0
    1.6084   -5.6250   -0.7003 S   0  0  0  0  0  0  0  0  0  0  0  0
    2.8395   -5.6648    0.4942 C   0  0  0  0  0  0  0  0  0  0  0  0
    3.1180   -5.5828    1.8979 C   0  0  0  0  0  0  0  0  0  0  0  0
    2.2482   -5.7970    2.8313 C   0  0  0  0  0  0  0  0  0  0  0  0
    2.4308   -6.1670    4.1482 C   0  0  0  0  0  0  0  0  0  0  0  0
    2.5842   -6.4944    5.3241 N   0  0  0  0  0  0  0  0  0  0  0  0
    0.8180   -5.5842    2.4379 C   0  0  0  0  0  0  0  0  0  0  0  0
   -0.2749   -5.4129    2.1401 N   0  0  0  0  0  0  0  0  0  0  0  0
   -3.4250    6.3362   -3.1850 H   0  0  0  0  0  0  0  0  0  0  0  0
   -4.3961    0.2802   -1.8988 H   0  0  0  0  0  0  0  0  0  0  0  0
   -3.9062    1.7056   -6.5394 H   0  0  0  0  0  0  0  0  0  0  0  0
   -2.7188   -1.5306   -5.9119 H   0  0  0  0  0  0  0  0  0  0  0  0
   -4.3858   -2.1590   -7.6690 H   0  0  0  0  0  0  0  0  0  0  0  0
   -6.4109   -0.5769   -7.4930 H   0  0  0  0  0  0  0  0  0  0  0  0
   -7.1099   -0.4783   -4.9072 H   0  0  0  0  0  0  0  0  0  0  0  0
   -6.1982   -2.7169   -3.8868 H   0  0  0  0  0  0  0  0  0  0  0  0
   -4.4530   -3.7641   -5.6264 H   0  0  0  0  0  0  0  0  0  0  0  0
   -6.1542   -3.5340   -6.3355 H   0  0  0  0  0  0  0  0  0  0  0  0
   -3.6205   -2.4540   -3.8256 H   0  0  0  0  0  0  0  0  0  0  0  0
   -4.6082    7.2909   -0.3386 H   0  0  0  0  0  0  0  0  0  0  0  0
   -3.6329    7.5765    1.1265 H   0  0  0  0  0  0  0  0  0  0  0  0
   -3.4098    9.2829   -0.7691 H   0  0  0  0  0  0  0  0  0  0  0  0
   -1.9218    8.6738    0.0154 H   0  0  0  0  0  0  0  0  0  0  0  0
   -2.4192    8.0540   -1.6410 H   0  0  0  0  0  0  0  0  0  0  0  0
    5.3338   -4.9371    6.0801 H   0  0  0  0  0  0  0  0  0  0  0  0
    4.9384   -3.4817    7.0145 H   0  0  0  0  0  0  0  0  0  0  0  0
    6.7341   -2.4591    5.1287 H   0  0  0  0  0  0  0  0  0  0  0  0
    7.0699   -2.9500    6.8146 H   0  0  0  0  0  0  0  0  0  0  0  0
    7.3677   -4.1285    5.4719 H   0  0  0  0  0  0  0  0  0  0  0  0
   -1.1016    1.8885   -0.1592 H   0  0  0  0  0  0  0  0  0  0  0  0
   -0.5163    0.5299    0.5227 H   0  0  0  0  0  0  0  0  0  0  0  0
    0.6948    2.8597   -1.0582 H   0  0  0  0  0  0  0  0  0  0  0  0
    1.8995    2.1266    0.0256 H   0  0  0  0  0  0  0  0  0  0  0  0
    1.0635    1.1451   -1.3139 H   0  0  0  0  0  0  0  0  0  0  0  0
    1.4918   -0.1933    0.6280 H   0  0  0  0  0  0  0  0  0  0  0  0
    2.2369   -1.4294    1.4289 H   0  0  0  0  0  0  0  0  0  0  0  0
   -0.6928   -1.1355    2.1877 H   0  0  0  0  0  0  0  0  0  0  0  0
   -0.2654   -1.7888    0.5840 H   0  0  0  0  0  0  0  0  0  0  0  0
    0.4557   -2.4870    2.1573 H   0  0  0  0  0  0  0  0  0  0  0  0
    4.9504   -6.3210    4.1102 H   0  0  0  0  0  0  0  0  0  0  0  0
    4.6529   -6.0417   -2.3309 H   0  0  0  0  0  0  0  0  0  0  0  0
  1  2  2  3
  2  3  1  0
  3  4  2  0
  3  5  1  0
  5  6  2  0
  6  7  1  0
  7  8  2  0
  8  9  1  0
  9 10  2  0
 10 11  1  0
 11 12  2  3
 12 13  1  0
 13 14  3  0
 12 15  1  0
 15 16  3  0
  8 17  1  0
 17 18  1  0
 18 19  1  0
 19 20  2  0
 20 21  1  0
 21 22  1  0
 21 23  1  0
  1 24  1  0
 24 25  2  0
 25 26  1  0
 26 27  1  0
 25 28  1  0
 28 29  1  0
 29 30  1  0
 30 31  1  0
 31 32  1  0
 32 33  1  0
 33 34  2  0
 34 35  1  0
 35 36  1  0
 33 37  1  0
 37 38  1  0
 38 39  1  0
 39 40  1  0
 40 41  1  0
 41 42  1  0
 42 43  1  0
 41 44  2  0
 44 45  1  0
 45 46  1  0
 46 47  1  0
 47 48  1  0
 48 49  1  0
 49 50  1  0
 50 51  1  0
 51 52  1  0
 52 53  1  0
 53 54  1  0
 51 55  1  0
 55 56  1  0
 48 57  1  0
 57 58  1  0
 44 59  1  0
 59 60  2  3
 60 61  1  0
 61 62  2  0
 61 63  1  0
 63 64  1  0
 64 65  2  0
 65 66  1  0
 65 67  1  0
 67 68  1  0
 68 69  1  0
 69 70  2  3
 70 71  1  0
 71 72  3  0
 70 73  1  0
 73 74  3  0
 11  2  1  0
 23 17  1  0
 54 24  1  0
 69 60  1  0
 10  5  1  0
 22 18  1  0
 53 28  2  0
 68 63  2  0
 23  7  1  0
 52 30  2  0
 50 31  2  0
 36 32  2  0
 49 37  2  0
 47 38  2  0
 46 40  2  0
  1 75  1  0
  6 76  1  0
  9 77  1  0
 17 78  1  0
 18 79  1  0
 19 80  1  0
 20 81  1  0
 21 82  1  0
 22 83  1  0
 22 84  1  0
 23 85  1  0
 26 86  1  0
 26 87  1  0
 27 88  1  0
 27 89  1  0
 27 90  1  0
 42 91  1  0
 42 92  1  0
 43 93  1  0
 43 94  1  0
 43 95  1  0
 55 96  1  0
 55 97  1  0
 56 98  1  0
 56 99  1  0
 56100  1  0
 57101  1  0
 57102  1  0
 58103  1  0
 58104  1  0
 58105  1  0
 59106  1  0
 64107  1  0
M  END

