
     RDKit          3D

136154  0  0  0  0  0  0  0  0999 V2000
    1.5295   -3.0109   -6.3764 C   0  0  0  0  0  0  0  0  0  0  0  0
    1.3283   -1.7319   -6.7938 C   0  0  0  0  0  0  0  0  0  0  0  0
    1.4646   -0.4705   -6.0334 C   0  0  0  0  0  0  0  0  0  0  0  0
    1.7648   -0.3533   -4.8143 O   0  0  0  0  0  0  0  0  0  0  0  0
    1.3313    0.6510   -6.9403 C   0  0  0  0  0  0  0  0  0  0  0  0
    1.2693    2.0185   -6.5985 C   0  0  0  0  0  0  0  0  0  0  0  0
    0.8283    2.8316   -7.6374 C   0  0  0  0  0  0  0  0  0  0  0  0
    0.4976    2.3257   -8.9350 C   0  0  0  0  0  0  0  0  0  0  0  0
    0.6183    0.9938   -9.2891 C   0  0  0  0  0  0  0  0  0  0  0  0
    1.0839    0.1565   -8.2375 C   0  0  0  0  0  0  0  0  0  0  0  0
    1.0519   -1.3184   -8.2039 C   0  0  0  0  0  0  0  0  0  0  0  0
    0.9260   -2.0819   -9.2991 C   0  0  0  0  0  0  0  0  0  0  0  0
    1.8699   -1.8719  -10.3506 C   0  0  0  0  0  0  0  0  0  0  0  0
    2.6846   -1.7298  -11.1579 N   0  0  0  0  0  0  0  0  0  0  0  0
    0.2527   -3.3558   -9.2214 C   0  0  0  0  0  0  0  0  0  0  0  0
   -0.2857   -4.3837   -9.1190 N   0  0  0  0  0  0  0  0  0  0  0  0
   -0.0564    3.6570   -9.3457 C   0  0  0  0  0  0  0  0  0  0  0  0
   -1.6157    3.8150   -9.3729 C   0  0  0  0  0  0  0  0  0  0  0  0
   -2.2530    2.9103   -8.3323 C   0  0  0  0  0  0  0  0  0  0  0  0
   -1.9172    3.4169   -7.1419 C   0  0  0  0  0  0  0  0  0  0  0  0
   -1.0493    4.6341   -7.4076 C   0  0  0  0  0  0  0  0  0  0  0  0
   -1.7583    5.1453   -8.6518 C   0  0  0  0  0  0  0  0  0  0  0  0
    0.3153    4.1885   -8.0307 C   0  0  0  0  0  0  0  0  0  0  0  0
    1.7003   -3.4695   -4.9836 C   0  0  0  0  0  0  0  0  0  0  0  0
    0.9740   -4.5458   -4.4544 C   0  0  0  0  0  0  0  0  0  0  0  0
    1.3553   -4.8116   -3.1452 C   0  0  0  0  0  0  0  0  0  0  0  0
    0.6312   -5.7071   -1.8962 S   0  0  0  0  0  0  0  0  0  0  0  0
    1.6629   -5.0146   -0.7198 C   0  0  0  0  0  0  0  0  0  0  0  0
    1.5352   -4.8410    0.6589 C   0  0  0  0  0  0  0  0  0  0  0  0
    0.3819   -5.0977    1.6166 C   0  0  0  0  0  0  0  0  0  0  0  0
    0.5616   -6.4951    2.2207 C   0  0  0  0  0  0  0  0  0  0  0  0
    1.1027   -6.7093    3.5152 C   0  0  0  0  0  0  0  0  0  0  0  0
    1.2793   -8.0021    4.0151 C   0  0  0  0  0  0  0  0  0  0  0  0
    0.9523   -9.1091    3.2336 C   0  0  0  0  0  0  0  0  0  0  0  0
    0.4612   -8.9239    1.9396 C   0  0  0  0  0  0  0  0  0  0  0  0
    0.2739   -7.6318    1.4327 C   0  0  0  0  0  0  0  0  0  0  0  0
   -1.0050   -4.8454    1.0122 C   0  0  0  0  0  0  0  0  0  0  0  0
   -1.1871   -3.7946    0.0975 C   0  0  0  0  0  0  0  0  0  0  0  0
   -2.4653   -3.5012   -0.3995 C   0  0  0  0  0  0  0  0  0  0  0  0
   -3.5706   -4.2382    0.0346 C   0  0  0  0  0  0  0  0  0  0  0  0
   -3.4146   -5.2238    1.0006 C   0  0  0  0  0  0  0  0  0  0  0  0
   -2.1384   -5.5308    1.4940 C   0  0  0  0  0  0  0  0  0  0  0  0
    0.6508   -3.9884    2.6335 C   0  0  0  0  0  0  0  0  0  0  0  0
    1.8267   -3.2996    2.3441 C   0  0  0  0  0  0  0  0  0  0  0  0
    2.3733   -3.8434    1.1254 C   0  0  0  0  0  0  0  0  0  0  0  0
    3.1971   -3.0668   -0.1553 S   0  0  0  0  0  0  0  0  0  0  0  0
    2.5391   -4.1208   -1.3032 C   0  0  0  0  0  0  0  0  0  0  0  0
    2.3576   -4.0080   -2.6664 C   0  0  0  0  0  0  0  0  0  0  0  0
    2.8387   -2.8961   -3.8321 S   0  0  0  0  0  0  0  0  0  0  0  0
    2.2397   -2.1784    3.0674 C   0  0  0  0  0  0  0  0  0  0  0  0
    1.4035   -1.7432    4.1040 C   0  0  0  0  0  0  0  0  0  0  0  0
    1.5528   -0.4880    4.9400 C   0  0  0  0  0  0  0  0  0  0  0  0
    1.7372    0.7813    4.0798 C   0  0  0  0  0  0  0  0  0  0  0  0
    2.5047    1.8767    4.5312 C   0  0  0  0  0  0  0  0  0  0  0  0
    2.5187    3.0872    3.8316 C   0  0  0  0  0  0  0  0  0  0  0  0
    1.7599    3.2295    2.6697 C   0  0  0  0  0  0  0  0  0  0  0  0
    0.9734    2.1691    2.2177 C   0  0  0  0  0  0  0  0  0  0  0  0
    0.9515    0.9580    2.9182 C   0  0  0  0  0  0  0  0  0  0  0  0
    2.6707   -0.7447    5.9585 C   0  0  0  0  0  0  0  0  0  0  0  0
    4.0194   -0.6981    5.5548 C   0  0  0  0  0  0  0  0  0  0  0  0
    5.0454   -0.9515    6.4639 C   0  0  0  0  0  0  0  0  0  0  0  0
    4.7482   -1.2949    7.7864 C   0  0  0  0  0  0  0  0  0  0  0  0
    3.4158   -1.4303    8.1798 C   0  0  0  0  0  0  0  0  0  0  0  0
    2.3847   -1.1452    7.2828 C   0  0  0  0  0  0  0  0  0  0  0  0
    0.1738   -0.4673    5.5762 C   0  0  0  0  0  0  0  0  0  0  0  0
   -0.5597   -1.5945    5.2854 C   0  0  0  0  0  0  0  0  0  0  0  0
    0.2011   -2.3925    4.3660 C   0  0  0  0  0  0  0  0  0  0  0  0
   -0.2130   -3.5200    3.6459 C   0  0  0  0  0  0  0  0  0  0  0  0
   -2.2384   -1.3043    5.4291 S   0  0  0  0  0  0  0  0  0  0  0  0
   -1.9835    0.2859    5.9666 C   0  0  0  0  0  0  0  0  0  0  0  0
   -2.8276    1.3947    6.0183 C   0  0  0  0  0  0  0  0  0  0  0  0
   -2.1089    2.6059    6.0405 C   0  0  0  0  0  0  0  0  0  0  0  0
   -0.4486    2.2423    5.9832 S   0  0  0  0  0  0  0  0  0  0  0  0
   -0.6460    0.5856    5.9721 C   0  0  0  0  0  0  0  0  0  0  0  0
   -2.7666    3.9248    5.8403 C   0  0  0  0  0  0  0  0  0  0  0  0
   -2.1790    5.0712    5.4301 C   0  0  0  0  0  0  0  0  0  0  0  0
   -0.7494    5.3537    5.1912 C   0  0  0  0  0  0  0  0  0  0  0  0
    0.2125    5.0143    5.9305 O   0  0  0  0  0  0  0  0  0  0  0  0
   -0.6636    6.3717    4.1646 C   0  0  0  0  0  0  0  0  0  0  0  0
    0.4898    6.9646    3.6547 C   0  0  0  0  0  0  0  0  0  0  0  0
    0.3665    8.0113    2.7228 C   0  0  0  0  0  0  0  0  0  0  0  0
    1.6253    8.6799    2.2236 C   0  0  0  0  0  0  0  0  0  0  0  0
   -0.9321    8.3923    2.2607 C   0  0  0  0  0  0  0  0  0  0  0  0
   -1.1326    9.4714    1.2352 C   0  0  0  0  0  0  0  0  0  0  0  0
   -2.0783    7.8007    2.8403 C   0  0  0  0  0  0  0  0  0  0  0  0
   -1.9323    6.8001    3.8119 C   0  0  0  0  0  0  0  0  0  0  0  0
   -2.9364    6.1398    4.6937 C   0  0  0  0  0  0  0  0  0  0  0  0
   -4.1212    6.6639    5.0767 C   0  0  0  0  0  0  0  0  0  0  0  0
   -4.8072    7.6999    4.3339 C   0  0  0  0  0  0  0  0  0  0  0  0
   -5.3591    8.5351    3.7438 N   0  0  0  0  0  0  0  0  0  0  0  0
   -4.6029    6.4371    6.4216 C   0  0  0  0  0  0  0  0  0  0  0  0
   -4.8916    6.3279    7.5320 N   0  0  0  0  0  0  0  0  0  0  0  0
    1.4519   -3.8181   -7.0867 H   0  0  0  0  0  0  0  0  0  0  0  0
    1.4414    2.3854   -5.5893 H   0  0  0  0  0  0  0  0  0  0  0  0
    0.2629    0.6121  -10.2488 H   0  0  0  0  0  0  0  0  0  0  0  0
    0.4788    4.1517  -10.1952 H   0  0  0  0  0  0  0  0  0  0  0  0
   -2.0746    3.7698  -10.3826 H   0  0  0  0  0  0  0  0  0  0  0  0
   -2.9249    2.0806   -8.4967 H   0  0  0  0  0  0  0  0  0  0  0  0
   -2.2285    3.0445   -6.1660 H   0  0  0  0  0  0  0  0  0  0  0  0
   -0.9803    5.3592   -6.5708 H   0  0  0  0  0  0  0  0  0  0  0  0
   -1.2226    5.9824   -9.1560 H   0  0  0  0  0  0  0  0  0  0  0  0
   -2.8266    5.4297   -8.4618 H   0  0  0  0  0  0  0  0  0  0  0  0
    1.1076    4.9652   -8.0605 H   0  0  0  0  0  0  0  0  0  0  0  0
    0.1944   -5.0791   -4.9994 H   0  0  0  0  0  0  0  0  0  0  0  0
    1.4062   -5.8869    4.1492 H   0  0  0  0  0  0  0  0  0  0  0  0
    1.6912   -8.1430    5.0094 H   0  0  0  0  0  0  0  0  0  0  0  0
    1.0675  -10.1068    3.6313 H   0  0  0  0  0  0  0  0  0  0  0  0
    0.2248   -9.7897    1.3161 H   0  0  0  0  0  0  0  0  0  0  0  0
   -0.1194   -7.5109    0.4293 H   0  0  0  0  0  0  0  0  0  0  0  0
   -0.3638   -3.1776   -0.2299 H   0  0  0  0  0  0  0  0  0  0  0  0
   -2.5959   -2.6961   -1.1163 H   0  0  0  0  0  0  0  0  0  0  0  0
   -4.5525   -4.0240   -0.3686 H   0  0  0  0  0  0  0  0  0  0  0  0
   -4.2791   -5.7744    1.3627 H   0  0  0  0  0  0  0  0  0  0  0  0
   -2.0637   -6.2893    2.2649 H   0  0  0  0  0  0  0  0  0  0  0  0
    3.1280   -1.6272    2.7779 H   0  0  0  0  0  0  0  0  0  0  0  0
    3.0726    1.8338    5.4502 H   0  0  0  0  0  0  0  0  0  0  0  0
    3.0810    3.9277    4.2384 H   0  0  0  0  0  0  0  0  0  0  0  0
    1.7217    4.1766    2.1613 H   0  0  0  0  0  0  0  0  0  0  0  0
    0.3724    2.2961    1.3234 H   0  0  0  0  0  0  0  0  0  0  0  0
    0.3133    0.1605    2.5563 H   0  0  0  0  0  0  0  0  0  0  0  0
    4.2894   -0.4002    4.5541 H   0  0  0  0  0  0  0  0  0  0  0  0
    6.0808   -0.8344    6.1557 H   0  0  0  0  0  0  0  0  0  0  0  0
    5.5512   -1.4958    8.4932 H   0  0  0  0  0  0  0  0  0  0  0  0
    3.1905   -1.7661    9.1868 H   0  0  0  0  0  0  0  0  0  0  0  0
    1.3632   -1.2548    7.6479 H   0  0  0  0  0  0  0  0  0  0  0  0
   -1.1713   -3.9942    3.8390 H   0  0  0  0  0  0  0  0  0  0  0  0
   -3.9041    1.3399    5.9200 H   0  0  0  0  0  0  0  0  0  0  0  0
   -3.8462    3.8993    5.8346 H   0  0  0  0  0  0  0  0  0  0  0  0
    1.4713    6.6479    4.0205 H   0  0  0  0  0  0  0  0  0  0  0  0
    2.3437    8.7745    3.0757 H   0  0  0  0  0  0  0  0  0  0  0  0
    2.0856    8.0638    1.4172 H   0  0  0  0  0  0  0  0  0  0  0  0
    1.4390    9.7064    1.8618 H   0  0  0  0  0  0  0  0  0  0  0  0
   -1.0641   10.4597    1.7190 H   0  0  0  0  0  0  0  0  0  0  0  0
   -0.3837    9.3969    0.4227 H   0  0  0  0  0  0  0  0  0  0  0  0
   -2.1389    9.3829    0.7595 H   0  0  0  0  0  0  0  0  0  0  0  0
   -3.0661    8.1027    2.5231 H   0  0  0  0  0  0  0  0  0  0  0  0
  1  2  2  3
  2  3  1  0
  3  4  2  0
  3  5  1  0
  5  6  2  0
  6  7  1  0
  7  8  2  0
  8  9  1  0
  9 10  2  0
 10 11  1  0
 11 12  2  3
 12 13  1  0
 13 14  3  0
 12 15  1  0
 15 16  3  0
  8 17  1  0
 17 18  1  0
 18 19  1  0
 19 20  2  0
 20 21  1  0
 21 22  1  0
 21 23  1  0
  1 24  1  0
 24 25  2  0
 25 26  1  0
 26 27  1  0
 27 28  1  0
 28 29  1  0
 29 30  1  0
 30 31  1  0
 31 32  2  0
 32 33  1  0
 33 34  2  0
 34 35  1  0
 35 36  2  0
 30 37  1  0
 37 38  2  0
 38 39  1  0
 39 40  2  0
 40 41  1  0
 41 42  2  0
 30 43  1  0
 43 44  2  0
 44 45  1  0
 45 46  1  0
 46 47  1  0
 47 48  1  0
 48 49  1  0
 44 50  1  0
 50 51  2  0
 51 52  1  0
 52 53  1  0
 53 54  2  0
 54 55  1  0
 55 56  2  0
 56 57  1  0
 57 58  2  0
 52 59  1  0
 59 60  2  0
 60 61  1  0
 61 62  2  0
 62 63  1  0
 63 64  2  0
 52 65  1  0
 65 66  2  0
 66 67  1  0
 67 68  2  0
 66 69  1  0
 69 70  1  0
 70 71  1  0
 71 72  2  0
 72 73  1  0
 73 74  1  0
 72 75  1  0
 75 76  2  3
 76 77  1  0
 77 78  2  0
 77 79  1  0
 79 80  2  0
 80 81  1  0
 81 82  1  0
 81 83  2  0
 83 84  1  0
 83 85  1  0
 85 86  2  0
 86 87  1  0
 87 88  2  3
 88 89  1  0
 89 90  3  0
 88 91  1  0
 91 92  3  0
 11  2  1  0
 23 17  1  0
 49 24  1  0
 67 51  1  0
 74 70  2  0
 87 76  1  0
 10  5  1  0
 22 18  1  0
 48 26  2  0
 58 53  1  0
 64 59  1  0
 74 65  1  0
 86 79  1  0
 23  7  1  0
 47 28  2  0
 45 29  2  0
 36 31  1  0
 42 37  1  0
 68 43  1  0
  1 93  1  0
  6 94  1  0
  9 95  1  0
 17 96  1  0
 18 97  1  0
 19 98  1  0
 20 99  1  0
 21100  1  0
 22101  1  0
 22102  1  0
 23103  1  0
 25104  1  0
 32105  1  0
 33106  1  0
 34107  1  0
 35108  1  0
 36109  1  0
 38110  1  0
 39111  1  0
 40112  1  0
 41113  1  0
 42114  1  0
 50115  1  0
 54116  1  0
 55117  1  0
 56118  1  0
 57119  1  0
 58120  1  0
 60121  1  0
 61122  1  0
 62123  1  0
 63124  1  0
 64125  1  0
 68126  1  0
 71127  1  0
 75128  1  0
 80129  1  0
 82130  1  0
 82131  1  0
 82132  1  0
 84133  1  0
 84134  1  0
 84135  1  0
 85136  1  0
M  END

