
     RDKit          3D

103115  0  0  0  0  0  0  0  0999 V2000
   -6.0321   -3.3883    2.5112 C   0  0  0  0  0  0  0  0  0  0  0  0
   -6.2939   -3.0867    1.2084 C   0  0  0  0  0  0  0  0  0  0  0  0
   -7.6335   -2.9406    0.6542 C   0  0  0  0  0  0  0  0  0  0  0  0
   -8.7278   -3.1932    1.2454 O   0  0  0  0  0  0  0  0  0  0  0  0
   -7.4802   -2.4381   -0.7389 C   0  0  0  0  0  0  0  0  0  0  0  0
   -8.4158   -2.0588   -1.6872 C   0  0  0  0  0  0  0  0  0  0  0  0
   -8.0801   -1.5379   -2.9218 C   0  0  0  0  0  0  0  0  0  0  0  0
   -6.7153   -1.4120   -3.1652 C   0  0  0  0  0  0  0  0  0  0  0  0
   -5.7748   -1.7944   -2.2341 C   0  0  0  0  0  0  0  0  0  0  0  0
   -6.1513   -2.3020   -1.0385 C   0  0  0  0  0  0  0  0  0  0  0  0
   -5.3436   -2.7361    0.1917 C   0  0  0  0  0  0  0  0  0  0  0  0
   -4.1908   -3.3897   -0.1881 C   0  0  0  0  0  0  0  0  0  0  0  0
   -3.9835   -4.6622    0.5475 C   0  0  0  0  0  0  0  0  0  0  0  0
   -3.8297   -5.6387    1.0944 N   0  0  0  0  0  0  0  0  0  0  0  0
   -3.2002   -2.9698   -1.0815 C   0  0  0  0  0  0  0  0  0  0  0  0
   -2.4180   -2.6233   -1.7768 N   0  0  0  0  0  0  0  0  0  0  0  0
   -6.8799   -0.7229   -4.4895 C   0  0  0  0  0  0  0  0  0  0  0  0
   -6.7460    0.7888   -4.3468 C   0  0  0  0  0  0  0  0  0  0  0  0
   -7.3489    1.3771   -5.5440 C   0  0  0  0  0  0  0  0  0  0  0  0
   -8.6693    1.0844   -5.5068 C   0  0  0  0  0  0  0  0  0  0  0  0
   -8.9591    0.3882   -4.2371 C   0  0  0  0  0  0  0  0  0  0  0  0
   -7.8691    1.0434   -3.3432 C   0  0  0  0  0  0  0  0  0  0  0  0
   -8.3574   -0.9972   -4.2907 C   0  0  0  0  0  0  0  0  0  0  0  0
   -4.6306   -3.4325    2.9660 C   0  0  0  0  0  0  0  0  0  0  0  0
   -3.4737   -4.5678    3.8396 Se  0  0  0  0  0  2  0  0  0  0  0  0
   -1.9753   -3.3151    3.7128 C   0  0  0  0  0  0  0  0  0  0  0  0
   -0.6379   -3.1597    3.9428 C   0  0  0  0  0  0  0  0  0  0  0  0
    0.3598   -4.0489    4.3705 C   0  0  0  0  0  0  0  0  0  0  0  0
    1.6669   -3.7097    4.2658 C   0  0  0  0  0  0  0  0  0  0  0  0
    2.5503   -4.6289    4.6728 N   0  0  0  0  0  0  0  0  0  0  0  0
    1.6225   -5.9177    5.1901 S   0  0  0  0  0  0  0  0  0  0  0  0
    0.1062   -5.2753    4.8787 N   0  0  0  0  0  0  0  0  0  0  0  0
    1.9494   -2.4566    3.7415 C   0  0  0  0  0  0  0  0  0  0  0  0
    3.1590   -1.8706    3.4370 C   0  0  0  0  0  0  0  0  0  0  0  0
    4.8621   -2.1068    3.3364 S   0  0  0  0  0  0  0  0  0  0  0  0
    5.2756   -0.6019    2.5480 C   0  0  0  0  0  0  0  0  0  0  0  0
    6.3763   -0.0212    2.0216 C   0  0  0  0  0  0  0  0  0  0  0  0
    7.7798   -0.6051    2.1444 C   0  0  0  0  0  0  0  0  0  0  0  0
    7.8051   -1.7805    1.1869 C   0  0  0  0  0  0  0  0  0  0  0  0
    6.2254    1.1814    1.3682 C   0  0  0  0  0  0  0  0  0  0  0  0
    4.5528    1.4285    1.5420 S   0  0  0  0  0  0  0  0  0  0  0  0
    4.1056   -0.0099    2.4223 C   0  0  0  0  0  0  0  0  0  0  0  0
    2.9839   -0.6610    2.8811 C   0  0  0  0  0  0  0  0  0  0  0  0
    1.6084   -0.4868    2.8475 N   0  0  0  0  0  0  0  0  0  0  0  0
    0.9887   -1.5531    3.3417 C   0  0  0  0  0  0  0  0  0  0  0  0
   -0.3691   -1.9102    3.4231 C   0  0  0  0  0  0  0  0  0  0  0  0
   -1.4721   -1.3594    2.9188 N   0  0  0  0  0  0  0  0  0  0  0  0
   -2.5351   -2.2748    3.0893 C   0  0  0  0  0  0  0  0  0  0  0  0
   -3.8164   -2.3248    2.7264 C   0  0  0  0  0  0  0  0  0  0  0  0
   -1.7303   -0.1125    2.2887 C   0  0  0  0  0  0  0  0  0  0  0  0
   -1.6308   -0.1326    0.7612 C   0  0  0  0  0  0  0  0  0  0  0  0
    1.0101    0.8130    2.5820 C   0  0  0  0  0  0  0  0  0  0  0  0
    0.7313    1.5151    3.9319 C   0  0  0  0  0  0  0  0  0  0  0  0
    7.2777    1.9573    0.7141 C   0  0  0  0  0  0  0  0  0  0  0  0
    7.3378    2.4947   -0.4627 C   0  0  0  0  0  0  0  0  0  0  0  0
    8.5907    3.2453   -0.8281 C   0  0  0  0  0  0  0  0  0  0  0  0
    9.5245    3.2827    0.0246 O   0  0  0  0  0  0  0  0  0  0  0  0
    8.7294    3.8884   -2.0712 N   0  0  0  0  0  0  0  0  0  0  0  0
    9.9218    4.5965   -2.4682 C   0  0  0  0  0  0  0  0  0  0  0  0
    9.9465    6.0563   -2.1388 C   0  0  0  0  0  0  0  0  0  0  0  0
    7.6137    3.8083   -2.9826 C   0  0  0  0  0  0  0  0  0  0  0  0
    7.7436    4.3848   -4.0814 O   0  0  0  0  0  0  0  0  0  0  0  0
    6.4126    3.1028   -2.6530 C   0  0  0  0  0  0  0  0  0  0  0  0
    6.2879    2.4732   -1.4591 C   0  0  0  0  0  0  0  0  0  0  0  0
    5.0814    1.6410   -1.3135 C   0  0  0  0  0  0  0  0  0  0  0  0
    5.2162    3.1605   -3.4952 C   0  0  0  0  0  0  0  0  0  0  0  0
    4.3008    3.2171   -4.1526 N   0  0  0  0  0  0  0  0  0  0  0  0
   -6.8564   -3.5889    3.1464 H   0  0  0  0  0  0  0  0  0  0  0  0
   -9.4740   -2.1917   -1.4436 H   0  0  0  0  0  0  0  0  0  0  0  0
   -4.7045   -1.6622   -2.4709 H   0  0  0  0  0  0  0  0  0  0  0  0
   -6.3919   -1.1518   -5.3417 H   0  0  0  0  0  0  0  0  0  0  0  0
   -5.7761    1.1389   -4.0202 H   0  0  0  0  0  0  0  0  0  0  0  0
   -6.8608    1.9371   -6.3082 H   0  0  0  0  0  0  0  0  0  0  0  0
   -9.3232    1.3424   -6.3062 H   0  0  0  0  0  0  0  0  0  0  0  0
   -9.9449    0.4340   -3.8364 H   0  0  0  0  0  0  0  0  0  0  0  0
   -7.6816    0.4217   -2.4336 H   0  0  0  0  0  0  0  0  0  0  0  0
   -8.0788    2.0774   -3.1424 H   0  0  0  0  0  0  0  0  0  0  0  0
   -8.8264   -1.6855   -4.9932 H   0  0  0  0  0  0  0  0  0  0  0  0
    7.8833   -0.9886    3.1816 H   0  0  0  0  0  0  0  0  0  0  0  0
    8.5494    0.1423    1.9391 H   0  0  0  0  0  0  0  0  0  0  0  0
    7.1358   -1.6613    0.3274 H   0  0  0  0  0  0  0  0  0  0  0  0
    8.8654   -2.0003    0.8916 H   0  0  0  0  0  0  0  0  0  0  0  0
    7.4390   -2.7005    1.7043 H   0  0  0  0  0  0  0  0  0  0  0  0
   -4.3712   -1.4935    2.1930 H   0  0  0  0  0  0  0  0  0  0  0  0
   -1.3944    0.8176    2.6866 H   0  0  0  0  0  0  0  0  0  0  0  0
   -2.8830    0.1012    2.4003 H   0  0  0  0  0  0  0  0  0  0  0  0
   -0.7050   -0.5550    0.4128 H   0  0  0  0  0  0  0  0  0  0  0  0
   -2.5374   -0.5787    0.3038 H   0  0  0  0  0  0  0  0  0  0  0  0
   -1.6579    0.9380    0.3730 H   0  0  0  0  0  0  0  0  0  0  0  0
    0.4730    1.0351    1.7259 H   0  0  0  0  0  0  0  0  0  0  0  0
    1.9566    1.4750    2.3035 H   0  0  0  0  0  0  0  0  0  0  0  0
    1.6951    1.4942    4.5485 H   0  0  0  0  0  0  0  0  0  0  0  0
   -0.0042    0.9568    4.5422 H   0  0  0  0  0  0  0  0  0  0  0  0
    0.5391    2.5819    3.7960 H   0  0  0  0  0  0  0  0  0  0  0  0
    8.1562    2.0833    1.3637 H   0  0  0  0  0  0  0  0  0  0  0  0
   10.0184    4.5334   -3.6117 H   0  0  0  0  0  0  0  0  0  0  0  0
   10.8713    4.1086   -2.1386 H   0  0  0  0  0  0  0  0  0  0  0  0
   10.5332    6.5547   -2.9686 H   0  0  0  0  0  0  0  0  0  0  0  0
   10.4305    6.2157   -1.1721 H   0  0  0  0  0  0  0  0  0  0  0  0
    8.9055    6.4343   -2.1724 H   0  0  0  0  0  0  0  0  0  0  0  0
    4.1584    2.1787   -1.0639 H   0  0  0  0  0  0  0  0  0  0  0  0
    4.7913    1.2930   -2.4157 H   0  0  0  0  0  0  0  0  0  0  0  0
    5.2580    0.6425   -0.8922 H   0  0  0  0  0  0  0  0  0  0  0  0
  1  2  2  3
  2  3  1  0
  3  4  2  0
  3  5  1  0
  5  6  2  0
  6  7  1  0
  7  8  2  0
  8  9  1  0
  9 10  2  0
 10 11  1  0
 11 12  2  3
 12 13  1  0
 13 14  3  0
 12 15  1  0
 15 16  3  0
  8 17  1  0
 17 18  1  0
 18 19  1  0
 19 20  2  0
 20 21  1  0
 21 22  1  0
 21 23  1  0
  1 24  1  0
 24 25  1  0
 25 26  1  0
 26 27  1  0
 27 28  1  0
 28 29  1  0
 29 30  2  0
 30 31  1  0
 31 32  1  0
 29 33  1  0
 33 34  1  0
 34 35  1  0
 35 36  1  0
 36 37  1  0
 37 38  1  0
 38 39  1  0
 37 40  2  0
 40 41  1  0
 41 42  1  0
 42 43  1  0
 43 44  1  0
 44 45  1  0
 45 46  1  0
 46 47  1  0
 47 48  1  0
 48 49  1  0
 47 50  1  0
 50 51  1  0
 44 52  1  0
 52 53  1  0
 40 54  1  0
 54 55  2  3
 55 56  1  0
 56 57  2  0
 56 58  1  0
 58 59  1  0
 59 60  1  0
 58 61  1  0
 61 62  2  0
 61 63  1  0
 63 64  2  0
 64 65  1  0
 63 66  1  0
 66 67  3  0
 11  2  1  0
 23 17  1  0
 49 24  2  0
 64 55  1  0
 10  5  1  0
 22 18  1  0
 48 26  2  0
 23  7  1  0
 46 27  2  0
 32 28  2  0
 45 33  2  0
 43 34  2  0
 42 36  2  0
  1 68  1  0
  6 69  1  0
  9 70  1  0
 17 71  1  0
 18 72  1  0
 19 73  1  0
 20 74  1  0
 21 75  1  0
 22 76  1  0
 22 77  1  0
 23 78  1  0
 38 79  1  0
 38 80  1  0
 39 81  1  0
 39 82  1  0
 39 83  1  0
 49 84  1  0
 50 85  1  0
 50 86  1  0
 51 87  1  0
 51 88  1  0
 51 89  1  0
 52 90  1  0
 52 91  1  0
 53 92  1  0
 53 93  1  0
 53 94  1  0
 54 95  1  0
 59 96  1  0
 59 97  1  0
 60 98  1  0
 60 99  1  0
 60100  1  0
 65101  1  0
 65102  1  0
 65103  1  0
M  END

