
     RDKit          3D

134150  0  0  0  0  0  0  0  0999 V2000
   -1.3420    6.5647   -1.1921 C   0  0  0  0  0  0  0  0  0  0  0  0
   -0.2300    6.6196   -0.4292 C   0  0  0  0  0  0  0  0  0  0  0  0
    0.5522    5.4491   -0.0044 C   0  0  0  0  0  0  0  0  0  0  0  0
    0.3409    4.2508   -0.3276 O   0  0  0  0  0  0  0  0  0  0  0  0
    1.7149    5.8969    0.7164 C   0  0  0  0  0  0  0  0  0  0  0  0
    2.6741    5.0768    1.3543 C   0  0  0  0  0  0  0  0  0  0  0  0
    3.6571    5.7785    2.0225 C   0  0  0  0  0  0  0  0  0  0  0  0
    3.7119    7.2078    2.0492 C   0  0  0  0  0  0  0  0  0  0  0  0
    2.7853    8.0161    1.4154 C   0  0  0  0  0  0  0  0  0  0  0  0
    1.7507    7.3166    0.7229 C   0  0  0  0  0  0  0  0  0  0  0  0
    0.5367    7.8354    0.0127 C   0  0  0  0  0  0  0  0  0  0  0  0
    0.1445    9.1360   -0.0843 C   0  0  0  0  0  0  0  0  0  0  0  0
   -1.1763    9.5274   -0.5081 C   0  0  0  0  0  0  0  0  0  0  0  0
   -2.2365    9.8503   -0.8377 N   0  0  0  0  0  0  0  0  0  0  0  0
    0.9954   10.2411    0.2728 C   0  0  0  0  0  0  0  0  0  0  0  0
    1.6658   11.1442    0.5538 N   0  0  0  0  0  0  0  0  0  0  0  0
    4.9417    7.1621    2.9032 C   0  0  0  0  0  0  0  0  0  0  0  0
    6.2921    7.4825    2.1987 C   0  0  0  0  0  0  0  0  0  0  0  0
    7.3724    6.9964    3.1317 C   0  0  0  0  0  0  0  0  0  0  0  0
    7.3153    5.6589    3.1184 C   0  0  0  0  0  0  0  0  0  0  0  0
    6.2053    5.2869    2.1662 C   0  0  0  0  0  0  0  0  0  0  0  0
    6.3945    6.3964    1.1422 C   0  0  0  0  0  0  0  0  0  0  0  0
    4.8832    5.6953    2.8796 C   0  0  0  0  0  0  0  0  0  0  0  0
   -2.1656    5.3457   -1.3339 C   0  0  0  0  0  0  0  0  0  0  0  0
   -2.6756    4.8226   -2.5383 C   0  0  0  0  0  0  0  0  0  0  0  0
   -2.3485    5.3462   -3.8774 C   0  0  0  0  0  0  0  0  0  0  0  0
   -2.7319    6.6424   -4.2488 C   0  0  0  0  0  0  0  0  0  0  0  0
   -2.3876    7.1466   -5.5070 C   0  0  0  0  0  0  0  0  0  0  0  0
   -1.6630    6.3586   -6.4139 C   0  0  0  0  0  0  0  0  0  0  0  0
   -1.2513    6.9215   -7.7492 C   0  0  0  0  0  0  0  0  0  0  0  0
    0.0568    7.6943   -7.6331 C   0  0  0  0  0  0  0  0  0  0  0  0
   -1.2647    5.0667   -6.0353 C   0  0  0  0  0  0  0  0  0  0  0  0
   -1.6127    4.5604   -4.7794 C   0  0  0  0  0  0  0  0  0  0  0  0
   -3.3475    3.6166   -2.3097 C   0  0  0  0  0  0  0  0  0  0  0  0
   -3.9661    2.4097   -3.3362 S   0  0  0  0  0  0  0  0  0  0  0  0
   -4.2807    1.3820   -2.0163 C   0  0  0  0  0  0  0  0  0  0  0  0
   -4.2651    0.0211   -1.8716 C   0  0  0  0  0  0  0  0  0  0  0  0
   -4.2258   -0.9883   -2.8461 C   0  0  0  0  0  0  0  0  0  0  0  0
   -3.8250   -2.3018   -2.4612 C   0  0  0  0  0  0  0  0  0  0  0  0
   -3.7485   -3.2375   -3.4392 N   0  0  0  0  0  0  0  0  0  0  0  0
   -4.1954   -2.3133   -4.7387 S   0  0  0  0  0  0  0  0  0  0  0  0
   -4.4832   -0.7860   -4.1620 N   0  0  0  0  0  0  0  0  0  0  0  0
   -3.5177   -2.5393   -1.1184 C   0  0  0  0  0  0  0  0  0  0  0  0
   -3.0829   -3.6522   -0.4572 C   0  0  0  0  0  0  0  0  0  0  0  0
   -2.5906   -5.2450   -0.7682 S   0  0  0  0  0  0  0  0  0  0  0  0
   -2.1871   -5.4614    0.8824 C   0  0  0  0  0  0  0  0  0  0  0  0
   -1.5783   -6.4941    1.5986 C   0  0  0  0  0  0  0  0  0  0  0  0
   -1.3105   -7.8400    1.0411 C   0  0  0  0  0  0  0  0  0  0  0  0
   -1.7018   -8.9846    1.7536 C   0  0  0  0  0  0  0  0  0  0  0  0
   -1.5025  -10.2555    1.2126 C   0  0  0  0  0  0  0  0  0  0  0  0
   -0.8988  -10.4018   -0.0452 C   0  0  0  0  0  0  0  0  0  0  0  0
   -0.7188  -11.7761   -0.6343 C   0  0  0  0  0  0  0  0  0  0  0  0
    0.4911  -12.4845   -0.0274 C   0  0  0  0  0  0  0  0  0  0  0  0
   -0.4649   -9.2619   -0.7376 C   0  0  0  0  0  0  0  0  0  0  0  0
   -0.6722   -7.9902   -0.1994 C   0  0  0  0  0  0  0  0  0  0  0  0
   -1.3380   -6.0910    2.9324 C   0  0  0  0  0  0  0  0  0  0  0  0
   -1.9609   -4.5244    3.2060 S   0  0  0  0  0  0  0  0  0  0  0  0
   -2.4742   -4.3431    1.6209 C   0  0  0  0  0  0  0  0  0  0  0  0
   -2.9673   -3.3128    0.8484 C   0  0  0  0  0  0  0  0  0  0  0  0
   -3.3332   -2.0351    1.1055 N   0  0  0  0  0  0  0  0  0  0  0  0
   -3.5987   -1.5389   -0.1420 C   0  0  0  0  0  0  0  0  0  0  0  0
   -3.8792   -0.2127   -0.5410 C   0  0  0  0  0  0  0  0  0  0  0  0
   -3.5057    0.9559    0.0740 N   0  0  0  0  0  0  0  0  0  0  0  0
   -3.8518    1.9136   -0.8317 C   0  0  0  0  0  0  0  0  0  0  0  0
   -3.3654    3.2061   -1.0040 C   0  0  0  0  0  0  0  0  0  0  0  0
   -2.5815    4.3207   -0.0344 S   0  0  0  0  0  0  0  0  0  0  0  0
   -2.3330    1.0938    0.9584 C   0  0  0  0  0  0  0  0  0  0  0  0
   -1.0316    1.0146    0.1565 C   0  0  0  0  0  0  0  0  0  0  0  0
   -3.8920   -1.5693    2.3828 C   0  0  0  0  0  0  0  0  0  0  0  0
   -5.1540   -2.3458    2.7440 C   0  0  0  0  0  0  0  0  0  0  0  0
   -0.5708   -6.8234    3.9567 C   0  0  0  0  0  0  0  0  0  0  0  0
    0.5902   -7.4690    3.7275 C   0  0  0  0  0  0  0  0  0  0  0  0
    1.1072   -8.5098    4.6119 C   0  0  0  0  0  0  0  0  0  0  0  0
    0.7604   -8.7093    5.8072 O   0  0  0  0  0  0  0  0  0  0  0  0
    2.0059   -9.3451    3.8403 C   0  0  0  0  0  0  0  0  0  0  0  0
    2.6426  -10.5202    4.2401 C   0  0  0  0  0  0  0  0  0  0  0  0
    3.3768  -11.2345    3.2879 C   0  0  0  0  0  0  0  0  0  0  0  0
    3.4206  -10.8004    1.9518 C   0  0  0  0  0  0  0  0  0  0  0  0
    2.7429   -9.6232    1.5502 C   0  0  0  0  0  0  0  0  0  0  0  0
    2.6429   -9.2577    0.2029 O   0  0  0  0  0  0  0  0  0  0  0  0
    3.4663   -9.7753   -0.8428 C   0  0  0  0  0  0  0  0  0  0  0  0
    2.1063   -8.8544    2.5452 C   0  0  0  0  0  0  0  0  0  0  0  0
    1.4002   -7.5423    2.4747 C   0  0  0  0  0  0  0  0  0  0  0  0
    1.8010   -6.4655    1.7477 C   0  0  0  0  0  0  0  0  0  0  0  0
    1.4236   -5.1228    2.1034 C   0  0  0  0  0  0  0  0  0  0  0  0
    1.1428   -4.0302    2.3711 N   0  0  0  0  0  0  0  0  0  0  0  0
    2.7575   -6.5527    0.6806 C   0  0  0  0  0  0  0  0  0  0  0  0
    3.5099   -6.6139   -0.2039 N   0  0  0  0  0  0  0  0  0  0  0  0
   -1.6866    7.4326   -1.7203 H   0  0  0  0  0  0  0  0  0  0  0  0
    2.6263    3.9944    1.3550 H   0  0  0  0  0  0  0  0  0  0  0  0
    2.8722    9.0840    1.4830 H   0  0  0  0  0  0  0  0  0  0  0  0
    4.8006    7.6105    3.9142 H   0  0  0  0  0  0  0  0  0  0  0  0
    6.4130    8.5252    1.8363 H   0  0  0  0  0  0  0  0  0  0  0  0
    8.1100    7.5962    3.6522 H   0  0  0  0  0  0  0  0  0  0  0  0
    8.0028    4.9863    3.6219 H   0  0  0  0  0  0  0  0  0  0  0  0
    6.2444    4.2484    1.7753 H   0  0  0  0  0  0  0  0  0  0  0  0
    5.6047    6.4408    0.3618 H   0  0  0  0  0  0  0  0  0  0  0  0
    7.3904    6.3607    0.6364 H   0  0  0  0  0  0  0  0  0  0  0  0
    4.6998    5.2223    3.8703 H   0  0  0  0  0  0  0  0  0  0  0  0
   -3.3021    7.2638   -3.5689 H   0  0  0  0  0  0  0  0  0  0  0  0
   -2.6810    8.1544   -5.7738 H   0  0  0  0  0  0  0  0  0  0  0  0
   -1.1180    6.1041   -8.4882 H   0  0  0  0  0  0  0  0  0  0  0  0
   -2.0474    7.5919   -8.1364 H   0  0  0  0  0  0  0  0  0  0  0  0
    0.3416    8.1009   -8.6265 H   0  0  0  0  0  0  0  0  0  0  0  0
    0.8673    7.0199   -7.2778 H   0  0  0  0  0  0  0  0  0  0  0  0
   -0.0581    8.5391   -6.9193 H   0  0  0  0  0  0  0  0  0  0  0  0
   -0.6789    4.4548   -6.7095 H   0  0  0  0  0  0  0  0  0  0  0  0
   -1.2933    3.5613   -4.5025 H   0  0  0  0  0  0  0  0  0  0  0  0
   -2.1913   -8.8944    2.7163 H   0  0  0  0  0  0  0  0  0  0  0  0
   -1.8337  -11.1249    1.7672 H   0  0  0  0  0  0  0  0  0  0  0  0
   -0.5920  -11.7209   -1.7379 H   0  0  0  0  0  0  0  0  0  0  0  0
   -1.6272  -12.3855   -0.4383 H   0  0  0  0  0  0  0  0  0  0  0  0
    0.4803  -13.5581   -0.3085 H   0  0  0  0  0  0  0  0  0  0  0  0
    0.4818  -12.4077    1.0814 H   0  0  0  0  0  0  0  0  0  0  0  0
    1.4255  -12.0311   -0.4124 H   0  0  0  0  0  0  0  0  0  0  0  0
    0.0202   -9.3578   -1.7013 H   0  0  0  0  0  0  0  0  0  0  0  0
   -0.3265   -7.1220   -0.7459 H   0  0  0  0  0  0  0  0  0  0  0  0
   -2.2853    0.3056    1.7217 H   0  0  0  0  0  0  0  0  0  0  0  0
   -2.3862    2.0503    1.5166 H   0  0  0  0  0  0  0  0  0  0  0  0
   -0.9955    1.8068   -0.6175 H   0  0  0  0  0  0  0  0  0  0  0  0
   -0.9524    0.0253   -0.3400 H   0  0  0  0  0  0  0  0  0  0  0  0
   -0.1640    1.1440    0.8356 H   0  0  0  0  0  0  0  0  0  0  0  0
   -4.1849   -0.5017    2.3216 H   0  0  0  0  0  0  0  0  0  0  0  0
   -3.1343   -1.6885    3.1873 H   0  0  0  0  0  0  0  0  0  0  0  0
   -5.5657   -1.9590    3.6968 H   0  0  0  0  0  0  0  0  0  0  0  0
   -5.9201   -2.2193    1.9503 H   0  0  0  0  0  0  0  0  0  0  0  0
   -4.9348   -3.4267    2.8653 H   0  0  0  0  0  0  0  0  0  0  0  0
   -1.0082   -6.8748    4.9463 H   0  0  0  0  0  0  0  0  0  0  0  0
    2.5680  -10.8727    5.2606 H   0  0  0  0  0  0  0  0  0  0  0  0
    3.8872  -12.1465    3.5763 H   0  0  0  0  0  0  0  0  0  0  0  0
    3.9507  -11.4076    1.2337 H   0  0  0  0  0  0  0  0  0  0  0  0
    3.3380  -10.8704   -0.9461 H   0  0  0  0  0  0  0  0  0  0  0  0
    4.5297   -9.5383   -0.6335 H   0  0  0  0  0  0  0  0  0  0  0  0
    3.1748   -9.3014   -1.8013 H   0  0  0  0  0  0  0  0  0  0  0  0
  1  2  2  3
  2  3  1  0
  3  4  2  0
  3  5  1  0
  5  6  2  0
  6  7  1  0
  7  8  2  0
  8  9  1  0
  9 10  2  0
 10 11  1  0
 11 12  2  3
 12 13  1  0
 13 14  3  0
 12 15  1  0
 15 16  3  0
  8 17  1  0
 17 18  1  0
 18 19  1  0
 19 20  2  0
 20 21  1  0
 21 22  1  0
 21 23  1  0
  1 24  1  0
 24 25  2  0
 25 26  1  0
 26 27  2  0
 27 28  1  0
 28 29  2  0
 29 30  1  0
 30 31  1  0
 29 32  1  0
 32 33  2  0
 25 34  1  0
 34 35  1  0
 35 36  1  0
 36 37  1  0
 37 38  1  0
 38 39  1  0
 39 40  2  0
 40 41  1  0
 41 42  1  0
 39 43  1  0
 43 44  1  0
 44 45  1  0
 45 46  1  0
 46 47  1  0
 47 48  1  0
 48 49  2  0
 49 50  1  0
 50 51  2  0
 51 52  1  0
 52 53  1  0
 51 54  1  0
 54 55  2  0
 47 56  2  0
 56 57  1  0
 57 58  1  0
 58 59  1  0
 59 60  1  0
 60 61  1  0
 61 62  1  0
 62 63  1  0
 63 64  1  0
 64 65  1  0
 65 66  1  0
 63 67  1  0
 67 68  1  0
 60 69  1  0
 69 70  1  0
 56 71  1  0
 71 72  2  3
 72 73  1  0
 73 74  2  0
 73 75  1  0
 75 76  2  0
 76 77  1  0
 77 78  2  0
 78 79  1  0
 79 80  1  0
 80 81  1  0
 79 82  2  0
 82 83  1  0
 83 84  2  3
 84 85  1  0
 85 86  3  0
 84 87  1  0
 87 88  3  0
 11  2  1  0
 23 17  1  0
 66 24  1  0
 83 72  1  0
 10  5  1  0
 22 18  1  0
 33 26  1  0
 65 34  2  0
 82 75  1  0
 23  7  1  0
 64 36  2  0
 62 37  2  0
 42 38  2  0
 61 43  2  0
 59 44  2  0
 58 46  2  0
 55 48  1  0
  1 89  1  0
  6 90  1  0
  9 91  1  0
 17 92  1  0
 18 93  1  0
 19 94  1  0
 20 95  1  0
 21 96  1  0
 22 97  1  0
 22 98  1  0
 23 99  1  0
 27100  1  0
 28101  1  0
 30102  1  0
 30103  1  0
 31104  1  0
 31105  1  0
 31106  1  0
 32107  1  0
 33108  1  0
 49109  1  0
 50110  1  0
 52111  1  0
 52112  1  0
 53113  1  0
 53114  1  0
 53115  1  0
 54116  1  0
 55117  1  0
 67118  1  0
 67119  1  0
 68120  1  0
 68121  1  0
 68122  1  0
 69123  1  0
 69124  1  0
 70125  1  0
 70126  1  0
 70127  1  0
 71128  1  0
 76129  1  0
 77130  1  0
 78131  1  0
 81132  1  0
 81133  1  0
 81134  1  0
M  END

