
     RDKit          3D

177196  0  0  0  0  0  0  0  0999 V2000
    3.6063    2.1179   -4.1830 C   0  0  0  0  0  0  0  0  0  0  0  0
    3.0479    1.0579   -4.8077 C   0  0  0  0  0  0  0  0  0  0  0  0
    2.3038   -0.0185   -4.1351 C   0  0  0  0  0  0  0  0  0  0  0  0
    1.9477   -0.0398   -2.9307 O   0  0  0  0  0  0  0  0  0  0  0  0
    1.8959   -0.9983   -5.1120 C   0  0  0  0  0  0  0  0  0  0  0  0
    1.2477   -2.2274   -4.8419 C   0  0  0  0  0  0  0  0  0  0  0  0
    1.0478   -3.0133   -5.9568 C   0  0  0  0  0  0  0  0  0  0  0  0
    1.4454   -2.6125   -7.2668 C   0  0  0  0  0  0  0  0  0  0  0  0
    2.0677   -1.4064   -7.5391 C   0  0  0  0  0  0  0  0  0  0  0  0
    2.3028   -0.5757   -6.3989 C   0  0  0  0  0  0  0  0  0  0  0  0
    3.0222    0.7370   -6.2832 C   0  0  0  0  0  0  0  0  0  0  0  0
    3.6021    1.4331   -7.2993 C   0  0  0  0  0  0  0  0  0  0  0  0
    4.3800    2.6230   -7.1065 C   0  0  0  0  0  0  0  0  0  0  0  0
    5.0184    3.5809   -6.9725 N   0  0  0  0  0  0  0  0  0  0  0  0
    3.5099    1.0335   -8.6843 C   0  0  0  0  0  0  0  0  0  0  0  0
    3.4517    0.7305   -9.8015 N   0  0  0  0  0  0  0  0  0  0  0  0
    0.9443   -3.9106   -7.8347 C   0  0  0  0  0  0  0  0  0  0  0  0
   -0.3992   -3.9093   -8.6345 C   0  0  0  0  0  0  0  0  0  0  0  0
   -1.3065   -2.8205   -8.1082 C   0  0  0  0  0  0  0  0  0  0  0  0
   -1.6742   -3.1911   -6.8808 C   0  0  0  0  0  0  0  0  0  0  0  0
   -1.0043   -4.5183   -6.6102 C   0  0  0  0  0  0  0  0  0  0  0  0
   -1.0770   -5.1133   -8.0048 C   0  0  0  0  0  0  0  0  0  0  0  0
    0.5386   -4.3208   -6.4864 C   0  0  0  0  0  0  0  0  0  0  0  0
    3.7894    2.1871   -2.7223 C   0  0  0  0  0  0  0  0  0  0  0  0
    4.3190    1.1645   -1.9297 C   0  0  0  0  0  0  0  0  0  0  0  0
    4.1270    1.4351   -0.5817 C   0  0  0  0  0  0  0  0  0  0  0  0
    4.0271    0.3836    0.7248 S   0  0  0  0  0  0  0  0  0  0  0  0
    3.2130    1.5135    1.6980 C   0  0  0  0  0  0  0  0  0  0  0  0
    2.0991    1.2614    2.5969 C   0  0  0  0  0  0  0  0  0  0  0  0
    1.7818    0.0325    3.1974 C   0  0  0  0  0  0  0  0  0  0  0  0
    2.8978   -0.8813    3.5856 C   0  0  0  0  0  0  0  0  0  0  0  0
    4.1410   -0.4493    4.0529 C   0  0  0  0  0  0  0  0  0  0  0  0
    5.0436   -1.4800    4.3196 C   0  0  0  0  0  0  0  0  0  0  0  0
    4.5180   -2.7461    4.1037 C   0  0  0  0  0  0  0  0  0  0  0  0
    5.2438   -4.0575    4.1943 C   0  0  0  0  0  0  0  0  0  0  0  0
    6.1830   -4.1159    5.3945 C   0  0  0  0  0  0  0  0  0  0  0  0
    2.9461   -2.5661    3.5445 S   0  0  0  0  0  0  0  0  0  0  0  0
    0.4097   -0.1858    3.5000 C   0  0  0  0  0  0  0  0  0  0  0  0
   -0.3358   -1.5338    3.5674 C   0  0  0  0  0  0  0  0  0  0  0  0
    0.0255   -2.4000    2.3452 C   0  0  0  0  0  0  0  0  0  0  0  0
    0.2813   -3.7873    2.4351 C   0  0  0  0  0  0  0  0  0  0  0  0
    0.6218   -4.5278    1.2975 C   0  0  0  0  0  0  0  0  0  0  0  0
    0.6879   -3.9118    0.0387 C   0  0  0  0  0  0  0  0  0  0  0  0
    1.0976   -4.6986   -1.1771 C   0  0  0  0  0  0  0  0  0  0  0  0
    2.5772   -4.4737   -1.4862 C   0  0  0  0  0  0  0  0  0  0  0  0
    0.3986   -2.5474   -0.0746 C   0  0  0  0  0  0  0  0  0  0  0  0
    0.0652   -1.8047    1.0604 C   0  0  0  0  0  0  0  0  0  0  0  0
   -0.2238   -2.2240    4.9402 C   0  0  0  0  0  0  0  0  0  0  0  0
    0.6775   -1.7809    5.9375 C   0  0  0  0  0  0  0  0  0  0  0  0
    0.7178   -2.3987    7.1903 C   0  0  0  0  0  0  0  0  0  0  0  0
   -0.1603   -3.4486    7.4969 C   0  0  0  0  0  0  0  0  0  0  0  0
   -0.0897   -4.1193    8.8410 C   0  0  0  0  0  0  0  0  0  0  0  0
    1.0358   -5.1458    8.8784 C   0  0  0  0  0  0  0  0  0  0  0  0
   -1.0728   -3.8834    6.5236 C   0  0  0  0  0  0  0  0  0  0  0  0
   -1.1148   -3.2695    5.2740 C   0  0  0  0  0  0  0  0  0  0  0  0
   -1.7604   -1.0405    3.4309 C   0  0  0  0  0  0  0  0  0  0  0  0
   -1.8484    0.3268    3.5293 C   0  0  0  0  0  0  0  0  0  0  0  0
   -0.5069    0.8853    3.4303 C   0  0  0  0  0  0  0  0  0  0  0  0
   -0.1434    2.1552    2.9368 C   0  0  0  0  0  0  0  0  0  0  0  0
    1.1804    2.2985    2.4488 C   0  0  0  0  0  0  0  0  0  0  0  0
    1.7658    3.4127    1.5606 C   0  0  0  0  0  0  0  0  0  0  0  0
    0.7930    3.7896    0.4346 C   0  0  0  0  0  0  0  0  0  0  0  0
    0.2720    2.7734   -0.3980 C   0  0  0  0  0  0  0  0  0  0  0  0
   -0.6101    3.0760   -1.4319 C   0  0  0  0  0  0  0  0  0  0  0  0
   -0.9997    4.4003   -1.6619 C   0  0  0  0  0  0  0  0  0  0  0  0
   -1.9629    4.7299   -2.7780 C   0  0  0  0  0  0  0  0  0  0  0  0
   -3.2431    5.3653   -2.2454 C   0  0  0  0  0  0  0  0  0  0  0  0
   -0.4732    5.4216   -0.8633 C   0  0  0  0  0  0  0  0  0  0  0  0
    0.4000    5.1234    0.1870 C   0  0  0  0  0  0  0  0  0  0  0  0
    2.3018    4.5978    2.3956 C   0  0  0  0  0  0  0  0  0  0  0  0
    3.1951    5.5197    1.8102 C   0  0  0  0  0  0  0  0  0  0  0  0
    3.7625    6.5537    2.5703 C   0  0  0  0  0  0  0  0  0  0  0  0
    3.4361    6.7031    3.9251 C   0  0  0  0  0  0  0  0  0  0  0  0
    4.0222    7.8190    4.7479 C   0  0  0  0  0  0  0  0  0  0  0  0
    3.0841    9.0237    4.7802 C   0  0  0  0  0  0  0  0  0  0  0  0
    2.5265    5.8142    4.5069 C   0  0  0  0  0  0  0  0  0  0  0  0
    1.9779    4.7640    3.7598 C   0  0  0  0  0  0  0  0  0  0  0  0
    2.9694    2.6765    1.0008 C   0  0  0  0  0  0  0  0  0  0  0  0
    3.5091    2.6201   -0.2911 C   0  0  0  0  0  0  0  0  0  0  0  0
    3.1546    3.4196   -1.7325 S   0  0  0  0  0  0  0  0  0  0  0  0
   -1.1318    3.2527    2.8418 C   0  0  0  0  0  0  0  0  0  0  0  0
   -2.0174    3.4802    1.7896 C   0  0  0  0  0  0  0  0  0  0  0  0
   -2.8743    4.5643    2.0042 C   0  0  0  0  0  0  0  0  0  0  0  0
   -2.6683    5.1904    3.2254 C   0  0  0  0  0  0  0  0  0  0  0  0
   -3.4666    6.3373    3.7552 C   0  0  0  0  0  0  0  0  0  0  0  0
   -4.7169    5.8381    4.4697 C   0  0  0  0  0  0  0  0  0  0  0  0
   -1.4579    4.3687    4.0596 S   0  0  0  0  0  0  0  0  0  0  0  0
   -3.3224    0.8831    2.8948 S   0  0  0  0  0  0  0  0  0  0  0  0
   -3.8465   -0.6609    2.4887 C   0  0  0  0  0  0  0  0  0  0  0  0
   -4.7444   -1.0502    1.5020 C   0  0  0  0  0  0  0  0  0  0  0  0
   -4.4428   -2.3232    1.0121 C   0  0  0  0  0  0  0  0  0  0  0  0
   -3.1016   -2.9475    1.8406 S   0  0  0  0  0  0  0  0  0  0  0  0
   -2.8914   -1.5856    2.8151 C   0  0  0  0  0  0  0  0  0  0  0  0
   -4.9940   -2.8960   -0.2194 C   0  0  0  0  0  0  0  0  0  0  0  0
   -4.9858   -2.2372   -1.4056 C   0  0  0  0  0  0  0  0  0  0  0  0
   -4.4095   -0.9017   -1.6572 C   0  0  0  0  0  0  0  0  0  0  0  0
   -3.5176   -0.3312   -0.9767 O   0  0  0  0  0  0  0  0  0  0  0  0
   -4.9349   -0.4115   -2.9131 C   0  0  0  0  0  0  0  0  0  0  0  0
   -4.7698    0.8450   -3.4942 C   0  0  0  0  0  0  0  0  0  0  0  0
   -3.9784    1.7837   -2.9183 F   0  0  0  0  0  0  0  0  0  0  0  0
   -5.4462    1.1237   -4.6904 C   0  0  0  0  0  0  0  0  0  0  0  0
   -6.3028    0.1652   -5.2572 C   0  0  0  0  0  0  0  0  0  0  0  0
   -6.4594   -1.0953   -4.6547 C   0  0  0  0  0  0  0  0  0  0  0  0
   -5.7321   -1.3884   -3.4893 C   0  0  0  0  0  0  0  0  0  0  0  0
   -5.6837   -2.6277   -2.6669 C   0  0  0  0  0  0  0  0  0  0  0  0
   -5.9592   -3.8855   -3.0995 C   0  0  0  0  0  0  0  0  0  0  0  0
   -6.4653   -4.1593   -4.4240 C   0  0  0  0  0  0  0  0  0  0  0  0
   -6.8639   -4.3962   -5.4824 N   0  0  0  0  0  0  0  0  0  0  0  0
   -5.6336   -5.0590   -2.3233 C   0  0  0  0  0  0  0  0  0  0  0  0
   -5.3845   -6.0128   -1.7114 N   0  0  0  0  0  0  0  0  0  0  0  0
    3.9423    2.9838   -4.7237 H   0  0  0  0  0  0  0  0  0  0  0  0
    0.9713   -2.5536   -3.8440 H   0  0  0  0  0  0  0  0  0  0  0  0
    2.3601   -1.1786   -8.5514 H   0  0  0  0  0  0  0  0  0  0  0  0
    1.7416   -4.5499   -8.2725 H   0  0  0  0  0  0  0  0  0  0  0  0
   -0.2946   -3.9449   -9.7374 H   0  0  0  0  0  0  0  0  0  0  0  0
   -1.6811   -1.9621   -8.6522 H   0  0  0  0  0  0  0  0  0  0  0  0
   -2.3975   -2.6808   -6.2573 H   0  0  0  0  0  0  0  0  0  0  0  0
   -1.4680   -5.1271   -5.8078 H   0  0  0  0  0  0  0  0  0  0  0  0
   -0.4975   -6.0588   -8.1136 H   0  0  0  0  0  0  0  0  0  0  0  0
   -2.1243   -5.2729   -8.3610 H   0  0  0  0  0  0  0  0  0  0  0  0
    1.0942   -5.2031   -6.1058 H   0  0  0  0  0  0  0  0  0  0  0  0
    4.6800    0.2180   -2.3121 H   0  0  0  0  0  0  0  0  0  0  0  0
    4.3995    0.5942    4.1807 H   0  0  0  0  0  0  0  0  0  0  0  0
    6.0509   -1.2974    4.6728 H   0  0  0  0  0  0  0  0  0  0  0  0
    4.4982   -4.8823    4.2890 H   0  0  0  0  0  0  0  0  0  0  0  0
    5.8278   -4.2144    3.2613 H   0  0  0  0  0  0  0  0  0  0  0  0
    7.0477   -3.4323    5.2415 H   0  0  0  0  0  0  0  0  0  0  0  0
    5.6417   -3.8257    6.3221 H   0  0  0  0  0  0  0  0  0  0  0  0
    6.5714   -5.1476    5.5108 H   0  0  0  0  0  0  0  0  0  0  0  0
    0.2871   -4.3059    3.3787 H   0  0  0  0  0  0  0  0  0  0  0  0
    0.8529   -5.5794    1.4037 H   0  0  0  0  0  0  0  0  0  0  0  0
    0.4900   -4.3916   -2.0582 H   0  0  0  0  0  0  0  0  0  0  0  0
    0.9203   -5.7875   -1.0207 H   0  0  0  0  0  0  0  0  0  0  0  0
    2.7740   -3.3981   -1.7100 H   0  0  0  0  0  0  0  0  0  0  0  0
    2.8622   -5.0754   -2.3714 H   0  0  0  0  0  0  0  0  0  0  0  0
    3.2102   -4.7822   -0.6224 H   0  0  0  0  0  0  0  0  0  0  0  0
    0.4314   -2.0559   -1.0374 H   0  0  0  0  0  0  0  0  0  0  0  0
   -0.1622   -0.7539    0.9369 H   0  0  0  0  0  0  0  0  0  0  0  0
    1.3573   -0.9597    5.7720 H   0  0  0  0  0  0  0  0  0  0  0  0
    1.4258   -2.0494    7.9331 H   0  0  0  0  0  0  0  0  0  0  0  0
   -1.0515   -4.6227    9.0742 H   0  0  0  0  0  0  0  0  0  0  0  0
    0.0889   -3.3578    9.6335 H   0  0  0  0  0  0  0  0  0  0  0  0
    0.8553   -5.9398    8.1201 H   0  0  0  0  0  0  0  0  0  0  0  0
    1.0805   -5.6199    9.8813 H   0  0  0  0  0  0  0  0  0  0  0  0
    2.0132   -4.6592    8.6787 H   0  0  0  0  0  0  0  0  0  0  0  0
   -1.7572   -4.6937    6.7419 H   0  0  0  0  0  0  0  0  0  0  0  0
   -1.8368   -3.6217    4.5507 H   0  0  0  0  0  0  0  0  0  0  0  0
    0.5513    1.7330   -0.2418 H   0  0  0  0  0  0  0  0  0  0  0  0
   -0.9894    2.2711   -2.0448 H   0  0  0  0  0  0  0  0  0  0  0  0
   -2.2278    3.8122   -3.3428 H   0  0  0  0  0  0  0  0  0  0  0  0
   -1.4724    5.4216   -3.4928 H   0  0  0  0  0  0  0  0  0  0  0  0
   -3.6746    4.7579   -1.4259 H   0  0  0  0  0  0  0  0  0  0  0  0
   -3.0390    6.3881   -1.8725 H   0  0  0  0  0  0  0  0  0  0  0  0
   -3.9888    5.4407   -3.0650 H   0  0  0  0  0  0  0  0  0  0  0  0
   -0.7510    6.4501   -1.0401 H   0  0  0  0  0  0  0  0  0  0  0  0
    0.7568    5.9430    0.7944 H   0  0  0  0  0  0  0  0  0  0  0  0
    3.4803    5.4208    0.7712 H   0  0  0  0  0  0  0  0  0  0  0  0
    4.4650    7.2333    2.1011 H   0  0  0  0  0  0  0  0  0  0  0  0
    5.0069    8.1309    4.3400 H   0  0  0  0  0  0  0  0  0  0  0  0
    4.1919    7.4663    5.7883 H   0  0  0  0  0  0  0  0  0  0  0  0
    2.9636    9.4401    3.7566 H   0  0  0  0  0  0  0  0  0  0  0  0
    3.5040    9.8082    5.4423 H   0  0  0  0  0  0  0  0  0  0  0  0
    2.0878    8.7238    5.1709 H   0  0  0  0  0  0  0  0  0  0  0  0
    2.2419    5.9231    5.5457 H   0  0  0  0  0  0  0  0  0  0  0  0
    1.3302    4.0793    4.2831 H   0  0  0  0  0  0  0  0  0  0  0  0
   -2.0846    2.8490    0.9132 H   0  0  0  0  0  0  0  0  0  0  0  0
   -3.6322    4.8675    1.2921 H   0  0  0  0  0  0  0  0  0  0  0  0
   -3.7636    7.0084    2.9197 H   0  0  0  0  0  0  0  0  0  0  0  0
   -2.8491    6.9197    4.4708 H   0  0  0  0  0  0  0  0  0  0  0  0
   -5.3344    6.7042    4.7892 H   0  0  0  0  0  0  0  0  0  0  0  0
   -5.3253    5.2013    3.7862 H   0  0  0  0  0  0  0  0  0  0  0  0
   -4.4389    5.2410    5.3672 H   0  0  0  0  0  0  0  0  0  0  0  0
   -5.4941   -0.3916    1.0734 H   0  0  0  0  0  0  0  0  0  0  0  0
   -5.4778   -3.8582   -0.1236 H   0  0  0  0  0  0  0  0  0  0  0  0
   -5.3283    2.0942   -5.1614 H   0  0  0  0  0  0  0  0  0  0  0  0
   -6.8444    0.3979   -6.1635 H   0  0  0  0  0  0  0  0  0  0  0  0
   -7.1656   -1.7867   -5.0880 H   0  0  0  0  0  0  0  0  0  0  0  0
  1  2  2  3
  2  3  1  0
  3  4  2  0
  3  5  1  0
  5  6  2  0
  6  7  1  0
  7  8  2  0
  8  9  1  0
  9 10  2  0
 10 11  1  0
 11 12  2  3
 12 13  1  0
 13 14  3  0
 12 15  1  0
 15 16  3  0
  8 17  1  0
 17 18  1  0
 18 19  1  0
 19 20  2  0
 20 21  1  0
 21 22  1  0
 21 23  1  0
  1 24  1  0
 24 25  2  0
 25 26  1  0
 26 27  1  0
 27 28  1  0
 28 29  1  0
 29 30  2  0
 30 31  1  0
 31 32  2  0
 32 33  1  0
 33 34  2  0
 34 35  1  0
 35 36  1  0
 34 37  1  0
 30 38  1  0
 38 39  1  0
 39 40  1  0
 40 41  2  0
 41 42  1  0
 42 43  2  0
 43 44  1  0
 44 45  1  0
 43 46  1  0
 46 47  2  0
 39 48  1  0
 48 49  2  0
 49 50  1  0
 50 51  2  0
 51 52  1  0
 52 53  1  0
 51 54  1  0
 54 55  2  0
 39 56  1  0
 56 57  2  0
 57 58  1  0
 58 59  1  0
 59 60  2  0
 60 61  1  0
 61 62  1  0
 62 63  2  0
 63 64  1  0
 64 65  2  0
 65 66  1  0
 66 67  1  0
 65 68  1  0
 68 69  2  0
 61 70  1  0
 70 71  2  0
 71 72  1  0
 72 73  2  0
 73 74  1  0
 74 75  1  0
 73 76  1  0
 76 77  2  0
 61 78  1  0
 78 79  1  0
 79 80  1  0
 59 81  1  0
 81 82  2  0
 82 83  1  0
 83 84  2  0
 84 85  1  0
 85 86  1  0
 84 87  1  0
 57 88  1  0
 88 89  1  0
 89 90  1  0
 90 91  2  0
 91 92  1  0
 92 93  1  0
 91 94  1  0
 94 95  2  3
 95 96  1  0
 96 97  2  0
 96 98  1  0
 98 99  2  0
 99100  1  0
 99101  1  0
101102  2  0
102103  1  0
103104  2  0
104105  1  0
105106  2  3
106107  1  0
107108  3  0
106109  1  0
109110  3  0
 11  2  1  0
 23 17  1  0
 80 24  1  0
 87 81  1  0
 93 89  2  0
105 95  1  0
 10  5  1  0
 22 18  1  0
 79 26  2  0
104 98  1  0
 23  7  1  0
 78 28  2  0
 60 29  1  0
 69 62  1  0
 77 70  1  0
 37 31  1  0
 58 38  2  0
 47 40  1  0
 55 48  1  0
 93 56  1  0
  1111  1  0
  6112  1  0
  9113  1  0
 17114  1  0
 18115  1  0
 19116  1  0
 20117  1  0
 21118  1  0
 22119  1  0
 22120  1  0
 23121  1  0
 25122  1  0
 32123  1  0
 33124  1  0
 35125  1  0
 35126  1  0
 36127  1  0
 36128  1  0
 36129  1  0
 41130  1  0
 42131  1  0
 44132  1  0
 44133  1  0
 45134  1  0
 45135  1  0
 45136  1  0
 46137  1  0
 47138  1  0
 49139  1  0
 50140  1  0
 52141  1  0
 52142  1  0
 53143  1  0
 53144  1  0
 53145  1  0
 54146  1  0
 55147  1  0
 63148  1  0
 64149  1  0
 66150  1  0
 66151  1  0
 67152  1  0
 67153  1  0
 67154  1  0
 68155  1  0
 69156  1  0
 71157  1  0
 72158  1  0
 74159  1  0
 74160  1  0
 75161  1  0
 75162  1  0
 75163  1  0
 76164  1  0
 77165  1  0
 82166  1  0
 83167  1  0
 85168  1  0
 85169  1  0
 86170  1  0
 86171  1  0
 86172  1  0
 90173  1  0
 94174  1  0
101175  1  0
102176  1  0
103177  1  0
M  END

