
     RDKit          3D

113127  0  0  0  0  0  0  0  0999 V2000
   -6.6516    2.1646    0.8325 C   0  0  0  0  0  0  0  0  0  0  0  0
   -6.3018    1.1664   -0.0470 C   0  0  0  0  0  0  0  0  0  0  0  0
   -5.1796    1.2386   -0.9423 C   0  0  0  0  0  0  0  0  0  0  0  0
   -4.6034    2.3039   -1.4075 O   0  0  0  0  0  0  0  0  0  0  0  0
   -4.7104   -0.0864   -1.3338 C   0  0  0  0  0  0  0  0  0  0  0  0
   -3.6314   -0.4522   -2.1263 C   0  0  0  0  0  0  0  0  0  0  0  0
   -3.3373   -1.7764   -2.2691 C   0  0  0  0  0  0  0  0  0  0  0  0
   -4.0957   -2.6920   -1.6292 C   0  0  0  0  0  0  0  0  0  0  0  0
   -5.2005   -2.3182   -0.8523 C   0  0  0  0  0  0  0  0  0  0  0  0
   -5.5403   -1.0009   -0.6849 C   0  0  0  0  0  0  0  0  0  0  0  0
   -6.5514   -0.2589    0.1197 C   0  0  0  0  0  0  0  0  0  0  0  0
   -7.3916   -0.8921    1.0173 C   0  0  0  0  0  0  0  0  0  0  0  0
   -7.5114   -2.1968    1.0447 C   0  0  0  0  0  0  0  0  0  0  0  0
   -7.6279   -3.6062    1.0541 N   0  0  0  0  0  0  0  0  0  0  0  0
   -8.0244   -0.0802    2.0308 C   0  0  0  0  0  0  0  0  0  0  0  0
   -8.5580    0.6399    2.9089 N   0  0  0  0  0  0  0  0  0  0  0  0
   -3.0883   -3.7666   -1.9217 C   0  0  0  0  0  0  0  0  0  0  0  0
   -3.5859   -4.9410   -2.6507 C   0  0  0  0  0  0  0  0  0  0  0  0
   -4.9396   -4.5397   -3.2219 C   0  0  0  0  0  0  0  0  0  0  0  0
   -4.6813   -3.5321   -4.0668 C   0  0  0  0  0  0  0  0  0  0  0  0
   -3.2511   -3.4009   -4.2425 C   0  0  0  0  0  0  0  0  0  0  0  0
   -2.8283   -4.9071   -3.9796 C   0  0  0  0  0  0  0  0  0  0  0  0
   -2.5533   -2.8226   -3.0160 C   0  0  0  0  0  0  0  0  0  0  0  0
   -5.7069    3.3025    0.8155 C   0  0  0  0  0  0  0  0  0  0  0  0
   -5.3479    4.4143    0.3321 C   0  0  0  0  0  0  0  0  0  0  0  0
   -6.2566    5.1134   -0.6944 C   0  0  0  0  0  0  0  0  0  0  0  0
   -5.6747    6.3481   -1.2305 C   0  0  0  0  0  0  0  0  0  0  0  0
   -4.1234    4.9488    0.6770 C   0  0  0  0  0  0  0  0  0  0  0  0
   -2.9936    6.4627    0.2753 Se  0  0  0  0  0  2  0  0  0  0  0  0
   -1.5217    5.7332    1.4514 C   0  0  0  0  0  0  0  0  0  0  0  0
   -0.1721    5.9173    1.5520 C   0  0  0  0  0  0  0  0  0  0  0  0
    0.7363    6.7986    0.9998 C   0  0  0  0  0  0  0  0  0  0  0  0
    2.0457    6.4964    0.9825 C   0  0  0  0  0  0  0  0  0  0  0  0
    2.8607    7.4208    0.4534 N   0  0  0  0  0  0  0  0  0  0  0  0
    1.8526    8.6767   -0.0071 S   0  0  0  0  0  0  0  0  0  0  0  0
    0.3977    8.0043    0.4800 N   0  0  0  0  0  0  0  0  0  0  0  0
    2.4059    5.2593    1.5587 C   0  0  0  0  0  0  0  0  0  0  0  0
    3.5512    4.5348    1.4130 C   0  0  0  0  0  0  0  0  0  0  0  0
    5.2566    4.5267    0.4075 Se  0  0  0  0  0  2  0  0  0  0  0  0
    5.5078    2.4870    0.8911 C   0  0  0  0  0  0  0  0  0  0  0  0
    6.3102    1.6009    0.4197 C   0  0  0  0  0  0  0  0  0  0  0  0
    7.5781    1.8263   -0.3616 C   0  0  0  0  0  0  0  0  0  0  0  0
    8.7373    2.2408    0.4749 C   0  0  0  0  0  0  0  0  0  0  0  0
    5.8942    0.2857    0.7472 C   0  0  0  0  0  0  0  0  0  0  0  0
    4.5097    0.5780    1.6447 S   0  0  0  0  0  0  0  0  0  0  0  0
    4.4516    2.3789    1.5647 C   0  0  0  0  0  0  0  0  0  0  0  0
    3.4646    3.2736    1.8778 C   0  0  0  0  0  0  0  0  0  0  0  0
    2.1435    3.2236    2.3930 N   0  0  0  0  0  0  0  0  0  0  0  0
    1.5465    4.3850    2.1628 C   0  0  0  0  0  0  0  0  0  0  0  0
    0.1654    4.7162    2.1551 C   0  0  0  0  0  0  0  0  0  0  0  0
   -0.9478    3.9470    2.3696 N   0  0  0  0  0  0  0  0  0  0  0  0
   -2.0730    4.7630    1.8175 C   0  0  0  0  0  0  0  0  0  0  0  0
   -3.3335    4.2611    1.5284 C   0  0  0  0  0  0  0  0  0  0  0  0
   -4.3231    2.9029    1.8326 S   0  0  0  0  0  0  0  0  0  0  0  0
   -1.1140    2.6523    2.9035 C   0  0  0  0  0  0  0  0  0  0  0  0
   -1.1009    1.5214    1.8909 C   0  0  0  0  0  0  0  0  0  0  0  0
    1.7171    2.2109    3.3052 C   0  0  0  0  0  0  0  0  0  0  0  0
    1.6658    2.7453    4.7568 C   0  0  0  0  0  0  0  0  0  0  0  0
    6.3713   -0.9804    0.1138 C   0  0  0  0  0  0  0  0  0  0  0  0
    5.5991   -2.0764    0.1498 C   0  0  0  0  0  0  0  0  0  0  0  0
    4.3161   -2.2353    0.7795 C   0  0  0  0  0  0  0  0  0  0  0  0
    3.7259   -1.4980    1.6510 O   0  0  0  0  0  0  0  0  0  0  0  0
    3.6592   -3.4407    0.3103 C   0  0  0  0  0  0  0  0  0  0  0  0
    2.4341   -3.9454    0.6752 C   0  0  0  0  0  0  0  0  0  0  0  0
    1.9760   -5.1176    0.1301 C   0  0  0  0  0  0  0  0  0  0  0  0
    0.6494   -5.6815    0.5488 C   0  0  0  0  0  0  0  0  0  0  0  0
    2.8058   -5.7169   -0.7861 C   0  0  0  0  0  0  0  0  0  0  0  0
    4.0316   -5.2058   -1.1510 C   0  0  0  0  0  0  0  0  0  0  0  0
    4.5002   -4.0393   -0.6033 C   0  0  0  0  0  0  0  0  0  0  0  0
    5.7538   -3.2211   -0.7444 C   0  0  0  0  0  0  0  0  0  0  0  0
    6.8048   -3.5981   -1.4262 C   0  0  0  0  0  0  0  0  0  0  0  0
    8.0919   -2.9801   -1.4561 C   0  0  0  0  0  0  0  0  0  0  0  0
    9.1378   -2.4618   -1.4724 N   0  0  0  0  0  0  0  0  0  0  0  0
    6.7034   -4.7444   -2.3764 C   0  0  0  0  0  0  0  0  0  0  0  0
    6.6382   -5.6801   -3.1627 N   0  0  0  0  0  0  0  0  0  0  0  0
   -7.4927    2.1077    1.3840 H   0  0  0  0  0  0  0  0  0  0  0  0
   -3.0541    0.3365   -2.6342 H   0  0  0  0  0  0  0  0  0  0  0  0
   -5.7662   -3.0822   -0.3760 H   0  0  0  0  0  0  0  0  0  0  0  0
   -2.3735   -3.9302   -1.0848 H   0  0  0  0  0  0  0  0  0  0  0  0
   -3.5585   -5.9388   -2.2124 H   0  0  0  0  0  0  0  0  0  0  0  0
   -5.8700   -4.9769   -2.9974 H   0  0  0  0  0  0  0  0  0  0  0  0
   -5.4559   -2.8820   -4.5366 H   0  0  0  0  0  0  0  0  0  0  0  0
   -2.8759   -3.0744   -5.1834 H   0  0  0  0  0  0  0  0  0  0  0  0
   -1.7483   -4.9359   -3.8669 H   0  0  0  0  0  0  0  0  0  0  0  0
   -3.2826   -5.5227   -4.7478 H   0  0  0  0  0  0  0  0  0  0  0  0
   -1.4882   -2.7286   -3.0461 H   0  0  0  0  0  0  0  0  0  0  0  0
   -6.3864    4.3995   -1.5710 H   0  0  0  0  0  0  0  0  0  0  0  0
   -7.2522    5.2827   -0.2727 H   0  0  0  0  0  0  0  0  0  0  0  0
   -4.6430    6.2648   -1.6649 H   0  0  0  0  0  0  0  0  0  0  0  0
   -5.6968    7.1781   -0.4731 H   0  0  0  0  0  0  0  0  0  0  0  0
   -6.3353    6.7127   -2.0643 H   0  0  0  0  0  0  0  0  0  0  0  0
    7.8450    0.8878   -0.8823 H   0  0  0  0  0  0  0  0  0  0  0  0
    7.4240    2.6075   -1.1419 H   0  0  0  0  0  0  0  0  0  0  0  0
    8.5373    3.0493    1.1852 H   0  0  0  0  0  0  0  0  0  0  0  0
    9.1217    1.3300    1.0221 H   0  0  0  0  0  0  0  0  0  0  0  0
    9.5348    2.5713   -0.2586 H   0  0  0  0  0  0  0  0  0  0  0  0
   -0.7455    2.4684    3.9222 H   0  0  0  0  0  0  0  0  0  0  0  0
   -2.2535    2.5894    3.2244 H   0  0  0  0  0  0  0  0  0  0  0  0
   -2.0303    1.3834    1.2923 H   0  0  0  0  0  0  0  0  0  0  0  0
   -1.0768    0.5847    2.5126 H   0  0  0  0  0  0  0  0  0  0  0  0
   -0.3031    1.6228    1.1612 H   0  0  0  0  0  0  0  0  0  0  0  0
    1.0525    1.4811    3.1238 H   0  0  0  0  0  0  0  0  0  0  0  0
    2.6984    1.5127    3.4576 H   0  0  0  0  0  0  0  0  0  0  0  0
    1.0788    3.7183    4.7538 H   0  0  0  0  0  0  0  0  0  0  0  0
    2.6470    2.8708    5.2100 H   0  0  0  0  0  0  0  0  0  0  0  0
    1.0313    2.0152    5.2679 H   0  0  0  0  0  0  0  0  0  0  0  0
    7.3307   -0.9308   -0.3035 H   0  0  0  0  0  0  0  0  0  0  0  0
    1.7578   -3.4492    1.3834 H   0  0  0  0  0  0  0  0  0  0  0  0
    0.8262   -6.6541    1.1189 H   0  0  0  0  0  0  0  0  0  0  0  0
   -0.0051   -5.8504   -0.3310 H   0  0  0  0  0  0  0  0  0  0  0  0
    0.1397   -4.9548    1.2049 H   0  0  0  0  0  0  0  0  0  0  0  0
    2.4602   -6.6345   -1.2698 H   0  0  0  0  0  0  0  0  0  0  0  0
    4.6121   -5.7205   -1.8850 H   0  0  0  0  0  0  0  0  0  0  0  0
  1  2  2  3
  2  3  1  0
  3  4  2  0
  3  5  1  0
  5  6  2  0
  6  7  1  0
  7  8  2  0
  8  9  1  0
  9 10  2  0
 10 11  1  0
 11 12  2  3
 12 13  1  0
 13 14  3  0
 12 15  1  0
 15 16  3  0
  8 17  1  0
 17 18  1  0
 18 19  1  0
 19 20  2  0
 20 21  1  0
 21 22  1  0
 21 23  1  0
  1 24  1  0
 24 25  2  0
 25 26  1  0
 26 27  1  0
 25 28  1  0
 28 29  1  0
 29 30  1  0
 30 31  1  0
 31 32  1  0
 32 33  1  0
 33 34  2  0
 34 35  1  0
 35 36  1  0
 33 37  1  0
 37 38  1  0
 38 39  1  0
 39 40  1  0
 40 41  1  0
 41 42  1  0
 42 43  1  0
 41 44  2  0
 44 45  1  0
 45 46  1  0
 46 47  1  0
 47 48  1  0
 48 49  1  0
 49 50  1  0
 50 51  1  0
 51 52  1  0
 52 53  1  0
 53 54  1  0
 51 55  1  0
 55 56  1  0
 48 57  1  0
 57 58  1  0
 44 59  1  0
 59 60  2  3
 60 61  1  0
 61 62  2  0
 61 63  1  0
 63 64  2  0
 64 65  1  0
 65 66  1  0
 65 67  2  0
 67 68  1  0
 68 69  2  0
 69 70  1  0
 70 71  2  3
 71 72  1  0
 72 73  3  0
 71 74  1  0
 74 75  3  0
 11  2  1  0
 23 17  1  0
 54 24  1  0
 70 60  1  0
 10  5  1  0
 22 18  1  0
 53 28  2  0
 69 63  1  0
 23  7  1  0
 52 30  2  0
 50 31  2  0
 36 32  2  0
 49 37  2  0
 47 38  2  0
 46 40  2  0
  1 76  1  0
  6 77  1  0
  9 78  1  0
 17 79  1  0
 18 80  1  0
 19 81  1  0
 20 82  1  0
 21 83  1  0
 22 84  1  0
 22 85  1  0
 23 86  1  0
 26 87  1  0
 26 88  1  0
 27 89  1  0
 27 90  1  0
 27 91  1  0
 42 92  1  0
 42 93  1  0
 43 94  1  0
 43 95  1  0
 43 96  1  0
 55 97  1  0
 55 98  1  0
 56 99  1  0
 56100  1  0
 56101  1  0
 57102  1  0
 57103  1  0
 58104  1  0
 58105  1  0
 58106  1  0
 59107  1  0
 64108  1  0
 66109  1  0
 66110  1  0
 66111  1  0
 67112  1  0
 68113  1  0
M  END

