
     RDKit          3D

180202  0  0  0  0  0  0  0  0999 V2000
    8.0546    0.5249    0.2073 C   0  0  0  0  0  0  0  0  0  0  0  0
    7.9653   -0.8246    0.1091 C   0  0  0  0  0  0  0  0  0  0  0  0
    6.8612   -1.5646   -0.5237 C   0  0  0  0  0  0  0  0  0  0  0  0
    5.9271   -1.0806   -1.2095 O   0  0  0  0  0  0  0  0  0  0  0  0
    6.9727   -2.9614   -0.1488 C   0  0  0  0  0  0  0  0  0  0  0  0
    6.1257   -4.0237   -0.5603 C   0  0  0  0  0  0  0  0  0  0  0  0
    6.4896   -5.2588   -0.0614 C   0  0  0  0  0  0  0  0  0  0  0  0
    7.6102   -5.4475    0.8031 C   0  0  0  0  0  0  0  0  0  0  0  0
    8.4268   -4.4167    1.2233 C   0  0  0  0  0  0  0  0  0  0  0  0
    8.0870   -3.1331    0.7079 C   0  0  0  0  0  0  0  0  0  0  0  0
    8.7877   -1.8239    0.8597 C   0  0  0  0  0  0  0  0  0  0  0  0
   10.0179   -1.6128    1.4112 C   0  0  0  0  0  0  0  0  0  0  0  0
   10.7134   -2.6042    2.1891 C   0  0  0  0  0  0  0  0  0  0  0  0
   11.2900   -3.3899    2.8178 N   0  0  0  0  0  0  0  0  0  0  0  0
   10.7795   -0.4201    1.1506 C   0  0  0  0  0  0  0  0  0  0  0  0
   11.3959    0.5375    0.9468 N   0  0  0  0  0  0  0  0  0  0  0  0
    7.3479   -6.9215    0.8537 C   0  0  0  0  0  0  0  0  0  0  0  0
    6.7212   -7.5148    2.1533 C   0  0  0  0  0  0  0  0  0  0  0  0
    5.8355   -6.4845    2.8158 C   0  0  0  0  0  0  0  0  0  0  0  0
    4.7848   -6.3170    2.0129 C   0  0  0  0  0  0  0  0  0  0  0  0
    4.9921   -7.2312    0.8305 C   0  0  0  0  0  0  0  0  0  0  0  0
    5.6520   -8.3994    1.5485 C   0  0  0  0  0  0  0  0  0  0  0  0
    6.1915   -6.7352   -0.0282 C   0  0  0  0  0  0  0  0  0  0  0  0
    7.2128    1.4797   -0.5329 C   0  0  0  0  0  0  0  0  0  0  0  0
    6.9722    1.4880   -1.9142 C   0  0  0  0  0  0  0  0  0  0  0  0
    6.1093    2.5252   -2.2580 C   0  0  0  0  0  0  0  0  0  0  0  0
    5.1835    2.8307   -3.6240 S   0  0  0  0  0  0  0  0  0  0  0  0
    4.2634    4.0438   -2.8602 C   0  0  0  0  0  0  0  0  0  0  0  0
    2.8383    4.2469   -2.9557 C   0  0  0  0  0  0  0  0  0  0  0  0
    2.3504    4.3842   -1.6517 C   0  0  0  0  0  0  0  0  0  0  0  0
    3.4785    4.6853   -0.6739 C   0  0  0  0  0  0  0  0  0  0  0  0
    3.6971    6.2012   -0.5348 C   0  0  0  0  0  0  0  0  0  0  0  0
    4.9585    6.6977   -0.1378 C   0  0  0  0  0  0  0  0  0  0  0  0
    5.2251    8.0722   -0.1561 C   0  0  0  0  0  0  0  0  0  0  0  0
    4.2304    8.9791   -0.5365 C   0  0  0  0  0  0  0  0  0  0  0  0
    4.5471   10.4527   -0.6492 C   0  0  0  0  0  0  0  0  0  0  0  0
    5.1313   10.7779   -2.0217 C   0  0  0  0  0  0  0  0  0  0  0  0
    2.9592    8.5047   -0.8695 C   0  0  0  0  0  0  0  0  0  0  0  0
    2.6837    7.1357   -0.8408 C   0  0  0  0  0  0  0  0  0  0  0  0
    3.2988    3.9460    0.6632 C   0  0  0  0  0  0  0  0  0  0  0  0
    3.2723    4.6219    1.9004 C   0  0  0  0  0  0  0  0  0  0  0  0
    3.1283    3.9189    3.0945 C   0  0  0  0  0  0  0  0  0  0  0  0
    3.0219    2.5218    3.0926 C   0  0  0  0  0  0  0  0  0  0  0  0
    2.8547    1.7689    4.3898 C   0  0  0  0  0  0  0  0  0  0  0  0
    1.3837    1.4529    4.6432 C   0  0  0  0  0  0  0  0  0  0  0  0
    3.0174    1.8386    1.8676 C   0  0  0  0  0  0  0  0  0  0  0  0
    3.1308    2.5447    0.6702 C   0  0  0  0  0  0  0  0  0  0  0  0
    4.6146    4.1446   -1.5241 C   0  0  0  0  0  0  0  0  0  0  0  0
    5.6875    3.3041   -1.2127 C   0  0  0  0  0  0  0  0  0  0  0  0
    6.3771    2.7602    0.2169 S   0  0  0  0  0  0  0  0  0  0  0  0
    1.0078    4.0819   -1.3689 C   0  0  0  0  0  0  0  0  0  0  0  0
    0.1859    3.8102   -2.4674 C   0  0  0  0  0  0  0  0  0  0  0  0
   -1.1060    3.3442   -2.5372 C   0  0  0  0  0  0  0  0  0  0  0  0
   -1.8492    2.6049   -1.6024 C   0  0  0  0  0  0  0  0  0  0  0  0
   -3.0238    1.9864   -2.0710 C   0  0  0  0  0  0  0  0  0  0  0  0
   -3.4933    2.2749   -3.3609 C   0  0  0  0  0  0  0  0  0  0  0  0
   -2.7155    2.9412   -4.3124 C   0  0  0  0  0  0  0  0  0  0  0  0
   -1.4590    3.3864   -3.8801 C   0  0  0  0  0  0  0  0  0  0  0  0
   -0.3894    3.7205   -4.6520 N   0  0  0  0  0  0  0  0  0  0  0  0
   -0.3361    3.7759   -6.1159 C   0  0  0  0  0  0  0  0  0  0  0  0
   -0.7290    5.1647   -6.6109 C   0  0  0  0  0  0  0  0  0  0  0  0
    0.6227    3.9387   -3.7764 C   0  0  0  0  0  0  0  0  0  0  0  0
    1.9919    4.0732   -4.0542 C   0  0  0  0  0  0  0  0  0  0  0  0
   -4.7222    1.5561   -3.5260 C   0  0  0  0  0  0  0  0  0  0  0  0
   -5.9812    1.4868   -4.6659 S   0  0  0  0  0  0  0  0  0  0  0  0
   -6.8131    0.3521   -3.7082 C   0  0  0  0  0  0  0  0  0  0  0  0
   -8.0184   -0.3311   -3.8592 C   0  0  0  0  0  0  0  0  0  0  0  0
   -8.2438   -1.1759   -2.7626 C   0  0  0  0  0  0  0  0  0  0  0  0
   -6.9251   -1.0981   -1.6789 S   0  0  0  0  0  0  0  0  0  0  0  0
   -6.1232    0.0639   -2.5631 C   0  0  0  0  0  0  0  0  0  0  0  0
   -4.9329    0.7598   -2.4399 C   0  0  0  0  0  0  0  0  0  0  0  0
   -3.7453    0.7538   -1.5004 C   0  0  0  0  0  0  0  0  0  0  0  0
   -2.8159   -0.4609   -1.7348 C   0  0  0  0  0  0  0  0  0  0  0  0
   -1.6430   -0.5925   -0.9540 C   0  0  0  0  0  0  0  0  0  0  0  0
   -0.7423   -1.6342   -1.1806 C   0  0  0  0  0  0  0  0  0  0  0  0
   -0.9980   -2.5843   -2.1766 C   0  0  0  0  0  0  0  0  0  0  0  0
   -0.0057   -3.6851   -2.4709 C   0  0  0  0  0  0  0  0  0  0  0  0
    0.9184   -3.3050   -3.6225 C   0  0  0  0  0  0  0  0  0  0  0  0
   -2.1631   -2.4780   -2.9482 C   0  0  0  0  0  0  0  0  0  0  0  0
   -3.0621   -1.4317   -2.7369 C   0  0  0  0  0  0  0  0  0  0  0  0
   -4.2040    0.8252   -0.0432 C   0  0  0  0  0  0  0  0  0  0  0  0
   -4.6024   -0.3648    0.5995 C   0  0  0  0  0  0  0  0  0  0  0  0
   -4.9504   -0.3716    1.9457 C   0  0  0  0  0  0  0  0  0  0  0  0
   -4.9153    0.8196    2.6896 C   0  0  0  0  0  0  0  0  0  0  0  0
   -5.1298    0.7709    4.1837 C   0  0  0  0  0  0  0  0  0  0  0  0
   -3.7908    0.6145    4.9090 C   0  0  0  0  0  0  0  0  0  0  0  0
   -4.5747    2.0181    2.0485 C   0  0  0  0  0  0  0  0  0  0  0  0
   -4.2441    2.0292    0.6857 C   0  0  0  0  0  0  0  0  0  0  0  0
   -9.3695   -2.1309   -2.6758 C   0  0  0  0  0  0  0  0  0  0  0  0
   -9.6683   -2.8308   -1.5658 C   0  0  0  0  0  0  0  0  0  0  0  0
  -10.1623   -4.2023   -1.6229 C   0  0  0  0  0  0  0  0  0  0  0  0
  -10.5162   -4.8182   -2.6594 O   0  0  0  0  0  0  0  0  0  0  0  0
   -9.9200   -4.8267   -0.3412 C   0  0  0  0  0  0  0  0  0  0  0  0
   -9.9552   -6.2123   -0.0596 C   0  0  0  0  0  0  0  0  0  0  0  0
   -9.3968   -6.5451    1.1554 C   0  0  0  0  0  0  0  0  0  0  0  0
   -8.8150   -5.5872    2.0554 C   0  0  0  0  0  0  0  0  0  0  0  0
   -8.7758   -4.2269    1.7860 C   0  0  0  0  0  0  0  0  0  0  0  0
   -9.3567   -3.8650    0.5431 C   0  0  0  0  0  0  0  0  0  0  0  0
   -9.3230   -2.5528   -0.1383 C   0  0  0  0  0  0  0  0  0  0  0  0
   -9.3994   -1.3442    0.4651 C   0  0  0  0  0  0  0  0  0  0  0  0
   -9.7420   -0.1471   -0.2638 C   0  0  0  0  0  0  0  0  0  0  0  0
  -10.0057    0.8117   -0.8579 N   0  0  0  0  0  0  0  0  0  0  0  0
   -9.3525   -1.2002    1.8936 C   0  0  0  0  0  0  0  0  0  0  0  0
   -9.3083   -1.0778    3.0448 N   0  0  0  0  0  0  0  0  0  0  0  0
   -8.3665   -6.7044    2.9660 C   0  0  0  0  0  0  0  0  0  0  0  0
   -6.8401   -7.0365    2.9357 C   0  0  0  0  0  0  0  0  0  0  0  0
   -6.6947   -8.3995    3.5773 C   0  0  0  0  0  0  0  0  0  0  0  0
   -7.2277   -9.2824    2.7186 C   0  0  0  0  0  0  0  0  0  0  0  0
   -7.7037   -8.4864    1.5309 C   0  0  0  0  0  0  0  0  0  0  0  0
   -6.6038   -7.4383    1.4896 C   0  0  0  0  0  0  0  0  0  0  0  0
   -8.9440   -7.6803    2.0327 C   0  0  0  0  0  0  0  0  0  0  0  0
    8.7182    0.9658    0.9397 H   0  0  0  0  0  0  0  0  0  0  0  0
    5.2763   -3.8825   -1.2152 H   0  0  0  0  0  0  0  0  0  0  0  0
    9.2444   -4.6185    1.8879 H   0  0  0  0  0  0  0  0  0  0  0  0
    8.1552   -7.5444    0.3986 H   0  0  0  0  0  0  0  0  0  0  0  0
    7.4384   -8.0179    2.8354 H   0  0  0  0  0  0  0  0  0  0  0  0
    5.9595   -6.0450    3.7994 H   0  0  0  0  0  0  0  0  0  0  0  0
    3.9042   -5.7285    2.2376 H   0  0  0  0  0  0  0  0  0  0  0  0
    4.0747   -7.4804    0.2589 H   0  0  0  0  0  0  0  0  0  0  0  0
    6.0479   -9.1804    0.8577 H   0  0  0  0  0  0  0  0  0  0  0  0
    4.9958   -8.8796    2.3108 H   0  0  0  0  0  0  0  0  0  0  0  0
    6.3000   -7.2293   -1.0214 H   0  0  0  0  0  0  0  0  0  0  0  0
    7.3464    0.7515   -2.6098 H   0  0  0  0  0  0  0  0  0  0  0  0
    5.7492    6.0158    0.1542 H   0  0  0  0  0  0  0  0  0  0  0  0
    6.2087    8.4244    0.1247 H   0  0  0  0  0  0  0  0  0  0  0  0
    3.6308   11.0589   -0.4906 H   0  0  0  0  0  0  0  0  0  0  0  0
    5.2780   10.7443    0.1364 H   0  0  0  0  0  0  0  0  0  0  0  0
    6.0749   10.2155   -2.1836 H   0  0  0  0  0  0  0  0  0  0  0  0
    5.3421   11.8669   -2.0870 H   0  0  0  0  0  0  0  0  0  0  0  0
    4.4058   10.5090   -2.8221 H   0  0  0  0  0  0  0  0  0  0  0  0
    2.1802    9.2023   -1.1652 H   0  0  0  0  0  0  0  0  0  0  0  0
    1.6825    6.8141   -1.1016 H   0  0  0  0  0  0  0  0  0  0  0  0
    3.3528    5.6971    1.9521 H   0  0  0  0  0  0  0  0  0  0  0  0
    3.0955    4.4592    4.0317 H   0  0  0  0  0  0  0  0  0  0  0  0
    3.2469    2.3649    5.2416 H   0  0  0  0  0  0  0  0  0  0  0  0
    3.4345    0.8217    4.3537 H   0  0  0  0  0  0  0  0  0  0  0  0
    0.9865    0.7964    3.8418 H   0  0  0  0  0  0  0  0  0  0  0  0
    0.7795    2.3807    4.6876 H   0  0  0  0  0  0  0  0  0  0  0  0
    1.2839    0.9248    5.6174 H   0  0  0  0  0  0  0  0  0  0  0  0
    2.9169    0.7627    1.8447 H   0  0  0  0  0  0  0  0  0  0  0  0
    3.1115    1.9940   -0.2641 H   0  0  0  0  0  0  0  0  0  0  0  0
    0.6347    4.0408   -0.3538 H   0  0  0  0  0  0  0  0  0  0  0  0
   -1.4593    2.4050   -0.6172 H   0  0  0  0  0  0  0  0  0  0  0  0
   -3.0321    2.9998   -5.3438 H   0  0  0  0  0  0  0  0  0  0  0  0
   -1.0188    3.0168   -6.5532 H   0  0  0  0  0  0  0  0  0  0  0  0
    0.6769    3.5339   -6.4784 H   0  0  0  0  0  0  0  0  0  0  0  0
    0.0264    5.9127   -6.2734 H   0  0  0  0  0  0  0  0  0  0  0  0
   -1.7140    5.4435   -6.1858 H   0  0  0  0  0  0  0  0  0  0  0  0
   -0.8062    5.1594   -7.7167 H   0  0  0  0  0  0  0  0  0  0  0  0
    2.3947    3.9724   -5.0562 H   0  0  0  0  0  0  0  0  0  0  0  0
   -8.6701   -0.2273   -4.7123 H   0  0  0  0  0  0  0  0  0  0  0  0
   -1.4284    0.1171   -0.1682 H   0  0  0  0  0  0  0  0  0  0  0  0
    0.1495   -1.7114   -0.5735 H   0  0  0  0  0  0  0  0  0  0  0  0
   -0.5496   -4.6202   -2.7363 H   0  0  0  0  0  0  0  0  0  0  0  0
    0.6067   -3.9113   -1.5687 H   0  0  0  0  0  0  0  0  0  0  0  0
    1.4895   -2.3840   -3.3726 H   0  0  0  0  0  0  0  0  0  0  0  0
    0.3253   -3.1223   -4.5459 H   0  0  0  0  0  0  0  0  0  0  0  0
    1.6257   -4.1379   -3.8117 H   0  0  0  0  0  0  0  0  0  0  0  0
   -2.3640   -3.1936   -3.7324 H   0  0  0  0  0  0  0  0  0  0  0  0
   -3.9313   -1.3837   -3.3762 H   0  0  0  0  0  0  0  0  0  0  0  0
   -4.6134   -1.3045    0.0600 H   0  0  0  0  0  0  0  0  0  0  0  0
   -5.1988   -1.3125    2.4208 H   0  0  0  0  0  0  0  0  0  0  0  0
   -5.6345    1.6985    4.5301 H   0  0  0  0  0  0  0  0  0  0  0  0
   -5.7795   -0.0893    4.4481 H   0  0  0  0  0  0  0  0  0  0  0  0
   -3.1496    1.5037    4.7285 H   0  0  0  0  0  0  0  0  0  0  0  0
   -3.2616   -0.2906    4.5490 H   0  0  0  0  0  0  0  0  0  0  0  0
   -3.9658    0.5197    5.9987 H   0  0  0  0  0  0  0  0  0  0  0  0
   -4.5493    2.9423    2.6067 H   0  0  0  0  0  0  0  0  0  0  0  0
   -3.9802    2.9731    0.2230 H   0  0  0  0  0  0  0  0  0  0  0  0
   -9.8356   -2.4145   -3.6105 H   0  0  0  0  0  0  0  0  0  0  0  0
  -10.2600   -6.9513   -0.7798 H   0  0  0  0  0  0  0  0  0  0  0  0
   -8.2508   -3.5373    2.4318 H   0  0  0  0  0  0  0  0  0  0  0  0
   -8.8418   -6.6921    3.9701 H   0  0  0  0  0  0  0  0  0  0  0  0
   -6.1699   -6.2524    3.3424 H   0  0  0  0  0  0  0  0  0  0  0  0
   -6.1727   -8.6413    4.4936 H   0  0  0  0  0  0  0  0  0  0  0  0
   -7.2125  -10.3613    2.8223 H   0  0  0  0  0  0  0  0  0  0  0  0
   -7.8502   -9.0653    0.5975 H   0  0  0  0  0  0  0  0  0  0  0  0
   -5.5864   -7.8634    1.3214 H   0  0  0  0  0  0  0  0  0  0  0  0
   -6.7866   -6.6232    0.7544 H   0  0  0  0  0  0  0  0  0  0  0  0
   -9.7744   -8.2941    2.4530 H   0  0  0  0  0  0  0  0  0  0  0  0
  1  2  2  3
  2  3  1  0
  3  4  2  0
  3  5  1  0
  5  6  2  0
  6  7  1  0
  7  8  2  0
  8  9  1  0
  9 10  2  0
 10 11  1  0
 11 12  2  3
 12 13  1  0
 13 14  3  0
 12 15  1  0
 15 16  3  0
  8 17  1  0
 17 18  1  0
 18 19  1  0
 19 20  2  0
 20 21  1  0
 21 22  1  0
 21 23  1  0
  1 24  1  0
 24 25  2  0
 25 26  1  0
 26 27  1  0
 27 28  1  0
 28 29  1  0
 29 30  2  0
 30 31  1  0
 31 32  1  0
 32 33  2  0
 33 34  1  0
 34 35  2  0
 35 36  1  0
 36 37  1  0
 35 38  1  0
 38 39  2  0
 31 40  1  0
 40 41  2  0
 41 42  1  0
 42 43  2  0
 43 44  1  0
 44 45  1  0
 43 46  1  0
 46 47  2  0
 31 48  1  0
 48 49  1  0
 49 50  1  0
 30 51  1  0
 51 52  2  0
 52 53  1  0
 53 54  2  0
 54 55  1  0
 55 56  2  0
 56 57  1  0
 57 58  2  0
 58 59  1  0
 59 60  1  0
 60 61  1  0
 59 62  1  0
 62 63  2  0
 56 64  1  0
 64 65  1  0
 65 66  1  0
 66 67  1  0
 67 68  2  0
 68 69  1  0
 69 70  1  0
 70 71  1  0
 71 72  1  0
 72 73  1  0
 73 74  2  0
 74 75  1  0
 75 76  2  0
 76 77  1  0
 77 78  1  0
 76 79  1  0
 79 80  2  0
 72 81  1  0
 81 82  2  0
 82 83  1  0
 83 84  2  0
 84 85  1  0
 85 86  1  0
 84 87  1  0
 87 88  2  0
 68 89  1  0
 89 90  2  3
 90 91  1  0
 91 92  2  0
 91 93  1  0
 93 94  2  0
 94 95  1  0
 95 96  2  0
 96 97  1  0
 97 98  2  0
 98 99  1  0
 99100  2  3
100101  1  0
101102  3  0
100103  1  0
103104  3  0
 96105  1  0
105106  1  0
106107  1  0
107108  2  0
108109  1  0
109110  1  0
109111  1  0
 11  2  1  0
 23 17  1  0
 50 24  1  0
 62 52  1  0
 71 64  2  0
 80 73  1  0
 88 81  1  0
 99 90  1  0
111105  1  0
 10  5  1  0
 22 18  1  0
 49 26  2  0
 58 53  1  0
 70 66  2  0
 98 93  1  0
110106  1  0
 23  7  1  0
 48 28  2  0
 72 55  1  0
111 95  1  0
 63 29  1  0
 39 32  1  0
 47 40  1  0
  1112  1  0
  6113  1  0
  9114  1  0
 17115  1  0
 18116  1  0
 19117  1  0
 20118  1  0
 21119  1  0
 22120  1  0
 22121  1  0
 23122  1  0
 25123  1  0
 33124  1  0
 34125  1  0
 36126  1  0
 36127  1  0
 37128  1  0
 37129  1  0
 37130  1  0
 38131  1  0
 39132  1  0
 41133  1  0
 42134  1  0
 44135  1  0
 44136  1  0
 45137  1  0
 45138  1  0
 45139  1  0
 46140  1  0
 47141  1  0
 51142  1  0
 54143  1  0
 57144  1  0
 60145  1  0
 60146  1  0
 61147  1  0
 61148  1  0
 61149  1  0
 63150  1  0
 67151  1  0
 74152  1  0
 75153  1  0
 77154  1  0
 77155  1  0
 78156  1  0
 78157  1  0
 78158  1  0
 79159  1  0
 80160  1  0
 82161  1  0
 83162  1  0
 85163  1  0
 85164  1  0
 86165  1  0
 86166  1  0
 86167  1  0
 87168  1  0
 88169  1  0
 89170  1  0
 94171  1  0
 97172  1  0
105173  1  0
106174  1  0
107175  1  0
108176  1  0
109177  1  0
110178  1  0
110179  1  0
111180  1  0
M  END

