
     RDKit          3D

 98112  0  0  0  0  0  0  0  0999 V2000
   -5.1725   -3.2345    3.5544 C   0  0  0  0  0  0  0  0  0  0  0  0
   -4.6971   -3.4714    2.2364 C   0  0  0  0  0  0  0  0  0  0  0  0
   -4.0253   -2.4639    1.5143 C   0  0  0  0  0  0  0  0  0  0  0  0
   -3.6927   -1.2905    1.7843 O   0  0  0  0  0  0  0  0  0  0  0  0
   -3.6968   -3.0462    0.1106 C   0  0  0  0  0  0  0  0  0  0  0  0
   -3.0946   -2.4194   -0.9010 C   0  0  0  0  0  0  0  0  0  0  0  0
   -2.9125   -3.1313   -2.1005 C   0  0  0  0  0  0  0  0  0  0  0  0
   -3.3995   -4.4318   -2.0983 C   0  0  0  0  0  0  0  0  0  0  0  0
   -4.0151   -5.0598   -1.0749 C   0  0  0  0  0  0  0  0  0  0  0  0
   -4.1940   -4.3606    0.1250 C   0  0  0  0  0  0  0  0  0  0  0  0
   -4.8197   -4.6171    1.4707 C   0  0  0  0  0  0  0  0  0  0  0  0
   -5.5907   -5.6703    1.6600 C   0  0  0  0  0  0  0  0  0  0  0  0
   -5.6332   -6.7712    0.8569 C   0  0  0  0  0  0  0  0  0  0  0  0
   -5.6576   -7.8016    0.0848 N   0  0  0  0  0  0  0  0  0  0  0  0
   -6.7061   -5.5661    2.6729 C   0  0  0  0  0  0  0  0  0  0  0  0
   -7.5178   -5.4712    3.4095 N   0  0  0  0  0  0  0  0  0  0  0  0
   -3.0558   -4.6792   -3.5614 C   0  0  0  0  0  0  0  0  0  0  0  0
   -1.9408   -5.6291   -3.8136 C   0  0  0  0  0  0  0  0  0  0  0  0
   -1.1187   -5.6956   -2.5805 C   0  0  0  0  0  0  0  0  0  0  0  0
   -0.5138   -4.4897   -2.5067 C   0  0  0  0  0  0  0  0  0  0  0  0
   -0.9524   -3.6279   -3.5983 C   0  0  0  0  0  0  0  0  0  0  0  0
   -1.0357   -4.7631   -4.6820 C   0  0  0  0  0  0  0  0  0  0  0  0
   -2.4286   -3.3078   -3.4885 C   0  0  0  0  0  0  0  0  0  0  0  0
   -4.9685   -1.9397    3.9826 C   0  0  0  0  0  0  0  0  0  0  0  0
   -5.4909   -0.6926    4.0697 C   0  0  0  0  0  0  0  0  0  0  0  0
   -4.8649    0.3894    4.3277 C   0  0  0  0  0  0  0  0  0  0  0  0
   -5.2960    2.1701    4.0900 S   0  0  0  0  0  0  0  0  0  0  0  0
   -3.7404    2.8236    4.3533 C   0  0  0  0  0  0  0  0  0  0  0  0
   -2.9230    3.9993    4.1228 C   0  0  0  0  0  0  0  0  0  0  0  0
   -3.2751    5.1683    3.5136 C   0  0  0  0  0  0  0  0  0  0  0  0
   -2.2349    5.9237    2.9612 C   0  0  0  0  0  0  0  0  0  0  0  0
   -2.5941    7.0598    2.4000 N   0  0  0  0  0  0  0  0  0  0  0  0
   -4.2716    7.1570    2.5697 S   0  0  0  0  0  0  0  0  0  0  0  0
   -4.4747    5.7225    3.3744 N   0  0  0  0  0  0  0  0  0  0  0  0
   -0.9236    5.3753    3.0590 C   0  0  0  0  0  0  0  0  0  0  0  0
    0.1459    5.6933    2.2051 C   0  0  0  0  0  0  0  0  0  0  0  0
    1.1136    4.7221    2.3463 C   0  0  0  0  0  0  0  0  0  0  0  0
    0.6507    3.8189    3.2767 N   0  0  0  0  0  0  0  0  0  0  0  0
    1.4562    2.6995    3.6618 C   0  0  0  0  0  0  0  0  0  0  0  0
    2.3176    3.0795    4.8788 C   0  0  0  0  0  0  0  0  0  0  0  0
   -0.5851    4.2488    3.6726 C   0  0  0  0  0  0  0  0  0  0  0  0
   -1.6711    3.4967    4.2869 C   0  0  0  0  0  0  0  0  0  0  0  0
   -1.6769    2.2210    4.5946 N   0  0  0  0  0  0  0  0  0  0  0  0
   -2.9829    1.7694    4.6110 C   0  0  0  0  0  0  0  0  0  0  0  0
   -3.6079    0.6158    4.5816 C   0  0  0  0  0  0  0  0  0  0  0  0
   -3.0048   -1.3501    4.4389 Se  0  0  0  0  0  2  0  0  0  0  0  0
   -0.6464    1.4147    5.2783 C   0  0  0  0  0  0  0  0  0  0  0  0
   -1.2911    1.0363    6.7161 C   0  0  0  0  0  0  0  0  0  0  0  0
    2.0340    4.8875    1.4498 C   0  0  0  0  0  0  0  0  0  0  0  0
    2.2299    5.7052    0.5312 C   0  0  0  0  0  0  0  0  0  0  0  0
    0.7215    6.6530    0.8823 S   0  0  0  0  0  0  0  0  0  0  0  0
    3.1979    5.7068   -0.4606 C   0  0  0  0  0  0  0  0  0  0  0  0
    4.1145    4.8023   -0.6048 C   0  0  0  0  0  0  0  0  0  0  0  0
    3.6783    3.5838    0.9147 Se  0  0  0  0  0  2  0  0  0  0  0  0
    5.2433    4.0770   -1.2796 C   0  0  0  0  0  0  0  0  0  0  0  0
    5.2164    3.3734   -2.1469 C   0  0  0  0  0  0  0  0  0  0  0  0
    4.2891    2.6757   -3.2425 C   0  0  0  0  0  0  0  0  0  0  0  0
    3.0283    2.8695   -3.1020 O   0  0  0  0  0  0  0  0  0  0  0  0
    5.0395    1.9662   -4.1868 C   0  0  0  0  0  0  0  0  0  0  0  0
    4.4730    1.3303   -5.3435 C   0  0  0  0  0  0  0  0  0  0  0  0
    5.3742    0.7658   -6.2449 C   0  0  0  0  0  0  0  0  0  0  0  0
    4.6932   -0.0145   -7.7156 Cl  0  0  0  0  0  0  0  0  0  0  0  0
    6.6609    0.8247   -6.0248 C   0  0  0  0  0  0  0  0  0  0  0  0
    7.2220    1.4559   -4.8708 C   0  0  0  0  0  0  0  0  0  0  0  0
    6.2807    2.0339   -3.9379 C   0  0  0  0  0  0  0  0  0  0  0  0
    6.5934    2.8220   -2.7358 C   0  0  0  0  0  0  0  0  0  0  0  0
    7.7257    3.0458   -2.2734 C   0  0  0  0  0  0  0  0  0  0  0  0
    8.5108    3.6885   -1.3319 C   0  0  0  0  0  0  0  0  0  0  0  0
    9.1470    4.2095   -0.5658 N   0  0  0  0  0  0  0  0  0  0  0  0
    8.6585    1.7364   -2.6318 C   0  0  0  0  0  0  0  0  0  0  0  0
    9.3105    0.8033   -2.9037 N   0  0  0  0  0  0  0  0  0  0  0  0
   -5.6263   -3.9782    4.1274 H   0  0  0  0  0  0  0  0  0  0  0  0
   -2.6957   -1.4169   -0.8891 H   0  0  0  0  0  0  0  0  0  0  0  0
   -4.3659   -6.0606   -1.0863 H   0  0  0  0  0  0  0  0  0  0  0  0
   -3.9441   -4.7492   -4.1942 H   0  0  0  0  0  0  0  0  0  0  0  0
   -2.1936   -6.5984   -4.2495 H   0  0  0  0  0  0  0  0  0  0  0  0
   -1.0629   -6.5538   -1.9540 H   0  0  0  0  0  0  0  0  0  0  0  0
    0.2014   -4.1965   -1.7703 H   0  0  0  0  0  0  0  0  0  0  0  0
   -0.3287   -2.8015   -3.9067 H   0  0  0  0  0  0  0  0  0  0  0  0
   -0.0295   -5.2081   -4.8107 H   0  0  0  0  0  0  0  0  0  0  0  0
   -1.5082   -4.3914   -5.5963 H   0  0  0  0  0  0  0  0  0  0  0  0
   -2.7412   -2.6311   -4.2718 H   0  0  0  0  0  0  0  0  0  0  0  0
   -6.5959   -0.7323    3.7160 H   0  0  0  0  0  0  0  0  0  0  0  0
    2.3359    2.5897    2.8705 H   0  0  0  0  0  0  0  0  0  0  0  0
    1.0716    1.7118    3.5732 H   0  0  0  0  0  0  0  0  0  0  0  0
    1.7658    3.8062    5.5360 H   0  0  0  0  0  0  0  0  0  0  0  0
    3.2269    3.6755    4.5942 H   0  0  0  0  0  0  0  0  0  0  0  0
    2.6090    2.1771    5.4003 H   0  0  0  0  0  0  0  0  0  0  0  0
    0.1734    2.0114    5.6617 H   0  0  0  0  0  0  0  0  0  0  0  0
   -0.3917    0.5026    4.8457 H   0  0  0  0  0  0  0  0  0  0  0  0
   -0.7372    0.1300    7.0986 H   0  0  0  0  0  0  0  0  0  0  0  0
   -1.1329    1.8664    7.4132 H   0  0  0  0  0  0  0  0  0  0  0  0
   -2.3630    0.8442    6.6031 H   0  0  0  0  0  0  0  0  0  0  0  0
    3.2272    6.5364   -1.2380 H   0  0  0  0  0  0  0  0  0  0  0  0
    6.1835    4.4074   -0.7078 H   0  0  0  0  0  0  0  0  0  0  0  0
    3.4514    1.2730   -5.5094 H   0  0  0  0  0  0  0  0  0  0  0  0
    7.4119    0.3877   -6.7305 H   0  0  0  0  0  0  0  0  0  0  0  0
    8.2282    1.5244   -4.8279 H   0  0  0  0  0  0  0  0  0  0  0  0
  1  2  2  3
  2  3  1  0
  3  4  2  0
  3  5  1  0
  5  6  2  0
  6  7  1  0
  7  8  2  0
  8  9  1  0
  9 10  2  0
 10 11  1  0
 11 12  2  3
 12 13  1  0
 13 14  3  0
 12 15  1  0
 15 16  3  0
  8 17  1  0
 17 18  1  0
 18 19  1  0
 19 20  2  0
 20 21  1  0
 21 22  1  0
 21 23  1  0
  1 24  1  0
 24 25  2  0
 25 26  1  0
 26 27  1  0
 27 28  1  0
 28 29  1  0
 29 30  1  0
 30 31  1  0
 31 32  2  0
 32 33  1  0
 33 34  1  0
 31 35  1  0
 35 36  1  0
 36 37  2  0
 37 38  1  0
 38 39  1  0
 39 40  1  0
 38 41  1  0
 41 42  1  0
 42 43  1  0
 43 44  1  0
 44 45  1  0
 45 46  1  0
 43 47  1  0
 47 48  1  0
 37 49  1  0
 49 50  2  0
 50 51  1  0
 50 52  1  0
 52 53  2  0
 53 54  1  0
 53 55  1  0
 55 56  2  3
 56 57  1  0
 57 58  2  0
 57 59  1  0
 59 60  2  0
 60 61  1  0
 61 62  1  0
 61 63  2  0
 63 64  1  0
 64 65  2  0
 65 66  1  0
 66 67  2  3
 67 68  1  0
 68 69  3  0
 67 70  1  0
 70 71  3  0
 11  2  1  0
 23 17  1  0
 46 24  1  0
 54 49  1  0
 66 56  1  0
 10  5  1  0
 22 18  1  0
 45 26  2  0
 65 59  1  0
 23  7  1  0
 44 28  2  0
 42 29  2  0
 34 30  2  0
 41 35  2  0
 51 36  1  0
  1 72  1  0
  6 73  1  0
  9 74  1  0
 17 75  1  0
 18 76  1  0
 19 77  1  0
 20 78  1  0
 21 79  1  0
 22 80  1  0
 22 81  1  0
 23 82  1  0
 25 83  1  0
 39 84  1  0
 39 85  1  0
 40 86  1  0
 40 87  1  0
 40 88  1  0
 47 89  1  0
 47 90  1  0
 48 91  1  0
 48 92  1  0
 48 93  1  0
 52 94  1  0
 55 95  1  0
 60 96  1  0
 63 97  1  0
 64 98  1  0
M  END

