
     RDKit          3D

107120  0  0  0  0  0  0  0  0999 V2000
   -3.5169   -2.4717   -4.1313 C   0  0  0  0  0  0  0  0  0  0  0  0
   -3.3748   -2.1347   -5.4273 C   0  0  0  0  0  0  0  0  0  0  0  0
   -2.7807   -0.8863   -5.9225 C   0  0  0  0  0  0  0  0  0  0  0  0
   -2.0502   -0.0943   -5.2702 O   0  0  0  0  0  0  0  0  0  0  0  0
   -3.1442   -0.7189   -7.3107 C   0  0  0  0  0  0  0  0  0  0  0  0
   -2.8475    0.3896   -8.1375 C   0  0  0  0  0  0  0  0  0  0  0  0
   -3.3297    0.2721   -9.4261 C   0  0  0  0  0  0  0  0  0  0  0  0
   -4.0621   -0.8700   -9.8837 C   0  0  0  0  0  0  0  0  0  0  0  0
   -4.3678   -1.9536   -9.0768 C   0  0  0  0  0  0  0  0  0  0  0  0
   -3.8779   -1.8563   -7.7419 C   0  0  0  0  0  0  0  0  0  0  0  0
   -3.9729   -2.8288   -6.6105 C   0  0  0  0  0  0  0  0  0  0  0  0
   -4.3205   -4.1424   -6.6935 C   0  0  0  0  0  0  0  0  0  0  0  0
   -4.0444   -5.0797   -5.6343 C   0  0  0  0  0  0  0  0  0  0  0  0
   -3.8204   -5.8406   -4.7917 N   0  0  0  0  0  0  0  0  0  0  0  0
   -4.9419   -4.7184   -7.8568 C   0  0  0  0  0  0  0  0  0  0  0  0
   -5.4579   -5.1985   -8.7745 N   0  0  0  0  0  0  0  0  0  0  0  0
   -4.1963   -0.2600  -11.2453 C   0  0  0  0  0  0  0  0  0  0  0  0
   -5.5968    0.3118  -11.6133 C   0  0  0  0  0  0  0  0  0  0  0  0
   -5.3773    1.1991  -12.8155 C   0  0  0  0  0  0  0  0  0  0  0  0
   -4.7087    2.2740  -12.3783 C   0  0  0  0  0  0  0  0  0  0  0  0
   -4.4945    2.0719  -10.8977 C   0  0  0  0  0  0  0  0  0  0  0  0
   -5.8122    1.3904  -10.5636 C   0  0  0  0  0  0  0  0  0  0  0  0
   -3.4566    0.9162  -10.7731 C   0  0  0  0  0  0  0  0  0  0  0  0
   -2.9464   -1.6870   -3.0272 C   0  0  0  0  0  0  0  0  0  0  0  0
   -3.5101   -0.1409   -2.5644 S   0  0  0  0  0  0  0  0  0  0  0  0
   -2.3179    0.0196   -1.4059 C   0  0  0  0  0  0  0  0  0  0  0  0
   -1.9469    0.8915   -0.4294 C   0  0  0  0  0  0  0  0  0  0  0  0
   -2.5334    2.0668    0.0563 C   0  0  0  0  0  0  0  0  0  0  0  0
   -1.9900    2.6647    1.2347 C   0  0  0  0  0  0  0  0  0  0  0  0
   -2.5885    3.7945    1.6839 N   0  0  0  0  0  0  0  0  0  0  0  0
   -3.7887    3.9411    0.5494 S   0  0  0  0  0  0  0  0  0  0  0  0
   -3.6148    2.6674   -0.4958 N   0  0  0  0  0  0  0  0  0  0  0  0
   -0.8708    2.0714    1.8326 C   0  0  0  0  0  0  0  0  0  0  0  0
   -0.0426    2.4866    2.8356 C   0  0  0  0  0  0  0  0  0  0  0  0
    0.1518    3.8212    3.8663 S   0  0  0  0  0  0  0  0  0  0  0  0
    1.6916    3.2525    4.3410 C   0  0  0  0  0  0  0  0  0  0  0  0
    2.6603    3.7270    5.2239 C   0  0  0  0  0  0  0  0  0  0  0  0
    2.5290    5.0008    6.0114 C   0  0  0  0  0  0  0  0  0  0  0  0
    3.0524    6.1874    5.2100 C   0  0  0  0  0  0  0  0  0  0  0  0
    3.7809    2.8749    5.2386 C   0  0  0  0  0  0  0  0  0  0  0  0
    3.5645    1.5977    4.1206 S   0  0  0  0  0  0  0  0  0  0  0  0
    2.0330    2.1044    3.6769 C   0  0  0  0  0  0  0  0  0  0  0  0
    1.0361    1.6639    2.8261 C   0  0  0  0  0  0  0  0  0  0  0  0
    0.9813    0.7237    1.8512 N   0  0  0  0  0  0  0  0  0  0  0  0
   -0.2533    0.9321    1.2953 C   0  0  0  0  0  0  0  0  0  0  0  0
   -0.8642    0.2764    0.2056 C   0  0  0  0  0  0  0  0  0  0  0  0
   -0.6687   -0.9996   -0.2573 N   0  0  0  0  0  0  0  0  0  0  0  0
   -1.5380   -1.0808   -1.3061 C   0  0  0  0  0  0  0  0  0  0  0  0
   -1.8573   -2.0922   -2.2281 C   0  0  0  0  0  0  0  0  0  0  0  0
   -1.0600   -3.3446   -2.4883 C   0  0  0  0  0  0  0  0  0  0  0  0
   -1.7030   -4.5708   -1.8472 C   0  0  0  0  0  0  0  0  0  0  0  0
   -0.3371   -2.1396    0.6195 C   0  0  0  0  0  0  0  0  0  0  0  0
   -1.5631   -2.5769    1.4225 C   0  0  0  0  0  0  0  0  0  0  0  0
    2.1624    0.1515    1.1841 C   0  0  0  0  0  0  0  0  0  0  0  0
    2.9587    1.2361    0.4583 C   0  0  0  0  0  0  0  0  0  0  0  0
    5.0084    3.1001    6.0203 C   0  0  0  0  0  0  0  0  0  0  0  0
    5.5759    2.1665    6.8101 C   0  0  0  0  0  0  0  0  0  0  0  0
    4.9399    0.9168    7.2562 C   0  0  0  0  0  0  0  0  0  0  0  0
    3.8674    0.4181    6.8274 O   0  0  0  0  0  0  0  0  0  0  0  0
    5.6985    0.3923    8.3687 C   0  0  0  0  0  0  0  0  0  0  0  0
    5.4172   -0.7326    9.1426 C   0  0  0  0  0  0  0  0  0  0  0  0
    6.2436   -1.0163   10.2383 C   0  0  0  0  0  0  0  0  0  0  0  0
    5.8982   -2.5497   11.3233 Br  0  0  0  0  0  0  0  0  0  0  0  0
    7.3135   -0.1616   10.5514 C   0  0  0  0  0  0  0  0  0  0  0  0
    7.5798    0.9694    9.7621 C   0  0  0  0  0  0  0  0  0  0  0  0
    6.7693    1.2259    8.6420 C   0  0  0  0  0  0  0  0  0  0  0  0
    6.8167    2.3231    7.6327 C   0  0  0  0  0  0  0  0  0  0  0  0
    7.8728    3.1338    7.3591 C   0  0  0  0  0  0  0  0  0  0  0  0
    7.9197    3.9724    6.1884 C   0  0  0  0  0  0  0  0  0  0  0  0
    7.9707    4.6481    5.2483 N   0  0  0  0  0  0  0  0  0  0  0  0
    9.0894    3.1111    8.1305 C   0  0  0  0  0  0  0  0  0  0  0  0
   10.0754    3.1008    8.7386 N   0  0  0  0  0  0  0  0  0  0  0  0
   -4.0829   -3.3411   -3.8423 H   0  0  0  0  0  0  0  0  0  0  0  0
   -2.3006    1.2579   -7.7937 H   0  0  0  0  0  0  0  0  0  0  0  0
   -4.9408   -2.7749   -9.4687 H   0  0  0  0  0  0  0  0  0  0  0  0
   -3.6821   -0.8384  -12.0465 H   0  0  0  0  0  0  0  0  0  0  0  0
   -6.4098   -0.4358  -11.7175 H   0  0  0  0  0  0  0  0  0  0  0  0
   -5.7616    1.0551  -13.8201 H   0  0  0  0  0  0  0  0  0  0  0  0
   -4.4600    3.1525  -12.9662 H   0  0  0  0  0  0  0  0  0  0  0  0
   -4.2619    2.9922  -10.3221 H   0  0  0  0  0  0  0  0  0  0  0  0
   -5.8755    1.0074   -9.5215 H   0  0  0  0  0  0  0  0  0  0  0  0
   -6.7046    2.0301  -10.7632 H   0  0  0  0  0  0  0  0  0  0  0  0
   -2.4802    1.0868  -11.2808 H   0  0  0  0  0  0  0  0  0  0  0  0
    3.0942    4.9212    6.9649 H   0  0  0  0  0  0  0  0  0  0  0  0
    1.4612    5.1758    6.2677 H   0  0  0  0  0  0  0  0  0  0  0  0
    2.4884    6.2893    4.2580 H   0  0  0  0  0  0  0  0  0  0  0  0
    4.1328    6.0595    4.9830 H   0  0  0  0  0  0  0  0  0  0  0  0
    2.9206    7.1202    5.7978 H   0  0  0  0  0  0  0  0  0  0  0  0
   -0.9948   -3.5111   -3.5847 H   0  0  0  0  0  0  0  0  0  0  0  0
   -0.0143   -3.2253   -2.1407 H   0  0  0  0  0  0  0  0  0  0  0  0
   -1.7226   -4.4779   -0.7449 H   0  0  0  0  0  0  0  0  0  0  0  0
   -1.1155   -5.4742   -2.1104 H   0  0  0  0  0  0  0  0  0  0  0  0
   -2.7396   -4.7058   -2.2174 H   0  0  0  0  0  0  0  0  0  0  0  0
    0.4405   -1.8766    1.3569 H   0  0  0  0  0  0  0  0  0  0  0  0
    0.0531   -2.9908    0.0353 H   0  0  0  0  0  0  0  0  0  0  0  0
   -2.4182   -2.8036    0.7526 H   0  0  0  0  0  0  0  0  0  0  0  0
   -1.3192   -3.4855    2.0138 H   0  0  0  0  0  0  0  0  0  0  0  0
   -1.8677   -1.7690    2.1227 H   0  0  0  0  0  0  0  0  0  0  0  0
    2.8091   -0.3527    1.9343 H   0  0  0  0  0  0  0  0  0  0  0  0
    1.8756   -0.5904    0.4156 H   0  0  0  0  0  0  0  0  0  0  0  0
    3.3732    1.9709    1.1792 H   0  0  0  0  0  0  0  0  0  0  0  0
    3.8052    0.7723   -0.0917 H   0  0  0  0  0  0  0  0  0  0  0  0
    2.3083    1.7696   -0.2671 H   0  0  0  0  0  0  0  0  0  0  0  0
    5.4085    4.1015    5.9999 H   0  0  0  0  0  0  0  0  0  0  0  0
    4.5682   -1.3640    8.9139 H   0  0  0  0  0  0  0  0  0  0  0  0
    7.9363   -0.3678   11.4142 H   0  0  0  0  0  0  0  0  0  0  0  0
    8.3769    1.6281   10.0601 H   0  0  0  0  0  0  0  0  0  0  0  0
  1  2  2  3
  2  3  1  0
  3  4  2  0
  3  5  1  0
  5  6  2  0
  6  7  1  0
  7  8  2  0
  8  9  1  0
  9 10  2  0
 10 11  1  0
 11 12  2  3
 12 13  1  0
 13 14  3  0
 12 15  1  0
 15 16  3  0
  8 17  1  0
 17 18  1  0
 18 19  1  0
 19 20  2  0
 20 21  1  0
 21 22  1  0
 21 23  1  0
  1 24  1  0
 24 25  1  0
 25 26  1  0
 26 27  1  0
 27 28  1  0
 28 29  1  0
 29 30  2  0
 30 31  1  0
 31 32  1  0
 29 33  1  0
 33 34  1  0
 34 35  1  0
 35 36  1  0
 36 37  1  0
 37 38  1  0
 38 39  1  0
 37 40  2  0
 40 41  1  0
 41 42  1  0
 42 43  1  0
 43 44  1  0
 44 45  1  0
 45 46  1  0
 46 47  1  0
 47 48  1  0
 48 49  1  0
 49 50  1  0
 50 51  1  0
 47 52  1  0
 52 53  1  0
 44 54  1  0
 54 55  1  0
 40 56  1  0
 56 57  2  3
 57 58  1  0
 58 59  2  0
 58 60  1  0
 60 61  2  0
 61 62  1  0
 62 63  1  0
 62 64  2  0
 64 65  1  0
 65 66  2  0
 66 67  1  0
 67 68  2  3
 68 69  1  0
 69 70  3  0
 68 71  1  0
 71 72  3  0
 11  2  1  0
 23 17  1  0
 49 24  2  0
 67 57  1  0
 10  5  1  0
 22 18  1  0
 48 26  2  0
 66 60  1  0
 23  7  1  0
 46 27  2  0
 32 28  2  0
 45 33  2  0
 43 34  2  0
 42 36  2  0
  1 73  1  0
  6 74  1  0
  9 75  1  0
 17 76  1  0
 18 77  1  0
 19 78  1  0
 20 79  1  0
 21 80  1  0
 22 81  1  0
 22 82  1  0
 23 83  1  0
 38 84  1  0
 38 85  1  0
 39 86  1  0
 39 87  1  0
 39 88  1  0
 50 89  1  0
 50 90  1  0
 51 91  1  0
 51 92  1  0
 51 93  1  0
 52 94  1  0
 52 95  1  0
 53 96  1  0
 53 97  1  0
 53 98  1  0
 54 99  1  0
 54100  1  0
 55101  1  0
 55102  1  0
 55103  1  0
 56104  1  0
 61105  1  0
 64106  1  0
 65107  1  0
M  END

