
     RDKit          3D

176197  0  0  0  0  0  0  0  0999 V2000
    2.9858   -4.3537   -7.4814 C   0  0  0  0  0  0  0  0  0  0  0  0
    2.7805   -3.4632   -8.4662 C   0  0  0  0  0  0  0  0  0  0  0  0
    2.1252   -2.1577   -8.3025 C   0  0  0  0  0  0  0  0  0  0  0  0
    2.0120   -1.5036   -7.2312 O   0  0  0  0  0  0  0  0  0  0  0  0
    1.5565   -1.7655   -9.5754 C   0  0  0  0  0  0  0  0  0  0  0  0
    0.6748   -0.6888   -9.8207 C   0  0  0  0  0  0  0  0  0  0  0  0
    0.1616   -0.6657  -11.1043 C   0  0  0  0  0  0  0  0  0  0  0  0
    0.4875   -1.6476  -12.0965 C   0  0  0  0  0  0  0  0  0  0  0  0
    1.3469   -2.7063  -11.8632 C   0  0  0  0  0  0  0  0  0  0  0  0
    1.9086   -2.7318  -10.5550 C   0  0  0  0  0  0  0  0  0  0  0  0
    2.7886   -3.7576   -9.9293 C   0  0  0  0  0  0  0  0  0  0  0  0
    3.6075   -4.6296  -10.5709 C   0  0  0  0  0  0  0  0  0  0  0  0
    3.6735   -4.7141  -12.0074 C   0  0  0  0  0  0  0  0  0  0  0  0
    3.7449   -4.7935  -13.1607 N   0  0  0  0  0  0  0  0  0  0  0  0
    4.5706   -5.4399   -9.8636 C   0  0  0  0  0  0  0  0  0  0  0  0
    5.3419   -6.0894   -9.3012 N   0  0  0  0  0  0  0  0  0  0  0  0
   -0.4429   -0.9926  -13.0737 C   0  0  0  0  0  0  0  0  0  0  0  0
   -1.8064   -1.6931  -13.3628 C   0  0  0  0  0  0  0  0  0  0  0  0
   -2.2644   -2.4588  -12.1414 C   0  0  0  0  0  0  0  0  0  0  0  0
   -2.5692   -1.5523  -11.2142 C   0  0  0  0  0  0  0  0  0  0  0  0
   -2.3114   -0.1984  -11.8361 C   0  0  0  0  0  0  0  0  0  0  0  0
   -2.7428   -0.5020  -13.2592 C   0  0  0  0  0  0  0  0  0  0  0  0
   -0.7804    0.0077  -12.0574 C   0  0  0  0  0  0  0  0  0  0  0  0
    2.7330   -4.0592   -6.0667 C   0  0  0  0  0  0  0  0  0  0  0  0
    1.5991   -4.4696   -5.3455 C   0  0  0  0  0  0  0  0  0  0  0  0
    0.3962   -5.1442   -5.9405 C   0  0  0  0  0  0  0  0  0  0  0  0
   -0.6020   -4.1137   -6.4573 C   0  0  0  0  0  0  0  0  0  0  0  0
    1.6706   -4.0235   -4.0271 C   0  0  0  0  0  0  0  0  0  0  0  0
    0.5538   -3.9842   -2.7487 S   0  0  0  0  0  0  0  0  0  0  0  0
    1.6357   -3.1202   -1.7648 C   0  0  0  0  0  0  0  0  0  0  0  0
    1.4433   -2.1266   -0.7503 C   0  0  0  0  0  0  0  0  0  0  0  0
    2.4617   -1.2138   -0.8236 C   0  0  0  0  0  0  0  0  0  0  0  0
    3.5844   -1.6771   -1.7445 C   0  0  0  0  0  0  0  0  0  0  0  0
    2.7943   -2.7877   -2.4336 C   0  0  0  0  0  0  0  0  0  0  0  0
    2.8016   -3.3205   -3.7157 C   0  0  0  0  0  0  0  0  0  0  0  0
    3.7850   -3.1647   -5.0657 S   0  0  0  0  0  0  0  0  0  0  0  0
    4.7316   -2.3184   -0.9344 C   0  0  0  0  0  0  0  0  0  0  0  0
    5.4496   -3.4219   -1.4472 C   0  0  0  0  0  0  0  0  0  0  0  0
    6.4206   -4.0713   -0.6764 C   0  0  0  0  0  0  0  0  0  0  0  0
    6.7375   -3.6001    0.6048 C   0  0  0  0  0  0  0  0  0  0  0  0
    7.7241   -4.3358    1.4738 C   0  0  0  0  0  0  0  0  0  0  0  0
    7.0029   -5.2269    2.4810 C   0  0  0  0  0  0  0  0  0  0  0  0
    6.0809   -2.4684    1.0970 C   0  0  0  0  0  0  0  0  0  0  0  0
    5.1054   -1.8280    0.3340 C   0  0  0  0  0  0  0  0  0  0  0  0
    4.0216   -0.5803   -2.7145 C   0  0  0  0  0  0  0  0  0  0  0  0
    3.0581    0.0943   -3.4905 C   0  0  0  0  0  0  0  0  0  0  0  0
    3.4376    1.0807   -4.4034 C   0  0  0  0  0  0  0  0  0  0  0  0
    4.7884    1.4213   -4.5586 C   0  0  0  0  0  0  0  0  0  0  0  0
    5.2022    2.4544   -5.5716 C   0  0  0  0  0  0  0  0  0  0  0  0
    5.3964    1.8174   -6.9436 C   0  0  0  0  0  0  0  0  0  0  0  0
    5.7575    0.7495   -3.8010 C   0  0  0  0  0  0  0  0  0  0  0  0
    5.3794   -0.2367   -2.8874 C   0  0  0  0  0  0  0  0  0  0  0  0
    2.2296   -0.1467    0.0308 C   0  0  0  0  0  0  0  0  0  0  0  0
    3.0953    1.2388    0.4876 S   0  0  0  0  0  0  0  0  0  0  0  0
    1.9896    1.5746    1.7341 C   0  0  0  0  0  0  0  0  0  0  0  0
    2.1567    2.1922    3.0201 C   0  0  0  0  0  0  0  0  0  0  0  0
    1.2912    1.5979    3.8993 C   0  0  0  0  0  0  0  0  0  0  0  0
    0.5426    0.4275    3.2951 C   0  0  0  0  0  0  0  0  0  0  0  0
    1.0692   -0.8280    4.0082 C   0  0  0  0  0  0  0  0  0  0  0  0
    0.4842   -1.2491    5.2201 C   0  0  0  0  0  0  0  0  0  0  0  0
    1.0252   -2.3125    5.9488 C   0  0  0  0  0  0  0  0  0  0  0  0
    2.1822   -2.9672    5.4949 C   0  0  0  0  0  0  0  0  0  0  0  0
    2.7925   -4.0812    6.3029 C   0  0  0  0  0  0  0  0  0  0  0  0
    3.9166   -3.5587    7.1912 C   0  0  0  0  0  0  0  0  0  0  0  0
    2.8013   -2.5303    4.3198 C   0  0  0  0  0  0  0  0  0  0  0  0
    2.2650   -1.4643    3.5962 C   0  0  0  0  0  0  0  0  0  0  0  0
   -0.9835    0.5757    3.3027 C   0  0  0  0  0  0  0  0  0  0  0  0
   -1.6016    1.8451    3.3266 C   0  0  0  0  0  0  0  0  0  0  0  0
   -2.9933    1.9638    3.3349 C   0  0  0  0  0  0  0  0  0  0  0  0
   -3.8040    0.8216    3.2824 C   0  0  0  0  0  0  0  0  0  0  0  0
   -5.3022    0.9564    3.2833 C   0  0  0  0  0  0  0  0  0  0  0  0
   -5.8219    1.2595    1.8817 C   0  0  0  0  0  0  0  0  0  0  0  0
   -3.2005   -0.4397    3.1718 C   0  0  0  0  0  0  0  0  0  0  0  0
   -1.8072   -0.5585    3.1675 C   0  0  0  0  0  0  0  0  0  0  0  0
    1.0387    0.5784    1.8631 C   0  0  0  0  0  0  0  0  0  0  0  0
    1.1286   -0.3442    0.8323 C   0  0  0  0  0  0  0  0  0  0  0  0
    0.3063   -1.7847    0.4609 S   0  0  0  0  0  0  0  0  0  0  0  0
    1.1192    2.3655    5.0397 C   0  0  0  0  0  0  0  0  0  0  0  0
    1.7687    3.5666    4.9961 C   0  0  0  0  0  0  0  0  0  0  0  0
    2.6155    3.7468    3.5340 S   0  0  0  0  0  0  0  0  0  0  0  0
    1.4353    4.4513    6.0255 C   0  0  0  0  0  0  0  0  0  0  0  0
    1.9191    5.8743    6.0891 C   0  0  0  0  0  0  0  0  0  0  0  0
    0.9832    6.7924    5.3109 C   0  0  0  0  0  0  0  0  0  0  0  0
    0.4481    3.8919    6.8558 C   0  0  0  0  0  0  0  0  0  0  0  0
    0.0737    2.3048    6.3430 S   0  0  0  0  0  0  0  0  0  0  0  0
   -0.1653    4.5572    8.0205 C   0  0  0  0  0  0  0  0  0  0  0  0
   -1.4878    4.5554    8.2741 C   0  0  0  0  0  0  0  0  0  0  0  0
   -2.5452    4.2504    7.3001 C   0  0  0  0  0  0  0  0  0  0  0  0
   -2.3835    3.8820    6.1060 O   0  0  0  0  0  0  0  0  0  0  0  0
   -3.8234    4.6005    7.8703 C   0  0  0  0  0  0  0  0  0  0  0  0
   -5.0897    4.4520    7.2601 C   0  0  0  0  0  0  0  0  0  0  0  0
   -6.1363    4.9150    8.0334 C   0  0  0  0  0  0  0  0  0  0  0  0
   -5.9507    5.5219    9.3184 C   0  0  0  0  0  0  0  0  0  0  0  0
   -4.7086    5.6859    9.9115 C   0  0  0  0  0  0  0  0  0  0  0  0
   -3.6203    5.1610    9.1575 C   0  0  0  0  0  0  0  0  0  0  0  0
   -2.1701    5.0718    9.5061 C   0  0  0  0  0  0  0  0  0  0  0  0
   -1.6319    5.1590   10.7511 C   0  0  0  0  0  0  0  0  0  0  0  0
   -0.2693    4.7867   11.0332 C   0  0  0  0  0  0  0  0  0  0  0  0
    0.8246    4.4904   11.2759 N   0  0  0  0  0  0  0  0  0  0  0  0
   -2.4029    5.5198   11.9127 C   0  0  0  0  0  0  0  0  0  0  0  0
   -3.0072    5.8047   12.8582 N   0  0  0  0  0  0  0  0  0  0  0  0
   -7.4263    5.7423    9.4451 C   0  0  0  0  0  0  0  0  0  0  0  0
   -7.9381    7.1967    9.2247 C   0  0  0  0  0  0  0  0  0  0  0  0
   -9.4311    7.0844    9.0208 C   0  0  0  0  0  0  0  0  0  0  0  0
   -9.6061    6.4991    7.8282 C   0  0  0  0  0  0  0  0  0  0  0  0
   -8.2293    6.2450    7.2663 C   0  0  0  0  0  0  0  0  0  0  0  0
   -7.5294    7.4888    7.7884 C   0  0  0  0  0  0  0  0  0  0  0  0
   -7.6176    5.1085    8.1347 C   0  0  0  0  0  0  0  0  0  0  0  0
    3.1835   -5.3859   -7.7223 H   0  0  0  0  0  0  0  0  0  0  0  0
    0.3825    0.0205   -9.0588 H   0  0  0  0  0  0  0  0  0  0  0  0
    1.5087   -3.4667  -12.6083 H   0  0  0  0  0  0  0  0  0  0  0  0
    0.0631   -0.5702  -13.9684 H   0  0  0  0  0  0  0  0  0  0  0  0
   -1.8576   -2.2595  -14.3180 H   0  0  0  0  0  0  0  0  0  0  0  0
   -2.4110   -3.5304  -12.0571 H   0  0  0  0  0  0  0  0  0  0  0  0
   -3.0061   -1.7565  -10.2457 H   0  0  0  0  0  0  0  0  0  0  0  0
   -2.8382    0.6515  -11.3491 H   0  0  0  0  0  0  0  0  0  0  0  0
   -2.5055    0.3158  -13.9825 H   0  0  0  0  0  0  0  0  0  0  0  0
   -3.8215   -0.7760  -13.3458 H   0  0  0  0  0  0  0  0  0  0  0  0
   -0.4822    1.0424  -12.3333 H   0  0  0  0  0  0  0  0  0  0  0  0
    0.7054   -5.8099   -6.7755 H   0  0  0  0  0  0  0  0  0  0  0  0
   -0.0973   -5.7786   -5.1723 H   0  0  0  0  0  0  0  0  0  0  0  0
   -0.9015   -3.4099   -5.6496 H   0  0  0  0  0  0  0  0  0  0  0  0
   -1.5094   -4.6329   -6.8327 H   0  0  0  0  0  0  0  0  0  0  0  0
   -0.1589   -3.5357   -7.2973 H   0  0  0  0  0  0  0  0  0  0  0  0
    5.2410   -3.8056   -2.4364 H   0  0  0  0  0  0  0  0  0  0  0  0
    6.9217   -4.9400   -1.0803 H   0  0  0  0  0  0  0  0  0  0  0  0
    8.4010   -4.9596    0.8515 H   0  0  0  0  0  0  0  0  0  0  0  0
    8.3556   -3.6034    2.0218 H   0  0  0  0  0  0  0  0  0  0  0  0
    6.3832   -5.9836    1.9544 H   0  0  0  0  0  0  0  0  0  0  0  0
    7.7506   -5.7535    3.1111 H   0  0  0  0  0  0  0  0  0  0  0  0
    6.3509   -4.6161    3.1438 H   0  0  0  0  0  0  0  0  0  0  0  0
    6.3158   -2.0879    2.0841 H   0  0  0  0  0  0  0  0  0  0  0  0
    4.6338   -0.9656    0.7623 H   0  0  0  0  0  0  0  0  0  0  0  0
    2.0083   -0.1507   -3.3919 H   0  0  0  0  0  0  0  0  0  0  0  0
    2.6782    1.5734   -5.0012 H   0  0  0  0  0  0  0  0  0  0  0  0
    6.1530    2.9403   -5.2589 H   0  0  0  0  0  0  0  0  0  0  0  0
    4.4309    3.2532   -5.6399 H   0  0  0  0  0  0  0  0  0  0  0  0
    6.1767    1.0290   -6.8950 H   0  0  0  0  0  0  0  0  0  0  0  0
    5.7163    2.5907   -7.6729 H   0  0  0  0  0  0  0  0  0  0  0  0
    4.4431    1.3694   -7.2983 H   0  0  0  0  0  0  0  0  0  0  0  0
    6.8061    0.9856   -3.9213 H   0  0  0  0  0  0  0  0  0  0  0  0
    6.1627   -0.7262   -2.3237 H   0  0  0  0  0  0  0  0  0  0  0  0
   -0.3814   -0.7386    5.6181 H   0  0  0  0  0  0  0  0  0  0  0  0
    0.5570   -2.6107    6.8794 H   0  0  0  0  0  0  0  0  0  0  0  0
    3.1930   -4.8614    5.6219 H   0  0  0  0  0  0  0  0  0  0  0  0
    2.0228   -4.5629    6.9409 H   0  0  0  0  0  0  0  0  0  0  0  0
    4.3476   -4.3979    7.7763 H   0  0  0  0  0  0  0  0  0  0  0  0
    3.5251   -2.7969    7.8996 H   0  0  0  0  0  0  0  0  0  0  0  0
    4.7181   -3.0997    6.5726 H   0  0  0  0  0  0  0  0  0  0  0  0
    3.7148   -2.9988    3.9754 H   0  0  0  0  0  0  0  0  0  0  0  0
    2.8167   -1.1247    2.7324 H   0  0  0  0  0  0  0  0  0  0  0  0
   -1.0107    2.7504    3.3427 H   0  0  0  0  0  0  0  0  0  0  0  0
   -3.4386    2.9496    3.3766 H   0  0  0  0  0  0  0  0  0  0  0  0
   -5.6055    1.7728    3.9731 H   0  0  0  0  0  0  0  0  0  0  0  0
   -5.7731    0.0203    3.6523 H   0  0  0  0  0  0  0  0  0  0  0  0
   -5.3598    2.1919    1.4938 H   0  0  0  0  0  0  0  0  0  0  0  0
   -5.5803    0.4200    1.1949 H   0  0  0  0  0  0  0  0  0  0  0  0
   -6.9234    1.3942    1.9127 H   0  0  0  0  0  0  0  0  0  0  0  0
   -3.8094   -1.3312    3.0887 H   0  0  0  0  0  0  0  0  0  0  0  0
   -1.3761   -1.5474    3.0718 H   0  0  0  0  0  0  0  0  0  0  0  0
    2.9425    5.9403    5.6622 H   0  0  0  0  0  0  0  0  0  0  0  0
    1.9728    6.2137    7.1439 H   0  0  0  0  0  0  0  0  0  0  0  0
    0.9252    6.4748    4.2481 H   0  0  0  0  0  0  0  0  0  0  0  0
    1.3680    7.8317    5.3534 H   0  0  0  0  0  0  0  0  0  0  0  0
   -0.0355    6.7711    5.7575 H   0  0  0  0  0  0  0  0  0  0  0  0
    0.5116    5.0802    8.6764 H   0  0  0  0  0  0  0  0  0  0  0  0
   -5.2322    4.0159    6.2812 H   0  0  0  0  0  0  0  0  0  0  0  0
   -4.6196    6.1830   10.8612 H   0  0  0  0  0  0  0  0  0  0  0  0
   -7.8840    5.1925   10.2985 H   0  0  0  0  0  0  0  0  0  0  0  0
   -7.6200    7.9455    9.9818 H   0  0  0  0  0  0  0  0  0  0  0  0
  -10.2203    7.4800    9.6545 H   0  0  0  0  0  0  0  0  0  0  0  0
  -10.5585    6.3314    7.3361 H   0  0  0  0  0  0  0  0  0  0  0  0
   -8.1884    6.0904    6.1664 H   0  0  0  0  0  0  0  0  0  0  0  0
   -6.4295    7.4979    7.6226 H   0  0  0  0  0  0  0  0  0  0  0  0
   -7.9561    8.4413    7.3856 H   0  0  0  0  0  0  0  0  0  0  0  0
   -8.1908    4.1556    8.1564 H   0  0  0  0  0  0  0  0  0  0  0  0
  1  2  2  3
  2  3  1  0
  3  4  2  0
  3  5  1  0
  5  6  2  0
  6  7  1  0
  7  8  2  0
  8  9  1  0
  9 10  2  0
 10 11  1  0
 11 12  2  3
 12 13  1  0
 13 14  3  0
 12 15  1  0
 15 16  3  0
  8 17  1  0
 17 18  1  0
 18 19  1  0
 19 20  2  0
 20 21  1  0
 21 22  1  0
 21 23  1  0
  1 24  1  0
 24 25  2  0
 25 26  1  0
 26 27  1  0
 25 28  1  0
 28 29  1  0
 29 30  1  0
 30 31  1  0
 31 32  2  0
 32 33  1  0
 33 34  1  0
 34 35  1  0
 35 36  1  0
 33 37  1  0
 37 38  2  0
 38 39  1  0
 39 40  2  0
 40 41  1  0
 41 42  1  0
 40 43  1  0
 43 44  2  0
 33 45  1  0
 45 46  2  0
 46 47  1  0
 47 48  2  0
 48 49  1  0
 49 50  1  0
 48 51  1  0
 51 52  2  0
 32 53  1  0
 53 54  1  0
 54 55  1  0
 55 56  1  0
 56 57  2  0
 57 58  1  0
 58 59  1  0
 59 60  2  0
 60 61  1  0
 61 62  2  0
 62 63  1  0
 63 64  1  0
 62 65  1  0
 65 66  2  0
 58 67  1  0
 67 68  2  0
 68 69  1  0
 69 70  2  0
 70 71  1  0
 71 72  1  0
 70 73  1  0
 73 74  2  0
 58 75  1  0
 75 76  1  0
 76 77  1  0
 57 78  1  0
 78 79  2  0
 79 80  1  0
 79 81  1  0
 81 82  1  0
 82 83  1  0
 81 84  2  0
 84 85  1  0
 84 86  1  0
 86 87  2  3
 87 88  1  0
 88 89  2  0
 88 90  1  0
 90 91  2  0
 91 92  1  0
 92 93  2  0
 93 94  1  0
 94 95  2  0
 95 96  1  0
 96 97  2  3
 97 98  1  0
 98 99  3  0
 97100  1  0
100101  3  0
 93102  1  0
102103  1  0
103104  1  0
104105  2  0
105106  1  0
106107  1  0
106108  1  0
 11  2  1  0
 23 17  1  0
 36 24  1  0
 44 37  1  0
 52 45  1  0
 76 53  2  0
 85 78  1  0
 96 87  1  0
108102  1  0
 10  5  1  0
 22 18  1  0
 35 28  2  0
 75 55  2  0
 95 90  1  0
107103  1  0
 23  7  1  0
 34 30  2  0
 80 56  1  0
108 92  1  0
 77 31  1  0
 66 59  1  0
 74 67  1  0
  1109  1  0
  6110  1  0
  9111  1  0
 17112  1  0
 18113  1  0
 19114  1  0
 20115  1  0
 21116  1  0
 22117  1  0
 22118  1  0
 23119  1  0
 26120  1  0
 26121  1  0
 27122  1  0
 27123  1  0
 27124  1  0
 38125  1  0
 39126  1  0
 41127  1  0
 41128  1  0
 42129  1  0
 42130  1  0
 42131  1  0
 43132  1  0
 44133  1  0
 46134  1  0
 47135  1  0
 49136  1  0
 49137  1  0
 50138  1  0
 50139  1  0
 50140  1  0
 51141  1  0
 52142  1  0
 60143  1  0
 61144  1  0
 63145  1  0
 63146  1  0
 64147  1  0
 64148  1  0
 64149  1  0
 65150  1  0
 66151  1  0
 68152  1  0
 69153  1  0
 71154  1  0
 71155  1  0
 72156  1  0
 72157  1  0
 72158  1  0
 73159  1  0
 74160  1  0
 82161  1  0
 82162  1  0
 83163  1  0
 83164  1  0
 83165  1  0
 86166  1  0
 91167  1  0
 94168  1  0
102169  1  0
103170  1  0
104171  1  0
105172  1  0
106173  1  0
107174  1  0
107175  1  0
108176  1  0
M  END

