
     RDKit          3D

108121  0  0  0  0  0  0  0  0999 V2000
   -2.0033    0.4631   -6.0299 C   0  0  0  0  0  0  0  0  0  0  0  0
   -2.2474    1.7746   -5.8407 C   0  0  0  0  0  0  0  0  0  0  0  0
   -2.2309    2.4628   -4.5396 C   0  0  0  0  0  0  0  0  0  0  0  0
   -2.4127    1.9310   -3.4094 O   0  0  0  0  0  0  0  0  0  0  0  0
   -1.8529    3.8392   -4.7451 C   0  0  0  0  0  0  0  0  0  0  0  0
   -1.5098    4.7811   -3.7454 C   0  0  0  0  0  0  0  0  0  0  0  0
   -0.9853    5.9588   -4.2471 C   0  0  0  0  0  0  0  0  0  0  0  0
   -0.7911    6.1957   -5.6486 C   0  0  0  0  0  0  0  0  0  0  0  0
   -1.1345    5.2776   -6.6334 C   0  0  0  0  0  0  0  0  0  0  0  0
   -1.6965    4.0655   -6.1379 C   0  0  0  0  0  0  0  0  0  0  0  0
   -2.0806    2.8328   -6.8811 C   0  0  0  0  0  0  0  0  0  0  0  0
   -2.3880    2.7297   -8.2003 C   0  0  0  0  0  0  0  0  0  0  0  0
   -2.9969    1.5461   -8.7455 C   0  0  0  0  0  0  0  0  0  0  0  0
   -3.4928    0.5996   -9.1935 N   0  0  0  0  0  0  0  0  0  0  0  0
   -2.2397    3.8194   -9.1241 C   0  0  0  0  0  0  0  0  0  0  0  0
   -2.1215    4.6872   -9.8786 N   0  0  0  0  0  0  0  0  0  0  0  0
   -0.1396    7.5168   -5.3490 C   0  0  0  0  0  0  0  0  0  0  0  0
    1.4122    7.6141   -5.4691 C   0  0  0  0  0  0  0  0  0  0  0  0
    2.0407    6.2762   -5.1553 C   0  0  0  0  0  0  0  0  0  0  0  0
    1.8410    6.0587   -3.8531 C   0  0  0  0  0  0  0  0  0  0  0  0
    1.0882    7.2616   -3.3253 C   0  0  0  0  0  0  0  0  0  0  0  0
    1.7370    8.3412   -4.1748 C   0  0  0  0  0  0  0  0  0  0  0  0
   -0.3548    7.2824   -3.9177 C   0  0  0  0  0  0  0  0  0  0  0  0
   -1.6634   -0.4368   -4.9168 C   0  0  0  0  0  0  0  0  0  0  0  0
   -2.5905   -0.9173   -3.9927 C   0  0  0  0  0  0  0  0  0  0  0  0
   -1.8149   -1.4126   -2.9590 C   0  0  0  0  0  0  0  0  0  0  0  0
   -0.5217   -1.2102   -3.2618 C   0  0  0  0  0  0  0  0  0  0  0  0
   -0.3898   -0.6192   -4.4728 N   0  0  0  0  0  0  0  0  0  0  0  0
    0.8250   -0.1714   -5.1597 C   0  0  0  0  0  0  0  0  0  0  0  0
    1.1424    1.2944   -4.8558 C   0  0  0  0  0  0  0  0  0  0  0  0
    0.1549   -1.0764   -2.0561 C   0  0  0  0  0  0  0  0  0  0  0  0
    1.4241   -0.5493   -1.7453 C   0  0  0  0  0  0  0  0  0  0  0  0
    1.7115   -0.1966   -0.3930 C   0  0  0  0  0  0  0  0  0  0  0  0
    2.9476    0.2904   -0.1252 N   0  0  0  0  0  0  0  0  0  0  0  0
    3.5968    0.2515   -1.6473 S   0  0  0  0  0  0  0  0  0  0  0  0
    2.4240   -0.3528   -2.6425 N   0  0  0  0  0  0  0  0  0  0  0  0
    0.7532   -0.4478    0.5874 C   0  0  0  0  0  0  0  0  0  0  0  0
    0.8536   -0.3888    1.9443 C   0  0  0  0  0  0  0  0  0  0  0  0
    2.0519   -0.0249    3.0872 S   0  0  0  0  0  0  0  0  0  0  0  0
    1.1357   -0.7775    4.3120 C   0  0  0  0  0  0  0  0  0  0  0  0
    1.4199   -1.0920    5.6423 C   0  0  0  0  0  0  0  0  0  0  0  0
    2.6484   -0.6275    6.3742 C   0  0  0  0  0  0  0  0  0  0  0  0
    2.4196    0.7458    6.9886 C   0  0  0  0  0  0  0  0  0  0  0  0
    0.4197   -1.9154    6.1778 C   0  0  0  0  0  0  0  0  0  0  0  0
   -0.7814   -2.2268    5.0098 S   0  0  0  0  0  0  0  0  0  0  0  0
   -0.0335   -1.3087    3.8224 C   0  0  0  0  0  0  0  0  0  0  0  0
   -0.1957   -1.0727    2.4577 C   0  0  0  0  0  0  0  0  0  0  0  0
   -1.0219   -1.5602    1.4943 N   0  0  0  0  0  0  0  0  0  0  0  0
   -0.4603   -1.0976    0.3164 C   0  0  0  0  0  0  0  0  0  0  0  0
   -0.8183   -1.3106   -1.0522 C   0  0  0  0  0  0  0  0  0  0  0  0
   -2.0593   -1.4696   -1.6285 N   0  0  0  0  0  0  0  0  0  0  0  0
   -3.3996   -1.3243   -1.0494 C   0  0  0  0  0  0  0  0  0  0  0  0
   -3.5699    0.0091   -0.3237 C   0  0  0  0  0  0  0  0  0  0  0  0
   -2.0242   -2.6066    1.7148 C   0  0  0  0  0  0  0  0  0  0  0  0
   -1.7095   -3.8816    0.9393 C   0  0  0  0  0  0  0  0  0  0  0  0
    0.4956   -2.6001    7.4728 C   0  0  0  0  0  0  0  0  0  0  0  0
    0.9017   -3.8799    7.5809 C   0  0  0  0  0  0  0  0  0  0  0  0
    1.4930   -4.6747    6.4960 C   0  0  0  0  0  0  0  0  0  0  0  0
    1.5399   -4.3665    5.2733 O   0  0  0  0  0  0  0  0  0  0  0  0
    2.0907   -5.8585    7.0629 C   0  0  0  0  0  0  0  0  0  0  0  0
    2.7697   -6.8734    6.3946 C   0  0  0  0  0  0  0  0  0  0  0  0
    3.2810   -7.9370    7.1404 C   0  0  0  0  0  0  0  0  0  0  0  0
    4.1530   -9.2247    6.3289 Cl  0  0  0  0  0  0  0  0  0  0  0  0
    3.0920   -7.9749    8.5324 C   0  0  0  0  0  0  0  0  0  0  0  0
    3.5826   -9.0087    9.2568 F   0  0  0  0  0  0  0  0  0  0  0  0
    2.3921   -6.9479    9.1867 C   0  0  0  0  0  0  0  0  0  0  0  0
    1.8963   -5.8701    8.4333 C   0  0  0  0  0  0  0  0  0  0  0  0
    1.1035   -4.6667    8.8371 C   0  0  0  0  0  0  0  0  0  0  0  0
    0.5567   -4.4161   10.0539 C   0  0  0  0  0  0  0  0  0  0  0  0
   -0.4609   -3.4128   10.2601 C   0  0  0  0  0  0  0  0  0  0  0  0
   -1.2793   -2.6147   10.4675 N   0  0  0  0  0  0  0  0  0  0  0  0
    0.9246   -5.1478   11.2372 C   0  0  0  0  0  0  0  0  0  0  0  0
    1.2092   -5.7251   12.2002 N   0  0  0  0  0  0  0  0  0  0  0  0
   -1.7690    0.0899   -7.0152 H   0  0  0  0  0  0  0  0  0  0  0  0
   -1.5831    4.5806   -2.6841 H   0  0  0  0  0  0  0  0  0  0  0  0
   -0.9001    5.4708   -7.6697 H   0  0  0  0  0  0  0  0  0  0  0  0
   -0.6954    8.3964   -5.7373 H   0  0  0  0  0  0  0  0  0  0  0  0
    1.7807    8.0946   -6.4020 H   0  0  0  0  0  0  0  0  0  0  0  0
    2.6036    5.6390   -5.8337 H   0  0  0  0  0  0  0  0  0  0  0  0
    2.2187    5.2149   -3.2761 H   0  0  0  0  0  0  0  0  0  0  0  0
    1.1492    7.4080   -2.2243 H   0  0  0  0  0  0  0  0  0  0  0  0
    1.2364    9.3338   -4.0870 H   0  0  0  0  0  0  0  0  0  0  0  0
    2.8340    8.4600   -3.9936 H   0  0  0  0  0  0  0  0  0  0  0  0
   -1.0480    8.0119   -3.4414 H   0  0  0  0  0  0  0  0  0  0  0  0
   -3.6532   -0.7252   -4.0023 H   0  0  0  0  0  0  0  0  0  0  0  0
    0.6913   -0.2876   -6.2569 H   0  0  0  0  0  0  0  0  0  0  0  0
    1.6698   -0.8322   -4.8930 H   0  0  0  0  0  0  0  0  0  0  0  0
    0.5011    1.9611   -5.4662 H   0  0  0  0  0  0  0  0  0  0  0  0
    2.2037    1.5172   -5.1103 H   0  0  0  0  0  0  0  0  0  0  0  0
    0.9674    1.5233   -3.7852 H   0  0  0  0  0  0  0  0  0  0  0  0
    3.5035   -0.5651    5.6674 H   0  0  0  0  0  0  0  0  0  0  0  0
    2.9206   -1.3483    7.1771 H   0  0  0  0  0  0  0  0  0  0  0  0
    1.6118    0.6939    7.7449 H   0  0  0  0  0  0  0  0  0  0  0  0
    3.3440    1.0971    7.4905 H   0  0  0  0  0  0  0  0  0  0  0  0
    2.1381    1.4744    6.2003 H   0  0  0  0  0  0  0  0  0  0  0  0
   -3.6462   -2.1956   -0.4292 H   0  0  0  0  0  0  0  0  0  0  0  0
   -4.1609   -1.3620   -1.8504 H   0  0  0  0  0  0  0  0  0  0  0  0
   -3.3320    0.8385   -1.0170 H   0  0  0  0  0  0  0  0  0  0  0  0
   -4.6254    0.1235    0.0095 H   0  0  0  0  0  0  0  0  0  0  0  0
   -2.9160    0.0740    0.5689 H   0  0  0  0  0  0  0  0  0  0  0  0
   -3.0378   -2.2174    1.5393 H   0  0  0  0  0  0  0  0  0  0  0  0
   -2.0515   -2.8975    2.7790 H   0  0  0  0  0  0  0  0  0  0  0  0
   -2.4448   -4.6691    1.2053 H   0  0  0  0  0  0  0  0  0  0  0  0
   -1.7477   -3.7123   -0.1572 H   0  0  0  0  0  0  0  0  0  0  0  0
   -0.6977   -4.2443    1.2178 H   0  0  0  0  0  0  0  0  0  0  0  0
    0.3141   -1.9928    8.3443 H   0  0  0  0  0  0  0  0  0  0  0  0
    2.9049   -6.8308    5.3225 H   0  0  0  0  0  0  0  0  0  0  0  0
    2.2680   -7.0143   10.2511 H   0  0  0  0  0  0  0  0  0  0  0  0
  1  2  2  3
  2  3  1  0
  3  4  2  0
  3  5  1  0
  5  6  2  0
  6  7  1  0
  7  8  2  0
  8  9  1  0
  9 10  2  0
 10 11  1  0
 11 12  2  3
 12 13  1  0
 13 14  3  0
 12 15  1  0
 15 16  3  0
  8 17  1  0
 17 18  1  0
 18 19  1  0
 19 20  2  0
 20 21  1  0
 21 22  1  0
 21 23  1  0
  1 24  1  0
 24 25  2  0
 25 26  1  0
 26 27  2  0
 27 28  1  0
 28 29  1  0
 29 30  1  0
 27 31  1  0
 31 32  1  0
 32 33  1  0
 33 34  2  0
 34 35  1  0
 35 36  1  0
 33 37  1  0
 37 38  1  0
 38 39  1  0
 39 40  1  0
 40 41  1  0
 41 42  1  0
 42 43  1  0
 41 44  2  0
 44 45  1  0
 45 46  1  0
 46 47  1  0
 47 48  1  0
 48 49  1  0
 49 50  1  0
 50 51  1  0
 51 52  1  0
 52 53  1  0
 48 54  1  0
 54 55  1  0
 44 56  1  0
 56 57  2  3
 57 58  1  0
 58 59  2  0
 58 60  1  0
 60 61  2  0
 61 62  1  0
 62 63  1  0
 62 64  2  0
 64 65  1  0
 64 66  1  0
 66 67  2  0
 67 68  1  0
 68 69  2  3
 69 70  1  0
 70 71  3  0
 69 72  1  0
 72 73  3  0
 11  2  1  0
 23 17  1  0
 28 24  1  0
 50 31  2  0
 68 57  1  0
 10  5  1  0
 22 18  1  0
 51 26  1  0
 67 60  1  0
 23  7  1  0
 36 32  2  0
 49 37  2  0
 47 38  2  0
 46 40  2  0
  1 74  1  0
  6 75  1  0
  9 76  1  0
 17 77  1  0
 18 78  1  0
 19 79  1  0
 20 80  1  0
 21 81  1  0
 22 82  1  0
 22 83  1  0
 23 84  1  0
 25 85  1  0
 29 86  1  0
 29 87  1  0
 30 88  1  0
 30 89  1  0
 30 90  1  0
 42 91  1  0
 42 92  1  0
 43 93  1  0
 43 94  1  0
 43 95  1  0
 52 96  1  0
 52 97  1  0
 53 98  1  0
 53 99  1  0
 53100  1  0
 54101  1  0
 54102  1  0
 55103  1  0
 55104  1  0
 55105  1  0
 56106  1  0
 61107  1  0
 66108  1  0
M  END

