
     RDKit          3D

133150  0  0  0  0  0  0  0  0999 V2000
   -6.3328   -0.9655   -4.5203 C   0  0  0  0  0  0  0  0  0  0  0  0
   -7.0088   -1.3526   -3.4186 C   0  0  0  0  0  0  0  0  0  0  0  0
   -6.6171   -1.0271   -2.0421 C   0  0  0  0  0  0  0  0  0  0  0  0
   -6.1091    0.0608   -1.6580 O   0  0  0  0  0  0  0  0  0  0  0  0
   -6.8878   -2.1644   -1.1917 C   0  0  0  0  0  0  0  0  0  0  0  0
   -6.3671   -2.3978    0.1012 C   0  0  0  0  0  0  0  0  0  0  0  0
   -6.5477   -3.6901    0.5514 C   0  0  0  0  0  0  0  0  0  0  0  0
   -7.2195   -4.6985   -0.2091 C   0  0  0  0  0  0  0  0  0  0  0  0
   -7.7514   -4.4721   -1.4686 C   0  0  0  0  0  0  0  0  0  0  0  0
   -7.5698   -3.1457   -1.9567 C   0  0  0  0  0  0  0  0  0  0  0  0
   -7.8171   -2.6010   -3.3245 C   0  0  0  0  0  0  0  0  0  0  0  0
   -8.7148   -3.0503   -4.2315 C   0  0  0  0  0  0  0  0  0  0  0  0
   -9.0276   -2.2957   -5.4170 C   0  0  0  0  0  0  0  0  0  0  0  0
   -9.2891   -1.6884   -6.3708 N   0  0  0  0  0  0  0  0  0  0  0  0
   -9.5094   -4.2275   -4.0063 C   0  0  0  0  0  0  0  0  0  0  0  0
  -10.1497   -5.1787   -3.8389 N   0  0  0  0  0  0  0  0  0  0  0  0
   -6.9279   -5.7162    0.8582 C   0  0  0  0  0  0  0  0  0  0  0  0
   -8.0902   -6.1667    1.7971 C   0  0  0  0  0  0  0  0  0  0  0  0
   -9.0788   -5.0381    1.9643 C   0  0  0  0  0  0  0  0  0  0  0  0
   -8.4632   -4.0887    2.6693 C   0  0  0  0  0  0  0  0  0  0  0  0
   -7.0702   -4.6050    2.9564 C   0  0  0  0  0  0  0  0  0  0  0  0
   -7.3913   -6.0770    3.1397 C   0  0  0  0  0  0  0  0  0  0  0  0
   -6.2445   -4.6795    1.6375 C   0  0  0  0  0  0  0  0  0  0  0  0
   -4.9710   -0.3928   -4.4343 C   0  0  0  0  0  0  0  0  0  0  0  0
   -4.4288    0.6895   -5.1764 C   0  0  0  0  0  0  0  0  0  0  0  0
   -5.1503    1.5044   -6.1843 C   0  0  0  0  0  0  0  0  0  0  0  0
   -5.8946    0.8961   -7.2095 C   0  0  0  0  0  0  0  0  0  0  0  0
   -6.5605    1.6763   -8.1595 C   0  0  0  0  0  0  0  0  0  0  0  0
   -6.4676    3.0739   -8.1182 C   0  0  0  0  0  0  0  0  0  0  0  0
   -7.2134    3.9191   -9.1204 C   0  0  0  0  0  0  0  0  0  0  0  0
   -8.6279    4.2136   -8.6243 C   0  0  0  0  0  0  0  0  0  0  0  0
   -5.7211    3.6840   -7.1003 C   0  0  0  0  0  0  0  0  0  0  0  0
   -5.0608    2.9027   -6.1460 C   0  0  0  0  0  0  0  0  0  0  0  0
   -3.1079    0.9437   -4.7666 C   0  0  0  0  0  0  0  0  0  0  0  0
   -1.9027    2.0950   -5.1876 S   0  0  0  0  0  0  0  0  0  0  0  0
   -0.8407    1.4740   -4.0108 C   0  0  0  0  0  0  0  0  0  0  0  0
    0.4382    1.6155   -3.5348 C   0  0  0  0  0  0  0  0  0  0  0  0
    1.5280    2.3973   -3.9451 C   0  0  0  0  0  0  0  0  0  0  0  0
    2.7946    2.2001   -3.3056 C   0  0  0  0  0  0  0  0  0  0  0  0
    3.8230    2.9735   -3.7293 N   0  0  0  0  0  0  0  0  0  0  0  0
    3.0480    3.8449   -4.9067 S   0  0  0  0  0  0  0  0  0  0  0  0
    1.4744    3.3251   -4.9315 N   0  0  0  0  0  0  0  0  0  0  0  0
    2.8864    1.2652   -2.2628 C   0  0  0  0  0  0  0  0  0  0  0  0
    3.8702    0.9933   -1.3491 C   0  0  0  0  0  0  0  0  0  0  0  0
    5.4314    1.5200   -0.9360 S   0  0  0  0  0  0  0  0  0  0  0  0
    5.3461    0.6868    0.5584 C   0  0  0  0  0  0  0  0  0  0  0  0
    6.2185    0.5323    1.6432 C   0  0  0  0  0  0  0  0  0  0  0  0
    7.6292    0.9845    1.6381 C   0  0  0  0  0  0  0  0  0  0  0  0
    8.1777    1.6445    2.7471 C   0  0  0  0  0  0  0  0  0  0  0  0
    9.5134    2.0577    2.7361 C   0  0  0  0  0  0  0  0  0  0  0  0
   10.3197    1.8109    1.6105 C   0  0  0  0  0  0  0  0  0  0  0  0
   11.7754    2.1947    1.6083 C   0  0  0  0  0  0  0  0  0  0  0  0
   12.6560    0.9893    1.9143 C   0  0  0  0  0  0  0  0  0  0  0  0
    9.7742    1.1418    0.5062 C   0  0  0  0  0  0  0  0  0  0  0  0
    8.4400    0.7333    0.5185 C   0  0  0  0  0  0  0  0  0  0  0  0
    5.5976   -0.1844    2.6933 C   0  0  0  0  0  0  0  0  0  0  0  0
    4.0349   -0.6637    2.2081 S   0  0  0  0  0  0  0  0  0  0  0  0
    4.1297    0.0881    0.7237 C   0  0  0  0  0  0  0  0  0  0  0  0
    3.3029    0.2404   -0.3713 C   0  0  0  0  0  0  0  0  0  0  0  0
    1.9830    0.0158   -0.5668 N   0  0  0  0  0  0  0  0  0  0  0  0
    1.7650    0.5614   -1.8035 C   0  0  0  0  0  0  0  0  0  0  0  0
    0.5629    0.6492   -2.5256 C   0  0  0  0  0  0  0  0  0  0  0  0
   -0.5388   -0.1560   -2.4626 N   0  0  0  0  0  0  0  0  0  0  0  0
   -1.3792    0.4212   -3.3508 C   0  0  0  0  0  0  0  0  0  0  0  0
   -2.6432    0.0998   -3.7952 C   0  0  0  0  0  0  0  0  0  0  0  0
   -3.7901   -1.0257   -3.3743 S   0  0  0  0  0  0  0  0  0  0  0  0
   -0.6073   -1.5679   -2.0444 C   0  0  0  0  0  0  0  0  0  0  0  0
   -0.3943   -2.5133   -3.2323 C   0  0  0  0  0  0  0  0  0  0  0  0
    1.0014   -0.0676    0.5299 C   0  0  0  0  0  0  0  0  0  0  0  0
    0.9496    1.2421    1.3216 C   0  0  0  0  0  0  0  0  0  0  0  0
    6.2787   -0.6713    3.9077 C   0  0  0  0  0  0  0  0  0  0  0  0
    5.9831   -0.2542    5.1529 C   0  0  0  0  0  0  0  0  0  0  0  0
    6.9767   -0.2467    6.2265 C   0  0  0  0  0  0  0  0  0  0  0  0
    7.9816   -1.0040    6.3122 O   0  0  0  0  0  0  0  0  0  0  0  0
    6.6522    0.8316    7.1369 C   0  0  0  0  0  0  0  0  0  0  0  0
    7.3336    1.2348    8.2954 C   0  0  0  0  0  0  0  0  0  0  0  0
    6.8061    2.3205    9.0048 C   0  0  0  0  0  0  0  0  0  0  0  0
    7.3089    2.8486   10.2028 C   0  0  0  0  0  0  0  0  0  0  0  0
    6.5689    3.9360   10.6628 C   0  0  0  0  0  0  0  0  0  0  0  0
    5.2931    4.2355    9.5872 S   0  0  0  0  0  0  0  0  0  0  0  0
    5.6682    2.9795    8.5403 C   0  0  0  0  0  0  0  0  0  0  0  0
    4.9828    2.5787    7.3866 C   0  0  0  0  0  0  0  0  0  0  0  0
    5.4871    1.4614    6.6979 C   0  0  0  0  0  0  0  0  0  0  0  0
    4.9206    0.7061    5.5503 C   0  0  0  0  0  0  0  0  0  0  0  0
    3.5972    0.4693    5.4142 C   0  0  0  0  0  0  0  0  0  0  0  0
    2.6002    1.4557    5.7460 C   0  0  0  0  0  0  0  0  0  0  0  0
    1.7876    2.2430    5.9959 N   0  0  0  0  0  0  0  0  0  0  0  0
    3.1100   -0.8653    5.1585 C   0  0  0  0  0  0  0  0  0  0  0  0
    2.7133   -1.9363    4.9663 N   0  0  0  0  0  0  0  0  0  0  0  0
   -6.6292   -1.3481   -5.4836 H   0  0  0  0  0  0  0  0  0  0  0  0
   -5.7995   -1.6623    0.6529 H   0  0  0  0  0  0  0  0  0  0  0  0
   -8.1761   -5.2812   -2.0420 H   0  0  0  0  0  0  0  0  0  0  0  0
   -6.2572   -6.5370    0.5190 H   0  0  0  0  0  0  0  0  0  0  0  0
   -8.5362   -7.1517    1.5536 H   0  0  0  0  0  0  0  0  0  0  0  0
  -10.1236   -5.0308    1.6678 H   0  0  0  0  0  0  0  0  0  0  0  0
   -8.9127   -3.1749    3.0412 H   0  0  0  0  0  0  0  0  0  0  0  0
   -6.5561   -4.1168    3.8086 H   0  0  0  0  0  0  0  0  0  0  0  0
   -6.4842   -6.7245    3.2181 H   0  0  0  0  0  0  0  0  0  0  0  0
   -8.0605   -6.2804    4.0084 H   0  0  0  0  0  0  0  0  0  0  0  0
   -5.1567   -4.8695    1.7778 H   0  0  0  0  0  0  0  0  0  0  0  0
   -5.9489   -0.1795   -7.2923 H   0  0  0  0  0  0  0  0  0  0  0  0
   -7.1409    1.1920   -8.9332 H   0  0  0  0  0  0  0  0  0  0  0  0
   -7.2712    3.3985  -10.1006 H   0  0  0  0  0  0  0  0  0  0  0  0
   -6.6828    4.8833   -9.2857 H   0  0  0  0  0  0  0  0  0  0  0  0
   -8.5900    4.7797   -7.6686 H   0  0  0  0  0  0  0  0  0  0  0  0
   -9.1641    4.8273   -9.3804 H   0  0  0  0  0  0  0  0  0  0  0  0
   -9.1902    3.2680   -8.4717 H   0  0  0  0  0  0  0  0  0  0  0  0
   -5.6541    4.7647   -7.0418 H   0  0  0  0  0  0  0  0  0  0  0  0
   -4.5109    3.4002   -5.3589 H   0  0  0  0  0  0  0  0  0  0  0  0
    7.5679    1.8530    3.6182 H   0  0  0  0  0  0  0  0  0  0  0  0
    9.9222    2.5588    3.6053 H   0  0  0  0  0  0  0  0  0  0  0  0
   11.9682    2.9959    2.3571 H   0  0  0  0  0  0  0  0  0  0  0  0
   12.0495    2.6046    0.6103 H   0  0  0  0  0  0  0  0  0  0  0  0
   12.3947    0.5567    2.9034 H   0  0  0  0  0  0  0  0  0  0  0  0
   13.7256    1.2991    1.9326 H   0  0  0  0  0  0  0  0  0  0  0  0
   12.5321    0.2105    1.1300 H   0  0  0  0  0  0  0  0  0  0  0  0
   10.3879    0.9254   -0.3637 H   0  0  0  0  0  0  0  0  0  0  0  0
    8.0470    0.1974   -0.3380 H   0  0  0  0  0  0  0  0  0  0  0  0
   -1.5987   -1.7674   -1.5840 H   0  0  0  0  0  0  0  0  0  0  0  0
    0.1713   -1.8174   -1.2996 H   0  0  0  0  0  0  0  0  0  0  0  0
   -0.8928   -2.1389   -4.1487 H   0  0  0  0  0  0  0  0  0  0  0  0
   -0.8236   -3.5067   -2.9913 H   0  0  0  0  0  0  0  0  0  0  0  0
    0.6904   -2.6291   -3.4366 H   0  0  0  0  0  0  0  0  0  0  0  0
    1.2579   -0.9082    1.2061 H   0  0  0  0  0  0  0  0  0  0  0  0
   -0.0237   -0.2388    0.1524 H   0  0  0  0  0  0  0  0  0  0  0  0
    1.9087    1.4298    1.8394 H   0  0  0  0  0  0  0  0  0  0  0  0
    0.1452    1.1918    2.0845 H   0  0  0  0  0  0  0  0  0  0  0  0
    0.7290    2.0925    0.6361 H   0  0  0  0  0  0  0  0  0  0  0  0
    7.2193   -1.1894    3.7517 H   0  0  0  0  0  0  0  0  0  0  0  0
    8.2263    0.7188    8.6316 H   0  0  0  0  0  0  0  0  0  0  0  0
    8.1747    2.4554   10.7242 H   0  0  0  0  0  0  0  0  0  0  0  0
    6.7739    4.4955   11.5650 H   0  0  0  0  0  0  0  0  0  0  0  0
    4.1074    3.1224    7.0573 H   0  0  0  0  0  0  0  0  0  0  0  0
  1  2  2  3
  2  3  1  0
  3  4  2  0
  3  5  1  0
  5  6  2  0
  6  7  1  0
  7  8  2  0
  8  9  1  0
  9 10  2  0
 10 11  1  0
 11 12  2  3
 12 13  1  0
 13 14  3  0
 12 15  1  0
 15 16  3  0
  8 17  1  0
 17 18  1  0
 18 19  1  0
 19 20  2  0
 20 21  1  0
 21 22  1  0
 21 23  1  0
  1 24  1  0
 24 25  2  0
 25 26  1  0
 26 27  2  0
 27 28  1  0
 28 29  2  0
 29 30  1  0
 30 31  1  0
 29 32  1  0
 32 33  2  0
 25 34  1  0
 34 35  1  0
 35 36  1  0
 36 37  1  0
 37 38  1  0
 38 39  1  0
 39 40  2  0
 40 41  1  0
 41 42  1  0
 39 43  1  0
 43 44  1  0
 44 45  1  0
 45 46  1  0
 46 47  1  0
 47 48  1  0
 48 49  2  0
 49 50  1  0
 50 51  2  0
 51 52  1  0
 52 53  1  0
 51 54  1  0
 54 55  2  0
 47 56  2  0
 56 57  1  0
 57 58  1  0
 58 59  1  0
 59 60  1  0
 60 61  1  0
 61 62  1  0
 62 63  1  0
 63 64  1  0
 64 65  1  0
 65 66  1  0
 63 67  1  0
 67 68  1  0
 60 69  1  0
 69 70  1  0
 56 71  1  0
 71 72  2  3
 72 73  1  0
 73 74  2  0
 73 75  1  0
 75 76  2  0
 76 77  1  0
 77 78  1  0
 78 79  2  0
 79 80  1  0
 80 81  1  0
 81 82  1  0
 82 83  2  0
 83 84  1  0
 84 85  2  3
 85 86  1  0
 86 87  3  0
 85 88  1  0
 88 89  3  0
 11  2  1  0
 23 17  1  0
 66 24  1  0
 84 72  1  0
 10  5  1  0
 22 18  1  0
 33 26  1  0
 65 34  2  0
 83 75  1  0
 23  7  1  0
 64 36  2  0
 81 77  2  0
 62 37  2  0
 42 38  2  0
 61 43  2  0
 59 44  2  0
 58 46  2  0
 55 48  1  0
  1 90  1  0
  6 91  1  0
  9 92  1  0
 17 93  1  0
 18 94  1  0
 19 95  1  0
 20 96  1  0
 21 97  1  0
 22 98  1  0
 22 99  1  0
 23100  1  0
 27101  1  0
 28102  1  0
 30103  1  0
 30104  1  0
 31105  1  0
 31106  1  0
 31107  1  0
 32108  1  0
 33109  1  0
 49110  1  0
 50111  1  0
 52112  1  0
 52113  1  0
 53114  1  0
 53115  1  0
 53116  1  0
 54117  1  0
 55118  1  0
 67119  1  0
 67120  1  0
 68121  1  0
 68122  1  0
 68123  1  0
 69124  1  0
 69125  1  0
 70126  1  0
 70127  1  0
 70128  1  0
 71129  1  0
 76130  1  0
 78131  1  0
 79132  1  0
 82133  1  0
M  END

