
     RDKit          3D

120133  0  0  0  0  0  0  0  0999 V2000
    1.1291    5.5425   -0.2294 C   0  0  0  0  0  0  0  0  0  0  0  0
    2.1082    4.8681   -0.8752 C   0  0  0  0  0  0  0  0  0  0  0  0
    2.1695    3.4036   -1.0251 C   0  0  0  0  0  0  0  0  0  0  0  0
    1.3226    2.5658   -0.6073 O   0  0  0  0  0  0  0  0  0  0  0  0
    3.4255    3.0429   -1.6277 C   0  0  0  0  0  0  0  0  0  0  0  0
    3.8617    1.7341   -1.9437 C   0  0  0  0  0  0  0  0  0  0  0  0
    5.1143    1.6853   -2.5196 C   0  0  0  0  0  0  0  0  0  0  0  0
    5.9046    2.8511   -2.7634 C   0  0  0  0  0  0  0  0  0  0  0  0
    5.4906    4.1334   -2.4438 C   0  0  0  0  0  0  0  0  0  0  0  0
    4.1916    4.2144   -1.8585 C   0  0  0  0  0  0  0  0  0  0  0  0
    3.3985    5.4104   -1.4282 C   0  0  0  0  0  0  0  0  0  0  0  0
    3.7271    6.7192   -1.6246 C   0  0  0  0  0  0  0  0  0  0  0  0
    4.9800    7.1411   -2.1884 C   0  0  0  0  0  0  0  0  0  0  0  0
    5.9796    7.5064   -2.6418 N   0  0  0  0  0  0  0  0  0  0  0  0
    2.8285    7.8077   -1.3395 C   0  0  0  0  0  0  0  0  0  0  0  0
    2.1205    8.6984   -1.1094 N   0  0  0  0  0  0  0  0  0  0  0  0
    6.9823    2.0111   -3.3814 C   0  0  0  0  0  0  0  0  0  0  0  0
    7.0891    2.0588   -4.9353 C   0  0  0  0  0  0  0  0  0  0  0  0
    7.9372    0.8730   -5.3314 C   0  0  0  0  0  0  0  0  0  0  0  0
    7.1986   -0.2171   -5.1001 C   0  0  0  0  0  0  0  0  0  0  0  0
    5.8742    0.2689   -4.5602 C   0  0  0  0  0  0  0  0  0  0  0  0
    5.7363    1.5351   -5.3900 C   0  0  0  0  0  0  0  0  0  0  0  0
    6.1700    0.8155   -3.1314 C   0  0  0  0  0  0  0  0  0  0  0  0
   -0.1612    4.9412    0.1654 C   0  0  0  0  0  0  0  0  0  0  0  0
   -0.6030    5.0636    1.5015 C   0  0  0  0  0  0  0  0  0  0  0  0
   -1.7510    4.3864    1.9367 C   0  0  0  0  0  0  0  0  0  0  0  0
   -2.4615    3.6325    1.0049 C   0  0  0  0  0  0  0  0  0  0  0  0
   -3.4060    2.6491    1.1999 C   0  0  0  0  0  0  0  0  0  0  0  0
   -3.5120    1.9745    0.0144 C   0  0  0  0  0  0  0  0  0  0  0  0
   -2.7038    2.5009   -0.9433 N   0  0  0  0  0  0  0  0  0  0  0  0
   -2.0620    3.5274   -0.3176 C   0  0  0  0  0  0  0  0  0  0  0  0
   -0.9346    4.2229   -0.7718 C   0  0  0  0  0  0  0  0  0  0  0  0
   -2.3938    1.9205   -2.2557 C   0  0  0  0  0  0  0  0  0  0  0  0
   -3.5623    2.1284   -3.2125 C   0  0  0  0  0  0  0  0  0  0  0  0
   -3.7121    0.6485    0.3581 C   0  0  0  0  0  0  0  0  0  0  0  0
   -3.8888   -0.5268   -0.3755 C   0  0  0  0  0  0  0  0  0  0  0  0
   -3.9411   -1.7408    0.2510 C   0  0  0  0  0  0  0  0  0  0  0  0
   -4.1657   -2.6826   -0.6757 N   0  0  0  0  0  0  0  0  0  0  0  0
   -4.2450   -2.0218   -1.8271 N   0  0  0  0  0  0  0  0  0  0  0  0
   -4.5458   -2.6653   -3.0999 C   0  0  0  0  0  0  0  0  0  0  0  0
   -6.0516   -2.7325   -3.3097 C   0  0  0  0  0  0  0  0  0  0  0  0
   -4.0988   -0.7063   -1.6878 N   0  0  0  0  0  0  0  0  0  0  0  0
   -3.7579   -1.8463    1.6384 C   0  0  0  0  0  0  0  0  0  0  0  0
   -3.5431   -0.6782    2.4046 C   0  0  0  0  0  0  0  0  0  0  0  0
   -3.6352    0.5908    1.7556 C   0  0  0  0  0  0  0  0  0  0  0  0
   -3.5222    1.8399    2.2805 N   0  0  0  0  0  0  0  0  0  0  0  0
   -4.0624    2.2763    3.5759 C   0  0  0  0  0  0  0  0  0  0  0  0
   -5.2413    3.2377    3.4029 C   0  0  0  0  0  0  0  0  0  0  0  0
   -2.9569   -0.9903    3.6058 N   0  0  0  0  0  0  0  0  0  0  0  0
   -2.0808   -0.1427    4.4320 C   0  0  0  0  0  0  0  0  0  0  0  0
   -2.5994   -0.0453    5.8703 C   0  0  0  0  0  0  0  0  0  0  0  0
   -2.9136   -2.3490    3.6027 C   0  0  0  0  0  0  0  0  0  0  0  0
   -3.3888   -2.8990    2.4563 C   0  0  0  0  0  0  0  0  0  0  0  0
   -2.8425   -4.1178    2.2020 N   0  0  0  0  0  0  0  0  0  0  0  0
   -3.0530   -4.9810    1.0340 C   0  0  0  0  0  0  0  0  0  0  0  0
   -4.5194   -5.3930    0.9266 C   0  0  0  0  0  0  0  0  0  0  0  0
   -1.9864   -4.3223    3.2429 C   0  0  0  0  0  0  0  0  0  0  0  0
   -1.9960   -3.2472    4.1253 C   0  0  0  0  0  0  0  0  0  0  0  0
   -1.1018   -3.1708    5.1968 C   0  0  0  0  0  0  0  0  0  0  0  0
   -0.1735   -4.2059    5.3616 C   0  0  0  0  0  0  0  0  0  0  0  0
   -0.1252   -5.2826    4.4511 C   0  0  0  0  0  0  0  0  0  0  0  0
   -1.0559   -5.3615    3.3955 C   0  0  0  0  0  0  0  0  0  0  0  0
    0.9314   -6.2943    4.6011 C   0  0  0  0  0  0  0  0  0  0  0  0
    2.0205   -6.3537    3.8217 C   0  0  0  0  0  0  0  0  0  0  0  0
    3.4183   -7.3955    4.2638 S   0  0  0  0  0  0  0  0  0  0  0  0
    4.4390   -6.2909    3.2839 C   0  0  0  0  0  0  0  0  0  0  0  0
    5.6912   -6.2461    3.4124 O   0  0  0  0  0  0  0  0  0  0  0  0
    3.7374   -5.4089    2.4137 N   0  0  0  0  0  0  0  0  0  0  0  0
    4.3699   -4.4451    1.5097 C   0  0  0  0  0  0  0  0  0  0  0  0
    4.8619   -3.2265    2.2831 C   0  0  0  0  0  0  0  0  0  0  0  0
    2.3554   -5.4340    2.7223 C   0  0  0  0  0  0  0  0  0  0  0  0
    1.5228   -4.6867    2.1409 O   0  0  0  0  0  0  0  0  0  0  0  0
    1.2833    6.5523    0.1028 H   0  0  0  0  0  0  0  0  0  0  0  0
    3.2612    0.8495   -1.7707 H   0  0  0  0  0  0  0  0  0  0  0  0
    6.1343    4.9670   -2.6532 H   0  0  0  0  0  0  0  0  0  0  0  0
    7.9485    2.0428   -2.8291 H   0  0  0  0  0  0  0  0  0  0  0  0
    7.4039    3.0315   -5.3694 H   0  0  0  0  0  0  0  0  0  0  0  0
    8.9096    0.8897   -5.8102 H   0  0  0  0  0  0  0  0  0  0  0  0
    7.4684   -1.2343   -5.3644 H   0  0  0  0  0  0  0  0  0  0  0  0
    5.0379   -0.4582   -4.6329 H   0  0  0  0  0  0  0  0  0  0  0  0
    4.8762    2.1799   -5.1027 H   0  0  0  0  0  0  0  0  0  0  0  0
    5.6798    1.3438   -6.4891 H   0  0  0  0  0  0  0  0  0  0  0  0
    6.6209    0.0892   -2.4197 H   0  0  0  0  0  0  0  0  0  0  0  0
   -0.0175    5.6260    2.2187 H   0  0  0  0  0  0  0  0  0  0  0  0
   -2.0420    4.4155    2.9778 H   0  0  0  0  0  0  0  0  0  0  0  0
   -0.5954    4.1441   -1.7938 H   0  0  0  0  0  0  0  0  0  0  0  0
   -1.4952    2.3843   -2.7041 H   0  0  0  0  0  0  0  0  0  0  0  0
   -2.1560    0.8448   -2.1497 H   0  0  0  0  0  0  0  0  0  0  0  0
   -4.5010    1.7275   -2.7765 H   0  0  0  0  0  0  0  0  0  0  0  0
   -3.3565    1.6048   -4.1688 H   0  0  0  0  0  0  0  0  0  0  0  0
   -3.6941    3.2103   -3.4145 H   0  0  0  0  0  0  0  0  0  0  0  0
   -4.0782   -2.0914   -3.9290 H   0  0  0  0  0  0  0  0  0  0  0  0
   -4.1244   -3.6935   -3.1039 H   0  0  0  0  0  0  0  0  0  0  0  0
   -6.2708   -3.2506   -4.2678 H   0  0  0  0  0  0  0  0  0  0  0  0
   -6.5285   -3.2968   -2.4798 H   0  0  0  0  0  0  0  0  0  0  0  0
   -6.4792   -1.7084   -3.3463 H   0  0  0  0  0  0  0  0  0  0  0  0
   -4.4477    1.3996    4.1325 H   0  0  0  0  0  0  0  0  0  0  0  0
   -3.2691    2.7693    4.1729 H   0  0  0  0  0  0  0  0  0  0  0  0
   -6.0167    2.7748    2.7573 H   0  0  0  0  0  0  0  0  0  0  0  0
   -5.6852    3.4635    4.3954 H   0  0  0  0  0  0  0  0  0  0  0  0
   -4.8989    4.1889    2.9466 H   0  0  0  0  0  0  0  0  0  0  0  0
   -1.0544   -0.5627    4.4316 H   0  0  0  0  0  0  0  0  0  0  0  0
   -1.9476    0.8628    4.0021 H   0  0  0  0  0  0  0  0  0  0  0  0
   -1.7786    0.2971    6.5340 H   0  0  0  0  0  0  0  0  0  0  0  0
   -2.9619   -1.0287    6.2322 H   0  0  0  0  0  0  0  0  0  0  0  0
   -3.4307    0.6772    5.9543 H   0  0  0  0  0  0  0  0  0  0  0  0
   -2.7037   -4.4673    0.1178 H   0  0  0  0  0  0  0  0  0  0  0  0
   -2.4536   -5.9096    1.1060 H   0  0  0  0  0  0  0  0  0  0  0  0
   -5.1819   -4.5069    0.9778 H   0  0  0  0  0  0  0  0  0  0  0  0
   -4.7806   -6.0744    1.7645 H   0  0  0  0  0  0  0  0  0  0  0  0
   -4.6949   -5.9164   -0.0346 H   0  0  0  0  0  0  0  0  0  0  0  0
   -1.0960   -2.3432    5.8893 H   0  0  0  0  0  0  0  0  0  0  0  0
    0.5411   -4.1488    6.1743 H   0  0  0  0  0  0  0  0  0  0  0  0
   -0.9984   -6.1838    2.6969 H   0  0  0  0  0  0  0  0  0  0  0  0
    0.8819   -6.9362    5.4718 H   0  0  0  0  0  0  0  0  0  0  0  0
    3.6428   -4.1160    0.7359 H   0  0  0  0  0  0  0  0  0  0  0  0
    5.2230   -4.9234    0.9793 H   0  0  0  0  0  0  0  0  0  0  0  0
    5.1863   -2.4371    1.5703 H   0  0  0  0  0  0  0  0  0  0  0  0
    5.7299   -3.5021    2.9191 H   0  0  0  0  0  0  0  0  0  0  0  0
    4.0511   -2.8187    2.9270 H   0  0  0  0  0  0  0  0  0  0  0  0
  1  2  2  3
  2  3  1  0
  3  4  2  0
  3  5  1  0
  5  6  2  0
  6  7  1  0
  7  8  2  0
  8  9  1  0
  9 10  2  0
 10 11  1  0
 11 12  2  3
 12 13  1  0
 13 14  3  0
 12 15  1  0
 15 16  3  0
  8 17  1  0
 17 18  1  0
 18 19  1  0
 19 20  2  0
 20 21  1  0
 21 22  1  0
 21 23  1  0
  1 24  1  0
 24 25  2  0
 25 26  1  0
 26 27  2  0
 27 28  1  0
 28 29  2  0
 29 30  1  0
 30 31  1  0
 31 32  2  0
 30 33  1  0
 33 34  1  0
 29 35  1  0
 35 36  1  0
 36 37  1  0
 37 38  2  0
 38 39  1  0
 39 40  1  0
 40 41  1  0
 39 42  1  0
 37 43  1  0
 43 44  2  0
 44 45  1  0
 45 46  1  0
 46 47  1  0
 47 48  1  0
 44 49  1  0
 49 50  1  0
 50 51  1  0
 49 52  1  0
 52 53  2  0
 53 54  1  0
 54 55  1  0
 55 56  1  0
 54 57  1  0
 57 58  2  0
 58 59  1  0
 59 60  2  0
 60 61  1  0
 61 62  2  0
 61 63  1  0
 63 64  2  3
 64 65  1  0
 65 66  1  0
 66 67  2  0
 66 68  1  0
 68 69  1  0
 69 70  1  0
 68 71  1  0
 71 72  2  0
 11  2  1  0
 23 17  1  0
 32 24  1  0
 45 35  2  0
 58 52  1  0
 71 64  1  0
 10  5  1  0
 22 18  1  0
 31 27  1  0
 42 36  2  0
 53 43  1  0
 62 57  1  0
 23  7  1  0
 46 28  1  0
  1 73  1  0
  6 74  1  0
  9 75  1  0
 17 76  1  0
 18 77  1  0
 19 78  1  0
 20 79  1  0
 21 80  1  0
 22 81  1  0
 22 82  1  0
 23 83  1  0
 25 84  1  0
 26 85  1  0
 32 86  1  0
 33 87  1  0
 33 88  1  0
 34 89  1  0
 34 90  1  0
 34 91  1  0
 40 92  1  0
 40 93  1  0
 41 94  1  0
 41 95  1  0
 41 96  1  0
 47 97  1  0
 47 98  1  0
 48 99  1  0
 48100  1  0
 48101  1  0
 50102  1  0
 50103  1  0
 51104  1  0
 51105  1  0
 51106  1  0
 55107  1  0
 55108  1  0
 56109  1  0
 56110  1  0
 56111  1  0
 59112  1  0
 60113  1  0
 62114  1  0
 63115  1  0
 69116  1  0
 69117  1  0
 70118  1  0
 70119  1  0
 70120  1  0
M  END

