
     RDKit          3D

112126  0  0  0  0  0  0  0  0999 V2000
    5.3159   -0.0684   -4.1555 C   0  0  0  0  0  0  0  0  0  0  0  0
    5.2726    0.5051   -5.3691 C   0  0  0  0  0  0  0  0  0  0  0  0
    4.0507    0.7507   -6.1467 C   0  0  0  0  0  0  0  0  0  0  0  0
    2.9038    0.2878   -5.9067 O   0  0  0  0  0  0  0  0  0  0  0  0
    4.3588    1.6946   -7.2002 C   0  0  0  0  0  0  0  0  0  0  0  0
    3.4558    2.2649   -8.1293 C   0  0  0  0  0  0  0  0  0  0  0  0
    4.0329    3.1981   -8.9716 C   0  0  0  0  0  0  0  0  0  0  0  0
    5.4138    3.5701   -8.8960 C   0  0  0  0  0  0  0  0  0  0  0  0
    6.2985    3.0289   -7.9790 C   0  0  0  0  0  0  0  0  0  0  0  0
    5.7355    2.0349   -7.1299 C   0  0  0  0  0  0  0  0  0  0  0  0
    6.3839    1.2285   -6.0576 C   0  0  0  0  0  0  0  0  0  0  0  0
    7.7150    0.9878   -5.9179 C   0  0  0  0  0  0  0  0  0  0  0  0
    8.2276   -0.0149   -5.0179 C   0  0  0  0  0  0  0  0  0  0  0  0
    8.6544   -0.8146   -4.2990 N   0  0  0  0  0  0  0  0  0  0  0  0
    8.7081    1.5972   -6.7638 C   0  0  0  0  0  0  0  0  0  0  0  0
    9.5160    2.0713   -7.4426 N   0  0  0  0  0  0  0  0  0  0  0  0
    5.2307    4.5466  -10.0198 C   0  0  0  0  0  0  0  0  0  0  0  0
    5.1777    6.0631   -9.6695 C   0  0  0  0  0  0  0  0  0  0  0  0
    4.5936    6.2584   -8.2893 C   0  0  0  0  0  0  0  0  0  0  0  0
    3.3088    5.9111   -8.3669 C   0  0  0  0  0  0  0  0  0  0  0  0
    3.0604    5.4912   -9.7966 C   0  0  0  0  0  0  0  0  0  0  0  0
    3.9749    6.4770  -10.4974 C   0  0  0  0  0  0  0  0  0  0  0  0
    3.8179    4.1637  -10.1005 C   0  0  0  0  0  0  0  0  0  0  0  0
    4.1884   -0.8117   -3.5822 C   0  0  0  0  0  0  0  0  0  0  0  0
    3.8662   -2.1529   -3.8649 C   0  0  0  0  0  0  0  0  0  0  0  0
    4.5717   -3.0260   -4.8664 C   0  0  0  0  0  0  0  0  0  0  0  0
    3.7335   -3.2068   -6.1265 C   0  0  0  0  0  0  0  0  0  0  0  0
    2.8587   -2.6054   -3.0152 C   0  0  0  0  0  0  0  0  0  0  0  0
    2.4211   -1.6839   -2.0967 C   0  0  0  0  0  0  0  0  0  0  0  0
    3.2692   -0.2485   -2.2639 S   0  0  0  0  0  0  0  0  0  0  0  0
    1.5436   -2.2337   -1.1749 C   0  0  0  0  0  0  0  0  0  0  0  0
    1.3133   -3.5428   -1.4106 C   0  0  0  0  0  0  0  0  0  0  0  0
    2.1600   -4.1421   -2.7528 S   0  0  0  0  0  0  0  0  0  0  0  0
    0.4445   -3.9731   -0.4549 C   0  0  0  0  0  0  0  0  0  0  0  0
   -0.2169   -5.1942   -0.2979 C   0  0  0  0  0  0  0  0  0  0  0  0
   -0.0445   -6.2649   -1.1117 N   0  0  0  0  0  0  0  0  0  0  0  0
   -1.0891   -7.3308   -0.3879 S   0  0  0  0  0  0  0  0  0  0  0  0
   -1.7599   -6.5372    0.9012 N   0  0  0  0  0  0  0  0  0  0  0  0
   -1.1452   -5.3356    0.7705 C   0  0  0  0  0  0  0  0  0  0  0  0
   -1.3309   -4.2604    1.6447 C   0  0  0  0  0  0  0  0  0  0  0  0
   -1.9684   -4.2049    2.8487 C   0  0  0  0  0  0  0  0  0  0  0  0
   -2.8161   -5.2449    3.8931 S   0  0  0  0  0  0  0  0  0  0  0  0
   -2.7031   -4.0991    5.1482 C   0  0  0  0  0  0  0  0  0  0  0  0
   -3.2040   -4.0558    6.4447 C   0  0  0  0  0  0  0  0  0  0  0  0
   -2.8548   -2.8475    7.0639 C   0  0  0  0  0  0  0  0  0  0  0  0
   -1.9321   -1.8747    6.0105 S   0  0  0  0  0  0  0  0  0  0  0  0
   -1.9987   -2.9872    4.7611 C   0  0  0  0  0  0  0  0  0  0  0  0
   -1.5978   -3.0444    3.4374 C   0  0  0  0  0  0  0  0  0  0  0  0
   -0.7524   -2.3031    2.6750 N   0  0  0  0  0  0  0  0  0  0  0  0
    0.1602   -1.2987    3.2240 C   0  0  0  0  0  0  0  0  0  0  0  0
   -0.5301    0.0634    3.3375 C   0  0  0  0  0  0  0  0  0  0  0  0
   -0.6244   -3.0449    1.5230 C   0  0  0  0  0  0  0  0  0  0  0  0
    0.2285   -2.8676    0.3926 C   0  0  0  0  0  0  0  0  0  0  0  0
    0.8647   -1.7486   -0.1040 N   0  0  0  0  0  0  0  0  0  0  0  0
    0.4724   -0.3352    0.0147 C   0  0  0  0  0  0  0  0  0  0  0  0
   -0.9827   -0.1277   -0.3953 C   0  0  0  0  0  0  0  0  0  0  0  0
   -3.4361   -2.3468    8.3119 C   0  0  0  0  0  0  0  0  0  0  0  0
   -4.6198   -1.7014    8.3337 C   0  0  0  0  0  0  0  0  0  0  0  0
   -5.4382   -1.3911    7.1489 C   0  0  0  0  0  0  0  0  0  0  0  0
   -5.2909   -1.8552    5.9869 O   0  0  0  0  0  0  0  0  0  0  0  0
   -6.4361   -0.4161    7.5241 C   0  0  0  0  0  0  0  0  0  0  0  0
   -7.3149    0.2685    6.6904 C   0  0  0  0  0  0  0  0  0  0  0  0
   -8.1014    1.3007    7.2371 C   0  0  0  0  0  0  0  0  0  0  0  0
   -9.0153    2.0257    6.4556 O   0  0  0  0  0  0  0  0  0  0  0  0
   -9.2467    1.7950    5.0677 C   0  0  0  0  0  0  0  0  0  0  0  0
   -7.9607    1.6462    8.6008 C   0  0  0  0  0  0  0  0  0  0  0  0
   -8.7247    2.7142    9.0947 O   0  0  0  0  0  0  0  0  0  0  0  0
   -8.6659    3.1981   10.4326 C   0  0  0  0  0  0  0  0  0  0  0  0
   -7.0570    0.9270    9.4206 C   0  0  0  0  0  0  0  0  0  0  0  0
   -6.3233   -0.1340    8.8711 C   0  0  0  0  0  0  0  0  0  0  0  0
   -5.2662   -0.9929    9.4845 C   0  0  0  0  0  0  0  0  0  0  0  0
   -5.0963   -1.2377   10.8106 C   0  0  0  0  0  0  0  0  0  0  0  0
   -5.9996   -0.7210   11.8055 C   0  0  0  0  0  0  0  0  0  0  0  0
   -6.7327   -0.3335   12.6092 N   0  0  0  0  0  0  0  0  0  0  0  0
   -4.0922   -2.1373   11.3162 C   0  0  0  0  0  0  0  0  0  0  0  0
   -3.2763   -2.8410   11.7348 N   0  0  0  0  0  0  0  0  0  0  0  0
    6.1948    0.0134   -3.5389 H   0  0  0  0  0  0  0  0  0  0  0  0
    2.4053    2.0122   -8.1681 H   0  0  0  0  0  0  0  0  0  0  0  0
    7.3124    3.3832   -7.9219 H   0  0  0  0  0  0  0  0  0  0  0  0
    5.8130    4.2955  -10.9324 H   0  0  0  0  0  0  0  0  0  0  0  0
    6.1096    6.6305   -9.8696 H   0  0  0  0  0  0  0  0  0  0  0  0
    5.0877    6.6786   -7.4216 H   0  0  0  0  0  0  0  0  0  0  0  0
    2.5772    6.0030   -7.5713 H   0  0  0  0  0  0  0  0  0  0  0  0
    1.9967    5.5117  -10.1134 H   0  0  0  0  0  0  0  0  0  0  0  0
    4.0960    6.2760  -11.5895 H   0  0  0  0  0  0  0  0  0  0  0  0
    3.6795    7.5432  -10.3501 H   0  0  0  0  0  0  0  0  0  0  0  0
    3.5408    3.6747  -11.0605 H   0  0  0  0  0  0  0  0  0  0  0  0
    5.5539   -2.5864   -5.1428 H   0  0  0  0  0  0  0  0  0  0  0  0
    4.7715   -4.0213   -4.4134 H   0  0  0  0  0  0  0  0  0  0  0  0
    2.7539   -3.6745   -5.8754 H   0  0  0  0  0  0  0  0  0  0  0  0
    3.5554   -2.2287   -6.6253 H   0  0  0  0  0  0  0  0  0  0  0  0
    4.2679   -3.8753   -6.8347 H   0  0  0  0  0  0  0  0  0  0  0  0
   -3.8322   -4.8183    6.8862 H   0  0  0  0  0  0  0  0  0  0  0  0
    1.0914   -1.2482    2.6260 H   0  0  0  0  0  0  0  0  0  0  0  0
    0.4992   -1.6160    4.2340 H   0  0  0  0  0  0  0  0  0  0  0  0
   -1.1988    0.0944    4.2204 H   0  0  0  0  0  0  0  0  0  0  0  0
    0.2381    0.8607    3.4495 H   0  0  0  0  0  0  0  0  0  0  0  0
   -1.1468    0.2753    2.4392 H   0  0  0  0  0  0  0  0  0  0  0  0
    1.0983    0.2917   -0.6486 H   0  0  0  0  0  0  0  0  0  0  0  0
    0.6640    0.0638    1.0145 H   0  0  0  0  0  0  0  0  0  0  0  0
   -1.2474    0.9472   -0.2974 H   0  0  0  0  0  0  0  0  0  0  0  0
   -1.6624   -0.7176    0.2522 H   0  0  0  0  0  0  0  0  0  0  0  0
   -1.1265   -0.4382   -1.4513 H   0  0  0  0  0  0  0  0  0  0  0  0
   -2.8109   -2.4033    9.1860 H   0  0  0  0  0  0  0  0  0  0  0  0
   -7.3587    0.0122    5.6413 H   0  0  0  0  0  0  0  0  0  0  0  0
  -10.0140    2.5091    4.7026 H   0  0  0  0  0  0  0  0  0  0  0  0
   -8.3097    1.9536    4.4917 H   0  0  0  0  0  0  0  0  0  0  0  0
   -9.6226    0.7626    4.9108 H   0  0  0  0  0  0  0  0  0  0  0  0
   -7.6396    3.5580   10.6600 H   0  0  0  0  0  0  0  0  0  0  0  0
   -9.3703    4.0489   10.5408 H   0  0  0  0  0  0  0  0  0  0  0  0
   -8.9608    2.3970   11.1416 H   0  0  0  0  0  0  0  0  0  0  0  0
   -6.9046    1.2273   10.4443 H   0  0  0  0  0  0  0  0  0  0  0  0
  1  2  2  3
  2  3  1  0
  3  4  2  0
  3  5  1  0
  5  6  2  0
  6  7  1  0
  7  8  2  0
  8  9  1  0
  9 10  2  0
 10 11  1  0
 11 12  2  3
 12 13  1  0
 13 14  3  0
 12 15  1  0
 15 16  3  0
  8 17  1  0
 17 18  1  0
 18 19  1  0
 19 20  2  0
 20 21  1  0
 21 22  1  0
 21 23  1  0
  1 24  1  0
 24 25  2  0
 25 26  1  0
 26 27  1  0
 25 28  1  0
 28 29  2  0
 29 30  1  0
 29 31  1  0
 31 32  2  0
 32 33  1  0
 32 34  1  0
 34 35  1  0
 35 36  2  0
 36 37  1  0
 37 38  1  0
 38 39  2  0
 39 40  1  0
 40 41  1  0
 41 42  1  0
 42 43  1  0
 43 44  1  0
 44 45  2  0
 45 46  1  0
 46 47  1  0
 47 48  1  0
 48 49  1  0
 49 50  1  0
 50 51  1  0
 49 52  1  0
 52 53  1  0
 53 54  1  0
 54 55  1  0
 55 56  1  0
 45 57  1  0
 57 58  2  3
 58 59  1  0
 59 60  2  0
 59 61  1  0
 61 62  2  0
 62 63  1  0
 63 64  1  0
 64 65  1  0
 63 66  2  0
 66 67  1  0
 67 68  1  0
 66 69  1  0
 69 70  2  0
 70 71  1  0
 71 72  2  3
 72 73  1  0
 73 74  3  0
 72 75  1  0
 75 76  3  0
 11  2  1  0
 23 17  1  0
 30 24  1  0
 54 31  1  0
 71 58  1  0
 10  5  1  0
 22 18  1  0
 33 28  1  0
 53 34  2  0
 70 61  1  0
 23  7  1  0
 39 35  1  0
 52 40  2  0
 48 41  2  0
 47 43  2  0
  1 77  1  0
  6 78  1  0
  9 79  1  0
 17 80  1  0
 18 81  1  0
 19 82  1  0
 20 83  1  0
 21 84  1  0
 22 85  1  0
 22 86  1  0
 23 87  1  0
 26 88  1  0
 26 89  1  0
 27 90  1  0
 27 91  1  0
 27 92  1  0
 44 93  1  0
 50 94  1  0
 50 95  1  0
 51 96  1  0
 51 97  1  0
 51 98  1  0
 55 99  1  0
 55100  1  0
 56101  1  0
 56102  1  0
 56103  1  0
 57104  1  0
 62105  1  0
 65106  1  0
 65107  1  0
 65108  1  0
 68109  1  0
 68110  1  0
 68111  1  0
 69112  1  0
M  END

