
     RDKit          3D

111123  0  0  0  0  0  0  0  0999 V2000
   -2.5262    0.7835    4.5783 C   0  0  0  0  0  0  0  0  0  0  0  0
   -2.0199    1.9735    4.9632 C   0  0  0  0  0  0  0  0  0  0  0  0
   -1.2209    2.8782    4.1263 C   0  0  0  0  0  0  0  0  0  0  0  0
   -1.2826    2.9805    2.8719 O   0  0  0  0  0  0  0  0  0  0  0  0
   -0.3990    3.7008    4.9857 C   0  0  0  0  0  0  0  0  0  0  0  0
    0.6564    4.5557    4.5920 C   0  0  0  0  0  0  0  0  0  0  0  0
    1.3725    5.0810    5.6506 C   0  0  0  0  0  0  0  0  0  0  0  0
    1.0775    4.7840    7.0201 C   0  0  0  0  0  0  0  0  0  0  0  0
    0.0367    3.9567    7.4122 C   0  0  0  0  0  0  0  0  0  0  0  0
   -0.7303    3.4252    6.3378 C   0  0  0  0  0  0  0  0  0  0  0  0
   -1.8634    2.4562    6.3693 C   0  0  0  0  0  0  0  0  0  0  0  0
   -2.7114    2.2377    7.4058 C   0  0  0  0  0  0  0  0  0  0  0  0
   -3.9229    1.4752    7.2565 C   0  0  0  0  0  0  0  0  0  0  0  0
   -4.9021    0.8675    7.1444 N   0  0  0  0  0  0  0  0  0  0  0  0
   -2.5364    2.8649    8.6903 C   0  0  0  0  0  0  0  0  0  0  0  0
   -2.4045    3.3636    9.7270 N   0  0  0  0  0  0  0  0  0  0  0  0
    2.2408    5.6178    7.4692 C   0  0  0  0  0  0  0  0  0  0  0  0
    1.9421    7.0125    8.0976 C   0  0  0  0  0  0  0  0  0  0  0  0
    0.6708    7.5811    7.5113 C   0  0  0  0  0  0  0  0  0  0  0  0
    0.9335    7.8636    6.2342 C   0  0  0  0  0  0  0  0  0  0  0  0
    2.3771    7.4799    5.9959 C   0  0  0  0  0  0  0  0  0  0  0  0
    2.9527    7.8607    7.3474 C   0  0  0  0  0  0  0  0  0  0  0  0
    2.5362    5.9300    6.0667 C   0  0  0  0  0  0  0  0  0  0  0  0
   -2.2149    0.1500    3.2815 C   0  0  0  0  0  0  0  0  0  0  0  0
   -3.1075   -0.6141    2.4867 C   0  0  0  0  0  0  0  0  0  0  0  0
   -4.5305   -0.8978    2.8959 C   0  0  0  0  0  0  0  0  0  0  0  0
   -5.4418    0.2959    2.6128 C   0  0  0  0  0  0  0  0  0  0  0  0
   -2.4222   -1.1627    1.3768 C   0  0  0  0  0  0  0  0  0  0  0  0
   -1.1019   -0.9038    1.3931 C   0  0  0  0  0  0  0  0  0  0  0  0
   -0.6281    0.0575    2.6600 S   0  0  0  0  0  0  0  0  0  0  0  0
   -0.5568   -1.3846    0.2586 C   0  0  0  0  0  0  0  0  0  0  0  0
    0.6821   -1.1510   -0.3263 C   0  0  0  0  0  0  0  0  0  0  0  0
    1.7349   -0.4518    0.1193 N   0  0  0  0  0  0  0  0  0  0  0  0
    2.5980   -0.4731   -0.8964 N   0  0  0  0  0  0  0  0  0  0  0  0
    3.8686    0.2406   -0.8748 C   0  0  0  0  0  0  0  0  0  0  0  0
    3.6536    1.7007   -1.2542 C   0  0  0  0  0  0  0  0  0  0  0  0
    2.1372   -1.1181   -1.9695 N   0  0  0  0  0  0  0  0  0  0  0  0
    0.9206   -1.5440   -1.6005 C   0  0  0  0  0  0  0  0  0  0  0  0
   -0.0528   -2.2369   -2.3110 C   0  0  0  0  0  0  0  0  0  0  0  0
   -0.0416   -2.8084   -3.5335 C   0  0  0  0  0  0  0  0  0  0  0  0
    0.9902   -2.9194   -4.8318 S   0  0  0  0  0  0  0  0  0  0  0  0
   -0.1230   -3.8596   -5.7232 C   0  0  0  0  0  0  0  0  0  0  0  0
   -1.2845   -4.1314   -4.9571 C   0  0  0  0  0  0  0  0  0  0  0  0
   -2.4565   -4.9043   -5.5081 C   0  0  0  0  0  0  0  0  0  0  0  0
   -2.2654   -6.4096   -5.3203 C   0  0  0  0  0  0  0  0  0  0  0  0
   -1.1921   -3.4930   -3.6958 C   0  0  0  0  0  0  0  0  0  0  0  0
   -1.9885   -3.4067   -2.5827 N   0  0  0  0  0  0  0  0  0  0  0  0
   -3.0768   -4.3338   -2.2352 C   0  0  0  0  0  0  0  0  0  0  0  0
   -2.8111   -5.0715   -0.9222 C   0  0  0  0  0  0  0  0  0  0  0  0
   -1.3042   -2.5440   -1.7492 C   0  0  0  0  0  0  0  0  0  0  0  0
   -1.6023   -2.0114   -0.4423 C   0  0  0  0  0  0  0  0  0  0  0  0
   -2.7963   -1.7981    0.2203 N   0  0  0  0  0  0  0  0  0  0  0  0
   -4.1490   -1.7570   -0.3600 C   0  0  0  0  0  0  0  0  0  0  0  0
   -4.2021   -0.9191   -1.6388 C   0  0  0  0  0  0  0  0  0  0  0  0
    0.1441   -4.3486   -7.0917 C   0  0  0  0  0  0  0  0  0  0  0  0
    0.8116   -3.6365   -8.0172 C   0  0  0  0  0  0  0  0  0  0  0  0
    1.6327   -4.2576   -9.0556 C   0  0  0  0  0  0  0  0  0  0  0  0
    1.5554   -5.4540   -9.4455 O   0  0  0  0  0  0  0  0  0  0  0  0
    2.6439   -3.2990   -9.4642 C   0  0  0  0  0  0  0  0  0  0  0  0
    3.7619   -3.5056  -10.2726 C   0  0  0  0  0  0  0  0  0  0  0  0
    4.6958   -2.4661  -10.4009 C   0  0  0  0  0  0  0  0  0  0  0  0
    5.8046   -2.6476  -11.1583 F   0  0  0  0  0  0  0  0  0  0  0  0
    4.5069   -1.2540   -9.7094 C   0  0  0  0  0  0  0  0  0  0  0  0
    5.4418   -0.2796   -9.7873 F   0  0  0  0  0  0  0  0  0  0  0  0
    3.3784   -1.0697   -8.8940 C   0  0  0  0  0  0  0  0  0  0  0  0
    2.4338   -2.1026   -8.7992 C   0  0  0  0  0  0  0  0  0  0  0  0
    1.1989   -2.1970   -7.9818 C   0  0  0  0  0  0  0  0  0  0  0  0
    0.3919   -1.1662   -7.6289 C   0  0  0  0  0  0  0  0  0  0  0  0
   -0.9752   -1.3767   -7.2232 C   0  0  0  0  0  0  0  0  0  0  0  0
   -2.0752   -1.5382   -6.8989 N   0  0  0  0  0  0  0  0  0  0  0  0
    0.7890    0.2112   -7.7772 C   0  0  0  0  0  0  0  0  0  0  0  0
    1.0991    1.3218   -7.8929 N   0  0  0  0  0  0  0  0  0  0  0  0
   -3.0447    0.1610    5.2882 H   0  0  0  0  0  0  0  0  0  0  0  0
    0.9186    4.7456    3.5599 H   0  0  0  0  0  0  0  0  0  0  0  0
   -0.1116    3.7087    8.4505 H   0  0  0  0  0  0  0  0  0  0  0  0
    3.0447    5.0372    7.9753 H   0  0  0  0  0  0  0  0  0  0  0  0
    2.0082    7.0583    9.2045 H   0  0  0  0  0  0  0  0  0  0  0  0
   -0.2522    7.8066    8.0362 H   0  0  0  0  0  0  0  0  0  0  0  0
    0.2589    8.3580    5.5413 H   0  0  0  0  0  0  0  0  0  0  0  0
    2.8526    7.9650    5.1177 H   0  0  0  0  0  0  0  0  0  0  0  0
    4.0082    7.5291    7.4916 H   0  0  0  0  0  0  0  0  0  0  0  0
    2.8710    8.9525    7.5712 H   0  0  0  0  0  0  0  0  0  0  0  0
    3.5191    5.5431    5.7210 H   0  0  0  0  0  0  0  0  0  0  0  0
   -4.5651   -1.1207    3.9827 H   0  0  0  0  0  0  0  0  0  0  0  0
   -4.9110   -1.8158    2.4044 H   0  0  0  0  0  0  0  0  0  0  0  0
   -5.1833    1.1402    3.2863 H   0  0  0  0  0  0  0  0  0  0  0  0
   -6.4959    0.0063    2.8020 H   0  0  0  0  0  0  0  0  0  0  0  0
   -5.3469    0.6319    1.5593 H   0  0  0  0  0  0  0  0  0  0  0  0
    4.3091    0.1843    0.1458 H   0  0  0  0  0  0  0  0  0  0  0  0
    4.5788   -0.2305   -1.5882 H   0  0  0  0  0  0  0  0  0  0  0  0
    4.6244    2.2411   -1.2193 H   0  0  0  0  0  0  0  0  0  0  0  0
    3.2345    1.7701   -2.2820 H   0  0  0  0  0  0  0  0  0  0  0  0
    2.9472    2.1793   -0.5407 H   0  0  0  0  0  0  0  0  0  0  0  0
   -2.5515   -4.6977   -6.5950 H   0  0  0  0  0  0  0  0  0  0  0  0
   -3.4111   -4.5619   -5.0606 H   0  0  0  0  0  0  0  0  0  0  0  0
   -1.3457   -6.7573   -5.8405 H   0  0  0  0  0  0  0  0  0  0  0  0
   -3.1357   -6.9516   -5.7474 H   0  0  0  0  0  0  0  0  0  0  0  0
   -2.1723   -6.6787   -4.2469 H   0  0  0  0  0  0  0  0  0  0  0  0
   -3.1631   -5.1270   -2.9885 H   0  0  0  0  0  0  0  0  0  0  0  0
   -4.0518   -3.8198   -2.2553 H   0  0  0  0  0  0  0  0  0  0  0  0
   -1.8090   -5.5526   -0.9519 H   0  0  0  0  0  0  0  0  0  0  0  0
   -3.5791   -5.8604   -0.7764 H   0  0  0  0  0  0  0  0  0  0  0  0
   -2.8553   -4.3919   -0.0515 H   0  0  0  0  0  0  0  0  0  0  0  0
   -4.8558   -1.2716    0.3268 H   0  0  0  0  0  0  0  0  0  0  0  0
   -4.5542   -2.7712   -0.4951 H   0  0  0  0  0  0  0  0  0  0  0  0
   -5.2583   -0.7794   -1.9466 H   0  0  0  0  0  0  0  0  0  0  0  0
   -3.6681   -1.4092   -2.4737 H   0  0  0  0  0  0  0  0  0  0  0  0
   -3.7508    0.0794   -1.4559 H   0  0  0  0  0  0  0  0  0  0  0  0
   -0.0646   -5.3905   -7.2914 H   0  0  0  0  0  0  0  0  0  0  0  0
    3.9239   -4.4568  -10.7617 H   0  0  0  0  0  0  0  0  0  0  0  0
    3.2875   -0.1584   -8.3228 H   0  0  0  0  0  0  0  0  0  0  0  0
  1  2  2  3
  2  3  1  0
  3  4  2  0
  3  5  1  0
  5  6  2  0
  6  7  1  0
  7  8  2  0
  8  9  1  0
  9 10  2  0
 10 11  1  0
 11 12  2  3
 12 13  1  0
 13 14  3  0
 12 15  1  0
 15 16  3  0
  8 17  1  0
 17 18  1  0
 18 19  1  0
 19 20  2  0
 20 21  1  0
 21 22  1  0
 21 23  1  0
  1 24  1  0
 24 25  2  0
 25 26  1  0
 26 27  1  0
 25 28  1  0
 28 29  2  0
 29 30  1  0
 29 31  1  0
 31 32  1  0
 32 33  2  0
 33 34  1  0
 34 35  1  0
 35 36  1  0
 34 37  1  0
 37 38  2  0
 38 39  1  0
 39 40  1  0
 40 41  1  0
 41 42  1  0
 42 43  2  0
 43 44  1  0
 44 45  1  0
 43 46  1  0
 46 47  1  0
 47 48  1  0
 48 49  1  0
 47 50  1  0
 50 51  1  0
 51 52  1  0
 52 53  1  0
 53 54  1  0
 42 55  1  0
 55 56  2  3
 56 57  1  0
 57 58  2  0
 57 59  1  0
 59 60  2  0
 60 61  1  0
 61 62  1  0
 61 63  2  0
 63 64  1  0
 63 65  1  0
 65 66  2  0
 66 67  1  0
 67 68  2  3
 68 69  1  0
 69 70  3  0
 68 71  1  0
 71 72  3  0
 11  2  1  0
 23 17  1  0
 30 24  1  0
 51 31  2  0
 67 56  1  0
 10  5  1  0
 22 18  1  0
 52 28  1  0
 66 59  1  0
 23  7  1  0
 38 32  1  0
 50 39  2  0
 46 40  2  0
  1 73  1  0
  6 74  1  0
  9 75  1  0
 17 76  1  0
 18 77  1  0
 19 78  1  0
 20 79  1  0
 21 80  1  0
 22 81  1  0
 22 82  1  0
 23 83  1  0
 26 84  1  0
 26 85  1  0
 27 86  1  0
 27 87  1  0
 27 88  1  0
 35 89  1  0
 35 90  1  0
 36 91  1  0
 36 92  1  0
 36 93  1  0
 44 94  1  0
 44 95  1  0
 45 96  1  0
 45 97  1  0
 45 98  1  0
 48 99  1  0
 48100  1  0
 49101  1  0
 49102  1  0
 49103  1  0
 53104  1  0
 53105  1  0
 54106  1  0
 54107  1  0
 54108  1  0
 55109  1  0
 60110  1  0
 65111  1  0
M  END

