
     RDKit          3D

164184  0  0  0  0  0  0  0  0999 V2000
   -2.2643    6.3417    3.5237 C   0  0  0  0  0  0  0  0  0  0  0  0
   -3.3791    5.6044    3.4620 C   0  0  0  0  0  0  0  0  0  0  0  0
   -3.8433    4.6480    2.4910 C   0  0  0  0  0  0  0  0  0  0  0  0
   -3.4335    4.5977    1.2803 O   0  0  0  0  0  0  0  0  0  0  0  0
   -4.8163    3.7788    3.0739 C   0  0  0  0  0  0  0  0  0  0  0  0
   -5.4210    2.6647    2.4585 C   0  0  0  0  0  0  0  0  0  0  0  0
   -6.2384    1.8794    3.2031 C   0  0  0  0  0  0  0  0  0  0  0  0
   -6.4852    2.1511    4.5380 C   0  0  0  0  0  0  0  0  0  0  0  0
   -5.8782    3.2667    5.1236 C   0  0  0  0  0  0  0  0  0  0  0  0
   -5.0388    4.0882    4.4029 C   0  0  0  0  0  0  0  0  0  0  0  0
   -4.1523    5.2435    4.7129 C   0  0  0  0  0  0  0  0  0  0  0  0
   -3.8075    5.5015    5.9643 C   0  0  0  0  0  0  0  0  0  0  0  0
   -4.4620    5.2406    7.1606 C   0  0  0  0  0  0  0  0  0  0  0  0
   -4.9957    5.0075    8.1498 N   0  0  0  0  0  0  0  0  0  0  0  0
   -2.3396    5.6770    6.0830 C   0  0  0  0  0  0  0  0  0  0  0  0
   -1.1712    5.8177    6.1921 N   0  0  0  0  0  0  0  0  0  0  0  0
   -7.3526    0.9286    4.6708 C   0  0  0  0  0  0  0  0  0  0  0  0
   -6.7149   -0.2537    5.3520 C   0  0  0  0  0  0  0  0  0  0  0  0
   -7.4250   -1.4557    4.9311 C   0  0  0  0  0  0  0  0  0  0  0  0
   -7.1768   -1.7199    3.6538 C   0  0  0  0  0  0  0  0  0  0  0  0
   -6.2853   -0.6201    3.1935 C   0  0  0  0  0  0  0  0  0  0  0  0
   -5.4553   -0.3825    4.4856 C   0  0  0  0  0  0  0  0  0  0  0  0
   -7.0705    0.6349    3.2084 C   0  0  0  0  0  0  0  0  0  0  0  0
   -1.2570    6.1266    2.4395 C   0  0  0  0  0  0  0  0  0  0  0  0
    0.0318    5.7606    2.8907 C   0  0  0  0  0  0  0  0  0  0  0  0
    0.8504    5.3048    1.9456 C   0  0  0  0  0  0  0  0  0  0  0  0
    2.5837    4.3297    2.0324 Se  0  0  0  0  0  2  0  0  0  0  0  0
    2.4308    3.9730    0.1028 C   0  0  0  0  0  0  0  0  0  0  0  0
    3.1077    3.2007   -0.9102 C   0  0  0  0  0  0  0  0  0  0  0  0
    4.1465    2.2643   -0.7359 C   0  0  0  0  0  0  0  0  0  0  0  0
    4.3668    1.4155   -1.8172 C   0  0  0  0  0  0  0  0  0  0  0  0
    5.1530    0.1494   -1.8416 C   0  0  0  0  0  0  0  0  0  0  0  0
    4.7651   -0.6022   -0.5631 C   0  0  0  0  0  0  0  0  0  0  0  0
    5.5654   -0.4721    0.5145 C   0  0  0  0  0  0  0  0  0  0  0  0
    5.1782   -1.1829    1.6697 C   0  0  0  0  0  0  0  0  0  0  0  0
    4.0606   -1.9650    1.7427 C   0  0  0  0  0  0  0  0  0  0  0  0
    3.6946   -2.7105    2.9658 C   0  0  0  0  0  0  0  0  0  0  0  0
    2.8375   -1.7877    3.8465 C   0  0  0  0  0  0  0  0  0  0  0  0
    3.2800   -2.0475    0.5936 C   0  0  0  0  0  0  0  0  0  0  0  0
    3.6365   -1.3565   -0.5818 C   0  0  0  0  0  0  0  0  0  0  0  0
    6.5513    0.4113   -1.7496 C   0  0  0  0  0  0  0  0  0  0  0  0
    7.4549   -0.5942   -1.3331 C   0  0  0  0  0  0  0  0  0  0  0  0
    8.7869   -0.3083   -1.1103 C   0  0  0  0  0  0  0  0  0  0  0  0
    9.3254    0.9358   -1.2752 C   0  0  0  0  0  0  0  0  0  0  0  0
   10.7426    1.2944   -0.9737 C   0  0  0  0  0  0  0  0  0  0  0  0
   10.8514    1.7756    0.4853 C   0  0  0  0  0  0  0  0  0  0  0  0
    8.4502    1.9362   -1.6953 C   0  0  0  0  0  0  0  0  0  0  0  0
    7.1038    1.6730   -1.9244 C   0  0  0  0  0  0  0  0  0  0  0  0
    4.6052   -0.6306   -2.9998 C   0  0  0  0  0  0  0  0  0  0  0  0
    3.8343    0.2487   -3.6687 C   0  0  0  0  0  0  0  0  0  0  0  0
    3.6580    1.5066   -2.9320 C   0  0  0  0  0  0  0  0  0  0  0  0
    2.6240    2.4692   -3.0778 C   0  0  0  0  0  0  0  0  0  0  0  0
    2.3624    3.3087   -2.0104 C   0  0  0  0  0  0  0  0  0  0  0  0
    1.1581    4.1536   -1.7044 C   0  0  0  0  0  0  0  0  0  0  0  0
    0.0390    3.1090   -1.6203 C   0  0  0  0  0  0  0  0  0  0  0  0
    0.3567    1.8006   -1.3291 C   0  0  0  0  0  0  0  0  0  0  0  0
   -0.6409    0.8220   -1.1958 C   0  0  0  0  0  0  0  0  0  0  0  0
   -1.9911    1.1311   -1.3512 C   0  0  0  0  0  0  0  0  0  0  0  0
   -2.9595    0.0493   -1.2292 C   0  0  0  0  0  0  0  0  0  0  0  0
   -3.2452   -0.0901    0.2777 C   0  0  0  0  0  0  0  0  0  0  0  0
   -2.2384    2.4451   -1.6478 C   0  0  0  0  0  0  0  0  0  0  0  0
   -1.2541    3.4382   -1.7781 C   0  0  0  0  0  0  0  0  0  0  0  0
    0.7766    5.1144   -2.6507 C   0  0  0  0  0  0  0  0  0  0  0  0
    0.1296    4.5838   -3.8134 C   0  0  0  0  0  0  0  0  0  0  0  0
   -0.2854    5.3468   -4.8530 C   0  0  0  0  0  0  0  0  0  0  0  0
   -0.1037    6.7196   -4.8454 C   0  0  0  0  0  0  0  0  0  0  0  0
   -0.5563    7.5009   -6.0453 C   0  0  0  0  0  0  0  0  0  0  0  0
   -1.9927    7.8591   -5.9097 C   0  0  0  0  0  0  0  0  0  0  0  0
    0.5049    7.2731   -3.7595 C   0  0  0  0  0  0  0  0  0  0  0  0
    0.9348    6.4861   -2.6913 C   0  0  0  0  0  0  0  0  0  0  0  0
    1.3073    4.5498   -0.2310 C   0  0  0  0  0  0  0  0  0  0  0  0
    0.5169    5.2085    0.6810 C   0  0  0  0  0  0  0  0  0  0  0  0
   -1.1624    5.8345    0.8084 S   0  0  0  0  0  0  0  0  0  0  0  0
    3.0743   -0.6467   -5.1210 Se  0  0  0  0  0  2  0  0  0  0  0  0
    4.0698   -2.4294   -4.4886 C   0  0  0  0  0  0  0  0  0  0  0  0
    3.8317   -3.6797   -4.8318 C   0  0  0  0  0  0  0  0  0  0  0  0
    4.3042   -4.5490   -3.8670 C   0  0  0  0  0  0  0  0  0  0  0  0
    5.0255   -3.5103   -2.6794 S   0  0  0  0  0  0  0  0  0  0  0  0
    4.6350   -1.9372   -3.4987 C   0  0  0  0  0  0  0  0  0  0  0  0
    3.8619   -5.9462   -3.7206 C   0  0  0  0  0  0  0  0  0  0  0  0
    2.4990   -6.0282   -3.3058 C   0  0  0  0  0  0  0  0  0  0  0  0
    1.7100   -4.8789   -3.0673 C   0  0  0  0  0  0  0  0  0  0  0  0
    1.9643   -3.6309   -3.1814 O   0  0  0  0  0  0  0  0  0  0  0  0
    0.4006   -5.3247   -2.6077 C   0  0  0  0  0  0  0  0  0  0  0  0
   -0.7115   -4.5223   -2.4085 C   0  0  0  0  0  0  0  0  0  0  0  0
   -1.8891   -5.1777   -2.1538 C   0  0  0  0  0  0  0  0  0  0  0  0
   -1.9491   -6.5247   -2.0948 C   0  0  0  0  0  0  0  0  0  0  0  0
   -0.7691   -7.2792   -2.3104 C   0  0  0  0  0  0  0  0  0  0  0  0
    0.4210   -6.6567   -2.5666 C   0  0  0  0  0  0  0  0  0  0  0  0
    1.8881   -7.2560   -3.0479 C   0  0  0  0  0  0  0  0  0  0  0  0
    1.6265   -8.4830   -3.3523 C   0  0  0  0  0  0  0  0  0  0  0  0
    1.7984   -9.4088   -4.2173 C   0  0  0  0  0  0  0  0  0  0  0  0
    1.9919  -10.3307   -5.0805 N   0  0  0  0  0  0  0  0  0  0  0  0
    1.0406   -9.1636   -1.9655 C   0  0  0  0  0  0  0  0  0  0  0  0
    0.6616   -9.6319   -1.0473 N   0  0  0  0  0  0  0  0  0  0  0  0
   -3.3830   -6.5556   -1.7515 C   0  0  0  0  0  0  0  0  0  0  0  0
   -3.7369   -6.6757   -0.3177 C   0  0  0  0  0  0  0  0  0  0  0  0
   -5.1483   -6.2809   -0.1879 C   0  0  0  0  0  0  0  0  0  0  0  0
   -5.2547   -5.0208   -0.5763 C   0  0  0  0  0  0  0  0  0  0  0  0
   -3.8951   -4.4762   -0.7532 C   0  0  0  0  0  0  0  0  0  0  0  0
   -3.1170   -5.3684    0.2424 C   0  0  0  0  0  0  0  0  0  0  0  0
   -3.3422   -5.0304   -2.0038 C   0  0  0  0  0  0  0  0  0  0  0  0
   -2.0436    7.0930    4.2120 H   0  0  0  0  0  0  0  0  0  0  0  0
   -5.2377    2.4349    1.4207 H   0  0  0  0  0  0  0  0  0  0  0  0
   -6.0685    3.4832    6.1365 H   0  0  0  0  0  0  0  0  0  0  0  0
   -8.4291    1.1175    4.8851 H   0  0  0  0  0  0  0  0  0  0  0  0
   -6.5164   -0.1524    6.4144 H   0  0  0  0  0  0  0  0  0  0  0  0
   -8.0746   -2.1233    5.5512 H   0  0  0  0  0  0  0  0  0  0  0  0
   -7.5043   -2.5301    3.0301 H   0  0  0  0  0  0  0  0  0  0  0  0
   -5.6620   -0.8545    2.3652 H   0  0  0  0  0  0  0  0  0  0  0  0
   -4.8417   -1.2669    4.7484 H   0  0  0  0  0  0  0  0  0  0  0  0
   -4.9004    0.5531    4.4447 H   0  0  0  0  0  0  0  0  0  0  0  0
   -7.9493    0.6746    2.5610 H   0  0  0  0  0  0  0  0  0  0  0  0
    0.2992    5.8641    3.9539 H   0  0  0  0  0  0  0  0  0  0  0  0
    4.6917    2.2542    0.1519 H   0  0  0  0  0  0  0  0  0  0  0  0
    6.4750    0.1404    0.5966 H   0  0  0  0  0  0  0  0  0  0  0  0
    5.8376   -1.0780    2.5302 H   0  0  0  0  0  0  0  0  0  0  0  0
    3.1508   -3.6541    2.7249 H   0  0  0  0  0  0  0  0  0  0  0  0
    4.6404   -2.9081    3.5095 H   0  0  0  0  0  0  0  0  0  0  0  0
    2.8629   -2.1100    4.9208 H   0  0  0  0  0  0  0  0  0  0  0  0
    3.1445   -0.7402    3.6909 H   0  0  0  0  0  0  0  0  0  0  0  0
    1.7424   -1.8414    3.5575 H   0  0  0  0  0  0  0  0  0  0  0  0
    2.3723   -2.6490    0.5860 H   0  0  0  0  0  0  0  0  0  0  0  0
    3.0124   -1.4200   -1.4905 H   0  0  0  0  0  0  0  0  0  0  0  0
    7.0570   -1.5551   -1.1950 H   0  0  0  0  0  0  0  0  0  0  0  0
    9.4742   -1.1018   -0.7855 H   0  0  0  0  0  0  0  0  0  0  0  0
   11.1218    2.0875   -1.6143 H   0  0  0  0  0  0  0  0  0  0  0  0
   11.3919    0.4267   -1.0319 H   0  0  0  0  0  0  0  0  0  0  0  0
   10.6885    0.9361    1.1911 H   0  0  0  0  0  0  0  0  0  0  0  0
   11.8173    2.2328    0.7113 H   0  0  0  0  0  0  0  0  0  0  0  0
   10.0429    2.4835    0.6541 H   0  0  0  0  0  0  0  0  0  0  0  0
    8.8530    2.9346   -1.8512 H   0  0  0  0  0  0  0  0  0  0  0  0
    6.4136    2.4437   -2.2568 H   0  0  0  0  0  0  0  0  0  0  0  0
    2.0980    2.5164   -3.9729 H   0  0  0  0  0  0  0  0  0  0  0  0
    1.3804    1.4996   -1.1944 H   0  0  0  0  0  0  0  0  0  0  0  0
   -0.4003   -0.2188   -0.9579 H   0  0  0  0  0  0  0  0  0  0  0  0
   -2.6586   -0.8862   -1.6845 H   0  0  0  0  0  0  0  0  0  0  0  0
   -3.8993    0.3962   -1.6818 H   0  0  0  0  0  0  0  0  0  0  0  0
   -2.3005   -0.3846    0.8226 H   0  0  0  0  0  0  0  0  0  0  0  0
   -3.9971   -0.8670    0.3921 H   0  0  0  0  0  0  0  0  0  0  0  0
   -3.5796    0.8724    0.6897 H   0  0  0  0  0  0  0  0  0  0  0  0
   -3.3118    2.7359   -1.7693 H   0  0  0  0  0  0  0  0  0  0  0  0
   -1.5457    4.4333   -2.0116 H   0  0  0  0  0  0  0  0  0  0  0  0
   -0.0424    3.5086   -3.8662 H   0  0  0  0  0  0  0  0  0  0  0  0
   -0.7805    4.8422   -5.7107 H   0  0  0  0  0  0  0  0  0  0  0  0
    0.1348    8.2998   -6.2987 H   0  0  0  0  0  0  0  0  0  0  0  0
   -0.5084    6.7458   -6.8998 H   0  0  0  0  0  0  0  0  0  0  0  0
   -2.2716    8.8621   -6.2739 H   0  0  0  0  0  0  0  0  0  0  0  0
   -2.4007    7.7660   -4.8580 H   0  0  0  0  0  0  0  0  0  0  0  0
   -2.6835    7.1275   -6.4590 H   0  0  0  0  0  0  0  0  0  0  0  0
    0.6720    8.3355   -3.7298 H   0  0  0  0  0  0  0  0  0  0  0  0
    1.4340    6.9132   -1.8093 H   0  0  0  0  0  0  0  0  0  0  0  0
    3.3336   -4.0377   -5.7179 H   0  0  0  0  0  0  0  0  0  0  0  0
    4.4056   -6.7663   -3.8783 H   0  0  0  0  0  0  0  0  0  0  0  0
   -0.6743   -3.4436   -2.4446 H   0  0  0  0  0  0  0  0  0  0  0  0
   -0.9243   -8.3374   -2.3187 H   0  0  0  0  0  0  0  0  0  0  0  0
   -4.0483   -7.0840   -2.4802 H   0  0  0  0  0  0  0  0  0  0  0  0
   -3.4255   -7.5415    0.2227 H   0  0  0  0  0  0  0  0  0  0  0  0
   -5.9642   -6.8983    0.1752 H   0  0  0  0  0  0  0  0  0  0  0  0
   -6.2013   -4.4582   -0.7456 H   0  0  0  0  0  0  0  0  0  0  0  0
   -3.7963   -3.4001   -0.5719 H   0  0  0  0  0  0  0  0  0  0  0  0
   -3.4605   -5.1617    1.2570 H   0  0  0  0  0  0  0  0  0  0  0  0
   -2.0529   -5.3191    0.0528 H   0  0  0  0  0  0  0  0  0  0  0  0
   -3.8793   -4.7486   -2.9466 H   0  0  0  0  0  0  0  0  0  0  0  0
  1  2  2  3
  2  3  1  0
  3  4  2  0
  3  5  1  0
  5  6  2  0
  6  7  1  0
  7  8  2  0
  8  9  1  0
  9 10  2  0
 10 11  1  0
 11 12  2  3
 12 13  1  0
 13 14  3  0
 12 15  1  0
 15 16  3  0
  8 17  1  0
 17 18  1  0
 18 19  1  0
 19 20  2  0
 20 21  1  0
 21 22  1  0
 21 23  1  0
  1 24  1  0
 24 25  2  0
 25 26  1  0
 26 27  1  0
 27 28  1  0
 28 29  1  0
 29 30  2  0
 30 31  1  0
 31 32  1  0
 32 33  1  0
 33 34  2  0
 34 35  1  0
 35 36  2  0
 36 37  1  0
 37 38  1  0
 36 39  1  0
 39 40  2  0
 32 41  1  0
 41 42  2  0
 42 43  1  0
 43 44  2  0
 44 45  1  0
 45 46  1  0
 44 47  1  0
 47 48  2  0
 32 49  1  0
 49 50  2  0
 50 51  1  0
 51 52  1  0
 52 53  2  0
 53 54  1  0
 54 55  1  0
 55 56  2  0
 56 57  1  0
 57 58  2  0
 58 59  1  0
 59 60  1  0
 58 61  1  0
 61 62  2  0
 54 63  1  0
 63 64  2  0
 64 65  1  0
 65 66  2  0
 66 67  1  0
 67 68  1  0
 66 69  1  0
 69 70  2  0
 54 71  1  0
 71 72  1  0
 72 73  1  0
 50 74  1  0
 74 75  1  0
 75 76  1  0
 76 77  2  0
 77 78  1  0
 78 79  1  0
 77 80  1  0
 80 81  2  3
 81 82  1  0
 82 83  2  0
 82 84  1  0
 84 85  2  0
 85 86  1  0
 86 87  2  0
 87 88  1  0
 88 89  2  0
 89 90  1  0
 90 91  2  3
 91 92  1  0
 92 93  3  0
 91 94  1  0
 94 95  3  0
 87 96  1  0
 96 97  1  0
 97 98  1  0
 98 99  2  0
 99100  1  0
100101  1  0
100102  1  0
 11  2  1  0
 23 17  1  0
 73 24  1  0
 79 75  2  0
 90 81  1  0
102 96  1  0
 10  5  1  0
 22 18  1  0
 72 26  2  0
 89 84  1  0
101 97  1  0
 23  7  1  0
 71 28  2  0
102 86  1  0
 53 29  1  0
 62 55  1  0
 70 63  1  0
 51 31  2  0
 40 33  1  0
 48 41  1  0
 79 49  1  0
  1103  1  0
  6104  1  0
  9105  1  0
 17106  1  0
 18107  1  0
 19108  1  0
 20109  1  0
 21110  1  0
 22111  1  0
 22112  1  0
 23113  1  0
 25114  1  0
 30115  1  0
 34116  1  0
 35117  1  0
 37118  1  0
 37119  1  0
 38120  1  0
 38121  1  0
 38122  1  0
 39123  1  0
 40124  1  0
 42125  1  0
 43126  1  0
 45127  1  0
 45128  1  0
 46129  1  0
 46130  1  0
 46131  1  0
 47132  1  0
 48133  1  0
 52134  1  0
 56135  1  0
 57136  1  0
 59137  1  0
 59138  1  0
 60139  1  0
 60140  1  0
 60141  1  0
 61142  1  0
 62143  1  0
 64144  1  0
 65145  1  0
 67146  1  0
 67147  1  0
 68148  1  0
 68149  1  0
 68150  1  0
 69151  1  0
 70152  1  0
 76153  1  0
 80154  1  0
 85155  1  0
 88156  1  0
 96157  1  0
 97158  1  0
 98159  1  0
 99160  1  0
100161  1  0
101162  1  0
101163  1  0
102164  1  0
M  END

