
     RDKit          3D

116130  0  0  0  0  0  0  0  0999 V2000
   -2.9108   -3.3015    5.7060 C   0  0  0  0  0  0  0  0  0  0  0  0
   -3.7008   -3.0518    4.6350 C   0  0  0  0  0  0  0  0  0  0  0  0
   -3.2482   -2.4397    3.3980 C   0  0  0  0  0  0  0  0  0  0  0  0
   -2.0279   -2.2080    3.0407 O   0  0  0  0  0  0  0  0  0  0  0  0
   -4.3736   -2.0958    2.5266 C   0  0  0  0  0  0  0  0  0  0  0  0
   -4.3913   -1.4802    1.3009 C   0  0  0  0  0  0  0  0  0  0  0  0
   -5.5928   -1.2262    0.6731 C   0  0  0  0  0  0  0  0  0  0  0  0
   -6.7169   -1.6085    1.3085 C   0  0  0  0  0  0  0  0  0  0  0  0
   -6.7249   -2.2319    2.5441 C   0  0  0  0  0  0  0  0  0  0  0  0
   -5.5187   -2.4906    3.1858 C   0  0  0  0  0  0  0  0  0  0  0  0
   -5.1594   -3.0921    4.5017 C   0  0  0  0  0  0  0  0  0  0  0  0
   -5.9555   -3.6414    5.3655 C   0  0  0  0  0  0  0  0  0  0  0  0
   -5.5783   -4.2777    6.5498 C   0  0  0  0  0  0  0  0  0  0  0  0
   -5.2546   -4.8637    7.6062 N   0  0  0  0  0  0  0  0  0  0  0  0
   -7.3833   -3.6825    5.1477 C   0  0  0  0  0  0  0  0  0  0  0  0
   -8.5691   -3.7165    4.9610 N   0  0  0  0  0  0  0  0  0  0  0  0
   -7.5174   -1.0362    0.1863 C   0  0  0  0  0  0  0  0  0  0  0  0
   -8.1546    0.3000    0.5374 C   0  0  0  0  0  0  0  0  0  0  0  0
   -8.4924    0.9961   -0.7348 C   0  0  0  0  0  0  0  0  0  0  0  0
   -7.3681    1.3010   -1.3478 C   0  0  0  0  0  0  0  0  0  0  0  0
   -6.2403    0.8599   -0.4870 C   0  0  0  0  0  0  0  0  0  0  0  0
   -6.8776    1.0969    0.8864 C   0  0  0  0  0  0  0  0  0  0  0  0
   -6.2522   -0.6563   -0.5171 C   0  0  0  0  0  0  0  0  0  0  0  0
   -1.4998   -2.8937    5.5902 C   0  0  0  0  0  0  0  0  0  0  0  0
   -0.3009   -3.4207    5.7358 C   0  0  0  0  0  0  0  0  0  0  0  0
   -0.1067   -4.8531    6.1743 C   0  0  0  0  0  0  0  0  0  0  0  0
   -0.4005   -5.6963    4.9201 C   0  0  0  0  0  0  0  0  0  0  0  0
    0.7970   -2.6175    5.3624 C   0  0  0  0  0  0  0  0  0  0  0  0
    2.5259   -2.7837    5.1524 S   0  0  0  0  0  0  0  0  0  0  0  0
    2.8161   -1.2428    4.4139 C   0  0  0  0  0  0  0  0  0  0  0  0
    3.7504   -0.5174    3.6625 C   0  0  0  0  0  0  0  0  0  0  0  0
    5.0307   -0.9759    3.2405 C   0  0  0  0  0  0  0  0  0  0  0  0
    5.6052   -0.3267    2.2217 C   0  0  0  0  0  0  0  0  0  0  0  0
    6.8149   -0.6665    1.7805 N   0  0  0  0  0  0  0  0  0  0  0  0
    7.1976   -2.1998    3.0622 Se  0  0  0  0  0  2  0  0  0  0  0  0
    5.6924   -1.9790    3.8167 N   0  0  0  0  0  0  0  0  0  0  0  0
    4.8902    0.7434    1.6579 C   0  0  0  0  0  0  0  0  0  0  0  0
    5.0484    1.3496    0.3836 C   0  0  0  0  0  0  0  0  0  0  0  0
    5.9350    1.2290   -1.0731 S   0  0  0  0  0  0  0  0  0  0  0  0
    4.8685    2.1670   -2.0917 C   0  0  0  0  0  0  0  0  0  0  0  0
    4.7272    2.3531   -3.4269 C   0  0  0  0  0  0  0  0  0  0  0  0
    5.7310    2.0271   -4.4960 C   0  0  0  0  0  0  0  0  0  0  0  0
    6.8137    3.0775   -4.6029 C   0  0  0  0  0  0  0  0  0  0  0  0
    3.5232    2.9407   -3.8231 C   0  0  0  0  0  0  0  0  0  0  0  0
    2.7444    3.1970   -2.3265 S   0  0  0  0  0  0  0  0  0  0  0  0
    3.9328    2.5255   -1.2470 C   0  0  0  0  0  0  0  0  0  0  0  0
    4.0068    2.1073    0.0676 C   0  0  0  0  0  0  0  0  0  0  0  0
    3.1555    2.0391    1.1642 N   0  0  0  0  0  0  0  0  0  0  0  0
    3.6723    1.2070    2.0962 C   0  0  0  0  0  0  0  0  0  0  0  0
    3.0376    0.5210    3.1828 C   0  0  0  0  0  0  0  0  0  0  0  0
    1.7666    0.4766    3.6015 N   0  0  0  0  0  0  0  0  0  0  0  0
    1.6160   -0.6622    4.3800 C   0  0  0  0  0  0  0  0  0  0  0  0
    0.5681   -1.4284    4.9032 C   0  0  0  0  0  0  0  0  0  0  0  0
   -1.1742   -1.3427    4.9783 S   0  0  0  0  0  0  0  0  0  0  0  0
    0.6722    1.3680    3.3941 C   0  0  0  0  0  0  0  0  0  0  0  0
    0.6772    2.4897    4.3988 C   0  0  0  0  0  0  0  0  0  0  0  0
    2.0876    2.9744    1.3540 C   0  0  0  0  0  0  0  0  0  0  0  0
    2.6914    4.1187    2.2195 C   0  0  0  0  0  0  0  0  0  0  0  0
    2.9923    2.9471   -5.2136 C   0  0  0  0  0  0  0  0  0  0  0  0
    2.1999    1.7992   -5.4703 C   0  0  0  0  0  0  0  0  0  0  0  0
    1.9438    0.8228   -4.5262 C   0  0  0  0  0  0  0  0  0  0  0  0
    2.1742    0.8019   -3.2647 O   0  0  0  0  0  0  0  0  0  0  0  0
    1.3212   -0.2798   -5.2210 C   0  0  0  0  0  0  0  0  0  0  0  0
    0.7648   -1.4131   -4.6343 C   0  0  0  0  0  0  0  0  0  0  0  0
    0.0460   -2.2908   -5.4196 C   0  0  0  0  0  0  0  0  0  0  0  0
   -0.6001   -3.4391   -4.7983 C   0  0  0  0  0  0  0  0  0  0  0  0
   -0.4868   -3.6288   -3.5376 O   0  0  0  0  0  0  0  0  0  0  0  0
   -1.3521   -4.3806   -5.4760 O   0  0  0  0  0  0  0  0  0  0  0  0
   -1.9659   -5.4699   -4.7813 C   0  0  0  0  0  0  0  0  0  0  0  0
   -0.0806   -2.0109   -6.7132 C   0  0  0  0  0  0  0  0  0  0  0  0
    0.5066   -0.8309   -7.2733 C   0  0  0  0  0  0  0  0  0  0  0  0
    1.2145    0.0352   -6.5264 C   0  0  0  0  0  0  0  0  0  0  0  0
    1.8339    1.5550   -6.8419 C   0  0  0  0  0  0  0  0  0  0  0  0
    1.3768    1.8253   -7.9318 C   0  0  0  0  0  0  0  0  0  0  0  0
    1.4517    0.7710   -9.0604 C   0  0  0  0  0  0  0  0  0  0  0  0
    1.5107    0.0071   -9.8539 N   0  0  0  0  0  0  0  0  0  0  0  0
    0.7163    2.9563   -8.3996 C   0  0  0  0  0  0  0  0  0  0  0  0
    0.1095    4.0086   -8.8547 N   0  0  0  0  0  0  0  0  0  0  0  0
   -3.2268   -3.7312    6.5830 H   0  0  0  0  0  0  0  0  0  0  0  0
   -3.4951   -1.1854    0.7899 H   0  0  0  0  0  0  0  0  0  0  0  0
   -7.6499   -2.5121    3.0136 H   0  0  0  0  0  0  0  0  0  0  0  0
   -8.2044   -1.7062   -0.3388 H   0  0  0  0  0  0  0  0  0  0  0  0
   -8.9265    0.2867    1.2841 H   0  0  0  0  0  0  0  0  0  0  0  0
   -9.4654    1.2367   -1.1659 H   0  0  0  0  0  0  0  0  0  0  0  0
   -7.2230    1.7954   -2.3038 H   0  0  0  0  0  0  0  0  0  0  0  0
   -5.3250    1.3554   -0.6091 H   0  0  0  0  0  0  0  0  0  0  0  0
   -6.3084    0.6196    1.6937 H   0  0  0  0  0  0  0  0  0  0  0  0
   -7.1154    2.1479    0.9824 H   0  0  0  0  0  0  0  0  0  0  0  0
   -6.0545   -1.1616   -1.4695 H   0  0  0  0  0  0  0  0  0  0  0  0
   -0.8706   -5.1044    6.9072 H   0  0  0  0  0  0  0  0  0  0  0  0
    0.8909   -5.0702    6.4911 H   0  0  0  0  0  0  0  0  0  0  0  0
    0.0425   -5.1924    4.0273 H   0  0  0  0  0  0  0  0  0  0  0  0
    0.0009   -6.7051    4.9526 H   0  0  0  0  0  0  0  0  0  0  0  0
   -1.4957   -5.7125    4.7069 H   0  0  0  0  0  0  0  0  0  0  0  0
    6.2396    1.0490   -4.1969 H   0  0  0  0  0  0  0  0  0  0  0  0
    5.2149    1.8319   -5.4333 H   0  0  0  0  0  0  0  0  0  0  0  0
    6.8702    3.3699   -5.6966 H   0  0  0  0  0  0  0  0  0  0  0  0
    7.7452    2.6801   -4.2051 H   0  0  0  0  0  0  0  0  0  0  0  0
    6.4234    3.9952   -4.0996 H   0  0  0  0  0  0  0  0  0  0  0  0
    0.2384    1.4765    2.4220 H   0  0  0  0  0  0  0  0  0  0  0  0
   -0.3033    0.8086    3.8256 H   0  0  0  0  0  0  0  0  0  0  0  0
    1.7448    2.7665    4.5594 H   0  0  0  0  0  0  0  0  0  0  0  0
    0.3232    2.1729    5.4105 H   0  0  0  0  0  0  0  0  0  0  0  0
    0.0489    3.3306    4.0645 H   0  0  0  0  0  0  0  0  0  0  0  0
    1.1320    2.7932    1.6177 H   0  0  0  0  0  0  0  0  0  0  0  0
    2.0202    3.5578    0.3252 H   0  0  0  0  0  0  0  0  0  0  0  0
    3.4686    3.6523    2.8862 H   0  0  0  0  0  0  0  0  0  0  0  0
    1.8941    4.4919    2.8697 H   0  0  0  0  0  0  0  0  0  0  0  0
    3.0804    4.9394    1.6299 H   0  0  0  0  0  0  0  0  0  0  0  0
    3.1498    3.6392   -5.9115 H   0  0  0  0  0  0  0  0  0  0  0  0
    0.8597   -1.6496   -3.5974 H   0  0  0  0  0  0  0  0  0  0  0  0
   -3.0514   -5.5086   -4.9319 H   0  0  0  0  0  0  0  0  0  0  0  0
   -1.5445   -6.4116   -5.1392 H   0  0  0  0  0  0  0  0  0  0  0  0
   -1.7675   -5.3937   -3.6832 H   0  0  0  0  0  0  0  0  0  0  0  0
   -0.6353   -2.6665   -7.3928 H   0  0  0  0  0  0  0  0  0  0  0  0
    0.2424   -0.7457   -8.2813 H   0  0  0  0  0  0  0  0  0  0  0  0
  1  2  2  3
  2  3  1  0
  3  4  2  0
  3  5  1  0
  5  6  2  0
  6  7  1  0
  7  8  2  0
  8  9  1  0
  9 10  2  0
 10 11  1  0
 11 12  2  3
 12 13  1  0
 13 14  3  0
 12 15  1  0
 15 16  3  0
  8 17  1  0
 17 18  1  0
 18 19  1  0
 19 20  2  0
 20 21  1  0
 21 22  1  0
 21 23  1  0
  1 24  1  0
 24 25  2  0
 25 26  1  0
 26 27  1  0
 25 28  1  0
 28 29  1  0
 29 30  1  0
 30 31  1  0
 31 32  1  0
 32 33  1  0
 33 34  2  0
 34 35  1  0
 35 36  1  0
 33 37  1  0
 37 38  1  0
 38 39  1  0
 39 40  1  0
 40 41  1  0
 41 42  1  0
 42 43  1  0
 41 44  2  0
 44 45  1  0
 45 46  1  0
 46 47  1  0
 47 48  1  0
 48 49  1  0
 49 50  1  0
 50 51  1  0
 51 52  1  0
 52 53  1  0
 53 54  1  0
 51 55  1  0
 55 56  1  0
 48 57  1  0
 57 58  1  0
 44 59  1  0
 59 60  2  3
 60 61  1  0
 61 62  2  0
 61 63  1  0
 63 64  2  0
 64 65  1  0
 65 66  1  0
 66 67  2  0
 66 68  1  0
 68 69  1  0
 65 70  2  0
 70 71  1  0
 71 72  2  0
 72 73  1  0
 73 74  2  3
 74 75  1  0
 75 76  3  0
 74 77  1  0
 77 78  3  0
 11  2  1  0
 23 17  1  0
 54 24  1  0
 73 60  1  0
 10  5  1  0
 22 18  1  0
 53 28  2  0
 72 63  1  0
 23  7  1  0
 52 30  2  0
 50 31  2  0
 36 32  2  0
 49 37  2  0
 47 38  2  0
 46 40  2  0
  1 79  1  0
  6 80  1  0
  9 81  1  0
 17 82  1  0
 18 83  1  0
 19 84  1  0
 20 85  1  0
 21 86  1  0
 22 87  1  0
 22 88  1  0
 23 89  1  0
 26 90  1  0
 26 91  1  0
 27 92  1  0
 27 93  1  0
 27 94  1  0
 42 95  1  0
 42 96  1  0
 43 97  1  0
 43 98  1  0
 43 99  1  0
 55100  1  0
 55101  1  0
 56102  1  0
 56103  1  0
 56104  1  0
 57105  1  0
 57106  1  0
 58107  1  0
 58108  1  0
 58109  1  0
 59110  1  0
 64111  1  0
 69112  1  0
 69113  1  0
 69114  1  0
 70115  1  0
 71116  1  0
M  END

