
     RDKit          3D

139155  0  0  0  0  0  0  0  0999 V2000
   -3.6110    1.4982   -6.2435 C   0  0  0  0  0  0  0  0  0  0  0  0
   -4.8937    1.0899   -6.1714 C   0  0  0  0  0  0  0  0  0  0  0  0
   -5.5741    0.6477   -4.9408 C   0  0  0  0  0  0  0  0  0  0  0  0
   -5.0266    0.1499   -3.9208 O   0  0  0  0  0  0  0  0  0  0  0  0
   -6.9882    0.9012   -5.0853 C   0  0  0  0  0  0  0  0  0  0  0  0
   -7.9530    0.9217   -4.0530 C   0  0  0  0  0  0  0  0  0  0  0  0
   -9.1639    1.4655   -4.4370 C   0  0  0  0  0  0  0  0  0  0  0  0
   -9.4255    1.9511   -5.7620 C   0  0  0  0  0  0  0  0  0  0  0  0
   -8.4870    1.9170   -6.7824 C   0  0  0  0  0  0  0  0  0  0  0  0
   -7.2338    1.3605   -6.4062 C   0  0  0  0  0  0  0  0  0  0  0  0
   -5.9639    1.3326   -7.1768 C   0  0  0  0  0  0  0  0  0  0  0  0
   -5.8386    1.2833   -8.5250 C   0  0  0  0  0  0  0  0  0  0  0  0
   -4.5679    1.0636   -9.1666 C   0  0  0  0  0  0  0  0  0  0  0  0
   -3.5512    0.8879   -9.6896 N   0  0  0  0  0  0  0  0  0  0  0  0
   -6.9882    1.2350   -9.3896 C   0  0  0  0  0  0  0  0  0  0  0  0
   -7.9039    1.1779  -10.0911 N   0  0  0  0  0  0  0  0  0  0  0  0
  -10.8030    2.3790   -5.3487 C   0  0  0  0  0  0  0  0  0  0  0  0
  -12.0105    1.5122   -5.8189 C   0  0  0  0  0  0  0  0  0  0  0  0
  -11.5887    0.0656   -5.9600 C   0  0  0  0  0  0  0  0  0  0  0  0
  -11.3474   -0.3814   -4.7264 C   0  0  0  0  0  0  0  0  0  0  0  0
  -11.6092    0.7744   -3.7872 C   0  0  0  0  0  0  0  0  0  0  0  0
  -12.7787    1.4112   -4.5142 C   0  0  0  0  0  0  0  0  0  0  0  0
  -10.5338    1.8843   -3.9933 C   0  0  0  0  0  0  0  0  0  0  0  0
   -2.7460    1.5832   -5.0531 C   0  0  0  0  0  0  0  0  0  0  0  0
   -3.0068    2.3526   -3.9003 C   0  0  0  0  0  0  0  0  0  0  0  0
   -4.0432    3.4409   -3.7862 C   0  0  0  0  0  0  0  0  0  0  0  0
   -3.6126    4.6748   -4.5774 C   0  0  0  0  0  0  0  0  0  0  0  0
   -2.0821    2.0606   -2.9016 C   0  0  0  0  0  0  0  0  0  0  0  0
   -2.0008    2.4976   -1.2589 S   0  0  0  0  0  0  0  0  0  0  0  0
   -0.6284    1.5296   -1.0626 C   0  0  0  0  0  0  0  0  0  0  0  0
    0.1283    1.0387   -0.0419 C   0  0  0  0  0  0  0  0  0  0  0  0
   -0.0743    1.1136    1.3417 C   0  0  0  0  0  0  0  0  0  0  0  0
   -1.1112    1.8026    1.8751 N   0  0  0  0  0  0  0  0  0  0  0  0
   -1.3719    1.7954    3.2100 C   0  0  0  0  0  0  0  0  0  0  0  0
   -2.5024    2.6125    3.6872 C   0  0  0  0  0  0  0  0  0  0  0  0
   -3.9208    2.8778    2.8154 S   0  0  0  0  0  0  0  0  0  0  0  0
   -4.6028    3.9520    3.9123 C   0  0  0  0  0  0  0  0  0  0  0  0
   -5.8922    4.6859    3.7039 C   0  0  0  0  0  0  0  0  0  0  0  0
   -5.6746    5.9269    2.8485 C   0  0  0  0  0  0  0  0  0  0  0  0
   -3.7078    4.1456    4.9574 C   0  0  0  0  0  0  0  0  0  0  0  0
   -2.5281    3.4017    4.8351 C   0  0  0  0  0  0  0  0  0  0  0  0
   -3.9328    5.0063    5.9805 F   0  0  0  0  0  0  0  0  0  0  0  0
   -0.5390    1.0206    4.0653 C   0  0  0  0  0  0  0  0  0  0  0  0
   -0.8586    0.7700    5.4823 C   0  0  0  0  0  0  0  0  0  0  0  0
    0.0789    0.5955    6.4957 C   0  0  0  0  0  0  0  0  0  0  0  0
   -0.4916    0.1803    7.7059 C   0  0  0  0  0  0  0  0  0  0  0  0
    0.2452   -0.0825    8.8135 F   0  0  0  0  0  0  0  0  0  0  0  0
   -1.8688    0.0207    7.6484 C   0  0  0  0  0  0  0  0  0  0  0  0
   -2.7373   -0.5579    8.7255 C   0  0  0  0  0  0  0  0  0  0  0  0
   -2.6545   -2.0818    8.7244 C   0  0  0  0  0  0  0  0  0  0  0  0
   -2.3786    0.3553    6.0826 S   0  0  0  0  0  0  0  0  0  0  0  0
    0.5231    0.3583    3.5253 N   0  0  0  0  0  0  0  0  0  0  0  0
    0.7720    0.3758    2.1917 C   0  0  0  0  0  0  0  0  0  0  0  0
    1.8067   -0.3724    1.6094 C   0  0  0  0  0  0  0  0  0  0  0  0
    2.8897   -0.9730    2.1804 C   0  0  0  0  0  0  0  0  0  0  0  0
    3.6286   -1.0592    3.7098 S   0  0  0  0  0  0  0  0  0  0  0  0
    5.0615   -1.6658    3.0092 C   0  0  0  0  0  0  0  0  0  0  0  0
    6.2963   -2.0751    3.5300 C   0  0  0  0  0  0  0  0  0  0  0  0
    6.5952   -2.1326    5.0028 C   0  0  0  0  0  0  0  0  0  0  0  0
    6.1440   -3.4604    5.5920 C   0  0  0  0  0  0  0  0  0  0  0  0
    7.1641   -2.5124    2.5004 C   0  0  0  0  0  0  0  0  0  0  0  0
    6.3426   -2.4031    1.0074 S   0  0  0  0  0  0  0  0  0  0  0  0
    4.9473   -1.7594    1.6482 C   0  0  0  0  0  0  0  0  0  0  0  0
    3.7074   -1.3539    1.1751 C   0  0  0  0  0  0  0  0  0  0  0  0
    3.2289   -1.0373   -0.0555 N   0  0  0  0  0  0  0  0  0  0  0  0
    4.0702   -0.9108   -1.2556 C   0  0  0  0  0  0  0  0  0  0  0  0
    4.2262    0.5491   -1.6848 C   0  0  0  0  0  0  0  0  0  0  0  0
    2.0024   -0.4708    0.2157 C   0  0  0  0  0  0  0  0  0  0  0  0
    1.0607    0.1752   -0.6369 C   0  0  0  0  0  0  0  0  0  0  0  0
    0.7787    0.0192   -1.9807 N   0  0  0  0  0  0  0  0  0  0  0  0
   -0.2414    0.8912   -2.1911 C   0  0  0  0  0  0  0  0  0  0  0  0
   -1.1026    1.1619   -3.2511 C   0  0  0  0  0  0  0  0  0  0  0  0
   -1.3507    0.6272   -4.8236 S   0  0  0  0  0  0  0  0  0  0  0  0
    1.1550   -1.0555   -2.9104 C   0  0  0  0  0  0  0  0  0  0  0  0
    0.9339   -2.4403   -2.2981 C   0  0  0  0  0  0  0  0  0  0  0  0
    8.4619   -3.2034    2.7248 C   0  0  0  0  0  0  0  0  0  0  0  0
    9.4171   -3.4268    1.7951 C   0  0  0  0  0  0  0  0  0  0  0  0
    9.4323   -2.9429    0.4089 C   0  0  0  0  0  0  0  0  0  0  0  0
    8.9705   -1.8547   -0.0111 O   0  0  0  0  0  0  0  0  0  0  0  0
   10.1427   -3.9055   -0.3985 C   0  0  0  0  0  0  0  0  0  0  0  0
   10.2275   -3.9711   -1.7872 C   0  0  0  0  0  0  0  0  0  0  0  0
   10.8836   -5.0695   -2.3685 C   0  0  0  0  0  0  0  0  0  0  0  0
   10.9714   -5.1708   -4.1202 Cl  0  0  0  0  0  0  0  0  0  0  0  0
   11.4109   -6.0906   -1.5506 C   0  0  0  0  0  0  0  0  0  0  0  0
   12.1979   -7.5001   -2.2519 Cl  0  0  0  0  0  0  0  0  0  0  0  0
   11.3066   -6.0015   -0.1500 C   0  0  0  0  0  0  0  0  0  0  0  0
   10.6914   -4.8744    0.4186 C   0  0  0  0  0  0  0  0  0  0  0  0
   10.4085   -4.5397    1.8416 C   0  0  0  0  0  0  0  0  0  0  0  0
   11.0749   -4.9943    2.9327 C   0  0  0  0  0  0  0  0  0  0  0  0
   10.9139   -4.3917    4.2309 C   0  0  0  0  0  0  0  0  0  0  0  0
   10.7875   -3.9121    5.2799 N   0  0  0  0  0  0  0  0  0  0  0  0
   12.0563   -6.0384    2.8554 C   0  0  0  0  0  0  0  0  0  0  0  0
   12.8405   -6.8871    2.8079 N   0  0  0  0  0  0  0  0  0  0  0  0
   -3.2101    1.8997   -7.1633 H   0  0  0  0  0  0  0  0  0  0  0  0
   -7.7434    0.6193   -3.0346 H   0  0  0  0  0  0  0  0  0  0  0  0
   -8.6898    2.3640   -7.7469 H   0  0  0  0  0  0  0  0  0  0  0  0
  -10.9680    3.4780   -5.3965 H   0  0  0  0  0  0  0  0  0  0  0  0
  -12.5826    1.9199   -6.6765 H   0  0  0  0  0  0  0  0  0  0  0  0
  -11.5524   -0.5236   -6.8700 H   0  0  0  0  0  0  0  0  0  0  0  0
  -11.0959   -1.4023   -4.4572 H   0  0  0  0  0  0  0  0  0  0  0  0
  -11.7976    0.4892   -2.7319 H   0  0  0  0  0  0  0  0  0  0  0  0
  -13.6765    0.7481   -4.5734 H   0  0  0  0  0  0  0  0  0  0  0  0
  -13.0775    2.4027   -4.0941 H   0  0  0  0  0  0  0  0  0  0  0  0
  -10.5302    2.6839   -3.2184 H   0  0  0  0  0  0  0  0  0  0  0  0
   -5.0285    3.1019   -4.1685 H   0  0  0  0  0  0  0  0  0  0  0  0
   -4.1843    3.7201   -2.7218 H   0  0  0  0  0  0  0  0  0  0  0  0
   -2.5532    4.9242   -4.3663 H   0  0  0  0  0  0  0  0  0  0  0  0
   -4.2464    5.5397   -4.2870 H   0  0  0  0  0  0  0  0  0  0  0  0
   -3.7347    4.4909   -5.6666 H   0  0  0  0  0  0  0  0  0  0  0  0
   -6.3190    4.9833    4.6863 H   0  0  0  0  0  0  0  0  0  0  0  0
   -6.6241    4.0152    3.2008 H   0  0  0  0  0  0  0  0  0  0  0  0
   -4.9466    6.6120    3.3398 H   0  0  0  0  0  0  0  0  0  0  0  0
   -5.3003    5.6377    1.8434 H   0  0  0  0  0  0  0  0  0  0  0  0
   -6.6356    6.4685    2.7265 H   0  0  0  0  0  0  0  0  0  0  0  0
   -1.7155    3.4685    5.5438 H   0  0  0  0  0  0  0  0  0  0  0  0
    1.1429    0.7223    6.3554 H   0  0  0  0  0  0  0  0  0  0  0  0
   -2.4183   -0.1683    9.7162 H   0  0  0  0  0  0  0  0  0  0  0  0
   -3.7912   -0.2496    8.5616 H   0  0  0  0  0  0  0  0  0  0  0  0
   -3.3011   -2.4927    9.5293 H   0  0  0  0  0  0  0  0  0  0  0  0
   -3.0061   -2.4834    7.7488 H   0  0  0  0  0  0  0  0  0  0  0  0
   -1.6064   -2.4110    8.9062 H   0  0  0  0  0  0  0  0  0  0  0  0
    6.0697   -1.3022    5.5178 H   0  0  0  0  0  0  0  0  0  0  0  0
    7.6829   -1.9895    5.1767 H   0  0  0  0  0  0  0  0  0  0  0  0
    5.0549   -3.6068    5.4185 H   0  0  0  0  0  0  0  0  0  0  0  0
    6.3333   -3.4627    6.6853 H   0  0  0  0  0  0  0  0  0  0  0  0
    6.6989   -4.3046    5.1301 H   0  0  0  0  0  0  0  0  0  0  0  0
    3.7131   -1.5686   -2.0594 H   0  0  0  0  0  0  0  0  0  0  0  0
    5.0883   -1.2853   -1.0516 H   0  0  0  0  0  0  0  0  0  0  0  0
    5.0166    0.6278   -2.4568 H   0  0  0  0  0  0  0  0  0  0  0  0
    4.5126    1.1729   -0.8148 H   0  0  0  0  0  0  0  0  0  0  0  0
    3.2845    0.9411   -2.1147 H   0  0  0  0  0  0  0  0  0  0  0  0
    2.1735   -0.9004   -3.2983 H   0  0  0  0  0  0  0  0  0  0  0  0
    0.5273   -1.0100   -3.8180 H   0  0  0  0  0  0  0  0  0  0  0  0
    1.0204   -3.2107   -3.0874 H   0  0  0  0  0  0  0  0  0  0  0  0
   -0.0823   -2.4969   -1.8543 H   0  0  0  0  0  0  0  0  0  0  0  0
    1.6800   -2.6590   -1.5134 H   0  0  0  0  0  0  0  0  0  0  0  0
    8.5522   -3.6961    3.6781 H   0  0  0  0  0  0  0  0  0  0  0  0
    9.7710   -3.2084   -2.4079 H   0  0  0  0  0  0  0  0  0  0  0  0
   11.6666   -6.8153    0.4567 H   0  0  0  0  0  0  0  0  0  0  0  0
  1  2  2  3
  2  3  1  0
  3  4  2  0
  3  5  1  0
  5  6  2  0
  6  7  1  0
  7  8  2  0
  8  9  1  0
  9 10  2  0
 10 11  1  0
 11 12  2  3
 12 13  1  0
 13 14  3  0
 12 15  1  0
 15 16  3  0
  8 17  1  0
 17 18  1  0
 18 19  1  0
 19 20  2  0
 20 21  1  0
 21 22  1  0
 21 23  1  0
  1 24  1  0
 24 25  2  0
 25 26  1  0
 26 27  1  0
 25 28  1  0
 28 29  1  0
 29 30  1  0
 30 31  1  0
 31 32  2  0
 32 33  1  0
 33 34  2  0
 34 35  1  0
 35 36  1  0
 36 37  1  0
 37 38  1  0
 38 39  1  0
 37 40  2  0
 40 41  1  0
 40 42  1  0
 34 43  1  0
 43 44  1  0
 44 45  2  0
 45 46  1  0
 46 47  1  0
 46 48  2  0
 48 49  1  0
 49 50  1  0
 48 51  1  0
 43 52  2  0
 52 53  1  0
 53 54  2  0
 54 55  1  0
 55 56  1  0
 56 57  1  0
 57 58  1  0
 58 59  1  0
 59 60  1  0
 58 61  2  0
 61 62  1  0
 62 63  1  0
 63 64  1  0
 64 65  1  0
 65 66  1  0
 66 67  1  0
 65 68  1  0
 68 69  2  0
 69 70  1  0
 70 71  1  0
 71 72  1  0
 72 73  1  0
 70 74  1  0
 74 75  1  0
 61 76  1  0
 76 77  2  3
 77 78  1  0
 78 79  2  0
 78 80  1  0
 80 81  2  0
 81 82  1  0
 82 83  1  0
 82 84  2  0
 84 85  1  0
 84 86  1  0
 86 87  2  0
 87 88  1  0
 88 89  2  3
 89 90  1  0
 90 91  3  0
 89 92  1  0
 92 93  3  0
 11  2  1  0
 23 17  1  0
 73 24  1  0
 88 77  1  0
 10  5  1  0
 22 18  1  0
 72 28  2  0
 87 80  1  0
 23  7  1  0
 71 30  2  0
 69 31  1  0
 53 32  1  0
 68 54  1  0
 41 35  2  0
 51 44  1  0
 64 55  2  0
 63 57  2  0
  1 94  1  0
  6 95  1  0
  9 96  1  0
 17 97  1  0
 18 98  1  0
 19 99  1  0
 20100  1  0
 21101  1  0
 22102  1  0
 22103  1  0
 23104  1  0
 26105  1  0
 26106  1  0
 27107  1  0
 27108  1  0
 27109  1  0
 38110  1  0
 38111  1  0
 39112  1  0
 39113  1  0
 39114  1  0
 41115  1  0
 45116  1  0
 49117  1  0
 49118  1  0
 50119  1  0
 50120  1  0
 50121  1  0
 59122  1  0
 59123  1  0
 60124  1  0
 60125  1  0
 60126  1  0
 66127  1  0
 66128  1  0
 67129  1  0
 67130  1  0
 67131  1  0
 74132  1  0
 74133  1  0
 75134  1  0
 75135  1  0
 75136  1  0
 76137  1  0
 81138  1  0
 86139  1  0
M  END

