
     RDKit          3D

134150  0  0  0  0  0  0  0  0999 V2000
    1.1788   -0.4196   -6.6736 C   0  0  0  0  0  0  0  0  0  0  0  0
    0.4803    0.7071   -6.4390 C   0  0  0  0  0  0  0  0  0  0  0  0
   -0.5648    0.8635   -5.4169 C   0  0  0  0  0  0  0  0  0  0  0  0
   -0.7264    0.1506   -4.3924 O   0  0  0  0  0  0  0  0  0  0  0  0
   -1.3993    1.9854   -5.7760 C   0  0  0  0  0  0  0  0  0  0  0  0
   -2.6350    2.3495   -5.1915 C   0  0  0  0  0  0  0  0  0  0  0  0
   -3.2835    3.3764   -5.8484 C   0  0  0  0  0  0  0  0  0  0  0  0
   -2.7534    4.0161   -7.0127 C   0  0  0  0  0  0  0  0  0  0  0  0
   -1.5459    3.6611   -7.5924 C   0  0  0  0  0  0  0  0  0  0  0  0
   -0.8547    2.6130   -6.9236 C   0  0  0  0  0  0  0  0  0  0  0  0
    0.4081    1.9217   -7.3052 C   0  0  0  0  0  0  0  0  0  0  0  0
    1.4085    2.4273   -8.0720 C   0  0  0  0  0  0  0  0  0  0  0  0
    1.3392    3.7426   -8.6490 C   0  0  0  0  0  0  0  0  0  0  0  0
    1.3061    4.8053   -9.1010 N   0  0  0  0  0  0  0  0  0  0  0  0
    2.6794    1.7689   -8.2101 C   0  0  0  0  0  0  0  0  0  0  0  0
    3.7038    1.2453   -8.3258 N   0  0  0  0  0  0  0  0  0  0  0  0
   -3.9640    4.9004   -7.0986 C   0  0  0  0  0  0  0  0  0  0  0  0
   -3.8166    6.3851   -6.6486 C   0  0  0  0  0  0  0  0  0  0  0  0
   -2.7772    6.5003   -5.5571 C   0  0  0  0  0  0  0  0  0  0  0  0
   -3.2862    5.9030   -4.4812 C   0  0  0  0  0  0  0  0  0  0  0  0
   -4.6525    5.3937   -4.8766 C   0  0  0  0  0  0  0  0  0  0  0  0
   -5.0685    6.5222   -5.8010 C   0  0  0  0  0  0  0  0  0  0  0  0
   -4.5121    4.2365   -5.9106 C   0  0  0  0  0  0  0  0  0  0  0  0
    1.0602   -1.6003   -5.8093 C   0  0  0  0  0  0  0  0  0  0  0  0
   -0.0391   -2.4806   -5.8013 C   0  0  0  0  0  0  0  0  0  0  0  0
   -1.1600   -2.4032   -6.7612 C   0  0  0  0  0  0  0  0  0  0  0  0
   -2.3988   -1.9086   -6.3179 C   0  0  0  0  0  0  0  0  0  0  0  0
   -3.4558   -1.7333   -7.2100 C   0  0  0  0  0  0  0  0  0  0  0  0
   -3.2973   -2.0684   -8.5519 C   0  0  0  0  0  0  0  0  0  0  0  0
   -2.0846   -2.5870   -9.0060 C   0  0  0  0  0  0  0  0  0  0  0  0
   -0.9998   -2.7557   -8.1250 C   0  0  0  0  0  0  0  0  0  0  0  0
    0.2699   -3.3917   -8.6448 C   0  0  0  0  0  0  0  0  0  0  0  0
    0.3084   -4.8784   -8.2980 C   0  0  0  0  0  0  0  0  0  0  0  0
   -0.0531   -3.2462   -4.6316 C   0  0  0  0  0  0  0  0  0  0  0  0
   -1.2789   -4.1597   -3.8604 S   0  0  0  0  0  0  0  0  0  0  0  0
   -0.3903   -4.1765   -2.4157 C   0  0  0  0  0  0  0  0  0  0  0  0
   -0.5912   -4.4259   -1.0850 C   0  0  0  0  0  0  0  0  0  0  0  0
   -1.5957   -5.1088   -0.3873 C   0  0  0  0  0  0  0  0  0  0  0  0
   -1.4975   -5.1953    1.0371 C   0  0  0  0  0  0  0  0  0  0  0  0
   -2.4832   -5.8687    1.6803 N   0  0  0  0  0  0  0  0  0  0  0  0
   -3.4037   -6.3234    0.3790 S   0  0  0  0  0  0  0  0  0  0  0  0
   -2.6534   -5.7226   -0.9711 N   0  0  0  0  0  0  0  0  0  0  0  0
   -0.4386   -4.5394    1.6829 C   0  0  0  0  0  0  0  0  0  0  0  0
   -0.2186   -4.2459    3.0023 C   0  0  0  0  0  0  0  0  0  0  0  0
   -1.0271   -4.4089    4.4905 S   0  0  0  0  0  0  0  0  0  0  0  0
   -0.0314   -3.2133    5.1982 C   0  0  0  0  0  0  0  0  0  0  0  0
    0.0169   -2.6051    6.4535 C   0  0  0  0  0  0  0  0  0  0  0  0
   -0.8416   -2.9945    7.5862 C   0  0  0  0  0  0  0  0  0  0  0  0
   -2.2149   -2.6401    7.6490 C   0  0  0  0  0  0  0  0  0  0  0  0
   -2.8677   -1.7457    6.6204 C   0  0  0  0  0  0  0  0  0  0  0  0
   -2.7038   -0.2741    6.9990 C   0  0  0  0  0  0  0  0  0  0  0  0
   -2.9806   -3.0889    8.7380 C   0  0  0  0  0  0  0  0  0  0  0  0
   -2.4122   -3.8938    9.7282 C   0  0  0  0  0  0  0  0  0  0  0  0
   -1.0655   -4.2483    9.6549 C   0  0  0  0  0  0  0  0  0  0  0  0
   -0.2814   -3.7924    8.5982 C   0  0  0  0  0  0  0  0  0  0  0  0
    1.0311   -1.6254    6.5045 C   0  0  0  0  0  0  0  0  0  0  0  0
    1.7520   -1.4713    4.9640 S   0  0  0  0  0  0  0  0  0  0  0  0
    0.8450   -2.6991    4.2832 C   0  0  0  0  0  0  0  0  0  0  0  0
    0.7459   -3.2891    3.0374 C   0  0  0  0  0  0  0  0  0  0  0  0
    1.1516   -2.8910    1.8051 N   0  0  0  0  0  0  0  0  0  0  0  0
    0.4950   -3.7642    0.9759 C   0  0  0  0  0  0  0  0  0  0  0  0
    0.4848   -3.8084   -0.4332 C   0  0  0  0  0  0  0  0  0  0  0  0
    1.3797   -3.2899   -1.3269 N   0  0  0  0  0  0  0  0  0  0  0  0
    0.7826   -3.5063   -2.5192 C   0  0  0  0  0  0  0  0  0  0  0  0
    0.9921   -2.9888   -3.7786 C   0  0  0  0  0  0  0  0  0  0  0  0
    1.9711   -1.7761   -4.3841 S   0  0  0  0  0  0  0  0  0  0  0  0
    2.8194   -3.0559   -1.1359 C   0  0  0  0  0  0  0  0  0  0  0  0
    3.6468   -4.1631   -1.7865 C   0  0  0  0  0  0  0  0  0  0  0  0
    1.4888   -1.4887    1.4920 C   0  0  0  0  0  0  0  0  0  0  0  0
    0.2814   -0.5735    1.6962 C   0  0  0  0  0  0  0  0  0  0  0  0
    1.2619   -0.6829    7.6194 C   0  0  0  0  0  0  0  0  0  0  0  0
    2.4613   -0.1232    7.8857 C   0  0  0  0  0  0  0  0  0  0  0  0
    3.7446   -0.5167    7.2868 C   0  0  0  0  0  0  0  0  0  0  0  0
    4.0484   -1.6646    6.8652 O   0  0  0  0  0  0  0  0  0  0  0  0
    4.6376    0.6199    7.3224 C   0  0  0  0  0  0  0  0  0  0  0  0
    5.8506    0.7841    6.6484 C   0  0  0  0  0  0  0  0  0  0  0  0
    6.4423    2.0589    6.6173 C   0  0  0  0  0  0  0  0  0  0  0  0
    7.6524    2.2132    5.9266 O   0  0  0  0  0  0  0  0  0  0  0  0
    8.2864    3.4694    5.6847 C   0  0  0  0  0  0  0  0  0  0  0  0
    5.7985    3.1378    7.2677 C   0  0  0  0  0  0  0  0  0  0  0  0
    4.5856    2.9429    7.9522 C   0  0  0  0  0  0  0  0  0  0  0  0
    4.0239    1.6575    7.9983 C   0  0  0  0  0  0  0  0  0  0  0  0
    2.7047    1.2050    8.5290 C   0  0  0  0  0  0  0  0  0  0  0  0
    1.9807    1.7950    9.5137 C   0  0  0  0  0  0  0  0  0  0  0  0
    0.7721    1.2149   10.0410 C   0  0  0  0  0  0  0  0  0  0  0  0
   -0.2102    0.7618   10.4556 N   0  0  0  0  0  0  0  0  0  0  0  0
    2.4303    2.9904   10.1792 C   0  0  0  0  0  0  0  0  0  0  0  0
    2.7877    3.9545   10.7168 N   0  0  0  0  0  0  0  0  0  0  0  0
    1.7962   -0.5200   -7.5520 H   0  0  0  0  0  0  0  0  0  0  0  0
   -3.0598    1.8412   -4.3371 H   0  0  0  0  0  0  0  0  0  0  0  0
   -1.2131    4.1227   -8.5085 H   0  0  0  0  0  0  0  0  0  0  0  0
   -4.5690    4.7440   -8.0170 H   0  0  0  0  0  0  0  0  0  0  0  0
   -3.7156    7.1245   -7.4724 H   0  0  0  0  0  0  0  0  0  0  0  0
   -1.8319    7.0322   -5.6014 H   0  0  0  0  0  0  0  0  0  0  0  0
   -2.8313    5.8642   -3.4970 H   0  0  0  0  0  0  0  0  0  0  0  0
   -5.3415    5.1902   -4.0292 H   0  0  0  0  0  0  0  0  0  0  0  0
   -6.0133    6.3164   -6.3572 H   0  0  0  0  0  0  0  0  0  0  0  0
   -5.1485    7.5113   -5.2863 H   0  0  0  0  0  0  0  0  0  0  0  0
   -5.4484    3.6694   -6.1119 H   0  0  0  0  0  0  0  0  0  0  0  0
   -2.5382   -1.6311   -5.2813 H   0  0  0  0  0  0  0  0  0  0  0  0
   -4.3991   -1.3270   -6.8618 H   0  0  0  0  0  0  0  0  0  0  0  0
   -4.1187   -1.9333   -9.2427 H   0  0  0  0  0  0  0  0  0  0  0  0
   -1.9906   -2.8582  -10.0496 H   0  0  0  0  0  0  0  0  0  0  0  0
    1.1652   -2.8928   -8.2273 H   0  0  0  0  0  0  0  0  0  0  0  0
    0.3377   -3.2802   -9.7485 H   0  0  0  0  0  0  0  0  0  0  0  0
   -0.5791   -5.3948   -8.7216 H   0  0  0  0  0  0  0  0  0  0  0  0
    1.2279   -5.3335   -8.7261 H   0  0  0  0  0  0  0  0  0  0  0  0
    0.3273   -5.0212   -7.1981 H   0  0  0  0  0  0  0  0  0  0  0  0
   -2.4402   -1.9140    5.6104 H   0  0  0  0  0  0  0  0  0  0  0  0
   -3.9511   -1.9837    6.5465 H   0  0  0  0  0  0  0  0  0  0  0  0
   -3.3352    0.3496    6.3353 H   0  0  0  0  0  0  0  0  0  0  0  0
   -3.0226   -0.1039    8.0519 H   0  0  0  0  0  0  0  0  0  0  0  0
   -1.6469    0.0378    6.8847 H   0  0  0  0  0  0  0  0  0  0  0  0
   -4.0257   -2.8205    8.8221 H   0  0  0  0  0  0  0  0  0  0  0  0
   -3.0173   -4.2420   10.5546 H   0  0  0  0  0  0  0  0  0  0  0  0
   -0.6282   -4.8756   10.4225 H   0  0  0  0  0  0  0  0  0  0  0  0
    0.7616   -4.0840    8.5464 H   0  0  0  0  0  0  0  0  0  0  0  0
    3.1021   -2.0754   -1.5714 H   0  0  0  0  0  0  0  0  0  0  0  0
    3.0810   -3.0624   -0.0594 H   0  0  0  0  0  0  0  0  0  0  0  0
    3.3247   -5.1580   -1.4008 H   0  0  0  0  0  0  0  0  0  0  0  0
    3.5250   -4.1434   -2.8908 H   0  0  0  0  0  0  0  0  0  0  0  0
    4.7194   -4.0179   -1.5474 H   0  0  0  0  0  0  0  0  0  0  0  0
    1.7964   -1.3615    0.4452 H   0  0  0  0  0  0  0  0  0  0  0  0
    2.3283   -1.1496    2.1370 H   0  0  0  0  0  0  0  0  0  0  0  0
   -0.0569   -0.5845    2.7518 H   0  0  0  0  0  0  0  0  0  0  0  0
    0.5614    0.4697    1.4352 H   0  0  0  0  0  0  0  0  0  0  0  0
   -0.5560   -0.8946    1.0386 H   0  0  0  0  0  0  0  0  0  0  0  0
    0.3734   -0.3227    8.1047 H   0  0  0  0  0  0  0  0  0  0  0  0
    6.3051   -0.0444    6.1208 H   0  0  0  0  0  0  0  0  0  0  0  0
    8.5608    3.9529    6.6477 H   0  0  0  0  0  0  0  0  0  0  0  0
    7.6147    4.1331    5.0984 H   0  0  0  0  0  0  0  0  0  0  0  0
    9.2142    3.3022    5.0997 H   0  0  0  0  0  0  0  0  0  0  0  0
    6.2165    4.1344    7.2311 H   0  0  0  0  0  0  0  0  0  0  0  0
    4.0813    3.8011    8.3669 H   0  0  0  0  0  0  0  0  0  0  0  0
  1  2  2  3
  2  3  1  0
  3  4  2  0
  3  5  1  0
  5  6  2  0
  6  7  1  0
  7  8  2  0
  8  9  1  0
  9 10  2  0
 10 11  1  0
 11 12  2  3
 12 13  1  0
 13 14  3  0
 12 15  1  0
 15 16  3  0
  8 17  1  0
 17 18  1  0
 18 19  1  0
 19 20  2  0
 20 21  1  0
 21 22  1  0
 21 23  1  0
  1 24  1  0
 24 25  2  0
 25 26  1  0
 26 27  2  0
 27 28  1  0
 28 29  2  0
 29 30  1  0
 30 31  2  0
 31 32  1  0
 32 33  1  0
 25 34  1  0
 34 35  1  0
 35 36  1  0
 36 37  1  0
 37 38  1  0
 38 39  1  0
 39 40  2  0
 40 41  1  0
 41 42  1  0
 39 43  1  0
 43 44  1  0
 44 45  1  0
 45 46  1  0
 46 47  1  0
 47 48  1  0
 48 49  2  0
 49 50  1  0
 50 51  1  0
 49 52  1  0
 52 53  2  0
 53 54  1  0
 54 55  2  0
 47 56  2  0
 56 57  1  0
 57 58  1  0
 58 59  1  0
 59 60  1  0
 60 61  1  0
 61 62  1  0
 62 63  1  0
 63 64  1  0
 64 65  1  0
 65 66  1  0
 63 67  1  0
 67 68  1  0
 60 69  1  0
 69 70  1  0
 56 71  1  0
 71 72  2  3
 72 73  1  0
 73 74  2  0
 73 75  1  0
 75 76  2  0
 76 77  1  0
 77 78  1  0
 78 79  1  0
 77 80  2  0
 80 81  1  0
 81 82  2  0
 82 83  1  0
 83 84  2  3
 84 85  1  0
 85 86  3  0
 84 87  1  0
 87 88  3  0
 11  2  1  0
 23 17  1  0
 66 24  1  0
 83 72  1  0
 10  5  1  0
 22 18  1  0
 31 26  1  0
 65 34  2  0
 82 75  1  0
 23  7  1  0
 64 36  2  0
 62 37  2  0
 42 38  2  0
 61 43  2  0
 59 44  2  0
 58 46  2  0
 55 48  1  0
  1 89  1  0
  6 90  1  0
  9 91  1  0
 17 92  1  0
 18 93  1  0
 19 94  1  0
 20 95  1  0
 21 96  1  0
 22 97  1  0
 22 98  1  0
 23 99  1  0
 27100  1  0
 28101  1  0
 29102  1  0
 30103  1  0
 32104  1  0
 32105  1  0
 33106  1  0
 33107  1  0
 33108  1  0
 50109  1  0
 50110  1  0
 51111  1  0
 51112  1  0
 51113  1  0
 52114  1  0
 53115  1  0
 54116  1  0
 55117  1  0
 67118  1  0
 67119  1  0
 68120  1  0
 68121  1  0
 68122  1  0
 69123  1  0
 69124  1  0
 70125  1  0
 70126  1  0
 70127  1  0
 71128  1  0
 76129  1  0
 79130  1  0
 79131  1  0
 79132  1  0
 80133  1  0
 81134  1  0
M  END

