
     RDKit          3D

106118  0  0  0  0  0  0  0  0999 V2000
    4.8150    1.6741   -3.1700 C   0  0  0  0  0  0  0  0  0  0  0  0
    5.4420    0.5652   -2.7392 C   0  0  0  0  0  0  0  0  0  0  0  0
    4.9301   -0.3510   -1.7109 C   0  0  0  0  0  0  0  0  0  0  0  0
    4.0524   -0.0868   -0.8424 O   0  0  0  0  0  0  0  0  0  0  0  0
    5.6100   -1.6188   -1.8401 C   0  0  0  0  0  0  0  0  0  0  0  0
    5.3284   -2.8171   -1.1413 C   0  0  0  0  0  0  0  0  0  0  0  0
    6.0506   -3.9071   -1.5870 C   0  0  0  0  0  0  0  0  0  0  0  0
    6.9903   -3.8360   -2.6680 C   0  0  0  0  0  0  0  0  0  0  0  0
    7.2800   -2.6641   -3.3464 C   0  0  0  0  0  0  0  0  0  0  0  0
    6.5742   -1.5200   -2.8776 C   0  0  0  0  0  0  0  0  0  0  0  0
    6.6010   -0.1185   -3.3814 C   0  0  0  0  0  0  0  0  0  0  0  0
    7.6148    0.4756   -4.0573 C   0  0  0  0  0  0  0  0  0  0  0  0
    7.6524    1.8916   -4.3064 C   0  0  0  0  0  0  0  0  0  0  0  0
    7.6939    3.0289   -4.5192 N   0  0  0  0  0  0  0  0  0  0  0  0
    8.8027   -0.2381   -4.4521 C   0  0  0  0  0  0  0  0  0  0  0  0
    9.7704   -0.7910   -4.7643 N   0  0  0  0  0  0  0  0  0  0  0  0
    7.2597   -5.3077   -2.5546 C   0  0  0  0  0  0  0  0  0  0  0  0
    8.6109   -5.7558   -1.9210 C   0  0  0  0  0  0  0  0  0  0  0  0
    9.0810   -4.7275   -0.9192 C   0  0  0  0  0  0  0  0  0  0  0  0
    8.2207   -4.7719    0.0995 C   0  0  0  0  0  0  0  0  0  0  0  0
    7.1997   -5.8365   -0.2370 C   0  0  0  0  0  0  0  0  0  0  0  0
    8.1077   -6.8183   -0.9569 C   0  0  0  0  0  0  0  0  0  0  0  0
    6.3144   -5.3738   -1.4331 C   0  0  0  0  0  0  0  0  0  0  0  0
    3.5451    2.1294   -2.5910 C   0  0  0  0  0  0  0  0  0  0  0  0
    3.4473    3.2156   -1.2743 S   0  0  0  0  0  0  0  0  0  0  0  0
    1.7907    3.0374   -1.1582 C   0  0  0  0  0  0  0  0  0  0  0  0
    0.7432    3.4802   -0.4083 C   0  0  0  0  0  0  0  0  0  0  0  0
    0.6367    4.4207    0.6198 C   0  0  0  0  0  0  0  0  0  0  0  0
   -0.6567    4.6900    1.1712 C   0  0  0  0  0  0  0  0  0  0  0  0
   -0.7180    5.5921    2.1820 N   0  0  0  0  0  0  0  0  0  0  0  0
    0.8848    6.0117    2.2753 S   0  0  0  0  0  0  0  0  0  0  0  0
    1.6796    5.1186    1.1274 N   0  0  0  0  0  0  0  0  0  0  0  0
   -1.7573    3.9612    0.6929 C   0  0  0  0  0  0  0  0  0  0  0  0
   -3.0037    3.7749    1.2192 C   0  0  0  0  0  0  0  0  0  0  0  0
   -3.8452    4.2422    2.6184 S   0  0  0  0  0  0  0  0  0  0  0  0
   -4.9524    2.9587    2.4034 C   0  0  0  0  0  0  0  0  0  0  0  0
   -6.0597    2.5153    3.1241 C   0  0  0  0  0  0  0  0  0  0  0  0
   -6.5942    3.2055    4.3497 C   0  0  0  0  0  0  0  0  0  0  0  0
   -5.7115    2.9280    5.5628 C   0  0  0  0  0  0  0  0  0  0  0  0
   -6.5748    1.3269    2.5650 C   0  0  0  0  0  0  0  0  0  0  0  0
   -5.6639    0.8768    1.1953 S   0  0  0  0  0  0  0  0  0  0  0  0
   -4.6267    2.1863    1.3194 C   0  0  0  0  0  0  0  0  0  0  0  0
   -3.5229    2.6656    0.6314 C   0  0  0  0  0  0  0  0  0  0  0  0
   -2.6888    2.1088   -0.2840 N   0  0  0  0  0  0  0  0  0  0  0  0
   -1.6204    2.9703   -0.2934 C   0  0  0  0  0  0  0  0  0  0  0  0
   -0.3676    2.8067   -0.9202 C   0  0  0  0  0  0  0  0  0  0  0  0
   -0.0623    2.1030   -2.0500 N   0  0  0  0  0  0  0  0  0  0  0  0
    1.2962    2.2041   -2.1012 C   0  0  0  0  0  0  0  0  0  0  0  0
    2.2679    1.6389   -2.9409 C   0  0  0  0  0  0  0  0  0  0  0  0
    2.0307    0.5324   -3.9335 C   0  0  0  0  0  0  0  0  0  0  0  0
    1.9644    1.0596   -5.3601 C   0  0  0  0  0  0  0  0  0  0  0  0
   -0.9184    2.1250   -3.2490 C   0  0  0  0  0  0  0  0  0  0  0  0
   -0.7752    3.4545   -3.9906 C   0  0  0  0  0  0  0  0  0  0  0  0
   -2.6652    0.6728   -0.6058 C   0  0  0  0  0  0  0  0  0  0  0  0
   -1.9434   -0.1107    0.4915 C   0  0  0  0  0  0  0  0  0  0  0  0
   -7.8270    0.6574    2.9605 C   0  0  0  0  0  0  0  0  0  0  0  0
   -9.0454    1.1383    2.7058 C   0  0  0  0  0  0  0  0  0  0  0  0
   -9.3111    2.3664    1.9937 C   0  0  0  0  0  0  0  0  0  0  0  0
   -9.5141    3.3515    1.4212 N   0  0  0  0  0  0  0  0  0  0  0  0
  -10.0216    0.1681    3.1974 C   0  0  0  0  0  0  0  0  0  0  0  0
  -11.3613    0.2404    3.1908 C   0  0  0  0  0  0  0  0  0  0  0  0
  -12.1382   -0.8324    3.7463 C   0  0  0  0  0  0  0  0  0  0  0  0
  -12.7664   -1.6968    4.1931 N   0  0  0  0  0  0  0  0  0  0  0  0
  -12.0727    1.3699    2.6463 C   0  0  0  0  0  0  0  0  0  0  0  0
  -12.6495    2.2707    2.2064 N   0  0  0  0  0  0  0  0  0  0  0  0
   -9.3229   -0.9057    3.7344 O   0  0  0  0  0  0  0  0  0  0  0  0
   -7.9163   -0.6840    3.6522 C   0  0  0  0  0  0  0  0  0  0  0  0
   -7.3307   -0.6171    5.0672 C   0  0  0  0  0  0  0  0  0  0  0  0
   -7.2615   -1.7999    2.8308 C   0  0  0  0  0  0  0  0  0  0  0  0
    5.1526    2.1990   -4.0484 H   0  0  0  0  0  0  0  0  0  0  0  0
    4.5889   -2.8918   -0.3548 H   0  0  0  0  0  0  0  0  0  0  0  0
    7.9551   -2.6625   -4.1875 H   0  0  0  0  0  0  0  0  0  0  0  0
    6.9383   -5.8997   -3.4397 H   0  0  0  0  0  0  0  0  0  0  0  0
    9.3816   -6.0926   -2.6434 H   0  0  0  0  0  0  0  0  0  0  0  0
    9.9775   -4.1201   -0.9728 H   0  0  0  0  0  0  0  0  0  0  0  0
    8.2972   -4.2025    1.0196 H   0  0  0  0  0  0  0  0  0  0  0  0
    6.6491   -6.2448    0.6355 H   0  0  0  0  0  0  0  0  0  0  0  0
    7.5567   -7.6503   -1.4593 H   0  0  0  0  0  0  0  0  0  0  0  0
    8.9109   -7.2422   -0.3063 H   0  0  0  0  0  0  0  0  0  0  0  0
    5.4259   -6.0139   -1.6325 H   0  0  0  0  0  0  0  0  0  0  0  0
   -7.6306    2.8697    4.5729 H   0  0  0  0  0  0  0  0  0  0  0  0
   -6.6313    4.2999    4.1677 H   0  0  0  0  0  0  0  0  0  0  0  0
   -4.6725    3.2745    5.3826 H   0  0  0  0  0  0  0  0  0  0  0  0
   -5.6968    1.8444    5.7928 H   0  0  0  0  0  0  0  0  0  0  0  0
   -6.1115    3.4678    6.4442 H   0  0  0  0  0  0  0  0  0  0  0  0
    2.8550   -0.2097   -3.8731 H   0  0  0  0  0  0  0  0  0  0  0  0
    1.1034   -0.0219   -3.6815 H   0  0  0  0  0  0  0  0  0  0  0  0
    2.9433    1.5030   -5.6563 H   0  0  0  0  0  0  0  0  0  0  0  0
    1.7353    0.2217   -6.0485 H   0  0  0  0  0  0  0  0  0  0  0  0
    1.1669    1.8240   -5.4680 H   0  0  0  0  0  0  0  0  0  0  0  0
   -0.6674    1.2893   -3.9268 H   0  0  0  0  0  0  0  0  0  0  0  0
   -1.9872    2.0303   -2.9858 H   0  0  0  0  0  0  0  0  0  0  0  0
    0.2898    3.6524   -4.2430 H   0  0  0  0  0  0  0  0  0  0  0  0
   -1.3627    3.4203   -4.9332 H   0  0  0  0  0  0  0  0  0  0  0  0
   -1.1474    4.2934   -3.3567 H   0  0  0  0  0  0  0  0  0  0  0  0
   -3.7019    0.2940   -0.7200 H   0  0  0  0  0  0  0  0  0  0  0  0
   -2.1501    0.4657   -1.5583 H   0  0  0  0  0  0  0  0  0  0  0  0
   -2.4326    0.0584    1.4757 H   0  0  0  0  0  0  0  0  0  0  0  0
   -0.8806    0.2107    0.5527 H   0  0  0  0  0  0  0  0  0  0  0  0
   -1.9711   -1.1929    0.2573 H   0  0  0  0  0  0  0  0  0  0  0  0
   -7.4910   -1.5862    5.5841 H   0  0  0  0  0  0  0  0  0  0  0  0
   -6.2373   -0.4172    5.0291 H   0  0  0  0  0  0  0  0  0  0  0  0
   -7.8293    0.1841    5.6540 H   0  0  0  0  0  0  0  0  0  0  0  0
   -7.5048   -2.7909    3.2724 H   0  0  0  0  0  0  0  0  0  0  0  0
   -6.1556   -1.6808    2.8199 H   0  0  0  0  0  0  0  0  0  0  0  0
   -7.6319   -1.7853    1.7798 H   0  0  0  0  0  0  0  0  0  0  0  0
  1  2  2  3
  2  3  1  0
  3  4  2  0
  3  5  1  0
  5  6  2  0
  6  7  1  0
  7  8  2  0
  8  9  1  0
  9 10  2  0
 10 11  1  0
 11 12  2  3
 12 13  1  0
 13 14  3  0
 12 15  1  0
 15 16  3  0
  8 17  1  0
 17 18  1  0
 18 19  1  0
 19 20  2  0
 20 21  1  0
 21 22  1  0
 21 23  1  0
  1 24  1  0
 24 25  1  0
 25 26  1  0
 26 27  1  0
 27 28  1  0
 28 29  1  0
 29 30  2  0
 30 31  1  0
 31 32  1  0
 29 33  1  0
 33 34  1  0
 34 35  1  0
 35 36  1  0
 36 37  1  0
 37 38  1  0
 38 39  1  0
 37 40  2  0
 40 41  1  0
 41 42  1  0
 42 43  1  0
 43 44  1  0
 44 45  1  0
 45 46  1  0
 46 47  1  0
 47 48  1  0
 48 49  1  0
 49 50  1  0
 50 51  1  0
 47 52  1  0
 52 53  1  0
 44 54  1  0
 54 55  1  0
 40 56  1  0
 56 57  2  0
 57 58  1  0
 58 59  3  0
 57 60  1  0
 60 61  2  3
 61 62  1  0
 62 63  3  0
 61 64  1  0
 64 65  3  0
 60 66  1  0
 66 67  1  0
 67 68  1  0
 67 69  1  0
 11  2  1  0
 23 17  1  0
 49 24  2  0
 67 56  1  0
 10  5  1  0
 22 18  1  0
 48 26  2  0
 23  7  1  0
 46 27  2  0
 32 28  2  0
 45 33  2  0
 43 34  2  0
 42 36  2  0
  1 70  1  0
  6 71  1  0
  9 72  1  0
 17 73  1  0
 18 74  1  0
 19 75  1  0
 20 76  1  0
 21 77  1  0
 22 78  1  0
 22 79  1  0
 23 80  1  0
 38 81  1  0
 38 82  1  0
 39 83  1  0
 39 84  1  0
 39 85  1  0
 50 86  1  0
 50 87  1  0
 51 88  1  0
 51 89  1  0
 51 90  1  0
 52 91  1  0
 52 92  1  0
 53 93  1  0
 53 94  1  0
 53 95  1  0
 54 96  1  0
 54 97  1  0
 55 98  1  0
 55 99  1  0
 55100  1  0
 68101  1  0
 68102  1  0
 68103  1  0
 69104  1  0
 69105  1  0
 69106  1  0
M  END

