
     RDKit          3D

101114  0  0  0  0  0  0  0  0999 V2000
   -3.6934    4.1622   -4.6760 C   0  0  0  0  0  0  0  0  0  0  0  0
   -3.3260    5.1354   -3.7167 C   0  0  0  0  0  0  0  0  0  0  0  0
   -3.2303    4.8429   -2.3135 C   0  0  0  0  0  0  0  0  0  0  0  0
   -4.0122    3.9664   -1.7250 O   0  0  0  0  0  0  0  0  0  0  0  0
   -2.2331    5.5963   -1.6750 C   0  0  0  0  0  0  0  0  0  0  0  0
   -1.6827    5.6255   -0.4345 C   0  0  0  0  0  0  0  0  0  0  0  0
   -0.6855    6.2780    0.0550 C   0  0  0  0  0  0  0  0  0  0  0  0
    0.0117    7.1951   -0.8915 C   0  0  0  0  0  0  0  0  0  0  0  0
   -0.5724    7.1573   -2.1341 C   0  0  0  0  0  0  0  0  0  0  0  0
   -1.6164    6.4514   -2.6155 C   0  0  0  0  0  0  0  0  0  0  0  0
   -2.3011    6.1928   -3.9358 C   0  0  0  0  0  0  0  0  0  0  0  0
   -1.9594    6.7508   -5.1061 C   0  0  0  0  0  0  0  0  0  0  0  0
   -0.9656    7.7507   -5.1504 C   0  0  0  0  0  0  0  0  0  0  0  0
   -0.0576    8.6464   -5.1948 N   0  0  0  0  0  0  0  0  0  0  0  0
   -2.4745    6.2097   -6.3383 C   0  0  0  0  0  0  0  0  0  0  0  0
   -2.8926    5.7472   -7.3881 N   0  0  0  0  0  0  0  0  0  0  0  0
    0.9730    7.5784    0.1241 C   0  0  0  0  0  0  0  0  0  0  0  0
    0.7758    8.9659    0.6699 C   0  0  0  0  0  0  0  0  0  0  0  0
   -0.6194    9.3671    0.4980 C   0  0  0  0  0  0  0  0  0  0  0  0
   -1.3625    8.4918    1.1508 C   0  0  0  0  0  0  0  0  0  0  0  0
   -0.4475    7.6827    2.0405 C   0  0  0  0  0  0  0  0  0  0  0  0
    0.7229    8.6812    2.1983 C   0  0  0  0  0  0  0  0  0  0  0  0
    0.2496    6.6845    1.1521 C   0  0  0  0  0  0  0  0  0  0  0  0
   -3.7996    2.8644   -3.8586 C   0  0  0  0  0  0  0  0  0  0  0  0
   -4.8145    1.5868   -3.2357 Se  0  0  0  0  0  2  0  0  0  0  0  0
   -3.4242    0.8049   -2.0889 C   0  0  0  0  0  0  0  0  0  0  0  0
   -3.1761   -0.1640   -1.1399 C   0  0  0  0  0  0  0  0  0  0  0  0
   -3.8748   -0.9948   -0.3815 C   0  0  0  0  0  0  0  0  0  0  0  0
   -3.5148   -1.7093    0.7383 C   0  0  0  0  0  0  0  0  0  0  0  0
   -4.2525   -2.5171    1.3148 N   0  0  0  0  0  0  0  0  0  0  0  0
   -5.6722   -2.4968    0.4021 S   0  0  0  0  0  0  0  0  0  0  0  0
   -5.2221   -1.3720   -0.7482 N   0  0  0  0  0  0  0  0  0  0  0  0
   -2.0739   -1.4435    1.0199 C   0  0  0  0  0  0  0  0  0  0  0  0
   -1.2703   -2.1208    1.9366 C   0  0  0  0  0  0  0  0  0  0  0  0
   -1.0741   -3.1682    3.2412 S   0  0  0  0  0  0  0  0  0  0  0  0
    0.7314   -3.0724    3.3844 C   0  0  0  0  0  0  0  0  0  0  0  0
    1.7056   -3.8300    4.0066 C   0  0  0  0  0  0  0  0  0  0  0  0
    1.5019   -4.3914    5.4368 C   0  0  0  0  0  0  0  0  0  0  0  0
    1.9815   -3.1860    6.3204 C   0  0  0  0  0  0  0  0  0  0  0  0
    2.9287   -3.7056    3.5126 C   0  0  0  0  0  0  0  0  0  0  0  0
    2.7517   -2.5102    2.2521 S   0  0  0  0  0  0  0  0  0  0  0  0
    0.9657   -2.2686    2.4415 C   0  0  0  0  0  0  0  0  0  0  0  0
    0.0369   -1.6922    1.6320 C   0  0  0  0  0  0  0  0  0  0  0  0
   -0.0344   -0.7998    0.5989 N   0  0  0  0  0  0  0  0  0  0  0  0
   -1.3376   -0.6501    0.2551 C   0  0  0  0  0  0  0  0  0  0  0  0
   -1.7625    0.1101   -0.8489 C   0  0  0  0  0  0  0  0  0  0  0  0
   -1.3700    1.0959   -1.5465 N   0  0  0  0  0  0  0  0  0  0  0  0
   -2.4861    1.5879   -2.3793 C   0  0  0  0  0  0  0  0  0  0  0  0
   -2.4368    2.6275   -3.1756 C   0  0  0  0  0  0  0  0  0  0  0  0
   -0.1272    1.8244   -1.6078 C   0  0  0  0  0  0  0  0  0  0  0  0
    0.7128    1.4586   -2.8268 C   0  0  0  0  0  0  0  0  0  0  0  0
    1.1793   -0.4388   -0.1248 C   0  0  0  0  0  0  0  0  0  0  0  0
    1.3817   -1.7390   -1.0368 C   0  0  0  0  0  0  0  0  0  0  0  0
    4.1916   -4.5132    3.4387 C   0  0  0  0  0  0  0  0  0  0  0  0
    3.9963   -5.8516    3.2445 C   0  0  0  0  0  0  0  0  0  0  0  0
    2.7821   -6.5948    3.1811 C   0  0  0  0  0  0  0  0  0  0  0  0
    1.5849   -6.2815    3.2094 O   0  0  0  0  0  0  0  0  0  0  0  0
    3.2686   -8.0443    3.0553 C   0  0  0  0  0  0  0  0  0  0  0  0
    4.5289   -8.0768    3.0360 C   0  0  0  0  0  0  0  0  0  0  0  0
    5.1761   -9.3501    2.9323 C   0  0  0  0  0  0  0  0  0  0  0  0
    4.3134  -10.4629    2.8603 C   0  0  0  0  0  0  0  0  0  0  0  0
    4.8796  -11.7422    2.7658 F   0  0  0  0  0  0  0  0  0  0  0  0
    2.9841  -10.4023    2.8769 C   0  0  0  0  0  0  0  0  0  0  0  0
    2.1983  -11.4916    2.8037 F   0  0  0  0  0  0  0  0  0  0  0  0
    2.3811   -9.1180    2.9795 C   0  0  0  0  0  0  0  0  0  0  0  0
    1.0376   -9.0273    3.0095 F   0  0  0  0  0  0  0  0  0  0  0  0
    5.1806   -6.7720    3.1348 C   0  0  0  0  0  0  0  0  0  0  0  0
    6.4419   -6.4416    2.7935 C   0  0  0  0  0  0  0  0  0  0  0  0
    7.5234   -7.2923    2.7431 C   0  0  0  0  0  0  0  0  0  0  0  0
    8.5083   -8.0604    2.7154 N   0  0  0  0  0  0  0  0  0  0  0  0
    6.5193   -5.1129    2.0827 C   0  0  0  0  0  0  0  0  0  0  0  0
    6.5795   -4.0732    1.5338 N   0  0  0  0  0  0  0  0  0  0  0  0
   -3.8686    4.2217   -5.6236 H   0  0  0  0  0  0  0  0  0  0  0  0
   -2.2135    4.9050    0.3077 H   0  0  0  0  0  0  0  0  0  0  0  0
   -0.0884    7.8397   -2.8978 H   0  0  0  0  0  0  0  0  0  0  0  0
    2.0240    7.2563   -0.0354 H   0  0  0  0  0  0  0  0  0  0  0  0
    1.5358    9.7050    0.4214 H   0  0  0  0  0  0  0  0  0  0  0  0
   -0.9396   10.2238   -0.0464 H   0  0  0  0  0  0  0  0  0  0  0  0
   -2.4436    8.3606    1.0546 H   0  0  0  0  0  0  0  0  0  0  0  0
   -0.8574    7.3056    2.9356 H   0  0  0  0  0  0  0  0  0  0  0  0
    1.6389    8.1317    2.5534 H   0  0  0  0  0  0  0  0  0  0  0  0
    0.4145    9.5344    2.7737 H   0  0  0  0  0  0  0  0  0  0  0  0
    0.8271    5.9006    1.5991 H   0  0  0  0  0  0  0  0  0  0  0  0
    2.2256   -5.1465    5.6170 H   0  0  0  0  0  0  0  0  0  0  0  0
    0.4516   -4.5471    5.6388 H   0  0  0  0  0  0  0  0  0  0  0  0
    2.1450   -2.2794    5.6547 H   0  0  0  0  0  0  0  0  0  0  0  0
    2.9310   -3.3855    6.8064 H   0  0  0  0  0  0  0  0  0  0  0  0
    1.2517   -2.9217    7.0679 H   0  0  0  0  0  0  0  0  0  0  0  0
   -1.7045    3.3410   -3.5170 H   0  0  0  0  0  0  0  0  0  0  0  0
    0.4066    2.0266   -0.6433 H   0  0  0  0  0  0  0  0  0  0  0  0
   -0.3722    2.9546   -1.8411 H   0  0  0  0  0  0  0  0  0  0  0  0
    0.3305    1.9740   -3.7272 H   0  0  0  0  0  0  0  0  0  0  0  0
    0.5934    0.3871   -3.0230 H   0  0  0  0  0  0  0  0  0  0  0  0
    1.7677    1.7505   -2.7071 H   0  0  0  0  0  0  0  0  0  0  0  0
    1.3295    0.3122   -0.7420 H   0  0  0  0  0  0  0  0  0  0  0  0
    2.0711   -0.5674    0.5931 H   0  0  0  0  0  0  0  0  0  0  0  0
    0.7630   -1.6614   -1.9442 H   0  0  0  0  0  0  0  0  0  0  0  0
    2.3917   -1.8536   -1.3068 H   0  0  0  0  0  0  0  0  0  0  0  0
    0.9085   -2.5478   -0.4322 H   0  0  0  0  0  0  0  0  0  0  0  0
    5.1075   -4.1115    3.6000 H   0  0  0  0  0  0  0  0  0  0  0  0
    6.2120   -9.4338    2.8969 H   0  0  0  0  0  0  0  0  0  0  0  0
  1  2  2  3
  2  3  1  0
  3  4  2  0
  3  5  1  0
  5  6  2  0
  6  7  1  0
  7  8  2  0
  8  9  1  0
  9 10  2  0
 10 11  1  0
 11 12  2  3
 12 13  1  0
 13 14  3  0
 12 15  1  0
 15 16  3  0
  8 17  1  0
 17 18  1  0
 18 19  1  0
 19 20  2  0
 20 21  1  0
 21 22  1  0
 21 23  1  0
  1 24  1  0
 24 25  1  0
 25 26  1  0
 26 27  1  0
 27 28  1  0
 28 29  1  0
 29 30  2  0
 30 31  1  0
 31 32  1  0
 29 33  1  0
 33 34  1  0
 34 35  1  0
 35 36  1  0
 36 37  1  0
 37 38  1  0
 38 39  1  0
 37 40  2  0
 40 41  1  0
 41 42  1  0
 42 43  1  0
 43 44  1  0
 44 45  1  0
 45 46  1  0
 46 47  1  0
 47 48  1  0
 48 49  1  0
 47 50  1  0
 50 51  1  0
 44 52  1  0
 52 53  1  0
 40 54  1  0
 54 55  2  3
 55 56  1  0
 56 57  2  0
 56 58  1  0
 58 59  2  0
 59 60  1  0
 60 61  2  0
 61 62  1  0
 61 63  1  0
 63 64  1  0
 63 65  2  0
 65 66  1  0
 59 67  1  0
 67 68  2  3
 68 69  1  0
 69 70  3  0
 68 71  1  0
 71 72  3  0
 11  2  1  0
 23 17  1  0
 49 24  2  0
 67 55  1  0
 10  5  1  0
 22 18  1  0
 48 26  2  0
 65 58  1  0
 23  7  1  0
 46 27  2  0
 32 28  2  0
 45 33  2  0
 43 34  2  0
 42 36  2  0
  1 73  1  0
  6 74  1  0
  9 75  1  0
 17 76  1  0
 18 77  1  0
 19 78  1  0
 20 79  1  0
 21 80  1  0
 22 81  1  0
 22 82  1  0
 23 83  1  0
 38 84  1  0
 38 85  1  0
 39 86  1  0
 39 87  1  0
 39 88  1  0
 49 89  1  0
 50 90  1  0
 50 91  1  0
 51 92  1  0
 51 93  1  0
 51 94  1  0
 52 95  1  0
 52 96  1  0
 53 97  1  0
 53 98  1  0
 53 99  1  0
 54100  1  0
 60101  1  0
M  END

