
     RDKit          3D

 98111  0  0  0  0  0  0  0  0999 V2000
   -1.3360   -1.7380    6.0843 C   0  0  0  0  0  0  0  0  0  0  0  0
   -0.5003   -2.7111    5.6800 C   0  0  0  0  0  0  0  0  0  0  0  0
   -0.1141   -2.9919    4.2894 C   0  0  0  0  0  0  0  0  0  0  0  0
   -0.7162   -2.6160    3.2453 O   0  0  0  0  0  0  0  0  0  0  0  0
    1.1153   -3.7464    4.3089 C   0  0  0  0  0  0  0  0  0  0  0  0
    1.8782   -4.1383    3.1862 C   0  0  0  0  0  0  0  0  0  0  0  0
    3.0621   -4.7682    3.5130 C   0  0  0  0  0  0  0  0  0  0  0  0
    3.4838   -5.0023    4.8689 C   0  0  0  0  0  0  0  0  0  0  0  0
    2.7331   -4.6301    5.9738 C   0  0  0  0  0  0  0  0  0  0  0  0
    1.4894   -4.0101    5.6554 C   0  0  0  0  0  0  0  0  0  0  0  0
    0.4148   -3.5055    6.5550 C   0  0  0  0  0  0  0  0  0  0  0  0
    0.1576   -3.9116    7.8207 C   0  0  0  0  0  0  0  0  0  0  0  0
    1.0657   -4.7432    8.5599 C   0  0  0  0  0  0  0  0  0  0  0  0
    1.7902   -5.4123    9.1643 N   0  0  0  0  0  0  0  0  0  0  0  0
   -1.1480   -3.7443    8.4021 C   0  0  0  0  0  0  0  0  0  0  0  0
   -2.2016   -3.6395    8.8556 N   0  0  0  0  0  0  0  0  0  0  0  0
    4.7673   -5.6196    4.3819 C   0  0  0  0  0  0  0  0  0  0  0  0
    6.0529   -4.7399    4.5052 C   0  0  0  0  0  0  0  0  0  0  0  0
    7.0802   -5.3825    3.6049 C   0  0  0  0  0  0  0  0  0  0  0  0
    6.6759   -5.1777    2.3477 C   0  0  0  0  0  0  0  0  0  0  0  0
    5.3889   -4.3980    2.4300 C   0  0  0  0  0  0  0  0  0  0  0  0
    5.7218   -3.5318    3.6385 C   0  0  0  0  0  0  0  0  0  0  0  0
    4.3255   -5.3893    2.9980 C   0  0  0  0  0  0  0  0  0  0  0  0
   -1.9673   -0.8184    5.1354 C   0  0  0  0  0  0  0  0  0  0  0  0
   -3.5563   -1.0113    4.5261 S   0  0  0  0  0  0  0  0  0  0  0  0
   -3.2725    0.0882    3.2896 C   0  0  0  0  0  0  0  0  0  0  0  0
   -3.8795    0.5726    2.1726 C   0  0  0  0  0  0  0  0  0  0  0  0
   -5.1675    0.3653    1.6900 C   0  0  0  0  0  0  0  0  0  0  0  0
   -5.5415    0.9773    0.4677 C   0  0  0  0  0  0  0  0  0  0  0  0
   -6.7955    0.7334    0.0122 N   0  0  0  0  0  0  0  0  0  0  0  0
   -7.3463   -0.2390    1.2327 S   0  0  0  0  0  0  0  0  0  0  0  0
   -6.1090   -0.3884    2.3203 N   0  0  0  0  0  0  0  0  0  0  0  0
   -4.5821    1.7277   -0.2223 C   0  0  0  0  0  0  0  0  0  0  0  0
   -4.6207    2.1930   -1.5001 C   0  0  0  0  0  0  0  0  0  0  0  0
   -3.3757    2.5670   -1.8254 C   0  0  0  0  0  0  0  0  0  0  0  0
   -2.5009    2.4382   -0.7969 N   0  0  0  0  0  0  0  0  0  0  0  0
   -1.0527    2.6077   -0.9568 C   0  0  0  0  0  0  0  0  0  0  0  0
   -0.3474    1.2483   -1.0974 C   0  0  0  0  0  0  0  0  0  0  0  0
   -3.2595    1.9114    0.2324 C   0  0  0  0  0  0  0  0  0  0  0  0
   -2.9159    1.3659    1.5200 C   0  0  0  0  0  0  0  0  0  0  0  0
   -1.7716    1.4188    2.2883 N   0  0  0  0  0  0  0  0  0  0  0  0
   -2.0411    0.6019    3.3354 C   0  0  0  0  0  0  0  0  0  0  0  0
   -1.2524    0.1206    4.3771 C   0  0  0  0  0  0  0  0  0  0  0  0
   -0.6276    2.3424    2.2822 C   0  0  0  0  0  0  0  0  0  0  0  0
   -1.0852    3.7978    2.4037 C   0  0  0  0  0  0  0  0  0  0  0  0
   -3.1714    2.7604   -3.1955 C   0  0  0  0  0  0  0  0  0  0  0  0
   -4.3728    2.5234   -3.8982 C   0  0  0  0  0  0  0  0  0  0  0  0
   -5.6301    2.0766   -2.8314 S   0  0  0  0  0  0  0  0  0  0  0  0
   -4.5379    2.6337   -5.3518 C   0  0  0  0  0  0  0  0  0  0  0  0
   -3.6259    2.2542   -6.2646 C   0  0  0  0  0  0  0  0  0  0  0  0
   -3.5367    2.8996   -7.5712 C   0  0  0  0  0  0  0  0  0  0  0  0
   -4.4451    3.6136   -8.0792 O   0  0  0  0  0  0  0  0  0  0  0  0
   -2.2028    2.6570   -8.1344 C   0  0  0  0  0  0  0  0  0  0  0  0
   -1.5126    1.8161   -7.2604 C   0  0  0  0  0  0  0  0  0  0  0  0
   -0.2095    1.4019   -7.5732 C   0  0  0  0  0  0  0  0  0  0  0  0
    0.4046    1.8662   -8.7425 C   0  0  0  0  0  0  0  0  0  0  0  0
   -0.2712    2.7539   -9.6005 C   0  0  0  0  0  0  0  0  0  0  0  0
    0.3774    3.2651  -10.7385 C   0  0  0  0  0  0  0  0  0  0  0  0
   -0.2769    4.1774  -11.5695 C   0  0  0  0  0  0  0  0  0  0  0  0
   -1.5831    4.5848  -11.2765 C   0  0  0  0  0  0  0  0  0  0  0  0
   -2.2484    4.0709  -10.1604 C   0  0  0  0  0  0  0  0  0  0  0  0
   -1.6030    3.1618   -9.3011 C   0  0  0  0  0  0  0  0  0  0  0  0
   -2.3782    1.4552   -6.0967 C   0  0  0  0  0  0  0  0  0  0  0  0
   -2.2050    0.4122   -5.2364 C   0  0  0  0  0  0  0  0  0  0  0  0
   -3.3175   -0.2091   -4.5562 C   0  0  0  0  0  0  0  0  0  0  0  0
   -4.1928   -0.7445   -4.0152 N   0  0  0  0  0  0  0  0  0  0  0  0
   -0.9492   -0.2697   -5.0728 C   0  0  0  0  0  0  0  0  0  0  0  0
    0.0534   -0.8361   -4.9249 N   0  0  0  0  0  0  0  0  0  0  0  0
   -1.4784   -1.5321    7.1383 H   0  0  0  0  0  0  0  0  0  0  0  0
    1.5886   -3.9216    2.1619 H   0  0  0  0  0  0  0  0  0  0  0  0
    3.1087   -4.7863    6.9797 H   0  0  0  0  0  0  0  0  0  0  0  0
    4.8908   -6.6865    4.6691 H   0  0  0  0  0  0  0  0  0  0  0  0
    6.3914   -4.5021    5.5335 H   0  0  0  0  0  0  0  0  0  0  0  0
    8.0126   -5.8564    3.9051 H   0  0  0  0  0  0  0  0  0  0  0  0
    7.2341   -5.4394    1.4570 H   0  0  0  0  0  0  0  0  0  0  0  0
    5.0970   -3.8590    1.5025 H   0  0  0  0  0  0  0  0  0  0  0  0
    4.8625   -2.9176    3.9939 H   0  0  0  0  0  0  0  0  0  0  0  0
    6.5846   -2.8434    3.4574 H   0  0  0  0  0  0  0  0  0  0  0  0
    4.1636   -6.3155    2.4075 H   0  0  0  0  0  0  0  0  0  0  0  0
   -0.8592    3.2001   -1.8652 H   0  0  0  0  0  0  0  0  0  0  0  0
   -0.6481    3.2482   -0.1773 H   0  0  0  0  0  0  0  0  0  0  0  0
   -0.6344    0.7765   -2.0690 H   0  0  0  0  0  0  0  0  0  0  0  0
    0.7545    1.4116   -1.1061 H   0  0  0  0  0  0  0  0  0  0  0  0
   -0.6146    0.5566   -0.2598 H   0  0  0  0  0  0  0  0  0  0  0  0
   -0.1941    0.3187    4.5084 H   0  0  0  0  0  0  0  0  0  0  0  0
    0.0285    2.1591    3.1618 H   0  0  0  0  0  0  0  0  0  0  0  0
    0.0472    2.1430    1.4315 H   0  0  0  0  0  0  0  0  0  0  0  0
   -0.2120    4.4821    2.3138 H   0  0  0  0  0  0  0  0  0  0  0  0
   -1.5553    3.9490    3.4025 H   0  0  0  0  0  0  0  0  0  0  0  0
   -1.8339    4.0580    1.6207 H   0  0  0  0  0  0  0  0  0  0  0  0
   -2.2275    3.0063   -3.6585 H   0  0  0  0  0  0  0  0  0  0  0  0
   -5.3954    3.2123   -5.6846 H   0  0  0  0  0  0  0  0  0  0  0  0
    0.3680    0.7570   -6.9347 H   0  0  0  0  0  0  0  0  0  0  0  0
    1.4239    1.5392   -8.9752 H   0  0  0  0  0  0  0  0  0  0  0  0
    1.3986    2.9728  -10.9693 H   0  0  0  0  0  0  0  0  0  0  0  0
    0.2374    4.5662  -12.4400 H   0  0  0  0  0  0  0  0  0  0  0  0
   -2.0977    5.2712  -11.9286 H   0  0  0  0  0  0  0  0  0  0  0  0
   -3.2551    4.4198   -9.9679 H   0  0  0  0  0  0  0  0  0  0  0  0
  1  2  2  3
  2  3  1  0
  3  4  2  0
  3  5  1  0
  5  6  2  0
  6  7  1  0
  7  8  2  0
  8  9  1  0
  9 10  2  0
 10 11  1  0
 11 12  2  3
 12 13  1  0
 13 14  3  0
 12 15  1  0
 15 16  3  0
  8 17  1  0
 17 18  1  0
 18 19  1  0
 19 20  2  0
 20 21  1  0
 21 22  1  0
 21 23  1  0
  1 24  1  0
 24 25  1  0
 25 26  1  0
 26 27  1  0
 27 28  1  0
 28 29  1  0
 29 30  2  0
 30 31  1  0
 31 32  1  0
 29 33  1  0
 33 34  1  0
 34 35  2  0
 35 36  1  0
 36 37  1  0
 37 38  1  0
 36 39  1  0
 39 40  1  0
 40 41  1  0
 41 42  1  0
 42 43  1  0
 41 44  1  0
 44 45  1  0
 35 46  1  0
 46 47  2  0
 47 48  1  0
 47 49  1  0
 49 50  2  3
 50 51  1  0
 51 52  2  0
 51 53  1  0
 53 54  2  0
 54 55  1  0
 55 56  2  0
 56 57  1  0
 57 58  2  0
 58 59  1  0
 59 60  2  0
 60 61  1  0
 61 62  2  0
 54 63  1  0
 63 64  2  3
 64 65  1  0
 65 66  3  0
 64 67  1  0
 67 68  3  0
 11  2  1  0
 23 17  1  0
 43 24  2  0
 63 50  1  0
 10  5  1  0
 22 18  1  0
 42 26  2  0
 62 53  1  0
 23  7  1  0
 40 27  2  0
 62 57  1  0
 32 28  2  0
 39 33  2  0
 48 34  1  0
  1 69  1  0
  6 70  1  0
  9 71  1  0
 17 72  1  0
 18 73  1  0
 19 74  1  0
 20 75  1  0
 21 76  1  0
 22 77  1  0
 22 78  1  0
 23 79  1  0
 37 80  1  0
 37 81  1  0
 38 82  1  0
 38 83  1  0
 38 84  1  0
 43 85  1  0
 44 86  1  0
 44 87  1  0
 45 88  1  0
 45 89  1  0
 45 90  1  0
 46 91  1  0
 49 92  1  0
 55 93  1  0
 56 94  1  0
 58 95  1  0
 59 96  1  0
 60 97  1  0
 61 98  1  0
M  END

