
     RDKit          3D

145161  0  0  0  0  0  0  0  0999 V2000
    1.8064    3.1320   -5.8698 C   0  0  0  0  0  0  0  0  0  0  0  0
    2.9792    3.2311   -5.2132 C   0  0  0  0  0  0  0  0  0  0  0  0
    3.8303    4.4215   -5.2804 C   0  0  0  0  0  0  0  0  0  0  0  0
    3.8293    5.2800   -6.2029 O   0  0  0  0  0  0  0  0  0  0  0  0
    4.5704    4.5271   -4.0337 C   0  0  0  0  0  0  0  0  0  0  0  0
    5.3252    5.6292   -3.5619 C   0  0  0  0  0  0  0  0  0  0  0  0
    5.7294    5.5083   -2.2415 C   0  0  0  0  0  0  0  0  0  0  0  0
    5.3986    4.3780   -1.4252 C   0  0  0  0  0  0  0  0  0  0  0  0
    4.6720    3.2937   -1.8814 C   0  0  0  0  0  0  0  0  0  0  0  0
    4.2776    3.3878   -3.2411 C   0  0  0  0  0  0  0  0  0  0  0  0
    3.4241    2.4615   -4.0167 C   0  0  0  0  0  0  0  0  0  0  0  0
    3.3796    1.1142   -3.8727 C   0  0  0  0  0  0  0  0  0  0  0  0
    4.0587    0.4350   -2.7975 C   0  0  0  0  0  0  0  0  0  0  0  0
    4.6193   -0.1095   -1.9455 N   0  0  0  0  0  0  0  0  0  0  0  0
    2.7997    0.2609   -4.8778 C   0  0  0  0  0  0  0  0  0  0  0  0
    2.3385   -0.4399   -5.6729 N   0  0  0  0  0  0  0  0  0  0  0  0
    6.0802    5.0048   -0.2469 C   0  0  0  0  0  0  0  0  0  0  0  0
    7.4582    4.4239    0.1864 C   0  0  0  0  0  0  0  0  0  0  0  0
    8.1887    3.8724   -1.0169 C   0  0  0  0  0  0  0  0  0  0  0  0
    8.5129    4.9193   -1.7787 C   0  0  0  0  0  0  0  0  0  0  0  0
    7.9938    6.1489   -1.0675 C   0  0  0  0  0  0  0  0  0  0  0  0
    8.2372    5.7159    0.3683 C   0  0  0  0  0  0  0  0  0  0  0  0
    6.4341    6.1568   -1.0847 C   0  0  0  0  0  0  0  0  0  0  0  0
    0.6489    2.3916   -5.3269 C   0  0  0  0  0  0  0  0  0  0  0  0
   -0.2060    1.5182   -6.0427 C   0  0  0  0  0  0  0  0  0  0  0  0
   -0.1386    1.2689   -7.4982 C   0  0  0  0  0  0  0  0  0  0  0  0
   -0.1640    2.3454   -8.3986 C   0  0  0  0  0  0  0  0  0  0  0  0
   -0.0840    2.1190   -9.7747 C   0  0  0  0  0  0  0  0  0  0  0  0
    0.0031    0.8102  -10.2726 C   0  0  0  0  0  0  0  0  0  0  0  0
    0.1370    0.5714  -11.7518 C   0  0  0  0  0  0  0  0  0  0  0  0
    1.6054    0.4878  -12.1555 C   0  0  0  0  0  0  0  0  0  0  0  0
    0.0234   -0.2679   -9.3750 C   0  0  0  0  0  0  0  0  0  0  0  0
   -0.0522   -0.0407   -7.9979 C   0  0  0  0  0  0  0  0  0  0  0  0
   -1.0637    0.8438   -5.1610 C   0  0  0  0  0  0  0  0  0  0  0  0
   -2.1555   -0.4745   -5.3113 S   0  0  0  0  0  0  0  0  0  0  0  0
   -2.3670   -0.5316   -3.6236 C   0  0  0  0  0  0  0  0  0  0  0  0
   -2.9736   -1.2781   -2.6448 C   0  0  0  0  0  0  0  0  0  0  0  0
   -3.8789   -2.3481   -2.6738 C   0  0  0  0  0  0  0  0  0  0  0  0
   -4.3293   -2.8998   -1.4301 C   0  0  0  0  0  0  0  0  0  0  0  0
   -5.1876   -3.9477   -1.5011 N   0  0  0  0  0  0  0  0  0  0  0  0
   -5.3291   -4.0826   -3.1478 S   0  0  0  0  0  0  0  0  0  0  0  0
   -4.3644   -2.9083   -3.8082 N   0  0  0  0  0  0  0  0  0  0  0  0
   -3.8116   -2.3820   -0.2315 C   0  0  0  0  0  0  0  0  0  0  0  0
   -3.8112   -2.8859    1.0434 C   0  0  0  0  0  0  0  0  0  0  0  0
   -4.2976   -4.3284    1.8053 S   0  0  0  0  0  0  0  0  0  0  0  0
   -3.1794   -4.0822    3.0733 C   0  0  0  0  0  0  0  0  0  0  0  0
   -2.7721   -4.8461    4.1737 C   0  0  0  0  0  0  0  0  0  0  0  0
   -3.4621   -6.0755    4.6038 C   0  0  0  0  0  0  0  0  0  0  0  0
   -4.8263   -6.0358    4.9226 C   0  0  0  0  0  0  0  0  0  0  0  0
   -5.4810   -7.1870    5.3660 C   0  0  0  0  0  0  0  0  0  0  0  0
   -4.7833   -8.3991    5.4744 C   0  0  0  0  0  0  0  0  0  0  0  0
   -5.4692   -9.6199    6.0260 C   0  0  0  0  0  0  0  0  0  0  0  0
   -5.3338   -9.6717    7.5455 C   0  0  0  0  0  0  0  0  0  0  0  0
   -3.4216   -8.4437    5.1364 C   0  0  0  0  0  0  0  0  0  0  0  0
   -2.7676   -7.2910    4.6946 C   0  0  0  0  0  0  0  0  0  0  0  0
   -1.6473   -4.2655    4.8127 C   0  0  0  0  0  0  0  0  0  0  0  0
   -1.2249   -2.8322    3.9873 S   0  0  0  0  0  0  0  0  0  0  0  0
   -2.4373   -2.9567    2.8529 C   0  0  0  0  0  0  0  0  0  0  0  0
   -2.7974   -2.2668    1.7098 C   0  0  0  0  0  0  0  0  0  0  0  0
   -2.1115   -1.3854    0.9385 N   0  0  0  0  0  0  0  0  0  0  0  0
   -2.8281   -1.3806   -0.2280 C   0  0  0  0  0  0  0  0  0  0  0  0
   -2.5016   -0.7435   -1.4384 C   0  0  0  0  0  0  0  0  0  0  0  0
   -1.7353    0.3664   -1.6433 N   0  0  0  0  0  0  0  0  0  0  0  0
   -1.6485    0.4245   -2.9891 C   0  0  0  0  0  0  0  0  0  0  0  0
   -0.9249    1.2134   -3.8493 C   0  0  0  0  0  0  0  0  0  0  0  0
    0.2688    2.3592   -3.6625 S   0  0  0  0  0  0  0  0  0  0  0  0
   -1.5454    1.5064   -0.7333 C   0  0  0  0  0  0  0  0  0  0  0  0
   -2.4804    2.6603   -1.0934 C   0  0  0  0  0  0  0  0  0  0  0  0
   -0.6524   -1.2044    1.0429 C   0  0  0  0  0  0  0  0  0  0  0  0
    0.0839   -2.4511    0.5454 C   0  0  0  0  0  0  0  0  0  0  0  0
   -1.0038   -4.7251    6.1077 C   0  0  0  0  0  0  0  0  0  0  0  0
   -1.5639   -3.9682    7.2761 C   0  0  0  0  0  0  0  0  0  0  0  0
   -1.0543   -2.7915    7.6393 C   0  0  0  0  0  0  0  0  0  0  0  0
    0.0792   -2.1871    6.8922 C   0  0  0  0  0  0  0  0  0  0  0  0
    0.1953   -0.8322    6.7108 C   0  0  0  0  0  0  0  0  0  0  0  0
    1.4256   -0.2277    6.1312 C   0  0  0  0  0  0  0  0  0  0  0  0
    2.5453   -0.7885    6.2942 O   0  0  0  0  0  0  0  0  0  0  0  0
    1.3621    1.0241    5.4215 N   0  0  0  0  0  0  0  0  0  0  0  0
    2.5204    1.4496    4.6160 C   0  0  0  0  0  0  0  0  0  0  0  0
    3.4553    2.3286    5.4401 C   0  0  0  0  0  0  0  0  0  0  0  0
    0.2250    1.8928    5.6310 C   0  0  0  0  0  0  0  0  0  0  0  0
    0.0759    3.2955    4.7708 S   0  0  0  0  0  0  0  0  0  0  0  0
   -0.8000    1.5118    6.5767 N   0  0  0  0  0  0  0  0  0  0  0  0
   -0.9166    0.1321    6.9788 C   0  0  0  0  0  0  0  0  0  0  0  0
   -1.9904   -0.2496    7.5189 O   0  0  0  0  0  0  0  0  0  0  0  0
   -1.7762    2.4902    7.0896 C   0  0  0  0  0  0  0  0  0  0  0  0
   -3.0347    2.5118    6.2240 C   0  0  0  0  0  0  0  0  0  0  0  0
    1.0688   -3.1625    6.2537 C   0  0  0  0  0  0  0  0  0  0  0  0
    0.5363   -4.6097    6.1029 C   0  0  0  0  0  0  0  0  0  0  0  0
    1.6357    3.7732   -6.7241 H   0  0  0  0  0  0  0  0  0  0  0  0
    5.5187    6.5138   -4.1544 H   0  0  0  0  0  0  0  0  0  0  0  0
    4.3871    2.4897   -1.2190 H   0  0  0  0  0  0  0  0  0  0  0  0
    5.3921    5.2536    0.5925 H   0  0  0  0  0  0  0  0  0  0  0  0
    7.4341    3.7503    1.0685 H   0  0  0  0  0  0  0  0  0  0  0  0
    8.4700    2.8399   -1.1998 H   0  0  0  0  0  0  0  0  0  0  0  0
    9.1086    4.8853   -2.6833 H   0  0  0  0  0  0  0  0  0  0  0  0
    8.4760    7.1018   -1.3669 H   0  0  0  0  0  0  0  0  0  0  0  0
    9.3168    5.5509    0.6068 H   0  0  0  0  0  0  0  0  0  0  0  0
    7.7897    6.4021    1.1254 H   0  0  0  0  0  0  0  0  0  0  0  0
    5.9662    7.1095   -0.7478 H   0  0  0  0  0  0  0  0  0  0  0  0
   -0.2621    3.3620   -8.0404 H   0  0  0  0  0  0  0  0  0  0  0  0
   -0.0914    2.9639  -10.4522 H   0  0  0  0  0  0  0  0  0  0  0  0
   -0.3784   -0.3737  -12.0331 H   0  0  0  0  0  0  0  0  0  0  0  0
   -0.3521    1.3944  -12.3210 H   0  0  0  0  0  0  0  0  0  0  0  0
    1.6831    0.3631  -13.2558 H   0  0  0  0  0  0  0  0  0  0  0  0
    2.1417    1.4133  -11.8603 H   0  0  0  0  0  0  0  0  0  0  0  0
    2.0864   -0.3863  -11.6641 H   0  0  0  0  0  0  0  0  0  0  0  0
    0.1059   -1.2838   -9.7423 H   0  0  0  0  0  0  0  0  0  0  0  0
   -0.0179   -0.8870   -7.3230 H   0  0  0  0  0  0  0  0  0  0  0  0
   -5.3791   -5.1061    4.8513 H   0  0  0  0  0  0  0  0  0  0  0  0
   -6.5293   -7.1310    5.6358 H   0  0  0  0  0  0  0  0  0  0  0  0
   -5.0253  -10.5414    5.5876 H   0  0  0  0  0  0  0  0  0  0  0  0
   -6.5479   -9.6120    5.7542 H   0  0  0  0  0  0  0  0  0  0  0  0
   -5.8317  -10.5847    7.9338 H   0  0  0  0  0  0  0  0  0  0  0  0
   -5.8164   -8.7812    8.0038 H   0  0  0  0  0  0  0  0  0  0  0  0
   -4.2619   -9.6977    7.8368 H   0  0  0  0  0  0  0  0  0  0  0  0
   -2.8658   -9.3701    5.2242 H   0  0  0  0  0  0  0  0  0  0  0  0
   -1.7192   -7.3465    4.4252 H   0  0  0  0  0  0  0  0  0  0  0  0
   -1.7832    1.2225    0.3141 H   0  0  0  0  0  0  0  0  0  0  0  0
   -0.4911    1.8512   -0.7799 H   0  0  0  0  0  0  0  0  0  0  0  0
   -2.3585    3.4817   -0.3561 H   0  0  0  0  0  0  0  0  0  0  0  0
   -2.2442    3.0558   -2.1021 H   0  0  0  0  0  0  0  0  0  0  0  0
   -3.5344    2.3133   -1.0769 H   0  0  0  0  0  0  0  0  0  0  0  0
   -0.2905   -0.3599    0.4412 H   0  0  0  0  0  0  0  0  0  0  0  0
   -0.3671   -0.9878    2.0942 H   0  0  0  0  0  0  0  0  0  0  0  0
   -0.1983   -3.3425    1.1416 H   0  0  0  0  0  0  0  0  0  0  0  0
   -0.1676   -2.6380   -0.5225 H   0  0  0  0  0  0  0  0  0  0  0  0
    1.1801   -2.2995    0.6291 H   0  0  0  0  0  0  0  0  0  0  0  0
   -1.2437   -5.7948    6.2665 H   0  0  0  0  0  0  0  0  0  0  0  0
   -2.3761   -4.3979    7.8481 H   0  0  0  0  0  0  0  0  0  0  0  0
   -1.4548   -2.3093    8.5193 H   0  0  0  0  0  0  0  0  0  0  0  0
    3.0846    0.5642    4.2476 H   0  0  0  0  0  0  0  0  0  0  0  0
    2.1926    1.9952    3.7081 H   0  0  0  0  0  0  0  0  0  0  0  0
    2.9247    3.2431    5.7814 H   0  0  0  0  0  0  0  0  0  0  0  0
    4.3267    2.6316    4.8221 H   0  0  0  0  0  0  0  0  0  0  0  0
    3.8222    1.7717    6.3287 H   0  0  0  0  0  0  0  0  0  0  0  0
   -1.3304    3.5082    7.1283 H   0  0  0  0  0  0  0  0  0  0  0  0
   -2.0552    2.2390    8.1348 H   0  0  0  0  0  0  0  0  0  0  0  0
   -3.5048    1.5052    6.1952 H   0  0  0  0  0  0  0  0  0  0  0  0
   -2.7908    2.8247    5.1884 H   0  0  0  0  0  0  0  0  0  0  0  0
   -3.7655    3.2298    6.6513 H   0  0  0  0  0  0  0  0  0  0  0  0
    1.3474   -2.8025    5.2406 H   0  0  0  0  0  0  0  0  0  0  0  0
    1.9963   -3.1914    6.8666 H   0  0  0  0  0  0  0  0  0  0  0  0
    0.9451   -5.0678    5.1760 H   0  0  0  0  0  0  0  0  0  0  0  0
    0.9269   -5.2104    6.9530 H   0  0  0  0  0  0  0  0  0  0  0  0
  1  2  2  3
  2  3  1  0
  3  4  2  0
  3  5  1  0
  5  6  2  0
  6  7  1  0
  7  8  2  0
  8  9  1  0
  9 10  2  0
 10 11  1  0
 11 12  2  3
 12 13  1  0
 13 14  3  0
 12 15  1  0
 15 16  3  0
  8 17  1  0
 17 18  1  0
 18 19  1  0
 19 20  2  0
 20 21  1  0
 21 22  1  0
 21 23  1  0
  1 24  1  0
 24 25  2  0
 25 26  1  0
 26 27  2  0
 27 28  1  0
 28 29  2  0
 29 30  1  0
 30 31  1  0
 29 32  1  0
 32 33  2  0
 25 34  1  0
 34 35  1  0
 35 36  1  0
 36 37  1  0
 37 38  1  0
 38 39  1  0
 39 40  2  0
 40 41  1  0
 41 42  1  0
 39 43  1  0
 43 44  1  0
 44 45  1  0
 45 46  1  0
 46 47  1  0
 47 48  1  0
 48 49  2  0
 49 50  1  0
 50 51  2  0
 51 52  1  0
 52 53  1  0
 51 54  1  0
 54 55  2  0
 47 56  2  0
 56 57  1  0
 57 58  1  0
 58 59  1  0
 59 60  1  0
 60 61  1  0
 61 62  1  0
 62 63  1  0
 63 64  1  0
 64 65  1  0
 65 66  1  0
 63 67  1  0
 67 68  1  0
 60 69  1  0
 69 70  1  0
 56 71  1  0
 71 72  1  0
 72 73  2  0
 73 74  1  0
 74 75  2  3
 75 76  1  0
 76 77  2  0
 76 78  1  0
 78 79  1  0
 79 80  1  0
 78 81  1  0
 81 82  2  0
 81 83  1  0
 83 84  1  0
 84 85  2  0
 83 86  1  0
 86 87  1  0
 74 88  1  0
 88 89  1  0
 11  2  1  0
 23 17  1  0
 66 24  1  0
 89 71  1  0
 10  5  1  0
 22 18  1  0
 33 26  1  0
 65 34  2  0
 84 75  1  0
 23  7  1  0
 64 36  2  0
 62 37  2  0
 42 38  2  0
 61 43  2  0
 59 44  2  0
 58 46  2  0
 55 48  1  0
  1 90  1  0
  6 91  1  0
  9 92  1  0
 17 93  1  0
 18 94  1  0
 19 95  1  0
 20 96  1  0
 21 97  1  0
 22 98  1  0
 22 99  1  0
 23100  1  0
 27101  1  0
 28102  1  0
 30103  1  0
 30104  1  0
 31105  1  0
 31106  1  0
 31107  1  0
 32108  1  0
 33109  1  0
 49110  1  0
 50111  1  0
 52112  1  0
 52113  1  0
 53114  1  0
 53115  1  0
 53116  1  0
 54117  1  0
 55118  1  0
 67119  1  0
 67120  1  0
 68121  1  0
 68122  1  0
 68123  1  0
 69124  1  0
 69125  1  0
 70126  1  0
 70127  1  0
 70128  1  0
 71129  1  0
 72130  1  0
 73131  1  0
 79132  1  0
 79133  1  0
 80134  1  0
 80135  1  0
 80136  1  0
 86137  1  0
 86138  1  0
 87139  1  0
 87140  1  0
 87141  1  0
 88142  1  0
 88143  1  0
 89144  1  0
 89145  1  0
M  END

