
     RDKit          3D

139155  0  0  0  0  0  0  0  0999 V2000
   -5.6257   -2.8624    3.3632 C   0  0  0  0  0  0  0  0  0  0  0  0
   -6.1785   -2.9569    2.1381 C   0  0  0  0  0  0  0  0  0  0  0  0
   -5.4562   -2.7774    0.8717 C   0  0  0  0  0  0  0  0  0  0  0  0
   -4.3864   -2.1321    0.7051 O   0  0  0  0  0  0  0  0  0  0  0  0
   -6.1625   -3.4870   -0.1675 C   0  0  0  0  0  0  0  0  0  0  0  0
   -5.6795   -3.7845   -1.4626 C   0  0  0  0  0  0  0  0  0  0  0  0
   -6.4735   -4.6715   -2.1612 C   0  0  0  0  0  0  0  0  0  0  0  0
   -7.6808   -5.2335   -1.6309 C   0  0  0  0  0  0  0  0  0  0  0  0
   -8.1627   -4.9385   -0.3634 C   0  0  0  0  0  0  0  0  0  0  0  0
   -7.3620   -4.0184    0.3713 C   0  0  0  0  0  0  0  0  0  0  0  0
   -7.4867   -3.5892    1.7935 C   0  0  0  0  0  0  0  0  0  0  0  0
   -8.6193   -3.5801    2.5396 C   0  0  0  0  0  0  0  0  0  0  0  0
   -8.6766   -2.9580    3.8365 C   0  0  0  0  0  0  0  0  0  0  0  0
   -8.7382   -2.4534    4.8795 N   0  0  0  0  0  0  0  0  0  0  0  0
   -9.8811   -4.0354    2.0189 C   0  0  0  0  0  0  0  0  0  0  0  0
  -10.9038   -4.3848    1.6083 N   0  0  0  0  0  0  0  0  0  0  0  0
   -7.8500   -6.0722   -2.8655 C   0  0  0  0  0  0  0  0  0  0  0  0
   -7.5314   -7.5968   -2.7598 C   0  0  0  0  0  0  0  0  0  0  0  0
   -6.4715   -7.8312   -1.7069 C   0  0  0  0  0  0  0  0  0  0  0  0
   -5.3420   -7.3066   -2.1836 C   0  0  0  0  0  0  0  0  0  0  0  0
   -5.6695   -6.7376   -3.5475 C   0  0  0  0  0  0  0  0  0  0  0  0
   -6.6784   -7.7742   -4.0033 C   0  0  0  0  0  0  0  0  0  0  0  0
   -6.6094   -5.5005   -3.4016 C   0  0  0  0  0  0  0  0  0  0  0  0
   -4.2067   -2.5334    3.5500 C   0  0  0  0  0  0  0  0  0  0  0  0
   -3.1256   -3.3647    3.1986 C   0  0  0  0  0  0  0  0  0  0  0  0
   -3.2425   -4.7956    2.7428 C   0  0  0  0  0  0  0  0  0  0  0  0
   -3.1838   -5.7421    3.9358 C   0  0  0  0  0  0  0  0  0  0  0  0
   -1.9176   -2.6780    3.3088 C   0  0  0  0  0  0  0  0  0  0  0  0
   -0.3444   -3.0360    2.7741 S   0  0  0  0  0  0  0  0  0  0  0  0
    0.1847   -1.4673    3.1563 C   0  0  0  0  0  0  0  0  0  0  0  0
    1.1562   -0.6403    2.6611 C   0  0  0  0  0  0  0  0  0  0  0  0
    2.1185   -0.8878    1.6622 C   0  0  0  0  0  0  0  0  0  0  0  0
    2.3780   -2.1409    1.2109 N   0  0  0  0  0  0  0  0  0  0  0  0
    3.2176   -2.3675    0.1624 C   0  0  0  0  0  0  0  0  0  0  0  0
    3.4470   -3.7711   -0.2430 C   0  0  0  0  0  0  0  0  0  0  0  0
    4.8622   -4.4215   -0.8986 S   0  0  0  0  0  0  0  0  0  0  0  0
    4.2719   -5.9842   -1.0986 C   0  0  0  0  0  0  0  0  0  0  0  0
    4.9657   -7.0666   -1.8623 C   0  0  0  0  0  0  0  0  0  0  0  0
    4.7180   -6.8991   -3.3578 C   0  0  0  0  0  0  0  0  0  0  0  0
    2.9608   -6.0177   -0.6375 C   0  0  0  0  0  0  0  0  0  0  0  0
    2.5054   -4.7901   -0.1411 C   0  0  0  0  0  0  0  0  0  0  0  0
    2.1790   -7.1231   -0.6984 F   0  0  0  0  0  0  0  0  0  0  0  0
    3.8112   -1.2544   -0.4938 C   0  0  0  0  0  0  0  0  0  0  0  0
    4.5562   -1.3659   -1.7580 C   0  0  0  0  0  0  0  0  0  0  0  0
    4.1277   -2.0341   -2.9033 C   0  0  0  0  0  0  0  0  0  0  0  0
    4.9974   -1.8737   -3.9868 C   0  0  0  0  0  0  0  0  0  0  0  0
    4.7907   -2.4586   -5.1908 F   0  0  0  0  0  0  0  0  0  0  0  0
    6.0815   -1.0480   -3.7132 C   0  0  0  0  0  0  0  0  0  0  0  0
    7.2065   -0.7309   -4.6477 C   0  0  0  0  0  0  0  0  0  0  0  0
    8.2991   -1.7892   -4.5526 C   0  0  0  0  0  0  0  0  0  0  0  0
    5.9744   -0.5331   -2.1151 S   0  0  0  0  0  0  0  0  0  0  0  0
    3.5695   -0.0021   -0.0218 N   0  0  0  0  0  0  0  0  0  0  0  0
    2.7414    0.2119    1.0298 C   0  0  0  0  0  0  0  0  0  0  0  0
    2.4055    1.5034    1.4594 C   0  0  0  0  0  0  0  0  0  0  0  0
    2.8370    2.7426    1.0752 C   0  0  0  0  0  0  0  0  0  0  0  0
    3.8933    3.4729   -0.0386 S   0  0  0  0  0  0  0  0  0  0  0  0
    3.4803    5.0232    0.5582 C   0  0  0  0  0  0  0  0  0  0  0  0
    3.7838    6.3238    0.1559 C   0  0  0  0  0  0  0  0  0  0  0  0
    4.7280    6.6723   -0.9612 C   0  0  0  0  0  0  0  0  0  0  0  0
    6.1017    7.0438   -0.4106 C   0  0  0  0  0  0  0  0  0  0  0  0
    3.0629    7.2603    0.9214 C   0  0  0  0  0  0  0  0  0  0  0  0
    2.0741    6.4685    2.0660 S   0  0  0  0  0  0  0  0  0  0  0  0
    2.5760    4.9443    1.5876 C   0  0  0  0  0  0  0  0  0  0  0  0
    2.2067    3.6442    1.8671 C   0  0  0  0  0  0  0  0  0  0  0  0
    1.3801    3.0747    2.7744 N   0  0  0  0  0  0  0  0  0  0  0  0
    1.0424    3.6559    4.0817 C   0  0  0  0  0  0  0  0  0  0  0  0
    2.3011    3.8965    4.9117 C   0  0  0  0  0  0  0  0  0  0  0  0
    1.4565    1.7454    2.4588 C   0  0  0  0  0  0  0  0  0  0  0  0
    0.7325    0.6577    2.9822 C   0  0  0  0  0  0  0  0  0  0  0  0
   -0.5485    0.6521    3.4732 N   0  0  0  0  0  0  0  0  0  0  0  0
   -0.8206   -0.6735    3.6232 C   0  0  0  0  0  0  0  0  0  0  0  0
   -2.0246   -1.3690    3.7030 C   0  0  0  0  0  0  0  0  0  0  0  0
   -3.6396   -0.9760    3.9439 S   0  0  0  0  0  0  0  0  0  0  0  0
   -1.5820    1.6509    3.1538 C   0  0  0  0  0  0  0  0  0  0  0  0
   -2.0555    1.4991    1.7070 C   0  0  0  0  0  0  0  0  0  0  0  0
    3.0564    8.7112    0.6933 C   0  0  0  0  0  0  0  0  0  0  0  0
    2.0509    9.3412    0.0564 C   0  0  0  0  0  0  0  0  0  0  0  0
    0.9469    8.6790   -0.6519 C   0  0  0  0  0  0  0  0  0  0  0  0
    0.6256    7.4624   -0.5747 O   0  0  0  0  0  0  0  0  0  0  0  0
    0.3194    9.6474   -1.5225 C   0  0  0  0  0  0  0  0  0  0  0  0
   -0.7097    9.4342   -2.4397 C   0  0  0  0  0  0  0  0  0  0  0  0
   -1.1171   10.5066   -3.2443 C   0  0  0  0  0  0  0  0  0  0  0  0
   -2.5275   10.2620   -4.5113 Br  0  0  0  0  0  0  0  0  0  0  0  0
   -0.4783   11.7542   -3.1349 C   0  0  0  0  0  0  0  0  0  0  0  0
    0.5594   11.9463   -2.2062 C   0  0  0  0  0  0  0  0  0  0  0  0
    0.9405   10.8774   -1.3777 C   0  0  0  0  0  0  0  0  0  0  0  0
    1.9877   10.7881   -0.3181 C   0  0  0  0  0  0  0  0  0  0  0  0
    2.5865   11.8219    0.3281 C   0  0  0  0  0  0  0  0  0  0  0  0
    2.3822   13.1956   -0.0448 C   0  0  0  0  0  0  0  0  0  0  0  0
    2.2281   14.3071   -0.3287 N   0  0  0  0  0  0  0  0  0  0  0  0
    3.3703   11.6311    1.5195 C   0  0  0  0  0  0  0  0  0  0  0  0
    3.9979   11.4907    2.4838 N   0  0  0  0  0  0  0  0  0  0  0  0
   -6.1709   -3.1576    4.2444 H   0  0  0  0  0  0  0  0  0  0  0  0
   -4.7340   -3.4195   -1.8415 H   0  0  0  0  0  0  0  0  0  0  0  0
   -9.0227   -5.4513    0.0363 H   0  0  0  0  0  0  0  0  0  0  0  0
   -8.7535   -5.8222   -3.4651 H   0  0  0  0  0  0  0  0  0  0  0  0
   -8.4141   -8.2653   -2.6943 H   0  0  0  0  0  0  0  0  0  0  0  0
   -6.5768   -8.3828   -0.7798 H   0  0  0  0  0  0  0  0  0  0  0  0
   -4.3696   -7.3570   -1.7063 H   0  0  0  0  0  0  0  0  0  0  0  0
   -4.7958   -6.5915   -4.2172 H   0  0  0  0  0  0  0  0  0  0  0  0
   -7.2039   -7.4969   -4.9480 H   0  0  0  0  0  0  0  0  0  0  0  0
   -6.2433   -8.7965   -4.1044 H   0  0  0  0  0  0  0  0  0  0  0  0
   -6.7543   -4.9070   -4.3302 H   0  0  0  0  0  0  0  0  0  0  0  0
   -4.1979   -4.9559    2.2000 H   0  0  0  0  0  0  0  0  0  0  0  0
   -2.4192   -5.0392    2.0395 H   0  0  0  0  0  0  0  0  0  0  0  0
   -3.2969   -6.7913    3.5856 H   0  0  0  0  0  0  0  0  0  0  0  0
   -4.0031   -5.5154    4.6509 H   0  0  0  0  0  0  0  0  0  0  0  0
   -2.2070   -5.6405    4.4555 H   0  0  0  0  0  0  0  0  0  0  0  0
    6.0575   -7.0203   -1.6601 H   0  0  0  0  0  0  0  0  0  0  0  0
    4.5941   -8.0594   -1.5335 H   0  0  0  0  0  0  0  0  0  0  0  0
    5.0796   -5.9087   -3.7024 H   0  0  0  0  0  0  0  0  0  0  0  0
    3.6340   -6.9873   -3.5792 H   0  0  0  0  0  0  0  0  0  0  0  0
    5.2587   -7.6896   -3.9189 H   0  0  0  0  0  0  0  0  0  0  0  0
    1.5050   -4.6468    0.2456 H   0  0  0  0  0  0  0  0  0  0  0  0
    3.2167   -2.6133   -2.9570 H   0  0  0  0  0  0  0  0  0  0  0  0
    6.8262   -0.6817   -5.6913 H   0  0  0  0  0  0  0  0  0  0  0  0
    7.6313    0.2633   -4.3894 H   0  0  0  0  0  0  0  0  0  0  0  0
    9.1444   -1.5086   -5.2160 H   0  0  0  0  0  0  0  0  0  0  0  0
    7.9068   -2.7758   -4.8759 H   0  0  0  0  0  0  0  0  0  0  0  0
    8.6724   -1.8656   -3.5097 H   0  0  0  0  0  0  0  0  0  0  0  0
    4.3213    7.5242   -1.5461 H   0  0  0  0  0  0  0  0  0  0  0  0
    4.8339    5.8101   -1.6541 H   0  0  0  0  0  0  0  0  0  0  0  0
    6.5318    6.1921    0.1601 H   0  0  0  0  0  0  0  0  0  0  0  0
    6.0261    7.9292    0.2549 H   0  0  0  0  0  0  0  0  0  0  0  0
    6.7846    7.2923   -1.2502 H   0  0  0  0  0  0  0  0  0  0  0  0
    0.4977    4.6112    3.9358 H   0  0  0  0  0  0  0  0  0  0  0  0
    0.4032    2.9667    4.6660 H   0  0  0  0  0  0  0  0  0  0  0  0
    2.9453    4.6644    4.4354 H   0  0  0  0  0  0  0  0  0  0  0  0
    2.0157    4.2600    5.9237 H   0  0  0  0  0  0  0  0  0  0  0  0
    2.8752    2.9489    5.0164 H   0  0  0  0  0  0  0  0  0  0  0  0
   -1.2156    2.6818    3.2703 H   0  0  0  0  0  0  0  0  0  0  0  0
   -2.4448    1.5457    3.8464 H   0  0  0  0  0  0  0  0  0  0  0  0
   -1.1975    1.6339    1.0151 H   0  0  0  0  0  0  0  0  0  0  0  0
   -2.8204    2.2665    1.4785 H   0  0  0  0  0  0  0  0  0  0  0  0
   -2.4943    0.4933    1.5457 H   0  0  0  0  0  0  0  0  0  0  0  0
    3.9552    9.2434    0.9638 H   0  0  0  0  0  0  0  0  0  0  0  0
   -1.1753    8.4602   -2.5361 H   0  0  0  0  0  0  0  0  0  0  0  0
   -0.7831   12.5753   -3.7749 H   0  0  0  0  0  0  0  0  0  0  0  0
    1.0540   12.9028   -2.1816 H   0  0  0  0  0  0  0  0  0  0  0  0
  1  2  2  3
  2  3  1  0
  3  4  2  0
  3  5  1  0
  5  6  2  0
  6  7  1  0
  7  8  2  0
  8  9  1  0
  9 10  2  0
 10 11  1  0
 11 12  2  3
 12 13  1  0
 13 14  3  0
 12 15  1  0
 15 16  3  0
  8 17  1  0
 17 18  1  0
 18 19  1  0
 19 20  2  0
 20 21  1  0
 21 22  1  0
 21 23  1  0
  1 24  1  0
 24 25  2  0
 25 26  1  0
 26 27  1  0
 25 28  1  0
 28 29  1  0
 29 30  1  0
 30 31  1  0
 31 32  2  0
 32 33  1  0
 33 34  2  0
 34 35  1  0
 35 36  1  0
 36 37  1  0
 37 38  1  0
 38 39  1  0
 37 40  2  0
 40 41  1  0
 40 42  1  0
 34 43  1  0
 43 44  1  0
 44 45  2  0
 45 46  1  0
 46 47  1  0
 46 48  2  0
 48 49  1  0
 49 50  1  0
 48 51  1  0
 43 52  2  0
 52 53  1  0
 53 54  2  0
 54 55  1  0
 55 56  1  0
 56 57  1  0
 57 58  1  0
 58 59  1  0
 59 60  1  0
 58 61  2  0
 61 62  1  0
 62 63  1  0
 63 64  1  0
 64 65  1  0
 65 66  1  0
 66 67  1  0
 65 68  1  0
 68 69  2  0
 69 70  1  0
 70 71  1  0
 71 72  1  0
 72 73  1  0
 70 74  1  0
 74 75  1  0
 61 76  1  0
 76 77  2  3
 77 78  1  0
 78 79  2  0
 78 80  1  0
 80 81  2  0
 81 82  1  0
 82 83  1  0
 82 84  2  0
 84 85  1  0
 85 86  2  0
 86 87  1  0
 87 88  2  3
 88 89  1  0
 89 90  3  0
 88 91  1  0
 91 92  3  0
 11  2  1  0
 23 17  1  0
 73 24  1  0
 87 77  1  0
 10  5  1  0
 22 18  1  0
 72 28  2  0
 86 80  1  0
 23  7  1  0
 71 30  2  0
 69 31  1  0
 53 32  1  0
 68 54  1  0
 41 35  2  0
 51 44  1  0
 64 55  2  0
 63 57  2  0
  1 93  1  0
  6 94  1  0
  9 95  1  0
 17 96  1  0
 18 97  1  0
 19 98  1  0
 20 99  1  0
 21100  1  0
 22101  1  0
 22102  1  0
 23103  1  0
 26104  1  0
 26105  1  0
 27106  1  0
 27107  1  0
 27108  1  0
 38109  1  0
 38110  1  0
 39111  1  0
 39112  1  0
 39113  1  0
 41114  1  0
 45115  1  0
 49116  1  0
 49117  1  0
 50118  1  0
 50119  1  0
 50120  1  0
 59121  1  0
 59122  1  0
 60123  1  0
 60124  1  0
 60125  1  0
 66126  1  0
 66127  1  0
 67128  1  0
 67129  1  0
 67130  1  0
 74131  1  0
 74132  1  0
 75133  1  0
 75134  1  0
 75135  1  0
 76136  1  0
 81137  1  0
 84138  1  0
 85139  1  0
M  END

