
     RDKit          3D

124137  0  0  0  0  0  0  0  0999 V2000
   -7.0450    2.7257    0.6870 C   0  0  0  0  0  0  0  0  0  0  0  0
   -7.0684    3.7354   -0.2093 C   0  0  0  0  0  0  0  0  0  0  0  0
   -6.2082    3.8025   -1.4043 C   0  0  0  0  0  0  0  0  0  0  0  0
   -5.3177    2.9740   -1.7338 O   0  0  0  0  0  0  0  0  0  0  0  0
   -6.6030    4.9322   -2.2051 C   0  0  0  0  0  0  0  0  0  0  0  0
   -6.0167    5.3486   -3.4207 C   0  0  0  0  0  0  0  0  0  0  0  0
   -6.5636    6.5052   -3.9372 C   0  0  0  0  0  0  0  0  0  0  0  0
   -7.6184    7.2265   -3.2930 C   0  0  0  0  0  0  0  0  0  0  0  0
   -8.1990    6.8211   -2.1031 C   0  0  0  0  0  0  0  0  0  0  0  0
   -7.6800    5.6055   -1.5698 C   0  0  0  0  0  0  0  0  0  0  0  0
   -8.0434    4.8766   -0.3136 C   0  0  0  0  0  0  0  0  0  0  0  0
   -9.0316    5.2078    0.5630 C   0  0  0  0  0  0  0  0  0  0  0  0
  -10.0330    6.1979    0.2695 C   0  0  0  0  0  0  0  0  0  0  0  0
  -10.8571    6.9808    0.0398 N   0  0  0  0  0  0  0  0  0  0  0  0
   -9.1927    4.5776    1.8441 C   0  0  0  0  0  0  0  0  0  0  0  0
   -9.3316    4.0926    2.8863 N   0  0  0  0  0  0  0  0  0  0  0  0
   -7.5812    8.2720   -4.3671 C   0  0  0  0  0  0  0  0  0  0  0  0
   -6.9162    9.6417   -4.0347 C   0  0  0  0  0  0  0  0  0  0  0  0
   -5.8120    9.4510   -3.0202 C   0  0  0  0  0  0  0  0  0  0  0  0
   -4.8408    8.7765   -3.6365 C   0  0  0  0  0  0  0  0  0  0  0  0
   -5.3176    8.5269   -5.0474 C   0  0  0  0  0  0  0  0  0  0  0  0
   -6.0690    9.8260   -5.2792 C   0  0  0  0  0  0  0  0  0  0  0  0
   -6.5106    7.5259   -5.0371 C   0  0  0  0  0  0  0  0  0  0  0  0
   -5.9231    1.7731    0.8034 C   0  0  0  0  0  0  0  0  0  0  0  0
   -6.1670    0.3819    0.7709 C   0  0  0  0  0  0  0  0  0  0  0  0
   -5.1066   -0.5351    0.8653 C   0  0  0  0  0  0  0  0  0  0  0  0
   -3.8150   -0.0353    1.0334 C   0  0  0  0  0  0  0  0  0  0  0  0
   -2.5647   -0.6264    1.1324 C   0  0  0  0  0  0  0  0  0  0  0  0
   -1.6614    0.3693    1.1814 C   0  0  0  0  0  0  0  0  0  0  0  0
   -2.2289    1.5990    1.1219 N   0  0  0  0  0  0  0  0  0  0  0  0
   -3.5654    1.3328    1.0795 C   0  0  0  0  0  0  0  0  0  0  0  0
   -4.6125    2.2538    0.9825 C   0  0  0  0  0  0  0  0  0  0  0  0
   -1.5764    2.9107    1.0397 C   0  0  0  0  0  0  0  0  0  0  0  0
   -0.9967    3.3045    2.3928 C   0  0  0  0  0  0  0  0  0  0  0  0
   -0.4446   -0.1726    0.8348 C   0  0  0  0  0  0  0  0  0  0  0  0
    0.7851    0.3827    0.4770 C   0  0  0  0  0  0  0  0  0  0  0  0
    1.7761   -0.3932   -0.0496 C   0  0  0  0  0  0  0  0  0  0  0  0
    2.8483    0.3801   -0.2728 N   0  0  0  0  0  0  0  0  0  0  0  0
    2.4818    1.5967    0.1204 N   0  0  0  0  0  0  0  0  0  0  0  0
    3.3380    2.7689    0.0028 C   0  0  0  0  0  0  0  0  0  0  0  0
    3.1544    3.4152   -1.3625 C   0  0  0  0  0  0  0  0  0  0  0  0
    1.2316    1.6430    0.5763 N   0  0  0  0  0  0  0  0  0  0  0  0
    1.5998   -1.7702   -0.2161 C   0  0  0  0  0  0  0  0  0  0  0  0
    0.3967   -2.3882    0.2059 C   0  0  0  0  0  0  0  0  0  0  0  0
   -0.6842   -1.5555    0.6586 C   0  0  0  0  0  0  0  0  0  0  0  0
   -2.0303   -1.8258    0.7771 N   0  0  0  0  0  0  0  0  0  0  0  0
   -2.7793   -2.9092    0.1333 C   0  0  0  0  0  0  0  0  0  0  0  0
   -3.4876   -3.8043    1.1608 C   0  0  0  0  0  0  0  0  0  0  0  0
    0.5807   -3.7466    0.3328 N   0  0  0  0  0  0  0  0  0  0  0  0
   -0.1324   -4.6640    1.2238 C   0  0  0  0  0  0  0  0  0  0  0  0
   -0.7109   -5.8600    0.4628 C   0  0  0  0  0  0  0  0  0  0  0  0
    1.8491   -3.9453   -0.1158 C   0  0  0  0  0  0  0  0  0  0  0  0
    2.4695   -2.8034   -0.4821 C   0  0  0  0  0  0  0  0  0  0  0  0
    3.8155   -2.9316   -0.5324 N   0  0  0  0  0  0  0  0  0  0  0  0
    4.8313   -1.9003   -0.7482 C   0  0  0  0  0  0  0  0  0  0  0  0
    5.3223   -1.3377    0.5849 C   0  0  0  0  0  0  0  0  0  0  0  0
    4.0324   -4.2213   -0.1593 C   0  0  0  0  0  0  0  0  0  0  0  0
    2.8454   -4.8759    0.1519 C   0  0  0  0  0  0  0  0  0  0  0  0
    2.8543   -6.1439    0.7425 C   0  0  0  0  0  0  0  0  0  0  0  0
    4.0949   -6.7686    0.9631 C   0  0  0  0  0  0  0  0  0  0  0  0
    5.3027   -6.1187    0.6241 C   0  0  0  0  0  0  0  0  0  0  0  0
    5.2709   -4.8272    0.0638 C   0  0  0  0  0  0  0  0  0  0  0  0
    6.6135   -6.7368    0.9227 C   0  0  0  0  0  0  0  0  0  0  0  0
    7.5129   -6.2122    1.7556 C   0  0  0  0  0  0  0  0  0  0  0  0
    7.2813   -5.0651    2.6023 C   0  0  0  0  0  0  0  0  0  0  0  0
    7.0877   -4.1495    3.2828 N   0  0  0  0  0  0  0  0  0  0  0  0
    8.7390   -7.0004    1.6525 C   0  0  0  0  0  0  0  0  0  0  0  0
    9.9032   -6.8385    2.3001 C   0  0  0  0  0  0  0  0  0  0  0  0
   11.0064   -7.7228    2.0250 C   0  0  0  0  0  0  0  0  0  0  0  0
   11.8921   -8.4313    1.7973 N   0  0  0  0  0  0  0  0  0  0  0  0
   10.1107   -5.7902    3.2623 C   0  0  0  0  0  0  0  0  0  0  0  0
   10.2811   -4.9462    4.0359 N   0  0  0  0  0  0  0  0  0  0  0  0
    8.5271   -8.0023    0.7140 O   0  0  0  0  0  0  0  0  0  0  0  0
    7.2061   -7.9149    0.1781 C   0  0  0  0  0  0  0  0  0  0  0  0
    6.4473   -9.2193    0.4687 C   0  0  0  0  0  0  0  0  0  0  0  0
    7.2810   -7.6381   -1.3292 C   0  0  0  0  0  0  0  0  0  0  0  0
   -7.8554    2.5670    1.3767 H   0  0  0  0  0  0  0  0  0  0  0  0
   -5.1975    4.8260   -3.8963 H   0  0  0  0  0  0  0  0  0  0  0  0
   -8.9626    7.4239   -1.6470 H   0  0  0  0  0  0  0  0  0  0  0  0
   -8.5193    8.3342   -4.9570 H   0  0  0  0  0  0  0  0  0  0  0  0
   -7.6199   10.4685   -3.8120 H   0  0  0  0  0  0  0  0  0  0  0  0
   -5.7676    9.8483   -2.0123 H   0  0  0  0  0  0  0  0  0  0  0  0
   -3.8708    8.5345   -3.2165 H   0  0  0  0  0  0  0  0  0  0  0  0
   -4.5173    8.2999   -5.7801 H   0  0  0  0  0  0  0  0  0  0  0  0
   -5.4124   10.7296   -5.2441 H   0  0  0  0  0  0  0  0  0  0  0  0
   -6.6608    9.8343   -6.2222 H   0  0  0  0  0  0  0  0  0  0  0  0
   -6.8026    7.1280   -6.0342 H   0  0  0  0  0  0  0  0  0  0  0  0
   -7.1793    0.0103    0.6428 H   0  0  0  0  0  0  0  0  0  0  0  0
   -5.3105   -1.5860    0.8116 H   0  0  0  0  0  0  0  0  0  0  0  0
   -4.4326    3.3182    1.0291 H   0  0  0  0  0  0  0  0  0  0  0  0
   -2.2956    3.6907    0.7233 H   0  0  0  0  0  0  0  0  0  0  0  0
   -0.8017    2.9065    0.2506 H   0  0  0  0  0  0  0  0  0  0  0  0
   -0.5908    4.3350    2.3398 H   0  0  0  0  0  0  0  0  0  0  0  0
   -0.1839    2.6077    2.6812 H   0  0  0  0  0  0  0  0  0  0  0  0
   -1.7908    3.2607    3.1662 H   0  0  0  0  0  0  0  0  0  0  0  0
    3.0814    3.5004    0.8001 H   0  0  0  0  0  0  0  0  0  0  0  0
    4.4001    2.4678    0.1354 H   0  0  0  0  0  0  0  0  0  0  0  0
    2.0990    3.7365   -1.4950 H   0  0  0  0  0  0  0  0  0  0  0  0
    3.8113    4.3049   -1.4460 H   0  0  0  0  0  0  0  0  0  0  0  0
    3.4210    2.6946   -2.1650 H   0  0  0  0  0  0  0  0  0  0  0  0
   -2.0983   -3.4995   -0.5049 H   0  0  0  0  0  0  0  0  0  0  0  0
   -3.5269   -2.4866   -0.5705 H   0  0  0  0  0  0  0  0  0  0  0  0
   -3.0621   -3.6781    2.1803 H   0  0  0  0  0  0  0  0  0  0  0  0
   -3.4027   -4.8731    0.8632 H   0  0  0  0  0  0  0  0  0  0  0  0
   -4.5682   -3.5786    1.2189 H   0  0  0  0  0  0  0  0  0  0  0  0
   -0.9250   -4.1338    1.7747 H   0  0  0  0  0  0  0  0  0  0  0  0
    0.5603   -5.0242    2.0138 H   0  0  0  0  0  0  0  0  0  0  0  0
   -1.2540   -6.5269    1.1647 H   0  0  0  0  0  0  0  0  0  0  0  0
   -1.4166   -5.5383   -0.3270 H   0  0  0  0  0  0  0  0  0  0  0  0
    0.0813   -6.4387   -0.0462 H   0  0  0  0  0  0  0  0  0  0  0  0
    5.6967   -2.3297   -1.3003 H   0  0  0  0  0  0  0  0  0  0  0  0
    4.4319   -1.0983   -1.3981 H   0  0  0  0  0  0  0  0  0  0  0  0
    4.4673   -1.0694    1.2390 H   0  0  0  0  0  0  0  0  0  0  0  0
    5.9469   -2.0909    1.1119 H   0  0  0  0  0  0  0  0  0  0  0  0
    5.9354   -0.4300    0.4047 H   0  0  0  0  0  0  0  0  0  0  0  0
    1.9583   -6.6469    1.0539 H   0  0  0  0  0  0  0  0  0  0  0  0
    4.1178   -7.7414    1.4383 H   0  0  0  0  0  0  0  0  0  0  0  0
    6.1946   -4.3047   -0.1543 H   0  0  0  0  0  0  0  0  0  0  0  0
    6.3522   -9.3730    1.5673 H   0  0  0  0  0  0  0  0  0  0  0  0
    5.4390   -9.1917    0.0133 H   0  0  0  0  0  0  0  0  0  0  0  0
    7.0037  -10.0811    0.0429 H   0  0  0  0  0  0  0  0  0  0  0  0
    7.8453   -8.4490   -1.8380 H   0  0  0  0  0  0  0  0  0  0  0  0
    6.2612   -7.5849   -1.7698 H   0  0  0  0  0  0  0  0  0  0  0  0
    7.7940   -6.6738   -1.5181 H   0  0  0  0  0  0  0  0  0  0  0  0
  1  2  2  3
  2  3  1  0
  3  4  2  0
  3  5  1  0
  5  6  2  0
  6  7  1  0
  7  8  2  0
  8  9  1  0
  9 10  2  0
 10 11  1  0
 11 12  2  3
 12 13  1  0
 13 14  3  0
 12 15  1  0
 15 16  3  0
  8 17  1  0
 17 18  1  0
 18 19  1  0
 19 20  2  0
 20 21  1  0
 21 22  1  0
 21 23  1  0
  1 24  1  0
 24 25  2  0
 25 26  1  0
 26 27  2  0
 27 28  1  0
 28 29  2  0
 29 30  1  0
 30 31  1  0
 31 32  2  0
 30 33  1  0
 33 34  1  0
 29 35  1  0
 35 36  1  0
 36 37  1  0
 37 38  2  0
 38 39  1  0
 39 40  1  0
 40 41  1  0
 39 42  1  0
 37 43  1  0
 43 44  2  0
 44 45  1  0
 45 46  1  0
 46 47  1  0
 47 48  1  0
 44 49  1  0
 49 50  1  0
 50 51  1  0
 49 52  1  0
 52 53  2  0
 53 54  1  0
 54 55  1  0
 55 56  1  0
 54 57  1  0
 57 58  2  0
 58 59  1  0
 59 60  2  0
 60 61  1  0
 61 62  2  0
 61 63  1  0
 63 64  2  0
 64 65  1  0
 65 66  3  0
 64 67  1  0
 67 68  2  3
 68 69  1  0
 69 70  3  0
 68 71  1  0
 71 72  3  0
 67 73  1  0
 73 74  1  0
 74 75  1  0
 74 76  1  0
 11  2  1  0
 23 17  1  0
 32 24  1  0
 45 35  2  0
 58 52  1  0
 74 63  1  0
 10  5  1  0
 22 18  1  0
 31 27  1  0
 42 36  2  0
 53 43  1  0
 62 57  1  0
 23  7  1  0
 46 28  1  0
  1 77  1  0
  6 78  1  0
  9 79  1  0
 17 80  1  0
 18 81  1  0
 19 82  1  0
 20 83  1  0
 21 84  1  0
 22 85  1  0
 22 86  1  0
 23 87  1  0
 25 88  1  0
 26 89  1  0
 32 90  1  0
 33 91  1  0
 33 92  1  0
 34 93  1  0
 34 94  1  0
 34 95  1  0
 40 96  1  0
 40 97  1  0
 41 98  1  0
 41 99  1  0
 41100  1  0
 47101  1  0
 47102  1  0
 48103  1  0
 48104  1  0
 48105  1  0
 50106  1  0
 50107  1  0
 51108  1  0
 51109  1  0
 51110  1  0
 55111  1  0
 55112  1  0
 56113  1  0
 56114  1  0
 56115  1  0
 59116  1  0
 60117  1  0
 62118  1  0
 75119  1  0
 75120  1  0
 75121  1  0
 76122  1  0
 76123  1  0
 76124  1  0
M  END

