
     RDKit          3D

108121  0  0  0  0  0  0  0  0999 V2000
   -0.2913   -3.7096    4.8779 C   0  0  0  0  0  0  0  0  0  0  0  0
    0.4477   -4.8090    5.1101 C   0  0  0  0  0  0  0  0  0  0  0  0
    1.4801   -5.3213    4.1853 C   0  0  0  0  0  0  0  0  0  0  0  0
    1.4433   -5.2454    2.9330 O   0  0  0  0  0  0  0  0  0  0  0  0
    2.5406   -5.9144    4.9637 C   0  0  0  0  0  0  0  0  0  0  0  0
    3.8601   -6.2105    4.4926 C   0  0  0  0  0  0  0  0  0  0  0  0
    4.7244   -6.5976    5.4992 C   0  0  0  0  0  0  0  0  0  0  0  0
    4.3269   -6.7154    6.8695 C   0  0  0  0  0  0  0  0  0  0  0  0
    3.0682   -6.4079    7.3307 C   0  0  0  0  0  0  0  0  0  0  0  0
    2.1564   -5.9498    6.3299 C   0  0  0  0  0  0  0  0  0  0  0  0
    0.7946   -5.3364    6.4851 C   0  0  0  0  0  0  0  0  0  0  0  0
    0.0653   -5.2389    7.6329 C   0  0  0  0  0  0  0  0  0  0  0  0
   -1.3542   -4.9534    7.6242 C   0  0  0  0  0  0  0  0  0  0  0  0
   -2.4908   -4.7544    7.6164 N   0  0  0  0  0  0  0  0  0  0  0  0
    0.5680   -5.6096    8.9267 C   0  0  0  0  0  0  0  0  0  0  0  0
    0.9524   -5.8759    9.9832 N   0  0  0  0  0  0  0  0  0  0  0  0
    5.7456   -6.9475    7.2912 C   0  0  0  0  0  0  0  0  0  0  0  0
    6.4356   -5.7474    8.0056 C   0  0  0  0  0  0  0  0  0  0  0  0
    7.9231   -6.0244    7.9446 C   0  0  0  0  0  0  0  0  0  0  0  0
    8.2825   -5.8723    6.6679 C   0  0  0  0  0  0  0  0  0  0  0  0
    7.0330   -5.5094    5.9065 C   0  0  0  0  0  0  0  0  0  0  0  0
    6.3621   -4.6310    6.9640 C   0  0  0  0  0  0  0  0  0  0  0  0
    6.1538   -6.7989    5.8865 C   0  0  0  0  0  0  0  0  0  0  0  0
   -0.0406   -2.8382    3.7067 C   0  0  0  0  0  0  0  0  0  0  0  0
    1.2116   -2.2594    3.3886 C   0  0  0  0  0  0  0  0  0  0  0  0
    2.4120   -2.2130    4.2970 C   0  0  0  0  0  0  0  0  0  0  0  0
    2.4625   -0.8689    5.0172 C   0  0  0  0  0  0  0  0  0  0  0  0
    1.1639   -1.5794    2.1732 C   0  0  0  0  0  0  0  0  0  0  0  0
   -0.0623   -1.5568    1.5654 C   0  0  0  0  0  0  0  0  0  0  0  0
   -1.1771   -2.4446    2.4826 S   0  0  0  0  0  0  0  0  0  0  0  0
   -0.0250   -0.9059    0.3365 C   0  0  0  0  0  0  0  0  0  0  0  0
    1.2266   -0.5090    0.0120 C   0  0  0  0  0  0  0  0  0  0  0  0
    2.3808   -0.8770    1.2019 S   0  0  0  0  0  0  0  0  0  0  0  0
    1.2064   -0.1603   -1.3168 C   0  0  0  0  0  0  0  0  0  0  0  0
    2.2465    0.0424   -2.2321 C   0  0  0  0  0  0  0  0  0  0  0  0
    3.5605    0.1147   -1.8952 N   0  0  0  0  0  0  0  0  0  0  0  0
    4.2274    0.3561   -3.3895 S   0  0  0  0  0  0  0  0  0  0  0  0
    2.9638    0.3728   -4.4695 N   0  0  0  0  0  0  0  0  0  0  0  0
    1.9325    0.1698   -3.6171 C   0  0  0  0  0  0  0  0  0  0  0  0
    0.5887    0.1383   -4.0039 C   0  0  0  0  0  0  0  0  0  0  0  0
   -0.0066    0.5094   -5.1863 C   0  0  0  0  0  0  0  0  0  0  0  0
    0.4929    1.2005   -6.6643 S   0  0  0  0  0  0  0  0  0  0  0  0
   -1.0951    1.7518   -6.9731 C   0  0  0  0  0  0  0  0  0  0  0  0
   -1.6123    2.6039   -7.9465 C   0  0  0  0  0  0  0  0  0  0  0  0
   -2.8258    3.1504   -7.5298 C   0  0  0  0  0  0  0  0  0  0  0  0
   -3.3203    2.4086   -6.0686 S   0  0  0  0  0  0  0  0  0  0  0  0
   -1.9426    1.4737   -5.9267 C   0  0  0  0  0  0  0  0  0  0  0  0
   -1.3031    0.7504   -4.9084 C   0  0  0  0  0  0  0  0  0  0  0  0
   -1.6422    0.4489   -3.6306 N   0  0  0  0  0  0  0  0  0  0  0  0
   -2.8927    0.8413   -2.9764 C   0  0  0  0  0  0  0  0  0  0  0  0
   -4.0570   -0.0364   -3.4500 C   0  0  0  0  0  0  0  0  0  0  0  0
   -0.4675    0.0102   -3.0722 C   0  0  0  0  0  0  0  0  0  0  0  0
   -0.1333   -0.2638   -1.7111 C   0  0  0  0  0  0  0  0  0  0  0  0
   -0.8943   -0.7976   -0.6950 N   0  0  0  0  0  0  0  0  0  0  0  0
   -2.1562   -1.5350   -0.7897 C   0  0  0  0  0  0  0  0  0  0  0  0
   -3.2381   -0.8855    0.0810 C   0  0  0  0  0  0  0  0  0  0  0  0
   -3.5461    4.2400   -8.2236 C   0  0  0  0  0  0  0  0  0  0  0  0
   -4.0422    5.3378   -7.6204 C   0  0  0  0  0  0  0  0  0  0  0  0
   -3.9046    5.5716   -6.1858 C   0  0  0  0  0  0  0  0  0  0  0  0
   -2.7486    5.6581   -5.6818 O   0  0  0  0  0  0  0  0  0  0  0  0
   -5.0237    6.1225   -5.5010 N   0  0  0  0  0  0  0  0  0  0  0  0
   -5.7716    5.2792   -4.5435 C   0  0  0  0  0  0  0  0  0  0  0  0
   -6.6449    4.2836   -5.3022 C   0  0  0  0  0  0  0  0  0  0  0  0
   -5.6892    7.2278   -6.1607 C   0  0  0  0  0  0  0  0  0  0  0  0
   -6.6147    8.2746   -5.2744 S   0  0  0  0  0  0  0  0  0  0  0  0
   -5.6037    7.3402   -7.6104 N   0  0  0  0  0  0  0  0  0  0  0  0
   -6.0973    8.5433   -8.3014 C   0  0  0  0  0  0  0  0  0  0  0  0
   -5.0894    9.6831   -8.1287 C   0  0  0  0  0  0  0  0  0  0  0  0
   -4.7943    6.3833   -8.3530 C   0  0  0  0  0  0  0  0  0  0  0  0
   -4.5632    6.5692   -9.5810 O   0  0  0  0  0  0  0  0  0  0  0  0
   -0.9360   -3.3011    5.6293 H   0  0  0  0  0  0  0  0  0  0  0  0
    4.2029   -5.9982    3.4736 H   0  0  0  0  0  0  0  0  0  0  0  0
    2.8735   -6.4080    8.3906 H   0  0  0  0  0  0  0  0  0  0  0  0
    5.9263   -7.9533    7.7342 H   0  0  0  0  0  0  0  0  0  0  0  0
    6.0489   -5.4889    9.0140 H   0  0  0  0  0  0  0  0  0  0  0  0
    8.6052   -6.1694    8.7777 H   0  0  0  0  0  0  0  0  0  0  0  0
    9.3060   -5.8594    6.2963 H   0  0  0  0  0  0  0  0  0  0  0  0
    7.2029   -5.0286    4.9162 H   0  0  0  0  0  0  0  0  0  0  0  0
    6.9598   -3.7261    7.2374 H   0  0  0  0  0  0  0  0  0  0  0  0
    5.3296   -4.2806    6.7133 H   0  0  0  0  0  0  0  0  0  0  0  0
    6.6185   -7.7079    5.4371 H   0  0  0  0  0  0  0  0  0  0  0  0
    3.3515   -2.3722    3.7223 H   0  0  0  0  0  0  0  0  0  0  0  0
    2.3787   -2.9926    5.0746 H   0  0  0  0  0  0  0  0  0  0  0  0
    3.3767   -0.8119    5.6497 H   0  0  0  0  0  0  0  0  0  0  0  0
    1.5630   -0.7549    5.6604 H   0  0  0  0  0  0  0  0  0  0  0  0
    2.4946   -0.0410    4.2717 H   0  0  0  0  0  0  0  0  0  0  0  0
   -1.0291    2.9557   -8.7869 H   0  0  0  0  0  0  0  0  0  0  0  0
   -3.1231    1.9067   -3.2012 H   0  0  0  0  0  0  0  0  0  0  0  0
   -2.7803    0.7926   -1.8841 H   0  0  0  0  0  0  0  0  0  0  0  0
   -4.4970    0.3819   -4.3770 H   0  0  0  0  0  0  0  0  0  0  0  0
   -4.8476   -0.0984   -2.6713 H   0  0  0  0  0  0  0  0  0  0  0  0
   -3.7117   -1.0656   -3.6835 H   0  0  0  0  0  0  0  0  0  0  0  0
   -2.4794   -1.5838   -1.8480 H   0  0  0  0  0  0  0  0  0  0  0  0
   -2.0107   -2.5908   -0.4749 H   0  0  0  0  0  0  0  0  0  0  0  0
   -4.2215   -0.9314   -0.4412 H   0  0  0  0  0  0  0  0  0  0  0  0
   -3.3449   -1.4265    1.0402 H   0  0  0  0  0  0  0  0  0  0  0  0
   -3.0021    0.1783    0.3046 H   0  0  0  0  0  0  0  0  0  0  0  0
   -3.5159    4.2030   -9.3248 H   0  0  0  0  0  0  0  0  0  0  0  0
   -5.0745    4.7344   -3.8757 H   0  0  0  0  0  0  0  0  0  0  0  0
   -6.4288    5.9094   -3.8926 H   0  0  0  0  0  0  0  0  0  0  0  0
   -7.3202    3.7320   -4.6015 H   0  0  0  0  0  0  0  0  0  0  0  0
   -7.2676    4.7944   -6.0691 H   0  0  0  0  0  0  0  0  0  0  0  0
   -6.0031    3.5443   -5.8113 H   0  0  0  0  0  0  0  0  0  0  0  0
   -7.0853    8.8572   -7.8963 H   0  0  0  0  0  0  0  0  0  0  0  0
   -6.2756    8.3368   -9.3786 H   0  0  0  0  0  0  0  0  0  0  0  0
   -4.0533    9.3201   -8.3104 H   0  0  0  0  0  0  0  0  0  0  0  0
   -5.3051   10.5128   -8.8417 H   0  0  0  0  0  0  0  0  0  0  0  0
   -5.1408   10.0799   -7.0924 H   0  0  0  0  0  0  0  0  0  0  0  0
  1  2  2  3
  2  3  1  0
  3  4  2  0
  3  5  1  0
  5  6  2  0
  6  7  1  0
  7  8  2  0
  8  9  1  0
  9 10  2  0
 10 11  1  0
 11 12  2  3
 12 13  1  0
 13 14  3  0
 12 15  1  0
 15 16  3  0
  8 17  1  0
 17 18  1  0
 18 19  1  0
 19 20  2  0
 20 21  1  0
 21 22  1  0
 21 23  1  0
  1 24  1  0
 24 25  2  0
 25 26  1  0
 26 27  1  0
 25 28  1  0
 28 29  2  0
 29 30  1  0
 29 31  1  0
 31 32  2  0
 32 33  1  0
 32 34  1  0
 34 35  1  0
 35 36  2  0
 36 37  1  0
 37 38  1  0
 38 39  2  0
 39 40  1  0
 40 41  1  0
 41 42  1  0
 42 43  1  0
 43 44  1  0
 44 45  2  0
 45 46  1  0
 46 47  1  0
 47 48  1  0
 48 49  1  0
 49 50  1  0
 50 51  1  0
 49 52  1  0
 52 53  1  0
 53 54  1  0
 54 55  1  0
 55 56  1  0
 45 57  1  0
 57 58  2  3
 58 59  1  0
 59 60  2  0
 59 61  1  0
 61 62  1  0
 62 63  1  0
 61 64  1  0
 64 65  2  0
 64 66  1  0
 66 67  1  0
 67 68  1  0
 66 69  1  0
 69 70  2  0
 11  2  1  0
 23 17  1  0
 30 24  1  0
 54 31  1  0
 69 58  1  0
 10  5  1  0
 22 18  1  0
 33 28  1  0
 53 34  2  0
 23  7  1  0
 39 35  1  0
 52 40  2  0
 48 41  2  0
 47 43  2  0
  1 71  1  0
  6 72  1  0
  9 73  1  0
 17 74  1  0
 18 75  1  0
 19 76  1  0
 20 77  1  0
 21 78  1  0
 22 79  1  0
 22 80  1  0
 23 81  1  0
 26 82  1  0
 26 83  1  0
 27 84  1  0
 27 85  1  0
 27 86  1  0
 44 87  1  0
 50 88  1  0
 50 89  1  0
 51 90  1  0
 51 91  1  0
 51 92  1  0
 55 93  1  0
 55 94  1  0
 56 95  1  0
 56 96  1  0
 56 97  1  0
 57 98  1  0
 62 99  1  0
 62100  1  0
 63101  1  0
 63102  1  0
 63103  1  0
 67104  1  0
 67105  1  0
 68106  1  0
 68107  1  0
 68108  1  0
M  END

