
     RDKit          3D

105118  0  0  0  0  0  0  0  0999 V2000
    3.9545    3.5643   -2.7100 C   0  0  0  0  0  0  0  0  0  0  0  0
    3.2220    4.4243   -2.0942 C   0  0  0  0  0  0  0  0  0  0  0  0
    3.7235    5.7596   -1.7797 C   0  0  0  0  0  0  0  0  0  0  0  0
    4.8644    6.2396   -2.0992 O   0  0  0  0  0  0  0  0  0  0  0  0
    2.7188    6.5023   -1.0309 C   0  0  0  0  0  0  0  0  0  0  0  0
    2.7572    7.7964   -0.4944 C   0  0  0  0  0  0  0  0  0  0  0  0
    1.6793    8.3226    0.1980 C   0  0  0  0  0  0  0  0  0  0  0  0
    0.5516    7.5071    0.3367 C   0  0  0  0  0  0  0  0  0  0  0  0
    0.5169    6.2299   -0.1957 C   0  0  0  0  0  0  0  0  0  0  0  0
    1.6133    5.7470   -0.8645 C   0  0  0  0  0  0  0  0  0  0  0  0
    1.8491    4.3778   -1.5334 C   0  0  0  0  0  0  0  0  0  0  0  0
    0.9315    3.6950   -1.8519 C   0  0  0  0  0  0  0  0  0  0  0  0
   -0.2145    2.8860   -2.2004 C   0  0  0  0  0  0  0  0  0  0  0  0
   -1.0596    2.2737   -2.4455 N   0  0  0  0  0  0  0  0  0  0  0  0
    0.3421    3.5416   -0.1879 C   0  0  0  0  0  0  0  0  0  0  0  0
   -0.0387    3.4563    0.9228 N   0  0  0  0  0  0  0  0  0  0  0  0
   -0.1053    8.5625    1.1351 C   0  0  0  0  0  0  0  0  0  0  0  0
   -1.1456    9.3080    0.3930 C   0  0  0  0  0  0  0  0  0  0  0  0
   -0.7500    9.3558   -1.0630 C   0  0  0  0  0  0  0  0  0  0  0  0
    0.2913   10.1808   -1.2063 C   0  0  0  0  0  0  0  0  0  0  0  0
    0.6336   10.6384    0.1678 C   0  0  0  0  0  0  0  0  0  0  0  0
   -0.7803   10.7672    0.7639 C   0  0  0  0  0  0  0  0  0  0  0  0
    1.1271    9.4635    0.9734 C   0  0  0  0  0  0  0  0  0  0  0  0
    3.6745    2.1882   -3.0888 C   0  0  0  0  0  0  0  0  0  0  0  0
    4.5379    1.0963   -3.2086 C   0  0  0  0  0  0  0  0  0  0  0  0
    6.0293    1.3863   -3.2194 C   0  0  0  0  0  0  0  0  0  0  0  0
    6.4256    1.6823   -1.7716 C   0  0  0  0  0  0  0  0  0  0  0  0
    3.9717   -0.1296   -3.2519 C   0  0  0  0  0  0  0  0  0  0  0  0
    4.4940   -1.7917   -3.1617 S   0  0  0  0  0  0  0  0  0  0  0  0
    2.9420   -2.5409   -3.0057 C   0  0  0  0  0  0  0  0  0  0  0  0
    2.3001   -3.7378   -2.6478 C   0  0  0  0  0  0  0  0  0  0  0  0
    2.8649   -4.9425   -2.2015 C   0  0  0  0  0  0  0  0  0  0  0  0
    2.0985   -5.7884   -1.5191 C   0  0  0  0  0  0  0  0  0  0  0  0
    2.6107   -6.9405   -1.1062 N   0  0  0  0  0  0  0  0  0  0  0  0
    4.3075   -6.9299   -1.6719 Se  0  0  0  0  0  2  0  0  0  0  0  0
    4.1342   -5.2648   -2.4561 N   0  0  0  0  0  0  0  0  0  0  0  0
    0.7686   -5.4356   -1.2911 C   0  0  0  0  0  0  0  0  0  0  0  0
   -0.1870   -5.9353   -0.3738 C   0  0  0  0  0  0  0  0  0  0  0  0
   -0.3935   -7.0148    0.9431 S   0  0  0  0  0  0  0  0  0  0  0  0
   -1.8837   -6.3572    1.5748 C   0  0  0  0  0  0  0  0  0  0  0  0
   -2.6663   -6.4598    2.7044 C   0  0  0  0  0  0  0  0  0  0  0  0
   -2.4537   -7.5353    3.7352 C   0  0  0  0  0  0  0  0  0  0  0  0
   -1.2037   -7.2446    4.5321 C   0  0  0  0  0  0  0  0  0  0  0  0
   -3.6390   -5.5395    2.8629 C   0  0  0  0  0  0  0  0  0  0  0  0
   -3.5007   -4.5537    1.4583 S   0  0  0  0  0  0  0  0  0  0  0  0
   -2.1352   -5.3639    0.7189 C   0  0  0  0  0  0  0  0  0  0  0  0
   -1.2520   -5.1369   -0.3065 C   0  0  0  0  0  0  0  0  0  0  0  0
   -1.0010   -4.1105   -1.2093 N   0  0  0  0  0  0  0  0  0  0  0  0
    0.1765   -4.2684   -1.7591 C   0  0  0  0  0  0  0  0  0  0  0  0
    1.0039   -3.3541   -2.4793 C   0  0  0  0  0  0  0  0  0  0  0  0
    0.8346   -2.0395   -2.7179 N   0  0  0  0  0  0  0  0  0  0  0  0
    2.0791   -1.5023   -3.0478 C   0  0  0  0  0  0  0  0  0  0  0  0
    2.6792   -0.2387   -3.1810 C   0  0  0  0  0  0  0  0  0  0  0  0
    2.2019    1.4407   -3.0630 S   0  0  0  0  0  0  0  0  0  0  0  0
   -0.3001   -1.1514   -2.6453 C   0  0  0  0  0  0  0  0  0  0  0  0
   -0.3699   -0.5264   -1.2456 C   0  0  0  0  0  0  0  0  0  0  0  0
   -2.0379   -3.2466   -1.7318 C   0  0  0  0  0  0  0  0  0  0  0  0
   -2.5110   -3.6826   -3.1172 C   0  0  0  0  0  0  0  0  0  0  0  0
   -4.4615   -5.2215    4.0849 C   0  0  0  0  0  0  0  0  0  0  0  0
   -3.9994   -4.1523    4.7827 C   0  0  0  0  0  0  0  0  0  0  0  0
   -4.6480   -3.4008    6.2872 S   0  0  0  0  0  0  0  0  0  0  0  0
   -3.4265   -2.0567    6.3781 C   0  0  0  0  0  0  0  0  0  0  0  0
   -3.3960   -0.8523    7.4959 S   0  0  0  0  0  0  0  0  0  0  0  0
   -2.5521   -2.2764    5.2884 N   0  0  0  0  0  0  0  0  0  0  0  0
   -1.4227   -1.3617    5.0115 C   0  0  0  0  0  0  0  0  0  0  0  0
   -0.1223   -1.7852    5.5588 C   0  0  0  0  0  0  0  0  0  0  0  0
   -2.8373   -3.3631    4.4554 C   0  0  0  0  0  0  0  0  0  0  0  0
   -2.0670   -3.6473    3.4396 O   0  0  0  0  0  0  0  0  0  0  0  0
    4.9804    3.8721   -3.0519 H   0  0  0  0  0  0  0  0  0  0  0  0
    3.6501    8.4037   -0.5995 H   0  0  0  0  0  0  0  0  0  0  0  0
   -0.4004    5.7030   -0.0692 H   0  0  0  0  0  0  0  0  0  0  0  0
   -0.3143    8.2894    2.1554 H   0  0  0  0  0  0  0  0  0  0  0  0
   -2.1794    9.0957    0.5480 H   0  0  0  0  0  0  0  0  0  0  0  0
   -1.2311    8.8057   -1.8551 H   0  0  0  0  0  0  0  0  0  0  0  0
    0.8020   10.4824   -2.0967 H   0  0  0  0  0  0  0  0  0  0  0  0
    1.1951   11.5441    0.2747 H   0  0  0  0  0  0  0  0  0  0  0  0
   -1.3890   11.4826    0.2460 H   0  0  0  0  0  0  0  0  0  0  0  0
   -0.7062   10.8294    1.8708 H   0  0  0  0  0  0  0  0  0  0  0  0
    1.6457    9.7190    1.8967 H   0  0  0  0  0  0  0  0  0  0  0  0
    6.5852    0.5023   -3.5349 H   0  0  0  0  0  0  0  0  0  0  0  0
    6.2916    2.1883   -3.9301 H   0  0  0  0  0  0  0  0  0  0  0  0
    5.5260    1.5213   -1.1123 H   0  0  0  0  0  0  0  0  0  0  0  0
    7.2130    1.0349   -1.3939 H   0  0  0  0  0  0  0  0  0  0  0  0
    6.6771    2.7422   -1.6397 H   0  0  0  0  0  0  0  0  0  0  0  0
   -2.3991   -8.5141    3.2814 H   0  0  0  0  0  0  0  0  0  0  0  0
   -3.2996   -7.5226    4.4775 H   0  0  0  0  0  0  0  0  0  0  0  0
   -0.4600   -8.0814    4.4005 H   0  0  0  0  0  0  0  0  0  0  0  0
   -1.4485   -7.1317    5.6046 H   0  0  0  0  0  0  0  0  0  0  0  0
   -0.7322   -6.2860    4.1999 H   0  0  0  0  0  0  0  0  0  0  0  0
   -0.0316   -0.1842   -3.2311 H   0  0  0  0  0  0  0  0  0  0  0  0
   -1.1972   -1.3014   -3.1847 H   0  0  0  0  0  0  0  0  0  0  0  0
    0.3855    0.2718   -1.0854 H   0  0  0  0  0  0  0  0  0  0  0  0
   -1.3249   -0.1607   -0.9446 H   0  0  0  0  0  0  0  0  0  0  0  0
    0.0261   -1.3615   -0.5809 H   0  0  0  0  0  0  0  0  0  0  0  0
   -2.2472   -2.2817   -1.3751 H   0  0  0  0  0  0  0  0  0  0  0  0
   -2.9954   -3.7322   -1.2165 H   0  0  0  0  0  0  0  0  0  0  0  0
   -2.6226   -4.8018   -3.0667 H   0  0  0  0  0  0  0  0  0  0  0  0
   -3.5134   -3.3168   -3.3386 H   0  0  0  0  0  0  0  0  0  0  0  0
   -1.8588   -3.4394   -3.9555 H   0  0  0  0  0  0  0  0  0  0  0  0
   -5.2782   -5.7533    4.3451 H   0  0  0  0  0  0  0  0  0  0  0  0
   -1.6353   -0.3247    5.2914 H   0  0  0  0  0  0  0  0  0  0  0  0
   -1.2676   -1.3086    3.8742 H   0  0  0  0  0  0  0  0  0  0  0  0
   -0.1293   -2.2132    6.5428 H   0  0  0  0  0  0  0  0  0  0  0  0
    0.6440   -0.9721    5.4076 H   0  0  0  0  0  0  0  0  0  0  0  0
    0.2936   -2.5997    4.8747 H   0  0  0  0  0  0  0  0  0  0  0  0
  1  2  2  3
  2  3  1  0
  3  4  2  0
  3  5  1  0
  5  6  2  0
  6  7  1  0
  7  8  2  0
  8  9  1  0
  9 10  2  0
 10 11  1  0
 11 12  2  3
 12 13  1  0
 13 14  3  0
 12 15  1  0
 15 16  3  0
  8 17  1  0
 17 18  1  0
 18 19  1  0
 19 20  2  0
 20 21  1  0
 21 22  1  0
 21 23  1  0
  1 24  1  0
 24 25  2  0
 25 26  1  0
 26 27  1  0
 25 28  1  0
 28 29  1  0
 29 30  1  0
 30 31  1  0
 31 32  1  0
 32 33  1  0
 33 34  2  0
 34 35  1  0
 35 36  1  0
 33 37  1  0
 37 38  1  0
 38 39  1  0
 39 40  1  0
 40 41  1  0
 41 42  1  0
 42 43  1  0
 41 44  2  0
 44 45  1  0
 45 46  1  0
 46 47  1  0
 47 48  1  0
 48 49  1  0
 49 50  1  0
 50 51  1  0
 51 52  1  0
 52 53  1  0
 53 54  1  0
 51 55  1  0
 55 56  1  0
 48 57  1  0
 57 58  1  0
 44 59  1  0
 59 60  2  3
 60 61  1  0
 61 62  1  0
 62 63  2  0
 62 64  1  0
 64 65  1  0
 65 66  1  0
 64 67  1  0
 67 68  2  0
 11  2  1  0
 23 17  1  0
 54 24  1  0
 67 60  1  0
 10  5  1  0
 22 18  1  0
 53 28  2  0
 23  7  1  0
 52 30  2  0
 50 31  2  0
 36 32  2  0
 49 37  2  0
 47 38  2  0
 46 40  2  0
  1 69  1  0
  6 70  1  0
  9 71  1  0
 17 72  1  0
 18 73  1  0
 19 74  1  0
 20 75  1  0
 21 76  1  0
 22 77  1  0
 22 78  1  0
 23 79  1  0
 26 80  1  0
 26 81  1  0
 27 82  1  0
 27 83  1  0
 27 84  1  0
 42 85  1  0
 42 86  1  0
 43 87  1  0
 43 88  1  0
 43 89  1  0
 55 90  1  0
 55 91  1  0
 56 92  1  0
 56 93  1  0
 56 94  1  0
 57 95  1  0
 57 96  1  0
 58 97  1  0
 58 98  1  0
 58 99  1  0
 59100  1  0
 65101  1  0
 65102  1  0
 66103  1  0
 66104  1  0
 66105  1  0
M  END

