
     RDKit          3D

122136  0  0  0  0  0  0  0  0999 V2000
    3.4844   -2.5570    5.8122 C   0  0  0  0  0  0  0  0  0  0  0  0
    3.8534   -1.4706    6.5216 C   0  0  0  0  0  0  0  0  0  0  0  0
    3.2982   -0.1220    6.3714 C   0  0  0  0  0  0  0  0  0  0  0  0
    2.1245    0.1581    5.9997 O   0  0  0  0  0  0  0  0  0  0  0  0
    4.3241    0.8405    6.7052 C   0  0  0  0  0  0  0  0  0  0  0  0
    4.3133    2.2169    6.3931 C   0  0  0  0  0  0  0  0  0  0  0  0
    5.5626    2.8085    6.4590 C   0  0  0  0  0  0  0  0  0  0  0  0
    6.7568    2.0899    6.8119 C   0  0  0  0  0  0  0  0  0  0  0  0
    6.7626    0.7549    7.1706 C   0  0  0  0  0  0  0  0  0  0  0  0
    5.4818    0.1327    7.1283 C   0  0  0  0  0  0  0  0  0  0  0  0
    5.1610   -1.3123    7.2101 C   0  0  0  0  0  0  0  0  0  0  0  0
    5.8392   -2.2548    7.9160 C   0  0  0  0  0  0  0  0  0  0  0  0
    7.0746   -1.9668    8.5960 C   0  0  0  0  0  0  0  0  0  0  0  0
    8.0799   -1.7413    9.1336 N   0  0  0  0  0  0  0  0  0  0  0  0
    5.3072   -3.5782    8.1179 C   0  0  0  0  0  0  0  0  0  0  0  0
    4.8858   -4.6434    8.2778 N   0  0  0  0  0  0  0  0  0  0  0  0
    7.5985    3.2717    6.4353 C   0  0  0  0  0  0  0  0  0  0  0  0
    8.3616    3.2046    5.0732 C   0  0  0  0  0  0  0  0  0  0  0  0
    7.5895    2.3665    4.0725 C   0  0  0  0  0  0  0  0  0  0  0  0
    6.4854    3.0549    3.7716 C   0  0  0  0  0  0  0  0  0  0  0  0
    6.5463    4.3367    4.5763 C   0  0  0  0  0  0  0  0  0  0  0  0
    8.0454    4.5805    4.5184 C   0  0  0  0  0  0  0  0  0  0  0  0
    6.3778    4.0168    6.1015 C   0  0  0  0  0  0  0  0  0  0  0  0
    2.5645   -2.5171    4.6622 C   0  0  0  0  0  0  0  0  0  0  0  0
    1.5759   -3.5191    4.5212 C   0  0  0  0  0  0  0  0  0  0  0  0
    0.7951   -3.6043    3.3572 C   0  0  0  0  0  0  0  0  0  0  0  0
    1.0549   -2.7034    2.3191 C   0  0  0  0  0  0  0  0  0  0  0  0
    0.4930   -2.4909    1.0700 C   0  0  0  0  0  0  0  0  0  0  0  0
    1.0625   -1.3777    0.5708 C   0  0  0  0  0  0  0  0  0  0  0  0
    2.0109   -0.8552    1.3878 N   0  0  0  0  0  0  0  0  0  0  0  0
    2.0038   -1.6959    2.4584 C   0  0  0  0  0  0  0  0  0  0  0  0
    2.7739   -1.5917    3.6183 C   0  0  0  0  0  0  0  0  0  0  0  0
    2.8056    0.3663    1.2292 C   0  0  0  0  0  0  0  0  0  0  0  0
    2.1732    1.5297    1.9898 C   0  0  0  0  0  0  0  0  0  0  0  0
    0.2085   -0.8911   -0.3864 C   0  0  0  0  0  0  0  0  0  0  0  0
    0.1002    0.3540   -1.0143 C   0  0  0  0  0  0  0  0  0  0  0  0
   -0.9884    0.6589   -1.7758 C   0  0  0  0  0  0  0  0  0  0  0  0
   -0.8253    1.8914   -2.2786 N   0  0  0  0  0  0  0  0  0  0  0  0
    0.3363    2.3109   -1.7881 N   0  0  0  0  0  0  0  0  0  0  0  0
    0.9305    3.6003   -2.1219 C   0  0  0  0  0  0  0  0  0  0  0  0
    2.1212    3.4020   -3.0487 C   0  0  0  0  0  0  0  0  0  0  0  0
    0.9319    1.4067   -1.0129 N   0  0  0  0  0  0  0  0  0  0  0  0
   -2.0070   -0.2704   -1.9788 C   0  0  0  0  0  0  0  0  0  0  0  0
   -1.9249   -1.5686   -1.4142 C   0  0  0  0  0  0  0  0  0  0  0  0
   -0.8294   -1.8519   -0.5089 C   0  0  0  0  0  0  0  0  0  0  0  0
   -0.6685   -2.8300    0.4531 N   0  0  0  0  0  0  0  0  0  0  0  0
   -1.6651   -3.7388    1.0220 C   0  0  0  0  0  0  0  0  0  0  0  0
   -1.2621   -5.2065    0.8263 C   0  0  0  0  0  0  0  0  0  0  0  0
   -2.8509   -2.3978   -2.0158 N   0  0  0  0  0  0  0  0  0  0  0  0
   -2.9132   -3.8621   -2.0687 C   0  0  0  0  0  0  0  0  0  0  0  0
   -4.2214   -4.3767   -1.4489 C   0  0  0  0  0  0  0  0  0  0  0  0
   -3.5202   -1.5710   -2.8585 C   0  0  0  0  0  0  0  0  0  0  0  0
   -3.0818   -0.3054   -2.8300 C   0  0  0  0  0  0  0  0  0  0  0  0
   -3.5673    0.4524   -3.8400 N   0  0  0  0  0  0  0  0  0  0  0  0
   -3.1781    1.8063   -4.2360 C   0  0  0  0  0  0  0  0  0  0  0  0
   -1.9708    1.7545   -5.1647 C   0  0  0  0  0  0  0  0  0  0  0  0
   -4.3493   -0.4204   -4.5335 C   0  0  0  0  0  0  0  0  0  0  0  0
   -4.3137   -1.7055   -3.9907 C   0  0  0  0  0  0  0  0  0  0  0  0
   -4.8930   -2.7876   -4.6573 C   0  0  0  0  0  0  0  0  0  0  0  0
   -5.6549   -2.5295   -5.8148 C   0  0  0  0  0  0  0  0  0  0  0  0
   -5.8321   -1.2033   -6.2718 C   0  0  0  0  0  0  0  0  0  0  0  0
   -5.1110   -0.1492   -5.6704 C   0  0  0  0  0  0  0  0  0  0  0  0
   -6.8068   -0.8819   -7.3350 C   0  0  0  0  0  0  0  0  0  0  0  0
   -7.8048   -0.0075   -7.1260 C   0  0  0  0  0  0  0  0  0  0  0  0
   -8.2659    0.9277   -8.1768 C   0  0  0  0  0  0  0  0  0  0  0  0
   -8.0627    0.8316   -9.4228 O   0  0  0  0  0  0  0  0  0  0  0  0
   -8.7582    2.1022   -7.4827 C   0  0  0  0  0  0  0  0  0  0  0  0
   -9.0310    3.7147   -7.8950 S   0  0  0  0  0  0  0  0  0  0  0  0
   -9.1127    4.2278   -6.2737 C   0  0  0  0  0  0  0  0  0  0  0  0
   -8.8657    3.1436   -5.4231 C   0  0  0  0  0  0  0  0  0  0  0  0
   -8.6595    1.9563   -6.1389 C   0  0  0  0  0  0  0  0  0  0  0  0
   -8.1902    0.6051   -5.8059 C   0  0  0  0  0  0  0  0  0  0  0  0
   -8.3345   -0.0204   -4.6200 C   0  0  0  0  0  0  0  0  0  0  0  0
   -8.6837    0.6848   -3.4093 C   0  0  0  0  0  0  0  0  0  0  0  0
   -8.9688    1.2361   -2.4310 N   0  0  0  0  0  0  0  0  0  0  0  0
   -8.3509   -1.4590   -4.5261 C   0  0  0  0  0  0  0  0  0  0  0  0
   -8.3666   -2.6107   -4.4236 N   0  0  0  0  0  0  0  0  0  0  0  0
    4.0140   -3.4855    5.9309 H   0  0  0  0  0  0  0  0  0  0  0  0
    3.4525    2.7334    5.9905 H   0  0  0  0  0  0  0  0  0  0  0  0
    7.6920    0.2241    7.3210 H   0  0  0  0  0  0  0  0  0  0  0  0
    8.1824    3.7048    7.2856 H   0  0  0  0  0  0  0  0  0  0  0  0
    9.4417    2.9588    5.1511 H   0  0  0  0  0  0  0  0  0  0  0  0
    7.8787    1.4136    3.6455 H   0  0  0  0  0  0  0  0  0  0  0  0
    5.7196    2.7642    3.0596 H   0  0  0  0  0  0  0  0  0  0  0  0
    5.9072    5.1668    4.1991 H   0  0  0  0  0  0  0  0  0  0  0  0
    8.3811    5.4101    5.1828 H   0  0  0  0  0  0  0  0  0  0  0  0
    8.4225    4.7392    3.4796 H   0  0  0  0  0  0  0  0  0  0  0  0
    6.1987    4.9015    6.7546 H   0  0  0  0  0  0  0  0  0  0  0  0
    1.4263   -4.2346    5.3176 H   0  0  0  0  0  0  0  0  0  0  0  0
    0.0296   -4.3607    3.3015 H   0  0  0  0  0  0  0  0  0  0  0  0
    3.5399   -0.8315    3.6935 H   0  0  0  0  0  0  0  0  0  0  0  0
    3.8337    0.1958    1.6106 H   0  0  0  0  0  0  0  0  0  0  0  0
    2.9205    0.6144    0.1588 H   0  0  0  0  0  0  0  0  0  0  0  0
    2.1465    1.3069    3.0790 H   0  0  0  0  0  0  0  0  0  0  0  0
    2.7742    2.4494    1.8319 H   0  0  0  0  0  0  0  0  0  0  0  0
    1.1298    1.7013    1.6405 H   0  0  0  0  0  0  0  0  0  0  0  0
    1.2627    4.1072   -1.1874 H   0  0  0  0  0  0  0  0  0  0  0  0
    0.1776    4.2421   -2.6232 H   0  0  0  0  0  0  0  0  0  0  0  0
    1.7997    2.8809   -3.9769 H   0  0  0  0  0  0  0  0  0  0  0  0
    2.9009    2.7953   -2.5388 H   0  0  0  0  0  0  0  0  0  0  0  0
    2.5559    4.3875   -3.3221 H   0  0  0  0  0  0  0  0  0  0  0  0
   -2.6512   -3.5417    0.5891 H   0  0  0  0  0  0  0  0  0  0  0  0
   -1.7937   -3.5294    2.1040 H   0  0  0  0  0  0  0  0  0  0  0  0
   -2.1323   -5.8684    1.0107 H   0  0  0  0  0  0  0  0  0  0  0  0
   -0.4586   -5.4987    1.5283 H   0  0  0  0  0  0  0  0  0  0  0  0
   -0.8606   -5.3959   -0.1895 H   0  0  0  0  0  0  0  0  0  0  0  0
   -2.8446   -4.1950   -3.1239 H   0  0  0  0  0  0  0  0  0  0  0  0
   -2.0400   -4.2858   -1.5759 H   0  0  0  0  0  0  0  0  0  0  0  0
   -5.0627   -4.2772   -2.1611 H   0  0  0  0  0  0  0  0  0  0  0  0
   -4.1140   -5.4472   -1.1763 H   0  0  0  0  0  0  0  0  0  0  0  0
   -4.5022   -3.7997   -0.5393 H   0  0  0  0  0  0  0  0  0  0  0  0
   -4.0187    2.3199   -4.7433 H   0  0  0  0  0  0  0  0  0  0  0  0
   -2.9682    2.4144   -3.3379 H   0  0  0  0  0  0  0  0  0  0  0  0
   -1.2678    0.9521   -4.8579 H   0  0  0  0  0  0  0  0  0  0  0  0
   -2.2996    1.5408   -6.2053 H   0  0  0  0  0  0  0  0  0  0  0  0
   -1.4301    2.7237   -5.1403 H   0  0  0  0  0  0  0  0  0  0  0  0
   -4.7862   -3.7981   -4.3098 H   0  0  0  0  0  0  0  0  0  0  0  0
   -6.1638   -3.3443   -6.3152 H   0  0  0  0  0  0  0  0  0  0  0  0
   -5.1928    0.8604   -6.0523 H   0  0  0  0  0  0  0  0  0  0  0  0
   -6.5594   -1.1704   -8.3473 H   0  0  0  0  0  0  0  0  0  0  0  0
   -9.2660    5.2482   -5.9505 H   0  0  0  0  0  0  0  0  0  0  0  0
   -8.7685    3.2505   -4.3578 H   0  0  0  0  0  0  0  0  0  0  0  0
  1  2  2  3
  2  3  1  0
  3  4  2  0
  3  5  1  0
  5  6  2  0
  6  7  1  0
  7  8  2  0
  8  9  1  0
  9 10  2  0
 10 11  1  0
 11 12  2  3
 12 13  1  0
 13 14  3  0
 12 15  1  0
 15 16  3  0
  8 17  1  0
 17 18  1  0
 18 19  1  0
 19 20  2  0
 20 21  1  0
 21 22  1  0
 21 23  1  0
  1 24  1  0
 24 25  2  0
 25 26  1  0
 26 27  2  0
 27 28  1  0
 28 29  2  0
 29 30  1  0
 30 31  1  0
 31 32  2  0
 30 33  1  0
 33 34  1  0
 29 35  1  0
 35 36  1  0
 36 37  1  0
 37 38  2  0
 38 39  1  0
 39 40  1  0
 40 41  1  0
 39 42  1  0
 37 43  1  0
 43 44  2  0
 44 45  1  0
 45 46  1  0
 46 47  1  0
 47 48  1  0
 44 49  1  0
 49 50  1  0
 50 51  1  0
 49 52  1  0
 52 53  2  0
 53 54  1  0
 54 55  1  0
 55 56  1  0
 54 57  1  0
 57 58  2  0
 58 59  1  0
 59 60  2  0
 60 61  1  0
 61 62  2  0
 61 63  1  0
 63 64  2  3
 64 65  1  0
 65 66  2  0
 65 67  1  0
 67 68  1  0
 68 69  1  0
 69 70  2  0
 70 71  1  0
 71 72  1  0
 72 73  2  3
 73 74  1  0
 74 75  3  0
 73 76  1  0
 76 77  3  0
 11  2  1  0
 23 17  1  0
 32 24  1  0
 45 35  2  0
 58 52  1  0
 72 64  1  0
 10  5  1  0
 22 18  1  0
 31 27  1  0
 42 36  2  0
 53 43  1  0
 62 57  1  0
 71 67  2  0
 23  7  1  0
 46 28  1  0
  1 78  1  0
  6 79  1  0
  9 80  1  0
 17 81  1  0
 18 82  1  0
 19 83  1  0
 20 84  1  0
 21 85  1  0
 22 86  1  0
 22 87  1  0
 23 88  1  0
 25 89  1  0
 26 90  1  0
 32 91  1  0
 33 92  1  0
 33 93  1  0
 34 94  1  0
 34 95  1  0
 34 96  1  0
 40 97  1  0
 40 98  1  0
 41 99  1  0
 41100  1  0
 41101  1  0
 47102  1  0
 47103  1  0
 48104  1  0
 48105  1  0
 48106  1  0
 50107  1  0
 50108  1  0
 51109  1  0
 51110  1  0
 51111  1  0
 55112  1  0
 55113  1  0
 56114  1  0
 56115  1  0
 56116  1  0
 59117  1  0
 60118  1  0
 62119  1  0
 63120  1  0
 69121  1  0
 70122  1  0
M  END

