
     RDKit          3D

168185  0  0  0  0  0  0  0  0999 V2000
    5.2198    5.8585    1.2957 C   0  0  0  0  0  0  0  0  0  0  0  0
    5.8699    5.6399    0.1362 C   0  0  0  0  0  0  0  0  0  0  0  0
    7.2499    6.0704   -0.0866 C   0  0  0  0  0  0  0  0  0  0  0  0
    7.8757    6.9312    0.5871 O   0  0  0  0  0  0  0  0  0  0  0  0
    7.8250    5.2405   -1.1274 C   0  0  0  0  0  0  0  0  0  0  0  0
    9.1764    5.1947   -1.5424 C   0  0  0  0  0  0  0  0  0  0  0  0
    9.4422    4.2075   -2.4738 C   0  0  0  0  0  0  0  0  0  0  0  0
    8.4384    3.3121   -2.9751 C   0  0  0  0  0  0  0  0  0  0  0  0
    7.1147    3.3519   -2.5737 C   0  0  0  0  0  0  0  0  0  0  0  0
    6.8203    4.3670   -1.6237 C   0  0  0  0  0  0  0  0  0  0  0  0
    5.5315    4.6783   -0.9533 C   0  0  0  0  0  0  0  0  0  0  0  0
    4.2919    4.4740   -1.4660 C   0  0  0  0  0  0  0  0  0  0  0  0
    4.0602    3.6748   -2.6398 C   0  0  0  0  0  0  0  0  0  0  0  0
    3.8589    3.0404   -3.5909 N   0  0  0  0  0  0  0  0  0  0  0  0
    3.1418    5.1914   -0.9787 C   0  0  0  0  0  0  0  0  0  0  0  0
    2.2120    5.7670   -0.6037 N   0  0  0  0  0  0  0  0  0  0  0  0
    9.4592    2.6201   -3.8276 C   0  0  0  0  0  0  0  0  0  0  0  0
    9.4259    2.9402   -5.3525 C   0  0  0  0  0  0  0  0  0  0  0  0
   10.7435    2.4516   -5.9025 C   0  0  0  0  0  0  0  0  0  0  0  0
   11.6846    3.2784   -5.4295 C   0  0  0  0  0  0  0  0  0  0  0  0
   10.9660    4.2992   -4.5779 C   0  0  0  0  0  0  0  0  0  0  0  0
    9.6940    4.4364   -5.3979 C   0  0  0  0  0  0  0  0  0  0  0  0
   10.4885    3.5328   -3.3088 C   0  0  0  0  0  0  0  0  0  0  0  0
    4.2128    4.9415    1.8504 C   0  0  0  0  0  0  0  0  0  0  0  0
    3.0544    5.3398    2.5284 C   0  0  0  0  0  0  0  0  0  0  0  0
    2.3127    4.2345    2.9642 C   0  0  0  0  0  0  0  0  0  0  0  0
    0.8388    4.0742    3.3426 C   0  0  0  0  0  0  0  0  0  0  0  0
    0.6495    4.2403    4.8627 C   0  0  0  0  0  0  0  0  0  0  0  0
   -0.3459    3.5238    5.5640 C   0  0  0  0  0  0  0  0  0  0  0  0
   -0.5114    3.6679    6.9418 C   0  0  0  0  0  0  0  0  0  0  0  0
    0.3042    4.5480    7.6622 C   0  0  0  0  0  0  0  0  0  0  0  0
    0.1587    4.6531    9.1572 C   0  0  0  0  0  0  0  0  0  0  0  0
    0.9207    3.5362    9.8576 C   0  0  0  0  0  0  0  0  0  0  0  0
    1.2921    5.2762    6.9871 C   0  0  0  0  0  0  0  0  0  0  0  0
    1.4515    5.1383    5.6041 C   0  0  0  0  0  0  0  0  0  0  0  0
   -0.0050    5.0350    2.5033 C   0  0  0  0  0  0  0  0  0  0  0  0
   -0.3879    6.2945    3.0094 C   0  0  0  0  0  0  0  0  0  0  0  0
   -1.0669    7.2167    2.2095 C   0  0  0  0  0  0  0  0  0  0  0  0
   -1.3819    6.9004    0.8828 C   0  0  0  0  0  0  0  0  0  0  0  0
   -2.1907    7.8568    0.0518 C   0  0  0  0  0  0  0  0  0  0  0  0
   -3.6825    7.5753    0.2110 C   0  0  0  0  0  0  0  0  0  0  0  0
   -1.0016    5.6574    0.3624 C   0  0  0  0  0  0  0  0  0  0  0  0
   -0.2919    4.7486    1.1522 C   0  0  0  0  0  0  0  0  0  0  0  0
    0.6833    2.5943    2.9568 C   0  0  0  0  0  0  0  0  0  0  0  0
    1.9054    2.0335    2.7098 C   0  0  0  0  0  0  0  0  0  0  0  0
    2.9092    3.0400    2.6904 C   0  0  0  0  0  0  0  0  0  0  0  0
    4.3000    3.2440    1.7893 S   0  0  0  0  0  0  0  0  0  0  0  0
    1.8141    0.4461    2.2064 S   0  0  0  0  0  0  0  0  0  0  0  0
    0.1228    0.4117    2.3508 C   0  0  0  0  0  0  0  0  0  0  0  0
   -0.7234   -0.6773    2.0721 C   0  0  0  0  0  0  0  0  0  0  0  0
   -0.2294   -1.9628    1.8166 O   0  0  0  0  0  0  0  0  0  0  0  0
    0.7673   -2.6230    2.5973 C   0  0  0  0  0  0  0  0  0  0  0  0
    1.9272   -3.0432    1.7077 C   0  0  0  0  0  0  0  0  0  0  0  0
   -2.1028   -0.4142    2.0043 C   0  0  0  0  0  0  0  0  0  0  0  0
   -2.5998    0.8919    2.2281 C   0  0  0  0  0  0  0  0  0  0  0  0
   -1.7594    1.9643    2.6319 C   0  0  0  0  0  0  0  0  0  0  0  0
   -0.3741    1.6927    2.6888 C   0  0  0  0  0  0  0  0  0  0  0  0
   -2.2266    3.2517    2.9540 O   0  0  0  0  0  0  0  0  0  0  0  0
   -3.5853    3.6203    3.1704 C   0  0  0  0  0  0  0  0  0  0  0  0
   -3.6500    4.9902    3.8196 C   0  0  0  0  0  0  0  0  0  0  0  0
   -4.2483    0.9377    1.8035 S   0  0  0  0  0  0  0  0  0  0  0  0
   -4.3353   -0.6965    1.4774 C   0  0  0  0  0  0  0  0  0  0  0  0
   -5.2252   -1.5299    0.7220 C   0  0  0  0  0  0  0  0  0  0  0  0
   -4.5538   -2.7019    0.4633 C   0  0  0  0  0  0  0  0  0  0  0  0
   -3.1785   -2.7547    1.1278 C   0  0  0  0  0  0  0  0  0  0  0  0
   -3.1252   -1.3109    1.6295 C   0  0  0  0  0  0  0  0  0  0  0  0
   -2.1054   -3.0459    0.0705 C   0  0  0  0  0  0  0  0  0  0  0  0
   -1.3524   -4.2422    0.0691 C   0  0  0  0  0  0  0  0  0  0  0  0
   -0.4426   -4.5105   -0.9552 C   0  0  0  0  0  0  0  0  0  0  0  0
   -0.2698   -3.6058   -2.0082 C   0  0  0  0  0  0  0  0  0  0  0  0
    0.7120   -3.8975   -3.1109 C   0  0  0  0  0  0  0  0  0  0  0  0
    2.1418   -3.6538   -2.6446 C   0  0  0  0  0  0  0  0  0  0  0  0
   -1.0053   -2.4112   -2.0125 C   0  0  0  0  0  0  0  0  0  0  0  0
   -1.9166   -2.1399   -0.9939 C   0  0  0  0  0  0  0  0  0  0  0  0
   -3.2119   -3.7555    2.2972 C   0  0  0  0  0  0  0  0  0  0  0  0
   -2.5707   -3.4896    3.5280 C   0  0  0  0  0  0  0  0  0  0  0  0
   -2.6516   -4.3924    4.5889 C   0  0  0  0  0  0  0  0  0  0  0  0
   -3.3793   -5.5818    4.4577 C   0  0  0  0  0  0  0  0  0  0  0  0
   -3.4837   -6.5462    5.6064 C   0  0  0  0  0  0  0  0  0  0  0  0
   -2.4097   -7.6268    5.5074 C   0  0  0  0  0  0  0  0  0  0  0  0
   -3.9725   -5.8861    3.2249 C   0  0  0  0  0  0  0  0  0  0  0  0
   -3.8715   -4.9938    2.1556 C   0  0  0  0  0  0  0  0  0  0  0  0
   -4.9439   -3.3253   -0.7285 C   0  0  0  0  0  0  0  0  0  0  0  0
   -5.9005   -2.5860   -1.4304 C   0  0  0  0  0  0  0  0  0  0  0  0
   -6.1922   -1.1420   -0.5961 S   0  0  0  0  0  0  0  0  0  0  0  0
   -6.1756   -2.7744   -2.8651 C   0  0  0  0  0  0  0  0  0  0  0  0
   -6.3609   -3.9848   -3.4234 C   0  0  0  0  0  0  0  0  0  0  0  0
   -6.5145   -5.2386   -2.6801 C   0  0  0  0  0  0  0  0  0  0  0  0
   -6.9129   -5.3536   -1.4901 O   0  0  0  0  0  0  0  0  0  0  0  0
   -6.1998   -6.3368   -3.5603 C   0  0  0  0  0  0  0  0  0  0  0  0
   -6.0788   -7.6856   -3.2280 C   0  0  0  0  0  0  0  0  0  0  0  0
   -5.6735   -8.5924   -4.2224 C   0  0  0  0  0  0  0  0  0  0  0  0
   -5.4701  -10.0362   -3.8682 C   0  0  0  0  0  0  0  0  0  0  0  0
   -5.3680   -8.1156   -5.5173 C   0  0  0  0  0  0  0  0  0  0  0  0
   -4.9289   -8.9690   -6.4797 F   0  0  0  0  0  0  0  0  0  0  0  0
   -5.4965   -6.7515   -5.8257 C   0  0  0  0  0  0  0  0  0  0  0  0
   -5.9359   -5.8559   -4.8321 C   0  0  0  0  0  0  0  0  0  0  0  0
   -6.1254   -4.3729   -4.8540 C   0  0  0  0  0  0  0  0  0  0  0  0
   -6.1567   -3.5630   -5.9489 C   0  0  0  0  0  0  0  0  0  0  0  0
   -5.8876   -4.0349   -7.2820 C   0  0  0  0  0  0  0  0  0  0  0  0
   -5.6692   -4.3937   -8.3641 N   0  0  0  0  0  0  0  0  0  0  0  0
   -6.5557   -2.1803   -5.8795 C   0  0  0  0  0  0  0  0  0  0  0  0
   -6.8836   -1.0710   -5.8339 N   0  0  0  0  0  0  0  0  0  0  0  0
    5.5814    6.6331    1.9603 H   0  0  0  0  0  0  0  0  0  0  0  0
    9.9449    5.8487   -1.1461 H   0  0  0  0  0  0  0  0  0  0  0  0
    6.4002    2.6255   -2.9385 H   0  0  0  0  0  0  0  0  0  0  0  0
    9.6107    1.5490   -3.5633 H   0  0  0  0  0  0  0  0  0  0  0  0
    8.5191    2.5955   -5.8982 H   0  0  0  0  0  0  0  0  0  0  0  0
   10.8986    1.6572   -6.6240 H   0  0  0  0  0  0  0  0  0  0  0  0
   12.7345    3.2635   -5.6944 H   0  0  0  0  0  0  0  0  0  0  0  0
   11.5260    5.2394   -4.3874 H   0  0  0  0  0  0  0  0  0  0  0  0
    9.8744    4.8260   -6.4309 H   0  0  0  0  0  0  0  0  0  0  0  0
    8.9040    5.0545   -4.9161 H   0  0  0  0  0  0  0  0  0  0  0  0
   11.2865    3.0376   -2.7089 H   0  0  0  0  0  0  0  0  0  0  0  0
    2.7230    6.3690    2.6124 H   0  0  0  0  0  0  0  0  0  0  0  0
   -0.9908    2.8225    5.0700 H   0  0  0  0  0  0  0  0  0  0  0  0
   -1.2745    3.0901    7.4488 H   0  0  0  0  0  0  0  0  0  0  0  0
   -0.9193    4.5878    9.4347 H   0  0  0  0  0  0  0  0  0  0  0  0
    0.5340    5.6392    9.5146 H   0  0  0  0  0  0  0  0  0  0  0  0
    0.7904    3.6267   10.9570 H   0  0  0  0  0  0  0  0  0  0  0  0
    0.5358    2.5443    9.5352 H   0  0  0  0  0  0  0  0  0  0  0  0
    2.0052    3.5978    9.6178 H   0  0  0  0  0  0  0  0  0  0  0  0
    1.9360    5.9597    7.5281 H   0  0  0  0  0  0  0  0  0  0  0  0
    2.2105    5.7374    5.1220 H   0  0  0  0  0  0  0  0  0  0  0  0
   -0.1704    6.5872    4.0257 H   0  0  0  0  0  0  0  0  0  0  0  0
   -1.3613    8.1693    2.6308 H   0  0  0  0  0  0  0  0  0  0  0  0
   -1.9089    7.7674   -1.0216 H   0  0  0  0  0  0  0  0  0  0  0  0
   -1.9818    8.9041    0.3622 H   0  0  0  0  0  0  0  0  0  0  0  0
   -3.9822    7.6785    1.2750 H   0  0  0  0  0  0  0  0  0  0  0  0
   -3.9172    6.5462   -0.1330 H   0  0  0  0  0  0  0  0  0  0  0  0
   -4.2650    8.2948   -0.3950 H   0  0  0  0  0  0  0  0  0  0  0  0
   -1.2401    5.3943   -0.6584 H   0  0  0  0  0  0  0  0  0  0  0  0
    0.0292    3.8144    0.7026 H   0  0  0  0  0  0  0  0  0  0  0  0
    0.3165   -3.5320    3.0467 H   0  0  0  0  0  0  0  0  0  0  0  0
    1.1276   -1.9847    3.4307 H   0  0  0  0  0  0  0  0  0  0  0  0
    1.5753   -3.7407    0.9234 H   0  0  0  0  0  0  0  0  0  0  0  0
    2.6958   -3.5491    2.3270 H   0  0  0  0  0  0  0  0  0  0  0  0
    2.3857   -2.1634    1.2128 H   0  0  0  0  0  0  0  0  0  0  0  0
   -4.1204    3.6649    2.1998 H   0  0  0  0  0  0  0  0  0  0  0  0
   -4.0699    2.8934    3.8541 H   0  0  0  0  0  0  0  0  0  0  0  0
   -3.1414    4.9658    4.8101 H   0  0  0  0  0  0  0  0  0  0  0  0
   -4.7120    5.2847    3.9632 H   0  0  0  0  0  0  0  0  0  0  0  0
   -3.1639    5.7443    3.1695 H   0  0  0  0  0  0  0  0  0  0  0  0
   -1.4530   -4.9749    0.8550 H   0  0  0  0  0  0  0  0  0  0  0  0
    0.1257   -5.4263   -0.9268 H   0  0  0  0  0  0  0  0  0  0  0  0
    0.5061   -3.2556   -3.9940 H   0  0  0  0  0  0  0  0  0  0  0  0
    0.6054   -4.9529   -3.4379 H   0  0  0  0  0  0  0  0  0  0  0  0
    2.4127   -4.3624   -1.8346 H   0  0  0  0  0  0  0  0  0  0  0  0
    2.8400   -3.8083   -3.5007 H   0  0  0  0  0  0  0  0  0  0  0  0
    2.2576   -2.6132   -2.2745 H   0  0  0  0  0  0  0  0  0  0  0  0
   -0.8887   -1.6960   -2.8188 H   0  0  0  0  0  0  0  0  0  0  0  0
   -2.5025   -1.2277   -1.0476 H   0  0  0  0  0  0  0  0  0  0  0  0
   -2.0202   -2.5744    3.6861 H   0  0  0  0  0  0  0  0  0  0  0  0
   -2.1581   -4.1509    5.5225 H   0  0  0  0  0  0  0  0  0  0  0  0
   -4.4890   -7.0189    5.6043 H   0  0  0  0  0  0  0  0  0  0  0  0
   -3.3729   -6.0102    6.5745 H   0  0  0  0  0  0  0  0  0  0  0  0
   -2.4879   -8.3136    6.3776 H   0  0  0  0  0  0  0  0  0  0  0  0
   -1.4007   -7.1630    5.5154 H   0  0  0  0  0  0  0  0  0  0  0  0
   -2.5420   -8.2157    4.5745 H   0  0  0  0  0  0  0  0  0  0  0  0
   -4.5152   -6.8145    3.0890 H   0  0  0  0  0  0  0  0  0  0  0  0
   -4.3313   -5.2730    1.2169 H   0  0  0  0  0  0  0  0  0  0  0  0
   -4.3911   -4.1527   -1.1632 H   0  0  0  0  0  0  0  0  0  0  0  0
   -6.0241   -1.8989   -3.4717 H   0  0  0  0  0  0  0  0  0  0  0  0
   -6.2696   -8.0160   -2.2129 H   0  0  0  0  0  0  0  0  0  0  0  0
   -5.6561  -10.6903   -4.7464 H   0  0  0  0  0  0  0  0  0  0  0  0
   -4.4272  -10.1852   -3.5169 H   0  0  0  0  0  0  0  0  0  0  0  0
   -6.1703  -10.3407   -3.0598 H   0  0  0  0  0  0  0  0  0  0  0  0
   -5.2247   -6.4243   -6.8142 H   0  0  0  0  0  0  0  0  0  0  0  0
  1  2  2  3
  2  3  1  0
  3  4  2  0
  3  5  1  0
  5  6  2  0
  6  7  1  0
  7  8  2  0
  8  9  1  0
  9 10  2  0
 10 11  1  0
 11 12  2  3
 12 13  1  0
 13 14  3  0
 12 15  1  0
 15 16  3  0
  8 17  1  0
 17 18  1  0
 18 19  1  0
 19 20  2  0
 20 21  1  0
 21 22  1  0
 21 23  1  0
  1 24  1  0
 24 25  2  0
 25 26  1  0
 26 27  1  0
 27 28  1  0
 28 29  2  0
 29 30  1  0
 30 31  2  0
 31 32  1  0
 32 33  1  0
 31 34  1  0
 34 35  2  0
 27 36  1  0
 36 37  2  0
 37 38  1  0
 38 39  2  0
 39 40  1  0
 40 41  1  0
 39 42  1  0
 42 43  2  0
 27 44  1  0
 44 45  2  0
 45 46  1  0
 46 47  1  0
 45 48  1  0
 48 49  1  0
 49 50  2  0
 50 51  1  0
 51 52  1  0
 52 53  1  0
 50 54  1  0
 54 55  2  0
 55 56  1  0
 56 57  2  0
 56 58  1  0
 58 59  1  0
 59 60  1  0
 55 61  1  0
 61 62  1  0
 62 63  1  0
 63 64  2  0
 64 65  1  0
 65 66  1  0
 65 67  1  0
 67 68  2  0
 68 69  1  0
 69 70  2  0
 70 71  1  0
 71 72  1  0
 70 73  1  0
 73 74  2  0
 65 75  1  0
 75 76  2  0
 76 77  1  0
 77 78  2  0
 78 79  1  0
 79 80  1  0
 78 81  1  0
 81 82  2  0
 64 83  1  0
 83 84  2  0
 84 85  1  0
 84 86  1  0
 86 87  2  3
 87 88  1  0
 88 89  2  0
 88 90  1  0
 90 91  2  0
 91 92  1  0
 92 93  1  0
 92 94  2  0
 94 95  1  0
 94 96  1  0
 96 97  2  0
 97 98  1  0
 98 99  2  3
 99100  1  0
100101  3  0
 99102  1  0
102103  3  0
 11  2  1  0
 23 17  1  0
 47 24  1  0
 57 49  1  0
 66 62  2  0
 74 67  1  0
 82 75  1  0
 98 87  1  0
 10  5  1  0
 22 18  1  0
 46 26  2  0
 66 54  1  0
 97 90  1  0
 23  7  1  0
 35 28  1  0
 43 36  1  0
 57 44  1  0
 85 63  1  0
  1104  1  0
  6105  1  0
  9106  1  0
 17107  1  0
 18108  1  0
 19109  1  0
 20110  1  0
 21111  1  0
 22112  1  0
 22113  1  0
 23114  1  0
 25115  1  0
 29116  1  0
 30117  1  0
 32118  1  0
 32119  1  0
 33120  1  0
 33121  1  0
 33122  1  0
 34123  1  0
 35124  1  0
 37125  1  0
 38126  1  0
 40127  1  0
 40128  1  0
 41129  1  0
 41130  1  0
 41131  1  0
 42132  1  0
 43133  1  0
 52134  1  0
 52135  1  0
 53136  1  0
 53137  1  0
 53138  1  0
 59139  1  0
 59140  1  0
 60141  1  0
 60142  1  0
 60143  1  0
 68144  1  0
 69145  1  0
 71146  1  0
 71147  1  0
 72148  1  0
 72149  1  0
 72150  1  0
 73151  1  0
 74152  1  0
 76153  1  0
 77154  1  0
 79155  1  0
 79156  1  0
 80157  1  0
 80158  1  0
 80159  1  0
 81160  1  0
 82161  1  0
 83162  1  0
 86163  1  0
 91164  1  0
 93165  1  0
 93166  1  0
 93167  1  0
 96168  1  0
M  END

