
     RDKit          3D

107121  0  0  0  0  0  0  0  0999 V2000
   -0.6147    6.0684   -4.4430 C   0  0  0  0  0  0  0  0  0  0  0  0
   -1.8017    5.7667   -3.8878 C   0  0  0  0  0  0  0  0  0  0  0  0
   -2.1606    4.7964   -2.9084 C   0  0  0  0  0  0  0  0  0  0  0  0
   -1.4047    4.2372   -2.0287 O   0  0  0  0  0  0  0  0  0  0  0  0
   -3.5887    4.4345   -2.9254 C   0  0  0  0  0  0  0  0  0  0  0  0
   -4.3354    3.5390   -2.2543 C   0  0  0  0  0  0  0  0  0  0  0  0
   -5.7029    3.3164   -2.4835 C   0  0  0  0  0  0  0  0  0  0  0  0
   -6.1421    4.0843   -3.4023 C   0  0  0  0  0  0  0  0  0  0  0  0
   -5.6172    5.0602   -4.2087 C   0  0  0  0  0  0  0  0  0  0  0  0
   -4.1010    5.1970   -3.8768 C   0  0  0  0  0  0  0  0  0  0  0  0
   -3.1756    6.0798   -4.5565 C   0  0  0  0  0  0  0  0  0  0  0  0
   -3.3442    7.0514   -5.3399 C   0  0  0  0  0  0  0  0  0  0  0  0
   -4.4951    7.4227   -6.0076 C   0  0  0  0  0  0  0  0  0  0  0  0
   -5.5645    7.7769   -6.6141 N   0  0  0  0  0  0  0  0  0  0  0  0
   -2.3587    8.1955   -5.4099 C   0  0  0  0  0  0  0  0  0  0  0  0
   -1.5574    9.1022   -5.4524 N   0  0  0  0  0  0  0  0  0  0  0  0
   -7.5161    3.3340   -3.2994 C   0  0  0  0  0  0  0  0  0  0  0  0
   -7.6397    2.2697   -4.3107 C   0  0  0  0  0  0  0  0  0  0  0  0
   -6.2306    1.7166   -4.4952 C   0  0  0  0  0  0  0  0  0  0  0  0
   -5.9852    0.8133   -3.5431 C   0  0  0  0  0  0  0  0  0  0  0  0
   -7.0091    1.1381   -2.4893 C   0  0  0  0  0  0  0  0  0  0  0  0
   -8.2148    1.1490   -3.4695 C   0  0  0  0  0  0  0  0  0  0  0  0
   -6.9080    2.5568   -2.1326 C   0  0  0  0  0  0  0  0  0  0  0  0
    0.4706    5.2290   -3.9553 C   0  0  0  0  0  0  0  0  0  0  0  0
    2.5060    5.6135   -3.6874 Se  0  0  0  0  0  2  0  0  0  0  0  0
    2.6703    3.8246   -2.7916 C   0  0  0  0  0  0  0  0  0  0  0  0
    3.5096    3.0060   -2.1410 C   0  0  0  0  0  0  0  0  0  0  0  0
    4.9037    3.0114   -1.7791 C   0  0  0  0  0  0  0  0  0  0  0  0
    5.2223    1.9327   -1.0653 C   0  0  0  0  0  0  0  0  0  0  0  0
    6.6410    2.1557   -0.6180 N   0  0  0  0  0  0  0  0  0  0  0  0
    7.0460    3.6101   -1.2410 S   0  0  0  0  0  0  0  0  0  0  0  0
    5.5757    3.9851   -2.0341 N   0  0  0  0  0  0  0  0  0  0  0  0
    4.3937    0.9624   -0.7139 C   0  0  0  0  0  0  0  0  0  0  0  0
    4.6352   -0.1829    0.0794 C   0  0  0  0  0  0  0  0  0  0  0  0
    5.8687   -1.2163    0.6921 S   0  0  0  0  0  0  0  0  0  0  0  0
    4.3469   -2.7239    1.2952 C   0  0  0  0  0  0  0  0  0  0  0  0
    5.3815   -3.4870    1.7322 C   0  0  0  0  0  0  0  0  0  0  0  0
    6.4188   -4.2726    2.1824 C   0  0  0  0  0  0  0  0  0  0  0  0
    6.5661   -5.5687    1.4102 C   0  0  0  0  0  0  0  0  0  0  0  0
    4.0137   -4.4034    2.1188 C   0  0  0  0  0  0  0  0  0  0  0  0
    2.7369   -3.5737    1.6035 S   0  0  0  0  0  0  0  0  0  0  0  0
    3.4261   -1.9890    0.8780 C   0  0  0  0  0  0  0  0  0  0  0  0
    3.7747   -0.9056    0.3664 C   0  0  0  0  0  0  0  0  0  0  0  0
    2.5492   -0.1999   -0.4373 N   0  0  0  0  0  0  0  0  0  0  0  0
    3.1164    0.8537   -0.9763 C   0  0  0  0  0  0  0  0  0  0  0  0
    2.5831    1.9184   -1.7470 C   0  0  0  0  0  0  0  0  0  0  0  0
    1.4553    2.1739   -2.1690 N   0  0  0  0  0  0  0  0  0  0  0  0
    1.2881    3.2657   -2.8246 C   0  0  0  0  0  0  0  0  0  0  0  0
    0.6517    4.2623   -3.4519 C   0  0  0  0  0  0  0  0  0  0  0  0
    0.1909    1.3401   -1.9208 C   0  0  0  0  0  0  0  0  0  0  0  0
   -0.2864    1.7198   -0.5875 C   0  0  0  0  0  0  0  0  0  0  0  0
    1.3782   -0.9294   -0.5979 C   0  0  0  0  0  0  0  0  0  0  0  0
    0.4086   -1.0057    0.5316 C   0  0  0  0  0  0  0  0  0  0  0  0
    3.9898   -5.2895    3.3137 C   0  0  0  0  0  0  0  0  0  0  0  0
    2.8248   -5.3277    4.0397 C   0  0  0  0  0  0  0  0  0  0  0  0
    1.6664   -4.5083    3.5823 C   0  0  0  0  0  0  0  0  0  0  0  0
    1.3635   -3.9810    2.5864 O   0  0  0  0  0  0  0  0  0  0  0  0
    0.6756   -4.4321    4.8044 C   0  0  0  0  0  0  0  0  0  0  0  0
    1.2731   -5.1540    5.7426 C   0  0  0  0  0  0  0  0  0  0  0  0
    0.3994   -5.3041    6.9976 C   0  0  0  0  0  0  0  0  0  0  0  0
   -0.7049   -4.6547    6.8333 C   0  0  0  0  0  0  0  0  0  0  0  0
   -1.3423   -3.9261    5.9857 C   0  0  0  0  0  0  0  0  0  0  0  0
   -2.4931   -3.2505    6.0472 C   0  0  0  0  0  0  0  0  0  0  0  0
   -2.9984   -2.4132    5.0560 C   0  0  0  0  0  0  0  0  0  0  0  0
   -2.1931   -2.2901    3.8939 C   0  0  0  0  0  0  0  0  0  0  0  0
   -1.0303   -2.9688    3.8134 C   0  0  0  0  0  0  0  0  0  0  0  0
   -0.4973   -3.7805    4.7252 C   0  0  0  0  0  0  0  0  0  0  0  0
    2.5702   -5.7341    5.3841 C   0  0  0  0  0  0  0  0  0  0  0  0
    3.0647   -6.6729    6.1044 C   0  0  0  0  0  0  0  0  0  0  0  0
    3.9655   -7.7106    5.9548 C   0  0  0  0  0  0  0  0  0  0  0  0
    4.6997   -8.5717    5.8451 N   0  0  0  0  0  0  0  0  0  0  0  0
    2.8950   -6.3123    7.6037 C   0  0  0  0  0  0  0  0  0  0  0  0
    2.7642   -6.0478    8.7951 N   0  0  0  0  0  0  0  0  0  0  0  0
   -0.4730    6.8035   -5.1496 H   0  0  0  0  0  0  0  0  0  0  0  0
   -3.8291    2.9087   -1.4821 H   0  0  0  0  0  0  0  0  0  0  0  0
   -5.9651    5.6455   -4.9087 H   0  0  0  0  0  0  0  0  0  0  0  0
   -8.2803    4.0166   -3.0948 H   0  0  0  0  0  0  0  0  0  0  0  0
   -8.1158    2.4749   -5.2493 H   0  0  0  0  0  0  0  0  0  0  0  0
   -5.5446    2.0333   -5.2734 H   0  0  0  0  0  0  0  0  0  0  0  0
   -5.2646    0.0139   -3.4848 H   0  0  0  0  0  0  0  0  0  0  0  0
   -7.1156    0.3846   -1.7304 H   0  0  0  0  0  0  0  0  0  0  0  0
   -9.1547    1.3411   -2.9842 H   0  0  0  0  0  0  0  0  0  0  0  0
   -8.2026    0.1925   -4.0616 H   0  0  0  0  0  0  0  0  0  0  0  0
   -7.3375    2.8659   -1.1482 H   0  0  0  0  0  0  0  0  0  0  0  0
    6.3230   -4.6016    3.2642 H   0  0  0  0  0  0  0  0  0  0  0  0
    7.4199   -3.7272    2.2302 H   0  0  0  0  0  0  0  0  0  0  0  0
    5.5539   -5.7437    0.9295 H   0  0  0  0  0  0  0  0  0  0  0  0
    6.7817   -6.3714    2.0654 H   0  0  0  0  0  0  0  0  0  0  0  0
    7.3209   -5.5388    0.6043 H   0  0  0  0  0  0  0  0  0  0  0  0
   -0.4433    3.5155   -3.8773 H   0  0  0  0  0  0  0  0  0  0  0  0
    0.2834    0.4163   -2.2892 H   0  0  0  0  0  0  0  0  0  0  0  0
   -0.5336    1.8107   -2.7140 H   0  0  0  0  0  0  0  0  0  0  0  0
   -0.3739    2.8485   -0.4358 H   0  0  0  0  0  0  0  0  0  0  0  0
    0.5763    1.5660    0.1692 H   0  0  0  0  0  0  0  0  0  0  0  0
   -1.2228    1.2946   -0.2245 H   0  0  0  0  0  0  0  0  0  0  0  0
    0.9430   -1.0273   -1.6279 H   0  0  0  0  0  0  0  0  0  0  0  0
    1.6621   -2.1256   -0.6672 H   0  0  0  0  0  0  0  0  0  0  0  0
    0.5353   -0.2886    1.3217 H   0  0  0  0  0  0  0  0  0  0  0  0
    0.4416   -2.0123    1.0650 H   0  0  0  0  0  0  0  0  0  0  0  0
   -0.6184   -1.0209    0.0827 H   0  0  0  0  0  0  0  0  0  0  0  0
    4.8118   -5.8815    3.6095 H   0  0  0  0  0  0  0  0  0  0  0  0
    0.7086   -5.8740    7.7595 H   0  0  0  0  0  0  0  0  0  0  0  0
   -1.4268   -4.8093    7.8236 H   0  0  0  0  0  0  0  0  0  0  0  0
   -3.1495   -3.3170    6.9489 H   0  0  0  0  0  0  0  0  0  0  0  0
   -3.9121   -1.8712    5.1073 H   0  0  0  0  0  0  0  0  0  0  0  0
   -2.5659   -1.6129    3.1224 H   0  0  0  0  0  0  0  0  0  0  0  0
   -0.4822   -2.8033    2.8484 H   0  0  0  0  0  0  0  0  0  0  0  0
  1  2  2  3
  2  3  1  0
  3  4  2  0
  3  5  1  0
  5  6  2  0
  6  7  1  0
  7  8  2  0
  8  9  1  0
  9 10  2  0
 10 11  1  0
 11 12  2  3
 12 13  1  0
 13 14  3  0
 12 15  1  0
 15 16  3  0
  8 17  1  0
 17 18  1  0
 18 19  1  0
 19 20  2  0
 20 21  1  0
 21 22  1  0
 21 23  1  0
  1 24  1  0
 24 25  1  0
 25 26  1  0
 26 27  1  0
 27 28  1  0
 28 29  1  0
 29 30  2  0
 30 31  1  0
 31 32  1  0
 29 33  1  0
 33 34  1  0
 34 35  1  0
 35 36  1  0
 36 37  1  0
 37 38  1  0
 38 39  1  0
 37 40  2  0
 40 41  1  0
 41 42  1  0
 42 43  1  0
 43 44  1  0
 44 45  1  0
 45 46  1  0
 46 47  1  0
 47 48  1  0
 48 49  1  0
 47 50  1  0
 50 51  1  0
 44 52  1  0
 52 53  1  0
 40 54  1  0
 54 55  2  3
 55 56  1  0
 56 57  2  0
 56 58  1  0
 58 59  2  0
 59 60  1  0
 60 61  2  0
 61 62  1  0
 62 63  2  0
 63 64  1  0
 64 65  2  0
 65 66  1  0
 66 67  2  0
 59 68  1  0
 68 69  2  3
 69 70  1  0
 70 71  3  0
 69 72  1  0
 72 73  3  0
 11  2  1  0
 23 17  1  0
 49 24  2  0
 68 55  1  0
 10  5  1  0
 22 18  1  0
 48 26  2  0
 67 58  1  0
 23  7  1  0
 46 27  2  0
 67 62  1  0
 32 28  2  0
 45 33  2  0
 43 34  2  0
 42 36  2  0
  1 74  1  0
  6 75  1  0
  9 76  1  0
 17 77  1  0
 18 78  1  0
 19 79  1  0
 20 80  1  0
 21 81  1  0
 22 82  1  0
 22 83  1  0
 23 84  1  0
 38 85  1  0
 38 86  1  0
 39 87  1  0
 39 88  1  0
 39 89  1  0
 49 90  1  0
 50 91  1  0
 50 92  1  0
 51 93  1  0
 51 94  1  0
 51 95  1  0
 52 96  1  0
 52 97  1  0
 53 98  1  0
 53 99  1  0
 53100  1  0
 54101  1  0
 60102  1  0
 61103  1  0
 63104  1  0
 64105  1  0
 65106  1  0
 66107  1  0
M  END

