
     RDKit          3D

116131  0  0  0  0  0  0  0  0999 V2000
   -3.8163    3.4982   -5.0807 C   0  0  0  0  0  0  0  0  0  0  0  0
   -3.3162    2.5612   -5.9986 C   0  0  0  0  0  0  0  0  0  0  0  0
   -3.1517    1.3561   -6.3428 C   0  0  0  0  0  0  0  0  0  0  0  0
   -4.1117    0.3731   -6.1704 O   0  0  0  0  0  0  0  0  0  0  0  0
   -1.8910    0.9106   -6.9213 C   0  0  0  0  0  0  0  0  0  0  0  0
   -1.3828   -0.2302   -7.4055 C   0  0  0  0  0  0  0  0  0  0  0  0
   -0.1341   -0.3642   -7.9254 C   0  0  0  0  0  0  0  0  0  0  0  0
    0.6835    0.7612   -7.9672 C   0  0  0  0  0  0  0  0  0  0  0  0
    0.1588    1.9947   -7.4739 C   0  0  0  0  0  0  0  0  0  0  0  0
   -1.1096    2.0514   -6.9654 C   0  0  0  0  0  0  0  0  0  0  0  0
   -1.8638    3.2010   -6.3893 C   0  0  0  0  0  0  0  0  0  0  0  0
   -1.4626    4.3033   -6.0811 C   0  0  0  0  0  0  0  0  0  0  0  0
   -2.0313    5.4620   -5.3582 C   0  0  0  0  0  0  0  0  0  0  0  0
   -2.4963    6.3883   -4.7847 N   0  0  0  0  0  0  0  0  0  0  0  0
    0.0438    4.5339   -6.0215 C   0  0  0  0  0  0  0  0  0  0  0  0
    1.1651    4.6883   -5.9682 N   0  0  0  0  0  0  0  0  0  0  0  0
    1.8674    0.0289   -8.4814 C   0  0  0  0  0  0  0  0  0  0  0  0
    2.8389   -0.4086   -7.4554 C   0  0  0  0  0  0  0  0  0  0  0  0
    3.7750   -1.3702   -8.1845 C   0  0  0  0  0  0  0  0  0  0  0  0
    2.9377   -2.3139   -8.6652 C   0  0  0  0  0  0  0  0  0  0  0  0
    1.6156   -2.2033   -7.9420 C   0  0  0  0  0  0  0  0  0  0  0  0
    2.0647   -1.4628   -6.6760 C   0  0  0  0  0  0  0  0  0  0  0  0
    0.8880   -1.1562   -8.5969 C   0  0  0  0  0  0  0  0  0  0  0  0
   -4.4010    2.9330   -3.8792 C   0  0  0  0  0  0  0  0  0  0  0  0
   -5.4247    2.8648   -3.0946 C   0  0  0  0  0  0  0  0  0  0  0  0
   -6.7863    3.3985   -3.5559 C   0  0  0  0  0  0  0  0  0  0  0  0
   -7.4210    2.3508   -4.4638 C   0  0  0  0  0  0  0  0  0  0  0  0
   -5.2509    2.3490   -1.8818 C   0  0  0  0  0  0  0  0  0  0  0  0
   -6.5154    2.0039   -0.2756 Se  0  0  0  0  0  2  0  0  0  0  0  0
   -5.0463    1.3027    0.6736 C   0  0  0  0  0  0  0  0  0  0  0  0
   -4.6171    0.8372    1.8883 C   0  0  0  0  0  0  0  0  0  0  0  0
   -5.4459    0.5207    3.0179 C   0  0  0  0  0  0  0  0  0  0  0  0
   -4.8602   -0.0349    4.0956 C   0  0  0  0  0  0  0  0  0  0  0  0
   -5.5584   -0.3051    5.0833 N   0  0  0  0  0  0  0  0  0  0  0  0
   -7.1867    0.1603    4.6824 S   0  0  0  0  0  0  0  0  0  0  0  0
   -6.6886    0.7054    3.1098 N   0  0  0  0  0  0  0  0  0  0  0  0
   -3.4276   -0.2199    4.0404 C   0  0  0  0  0  0  0  0  0  0  0  0
   -2.6000   -0.5561    5.1020 C   0  0  0  0  0  0  0  0  0  0  0  0
   -2.3831   -1.1018    6.9313 Se  0  0  0  0  0  2  0  0  0  0  0  0
   -0.1806   -0.9174    6.5232 C   0  0  0  0  0  0  0  0  0  0  0  0
    0.6561   -1.2770    7.5687 C   0  0  0  0  0  0  0  0  0  0  0  0
    0.5317   -1.4815    9.0068 C   0  0  0  0  0  0  0  0  0  0  0  0
    0.8872   -2.8996    9.4074 C   0  0  0  0  0  0  0  0  0  0  0  0
    1.8013   -1.5064    6.9472 C   0  0  0  0  0  0  0  0  0  0  0  0
    1.4083   -1.1223    5.2026 S   0  0  0  0  0  0  0  0  0  0  0  0
   -0.6070   -0.7026    5.7660 C   0  0  0  0  0  0  0  0  0  0  0  0
   -1.2269   -0.3522    4.5366 C   0  0  0  0  0  0  0  0  0  0  0  0
   -1.3990    0.0574    3.2937 N   0  0  0  0  0  0  0  0  0  0  0  0
   -2.6817    0.1257    2.9689 C   0  0  0  0  0  0  0  0  0  0  0  0
   -3.2604    0.6403    1.8270 C   0  0  0  0  0  0  0  0  0  0  0  0
   -2.8345    0.9564    0.5955 N   0  0  0  0  0  0  0  0  0  0  0  0
   -3.9031    1.3677   -0.1597 C   0  0  0  0  0  0  0  0  0  0  0  0
   -4.2226    1.9196   -1.4091 C   0  0  0  0  0  0  0  0  0  0  0  0
   -3.1582    2.2055   -2.7970 S   0  0  0  0  0  0  0  0  0  0  0  0
   -1.5694    0.7921    0.0192 C   0  0  0  0  0  0  0  0  0  0  0  0
   -0.6372    1.8855   -0.2327 C   0  0  0  0  0  0  0  0  0  0  0  0
   -0.2531    0.6781    2.6570 C   0  0  0  0  0  0  0  0  0  0  0  0
   -0.3172    2.1795    3.1126 C   0  0  0  0  0  0  0  0  0  0  0  0
    3.1929   -1.9128    7.0403 C   0  0  0  0  0  0  0  0  0  0  0  0
    3.4464   -2.7486    5.8253 C   0  0  0  0  0  0  0  0  0  0  0  0
    2.8436   -3.1524    4.9632 C   0  0  0  0  0  0  0  0  0  0  0  0
    1.4692   -3.4585    4.7106 O   0  0  0  0  0  0  0  0  0  0  0  0
    3.5575   -3.5009    3.6925 C   0  0  0  0  0  0  0  0  0  0  0  0
    3.4879   -4.0062    2.4918 C   0  0  0  0  0  0  0  0  0  0  0  0
    4.3625   -4.3227    1.5086 C   0  0  0  0  0  0  0  0  0  0  0  0
    4.1168   -4.9664    0.4011 C   0  0  0  0  0  0  0  0  0  0  0  0
    5.3033   -5.3927   -0.4107 C   0  0  0  0  0  0  0  0  0  0  0  0
    6.4478   -5.0608    0.0850 C   0  0  0  0  0  0  0  0  0  0  0  0
    7.5785   -5.4939   -0.6931 F   0  0  0  0  0  0  0  0  0  0  0  0
    6.8455   -4.4056    1.1615 C   0  0  0  0  0  0  0  0  0  0  0  0
    5.7564   -3.9813    1.9772 C   0  0  0  0  0  0  0  0  0  0  0  0
    5.8980   -3.4412    3.1733 C   0  0  0  0  0  0  0  0  0  0  0  0
    4.8887   -3.1579    4.0844 C   0  0  0  0  0  0  0  0  0  0  0  0
    5.0110   -2.6296    5.4139 C   0  0  0  0  0  0  0  0  0  0  0  0
    5.6967   -1.9045    6.1678 C   0  0  0  0  0  0  0  0  0  0  0  0
    6.1520   -1.1195    7.1159 C   0  0  0  0  0  0  0  0  0  0  0  0
    6.5658   -0.3782    7.9776 N   0  0  0  0  0  0  0  0  0  0  0  0
    6.5696   -1.3827    5.1123 C   0  0  0  0  0  0  0  0  0  0  0  0
    7.5883   -0.7558    3.9060 N   0  0  0  0  0  0  0  0  0  0  0  0
   -3.8752    4.4836   -5.3583 H   0  0  0  0  0  0  0  0  0  0  0  0
   -2.0644   -1.1101   -7.3539 H   0  0  0  0  0  0  0  0  0  0  0  0
    0.7587    2.8596   -7.5969 H   0  0  0  0  0  0  0  0  0  0  0  0
    2.2370    0.3706   -9.4578 H   0  0  0  0  0  0  0  0  0  0  0  0
    3.3307    0.3096   -6.8426 H   0  0  0  0  0  0  0  0  0  0  0  0
    4.8105   -1.3281   -8.2330 H   0  0  0  0  0  0  0  0  0  0  0  0
    3.1910   -3.0175   -9.4431 H   0  0  0  0  0  0  0  0  0  0  0  0
    1.1527   -3.1800   -7.7613 H   0  0  0  0  0  0  0  0  0  0  0  0
    2.7901   -2.0993   -6.0998 H   0  0  0  0  0  0  0  0  0  0  0  0
    1.2728   -1.0823   -6.0938 H   0  0  0  0  0  0  0  0  0  0  0  0
    0.6016   -1.3492   -9.6709 H   0  0  0  0  0  0  0  0  0  0  0  0
   -6.6402    4.3262   -4.1411 H   0  0  0  0  0  0  0  0  0  0  0  0
   -7.4635    3.5603   -2.7324 H   0  0  0  0  0  0  0  0  0  0  0  0
   -8.3303    1.9261   -3.9327 H   0  0  0  0  0  0  0  0  0  0  0  0
   -7.7414    2.7091   -5.4062 H   0  0  0  0  0  0  0  0  0  0  0  0
   -6.7220    1.4829   -4.6073 H   0  0  0  0  0  0  0  0  0  0  0  0
   -0.4694   -1.3092    9.4526 H   0  0  0  0  0  0  0  0  0  0  0  0
    1.2025   -0.7445    9.5333 H   0  0  0  0  0  0  0  0  0  0  0  0
    0.9381   -3.5436    8.5507 H   0  0  0  0  0  0  0  0  0  0  0  0
    1.9638   -2.8317    9.8207 H   0  0  0  0  0  0  0  0  0  0  0  0
    0.2648   -3.2105   10.2219 H   0  0  0  0  0  0  0  0  0  0  0  0
   -1.8081    0.5077   -1.1104 H   0  0  0  0  0  0  0  0  0  0  0  0
   -1.1244   -0.2248    0.1700 H   0  0  0  0  0  0  0  0  0  0  0  0
   -0.7865    2.5000   -1.2032 H   0  0  0  0  0  0  0  0  0  0  0  0
   -0.5545    2.6520    0.5288 H   0  0  0  0  0  0  0  0  0  0  0  0
    0.4096    1.3979   -0.3429 H   0  0  0  0  0  0  0  0  0  0  0  0
    0.0624    0.6477    1.7158 H   0  0  0  0  0  0  0  0  0  0  0  0
    0.6385    0.3962    3.3815 H   0  0  0  0  0  0  0  0  0  0  0  0
    0.5877    2.7441    2.9073 H   0  0  0  0  0  0  0  0  0  0  0  0
   -0.5039    2.0705    4.2489 H   0  0  0  0  0  0  0  0  0  0  0  0
   -1.1987    2.6892    2.7682 H   0  0  0  0  0  0  0  0  0  0  0  0
    3.8966   -1.8094    7.6837 H   0  0  0  0  0  0  0  0  0  0  0  0
    2.3905   -4.2352    2.1367 H   0  0  0  0  0  0  0  0  0  0  0  0
    3.1467   -5.2185    0.0060 H   0  0  0  0  0  0  0  0  0  0  0  0
    4.9838   -5.8875   -1.2944 H   0  0  0  0  0  0  0  0  0  0  0  0
    7.7974   -4.1527    1.5312 H   0  0  0  0  0  0  0  0  0  0  0  0
    6.9410   -3.2293    3.5280 H   0  0  0  0  0  0  0  0  0  0  0  0
  1  2  2  3
  2  3  1  0
  3  4  2  0
  3  5  1  0
  5  6  2  0
  6  7  1  0
  7  8  2  0
  8  9  1  0
  9 10  2  0
 10 11  1  0
 11 12  2  3
 12 13  1  0
 13 14  3  0
 12 15  1  0
 15 16  3  0
  8 17  1  0
 17 18  1  0
 18 19  1  0
 19 20  2  0
 20 21  1  0
 21 22  1  0
 21 23  1  0
  1 24  1  0
 24 25  2  0
 25 26  1  0
 26 27  1  0
 25 28  1  0
 28 29  1  0
 29 30  1  0
 30 31  1  0
 31 32  1  0
 32 33  1  0
 33 34  2  0
 34 35  1  0
 35 36  1  0
 33 37  1  0
 37 38  1  0
 38 39  1  0
 39 40  1  0
 40 41  1  0
 41 42  1  0
 42 43  1  0
 41 44  2  0
 44 45  1  0
 45 46  1  0
 46 47  1  0
 47 48  1  0
 48 49  1  0
 49 50  1  0
 50 51  1  0
 51 52  1  0
 52 53  1  0
 53 54  1  0
 51 55  1  0
 55 56  1  0
 48 57  1  0
 57 58  1  0
 44 59  1  0
 59 60  2  3
 60 61  1  0
 61 62  2  0
 61 63  1  0
 63 64  2  0
 64 65  1  0
 65 66  2  0
 66 67  1  0
 67 68  2  0
 68 69  1  0
 68 70  1  0
 70 71  2  0
 71 72  1  0
 72 73  2  0
 73 74  1  0
 74 75  2  3
 75 76  1  0
 76 77  3  0
 75 78  1  0
 78 79  3  0
 11  2  1  0
 23 17  1  0
 54 24  1  0
 74 60  1  0
 10  5  1  0
 22 18  1  0
 53 28  2  0
 73 63  1  0
 23  7  1  0
 52 30  2  0
 71 65  1  0
 50 31  2  0
 36 32  2  0
 49 37  2  0
 47 38  2  0
 46 40  2  0
  1 80  1  0
  6 81  1  0
  9 82  1  0
 17 83  1  0
 18 84  1  0
 19 85  1  0
 20 86  1  0
 21 87  1  0
 22 88  1  0
 22 89  1  0
 23 90  1  0
 26 91  1  0
 26 92  1  0
 27 93  1  0
 27 94  1  0
 27 95  1  0
 42 96  1  0
 42 97  1  0
 43 98  1  0
 43 99  1  0
 43100  1  0
 55101  1  0
 55102  1  0
 56103  1  0
 56104  1  0
 56105  1  0
 57106  1  0
 57107  1  0
 58108  1  0
 58109  1  0
 58110  1  0
 59111  1  0
 64112  1  0
 66113  1  0
 67114  1  0
 70115  1  0
 72116  1  0
M  END

