
     RDKit          3D

130146  0  0  0  0  0  0  0  0999 V2000
    2.5512   -4.2582    4.7053 C   0  0  0  0  0  0  0  0  0  0  0  0
    1.6951   -3.2729    5.0701 C   0  0  0  0  0  0  0  0  0  0  0  0
    1.2558   -2.1760    4.1971 C   0  0  0  0  0  0  0  0  0  0  0  0
    1.1606   -2.2135    2.9435 O   0  0  0  0  0  0  0  0  0  0  0  0
    0.8860   -1.0430    5.0037 C   0  0  0  0  0  0  0  0  0  0  0  0
    0.3405    0.1779    4.5357 C   0  0  0  0  0  0  0  0  0  0  0  0
   -0.0762    1.0222    5.5474 C   0  0  0  0  0  0  0  0  0  0  0  0
    0.0555    0.7034    6.9361 C   0  0  0  0  0  0  0  0  0  0  0  0
    0.5931   -0.4874    7.3973 C   0  0  0  0  0  0  0  0  0  0  0  0
    1.0243   -1.3795    6.3714 C   0  0  0  0  0  0  0  0  0  0  0  0
    1.4631   -2.7990    6.4731 C   0  0  0  0  0  0  0  0  0  0  0  0
    1.6138   -3.5267    7.6057 C   0  0  0  0  0  0  0  0  0  0  0  0
    1.8251   -2.9078    8.8869 C   0  0  0  0  0  0  0  0  0  0  0  0
    2.0436   -2.4188    9.9088 N   0  0  0  0  0  0  0  0  0  0  0  0
    1.5470   -4.9668    7.5832 C   0  0  0  0  0  0  0  0  0  0  0  0
    1.4529   -6.1181    7.5520 N   0  0  0  0  0  0  0  0  0  0  0  0
   -0.5889    2.0077    7.3151 C   0  0  0  0  0  0  0  0  0  0  0  0
    0.3257    3.1552    7.8533 C   0  0  0  0  0  0  0  0  0  0  0  0
    1.6997    3.0575    7.2313 C   0  0  0  0  0  0  0  0  0  0  0  0
    1.5545    3.3493    5.9379 C   0  0  0  0  0  0  0  0  0  0  0  0
    0.0867    3.6376    5.7279 C   0  0  0  0  0  0  0  0  0  0  0  0
   -0.2200    4.3177    7.0466 C   0  0  0  0  0  0  0  0  0  0  0  0
   -0.7396    2.3254    5.8949 C   0  0  0  0  0  0  0  0  0  0  0  0
    3.3303   -4.1644    3.4541 C   0  0  0  0  0  0  0  0  0  0  0  0
    4.4392   -3.3207    3.3233 C   0  0  0  0  0  0  0  0  0  0  0  0
    5.0657   -2.6206    4.4588 C   0  0  0  0  0  0  0  0  0  0  0  0
    5.7579   -3.3651    5.4252 C   0  0  0  0  0  0  0  0  0  0  0  0
    6.3085   -2.7296    6.5400 C   0  0  0  0  0  0  0  0  0  0  0  0
    6.1715   -1.3443    6.7018 C   0  0  0  0  0  0  0  0  0  0  0  0
    6.7106   -0.6755    7.9370 C   0  0  0  0  0  0  0  0  0  0  0  0
    5.7093   -0.7972    9.0860 C   0  0  0  0  0  0  0  0  0  0  0  0
    5.4462   -0.6034    5.7536 C   0  0  0  0  0  0  0  0  0  0  0  0
    4.9034   -1.2389    4.6324 C   0  0  0  0  0  0  0  0  0  0  0  0
    4.7151   -3.0449    1.9829 C   0  0  0  0  0  0  0  0  0  0  0  0
    5.5702   -1.7663    1.2689 S   0  0  0  0  0  0  0  0  0  0  0  0
    4.8824   -2.0751   -0.2470 C   0  0  0  0  0  0  0  0  0  0  0  0
    4.4821   -1.2347   -1.2527 C   0  0  0  0  0  0  0  0  0  0  0  0
    4.6710    0.1553   -1.3320 C   0  0  0  0  0  0  0  0  0  0  0  0
    3.7687    0.9354   -2.1114 C   0  0  0  0  0  0  0  0  0  0  0  0
    3.9106    2.2823   -2.0661 N   0  0  0  0  0  0  0  0  0  0  0  0
    5.1914    2.3856   -1.0226 S   0  0  0  0  0  0  0  0  0  0  0  0
    5.5914    0.8372   -0.6048 N   0  0  0  0  0  0  0  0  0  0  0  0
    2.7797    0.2781   -2.8457 C   0  0  0  0  0  0  0  0  0  0  0  0
    1.7199    0.7549   -3.5640 C   0  0  0  0  0  0  0  0  0  0  0  0
    0.8940    2.2177   -3.8048 S   0  0  0  0  0  0  0  0  0  0  0  0
   -0.4053    1.3737   -4.5287 C   0  0  0  0  0  0  0  0  0  0  0  0
   -1.6651    1.7754   -4.9670 C   0  0  0  0  0  0  0  0  0  0  0  0
   -2.1097    3.1788   -4.9952 C   0  0  0  0  0  0  0  0  0  0  0  0
   -2.4291    3.7871   -6.2202 C   0  0  0  0  0  0  0  0  0  0  0  0
   -2.8513    5.1174   -6.2536 C   0  0  0  0  0  0  0  0  0  0  0  0
   -2.9314    5.8656   -5.0686 C   0  0  0  0  0  0  0  0  0  0  0  0
   -3.4040    7.2888   -5.1040 C   0  0  0  0  0  0  0  0  0  0  0  0
   -4.9057    7.3602   -4.8469 C   0  0  0  0  0  0  0  0  0  0  0  0
   -2.6031    5.2539   -3.8463 C   0  0  0  0  0  0  0  0  0  0  0  0
   -2.1934    3.9201   -3.8129 C   0  0  0  0  0  0  0  0  0  0  0  0
   -2.4625    0.6609   -5.3145 C   0  0  0  0  0  0  0  0  0  0  0  0
   -1.5407   -0.7764   -5.1393 S   0  0  0  0  0  0  0  0  0  0  0  0
   -0.1785    0.0256   -4.5833 C   0  0  0  0  0  0  0  0  0  0  0  0
    1.0321   -0.3183   -4.0131 C   0  0  0  0  0  0  0  0  0  0  0  0
    1.5851   -1.4946   -3.6531 N   0  0  0  0  0  0  0  0  0  0  0  0
    2.6284   -1.1248   -2.8319 C   0  0  0  0  0  0  0  0  0  0  0  0
    3.4076   -1.8789   -1.9008 C   0  0  0  0  0  0  0  0  0  0  0  0
    3.0671   -3.0269   -1.2169 N   0  0  0  0  0  0  0  0  0  0  0  0
    3.9836   -3.1069   -0.2140 C   0  0  0  0  0  0  0  0  0  0  0  0
    3.8910   -3.6658    1.0727 C   0  0  0  0  0  0  0  0  0  0  0  0
    2.7197   -4.5456    1.9085 S   0  0  0  0  0  0  0  0  0  0  0  0
    1.7889   -3.7516   -1.2189 C   0  0  0  0  0  0  0  0  0  0  0  0
    0.6523   -2.8769   -0.6858 C   0  0  0  0  0  0  0  0  0  0  0  0
    1.3217   -2.7560   -4.3759 C   0  0  0  0  0  0  0  0  0  0  0  0
    2.6072   -3.5163   -4.7016 C   0  0  0  0  0  0  0  0  0  0  0  0
   -3.8288    0.7659   -5.8734 C   0  0  0  0  0  0  0  0  0  0  0  0
   -4.9036   -0.0062   -5.5877 C   0  0  0  0  0  0  0  0  0  0  0  0
   -4.9614   -1.1354   -4.6361 C   0  0  0  0  0  0  0  0  0  0  0  0
   -4.0085   -1.6227   -3.9674 O   0  0  0  0  0  0  0  0  0  0  0  0
   -6.3222   -1.6394   -4.5954 C   0  0  0  0  0  0  0  0  0  0  0  0
   -6.8537   -2.6319   -3.7714 C   0  0  0  0  0  0  0  0  0  0  0  0
   -8.2352   -2.8748   -3.8237 C   0  0  0  0  0  0  0  0  0  0  0  0
   -9.0635   -2.0833   -4.6452 C   0  0  0  0  0  0  0  0  0  0  0  0
  -11.1565   -2.3673   -4.6147 I   0  0  0  0  0  0  0  0  0  0  0  0
   -8.5058   -1.0864   -5.4558 C   0  0  0  0  0  0  0  0  0  0  0  0
   -7.1054   -0.9164   -5.4703 C   0  0  0  0  0  0  0  0  0  0  0  0
   -6.2835    0.0973   -6.1847 C   0  0  0  0  0  0  0  0  0  0  0  0
   -6.6907    0.8129   -7.2685 C   0  0  0  0  0  0  0  0  0  0  0  0
   -5.9705    1.9379   -7.8069 C   0  0  0  0  0  0  0  0  0  0  0  0
   -5.4099    2.8567   -8.2266 N   0  0  0  0  0  0  0  0  0  0  0  0
   -7.8540    0.4214   -8.0353 C   0  0  0  0  0  0  0  0  0  0  0  0
   -8.7398    0.0535   -8.6840 N   0  0  0  0  0  0  0  0  0  0  0  0
    2.9886   -4.8917    5.4711 H   0  0  0  0  0  0  0  0  0  0  0  0
    0.1987    0.4065    3.4854 H   0  0  0  0  0  0  0  0  0  0  0  0
    0.6050   -0.7076    8.4502 H   0  0  0  0  0  0  0  0  0  0  0  0
   -1.5561    1.8871    7.8511 H   0  0  0  0  0  0  0  0  0  0  0  0
    0.3099    3.2894    8.9548 H   0  0  0  0  0  0  0  0  0  0  0  0
    2.6366    2.8746    7.7379 H   0  0  0  0  0  0  0  0  0  0  0  0
    2.3503    3.4335    5.2024 H   0  0  0  0  0  0  0  0  0  0  0  0
   -0.1464    4.2334    4.8155 H   0  0  0  0  0  0  0  0  0  0  0  0
   -1.3037    4.5053    7.2145 H   0  0  0  0  0  0  0  0  0  0  0  0
    0.3482    5.2620    7.1994 H   0  0  0  0  0  0  0  0  0  0  0  0
   -1.8010    2.3960    5.5625 H   0  0  0  0  0  0  0  0  0  0  0  0
    5.8690   -4.4376    5.3102 H   0  0  0  0  0  0  0  0  0  0  0  0
    6.8412   -3.3221    7.2787 H   0  0  0  0  0  0  0  0  0  0  0  0
    6.9185    0.4007    7.7378 H   0  0  0  0  0  0  0  0  0  0  0  0
    7.6721   -1.1481    8.2407 H   0  0  0  0  0  0  0  0  0  0  0  0
    5.6270   -1.8595    9.4024 H   0  0  0  0  0  0  0  0  0  0  0  0
    4.7082   -0.4289    8.7767 H   0  0  0  0  0  0  0  0  0  0  0  0
    6.0572   -0.1949    9.9508 H   0  0  0  0  0  0  0  0  0  0  0  0
    5.2942    0.4611    5.8850 H   0  0  0  0  0  0  0  0  0  0  0  0
    4.3346   -0.6612    3.9159 H   0  0  0  0  0  0  0  0  0  0  0  0
   -2.3482    3.2360   -7.1504 H   0  0  0  0  0  0  0  0  0  0  0  0
   -3.1165    5.5693   -7.2041 H   0  0  0  0  0  0  0  0  0  0  0  0
   -2.8735    7.8903   -4.3334 H   0  0  0  0  0  0  0  0  0  0  0  0
   -3.1881    7.7546   -6.0934 H   0  0  0  0  0  0  0  0  0  0  0  0
   -5.1552    6.8877   -3.8723 H   0  0  0  0  0  0  0  0  0  0  0  0
   -5.2323    8.4207   -4.8138 H   0  0  0  0  0  0  0  0  0  0  0  0
   -5.4658    6.8366   -5.6561 H   0  0  0  0  0  0  0  0  0  0  0  0
   -2.6706    5.8128   -2.9225 H   0  0  0  0  0  0  0  0  0  0  0  0
   -1.9434    3.4645   -2.8632 H   0  0  0  0  0  0  0  0  0  0  0  0
    1.5698   -4.1653   -2.2068 H   0  0  0  0  0  0  0  0  0  0  0  0
    1.8522   -4.6528   -0.5919 H   0  0  0  0  0  0  0  0  0  0  0  0
    0.9399   -2.4519    0.2996 H   0  0  0  0  0  0  0  0  0  0  0  0
   -0.2578   -3.4950   -0.5493 H   0  0  0  0  0  0  0  0  0  0  0  0
    0.4069   -2.0426   -1.3756 H   0  0  0  0  0  0  0  0  0  0  0  0
    0.5599   -3.3616   -3.8528 H   0  0  0  0  0  0  0  0  0  0  0  0
    0.8780   -2.5136   -5.3602 H   0  0  0  0  0  0  0  0  0  0  0  0
    3.1839   -3.8007   -3.8017 H   0  0  0  0  0  0  0  0  0  0  0  0
    2.3601   -4.4468   -5.2551 H   0  0  0  0  0  0  0  0  0  0  0  0
    3.2609   -2.8824   -5.3376 H   0  0  0  0  0  0  0  0  0  0  0  0
   -3.9680    1.6170   -6.4981 H   0  0  0  0  0  0  0  0  0  0  0  0
   -6.2222   -3.1767   -3.0882 H   0  0  0  0  0  0  0  0  0  0  0  0
   -8.6809   -3.6335   -3.1924 H   0  0  0  0  0  0  0  0  0  0  0  0
   -9.1637   -0.4489   -6.0236 H   0  0  0  0  0  0  0  0  0  0  0  0
  1  2  2  3
  2  3  1  0
  3  4  2  0
  3  5  1  0
  5  6  2  0
  6  7  1  0
  7  8  2  0
  8  9  1  0
  9 10  2  0
 10 11  1  0
 11 12  2  3
 12 13  1  0
 13 14  3  0
 12 15  1  0
 15 16  3  0
  8 17  1  0
 17 18  1  0
 18 19  1  0
 19 20  2  0
 20 21  1  0
 21 22  1  0
 21 23  1  0
  1 24  1  0
 24 25  2  0
 25 26  1  0
 26 27  2  0
 27 28  1  0
 28 29  2  0
 29 30  1  0
 30 31  1  0
 29 32  1  0
 32 33  2  0
 25 34  1  0
 34 35  1  0
 35 36  1  0
 36 37  1  0
 37 38  1  0
 38 39  1  0
 39 40  2  0
 40 41  1  0
 41 42  1  0
 39 43  1  0
 43 44  1  0
 44 45  1  0
 45 46  1  0
 46 47  1  0
 47 48  1  0
 48 49  2  0
 49 50  1  0
 50 51  2  0
 51 52  1  0
 52 53  1  0
 51 54  1  0
 54 55  2  0
 47 56  2  0
 56 57  1  0
 57 58  1  0
 58 59  1  0
 59 60  1  0
 60 61  1  0
 61 62  1  0
 62 63  1  0
 63 64  1  0
 64 65  1  0
 65 66  1  0
 63 67  1  0
 67 68  1  0
 60 69  1  0
 69 70  1  0
 56 71  1  0
 71 72  2  3
 72 73  1  0
 73 74  2  0
 73 75  1  0
 75 76  2  0
 76 77  1  0
 77 78  2  0
 78 79  1  0
 78 80  1  0
 80 81  2  0
 81 82  1  0
 82 83  2  3
 83 84  1  0
 84 85  3  0
 83 86  1  0
 86 87  3  0
 11  2  1  0
 23 17  1  0
 66 24  1  0
 82 72  1  0
 10  5  1  0
 22 18  1  0
 33 26  1  0
 65 34  2  0
 81 75  1  0
 23  7  1  0
 64 36  2  0
 62 37  2  0
 42 38  2  0
 61 43  2  0
 59 44  2  0
 58 46  2  0
 55 48  1  0
  1 88  1  0
  6 89  1  0
  9 90  1  0
 17 91  1  0
 18 92  1  0
 19 93  1  0
 20 94  1  0
 21 95  1  0
 22 96  1  0
 22 97  1  0
 23 98  1  0
 27 99  1  0
 28100  1  0
 30101  1  0
 30102  1  0
 31103  1  0
 31104  1  0
 31105  1  0
 32106  1  0
 33107  1  0
 49108  1  0
 50109  1  0
 52110  1  0
 52111  1  0
 53112  1  0
 53113  1  0
 53114  1  0
 54115  1  0
 55116  1  0
 67117  1  0
 67118  1  0
 68119  1  0
 68120  1  0
 68121  1  0
 69122  1  0
 69123  1  0
 70124  1  0
 70125  1  0
 70126  1  0
 71127  1  0
 76128  1  0
 77129  1  0
 80130  1  0
M  END

