
     RDKit          3D

130146  0  0  0  0  0  0  0  0999 V2000
   -3.6444    4.9283   -3.2432 C   0  0  0  0  0  0  0  0  0  0  0  0
   -2.7480    5.4180   -2.3531 C   0  0  0  0  0  0  0  0  0  0  0  0
   -1.4993    4.7318   -1.9803 C   0  0  0  0  0  0  0  0  0  0  0  0
   -0.9779    3.7463   -2.5697 O   0  0  0  0  0  0  0  0  0  0  0  0
   -0.9267    5.3764   -0.8340 C   0  0  0  0  0  0  0  0  0  0  0  0
    0.2633    4.9960   -0.1787 C   0  0  0  0  0  0  0  0  0  0  0  0
    0.5929    5.8011    0.8889 C   0  0  0  0  0  0  0  0  0  0  0  0
   -0.1901    6.9300    1.2897 C   0  0  0  0  0  0  0  0  0  0  0  0
   -1.3503    7.3179    0.6354 C   0  0  0  0  0  0  0  0  0  0  0  0
   -1.7286    6.4828   -0.4618 C   0  0  0  0  0  0  0  0  0  0  0  0
   -2.8911    6.5860   -1.4049 C   0  0  0  0  0  0  0  0  0  0  0  0
   -3.8904    7.5123   -1.3710 C   0  0  0  0  0  0  0  0  0  0  0  0
   -4.9021    7.6095   -2.3884 C   0  0  0  0  0  0  0  0  0  0  0  0
   -5.7194    7.6645   -3.2036 N   0  0  0  0  0  0  0  0  0  0  0  0
   -4.0680    8.4184   -0.2668 C   0  0  0  0  0  0  0  0  0  0  0  0
   -4.2313    9.1257    0.6392 N   0  0  0  0  0  0  0  0  0  0  0  0
    0.7770    7.2221    2.4022 C   0  0  0  0  0  0  0  0  0  0  0  0
    1.7398    8.4298    2.1973 C   0  0  0  0  0  0  0  0  0  0  0  0
    2.8466    8.2601    3.2129 C   0  0  0  0  0  0  0  0  0  0  0  0
    3.5751    7.2118    2.8113 C   0  0  0  0  0  0  0  0  0  0  0  0
    2.9364    6.7059    1.5415 C   0  0  0  0  0  0  0  0  0  0  0  0
    2.5119    8.0418    0.9480 C   0  0  0  0  0  0  0  0  0  0  0  0
    1.5823    6.0686    1.9782 C   0  0  0  0  0  0  0  0  0  0  0  0
   -3.5372    3.5508   -3.7430 C   0  0  0  0  0  0  0  0  0  0  0  0
   -2.8381    3.1290   -4.8929 C   0  0  0  0  0  0  0  0  0  0  0  0
   -2.4071    4.0242   -5.9822 C   0  0  0  0  0  0  0  0  0  0  0  0
   -1.2958    4.8620   -5.7905 C   0  0  0  0  0  0  0  0  0  0  0  0
   -0.9095    5.7624   -6.7856 C   0  0  0  0  0  0  0  0  0  0  0  0
   -1.6280    5.8372   -7.9782 C   0  0  0  0  0  0  0  0  0  0  0  0
   -2.7372    5.0149   -8.1812 C   0  0  0  0  0  0  0  0  0  0  0  0
   -3.1374    4.0944   -7.1973 C   0  0  0  0  0  0  0  0  0  0  0  0
   -4.3882    3.2764   -7.4273 C   0  0  0  0  0  0  0  0  0  0  0  0
   -5.6218    4.0210   -6.9240 C   0  0  0  0  0  0  0  0  0  0  0  0
   -2.5647    1.7553   -4.8319 C   0  0  0  0  0  0  0  0  0  0  0  0
   -1.4291    0.7655   -5.6342 S   0  0  0  0  0  0  0  0  0  0  0  0
   -1.6611   -0.5014   -4.5194 C   0  0  0  0  0  0  0  0  0  0  0  0
   -0.8671   -1.5036   -4.0158 C   0  0  0  0  0  0  0  0  0  0  0  0
    0.4118   -1.9403   -4.4049 C   0  0  0  0  0  0  0  0  0  0  0  0
    1.1820   -2.7277   -3.4890 C   0  0  0  0  0  0  0  0  0  0  0  0
    2.4278   -3.0888   -3.8796 N   0  0  0  0  0  0  0  0  0  0  0  0
    2.4688   -2.3657   -5.3719 S   0  0  0  0  0  0  0  0  0  0  0  0
    1.0094   -1.6053   -5.5769 N   0  0  0  0  0  0  0  0  0  0  0  0
    0.6215   -3.0636   -2.2528 C   0  0  0  0  0  0  0  0  0  0  0  0
    1.0869   -3.7898   -1.1885 C   0  0  0  0  0  0  0  0  0  0  0  0
    2.4926   -4.5823   -0.6387 S   0  0  0  0  0  0  0  0  0  0  0  0
    1.7219   -4.9908    0.8382 C   0  0  0  0  0  0  0  0  0  0  0  0
    2.1503   -5.5631    2.0384 C   0  0  0  0  0  0  0  0  0  0  0  0
    3.4880   -6.1279    2.2699 C   0  0  0  0  0  0  0  0  0  0  0  0
    4.5029   -5.4027    2.9434 C   0  0  0  0  0  0  0  0  0  0  0  0
    4.3362   -3.9524    3.3251 C   0  0  0  0  0  0  0  0  0  0  0  0
    5.0383   -3.0402    2.3205 C   0  0  0  0  0  0  0  0  0  0  0  0
    5.7343   -6.0287    3.1977 C   0  0  0  0  0  0  0  0  0  0  0  0
    5.9632   -7.3418    2.7893 C   0  0  0  0  0  0  0  0  0  0  0  0
    4.9687   -8.0483    2.1106 C   0  0  0  0  0  0  0  0  0  0  0  0
    3.7344   -7.4456    1.8590 C   0  0  0  0  0  0  0  0  0  0  0  0
    1.1325   -5.5077    3.0125 C   0  0  0  0  0  0  0  0  0  0  0  0
   -0.2653   -4.8138    2.3381 S   0  0  0  0  0  0  0  0  0  0  0  0
    0.4259   -4.5418    0.8528 C   0  0  0  0  0  0  0  0  0  0  0  0
    0.0731   -3.8514   -0.2899 C   0  0  0  0  0  0  0  0  0  0  0  0
   -1.0507   -3.2084   -0.6930 N   0  0  0  0  0  0  0  0  0  0  0  0
   -0.6731   -2.6633   -1.8895 C   0  0  0  0  0  0  0  0  0  0  0  0
   -1.3828   -1.7825   -2.7396 C   0  0  0  0  0  0  0  0  0  0  0  0
   -2.3500   -0.8787   -2.3913 N   0  0  0  0  0  0  0  0  0  0  0  0
   -2.5337   -0.1547   -3.5272 C   0  0  0  0  0  0  0  0  0  0  0  0
   -3.0482    1.1263   -3.7115 C   0  0  0  0  0  0  0  0  0  0  0  0
   -3.8200    2.2293   -2.7222 S   0  0  0  0  0  0  0  0  0  0  0  0
   -2.5735   -0.3372   -1.0424 C   0  0  0  0  0  0  0  0  0  0  0  0
   -1.4371    0.6028   -0.6334 C   0  0  0  0  0  0  0  0  0  0  0  0
   -2.4176   -3.6451   -0.3470 C   0  0  0  0  0  0  0  0  0  0  0  0
   -2.8246   -3.2484    1.0755 C   0  0  0  0  0  0  0  0  0  0  0  0
    1.1707   -6.0781    4.3703 C   0  0  0  0  0  0  0  0  0  0  0  0
    0.6360   -5.4334    5.4327 C   0  0  0  0  0  0  0  0  0  0  0  0
    0.2158   -4.0239    5.4402 C   0  0  0  0  0  0  0  0  0  0  0  0
    0.6271   -3.1137    4.6727 O   0  0  0  0  0  0  0  0  0  0  0  0
   -0.6962   -3.8310    6.5447 C   0  0  0  0  0  0  0  0  0  0  0  0
   -1.4333   -2.6842    6.8461 C   0  0  0  0  0  0  0  0  0  0  0  0
   -2.3289   -2.7305    7.9203 C   0  0  0  0  0  0  0  0  0  0  0  0
   -3.0763   -1.6383    8.2242 F   0  0  0  0  0  0  0  0  0  0  0  0
   -2.4852   -3.9187    8.6664 C   0  0  0  0  0  0  0  0  0  0  0  0
   -3.3819   -3.9592    9.6909 F   0  0  0  0  0  0  0  0  0  0  0  0
   -1.7288   -5.0612    8.3464 C   0  0  0  0  0  0  0  0  0  0  0  0
   -0.8100   -5.0015    7.2766 C   0  0  0  0  0  0  0  0  0  0  0  0
    0.1009   -6.0386    6.7012 C   0  0  0  0  0  0  0  0  0  0  0  0
    0.4546   -7.2240    7.2659 C   0  0  0  0  0  0  0  0  0  0  0  0
   -0.1322   -7.7101    8.4857 C   0  0  0  0  0  0  0  0  0  0  0  0
   -0.5958   -8.1184    9.4664 N   0  0  0  0  0  0  0  0  0  0  0  0
    1.5174   -8.0459    6.7462 C   0  0  0  0  0  0  0  0  0  0  0  0
    2.3762   -8.7178    6.3498 N   0  0  0  0  0  0  0  0  0  0  0  0
   -4.5712    5.4206   -3.4582 H   0  0  0  0  0  0  0  0  0  0  0  0
    0.8744    4.1576   -0.4850 H   0  0  0  0  0  0  0  0  0  0  0  0
   -1.8751    8.1965    0.9570 H   0  0  0  0  0  0  0  0  0  0  0  0
    0.3324    7.1203    3.4197 H   0  0  0  0  0  0  0  0  0  0  0  0
    1.2597    9.4307    2.1852 H   0  0  0  0  0  0  0  0  0  0  0  0
    3.0727    8.9038    4.0562 H   0  0  0  0  0  0  0  0  0  0  0  0
    4.4986    6.8640    3.2655 H   0  0  0  0  0  0  0  0  0  0  0  0
    3.5848    6.0751    0.8980 H   0  0  0  0  0  0  0  0  0  0  0  0
    1.8848    7.9567    0.0295 H   0  0  0  0  0  0  0  0  0  0  0  0
    3.3677    8.7246    0.7311 H   0  0  0  0  0  0  0  0  0  0  0  0
    1.6566    5.2481    2.7278 H   0  0  0  0  0  0  0  0  0  0  0  0
   -0.7284    4.8254   -4.8728 H   0  0  0  0  0  0  0  0  0  0  0  0
   -0.0587    6.4119   -6.6285 H   0  0  0  0  0  0  0  0  0  0  0  0
   -1.3339    6.5433   -8.7469 H   0  0  0  0  0  0  0  0  0  0  0  0
   -3.2959    5.1017   -9.1057 H   0  0  0  0  0  0  0  0  0  0  0  0
   -4.3219    2.2878   -6.9267 H   0  0  0  0  0  0  0  0  0  0  0  0
   -4.5107    3.0687   -8.5146 H   0  0  0  0  0  0  0  0  0  0  0  0
   -5.5189    4.2728   -5.8501 H   0  0  0  0  0  0  0  0  0  0  0  0
   -6.5186    3.3821   -7.0481 H   0  0  0  0  0  0  0  0  0  0  0  0
   -5.7667    4.9579   -7.5043 H   0  0  0  0  0  0  0  0  0  0  0  0
    3.2658   -3.6621    3.3977 H   0  0  0  0  0  0  0  0  0  0  0  0
    4.7785   -3.7847    4.3349 H   0  0  0  0  0  0  0  0  0  0  0  0
    4.8438   -1.9772    2.5759 H   0  0  0  0  0  0  0  0  0  0  0  0
    4.6603   -3.2337    1.2899 H   0  0  0  0  0  0  0  0  0  0  0  0
    6.1389   -3.2164    2.3428 H   0  0  0  0  0  0  0  0  0  0  0  0
    6.5262   -5.4911    3.7062 H   0  0  0  0  0  0  0  0  0  0  0  0
    6.9134   -7.8134    2.9923 H   0  0  0  0  0  0  0  0  0  0  0  0
    5.1527   -9.0672    1.7949 H   0  0  0  0  0  0  0  0  0  0  0  0
    2.9693   -8.0164    1.3494 H   0  0  0  0  0  0  0  0  0  0  0  0
   -3.5527    0.1802   -0.9844 H   0  0  0  0  0  0  0  0  0  0  0  0
   -2.6282   -1.1292   -0.3024 H   0  0  0  0  0  0  0  0  0  0  0  0
   -1.6210    0.9862    0.3871 H   0  0  0  0  0  0  0  0  0  0  0  0
   -0.4695    0.0559   -0.6438 H   0  0  0  0  0  0  0  0  0  0  0  0
   -1.3701    1.4603   -1.3340 H   0  0  0  0  0  0  0  0  0  0  0  0
   -3.1485   -3.2280   -1.0747 H   0  0  0  0  0  0  0  0  0  0  0  0
   -2.4878   -4.7500   -0.4582 H   0  0  0  0  0  0  0  0  0  0  0  0
   -2.8914   -4.1407    1.7222 H   0  0  0  0  0  0  0  0  0  0  0  0
   -2.1025   -2.5295    1.5177 H   0  0  0  0  0  0  0  0  0  0  0  0
   -3.8316   -2.7844    1.0604 H   0  0  0  0  0  0  0  0  0  0  0  0
    1.4740   -7.1090    4.4324 H   0  0  0  0  0  0  0  0  0  0  0  0
   -1.3314   -1.7835    6.2545 H   0  0  0  0  0  0  0  0  0  0  0  0
   -1.9022   -5.9599    8.9175 H   0  0  0  0  0  0  0  0  0  0  0  0
  1  2  2  3
  2  3  1  0
  3  4  2  0
  3  5  1  0
  5  6  2  0
  6  7  1  0
  7  8  2  0
  8  9  1  0
  9 10  2  0
 10 11  1  0
 11 12  2  3
 12 13  1  0
 13 14  3  0
 12 15  1  0
 15 16  3  0
  8 17  1  0
 17 18  1  0
 18 19  1  0
 19 20  2  0
 20 21  1  0
 21 22  1  0
 21 23  1  0
  1 24  1  0
 24 25  2  0
 25 26  1  0
 26 27  2  0
 27 28  1  0
 28 29  2  0
 29 30  1  0
 30 31  2  0
 31 32  1  0
 32 33  1  0
 25 34  1  0
 34 35  1  0
 35 36  1  0
 36 37  1  0
 37 38  1  0
 38 39  1  0
 39 40  2  0
 40 41  1  0
 41 42  1  0
 39 43  1  0
 43 44  1  0
 44 45  1  0
 45 46  1  0
 46 47  1  0
 47 48  1  0
 48 49  2  0
 49 50  1  0
 50 51  1  0
 49 52  1  0
 52 53  2  0
 53 54  1  0
 54 55  2  0
 47 56  2  0
 56 57  1  0
 57 58  1  0
 58 59  1  0
 59 60  1  0
 60 61  1  0
 61 62  1  0
 62 63  1  0
 63 64  1  0
 64 65  1  0
 65 66  1  0
 63 67  1  0
 67 68  1  0
 60 69  1  0
 69 70  1  0
 56 71  1  0
 71 72  2  3
 72 73  1  0
 73 74  2  0
 73 75  1  0
 75 76  2  0
 76 77  1  0
 77 78  1  0
 77 79  2  0
 79 80  1  0
 79 81  1  0
 81 82  2  0
 82 83  1  0
 83 84  2  3
 84 85  1  0
 85 86  3  0
 84 87  1  0
 87 88  3  0
 11  2  1  0
 23 17  1  0
 66 24  1  0
 83 72  1  0
 10  5  1  0
 22 18  1  0
 31 26  1  0
 65 34  2  0
 82 75  1  0
 23  7  1  0
 64 36  2  0
 62 37  2  0
 42 38  2  0
 61 43  2  0
 59 44  2  0
 58 46  2  0
 55 48  1  0
  1 89  1  0
  6 90  1  0
  9 91  1  0
 17 92  1  0
 18 93  1  0
 19 94  1  0
 20 95  1  0
 21 96  1  0
 22 97  1  0
 22 98  1  0
 23 99  1  0
 27100  1  0
 28101  1  0
 29102  1  0
 30103  1  0
 32104  1  0
 32105  1  0
 33106  1  0
 33107  1  0
 33108  1  0
 50109  1  0
 50110  1  0
 51111  1  0
 51112  1  0
 51113  1  0
 52114  1  0
 53115  1  0
 54116  1  0
 55117  1  0
 67118  1  0
 67119  1  0
 68120  1  0
 68121  1  0
 68122  1  0
 69123  1  0
 69124  1  0
 70125  1  0
 70126  1  0
 70127  1  0
 71128  1  0
 76129  1  0
 81130  1  0
M  END

