
     RDKit          3D

139155  0  0  0  0  0  0  0  0999 V2000
    1.3944    7.0049    2.1038 C   0  0  0  0  0  0  0  0  0  0  0  0
    0.1721    7.4959    1.8304 C   0  0  0  0  0  0  0  0  0  0  0  0
   -0.3916    8.6482    2.5340 C   0  0  0  0  0  0  0  0  0  0  0  0
    0.2632    9.5483    3.1264 O   0  0  0  0  0  0  0  0  0  0  0  0
   -1.8358    8.4951    2.5671 C   0  0  0  0  0  0  0  0  0  0  0  0
   -2.7785    9.3160    3.2286 C   0  0  0  0  0  0  0  0  0  0  0  0
   -4.0821    8.8574    3.1341 C   0  0  0  0  0  0  0  0  0  0  0  0
   -4.4375    7.6502    2.4500 C   0  0  0  0  0  0  0  0  0  0  0  0
   -3.5235    6.8392    1.8068 C   0  0  0  0  0  0  0  0  0  0  0  0
   -2.1869    7.3158    1.8571 C   0  0  0  0  0  0  0  0  0  0  0  0
   -0.9691    6.7523    1.2298 C   0  0  0  0  0  0  0  0  0  0  0  0
   -0.9329    6.1178    0.0324 C   0  0  0  0  0  0  0  0  0  0  0  0
    0.2239    6.2065   -0.8240 C   0  0  0  0  0  0  0  0  0  0  0  0
    1.1424    6.2964   -1.5252 N   0  0  0  0  0  0  0  0  0  0  0  0
   -2.1056    5.5447   -0.5770 C   0  0  0  0  0  0  0  0  0  0  0  0
   -3.0424    5.0851   -1.0777 N   0  0  0  0  0  0  0  0  0  0  0  0
   -5.8827    7.8630    2.7833 C   0  0  0  0  0  0  0  0  0  0  0  0
   -6.8232    8.3381    1.6348 C   0  0  0  0  0  0  0  0  0  0  0  0
   -6.0453    9.1722    0.6434 C   0  0  0  0  0  0  0  0  0  0  0  0
   -5.7190   10.3033    1.2706 C   0  0  0  0  0  0  0  0  0  0  0  0
   -6.2851   10.2002    2.6698 C   0  0  0  0  0  0  0  0  0  0  0  0
   -7.5658    9.4493    2.3512 C   0  0  0  0  0  0  0  0  0  0  0  0
   -5.5220    9.1053    3.4748 C   0  0  0  0  0  0  0  0  0  0  0  0
    1.6724    5.5597    2.0707 C   0  0  0  0  0  0  0  0  0  0  0  0
    1.1963    4.6212    3.0062 C   0  0  0  0  0  0  0  0  0  0  0  0
    0.3899    4.9472    4.2334 C   0  0  0  0  0  0  0  0  0  0  0  0
    1.3089    5.2505    5.4114 C   0  0  0  0  0  0  0  0  0  0  0  0
    1.5974    3.3316    2.6610 C   0  0  0  0  0  0  0  0  0  0  0  0
    1.2050    1.7995    3.2842 S   0  0  0  0  0  0  0  0  0  0  0  0
    2.0329    1.0395    2.0124 C   0  0  0  0  0  0  0  0  0  0  0  0
    1.9492   -0.1731    1.3973 C   0  0  0  0  0  0  0  0  0  0  0  0
    1.2455   -1.3189    1.7938 C   0  0  0  0  0  0  0  0  0  0  0  0
    0.7152   -1.4414    3.0354 N   0  0  0  0  0  0  0  0  0  0  0  0
    0.0428   -2.5598    3.4194 C   0  0  0  0  0  0  0  0  0  0  0  0
   -0.4517   -2.5958    4.7973 C   0  0  0  0  0  0  0  0  0  0  0  0
   -1.8762   -1.8796    5.3316 S   0  0  0  0  0  0  0  0  0  0  0  0
   -1.6586   -2.2709    6.9546 C   0  0  0  0  0  0  0  0  0  0  0  0
   -2.6385   -1.9851    8.0499 C   0  0  0  0  0  0  0  0  0  0  0  0
   -3.5341   -3.1929    8.3024 C   0  0  0  0  0  0  0  0  0  0  0  0
   -0.4621   -2.9663    7.0889 C   0  0  0  0  0  0  0  0  0  0  0  0
    0.2274   -3.1342    5.8837 C   0  0  0  0  0  0  0  0  0  0  0  0
   -0.0015   -3.4354    8.2740 F   0  0  0  0  0  0  0  0  0  0  0  0
   -0.1209   -3.6263    2.4919 C   0  0  0  0  0  0  0  0  0  0  0  0
   -0.8169   -4.9085    2.7926 C   0  0  0  0  0  0  0  0  0  0  0  0
   -0.9363   -5.9734    1.8948 C   0  0  0  0  0  0  0  0  0  0  0  0
   -1.6171   -7.0801    2.4175 C   0  0  0  0  0  0  0  0  0  0  0  0
   -1.8401   -8.2119    1.7036 F   0  0  0  0  0  0  0  0  0  0  0  0
   -2.0326   -6.9121    3.7308 C   0  0  0  0  0  0  0  0  0  0  0  0
   -2.8099   -7.8904    4.5545 C   0  0  0  0  0  0  0  0  0  0  0  0
   -4.3078   -7.7154    4.3301 C   0  0  0  0  0  0  0  0  0  0  0  0
   -1.5820   -5.3745    4.2261 S   0  0  0  0  0  0  0  0  0  0  0  0
    0.4035   -3.4776    1.2414 N   0  0  0  0  0  0  0  0  0  0  0  0
    1.0749   -2.3579    0.8694 C   0  0  0  0  0  0  0  0  0  0  0  0
    1.6341   -2.2140   -0.4040 C   0  0  0  0  0  0  0  0  0  0  0  0
    1.6543   -3.0753   -1.4578 C   0  0  0  0  0  0  0  0  0  0  0  0
    1.0561   -4.6056   -1.8806 S   0  0  0  0  0  0  0  0  0  0  0  0
    1.8469   -4.5100   -3.3911 C   0  0  0  0  0  0  0  0  0  0  0  0
    1.8873   -5.3481   -4.5053 C   0  0  0  0  0  0  0  0  0  0  0  0
    1.2176   -6.6915   -4.5837 C   0  0  0  0  0  0  0  0  0  0  0  0
    2.1698   -7.7942   -4.1383 C   0  0  0  0  0  0  0  0  0  0  0  0
    2.6619   -4.7740   -5.5273 C   0  0  0  0  0  0  0  0  0  0  0  0
    3.2759   -3.2614   -5.0308 S   0  0  0  0  0  0  0  0  0  0  0  0
    2.5539   -3.3409   -3.5215 C   0  0  0  0  0  0  0  0  0  0  0  0
    2.4346   -2.5221   -2.4080 C   0  0  0  0  0  0  0  0  0  0  0  0
    2.9607   -1.3276   -2.0388 N   0  0  0  0  0  0  0  0  0  0  0  0
    4.1420   -0.7315   -2.6758 C   0  0  0  0  0  0  0  0  0  0  0  0
    5.3210   -0.6372   -1.7054 C   0  0  0  0  0  0  0  0  0  0  0  0
    2.3976   -1.0967   -0.8005 C   0  0  0  0  0  0  0  0  0  0  0  0
    2.4954    0.0019    0.1109 C   0  0  0  0  0  0  0  0  0  0  0  0
    2.8303    1.3291   -0.0798 N   0  0  0  0  0  0  0  0  0  0  0  0
    2.5516    1.9145    1.1156 C   0  0  0  0  0  0  0  0  0  0  0  0
    2.3228    3.2345    1.5011 C   0  0  0  0  0  0  0  0  0  0  0  0
    2.5671    4.7649    0.8609 S   0  0  0  0  0  0  0  0  0  0  0  0
    3.0417    2.0777   -1.3256 C   0  0  0  0  0  0  0  0  0  0  0  0
    1.8214    1.9988   -2.2414 C   0  0  0  0  0  0  0  0  0  0  0  0
    2.9315   -5.3848   -6.8339 C   0  0  0  0  0  0  0  0  0  0  0  0
    2.3943   -4.9248   -7.9768 C   0  0  0  0  0  0  0  0  0  0  0  0
    1.5538   -3.7258   -8.1095 C   0  0  0  0  0  0  0  0  0  0  0  0
    0.9561   -3.1205   -7.1805 O   0  0  0  0  0  0  0  0  0  0  0  0
    1.5074   -3.3599   -9.5074 C   0  0  0  0  0  0  0  0  0  0  0  0
    0.9295   -2.2289  -10.0840 C   0  0  0  0  0  0  0  0  0  0  0  0
    1.0920   -2.0259  -11.4599 C   0  0  0  0  0  0  0  0  0  0  0  0
    1.8386   -2.9365  -12.2285 C   0  0  0  0  0  0  0  0  0  0  0  0
    2.0241   -2.7082  -13.5507 F   0  0  0  0  0  0  0  0  0  0  0  0
    2.4115   -4.0701  -11.6280 C   0  0  0  0  0  0  0  0  0  0  0  0
    2.2111   -4.2896  -10.2547 C   0  0  0  0  0  0  0  0  0  0  0  0
    2.6988   -5.3835   -9.3671 C   0  0  0  0  0  0  0  0  0  0  0  0
    3.0861   -6.6289   -9.7469 C   0  0  0  0  0  0  0  0  0  0  0  0
    3.2399   -7.7066   -8.8034 C   0  0  0  0  0  0  0  0  0  0  0  0
    3.3599   -8.5825   -8.0563 N   0  0  0  0  0  0  0  0  0  0  0  0
    3.2036   -7.0168  -11.1298 C   0  0  0  0  0  0  0  0  0  0  0  0
    3.2900   -7.3500  -12.2332 N   0  0  0  0  0  0  0  0  0  0  0  0
    2.1046    7.6218    2.6446 H   0  0  0  0  0  0  0  0  0  0  0  0
   -2.5115   10.2178    3.7616 H   0  0  0  0  0  0  0  0  0  0  0  0
   -3.8245    5.9190    1.3342 H   0  0  0  0  0  0  0  0  0  0  0  0
   -6.3115    7.0832    3.4524 H   0  0  0  0  0  0  0  0  0  0  0  0
   -7.4619    7.5484    1.1858 H   0  0  0  0  0  0  0  0  0  0  0  0
   -5.8473    8.9456   -0.3989 H   0  0  0  0  0  0  0  0  0  0  0  0
   -5.2117   11.1536    0.8253 H   0  0  0  0  0  0  0  0  0  0  0  0
   -6.4191   11.1704    3.1918 H   0  0  0  0  0  0  0  0  0  0  0  0
   -8.2602   10.0184    1.6864 H   0  0  0  0  0  0  0  0  0  0  0  0
   -8.1168    9.1027    3.2575 H   0  0  0  0  0  0  0  0  0  0  0  0
   -5.7403    9.0875    4.5657 H   0  0  0  0  0  0  0  0  0  0  0  0
   -0.2654    5.8238    4.0475 H   0  0  0  0  0  0  0  0  0  0  0  0
   -0.2669    4.0887    4.4918 H   0  0  0  0  0  0  0  0  0  0  0  0
    1.9684    4.3814    5.6220 H   0  0  0  0  0  0  0  0  0  0  0  0
    1.9335    6.1421    5.1891 H   0  0  0  0  0  0  0  0  0  0  0  0
    0.6971    5.4582    6.3155 H   0  0  0  0  0  0  0  0  0  0  0  0
   -3.2638   -1.1112    7.7709 H   0  0  0  0  0  0  0  0  0  0  0  0
   -2.0887   -1.7322    8.9831 H   0  0  0  0  0  0  0  0  0  0  0  0
   -4.2542   -2.9583    9.1136 H   0  0  0  0  0  0  0  0  0  0  0  0
   -4.1047   -3.4486    7.3819 H   0  0  0  0  0  0  0  0  0  0  0  0
   -2.9237   -4.0691    8.6109 H   0  0  0  0  0  0  0  0  0  0  0  0
    1.1827   -3.6379    5.8077 H   0  0  0  0  0  0  0  0  0  0  0  0
   -0.5434   -5.9561    0.8860 H   0  0  0  0  0  0  0  0  0  0  0  0
   -2.5786   -7.7336    5.6275 H   0  0  0  0  0  0  0  0  0  0  0  0
   -2.5166   -8.9276    4.2849 H   0  0  0  0  0  0  0  0  0  0  0  0
   -4.6144   -6.6699    4.5535 H   0  0  0  0  0  0  0  0  0  0  0  0
   -4.8680   -8.3990    5.0041 H   0  0  0  0  0  0  0  0  0  0  0  0
   -4.5695   -7.9578    3.2764 H   0  0  0  0  0  0  0  0  0  0  0  0
    0.8875   -6.8884   -5.6273 H   0  0  0  0  0  0  0  0  0  0  0  0
    0.3125   -6.7026   -3.9382 H   0  0  0  0  0  0  0  0  0  0  0  0
    3.0752   -7.8032   -4.7815 H   0  0  0  0  0  0  0  0  0  0  0  0
    2.4705   -7.6380   -3.0804 H   0  0  0  0  0  0  0  0  0  0  0  0
    1.6653   -8.7794   -4.2241 H   0  0  0  0  0  0  0  0  0  0  0  0
    3.8882    0.2195   -3.1727 H   0  0  0  0  0  0  0  0  0  0  0  0
    4.4924   -1.3719   -3.5077 H   0  0  0  0  0  0  0  0  0  0  0  0
    5.0895   -0.0017   -0.8298 H   0  0  0  0  0  0  0  0  0  0  0  0
    6.1990   -0.2024   -2.2287 H   0  0  0  0  0  0  0  0  0  0  0  0
    5.5902   -1.6520   -1.3401 H   0  0  0  0  0  0  0  0  0  0  0  0
    3.9758    1.7736   -1.8123 H   0  0  0  0  0  0  0  0  0  0  0  0
    3.2287    3.1431   -1.1135 H   0  0  0  0  0  0  0  0  0  0  0  0
    0.9345    2.4199   -1.7217 H   0  0  0  0  0  0  0  0  0  0  0  0
    2.0110    2.5890   -3.1627 H   0  0  0  0  0  0  0  0  0  0  0  0
    1.6008    0.9518   -2.5289 H   0  0  0  0  0  0  0  0  0  0  0  0
    3.6355   -6.1995   -6.8390 H   0  0  0  0  0  0  0  0  0  0  0  0
    0.3842   -1.5144   -9.4809 H   0  0  0  0  0  0  0  0  0  0  0  0
    0.6572   -1.1527  -11.9304 H   0  0  0  0  0  0  0  0  0  0  0  0
    3.0179   -4.7253  -12.2346 H   0  0  0  0  0  0  0  0  0  0  0  0
  1  2  2  3
  2  3  1  0
  3  4  2  0
  3  5  1  0
  5  6  2  0
  6  7  1  0
  7  8  2  0
  8  9  1  0
  9 10  2  0
 10 11  1  0
 11 12  2  3
 12 13  1  0
 13 14  3  0
 12 15  1  0
 15 16  3  0
  8 17  1  0
 17 18  1  0
 18 19  1  0
 19 20  2  0
 20 21  1  0
 21 22  1  0
 21 23  1  0
  1 24  1  0
 24 25  2  0
 25 26  1  0
 26 27  1  0
 25 28  1  0
 28 29  1  0
 29 30  1  0
 30 31  1  0
 31 32  2  0
 32 33  1  0
 33 34  2  0
 34 35  1  0
 35 36  1  0
 36 37  1  0
 37 38  1  0
 38 39  1  0
 37 40  2  0
 40 41  1  0
 40 42  1  0
 34 43  1  0
 43 44  1  0
 44 45  2  0
 45 46  1  0
 46 47  1  0
 46 48  2  0
 48 49  1  0
 49 50  1  0
 48 51  1  0
 43 52  2  0
 52 53  1  0
 53 54  2  0
 54 55  1  0
 55 56  1  0
 56 57  1  0
 57 58  1  0
 58 59  1  0
 59 60  1  0
 58 61  2  0
 61 62  1  0
 62 63  1  0
 63 64  1  0
 64 65  1  0
 65 66  1  0
 66 67  1  0
 65 68  1  0
 68 69  2  0
 69 70  1  0
 70 71  1  0
 71 72  1  0
 72 73  1  0
 70 74  1  0
 74 75  1  0
 61 76  1  0
 76 77  2  3
 77 78  1  0
 78 79  2  0
 78 80  1  0
 80 81  2  0
 81 82  1  0
 82 83  2  0
 83 84  1  0
 83 85  1  0
 85 86  2  0
 86 87  1  0
 87 88  2  3
 88 89  1  0
 89 90  3  0
 88 91  1  0
 91 92  3  0
 11  2  1  0
 23 17  1  0
 73 24  1  0
 87 77  1  0
 10  5  1  0
 22 18  1  0
 72 28  2  0
 86 80  1  0
 23  7  1  0
 71 30  2  0
 69 31  1  0
 53 32  1  0
 68 54  1  0
 41 35  2  0
 51 44  1  0
 64 55  2  0
 63 57  2  0
  1 93  1  0
  6 94  1  0
  9 95  1  0
 17 96  1  0
 18 97  1  0
 19 98  1  0
 20 99  1  0
 21100  1  0
 22101  1  0
 22102  1  0
 23103  1  0
 26104  1  0
 26105  1  0
 27106  1  0
 27107  1  0
 27108  1  0
 38109  1  0
 38110  1  0
 39111  1  0
 39112  1  0
 39113  1  0
 41114  1  0
 45115  1  0
 49116  1  0
 49117  1  0
 50118  1  0
 50119  1  0
 50120  1  0
 59121  1  0
 59122  1  0
 60123  1  0
 60124  1  0
 60125  1  0
 66126  1  0
 66127  1  0
 67128  1  0
 67129  1  0
 67130  1  0
 74131  1  0
 74132  1  0
 75133  1  0
 75134  1  0
 75135  1  0
 76136  1  0
 81137  1  0
 82138  1  0
 85139  1  0
M  END

