
     RDKit          3D

108121  0  0  0  0  0  0  0  0999 V2000
    0.6413   -5.9097    0.9536 C   0  0  0  0  0  0  0  0  0  0  0  0
   -0.0861   -5.8594    2.0881 C   0  0  0  0  0  0  0  0  0  0  0  0
   -1.4434   -5.3131    2.1899 C   0  0  0  0  0  0  0  0  0  0  0  0
   -2.2491   -5.1321    1.2375 O   0  0  0  0  0  0  0  0  0  0  0  0
   -1.7536   -5.0847    3.5785 C   0  0  0  0  0  0  0  0  0  0  0  0
   -2.9240   -4.4797    4.0936 C   0  0  0  0  0  0  0  0  0  0  0  0
   -2.9245   -4.3424    5.4671 C   0  0  0  0  0  0  0  0  0  0  0  0
   -1.8448   -4.7846    6.2949 C   0  0  0  0  0  0  0  0  0  0  0  0
   -0.7028   -5.3953    5.7997 C   0  0  0  0  0  0  0  0  0  0  0  0
   -0.6701   -5.5312    4.3810 C   0  0  0  0  0  0  0  0  0  0  0  0
    0.3879   -6.1097    3.4942 C   0  0  0  0  0  0  0  0  0  0  0  0
    1.5327   -6.7424    3.8818 C   0  0  0  0  0  0  0  0  0  0  0  0
    2.3773   -7.4604    2.9613 C   0  0  0  0  0  0  0  0  0  0  0  0
    3.0628   -8.0385    2.2307 N   0  0  0  0  0  0  0  0  0  0  0  0
    1.9914   -6.7705    5.2473 C   0  0  0  0  0  0  0  0  0  0  0  0
    2.3842   -6.7869    6.3380 N   0  0  0  0  0  0  0  0  0  0  0  0
   -2.5632   -4.3053    7.5202 C   0  0  0  0  0  0  0  0  0  0  0  0
   -3.2218   -5.3982    8.4155 C   0  0  0  0  0  0  0  0  0  0  0  0
   -4.1774   -4.6646    9.3260 C   0  0  0  0  0  0  0  0  0  0  0  0
   -5.1841   -4.2418    8.5523 C   0  0  0  0  0  0  0  0  0  0  0  0
   -4.8753   -4.7060    7.1497 C   0  0  0  0  0  0  0  0  0  0  0  0
   -4.2340   -6.0414    7.4833 C   0  0  0  0  0  0  0  0  0  0  0  0
   -3.6684   -3.8469    6.6712 C   0  0  0  0  0  0  0  0  0  0  0  0
    0.2419   -5.2701   -0.3139 C   0  0  0  0  0  0  0  0  0  0  0  0
    0.5246   -5.7719   -1.5990 C   0  0  0  0  0  0  0  0  0  0  0  0
    1.0639   -7.1436   -1.8852 C   0  0  0  0  0  0  0  0  0  0  0  0
   -0.0540   -8.1757   -1.8429 C   0  0  0  0  0  0  0  0  0  0  0  0
    0.2756   -4.8035   -2.5805 C   0  0  0  0  0  0  0  0  0  0  0  0
   -0.1137   -3.5784   -2.1055 C   0  0  0  0  0  0  0  0  0  0  0  0
   -0.1831   -3.6257   -0.4355 S   0  0  0  0  0  0  0  0  0  0  0  0
   -0.1351   -2.5794   -3.0809 C   0  0  0  0  0  0  0  0  0  0  0  0
    0.2257   -3.0662   -4.3006 C   0  0  0  0  0  0  0  0  0  0  0  0
    0.6543   -4.7097   -4.2356 S   0  0  0  0  0  0  0  0  0  0  0  0
    0.6687   -2.0032   -5.0392 C   0  0  0  0  0  0  0  0  0  0  0  0
    1.5362   -1.9867   -6.1414 C   0  0  0  0  0  0  0  0  0  0  0  0
    1.8551   -3.0794   -6.8801 N   0  0  0  0  0  0  0  0  0  0  0  0
    2.9375   -2.4030   -7.9364 S   0  0  0  0  0  0  0  0  0  0  0  0
    3.0661   -0.8035   -7.5207 N   0  0  0  0  0  0  0  0  0  0  0  0
    2.1987   -0.7694   -6.4789 C   0  0  0  0  0  0  0  0  0  0  0  0
    1.9295    0.3715   -5.7220 C   0  0  0  0  0  0  0  0  0  0  0  0
    2.3997    1.6498   -5.8071 C   0  0  0  0  0  0  0  0  0  0  0  0
    3.5304    2.5700   -6.6816 S   0  0  0  0  0  0  0  0  0  0  0  0
    3.0914    3.9658   -5.7969 C   0  0  0  0  0  0  0  0  0  0  0  0
    3.5632    5.2738   -5.7854 C   0  0  0  0  0  0  0  0  0  0  0  0
    2.9114    6.0339   -4.8020 C   0  0  0  0  0  0  0  0  0  0  0  0
    1.7210    5.0808   -4.0179 S   0  0  0  0  0  0  0  0  0  0  0  0
    2.0929    3.7058   -4.8969 C   0  0  0  0  0  0  0  0  0  0  0  0
    1.7120    2.3796   -4.8992 C   0  0  0  0  0  0  0  0  0  0  0  0
    0.7883    1.6622   -4.2117 N   0  0  0  0  0  0  0  0  0  0  0  0
   -0.4143    2.2818   -3.6175 C   0  0  0  0  0  0  0  0  0  0  0  0
   -1.7051    1.5349   -3.9617 C   0  0  0  0  0  0  0  0  0  0  0  0
    0.9990    0.3789   -4.6671 C   0  0  0  0  0  0  0  0  0  0  0  0
    0.4513   -0.8619   -4.2424 C   0  0  0  0  0  0  0  0  0  0  0  0
    0.0268   -1.2328   -2.9909 N   0  0  0  0  0  0  0  0  0  0  0  0
    0.3123   -0.5403   -1.7298 C   0  0  0  0  0  0  0  0  0  0  0  0
    1.7920   -0.6570   -1.3658 C   0  0  0  0  0  0  0  0  0  0  0  0
    3.1138    7.4881   -4.6314 C   0  0  0  0  0  0  0  0  0  0  0  0
    2.8944    8.1811   -3.4892 C   0  0  0  0  0  0  0  0  0  0  0  0
    2.6946    7.5283   -2.1719 C   0  0  0  0  0  0  0  0  0  0  0  0
    3.3033    6.4570   -1.8972 O   0  0  0  0  0  0  0  0  0  0  0  0
    1.8825    8.1790   -1.1691 N   0  0  0  0  0  0  0  0  0  0  0  0
    1.6801    7.5479    0.1448 C   0  0  0  0  0  0  0  0  0  0  0  0
    2.7926    7.9453    1.1111 C   0  0  0  0  0  0  0  0  0  0  0  0
    1.3383    9.4930   -1.4336 C   0  0  0  0  0  0  0  0  0  0  0  0
    0.6979   10.1078   -0.5391 O   0  0  0  0  0  0  0  0  0  0  0  0
    1.4875   10.1336   -2.7902 C   0  0  0  0  0  0  0  0  0  0  0  0
    0.3308    9.7607   -3.6216 C   0  0  0  0  0  0  0  0  0  0  0  0
   -0.5733    9.4645   -4.2765 N   0  0  0  0  0  0  0  0  0  0  0  0
    2.8209    9.7029   -3.4447 C   0  0  0  0  0  0  0  0  0  0  0  0
    3.0507   10.4286   -4.7859 C   0  0  0  0  0  0  0  0  0  0  0  0
    1.6395   -6.2983    0.9536 H   0  0  0  0  0  0  0  0  0  0  0  0
   -3.7361   -4.1304    3.4713 H   0  0  0  0  0  0  0  0  0  0  0  0
    0.0726   -5.7108    6.4747 H   0  0  0  0  0  0  0  0  0  0  0  0
   -2.0265   -3.4941    8.0598 H   0  0  0  0  0  0  0  0  0  0  0  0
   -2.5251   -6.0973    8.9238 H   0  0  0  0  0  0  0  0  0  0  0  0
   -4.1244   -4.5711   10.4064 H   0  0  0  0  0  0  0  0  0  0  0  0
   -6.0857   -3.7456    8.8942 H   0  0  0  0  0  0  0  0  0  0  0  0
   -5.7469   -4.7383    6.4601 H   0  0  0  0  0  0  0  0  0  0  0  0
   -3.7819   -6.5625    6.6098 H   0  0  0  0  0  0  0  0  0  0  0  0
   -4.9278   -6.7452    8.0020 H   0  0  0  0  0  0  0  0  0  0  0  0
   -3.8310   -2.7456    6.6694 H   0  0  0  0  0  0  0  0  0  0  0  0
    1.8462   -7.4107   -1.1445 H   0  0  0  0  0  0  0  0  0  0  0  0
    1.5395   -7.1632   -2.8878 H   0  0  0  0  0  0  0  0  0  0  0  0
   -0.8089   -7.9486   -2.6267 H   0  0  0  0  0  0  0  0  0  0  0  0
    0.3651   -9.1876   -2.0317 H   0  0  0  0  0  0  0  0  0  0  0  0
   -0.5478   -8.1725   -0.8438 H   0  0  0  0  0  0  0  0  0  0  0  0
    4.3323    5.6500   -6.4465 H   0  0  0  0  0  0  0  0  0  0  0  0
   -0.5445    3.3041   -4.0361 H   0  0  0  0  0  0  0  0  0  0  0  0
   -0.2915    2.4318   -2.5259 H   0  0  0  0  0  0  0  0  0  0  0  0
   -1.7737    0.5758   -3.4104 H   0  0  0  0  0  0  0  0  0  0  0  0
   -2.5803    2.1522   -3.6702 H   0  0  0  0  0  0  0  0  0  0  0  0
   -1.7617    1.3455   -5.0546 H   0  0  0  0  0  0  0  0  0  0  0  0
    0.0383    0.5132   -1.7836 H   0  0  0  0  0  0  0  0  0  0  0  0
   -0.3136   -0.9499   -0.9189 H   0  0  0  0  0  0  0  0  0  0  0  0
    2.1115   -1.7213   -1.3414 H   0  0  0  0  0  0  0  0  0  0  0  0
    1.9701   -0.2081   -0.3668 H   0  0  0  0  0  0  0  0  0  0  0  0
    2.4091   -0.1160   -2.1151 H   0  0  0  0  0  0  0  0  0  0  0  0
    3.4075    8.0036   -5.5349 H   0  0  0  0  0  0  0  0  0  0  0  0
    1.6511    6.4437    0.0410 H   0  0  0  0  0  0  0  0  0  0  0  0
    0.6987    7.8475    0.5704 H   0  0  0  0  0  0  0  0  0  0  0  0
    2.5946    7.5054    2.1126 H   0  0  0  0  0  0  0  0  0  0  0  0
    2.8373    9.0493    1.2113 H   0  0  0  0  0  0  0  0  0  0  0  0
    3.7725    7.5741    0.7461 H   0  0  0  0  0  0  0  0  0  0  0  0
    1.4925   11.2402   -2.6673 H   0  0  0  0  0  0  0  0  0  0  0  0
    3.6438   10.0408   -2.7754 H   0  0  0  0  0  0  0  0  0  0  0  0
    4.0719   10.2142   -5.1654 H   0  0  0  0  0  0  0  0  0  0  0  0
    2.9671   11.5254   -4.6421 H   0  0  0  0  0  0  0  0  0  0  0  0
    2.3047   10.1215   -5.5483 H   0  0  0  0  0  0  0  0  0  0  0  0
  1  2  2  3
  2  3  1  0
  3  4  2  0
  3  5  1  0
  5  6  2  0
  6  7  1  0
  7  8  2  0
  8  9  1  0
  9 10  2  0
 10 11  1  0
 11 12  2  3
 12 13  1  0
 13 14  3  0
 12 15  1  0
 15 16  3  0
  8 17  1  0
 17 18  1  0
 18 19  1  0
 19 20  2  0
 20 21  1  0
 21 22  1  0
 21 23  1  0
  1 24  1  0
 24 25  2  0
 25 26  1  0
 26 27  1  0
 25 28  1  0
 28 29  2  0
 29 30  1  0
 29 31  1  0
 31 32  2  0
 32 33  1  0
 32 34  1  0
 34 35  1  0
 35 36  2  0
 36 37  1  0
 37 38  1  0
 38 39  2  0
 39 40  1  0
 40 41  1  0
 41 42  1  0
 42 43  1  0
 43 44  1  0
 44 45  2  0
 45 46  1  0
 46 47  1  0
 47 48  1  0
 48 49  1  0
 49 50  1  0
 50 51  1  0
 49 52  1  0
 52 53  1  0
 53 54  1  0
 54 55  1  0
 55 56  1  0
 45 57  1  0
 57 58  2  3
 58 59  1  0
 59 60  2  0
 59 61  1  0
 61 62  1  0
 62 63  1  0
 61 64  1  0
 64 65  2  0
 64 66  1  0
 66 67  1  0
 67 68  3  0
 66 69  1  0
 69 70  1  0
 11  2  1  0
 23 17  1  0
 30 24  1  0
 54 31  1  0
 69 58  1  0
 10  5  1  0
 22 18  1  0
 33 28  1  0
 53 34  2  0
 23  7  1  0
 39 35  1  0
 52 40  2  0
 48 41  2  0
 47 43  2  0
  1 71  1  0
  6 72  1  0
  9 73  1  0
 17 74  1  0
 18 75  1  0
 19 76  1  0
 20 77  1  0
 21 78  1  0
 22 79  1  0
 22 80  1  0
 23 81  1  0
 26 82  1  0
 26 83  1  0
 27 84  1  0
 27 85  1  0
 27 86  1  0
 44 87  1  0
 50 88  1  0
 50 89  1  0
 51 90  1  0
 51 91  1  0
 51 92  1  0
 55 93  1  0
 55 94  1  0
 56 95  1  0
 56 96  1  0
 56 97  1  0
 57 98  1  0
 62 99  1  0
 62100  1  0
 63101  1  0
 63102  1  0
 63103  1  0
 66104  1  0
 69105  1  0
 70106  1  0
 70107  1  0
 70108  1  0
M  END

