
     RDKit          3D

188208  0  0  0  0  0  0  0  0999 V2000
    4.2714   -6.6416    1.3540 C   0  0  0  0  0  0  0  0  0  0  0  0
    3.3994   -6.3072    2.3262 C   0  0  0  0  0  0  0  0  0  0  0  0
    2.7365   -5.0002    2.4584 C   0  0  0  0  0  0  0  0  0  0  0  0
    2.5611   -4.1523    1.5470 O   0  0  0  0  0  0  0  0  0  0  0  0
    2.3156   -4.8305    3.8276 C   0  0  0  0  0  0  0  0  0  0  0  0
    1.8821   -3.6299    4.4299 C   0  0  0  0  0  0  0  0  0  0  0  0
    1.7709   -3.7033    5.8022 C   0  0  0  0  0  0  0  0  0  0  0  0
    2.0538   -4.8908    6.5502 C   0  0  0  0  0  0  0  0  0  0  0  0
    2.4615   -6.0789    5.9642 C   0  0  0  0  0  0  0  0  0  0  0  0
    2.5881   -6.0241    4.5465 C   0  0  0  0  0  0  0  0  0  0  0  0
    3.1510   -7.0395    3.6083 C   0  0  0  0  0  0  0  0  0  0  0  0
    3.2408   -8.3814    3.8209 C   0  0  0  0  0  0  0  0  0  0  0  0
    2.8504   -8.9936    5.0665 C   0  0  0  0  0  0  0  0  0  0  0  0
    2.5519   -9.4881    6.0704 N   0  0  0  0  0  0  0  0  0  0  0  0
    3.6806   -9.2992    2.8002 C   0  0  0  0  0  0  0  0  0  0  0  0
    4.0642  -10.0212    1.9808 N   0  0  0  0  0  0  0  0  0  0  0  0
    1.8116   -4.1564    7.8380 C   0  0  0  0  0  0  0  0  0  0  0  0
    3.0728   -3.7713    8.6620 C   0  0  0  0  0  0  0  0  0  0  0  0
    2.6169   -2.7316    9.6560 C   0  0  0  0  0  0  0  0  0  0  0  0
    2.3580   -1.6240    8.9516 C   0  0  0  0  0  0  0  0  0  0  0  0
    2.6441   -1.9551    7.5088 C   0  0  0  0  0  0  0  0  0  0  0  0
    3.8434   -2.8673    7.7097 C   0  0  0  0  0  0  0  0  0  0  0  0
    1.5240   -2.9418    7.0675 C   0  0  0  0  0  0  0  0  0  0  0  0
    4.6208   -5.7294    0.2608 C   0  0  0  0  0  0  0  0  0  0  0  0
    5.4431   -4.2597    0.4705 S   0  0  0  0  0  0  0  0  0  0  0  0
    5.2148   -3.7525   -1.1130 C   0  0  0  0  0  0  0  0  0  0  0  0
    4.9423   -2.4465   -1.6468 C   0  0  0  0  0  0  0  0  0  0  0  0
    3.9621   -2.5854   -2.6103 C   0  0  0  0  0  0  0  0  0  0  0  0
    3.7189   -4.0411   -2.9789 C   0  0  0  0  0  0  0  0  0  0  0  0
    4.4244   -4.6610   -1.7779 C   0  0  0  0  0  0  0  0  0  0  0  0
    4.1007   -5.8008   -1.0304 C   0  0  0  0  0  0  0  0  0  0  0  0
    2.2203   -4.3671   -3.0475 C   0  0  0  0  0  0  0  0  0  0  0  0
    1.5971   -4.7190   -4.2609 C   0  0  0  0  0  0  0  0  0  0  0  0
    0.2305   -5.0135   -4.3082 C   0  0  0  0  0  0  0  0  0  0  0  0
   -0.5521   -4.9388   -3.1499 C   0  0  0  0  0  0  0  0  0  0  0  0
   -2.0307   -5.2240   -3.2153 C   0  0  0  0  0  0  0  0  0  0  0  0
   -2.8034   -3.9755   -3.6161 C   0  0  0  0  0  0  0  0  0  0  0  0
    0.0440   -4.5383   -1.9438 C   0  0  0  0  0  0  0  0  0  0  0  0
    1.4136   -4.2612   -1.8936 C   0  0  0  0  0  0  0  0  0  0  0  0
    4.5027   -4.4431   -4.2358 C   0  0  0  0  0  0  0  0  0  0  0  0
    4.6857   -5.8075   -4.5305 C   0  0  0  0  0  0  0  0  0  0  0  0
    5.4322   -6.2052   -5.6433 C   0  0  0  0  0  0  0  0  0  0  0  0
    6.0239   -5.2436   -6.4775 C   0  0  0  0  0  0  0  0  0  0  0  0
    6.9117   -5.6684   -7.6166 C   0  0  0  0  0  0  0  0  0  0  0  0
    8.3563   -5.8329   -7.1548 C   0  0  0  0  0  0  0  0  0  0  0  0
    5.8383   -3.8853   -6.2001 C   0  0  0  0  0  0  0  0  0  0  0  0
    5.0639   -3.4863   -5.1115 C   0  0  0  0  0  0  0  0  0  0  0  0
    3.2178   -1.4193   -2.7442 C   0  0  0  0  0  0  0  0  0  0  0  0
    1.6614   -1.0802   -3.3434 S   0  0  0  0  0  0  0  0  0  0  0  0
    1.6725    0.4563   -2.6069 C   0  0  0  0  0  0  0  0  0  0  0  0
    0.7314    1.5170   -2.3479 C   0  0  0  0  0  0  0  0  0  0  0  0
   -0.6581    1.5710   -2.5371 C   0  0  0  0  0  0  0  0  0  0  0  0
   -1.3235    2.7090   -2.0399 C   0  0  0  0  0  0  0  0  0  0  0  0
   -2.8211    2.8947   -1.7814 C   0  0  0  0  0  0  0  0  0  0  0  0
   -3.2135    1.9206   -0.6589 C   0  0  0  0  0  0  0  0  0  0  0  0
   -3.5352    0.5825   -0.9706 C   0  0  0  0  0  0  0  0  0  0  0  0
   -3.8281   -0.3401    0.0373 C   0  0  0  0  0  0  0  0  0  0  0  0
   -3.7787    0.0405    1.3845 C   0  0  0  0  0  0  0  0  0  0  0  0
   -4.1330   -0.9445    2.4704 C   0  0  0  0  0  0  0  0  0  0  0  0
   -5.5537   -0.7177    2.9736 C   0  0  0  0  0  0  0  0  0  0  0  0
   -3.4388    1.3583    1.7129 C   0  0  0  0  0  0  0  0  0  0  0  0
   -3.1501    2.2845    0.7081 C   0  0  0  0  0  0  0  0  0  0  0  0
   -3.7400    2.7779   -3.0007 C   0  0  0  0  0  0  0  0  0  0  0  0
   -3.2556    2.7091   -4.3220 C   0  0  0  0  0  0  0  0  0  0  0  0
   -4.1469    2.5869   -5.3996 C   0  0  0  0  0  0  0  0  0  0  0  0
   -5.5349    2.5588   -5.1759 C   0  0  0  0  0  0  0  0  0  0  0  0
   -6.5040    2.4051   -6.3191 C   0  0  0  0  0  0  0  0  0  0  0  0
   -7.1141    1.0053   -6.3450 C   0  0  0  0  0  0  0  0  0  0  0  0
   -6.0184    2.6681   -3.8654 C   0  0  0  0  0  0  0  0  0  0  0  0
   -5.1340    2.7720   -2.7951 C   0  0  0  0  0  0  0  0  0  0  0  0
   -2.7927    4.3312   -1.3037 C   0  0  0  0  0  0  0  0  0  0  0  0
   -1.5326    4.7570   -1.0581 C   0  0  0  0  0  0  0  0  0  0  0  0
   -0.5887    3.7553   -1.4678 C   0  0  0  0  0  0  0  0  0  0  0  0
    0.7739    3.6619   -1.1900 C   0  0  0  0  0  0  0  0  0  0  0  0
    1.4119    2.4778   -1.5829 C   0  0  0  0  0  0  0  0  0  0  0  0
    2.7625    1.9544   -1.0945 C   0  0  0  0  0  0  0  0  0  0  0  0
    3.9520    2.8262   -1.4952 C   0  0  0  0  0  0  0  0  0  0  0  0
    5.1904    2.6837   -0.8369 C   0  0  0  0  0  0  0  0  0  0  0  0
    6.3273    3.3513   -1.2985 C   0  0  0  0  0  0  0  0  0  0  0  0
    6.2651    4.1369   -2.4559 C   0  0  0  0  0  0  0  0  0  0  0  0
    7.4962    4.8270   -2.9833 C   0  0  0  0  0  0  0  0  0  0  0  0
    7.5081    6.2990   -2.5824 C   0  0  0  0  0  0  0  0  0  0  0  0
    5.0405    4.2748   -3.1296 C   0  0  0  0  0  0  0  0  0  0  0  0
    3.8999    3.6227   -2.6610 C   0  0  0  0  0  0  0  0  0  0  0  0
    2.6311    1.6856    0.4129 C   0  0  0  0  0  0  0  0  0  0  0  0
    2.8146    2.7342    1.3396 C   0  0  0  0  0  0  0  0  0  0  0  0
    2.5235    2.5537    2.6974 C   0  0  0  0  0  0  0  0  0  0  0  0
    2.0441    1.3190    3.1622 C   0  0  0  0  0  0  0  0  0  0  0  0
    1.6468    1.1328    4.6050 C   0  0  0  0  0  0  0  0  0  0  0  0
    0.1427    1.3303    4.7876 C   0  0  0  0  0  0  0  0  0  0  0  0
    1.8472    0.2761    2.2493 C   0  0  0  0  0  0  0  0  0  0  0  0
    2.1189    0.4593    0.8957 C   0  0  0  0  0  0  0  0  0  0  0  0
    2.8219    0.6895   -1.9076 C   0  0  0  0  0  0  0  0  0  0  0  0
    3.6802   -0.3962   -1.9508 C   0  0  0  0  0  0  0  0  0  0  0  0
    4.9180   -0.9108   -0.9240 S   0  0  0  0  0  0  0  0  0  0  0  0
   -1.4923    6.3724   -0.6285 S   0  0  0  0  0  0  0  0  0  0  0  0
   -3.1890    6.5168   -0.6736 C   0  0  0  0  0  0  0  0  0  0  0  0
   -3.7673    5.3064   -1.0928 C   0  0  0  0  0  0  0  0  0  0  0  0
   -3.9074    7.7897   -0.5133 C   0  0  0  0  0  0  0  0  0  0  0  0
   -5.1122    7.9175    0.0772 C   0  0  0  0  0  0  0  0  0  0  0  0
   -5.7099    6.9472    1.0055 C   0  0  0  0  0  0  0  0  0  0  0  0
   -5.3069    5.7773    1.2390 O   0  0  0  0  0  0  0  0  0  0  0  0
   -6.7862    7.5997    1.7188 C   0  0  0  0  0  0  0  0  0  0  0  0
   -7.6118    7.0553    2.7037 C   0  0  0  0  0  0  0  0  0  0  0  0
   -8.5984    7.8666    3.2786 C   0  0  0  0  0  0  0  0  0  0  0  0
   -9.6398    7.1932    4.5225 Cl  0  0  0  0  0  0  0  0  0  0  0  0
   -8.7517    9.2032    2.8460 C   0  0  0  0  0  0  0  0  0  0  0  0
  -10.0080   10.2339    3.5168 Cl  0  0  0  0  0  0  0  0  0  0  0  0
   -7.9040    9.7254    1.8529 C   0  0  0  0  0  0  0  0  0  0  0  0
   -6.8999    8.9118    1.2968 C   0  0  0  0  0  0  0  0  0  0  0  0
   -5.9022    9.1805    0.2188 C   0  0  0  0  0  0  0  0  0  0  0  0
   -5.8058   10.2970   -0.5553 C   0  0  0  0  0  0  0  0  0  0  0  0
   -5.0274   10.3329   -1.7671 C   0  0  0  0  0  0  0  0  0  0  0  0
   -4.4018   10.3674   -2.7399 N   0  0  0  0  0  0  0  0  0  0  0  0
   -6.5044   11.5162   -0.2498 C   0  0  0  0  0  0  0  0  0  0  0  0
   -7.0478   12.5141   -0.0116 N   0  0  0  0  0  0  0  0  0  0  0  0
    4.8231   -7.5660    1.3812 H   0  0  0  0  0  0  0  0  0  0  0  0
    1.7402   -2.7083    3.8874 H   0  0  0  0  0  0  0  0  0  0  0  0
    2.7542   -6.9198    6.5682 H   0  0  0  0  0  0  0  0  0  0  0  0
    0.9514   -4.5524    8.4264 H   0  0  0  0  0  0  0  0  0  0  0  0
    3.6461   -4.6216    9.0946 H   0  0  0  0  0  0  0  0  0  0  0  0
    2.5912   -2.8221   10.7386 H   0  0  0  0  0  0  0  0  0  0  0  0
    2.0800   -0.6582    9.3667 H   0  0  0  0  0  0  0  0  0  0  0  0
    2.8069   -1.0838    6.8467 H   0  0  0  0  0  0  0  0  0  0  0  0
    4.1958   -3.3739    6.7826 H   0  0  0  0  0  0  0  0  0  0  0  0
    4.7150   -2.3572    8.1927 H   0  0  0  0  0  0  0  0  0  0  0  0
    0.4799   -2.5612    7.1620 H   0  0  0  0  0  0  0  0  0  0  0  0
    3.4020   -6.5594   -1.3519 H   0  0  0  0  0  0  0  0  0  0  0  0
    2.1491   -4.7665   -5.1901 H   0  0  0  0  0  0  0  0  0  0  0  0
   -0.2163   -5.2956   -5.2543 H   0  0  0  0  0  0  0  0  0  0  0  0
   -2.2273   -6.0315   -3.9591 H   0  0  0  0  0  0  0  0  0  0  0  0
   -2.3961   -5.5851   -2.2277 H   0  0  0  0  0  0  0  0  0  0  0  0
   -2.4859   -3.6331   -4.6281 H   0  0  0  0  0  0  0  0  0  0  0  0
   -2.6339   -3.1571   -2.8792 H   0  0  0  0  0  0  0  0  0  0  0  0
   -3.8909   -4.2016   -3.6443 H   0  0  0  0  0  0  0  0  0  0  0  0
   -0.5502   -4.4490   -1.0466 H   0  0  0  0  0  0  0  0  0  0  0  0
    1.8431   -3.9439   -0.9559 H   0  0  0  0  0  0  0  0  0  0  0  0
    4.2443   -6.5716   -3.8961 H   0  0  0  0  0  0  0  0  0  0  0  0
    5.5698   -7.2623   -5.8445 H   0  0  0  0  0  0  0  0  0  0  0  0
    6.8776   -4.9158   -8.4323 H   0  0  0  0  0  0  0  0  0  0  0  0
    6.5515   -6.6279   -8.0420 H   0  0  0  0  0  0  0  0  0  0  0  0
    8.4263   -6.6356   -6.3910 H   0  0  0  0  0  0  0  0  0  0  0  0
    8.7400   -4.8823   -6.7243 H   0  0  0  0  0  0  0  0  0  0  0  0
    8.9944   -6.1115   -8.0232 H   0  0  0  0  0  0  0  0  0  0  0  0
    6.2978   -3.1301   -6.8261 H   0  0  0  0  0  0  0  0  0  0  0  0
    4.9346   -2.4272   -4.9429 H   0  0  0  0  0  0  0  0  0  0  0  0
   -1.1996    0.7347   -2.9633 H   0  0  0  0  0  0  0  0  0  0  0  0
   -3.5590    0.2463   -2.0005 H   0  0  0  0  0  0  0  0  0  0  0  0
   -4.0795   -1.3602   -0.2345 H   0  0  0  0  0  0  0  0  0  0  0  0
   -4.0448   -1.9832    2.0920 H   0  0  0  0  0  0  0  0  0  0  0  0
   -3.4231   -0.8394    3.3196 H   0  0  0  0  0  0  0  0  0  0  0  0
   -5.7972   -1.4736    3.7496 H   0  0  0  0  0  0  0  0  0  0  0  0
   -5.6448    0.2910    3.4226 H   0  0  0  0  0  0  0  0  0  0  0  0
   -6.2769   -0.8158    2.1356 H   0  0  0  0  0  0  0  0  0  0  0  0
   -3.3908    1.6717    2.7500 H   0  0  0  0  0  0  0  0  0  0  0  0
   -2.8698    3.2824    1.0170 H   0  0  0  0  0  0  0  0  0  0  0  0
   -2.1982    2.7491   -4.5307 H   0  0  0  0  0  0  0  0  0  0  0  0
   -3.7515    2.5117   -6.4052 H   0  0  0  0  0  0  0  0  0  0  0  0
   -7.3208    3.1497   -6.2101 H   0  0  0  0  0  0  0  0  0  0  0  0
   -6.0053    2.6024   -7.2935 H   0  0  0  0  0  0  0  0  0  0  0  0
   -6.3190    0.2347   -6.4504 H   0  0  0  0  0  0  0  0  0  0  0  0
   -7.6857    0.8205   -5.4088 H   0  0  0  0  0  0  0  0  0  0  0  0
   -7.8119    0.9171   -7.2051 H   0  0  0  0  0  0  0  0  0  0  0  0
   -7.0852    2.6575   -3.6724 H   0  0  0  0  0  0  0  0  0  0  0  0
   -5.5416    2.8448   -1.7957 H   0  0  0  0  0  0  0  0  0  0  0  0
    1.2840    4.4147   -0.6043 H   0  0  0  0  0  0  0  0  0  0  0  0
    5.2874    2.0340    0.0212 H   0  0  0  0  0  0  0  0  0  0  0  0
    7.2617    3.2311   -0.7684 H   0  0  0  0  0  0  0  0  0  0  0  0
    8.4133    4.3349   -2.5941 H   0  0  0  0  0  0  0  0  0  0  0  0
    7.5224    4.7461   -4.0906 H   0  0  0  0  0  0  0  0  0  0  0  0
    6.6216    6.8199   -3.0055 H   0  0  0  0  0  0  0  0  0  0  0  0
    8.4272    6.7854   -2.9730 H   0  0  0  0  0  0  0  0  0  0  0  0
    7.4933    6.3951   -1.4742 H   0  0  0  0  0  0  0  0  0  0  0  0
    4.9777    4.8720   -4.0317 H   0  0  0  0  0  0  0  0  0  0  0  0
    2.9894    3.7118   -3.2388 H   0  0  0  0  0  0  0  0  0  0  0  0
    3.1525    3.7079    1.0059 H   0  0  0  0  0  0  0  0  0  0  0  0
    2.6473    3.3893    3.3762 H   0  0  0  0  0  0  0  0  0  0  0  0
    1.9188    0.1069    4.9262 H   0  0  0  0  0  0  0  0  0  0  0  0
    2.1890    1.8449    5.2566 H   0  0  0  0  0  0  0  0  0  0  0  0
   -0.4250    0.7559    4.0219 H   0  0  0  0  0  0  0  0  0  0  0  0
   -0.1547    0.9614    5.7904 H   0  0  0  0  0  0  0  0  0  0  0  0
   -0.1136    2.4080    4.7061 H   0  0  0  0  0  0  0  0  0  0  0  0
    1.4412   -0.6683    2.5829 H   0  0  0  0  0  0  0  0  0  0  0  0
    1.8804   -0.3564    0.2264 H   0  0  0  0  0  0  0  0  0  0  0  0
   -4.8249    5.1619   -1.2794 H   0  0  0  0  0  0  0  0  0  0  0  0
   -3.3779    8.6651   -0.8474 H   0  0  0  0  0  0  0  0  0  0  0  0
   -7.4856    6.0269    3.0187 H   0  0  0  0  0  0  0  0  0  0  0  0
   -8.0554   10.7435    1.5471 H   0  0  0  0  0  0  0  0  0  0  0  0
  1  2  2  3
  2  3  1  0
  3  4  2  0
  3  5  1  0
  5  6  2  0
  6  7  1  0
  7  8  2  0
  8  9  1  0
  9 10  2  0
 10 11  1  0
 11 12  2  3
 12 13  1  0
 13 14  3  0
 12 15  1  0
 15 16  3  0
  8 17  1  0
 17 18  1  0
 18 19  1  0
 19 20  2  0
 20 21  1  0
 21 22  1  0
 21 23  1  0
  1 24  1  0
 24 25  1  0
 25 26  1  0
 26 27  1  0
 27 28  2  0
 28 29  1  0
 29 30  1  0
 30 31  1  0
 29 32  1  0
 32 33  2  0
 33 34  1  0
 34 35  2  0
 35 36  1  0
 36 37  1  0
 35 38  1  0
 38 39  2  0
 29 40  1  0
 40 41  2  0
 41 42  1  0
 42 43  2  0
 43 44  1  0
 44 45  1  0
 43 46  1  0
 46 47  2  0
 28 48  1  0
 48 49  1  0
 49 50  1  0
 50 51  1  0
 51 52  2  0
 52 53  1  0
 53 54  1  0
 54 55  1  0
 55 56  2  0
 56 57  1  0
 57 58  2  0
 58 59  1  0
 59 60  1  0
 58 61  1  0
 61 62  2  0
 54 63  1  0
 63 64  2  0
 64 65  1  0
 65 66  2  0
 66 67  1  0
 67 68  1  0
 66 69  1  0
 69 70  2  0
 54 71  1  0
 71 72  2  0
 72 73  1  0
 73 74  1  0
 74 75  2  0
 75 76  1  0
 76 77  1  0
 77 78  2  0
 78 79  1  0
 79 80  2  0
 80 81  1  0
 81 82  1  0
 80 83  1  0
 83 84  2  0
 76 85  1  0
 85 86  2  0
 86 87  1  0
 87 88  2  0
 88 89  1  0
 89 90  1  0
 88 91  1  0
 91 92  2  0
 76 93  1  0
 93 94  1  0
 94 95  1  0
 72 96  1  0
 96 97  1  0
 97 98  2  0
 97 99  1  0
 99100  2  3
100101  1  0
101102  2  0
101103  1  0
103104  2  0
104105  1  0
105106  1  0
105107  2  0
107108  1  0
107109  1  0
109110  2  0
110111  1  0
111112  2  3
112113  1  0
113114  3  0
112115  1  0
115116  3  0
 11  2  1  0
 23 17  1  0
 31 24  2  0
 39 32  1  0
 47 40  1  0
 94 48  2  0
111100  1  0
 10  5  1  0
 22 18  1  0
 30 26  2  0
 93 50  2  0
110103  1  0
 23  7  1  0
 95 27  1  0
 75 51  1  0
 84 77  1  0
 92 85  1  0
 73 53  2  0
 62 55  1  0
 70 63  1  0
 98 71  1  0
  1117  1  0
  6118  1  0
  9119  1  0
 17120  1  0
 18121  1  0
 19122  1  0
 20123  1  0
 21124  1  0
 22125  1  0
 22126  1  0
 23127  1  0
 31128  1  0
 33129  1  0
 34130  1  0
 36131  1  0
 36132  1  0
 37133  1  0
 37134  1  0
 37135  1  0
 38136  1  0
 39137  1  0
 41138  1  0
 42139  1  0
 44140  1  0
 44141  1  0
 45142  1  0
 45143  1  0
 45144  1  0
 46145  1  0
 47146  1  0
 52147  1  0
 56148  1  0
 57149  1  0
 59150  1  0
 59151  1  0
 60152  1  0
 60153  1  0
 60154  1  0
 61155  1  0
 62156  1  0
 64157  1  0
 65158  1  0
 67159  1  0
 67160  1  0
 68161  1  0
 68162  1  0
 68163  1  0
 69164  1  0
 70165  1  0
 74166  1  0
 78167  1  0
 79168  1  0
 81169  1  0
 81170  1  0
 82171  1  0
 82172  1  0
 82173  1  0
 83174  1  0
 84175  1  0
 86176  1  0
 87177  1  0
 89178  1  0
 89179  1  0
 90180  1  0
 90181  1  0
 90182  1  0
 91183  1  0
 92184  1  0
 98185  1  0
 99186  1  0
104187  1  0
109188  1  0
M  END

