
     RDKit          3D

110124  0  0  0  0  0  0  0  0999 V2000
   -3.7662    1.6768   -6.0351 C   0  0  0  0  0  0  0  0  0  0  0  0
   -4.7062    1.1507   -5.2258 C   0  0  0  0  0  0  0  0  0  0  0  0
   -4.6694    0.7367   -3.8437 C   0  0  0  0  0  0  0  0  0  0  0  0
   -3.9135    1.1628   -2.9321 O   0  0  0  0  0  0  0  0  0  0  0  0
   -5.6766   -0.3315   -3.6273 C   0  0  0  0  0  0  0  0  0  0  0  0
   -5.9606   -1.0898   -2.5478 C   0  0  0  0  0  0  0  0  0  0  0  0
   -6.8624   -2.0945   -2.5543 C   0  0  0  0  0  0  0  0  0  0  0  0
   -7.5201   -2.3465   -3.7284 C   0  0  0  0  0  0  0  0  0  0  0  0
   -7.2811   -1.6012   -4.8977 C   0  0  0  0  0  0  0  0  0  0  0  0
   -6.3209   -0.5607   -4.8254 C   0  0  0  0  0  0  0  0  0  0  0  0
   -5.7772    0.3471   -5.8614 C   0  0  0  0  0  0  0  0  0  0  0  0
   -6.4094    0.6146   -6.9993 C   0  0  0  0  0  0  0  0  0  0  0  0
   -7.3407    0.0764   -7.7720 C   0  0  0  0  0  0  0  0  0  0  0  0
   -8.2274   -0.4410   -8.4824 N   0  0  0  0  0  0  0  0  0  0  0  0
   -6.2417    2.2235   -7.3416 C   0  0  0  0  0  0  0  0  0  0  0  0
   -6.1265    3.2642   -7.5549 N   0  0  0  0  0  0  0  0  0  0  0  0
   -8.2727   -3.5191   -3.1401 C   0  0  0  0  0  0  0  0  0  0  0  0
   -7.7269   -4.8233   -3.5468 C   0  0  0  0  0  0  0  0  0  0  0  0
   -6.2770   -4.6354   -3.8895 C   0  0  0  0  0  0  0  0  0  0  0  0
   -5.6977   -4.3505   -2.7116 C   0  0  0  0  0  0  0  0  0  0  0  0
   -6.6631   -4.4151   -1.6663 C   0  0  0  0  0  0  0  0  0  0  0  0
   -7.5451   -5.4935   -2.1531 C   0  0  0  0  0  0  0  0  0  0  0  0
   -7.5757   -3.1887   -1.8536 C   0  0  0  0  0  0  0  0  0  0  0  0
   -2.4139    1.8612   -5.4668 C   0  0  0  0  0  0  0  0  0  0  0  0
   -1.2855    2.5263   -5.7696 C   0  0  0  0  0  0  0  0  0  0  0  0
   -1.2714    3.5218   -6.9118 C   0  0  0  0  0  0  0  0  0  0  0  0
   -2.0319    4.8215   -6.5251 C   0  0  0  0  0  0  0  0  0  0  0  0
   -0.1734    2.3141   -4.9861 C   0  0  0  0  0  0  0  0  0  0  0  0
    1.5280    2.8310   -4.8889 S   0  0  0  0  0  0  0  0  0  0  0  0
    1.9812    1.9336   -3.5386 C   0  0  0  0  0  0  0  0  0  0  0  0
    2.9849    1.6534   -2.6105 C   0  0  0  0  0  0  0  0  0  0  0  0
    4.2498    2.2422   -2.4579 C   0  0  0  0  0  0  0  0  0  0  0  0
    5.0215    1.9940   -1.4053 C   0  0  0  0  0  0  0  0  0  0  0  0
    6.1709    2.6055   -1.1921 N   0  0  0  0  0  0  0  0  0  0  0  0
    6.1586    3.8728   -2.9938 Se  0  0  0  0  0  2  0  0  0  0  0  0
    4.6987    3.1645   -3.3290 N   0  0  0  0  0  0  0  0  0  0  0  0
    4.4794    1.1056   -0.4552 C   0  0  0  0  0  0  0  0  0  0  0  0
    4.9345    0.7691    0.8243 C   0  0  0  0  0  0  0  0  0  0  0  0
    6.1835    0.9819    2.0083 S   0  0  0  0  0  0  0  0  0  0  0  0
    5.3845    0.0593    3.2893 C   0  0  0  0  0  0  0  0  0  0  0  0
    5.6682   -0.1545    4.5575 C   0  0  0  0  0  0  0  0  0  0  0  0
    6.9960    0.0917    5.2507 C   0  0  0  0  0  0  0  0  0  0  0  0
    7.4830    1.4915    5.1026 C   0  0  0  0  0  0  0  0  0  0  0  0
    4.6887   -0.8376    5.3583 C   0  0  0  0  0  0  0  0  0  0  0  0
    3.4902   -1.0594    4.0131 S   0  0  0  0  0  0  0  0  0  0  0  0
    4.3375   -0.2832    2.7114 C   0  0  0  0  0  0  0  0  0  0  0  0
    4.0005    0.0078    1.4469 C   0  0  0  0  0  0  0  0  0  0  0  0
    2.9746   -0.1561    0.5219 N   0  0  0  0  0  0  0  0  0  0  0  0
    3.2425    0.5144   -0.6010 C   0  0  0  0  0  0  0  0  0  0  0  0
    2.4467    0.7937   -1.6935 C   0  0  0  0  0  0  0  0  0  0  0  0
    1.1417    0.5407   -2.0216 N   0  0  0  0  0  0  0  0  0  0  0  0
    0.8645    1.2524   -3.1586 C   0  0  0  0  0  0  0  0  0  0  0  0
   -0.2499    1.5011   -3.9817 C   0  0  0  0  0  0  0  0  0  0  0  0
   -1.8958    0.9599   -4.0856 S   0  0  0  0  0  0  0  0  0  0  0  0
    0.1155   -0.1227   -1.3307 C   0  0  0  0  0  0  0  0  0  0  0  0
   -0.6366    0.7402   -0.3314 C   0  0  0  0  0  0  0  0  0  0  0  0
    1.9344   -1.1572    0.7089 C   0  0  0  0  0  0  0  0  0  0  0  0
    2.2446   -2.4504   -0.0283 C   0  0  0  0  0  0  0  0  0  0  0  0
    4.3497   -1.0716    6.6082 C   0  0  0  0  0  0  0  0  0  0  0  0
    4.1475   -0.7690    7.8814 C   0  0  0  0  0  0  0  0  0  0  0  0
    3.7131   -1.6049    8.9497 C   0  0  0  0  0  0  0  0  0  0  0  0
    3.6003   -2.9036    8.9390 O   0  0  0  0  0  0  0  0  0  0  0  0
    3.3957   -0.8115   10.1038 C   0  0  0  0  0  0  0  0  0  0  0  0
    3.6189    0.5217    9.8012 C   0  0  0  0  0  0  0  0  0  0  0  0
    3.3281    1.4229   10.7669 C   0  0  0  0  0  0  0  0  0  0  0  0
    2.8075    1.1347   12.0675 C   0  0  0  0  0  0  0  0  0  0  0  0
    2.5649    2.0539   12.9763 F   0  0  0  0  0  0  0  0  0  0  0  0
    2.5973   -0.2166   12.3143 C   0  0  0  0  0  0  0  0  0  0  0  0
    2.0781   -0.5339   13.4959 F   0  0  0  0  0  0  0  0  0  0  0  0
    2.8801   -1.1560   11.3539 C   0  0  0  0  0  0  0  0  0  0  0  0
    2.5564   -2.4847   11.6430 F   0  0  0  0  0  0  0  0  0  0  0  0
    4.1039    0.6430    8.4024 C   0  0  0  0  0  0  0  0  0  0  0  0
    4.2356    1.6309    7.6686 C   0  0  0  0  0  0  0  0  0  0  0  0
    4.1637    3.0606    8.5429 C   0  0  0  0  0  0  0  0  0  0  0  0
    4.1256    4.0083    9.1191 N   0  0  0  0  0  0  0  0  0  0  0  0
    4.3978    2.1801    6.5695 C   0  0  0  0  0  0  0  0  0  0  0  0
    4.5778    2.8022    5.2787 N   0  0  0  0  0  0  0  0  0  0  0  0
   -3.9277    1.9433   -7.0123 H   0  0  0  0  0  0  0  0  0  0  0  0
   -5.3729   -0.7926   -1.6078 H   0  0  0  0  0  0  0  0  0  0  0  0
   -7.8123   -1.7632   -5.7550 H   0  0  0  0  0  0  0  0  0  0  0  0
   -9.3789   -3.3778   -3.1512 H   0  0  0  0  0  0  0  0  0  0  0  0
   -8.2709   -5.4541   -4.2395 H   0  0  0  0  0  0  0  0  0  0  0  0
   -5.9442   -4.7758   -4.8853 H   0  0  0  0  0  0  0  0  0  0  0  0
   -4.6186   -4.0933   -2.8216 H   0  0  0  0  0  0  0  0  0  0  0  0
   -6.2933   -4.6077   -0.6466 H   0  0  0  0  0  0  0  0  0  0  0  0
   -8.5391   -5.6087   -1.6188 H   0  0  0  0  0  0  0  0  0  0  0  0
   -7.0556   -6.4713   -2.2672 H   0  0  0  0  0  0  0  0  0  0  0  0
   -8.1442   -2.8421   -1.0288 H   0  0  0  0  0  0  0  0  0  0  0  0
   -1.8710    3.1134   -7.7536 H   0  0  0  0  0  0  0  0  0  0  0  0
   -0.2776    3.7514   -7.2648 H   0  0  0  0  0  0  0  0  0  0  0  0
   -1.3541    5.2936   -5.7668 H   0  0  0  0  0  0  0  0  0  0  0  0
   -2.3838    5.3374   -7.3453 H   0  0  0  0  0  0  0  0  0  0  0  0
   -2.8848    4.4278   -5.8243 H   0  0  0  0  0  0  0  0  0  0  0  0
    6.8751   -0.0944    6.3710 H   0  0  0  0  0  0  0  0  0  0  0  0
    7.7264   -0.6643    4.9335 H   0  0  0  0  0  0  0  0  0  0  0  0
    7.4482    2.1468    6.0397 H   0  0  0  0  0  0  0  0  0  0  0  0
    6.9600    1.9080    4.2712 H   0  0  0  0  0  0  0  0  0  0  0  0
    8.5798    1.4508    4.7992 H   0  0  0  0  0  0  0  0  0  0  0  0
    0.2130   -1.1317   -0.9593 H   0  0  0  0  0  0  0  0  0  0  0  0
   -0.7657   -0.3290   -2.1072 H   0  0  0  0  0  0  0  0  0  0  0  0
    0.0040    1.2048    0.4293 H   0  0  0  0  0  0  0  0  0  0  0  0
   -1.0485    1.6334   -0.9525 H   0  0  0  0  0  0  0  0  0  0  0  0
   -1.4598    0.2039    0.1127 H   0  0  0  0  0  0  0  0  0  0  0  0
    2.2158   -1.5983    1.7939 H   0  0  0  0  0  0  0  0  0  0  0  0
    0.9363   -0.9358    0.9888 H   0  0  0  0  0  0  0  0  0  0  0  0
    1.5103   -3.2413    0.3237 H   0  0  0  0  0  0  0  0  0  0  0  0
    3.2396   -2.8110    0.2196 H   0  0  0  0  0  0  0  0  0  0  0  0
    2.1069   -2.3951   -1.1302 H   0  0  0  0  0  0  0  0  0  0  0  0
    4.0185   -2.3200    6.6147 H   0  0  0  0  0  0  0  0  0  0  0  0
    3.5187    2.4813   10.7078 H   0  0  0  0  0  0  0  0  0  0  0  0
  1  2  2  3
  2  3  1  0
  3  4  2  0
  3  5  1  0
  5  6  2  0
  6  7  1  0
  7  8  2  0
  8  9  1  0
  9 10  2  0
 10 11  1  0
 11 12  2  3
 12 13  1  0
 13 14  3  0
 12 15  1  0
 15 16  3  0
  8 17  1  0
 17 18  1  0
 18 19  1  0
 19 20  2  0
 20 21  1  0
 21 22  1  0
 21 23  1  0
  1 24  1  0
 24 25  2  0
 25 26  1  0
 26 27  1  0
 25 28  1  0
 28 29  1  0
 29 30  1  0
 30 31  1  0
 31 32  1  0
 32 33  1  0
 33 34  2  0
 34 35  1  0
 35 36  1  0
 33 37  1  0
 37 38  1  0
 38 39  1  0
 39 40  1  0
 40 41  1  0
 41 42  1  0
 42 43  1  0
 41 44  2  0
 44 45  1  0
 45 46  1  0
 46 47  1  0
 47 48  1  0
 48 49  1  0
 49 50  1  0
 50 51  1  0
 51 52  1  0
 52 53  1  0
 53 54  1  0
 51 55  1  0
 55 56  1  0
 48 57  1  0
 57 58  1  0
 44 59  1  0
 59 60  2  3
 60 61  1  0
 61 62  2  0
 61 63  1  0
 63 64  2  0
 64 65  1  0
 65 66  2  0
 66 67  1  0
 66 68  1  0
 68 69  1  0
 68 70  2  0
 70 71  1  0
 64 72  1  0
 72 73  2  3
 73 74  1  0
 74 75  3  0
 73 76  1  0
 76 77  3  0
 11  2  1  0
 23 17  1  0
 54 24  1  0
 72 60  1  0
 10  5  1  0
 22 18  1  0
 53 28  2  0
 70 63  1  0
 23  7  1  0
 52 30  2  0
 50 31  2  0
 36 32  2  0
 49 37  2  0
 47 38  2  0
 46 40  2  0
  1 78  1  0
  6 79  1  0
  9 80  1  0
 17 81  1  0
 18 82  1  0
 19 83  1  0
 20 84  1  0
 21 85  1  0
 22 86  1  0
 22 87  1  0
 23 88  1  0
 26 89  1  0
 26 90  1  0
 27 91  1  0
 27 92  1  0
 27 93  1  0
 42 94  1  0
 42 95  1  0
 43 96  1  0
 43 97  1  0
 43 98  1  0
 55 99  1  0
 55100  1  0
 56101  1  0
 56102  1  0
 56103  1  0
 57104  1  0
 57105  1  0
 58106  1  0
 58107  1  0
 58108  1  0
 59109  1  0
 65110  1  0
M  END

