
     RDKit          3D

 98111  0  0  0  0  0  0  0  0999 V2000
   -2.0614   -2.1350    5.2789 C   0  0  0  0  0  0  0  0  0  0  0  0
   -0.9190   -1.4764    5.0122 C   0  0  0  0  0  0  0  0  0  0  0  0
   -0.4477   -1.1914    3.6152 C   0  0  0  0  0  0  0  0  0  0  0  0
   -0.9438   -1.4978    2.5642 O   0  0  0  0  0  0  0  0  0  0  0  0
    0.8252   -0.4354    3.6807 C   0  0  0  0  0  0  0  0  0  0  0  0
    1.6096    0.0385    2.6422 C   0  0  0  0  0  0  0  0  0  0  0  0
    2.7763    0.7177    2.8881 C   0  0  0  0  0  0  0  0  0  0  0  0
    3.1114    0.9091    4.1792 C   0  0  0  0  0  0  0  0  0  0  0  0
    2.3341    0.4413    5.2686 C   0  0  0  0  0  0  0  0  0  0  0  0
    1.1596   -0.2500    4.9605 C   0  0  0  0  0  0  0  0  0  0  0  0
    0.1110   -0.8771    5.8529 C   0  0  0  0  0  0  0  0  0  0  0  0
    0.1923   -0.8390    7.1165 C   0  0  0  0  0  0  0  0  0  0  0  0
    1.2119   -0.2463    7.8924 C   0  0  0  0  0  0  0  0  0  0  0  0
    2.0988    0.2588    8.5723 N   0  0  0  0  0  0  0  0  0  0  0  0
   -0.8885   -1.4822    8.0001 C   0  0  0  0  0  0  0  0  0  0  0  0
   -1.6403   -1.9270    8.5945 N   0  0  0  0  0  0  0  0  0  0  0  0
    4.3164    1.7016    3.7849 C   0  0  0  0  0  0  0  0  0  0  0  0
    4.1379    3.1773    3.8823 C   0  0  0  0  0  0  0  0  0  0  0  0
    5.1406    3.8501    3.0130 C   0  0  0  0  0  0  0  0  0  0  0  0
    4.8347    3.5892    1.7264 C   0  0  0  0  0  0  0  0  0  0  0  0
    3.6051    2.7880    1.7646 C   0  0  0  0  0  0  0  0  0  0  0  0
    2.9093    3.3866    2.9657 C   0  0  0  0  0  0  0  0  0  0  0  0
    3.9564    1.4467    2.3450 C   0  0  0  0  0  0  0  0  0  0  0  0
   -2.7608   -2.5590    3.9883 C   0  0  0  0  0  0  0  0  0  0  0  0
   -2.7690   -3.7801    3.4478 C   0  0  0  0  0  0  0  0  0  0  0  0
   -2.4919   -4.9730    4.2793 C   0  0  0  0  0  0  0  0  0  0  0  0
   -3.7668   -5.3111    5.0156 C   0  0  0  0  0  0  0  0  0  0  0  0
   -3.0287   -3.8207    2.1140 C   0  0  0  0  0  0  0  0  0  0  0  0
   -2.6443   -5.2175    0.6413 Se  0  0  0  0  0  2  0  0  0  0  0  0
   -2.8962   -3.8444   -0.6410 C   0  0  0  0  0  0  0  0  0  0  0  0
   -2.5695   -3.6003   -1.9932 C   0  0  0  0  0  0  0  0  0  0  0  0
   -1.8434   -4.4761   -2.8441 C   0  0  0  0  0  0  0  0  0  0  0  0
   -1.2213   -3.9276   -3.9072 C   0  0  0  0  0  0  0  0  0  0  0  0
   -0.4761   -4.7509   -4.6455 N   0  0  0  0  0  0  0  0  0  0  0  0
   -0.6112   -6.2533   -3.9085 S   0  0  0  0  0  0  0  0  0  0  0  0
   -1.6432   -5.7589   -2.6492 N   0  0  0  0  0  0  0  0  0  0  0  0
   -1.3547   -2.5705   -4.0832 C   0  0  0  0  0  0  0  0  0  0  0  0
   -0.6642   -1.7094   -4.8954 C   0  0  0  0  0  0  0  0  0  0  0  0
    0.8215   -1.7579   -6.1510 Se  0  0  0  0  0  2  0  0  0  0  0  0
    0.6970    0.7474   -6.0421 C   0  0  0  0  0  0  0  0  0  0  0  0
    1.6042    1.0304   -6.7202 C   0  0  0  0  0  0  0  0  0  0  0  0
    2.8930    0.7473   -7.3391 C   0  0  0  0  0  0  0  0  0  0  0  0
    2.9265   -0.0326   -8.6049 C   0  0  0  0  0  0  0  0  0  0  0  0
    0.9757    2.3932   -6.9349 C   0  0  0  0  0  0  0  0  0  0  0  0
   -0.5032    2.2439   -5.9413 S   0  0  0  0  0  0  0  0  0  0  0  0
   -0.1100    0.3229   -5.3570 C   0  0  0  0  0  0  0  0  0  0  0  0
   -0.9327   -0.3903   -4.6559 C   0  0  0  0  0  0  0  0  0  0  0  0
   -1.8761   -0.4751   -3.6010 N   0  0  0  0  0  0  0  0  0  0  0  0
   -2.0871   -1.6811   -3.2906 C   0  0  0  0  0  0  0  0  0  0  0  0
   -2.7372   -2.2736   -2.1359 C   0  0  0  0  0  0  0  0  0  0  0  0
   -3.1433   -1.7011   -0.9883 N   0  0  0  0  0  0  0  0  0  0  0  0
   -3.2269   -2.6976    0.0164 C   0  0  0  0  0  0  0  0  0  0  0  0
   -3.2676   -2.7968    1.4158 C   0  0  0  0  0  0  0  0  0  0  0  0
   -3.1530   -1.5439    2.7160 S   0  0  0  0  0  0  0  0  0  0  0  0
   -3.5222   -0.3797   -0.6267 C   0  0  0  0  0  0  0  0  0  0  0  0
   -2.5253    0.5402   -0.0259 C   0  0  0  0  0  0  0  0  0  0  0  0
   -2.5440    0.7513   -3.2618 C   0  0  0  0  0  0  0  0  0  0  0  0
   -3.7168    0.8064   -4.3427 C   0  0  0  0  0  0  0  0  0  0  0  0
    1.4654    3.4563   -7.7303 C   0  0  0  0  0  0  0  0  0  0  0  0
    2.5736    3.6080   -8.5000 C   0  0  0  0  0  0  0  0  0  0  0  0
    2.7884    4.7287   -9.1632 C   0  0  0  0  0  0  0  0  0  0  0  0
    1.8132    5.7352   -9.0213 C   0  0  0  0  0  0  0  0  0  0  0  0
    1.8916    7.0250   -9.6974 C   0  0  0  0  0  0  0  0  0  0  0  0
    1.9612    8.0175  -10.2114 N   0  0  0  0  0  0  0  0  0  0  0  0
    0.6934    5.0163   -7.9718 S   0  0  0  0  0  0  0  0  0  0  0  0
   -2.4656   -2.3627    6.1828 H   0  0  0  0  0  0  0  0  0  0  0  0
    1.3263   -0.1150    1.6367 H   0  0  0  0  0  0  0  0  0  0  0  0
    2.6659    0.6448    6.2230 H   0  0  0  0  0  0  0  0  0  0  0  0
    5.2927    1.2721    4.1115 H   0  0  0  0  0  0  0  0  0  0  0  0
    4.0430    3.6240    4.8648 H   0  0  0  0  0  0  0  0  0  0  0  0
    6.0153    4.4704    3.1985 H   0  0  0  0  0  0  0  0  0  0  0  0
    5.3333    3.9045    0.8113 H   0  0  0  0  0  0  0  0  0  0  0  0
    3.0056    2.7711    0.8704 H   0  0  0  0  0  0  0  0  0  0  0  0
    2.0387    2.7813    3.2381 H   0  0  0  0  0  0  0  0  0  0  0  0
    2.7033    4.4773    2.8545 H   0  0  0  0  0  0  0  0  0  0  0  0
    4.6397    0.7999    1.7756 H   0  0  0  0  0  0  0  0  0  0  0  0
   -1.6886   -4.7454    5.0520 H   0  0  0  0  0  0  0  0  0  0  0  0
   -2.0619   -5.8349    3.7248 H   0  0  0  0  0  0  0  0  0  0  0  0
   -4.6085   -5.3437    4.2923 H   0  0  0  0  0  0  0  0  0  0  0  0
   -3.9981   -4.4734    5.6795 H   0  0  0  0  0  0  0  0  0  0  0  0
   -3.6482   -6.2901    5.5233 H   0  0  0  0  0  0  0  0  0  0  0  0
    3.6904    1.4742   -7.1876 H   0  0  0  0  0  0  0  0  0  0  0  0
    3.4122   -0.1012   -6.6085 H   0  0  0  0  0  0  0  0  0  0  0  0
    2.7178    0.6503   -9.4603 H   0  0  0  0  0  0  0  0  0  0  0  0
    2.3268   -0.9346   -8.5931 H   0  0  0  0  0  0  0  0  0  0  0  0
    4.0102   -0.4048   -8.6775 H   0  0  0  0  0  0  0  0  0  0  0  0
   -4.2056    0.1520   -1.3054 H   0  0  0  0  0  0  0  0  0  0  0  0
   -4.2289   -0.5225    0.3103 H   0  0  0  0  0  0  0  0  0  0  0  0
   -2.6076    0.6715    1.0865 H   0  0  0  0  0  0  0  0  0  0  0  0
   -2.6492    1.6264   -0.3568 H   0  0  0  0  0  0  0  0  0  0  0  0
   -1.4812    0.3554   -0.3218 H   0  0  0  0  0  0  0  0  0  0  0  0
   -3.0253    1.0186   -2.4461 H   0  0  0  0  0  0  0  0  0  0  0  0
   -1.9132    1.6587   -3.6471 H   0  0  0  0  0  0  0  0  0  0  0  0
   -4.5678    0.3156   -3.8514 H   0  0  0  0  0  0  0  0  0  0  0  0
   -3.3541    0.3774   -5.2794 H   0  0  0  0  0  0  0  0  0  0  0  0
   -3.9201    1.9151   -4.5602 H   0  0  0  0  0  0  0  0  0  0  0  0
    3.3003    2.7751   -8.6137 H   0  0  0  0  0  0  0  0  0  0  0  0
    3.6718    4.9501   -9.8067 H   0  0  0  0  0  0  0  0  0  0  0  0
  1  2  2  3
  2  3  1  0
  3  4  2  0
  3  5  1  0
  5  6  2  0
  6  7  1  0
  7  8  2  0
  8  9  1  0
  9 10  2  0
 10 11  1  0
 11 12  2  3
 12 13  1  0
 13 14  3  0
 12 15  1  0
 15 16  3  0
  8 17  1  0
 17 18  1  0
 18 19  1  0
 19 20  2  0
 20 21  1  0
 21 22  1  0
 21 23  1  0
  1 24  1  0
 24 25  2  0
 25 26  1  0
 26 27  1  0
 25 28  1  0
 28 29  1  0
 29 30  1  0
 30 31  1  0
 31 32  1  0
 32 33  1  0
 33 34  2  0
 34 35  1  0
 35 36  1  0
 33 37  1  0
 37 38  1  0
 38 39  1  0
 39 40  1  0
 40 41  1  0
 41 42  1  0
 42 43  1  0
 41 44  2  0
 44 45  1  0
 45 46  1  0
 46 47  1  0
 47 48  1  0
 48 49  1  0
 49 50  1  0
 50 51  1  0
 51 52  1  0
 52 53  1  0
 53 54  1  0
 51 55  1  0
 55 56  1  0
 48 57  1  0
 57 58  1  0
 44 59  1  0
 59 60  2  0
 60 61  1  0
 61 62  2  0
 62 63  1  0
 63 64  3  0
 62 65  1  0
 11  2  1  0
 23 17  1  0
 54 24  1  0
 65 59  1  0
 10  5  1  0
 22 18  1  0
 53 28  2  0
 23  7  1  0
 52 30  2  0
 50 31  2  0
 36 32  2  0
 49 37  2  0
 47 38  2  0
 46 40  2  0
  1 66  1  0
  6 67  1  0
  9 68  1  0
 17 69  1  0
 18 70  1  0
 19 71  1  0
 20 72  1  0
 21 73  1  0
 22 74  1  0
 22 75  1  0
 23 76  1  0
 26 77  1  0
 26 78  1  0
 27 79  1  0
 27 80  1  0
 27 81  1  0
 42 82  1  0
 42 83  1  0
 43 84  1  0
 43 85  1  0
 43 86  1  0
 55 87  1  0
 55 88  1  0
 56 89  1  0
 56 90  1  0
 56 91  1  0
 57 92  1  0
 57 93  1  0
 58 94  1  0
 58 95  1  0
 58 96  1  0
 60 97  1  0
 61 98  1  0
M  END

