
     RDKit          3D

101114  0  0  0  0  0  0  0  0999 V2000
   -6.3546   -2.2675    1.4366 C   0  0  0  0  0  0  0  0  0  0  0  0
   -5.6045   -2.7649    2.3987 C   0  0  0  0  0  0  0  0  0  0  0  0
   -4.8426   -3.2750    3.3967 C   0  0  0  0  0  0  0  0  0  0  0  0
   -4.5963   -4.6380    3.3209 O   0  0  0  0  0  0  0  0  0  0  0  0
   -4.2799   -2.5922    4.4753 C   0  0  0  0  0  0  0  0  0  0  0  0
   -3.4144   -2.9380    5.5211 C   0  0  0  0  0  0  0  0  0  0  0  0
   -2.9512   -1.9999    6.3928 C   0  0  0  0  0  0  0  0  0  0  0  0
   -3.3366   -0.7248    6.2408 C   0  0  0  0  0  0  0  0  0  0  0  0
   -4.1792   -0.3415    5.2350 C   0  0  0  0  0  0  0  0  0  0  0  0
   -4.6681   -1.2875    4.3190 C   0  0  0  0  0  0  0  0  0  0  0  0
   -5.4565   -1.1719    3.1637 C   0  0  0  0  0  0  0  0  0  0  0  0
   -6.0693   -0.1694    2.6324 C   0  0  0  0  0  0  0  0  0  0  0  0
   -6.8928    0.0494    1.5797 C   0  0  0  0  0  0  0  0  0  0  0  0
   -7.6270    0.2564    0.6087 N   0  0  0  0  0  0  0  0  0  0  0  0
   -5.5379    1.1629    3.2212 C   0  0  0  0  0  0  0  0  0  0  0  0
   -5.1526    2.1571    3.6498 N   0  0  0  0  0  0  0  0  0  0  0  0
   -2.5469   -0.2951    7.4293 C   0  0  0  0  0  0  0  0  0  0  0  0
   -1.3290    0.5003    7.1209 C   0  0  0  0  0  0  0  0  0  0  0  0
   -0.9127    0.1452    5.7157 C   0  0  0  0  0  0  0  0  0  0  0  0
   -0.5588   -1.1402    5.7335 C   0  0  0  0  0  0  0  0  0  0  0  0
   -0.5908   -1.6115    7.1242 C   0  0  0  0  0  0  0  0  0  0  0  0
   -0.2397   -0.3078    7.8458 C   0  0  0  0  0  0  0  0  0  0  0  0
   -2.0455   -1.7200    7.5583 C   0  0  0  0  0  0  0  0  0  0  0  0
   -5.5242   -2.2119    0.2214 C   0  0  0  0  0  0  0  0  0  0  0  0
   -5.6611   -2.8196   -1.5499 Se  0  0  0  0  0  2  0  0  0  0  0  0
   -3.9360   -2.0755   -2.0442 C   0  0  0  0  0  0  0  0  0  0  0  0
   -2.9928   -1.9316   -3.0175 C   0  0  0  0  0  0  0  0  0  0  0  0
   -2.9229   -2.3100   -4.3590 C   0  0  0  0  0  0  0  0  0  0  0  0
   -1.8060   -1.9813   -5.0678 C   0  0  0  0  0  0  0  0  0  0  0  0
   -1.7924   -2.3912   -6.3796 N   0  0  0  0  0  0  0  0  0  0  0  0
   -3.2476   -3.1760   -6.5671 S   0  0  0  0  0  0  0  0  0  0  0  0
   -3.8689   -2.9991   -5.0423 N   0  0  0  0  0  0  0  0  0  0  0  0
   -0.7558   -1.3083   -4.4569 C   0  0  0  0  0  0  0  0  0  0  0  0
    0.5222   -0.9528   -4.8792 C   0  0  0  0  0  0  0  0  0  0  0  0
    1.6307   -0.8191   -6.1801 S   0  0  0  0  0  0  0  0  0  0  0  0
    2.9482   -0.0604   -5.4146 C   0  0  0  0  0  0  0  0  0  0  0  0
    4.1863    0.4517   -5.6695 C   0  0  0  0  0  0  0  0  0  0  0  0
    4.8740    0.2873   -7.0153 C   0  0  0  0  0  0  0  0  0  0  0  0
    4.1925    1.1806   -7.9927 C   0  0  0  0  0  0  0  0  0  0  0  0
    4.8496    1.0389   -4.6629 C   0  0  0  0  0  0  0  0  0  0  0  0
    3.7329    0.8526   -3.3742 S   0  0  0  0  0  0  0  0  0  0  0  0
    2.4701    0.0441   -4.1910 C   0  0  0  0  0  0  0  0  0  0  0  0
    1.2150   -0.4062   -3.8690 C   0  0  0  0  0  0  0  0  0  0  0  0
    0.3851   -0.4084   -2.7521 N   0  0  0  0  0  0  0  0  0  0  0  0
   -0.7891   -0.9282   -3.1126 C   0  0  0  0  0  0  0  0  0  0  0  0
   -1.9470   -1.2293   -2.3941 C   0  0  0  0  0  0  0  0  0  0  0  0
   -2.2732   -0.9657   -1.1626 N   0  0  0  0  0  0  0  0  0  0  0  0
   -3.5385   -1.5165   -0.8840 C   0  0  0  0  0  0  0  0  0  0  0  0
   -4.3047   -1.5903    0.1971 C   0  0  0  0  0  0  0  0  0  0  0  0
   -1.7877    0.1205   -0.2882 C   0  0  0  0  0  0  0  0  0  0  0  0
   -2.9720    1.1698   -0.0712 C   0  0  0  0  0  0  0  0  0  0  0  0
    0.8826   -0.2171   -1.4016 C   0  0  0  0  0  0  0  0  0  0  0  0
    0.9881   -1.5160   -0.6075 C   0  0  0  0  0  0  0  0  0  0  0  0
    6.1437    1.7432   -4.4790 C   0  0  0  0  0  0  0  0  0  0  0  0
    6.2739    2.5348   -3.3760 C   0  0  0  0  0  0  0  0  0  0  0  0
    5.2919    2.7961   -2.3451 C   0  0  0  0  0  0  0  0  0  0  0  0
    4.0502    2.6198   -2.3586 O   0  0  0  0  0  0  0  0  0  0  0  0
    5.9569    3.3700   -1.1589 C   0  0  0  0  0  0  0  0  0  0  0  0
    5.4584    3.7448    0.0698 C   0  0  0  0  0  0  0  0  0  0  0  0
    6.2510    4.2387    1.0802 C   0  0  0  0  0  0  0  0  0  0  0  0
    7.5962    4.3456    0.7909 C   0  0  0  0  0  0  0  0  0  0  0  0
    8.4136    4.8202    1.7961 F   0  0  0  0  0  0  0  0  0  0  0  0
    8.1061    3.9748   -0.4410 C   0  0  0  0  0  0  0  0  0  0  0  0
    7.3131    3.4836   -1.4498 C   0  0  0  0  0  0  0  0  0  0  0  0
    7.5428    2.9804   -2.8309 C   0  0  0  0  0  0  0  0  0  0  0  0
    8.6992    3.2061   -3.5030 C   0  0  0  0  0  0  0  0  0  0  0  0
    9.7849    3.5895   -2.9263 C   0  0  0  0  0  0  0  0  0  0  0  0
   10.9369    4.0052   -2.3010 N   0  0  0  0  0  0  0  0  0  0  0  0
    8.6333    3.1077   -4.9702 C   0  0  0  0  0  0  0  0  0  0  0  0
    8.5950    3.0210   -6.1947 N   0  0  0  0  0  0  0  0  0  0  0  0
   -7.3498   -2.0613    1.4879 H   0  0  0  0  0  0  0  0  0  0  0  0
   -3.1356   -4.0010    5.5923 H   0  0  0  0  0  0  0  0  0  0  0  0
   -4.4804    0.6729    5.1973 H   0  0  0  0  0  0  0  0  0  0  0  0
   -3.1276    0.0943    8.2879 H   0  0  0  0  0  0  0  0  0  0  0  0
   -1.3280    1.5419    7.3509 H   0  0  0  0  0  0  0  0  0  0  0  0
   -0.9134    0.8178    4.8896 H   0  0  0  0  0  0  0  0  0  0  0  0
   -0.3098   -1.7150    4.8475 H   0  0  0  0  0  0  0  0  0  0  0  0
    0.0704   -2.4235    7.3649 H   0  0  0  0  0  0  0  0  0  0  0  0
   -0.4654   -0.3525    8.9260 H   0  0  0  0  0  0  0  0  0  0  0  0
    0.7700    0.0421    7.5784 H   0  0  0  0  0  0  0  0  0  0  0  0
   -2.2805   -2.2509    8.4585 H   0  0  0  0  0  0  0  0  0  0  0  0
    5.9723    0.4178   -6.9217 H   0  0  0  0  0  0  0  0  0  0  0  0
    4.7189   -0.7883   -7.3578 H   0  0  0  0  0  0  0  0  0  0  0  0
    4.2398    0.6731   -9.0153 H   0  0  0  0  0  0  0  0  0  0  0  0
    4.5212    2.2228   -8.0320 H   0  0  0  0  0  0  0  0  0  0  0  0
    3.0824    1.2093   -7.7476 H   0  0  0  0  0  0  0  0  0  0  0  0
   -3.9796   -1.1403    1.1859 H   0  0  0  0  0  0  0  0  0  0  0  0
   -1.2094    0.7909   -0.9367 H   0  0  0  0  0  0  0  0  0  0  0  0
   -1.4092   -0.1478    0.6038 H   0  0  0  0  0  0  0  0  0  0  0  0
   -3.8943    0.6714   -0.4024 H   0  0  0  0  0  0  0  0  0  0  0  0
   -2.9368    1.5027    0.9474 H   0  0  0  0  0  0  0  0  0  0  0  0
   -2.8423    2.0324   -0.7340 H   0  0  0  0  0  0  0  0  0  0  0  0
    2.0568   -0.0726   -1.5503 H   0  0  0  0  0  0  0  0  0  0  0  0
    0.7332    0.6868   -0.8714 H   0  0  0  0  0  0  0  0  0  0  0  0
    0.1780   -2.2461   -0.8786 H   0  0  0  0  0  0  0  0  0  0  0  0
    1.9065   -2.0802   -0.7703 H   0  0  0  0  0  0  0  0  0  0  0  0
    0.9030   -1.2753    0.4685 H   0  0  0  0  0  0  0  0  0  0  0  0
    6.8599    1.5811   -5.1858 H   0  0  0  0  0  0  0  0  0  0  0  0
    4.3787    3.6393    0.2773 H   0  0  0  0  0  0  0  0  0  0  0  0
    5.8628    4.5189    2.0747 H   0  0  0  0  0  0  0  0  0  0  0  0
    9.1682    4.0768   -0.5943 H   0  0  0  0  0  0  0  0  0  0  0  0
  1  2  2  3
  2  3  1  0
  3  4  2  0
  3  5  1  0
  5  6  2  0
  6  7  1  0
  7  8  2  0
  8  9  1  0
  9 10  2  0
 10 11  1  0
 11 12  2  3
 12 13  1  0
 13 14  3  0
 12 15  1  0
 15 16  3  0
  8 17  1  0
 17 18  1  0
 18 19  1  0
 19 20  2  0
 20 21  1  0
 21 22  1  0
 21 23  1  0
  1 24  1  0
 24 25  1  0
 25 26  1  0
 26 27  1  0
 27 28  1  0
 28 29  1  0
 29 30  2  0
 30 31  1  0
 31 32  1  0
 29 33  1  0
 33 34  1  0
 34 35  1  0
 35 36  1  0
 36 37  1  0
 37 38  1  0
 38 39  1  0
 37 40  2  0
 40 41  1  0
 41 42  1  0
 42 43  1  0
 43 44  1  0
 44 45  1  0
 45 46  1  0
 46 47  1  0
 47 48  1  0
 48 49  1  0
 47 50  1  0
 50 51  1  0
 44 52  1  0
 52 53  1  0
 40 54  1  0
 54 55  2  3
 55 56  1  0
 56 57  2  0
 56 58  1  0
 58 59  2  0
 59 60  1  0
 60 61  2  0
 61 62  1  0
 61 63  1  0
 63 64  2  0
 64 65  1  0
 65 66  2  3
 66 67  1  0
 67 68  3  0
 66 69  1  0
 69 70  3  0
 11  2  1  0
 23 17  1  0
 49 24  2  0
 65 55  1  0
 10  5  1  0
 22 18  1  0
 48 26  2  0
 64 58  1  0
 23  7  1  0
 46 27  2  0
 32 28  2  0
 45 33  2  0
 43 34  2  0
 42 36  2  0
  1 71  1  0
  6 72  1  0
  9 73  1  0
 17 74  1  0
 18 75  1  0
 19 76  1  0
 20 77  1  0
 21 78  1  0
 22 79  1  0
 22 80  1  0
 23 81  1  0
 38 82  1  0
 38 83  1  0
 39 84  1  0
 39 85  1  0
 39 86  1  0
 49 87  1  0
 50 88  1  0
 50 89  1  0
 51 90  1  0
 51 91  1  0
 51 92  1  0
 52 93  1  0
 52 94  1  0
 53 95  1  0
 53 96  1  0
 53 97  1  0
 54 98  1  0
 59 99  1  0
 60100  1  0
 63101  1  0
M  END

