
     RDKit          3D

134150  0  0  0  0  0  0  0  0999 V2000
   -5.1882    0.3473   -2.6167 C   0  0  0  0  0  0  0  0  0  0  0  0
   -5.8423    1.2946   -1.9155 C   0  0  0  0  0  0  0  0  0  0  0  0
   -6.1487    1.2379   -0.4829 C   0  0  0  0  0  0  0  0  0  0  0  0
   -6.4382    0.2027    0.1750 O   0  0  0  0  0  0  0  0  0  0  0  0
   -6.1520    2.5847    0.0399 C   0  0  0  0  0  0  0  0  0  0  0  0
   -6.1180    2.9642    1.3997 C   0  0  0  0  0  0  0  0  0  0  0  0
   -5.9097    4.3157    1.5937 C   0  0  0  0  0  0  0  0  0  0  0  0
   -5.7597    5.2508    0.5177 C   0  0  0  0  0  0  0  0  0  0  0  0
   -5.8011    4.8835   -0.8201 C   0  0  0  0  0  0  0  0  0  0  0  0
   -6.0144    3.4938   -1.0411 C   0  0  0  0  0  0  0  0  0  0  0  0
   -5.9813    2.7237   -2.3160 C   0  0  0  0  0  0  0  0  0  0  0  0
   -6.2453    3.1900   -3.5595 C   0  0  0  0  0  0  0  0  0  0  0  0
   -6.4523    2.3007   -4.6755 C   0  0  0  0  0  0  0  0  0  0  0  0
   -6.6243    1.5902   -5.5737 N   0  0  0  0  0  0  0  0  0  0  0  0
   -6.4766    4.5852   -3.8243 C   0  0  0  0  0  0  0  0  0  0  0  0
   -6.6631    5.7069   -4.0479 N   0  0  0  0  0  0  0  0  0  0  0  0
   -5.5501    6.3670    1.4976 C   0  0  0  0  0  0  0  0  0  0  0  0
   -6.7441    7.3431    1.7139 C   0  0  0  0  0  0  0  0  0  0  0  0
   -6.4323    8.0974    2.9855 C   0  0  0  0  0  0  0  0  0  0  0  0
   -6.5542    7.2205    3.9886 C   0  0  0  0  0  0  0  0  0  0  0  0
   -6.9513    5.9058    3.3618 C   0  0  0  0  0  0  0  0  0  0  0  0
   -7.8394    6.4354    2.2475 C   0  0  0  0  0  0  0  0  0  0  0  0
   -5.6921    5.4062    2.5976 C   0  0  0  0  0  0  0  0  0  0  0  0
   -4.6067   -0.8655   -2.0026 C   0  0  0  0  0  0  0  0  0  0  0  0
   -4.3707   -2.0873   -2.6591 C   0  0  0  0  0  0  0  0  0  0  0  0
   -4.6609   -2.3296   -4.0831 C   0  0  0  0  0  0  0  0  0  0  0  0
   -3.6601   -2.0329   -5.0209 C   0  0  0  0  0  0  0  0  0  0  0  0
   -3.8900   -2.2221   -6.3833 C   0  0  0  0  0  0  0  0  0  0  0  0
   -5.1220   -2.7076   -6.8224 C   0  0  0  0  0  0  0  0  0  0  0  0
   -6.1256   -3.0122   -5.8999 C   0  0  0  0  0  0  0  0  0  0  0  0
   -5.9075   -2.8386   -4.5227 C   0  0  0  0  0  0  0  0  0  0  0  0
   -7.0223   -3.1779   -3.5616 C   0  0  0  0  0  0  0  0  0  0  0  0
   -7.9512   -1.9858   -3.3497 C   0  0  0  0  0  0  0  0  0  0  0  0
   -3.5913   -2.9461   -1.8757 C   0  0  0  0  0  0  0  0  0  0  0  0
   -2.7632   -4.3914   -2.2208 S   0  0  0  0  0  0  0  0  0  0  0  0
   -1.9418   -4.3263   -0.7319 C   0  0  0  0  0  0  0  0  0  0  0  0
   -0.7311   -4.7780   -0.2869 C   0  0  0  0  0  0  0  0  0  0  0  0
    0.1510   -5.6665   -0.9095 C   0  0  0  0  0  0  0  0  0  0  0  0
    1.4954   -5.7278   -0.4583 C   0  0  0  0  0  0  0  0  0  0  0  0
    2.3354   -6.5584   -1.1273 N   0  0  0  0  0  0  0  0  0  0  0  0
    1.2898   -7.1581   -2.2626 S   0  0  0  0  0  0  0  0  0  0  0  0
   -0.1735   -6.4367   -1.9786 N   0  0  0  0  0  0  0  0  0  0  0  0
    1.8785   -4.9331    0.6220 C   0  0  0  0  0  0  0  0  0  0  0  0
    3.1183   -4.7126    1.1576 C   0  0  0  0  0  0  0  0  0  0  0  0
    4.7136   -4.8085    0.5735 S   0  0  0  0  0  0  0  0  0  0  0  0
    5.2035   -3.5383    1.6011 C   0  0  0  0  0  0  0  0  0  0  0  0
    6.3050   -2.6803    1.5523 C   0  0  0  0  0  0  0  0  0  0  0  0
    7.6221   -3.0644    1.0033 C   0  0  0  0  0  0  0  0  0  0  0  0
    7.9102   -3.0841   -0.3856 C   0  0  0  0  0  0  0  0  0  0  0  0
    6.9342   -2.5836   -1.4189 C   0  0  0  0  0  0  0  0  0  0  0  0
    7.2467   -1.1376   -1.7909 C   0  0  0  0  0  0  0  0  0  0  0  0
    9.1854   -3.4973   -0.8146 C   0  0  0  0  0  0  0  0  0  0  0  0
   10.1551   -3.8917    0.1106 C   0  0  0  0  0  0  0  0  0  0  0  0
    9.8679   -3.8713    1.4756 C   0  0  0  0  0  0  0  0  0  0  0  0
    8.6106   -3.4593    1.9191 C   0  0  0  0  0  0  0  0  0  0  0  0
    6.0354   -1.4723    2.2256 C   0  0  0  0  0  0  0  0  0  0  0  0
    4.4870   -1.5480    2.9392 S   0  0  0  0  0  0  0  0  0  0  0  0
    4.1470   -3.0706    2.3423 C   0  0  0  0  0  0  0  0  0  0  0  0
    2.9657   -3.7449    2.0910 C   0  0  0  0  0  0  0  0  0  0  0  0
    1.6841   -3.3447    2.2431 N   0  0  0  0  0  0  0  0  0  0  0  0
    0.9973   -4.0427    1.2729 C   0  0  0  0  0  0  0  0  0  0  0  0
   -0.3367   -3.9096    0.7554 C   0  0  0  0  0  0  0  0  0  0  0  0
   -1.2736   -2.9030    0.8914 N   0  0  0  0  0  0  0  0  0  0  0  0
   -2.2291   -3.2059   -0.0262 C   0  0  0  0  0  0  0  0  0  0  0  0
   -3.1839   -2.4244   -0.6752 C   0  0  0  0  0  0  0  0  0  0  0  0
   -3.7506   -0.8599   -0.5304 S   0  0  0  0  0  0  0  0  0  0  0  0
   -1.1713   -1.5934    1.5414 C   0  0  0  0  0  0  0  0  0  0  0  0
   -0.1506   -0.7033    0.8370 C   0  0  0  0  0  0  0  0  0  0  0  0
    1.2338   -2.6413    3.4511 C   0  0  0  0  0  0  0  0  0  0  0  0
    0.1686   -3.4385    4.2081 C   0  0  0  0  0  0  0  0  0  0  0  0
    6.9265   -0.2951    2.2420 C   0  0  0  0  0  0  0  0  0  0  0  0
    6.5179    0.9890    2.3118 C   0  0  0  0  0  0  0  0  0  0  0  0
    7.3977    2.0672    2.7670 C   0  0  0  0  0  0  0  0  0  0  0  0
    8.6565    2.0221    2.8164 O   0  0  0  0  0  0  0  0  0  0  0  0
    6.5698    3.1567    3.2569 C   0  0  0  0  0  0  0  0  0  0  0  0
    6.9585    4.3350    3.9036 C   0  0  0  0  0  0  0  0  0  0  0  0
    8.3221    4.6339    4.0372 O   0  0  0  0  0  0  0  0  0  0  0  0
    8.8226    5.8485    4.5873 C   0  0  0  0  0  0  0  0  0  0  0  0
    5.9418    5.1802    4.4001 C   0  0  0  0  0  0  0  0  0  0  0  0
    4.5894    4.8230    4.2609 C   0  0  0  0  0  0  0  0  0  0  0  0
    4.2295    3.6386    3.6012 C   0  0  0  0  0  0  0  0  0  0  0  0
    5.2378    2.8300    3.0635 C   0  0  0  0  0  0  0  0  0  0  0  0
    5.1373    1.5594    2.3021 C   0  0  0  0  0  0  0  0  0  0  0  0
    4.1561    1.2755    1.4077 C   0  0  0  0  0  0  0  0  0  0  0  0
    2.9225    2.0189    1.3528 C   0  0  0  0  0  0  0  0  0  0  0  0
    1.9272    2.6081    1.2960 N   0  0  0  0  0  0  0  0  0  0  0  0
    4.3234    0.3080    0.3550 C   0  0  0  0  0  0  0  0  0  0  0  0
    4.4324   -0.4657   -0.4974 N   0  0  0  0  0  0  0  0  0  0  0  0
   -4.9410    0.5120   -3.6541 H   0  0  0  0  0  0  0  0  0  0  0  0
   -6.1783    2.2570    2.2167 H   0  0  0  0  0  0  0  0  0  0  0  0
   -5.6100    5.6034   -1.6001 H   0  0  0  0  0  0  0  0  0  0  0  0
   -4.5462    6.8405    1.4249 H   0  0  0  0  0  0  0  0  0  0  0  0
   -7.0165    7.9732    0.8424 H   0  0  0  0  0  0  0  0  0  0  0  0
   -6.2292    9.1588    3.0897 H   0  0  0  0  0  0  0  0  0  0  0  0
   -6.4680    7.4455    5.0450 H   0  0  0  0  0  0  0  0  0  0  0  0
   -7.4167    5.1720    4.0513 H   0  0  0  0  0  0  0  0  0  0  0  0
   -8.1785    5.6586    1.5257 H   0  0  0  0  0  0  0  0  0  0  0  0
   -8.7330    6.9916    2.6223 H   0  0  0  0  0  0  0  0  0  0  0  0
   -4.7746    5.2715    3.2140 H   0  0  0  0  0  0  0  0  0  0  0  0
   -2.7020   -1.6461   -4.6942 H   0  0  0  0  0  0  0  0  0  0  0  0
   -3.1146   -1.9850   -7.1016 H   0  0  0  0  0  0  0  0  0  0  0  0
   -5.2983   -2.8467   -7.8819 H   0  0  0  0  0  0  0  0  0  0  0  0
   -7.0744   -3.3869   -6.2634 H   0  0  0  0  0  0  0  0  0  0  0  0
   -7.6163   -4.0282   -3.9637 H   0  0  0  0  0  0  0  0  0  0  0  0
   -6.6163   -3.5142   -2.5820 H   0  0  0  0  0  0  0  0  0  0  0  0
   -8.2945   -1.5807   -4.3251 H   0  0  0  0  0  0  0  0  0  0  0  0
   -7.4321   -1.1893   -2.7843 H   0  0  0  0  0  0  0  0  0  0  0  0
   -8.8392   -2.3074   -2.7624 H   0  0  0  0  0  0  0  0  0  0  0  0
    6.9978   -3.2135   -2.3325 H   0  0  0  0  0  0  0  0  0  0  0  0
    5.8886   -2.6576   -1.0610 H   0  0  0  0  0  0  0  0  0  0  0  0
    7.2315   -0.4935   -0.8865 H   0  0  0  0  0  0  0  0  0  0  0  0
    6.4868   -0.7669   -2.5109 H   0  0  0  0  0  0  0  0  0  0  0  0
    8.2461   -1.0725   -2.2692 H   0  0  0  0  0  0  0  0  0  0  0  0
    9.4333   -3.5036   -1.8692 H   0  0  0  0  0  0  0  0  0  0  0  0
   11.1318   -4.2090   -0.2308 H   0  0  0  0  0  0  0  0  0  0  0  0
   10.6209   -4.1766    2.1920 H   0  0  0  0  0  0  0  0  0  0  0  0
    8.4043   -3.4545    2.9835 H   0  0  0  0  0  0  0  0  0  0  0  0
   -2.1462   -1.0769    1.5337 H   0  0  0  0  0  0  0  0  0  0  0  0
   -1.0076   -1.6969    2.6156 H   0  0  0  0  0  0  0  0  0  0  0  0
   -0.0644    0.2619    1.3752 H   0  0  0  0  0  0  0  0  0  0  0  0
    0.8492   -1.1834    0.8045 H   0  0  0  0  0  0  0  0  0  0  0  0
   -0.4799   -0.5039   -0.2047 H   0  0  0  0  0  0  0  0  0  0  0  0
    0.9622   -1.5961    3.2258 H   0  0  0  0  0  0  0  0  0  0  0  0
    2.0808   -2.5332    4.1589 H   0  0  0  0  0  0  0  0  0  0  0  0
    0.6232   -4.3518    4.6402 H   0  0  0  0  0  0  0  0  0  0  0  0
   -0.2371   -2.8213    5.0363 H   0  0  0  0  0  0  0  0  0  0  0  0
   -0.6687   -3.7481    3.5508 H   0  0  0  0  0  0  0  0  0  0  0  0
    7.9900   -0.4975    2.2692 H   0  0  0  0  0  0  0  0  0  0  0  0
    8.4659    6.7110    3.9828 H   0  0  0  0  0  0  0  0  0  0  0  0
    8.4905    5.9599    5.6423 H   0  0  0  0  0  0  0  0  0  0  0  0
    9.9314    5.8304    4.5600 H   0  0  0  0  0  0  0  0  0  0  0  0
    6.1831    6.1061    4.9058 H   0  0  0  0  0  0  0  0  0  0  0  0
    3.8210    5.4576    4.6806 H   0  0  0  0  0  0  0  0  0  0  0  0
    3.1884    3.3628    3.5486 H   0  0  0  0  0  0  0  0  0  0  0  0
  1  2  2  3
  2  3  1  0
  3  4  2  0
  3  5  1  0
  5  6  2  0
  6  7  1  0
  7  8  2  0
  8  9  1  0
  9 10  2  0
 10 11  1  0
 11 12  2  3
 12 13  1  0
 13 14  3  0
 12 15  1  0
 15 16  3  0
  8 17  1  0
 17 18  1  0
 18 19  1  0
 19 20  2  0
 20 21  1  0
 21 22  1  0
 21 23  1  0
  1 24  1  0
 24 25  2  0
 25 26  1  0
 26 27  2  0
 27 28  1  0
 28 29  2  0
 29 30  1  0
 30 31  2  0
 31 32  1  0
 32 33  1  0
 25 34  1  0
 34 35  1  0
 35 36  1  0
 36 37  1  0
 37 38  1  0
 38 39  1  0
 39 40  2  0
 40 41  1  0
 41 42  1  0
 39 43  1  0
 43 44  1  0
 44 45  1  0
 45 46  1  0
 46 47  1  0
 47 48  1  0
 48 49  2  0
 49 50  1  0
 50 51  1  0
 49 52  1  0
 52 53  2  0
 53 54  1  0
 54 55  2  0
 47 56  2  0
 56 57  1  0
 57 58  1  0
 58 59  1  0
 59 60  1  0
 60 61  1  0
 61 62  1  0
 62 63  1  0
 63 64  1  0
 64 65  1  0
 65 66  1  0
 63 67  1  0
 67 68  1  0
 60 69  1  0
 69 70  1  0
 56 71  1  0
 71 72  2  3
 72 73  1  0
 73 74  2  0
 73 75  1  0
 75 76  2  0
 76 77  1  0
 77 78  1  0
 76 79  1  0
 79 80  2  0
 80 81  1  0
 81 82  2  0
 82 83  1  0
 83 84  2  3
 84 85  1  0
 85 86  3  0
 84 87  1  0
 87 88  3  0
 11  2  1  0
 23 17  1  0
 66 24  1  0
 83 72  1  0
 10  5  1  0
 22 18  1  0
 31 26  1  0
 65 34  2  0
 82 75  1  0
 23  7  1  0
 64 36  2  0
 62 37  2  0
 42 38  2  0
 61 43  2  0
 59 44  2  0
 58 46  2  0
 55 48  1  0
  1 89  1  0
  6 90  1  0
  9 91  1  0
 17 92  1  0
 18 93  1  0
 19 94  1  0
 20 95  1  0
 21 96  1  0
 22 97  1  0
 22 98  1  0
 23 99  1  0
 27100  1  0
 28101  1  0
 29102  1  0
 30103  1  0
 32104  1  0
 32105  1  0
 33106  1  0
 33107  1  0
 33108  1  0
 50109  1  0
 50110  1  0
 51111  1  0
 51112  1  0
 51113  1  0
 52114  1  0
 53115  1  0
 54116  1  0
 55117  1  0
 67118  1  0
 67119  1  0
 68120  1  0
 68121  1  0
 68122  1  0
 69123  1  0
 69124  1  0
 70125  1  0
 70126  1  0
 70127  1  0
 71128  1  0
 78129  1  0
 78130  1  0
 78131  1  0
 79132  1  0
 80133  1  0
 81134  1  0
M  END

