
     RDKit          3D

104118  0  0  0  0  0  0  0  0999 V2000
   -5.1147    2.8687   -2.2753 C   0  0  0  0  0  0  0  0  0  0  0  0
   -4.7962    2.3584   -3.4782 C   0  0  0  0  0  0  0  0  0  0  0  0
   -5.5348    1.2368   -4.0661 C   0  0  0  0  0  0  0  0  0  0  0  0
   -6.7356    0.9399   -3.8320 O   0  0  0  0  0  0  0  0  0  0  0  0
   -4.6064    0.4444   -4.8554 C   0  0  0  0  0  0  0  0  0  0  0  0
   -4.7925   -0.8803   -5.3236 C   0  0  0  0  0  0  0  0  0  0  0  0
   -3.6358   -1.4769   -5.7967 C   0  0  0  0  0  0  0  0  0  0  0  0
   -2.3667   -0.8120   -5.8174 C   0  0  0  0  0  0  0  0  0  0  0  0
   -2.1751    0.4811   -5.3645 C   0  0  0  0  0  0  0  0  0  0  0  0
   -3.3527    1.1092   -4.8801 C   0  0  0  0  0  0  0  0  0  0  0  0
   -3.4741    2.3981   -4.1590 C   0  0  0  0  0  0  0  0  0  0  0  0
   -2.7074    3.5003   -4.3448 C   0  0  0  0  0  0  0  0  0  0  0  0
   -1.5529    3.5018   -5.2085 C   0  0  0  0  0  0  0  0  0  0  0  0
   -0.6291    3.5106   -5.9054 N   0  0  0  0  0  0  0  0  0  0  0  0
   -3.0732    4.7773   -3.7872 C   0  0  0  0  0  0  0  0  0  0  0  0
   -3.3510    5.8069   -3.3404 N   0  0  0  0  0  0  0  0  0  0  0  0
   -1.6998   -2.0605   -6.3080 C   0  0  0  0  0  0  0  0  0  0  0  0
   -0.8415   -2.8660   -5.2833 C   0  0  0  0  0  0  0  0  0  0  0  0
   -1.3996   -2.6940   -3.8879 C   0  0  0  0  0  0  0  0  0  0  0  0
   -2.5768   -3.3199   -3.8683 C   0  0  0  0  0  0  0  0  0  0  0  0
   -2.7823   -3.8957   -5.2525 C   0  0  0  0  0  0  0  0  0  0  0  0
   -1.3447   -4.2700   -5.5690 C   0  0  0  0  0  0  0  0  0  0  0  0
   -2.9991   -2.7454   -6.2856 C   0  0  0  0  0  0  0  0  0  0  0  0
   -4.1052    3.3068   -1.2917 C   0  0  0  0  0  0  0  0  0  0  0  0
   -4.3155    4.2010   -0.2219 C   0  0  0  0  0  0  0  0  0  0  0  0
   -5.6085    4.9163    0.0636 C   0  0  0  0  0  0  0  0  0  0  0  0
   -5.8531    6.0360   -0.9398 C   0  0  0  0  0  0  0  0  0  0  0  0
   -3.1815    4.2680    0.5996 C   0  0  0  0  0  0  0  0  0  0  0  0
   -2.1442    3.4489    0.2332 C   0  0  0  0  0  0  0  0  0  0  0  0
   -2.5802    2.5683   -1.1164 S   0  0  0  0  0  0  0  0  0  0  0  0
   -1.1034    3.4163    1.1573 C   0  0  0  0  0  0  0  0  0  0  0  0
   -1.3657    4.2092    2.2299 C   0  0  0  0  0  0  0  0  0  0  0  0
   -2.8905    4.9545    2.1310 S   0  0  0  0  0  0  0  0  0  0  0  0
   -0.5730    3.7751    3.2537 C   0  0  0  0  0  0  0  0  0  0  0  0
   -0.6988    3.9818    4.6367 C   0  0  0  0  0  0  0  0  0  0  0  0
   -1.5118    4.9106    5.1964 N   0  0  0  0  0  0  0  0  0  0  0  0
   -1.2277    4.5993    6.7985 S   0  0  0  0  0  0  0  0  0  0  0  0
   -0.1469    3.3466    6.8596 N   0  0  0  0  0  0  0  0  0  0  0  0
    0.0263    3.1382    5.5295 C   0  0  0  0  0  0  0  0  0  0  0  0
    0.8498    2.1490    4.9891 C   0  0  0  0  0  0  0  0  0  0  0  0
    1.6822    1.2382    5.5736 C   0  0  0  0  0  0  0  0  0  0  0  0
    2.2492    0.8036    7.1177 S   0  0  0  0  0  0  0  0  0  0  0  0
    3.3817   -0.2660    6.4191 C   0  0  0  0  0  0  0  0  0  0  0  0
    4.3288   -1.1401    6.9446 C   0  0  0  0  0  0  0  0  0  0  0  0
    5.0144   -1.8119    5.9195 C   0  0  0  0  0  0  0  0  0  0  0  0
    4.3895   -1.3453    4.3930 S   0  0  0  0  0  0  0  0  0  0  0  0
    3.3142   -0.2482    5.0529 C   0  0  0  0  0  0  0  0  0  0  0  0
    2.3425    0.6107    4.5753 C   0  0  0  0  0  0  0  0  0  0  0  0
    2.0313    1.0875    3.3465 N   0  0  0  0  0  0  0  0  0  0  0  0
    2.9822    1.1240    2.2252 C   0  0  0  0  0  0  0  0  0  0  0  0
    4.2613    1.8785    2.6023 C   0  0  0  0  0  0  0  0  0  0  0  0
    1.0278    1.9859    3.6037 C   0  0  0  0  0  0  0  0  0  0  0  0
    0.2315    2.7560    2.7116 C   0  0  0  0  0  0  0  0  0  0  0  0
   -0.1314    2.4977    1.4082 N   0  0  0  0  0  0  0  0  0  0  0  0
    0.0455    1.2539    0.6418 C   0  0  0  0  0  0  0  0  0  0  0  0
    0.7110    1.5249   -0.7122 C   0  0  0  0  0  0  0  0  0  0  0  0
    5.9716   -2.9098    6.1562 C   0  0  0  0  0  0  0  0  0  0  0  0
    6.8629   -3.3612    5.2532 C   0  0  0  0  0  0  0  0  0  0  0  0
    7.3096   -4.7553    5.2224 C   0  0  0  0  0  0  0  0  0  0  0  0
    7.2255   -5.5843    6.1691 O   0  0  0  0  0  0  0  0  0  0  0  0
    7.7365   -5.0569    3.8676 C   0  0  0  0  0  0  0  0  0  0  0  0
    8.0313   -6.3005    3.3082 C   0  0  0  0  0  0  0  0  0  0  0  0
    8.2649   -6.3777    1.9264 C   0  0  0  0  0  0  0  0  0  0  0  0
    8.5936   -7.9469    1.2076 Cl  0  0  0  0  0  0  0  0  0  0  0  0
    8.1713   -5.2127    1.1261 C   0  0  0  0  0  0  0  0  0  0  0  0
    8.3969   -5.2867   -0.6165 Cl  0  0  0  0  0  0  0  0  0  0  0  0
    7.8705   -3.9742    1.7145 C   0  0  0  0  0  0  0  0  0  0  0  0
    7.6713   -3.9065    3.1003 C   0  0  0  0  0  0  0  0  0  0  0  0
    7.2752   -2.7593    3.9534 C   0  0  0  0  0  0  0  0  0  0  0  0
    7.6215   -1.4633    3.7596 C   0  0  0  0  0  0  0  0  0  0  0  0
    7.5811   -0.5012    4.8359 C   0  0  0  0  0  0  0  0  0  0  0  0
    7.5456    0.2696    5.6970 N   0  0  0  0  0  0  0  0  0  0  0  0
    8.1919   -0.9919    2.5236 C   0  0  0  0  0  0  0  0  0  0  0  0
    8.6542   -0.6057    1.5328 N   0  0  0  0  0  0  0  0  0  0  0  0
   -6.1384    2.7697   -1.9236 H   0  0  0  0  0  0  0  0  0  0  0  0
   -5.7256   -1.4193   -5.2314 H   0  0  0  0  0  0  0  0  0  0  0  0
   -1.1842    0.9114   -5.2991 H   0  0  0  0  0  0  0  0  0  0  0  0
   -1.2603   -1.9696   -7.3252 H   0  0  0  0  0  0  0  0  0  0  0  0
    0.2565   -2.7233   -5.3722 H   0  0  0  0  0  0  0  0  0  0  0  0
   -0.9170   -2.2210   -3.0389 H   0  0  0  0  0  0  0  0  0  0  0  0
   -3.2212   -3.4364   -3.0041 H   0  0  0  0  0  0  0  0  0  0  0  0
   -3.5146   -4.7263   -5.3099 H   0  0  0  0  0  0  0  0  0  0  0  0
   -0.9212   -5.0418   -4.8793 H   0  0  0  0  0  0  0  0  0  0  0  0
   -1.1902   -4.5914   -6.6255 H   0  0  0  0  0  0  0  0  0  0  0  0
   -3.3530   -3.0739   -7.2889 H   0  0  0  0  0  0  0  0  0  0  0  0
   -6.4512    4.1921    0.0294 H   0  0  0  0  0  0  0  0  0  0  0  0
   -5.5910    5.3496    1.0861 H   0  0  0  0  0  0  0  0  0  0  0  0
   -5.9471    5.6292   -1.9703 H   0  0  0  0  0  0  0  0  0  0  0  0
   -6.7991    6.5613   -0.6826 H   0  0  0  0  0  0  0  0  0  0  0  0
   -5.0209    6.7693   -0.9106 H   0  0  0  0  0  0  0  0  0  0  0  0
    4.4957   -1.2932    8.0020 H   0  0  0  0  0  0  0  0  0  0  0  0
    3.2367    0.0890    1.9089 H   0  0  0  0  0  0  0  0  0  0  0  0
    2.5504    1.6689    1.3775 H   0  0  0  0  0  0  0  0  0  0  0  0
    4.9158    1.9708    1.7088 H   0  0  0  0  0  0  0  0  0  0  0  0
    4.8228    1.3355    3.3839 H   0  0  0  0  0  0  0  0  0  0  0  0
    4.0098    2.8978    2.9701 H   0  0  0  0  0  0  0  0  0  0  0  0
   -0.9440    0.7828    0.4710 H   0  0  0  0  0  0  0  0  0  0  0  0
    0.6276    0.5041    1.2123 H   0  0  0  0  0  0  0  0  0  0  0  0
    0.8324    0.5690   -1.2674 H   0  0  0  0  0  0  0  0  0  0  0  0
    1.7085    1.9918   -0.5915 H   0  0  0  0  0  0  0  0  0  0  0  0
    0.1116    2.2194   -1.3239 H   0  0  0  0  0  0  0  0  0  0  0  0
    5.8277   -3.4817    7.0669 H   0  0  0  0  0  0  0  0  0  0  0  0
    8.0497   -7.1906    3.9251 H   0  0  0  0  0  0  0  0  0  0  0  0
    7.7420   -3.1052    1.0870 H   0  0  0  0  0  0  0  0  0  0  0  0
  1  2  2  3
  2  3  1  0
  3  4  2  0
  3  5  1  0
  5  6  2  0
  6  7  1  0
  7  8  2  0
  8  9  1  0
  9 10  2  0
 10 11  1  0
 11 12  2  3
 12 13  1  0
 13 14  3  0
 12 15  1  0
 15 16  3  0
  8 17  1  0
 17 18  1  0
 18 19  1  0
 19 20  2  0
 20 21  1  0
 21 22  1  0
 21 23  1  0
  1 24  1  0
 24 25  2  0
 25 26  1  0
 26 27  1  0
 25 28  1  0
 28 29  2  0
 29 30  1  0
 29 31  1  0
 31 32  2  0
 32 33  1  0
 32 34  1  0
 34 35  1  0
 35 36  2  0
 36 37  1  0
 37 38  1  0
 38 39  2  0
 39 40  1  0
 40 41  1  0
 41 42  1  0
 42 43  1  0
 43 44  1  0
 44 45  2  0
 45 46  1  0
 46 47  1  0
 47 48  1  0
 48 49  1  0
 49 50  1  0
 50 51  1  0
 49 52  1  0
 52 53  1  0
 53 54  1  0
 54 55  1  0
 55 56  1  0
 45 57  1  0
 57 58  2  3
 58 59  1  0
 59 60  2  0
 59 61  1  0
 61 62  2  0
 62 63  1  0
 63 64  1  0
 63 65  2  0
 65 66  1  0
 65 67  1  0
 67 68  2  0
 68 69  1  0
 69 70  2  3
 70 71  1  0
 71 72  3  0
 70 73  1  0
 73 74  3  0
 11  2  1  0
 23 17  1  0
 30 24  1  0
 54 31  1  0
 69 58  1  0
 10  5  1  0
 22 18  1  0
 33 28  1  0
 53 34  2  0
 68 61  1  0
 23  7  1  0
 39 35  1  0
 52 40  2  0
 48 41  2  0
 47 43  2  0
  1 75  1  0
  6 76  1  0
  9 77  1  0
 17 78  1  0
 18 79  1  0
 19 80  1  0
 20 81  1  0
 21 82  1  0
 22 83  1  0
 22 84  1  0
 23 85  1  0
 26 86  1  0
 26 87  1  0
 27 88  1  0
 27 89  1  0
 27 90  1  0
 44 91  1  0
 50 92  1  0
 50 93  1  0
 51 94  1  0
 51 95  1  0
 51 96  1  0
 55 97  1  0
 55 98  1  0
 56 99  1  0
 56100  1  0
 56101  1  0
 57102  1  0
 62103  1  0
 67104  1  0
M  END

