
     RDKit          3D

113128  0  0  0  0  0  0  0  0999 V2000
    0.6261    8.0230    1.2314 C   0  0  0  0  0  0  0  0  0  0  0  0
    1.7408    7.4020    0.7971 C   0  0  0  0  0  0  0  0  0  0  0  0
    2.1778    6.0427    0.9528 C   0  0  0  0  0  0  0  0  0  0  0  0
    1.7907    5.1550    1.7309 O   0  0  0  0  0  0  0  0  0  0  0  0
    3.2827    5.7462   -0.0323 C   0  0  0  0  0  0  0  0  0  0  0  0
    3.9022    4.5358   -0.3415 C   0  0  0  0  0  0  0  0  0  0  0  0
    4.7592    4.4285   -1.3926 C   0  0  0  0  0  0  0  0  0  0  0  0
    5.0046    5.5368   -2.1652 C   0  0  0  0  0  0  0  0  0  0  0  0
    4.3868    6.7691   -1.8470 C   0  0  0  0  0  0  0  0  0  0  0  0
    3.5152    6.8641   -0.7466 C   0  0  0  0  0  0  0  0  0  0  0  0
    2.6131    7.8918   -0.2815 C   0  0  0  0  0  0  0  0  0  0  0  0
    2.3506    9.0993   -0.9370 C   0  0  0  0  0  0  0  0  0  0  0  0
    1.4825    9.9963   -0.9424 C   0  0  0  0  0  0  0  0  0  0  0  0
    0.5699   10.9722   -0.9426 N   0  0  0  0  0  0  0  0  0  0  0  0
    3.7785    9.7143   -1.2570 C   0  0  0  0  0  0  0  0  0  0  0  0
    4.9309   10.1951   -1.5159 N   0  0  0  0  0  0  0  0  0  0  0  0
    5.7638    4.7493   -3.1970 C   0  0  0  0  0  0  0  0  0  0  0  0
    4.8043    4.1839   -4.2651 C   0  0  0  0  0  0  0  0  0  0  0  0
    5.5692    3.1614   -4.9801 C   0  0  0  0  0  0  0  0  0  0  0  0
    5.8463    2.1561   -4.0961 C   0  0  0  0  0  0  0  0  0  0  0  0
    5.0840    2.4453   -2.8715 C   0  0  0  0  0  0  0  0  0  0  0  0
    3.9165    3.2597   -3.4625 C   0  0  0  0  0  0  0  0  0  0  0  0
    5.7586    3.6487   -2.1711 C   0  0  0  0  0  0  0  0  0  0  0  0
   -0.3677    7.1289    1.9457 C   0  0  0  0  0  0  0  0  0  0  0  0
   -1.7375    7.1792    1.8451 C   0  0  0  0  0  0  0  0  0  0  0  0
   -2.4335    8.4815    1.6236 C   0  0  0  0  0  0  0  0  0  0  0  0
   -2.1778    9.0035    0.2569 C   0  0  0  0  0  0  0  0  0  0  0  0
   -2.3248    6.0427    2.0887 C   0  0  0  0  0  0  0  0  0  0  0  0
   -4.2563    5.2813    1.5980 Se  0  0  0  0  0  2  0  0  0  0  0  0
   -3.6488    3.5699    2.0321 C   0  0  0  0  0  0  0  0  0  0  0  0
   -4.0377    2.2571    1.8921 C   0  0  0  0  0  0  0  0  0  0  0  0
   -5.1413    1.7720    1.1889 C   0  0  0  0  0  0  0  0  0  0  0  0
   -5.1048    0.4751    0.7842 C   0  0  0  0  0  0  0  0  0  0  0  0
   -6.1695    0.0492    0.1022 N   0  0  0  0  0  0  0  0  0  0  0  0
   -7.2114    1.3715    0.0177 S   0  0  0  0  0  0  0  0  0  0  0  0
   -6.2453    2.4608    0.8547 N   0  0  0  0  0  0  0  0  0  0  0  0
   -3.9900   -0.2975    1.1337 C   0  0  0  0  0  0  0  0  0  0  0  0
   -3.6258   -1.5652    0.7885 C   0  0  0  0  0  0  0  0  0  0  0  0
   -4.1071   -3.0180   -0.4395 Se  0  0  0  0  0  2  0  0  0  0  0  0
   -2.1659   -3.9642    0.0690 C   0  0  0  0  0  0  0  0  0  0  0  0
   -1.6365   -5.0137   -0.3670 C   0  0  0  0  0  0  0  0  0  0  0  0
   -2.1524   -5.8783   -1.5068 C   0  0  0  0  0  0  0  0  0  0  0  0
   -1.8030   -5.0819   -2.8073 C   0  0  0  0  0  0  0  0  0  0  0  0
   -0.3796   -5.2001    0.1794 C   0  0  0  0  0  0  0  0  0  0  0  0
   -0.2316   -3.8279    1.2157 S   0  0  0  0  0  0  0  0  0  0  0  0
   -1.8461   -3.0683    0.8594 C   0  0  0  0  0  0  0  0  0  0  0  0
   -2.4189   -1.9004    1.2960 C   0  0  0  0  0  0  0  0  0  0  0  0
   -2.0170   -0.7736    2.0093 N   0  0  0  0  0  0  0  0  0  0  0  0
   -2.9424    0.1698    1.8797 C   0  0  0  0  0  0  0  0  0  0  0  0
   -2.9389    1.5244    2.2536 C   0  0  0  0  0  0  0  0  0  0  0  0
   -1.9188    2.3367    2.5914 N   0  0  0  0  0  0  0  0  0  0  0  0
   -2.3496    3.6766    2.4374 C   0  0  0  0  0  0  0  0  0  0  0  0
   -1.8139    4.9611    2.4183 C   0  0  0  0  0  0  0  0  0  0  0  0
   -0.1089    5.5377    2.4187 S   0  0  0  0  0  0  0  0  0  0  0  0
   -0.5802    2.0797    3.0053 C   0  0  0  0  0  0  0  0  0  0  0  0
    0.3937    1.9117    1.8193 C   0  0  0  0  0  0  0  0  0  0  0  0
   -1.0625   -0.8627    3.0877 C   0  0  0  0  0  0  0  0  0  0  0  0
    0.3657   -1.0122    2.8732 C   0  0  0  0  0  0  0  0  0  0  0  0
    0.5617   -6.3289   -0.0291 C   0  0  0  0  0  0  0  0  0  0  0  0
    0.1689   -7.5431    0.3054 C   0  0  0  0  0  0  0  0  0  0  0  0
   -1.1141   -7.8562    0.8986 C   0  0  0  0  0  0  0  0  0  0  0  0
   -1.9639   -7.0027    1.3133 O   0  0  0  0  0  0  0  0  0  0  0  0
   -1.2592   -9.3133    0.9692 C   0  0  0  0  0  0  0  0  0  0  0  0
   -2.3675   -9.9857    1.4317 C   0  0  0  0  0  0  0  0  0  0  0  0
   -2.3160  -11.4163    1.3488 C   0  0  0  0  0  0  0  0  0  0  0  0
   -3.3504  -12.2330    1.7773 C   0  0  0  0  0  0  0  0  0  0  0  0
   -3.0835  -13.5778    1.6395 C   0  0  0  0  0  0  0  0  0  0  0  0
   -1.5053  -13.6308    0.9631 S   0  0  0  0  0  0  0  0  0  0  0  0
   -1.2199  -11.9405    0.8648 C   0  0  0  0  0  0  0  0  0  0  0  0
   -0.0901  -11.2486    0.4009 C   0  0  0  0  0  0  0  0  0  0  0  0
   -0.1054   -9.8272    0.4397 C   0  0  0  0  0  0  0  0  0  0  0  0
    0.8165   -8.8057    0.0277 C   0  0  0  0  0  0  0  0  0  0  0  0
    2.1051   -9.0282   -0.4027 C   0  0  0  0  0  0  0  0  0  0  0  0
    2.9871   -8.0755   -0.6285 C   0  0  0  0  0  0  0  0  0  0  0  0
    3.8600   -7.1071   -0.8644 N   0  0  0  0  0  0  0  0  0  0  0  0
    2.3671  -10.3920   -0.7979 C   0  0  0  0  0  0  0  0  0  0  0  0
    2.6138  -11.5911   -1.1441 N   0  0  0  0  0  0  0  0  0  0  0  0
    0.4424    9.0208    1.1228 H   0  0  0  0  0  0  0  0  0  0  0  0
    3.6882    3.6850    0.3044 H   0  0  0  0  0  0  0  0  0  0  0  0
    4.6087    7.6204   -2.4652 H   0  0  0  0  0  0  0  0  0  0  0  0
    6.6614    5.1476   -3.5730 H   0  0  0  0  0  0  0  0  0  0  0  0
    4.3031    4.9004   -4.8854 H   0  0  0  0  0  0  0  0  0  0  0  0
    5.8485    3.1537   -6.0269 H   0  0  0  0  0  0  0  0  0  0  0  0
    6.5034    1.3115   -4.2602 H   0  0  0  0  0  0  0  0  0  0  0  0
    4.7710    1.6640   -2.2369 H   0  0  0  0  0  0  0  0  0  0  0  0
    3.2897    3.7619   -2.6949 H   0  0  0  0  0  0  0  0  0  0  0  0
    3.2986    2.6217   -4.1308 H   0  0  0  0  0  0  0  0  0  0  0  0
    6.6751    3.4601   -1.6739 H   0  0  0  0  0  0  0  0  0  0  0  0
   -2.0837    9.2061    2.4288 H   0  0  0  0  0  0  0  0  0  0  0  0
   -3.5352    8.3649    1.7405 H   0  0  0  0  0  0  0  0  0  0  0  0
   -1.5752    9.9645    0.3860 H   0  0  0  0  0  0  0  0  0  0  0  0
   -1.6241    8.3688   -0.4484 H   0  0  0  0  0  0  0  0  0  0  0  0
   -3.1340    9.2622   -0.2890 H   0  0  0  0  0  0  0  0  0  0  0  0
   -1.6688   -6.8421   -1.5609 H   0  0  0  0  0  0  0  0  0  0  0  0
   -3.2428   -5.9373   -1.5063 H   0  0  0  0  0  0  0  0  0  0  0  0
   -2.3042   -5.5316   -3.6380 H   0  0  0  0  0  0  0  0  0  0  0  0
   -0.7262   -5.1327   -2.9662 H   0  0  0  0  0  0  0  0  0  0  0  0
   -2.1402   -4.0184   -2.6631 H   0  0  0  0  0  0  0  0  0  0  0  0
   -0.3406    1.5073    3.8814 H   0  0  0  0  0  0  0  0  0  0  0  0
   -0.1493    3.0955    3.4270 H   0  0  0  0  0  0  0  0  0  0  0  0
   -0.0364    1.1063    1.1753 H   0  0  0  0  0  0  0  0  0  0  0  0
    1.4135    1.6574    2.2051 H   0  0  0  0  0  0  0  0  0  0  0  0
    0.4988    2.8076    1.1830 H   0  0  0  0  0  0  0  0  0  0  0  0
   -1.4060   -0.2754    3.9778 H   0  0  0  0  0  0  0  0  0  0  0  0
   -1.3430   -1.9145    3.5744 H   0  0  0  0  0  0  0  0  0  0  0  0
    0.8110   -2.0241    3.2570 H   0  0  0  0  0  0  0  0  0  0  0  0
    0.9674   -0.3134    3.5752 H   0  0  0  0  0  0  0  0  0  0  0  0
    0.8024   -0.9461    1.8797 H   0  0  0  0  0  0  0  0  0  0  0  0
    1.4833   -6.1483   -0.4607 H   0  0  0  0  0  0  0  0  0  0  0  0
   -3.2380   -9.4983    1.8105 H   0  0  0  0  0  0  0  0  0  0  0  0
   -4.3140  -11.9044    2.1571 H   0  0  0  0  0  0  0  0  0  0  0  0
   -3.7874  -14.3798    1.9269 H   0  0  0  0  0  0  0  0  0  0  0  0
    0.7041  -11.8059    0.0678 H   0  0  0  0  0  0  0  0  0  0  0  0
  1  2  2  3
  2  3  1  0
  3  4  2  0
  3  5  1  0
  5  6  2  0
  6  7  1  0
  7  8  2  0
  8  9  1  0
  9 10  2  0
 10 11  1  0
 11 12  2  3
 12 13  1  0
 13 14  3  0
 12 15  1  0
 15 16  3  0
  8 17  1  0
 17 18  1  0
 18 19  1  0
 19 20  2  0
 20 21  1  0
 21 22  1  0
 21 23  1  0
  1 24  1  0
 24 25  2  0
 25 26  1  0
 26 27  1  0
 25 28  1  0
 28 29  1  0
 29 30  1  0
 30 31  1  0
 31 32  1  0
 32 33  1  0
 33 34  2  0
 34 35  1  0
 35 36  1  0
 33 37  1  0
 37 38  1  0
 38 39  1  0
 39 40  1  0
 40 41  1  0
 41 42  1  0
 42 43  1  0
 41 44  2  0
 44 45  1  0
 45 46  1  0
 46 47  1  0
 47 48  1  0
 48 49  1  0
 49 50  1  0
 50 51  1  0
 51 52  1  0
 52 53  1  0
 53 54  1  0
 51 55  1  0
 55 56  1  0
 48 57  1  0
 57 58  1  0
 44 59  1  0
 59 60  2  3
 60 61  1  0
 61 62  2  0
 61 63  1  0
 63 64  2  0
 64 65  1  0
 65 66  1  0
 66 67  2  0
 67 68  1  0
 68 69  1  0
 69 70  1  0
 70 71  2  0
 71 72  1  0
 72 73  2  3
 73 74  1  0
 74 75  3  0
 73 76  1  0
 76 77  3  0
 11  2  1  0
 23 17  1  0
 54 24  1  0
 72 60  1  0
 10  5  1  0
 22 18  1  0
 53 28  2  0
 71 63  1  0
 23  7  1  0
 52 30  2  0
 69 65  2  0
 50 31  2  0
 36 32  2  0
 49 37  2  0
 47 38  2  0
 46 40  2  0
  1 78  1  0
  6 79  1  0
  9 80  1  0
 17 81  1  0
 18 82  1  0
 19 83  1  0
 20 84  1  0
 21 85  1  0
 22 86  1  0
 22 87  1  0
 23 88  1  0
 26 89  1  0
 26 90  1  0
 27 91  1  0
 27 92  1  0
 27 93  1  0
 42 94  1  0
 42 95  1  0
 43 96  1  0
 43 97  1  0
 43 98  1  0
 55 99  1  0
 55100  1  0
 56101  1  0
 56102  1  0
 56103  1  0
 57104  1  0
 57105  1  0
 58106  1  0
 58107  1  0
 58108  1  0
 59109  1  0
 64110  1  0
 66111  1  0
 67112  1  0
 70113  1  0
M  END

