
     RDKit          3D

101115  0  0  0  0  0  0  0  0999 V2000
    4.1594    5.1976    3.0870 C   0  0  0  0  0  0  0  0  0  0  0  0
    3.2945    5.6336    2.1429 C   0  0  0  0  0  0  0  0  0  0  0  0
    2.1061    5.0318    1.5891 C   0  0  0  0  0  0  0  0  0  0  0  0
    1.6955    3.8819    2.1032 O   0  0  0  0  0  0  0  0  0  0  0  0
    1.5328    5.7145    0.5545 C   0  0  0  0  0  0  0  0  0  0  0  0
    0.4107    5.5337   -0.3550 C   0  0  0  0  0  0  0  0  0  0  0  0
    0.1090    6.3245   -1.2821 C   0  0  0  0  0  0  0  0  0  0  0  0
    0.8618    7.4992   -1.5025 C   0  0  0  0  0  0  0  0  0  0  0  0
    1.9335    7.8061   -0.7378 C   0  0  0  0  0  0  0  0  0  0  0  0
    2.2962    6.8655    0.3374 C   0  0  0  0  0  0  0  0  0  0  0  0
    3.4135    6.9137    1.3016 C   0  0  0  0  0  0  0  0  0  0  0  0
    4.1284    7.9124    1.6278 C   0  0  0  0  0  0  0  0  0  0  0  0
    4.3638    9.1711    0.9771 C   0  0  0  0  0  0  0  0  0  0  0  0
    4.5473   10.2066    0.4459 N   0  0  0  0  0  0  0  0  0  0  0  0
    4.6325    7.9752    3.0522 C   0  0  0  0  0  0  0  0  0  0  0  0
    5.0207    8.0095    4.1349 N   0  0  0  0  0  0  0  0  0  0  0  0
   -0.0751    7.9386   -2.6110 C   0  0  0  0  0  0  0  0  0  0  0  0
    0.6403    7.9066   -3.9203 C   0  0  0  0  0  0  0  0  0  0  0  0
    1.8141    7.0010   -3.7159 C   0  0  0  0  0  0  0  0  0  0  0  0
    1.2525    5.7807   -3.4858 C   0  0  0  0  0  0  0  0  0  0  0  0
   -0.1838    5.8148   -3.6567 C   0  0  0  0  0  0  0  0  0  0  0  0
   -0.2418    6.9805   -4.7484 C   0  0  0  0  0  0  0  0  0  0  0  0
   -0.7922    6.6396   -2.5126 C   0  0  0  0  0  0  0  0  0  0  0  0
    3.8172    3.8879    3.6050 C   0  0  0  0  0  0  0  0  0  0  0  0
    3.4304    3.0314    4.4468 C   0  0  0  0  0  0  0  0  0  0  0  0
    3.4164    1.8201    3.9104 C   0  0  0  0  0  0  0  0  0  0  0  0
    4.2600    0.3231    5.2883 S   0  0  0  0  0  0  0  0  0  0  0  0
    3.8431   -0.9903    4.2359 C   0  0  0  0  0  0  0  0  0  0  0  0
    3.6132   -2.3156    3.8919 C   0  0  0  0  0  0  0  0  0  0  0  0
    3.8458   -3.4979    4.6134 C   0  0  0  0  0  0  0  0  0  0  0  0
    3.3676   -4.6888    4.1928 C   0  0  0  0  0  0  0  0  0  0  0  0
    3.6458   -5.6989    4.9446 N   0  0  0  0  0  0  0  0  0  0  0  0
    4.5315   -5.1094    6.2054 S   0  0  0  0  0  0  0  0  0  0  0  0
    4.5209   -3.4708    5.7350 N   0  0  0  0  0  0  0  0  0  0  0  0
    2.6067   -4.7674    2.9971 C   0  0  0  0  0  0  0  0  0  0  0  0
    1.7594   -5.8139    2.5278 C   0  0  0  0  0  0  0  0  0  0  0  0
    1.1098   -5.2204    1.5382 C   0  0  0  0  0  0  0  0  0  0  0  0
    1.4293   -3.9444    1.2812 N   0  0  0  0  0  0  0  0  0  0  0  0
    0.9964   -3.1522    0.2214 C   0  0  0  0  0  0  0  0  0  0  0  0
    1.9265   -3.2336   -0.9546 C   0  0  0  0  0  0  0  0  0  0  0  0
    2.3914   -3.6077    2.2367 C   0  0  0  0  0  0  0  0  0  0  0  0
    2.8822   -2.3984    2.6375 C   0  0  0  0  0  0  0  0  0  0  0  0
    2.6956   -1.1203    2.2101 N   0  0  0  0  0  0  0  0  0  0  0  0
    3.2416   -0.3283    3.1467 C   0  0  0  0  0  0  0  0  0  0  0  0
    3.3708    0.9585    3.6555 C   0  0  0  0  0  0  0  0  0  0  0  0
    4.0636    2.4193    1.9911 Se  0  0  0  0  0  2  0  0  0  0  0  0
    2.3638   -0.6405    0.9262 C   0  0  0  0  0  0  0  0  0  0  0  0
    3.7727   -0.3992    0.1747 C   0  0  0  0  0  0  0  0  0  0  0  0
    0.0366   -6.0262    1.0459 C   0  0  0  0  0  0  0  0  0  0  0  0
   -0.2640   -7.1578    1.4744 C   0  0  0  0  0  0  0  0  0  0  0  0
    0.9912   -7.3379    2.7251 S   0  0  0  0  0  0  0  0  0  0  0  0
   -1.3731   -7.7526    1.0588 C   0  0  0  0  0  0  0  0  0  0  0  0
   -2.3230   -7.5828    0.3193 C   0  0  0  0  0  0  0  0  0  0  0  0
   -1.4293   -5.6521   -0.1526 Se  0  0  0  0  0  2  0  0  0  0  0  0
   -3.5150   -7.5861   -0.5098 C   0  0  0  0  0  0  0  0  0  0  0  0
   -4.2405   -6.4501   -0.2337 C   0  0  0  0  0  0  0  0  0  0  0  0
   -4.0165   -5.4043    0.7082 C   0  0  0  0  0  0  0  0  0  0  0  0
   -3.0690   -5.6158    1.6568 O   0  0  0  0  0  0  0  0  0  0  0  0
   -4.7061   -4.2776    0.6609 C   0  0  0  0  0  0  0  0  0  0  0  0
   -4.8655   -2.9852    1.1945 C   0  0  0  0  0  0  0  0  0  0  0  0
   -5.6114   -2.0889    0.8535 C   0  0  0  0  0  0  0  0  0  0  0  0
   -5.6561   -0.6360    1.4451 C   0  0  0  0  0  0  0  0  0  0  0  0
   -6.5582   -2.1689   -0.2359 C   0  0  0  0  0  0  0  0  0  0  0  0
   -7.3482   -1.1862   -0.5633 F   0  0  0  0  0  0  0  0  0  0  0  0
   -6.4793   -3.4498   -0.8597 C   0  0  0  0  0  0  0  0  0  0  0  0
   -5.6511   -4.4492   -0.5085 C   0  0  0  0  0  0  0  0  0  0  0  0
   -5.3369   -5.8205   -1.0416 C   0  0  0  0  0  0  0  0  0  0  0  0
   -5.8094   -6.3266   -2.1685 C   0  0  0  0  0  0  0  0  0  0  0  0
   -5.3339   -7.4665   -2.7376 C   0  0  0  0  0  0  0  0  0  0  0  0
   -4.8725   -8.5668   -3.2844 N   0  0  0  0  0  0  0  0  0  0  0  0
   -6.8764   -5.6882   -2.8626 C   0  0  0  0  0  0  0  0  0  0  0  0
   -7.8214   -5.1406   -3.4579 N   0  0  0  0  0  0  0  0  0  0  0  0
    5.0189    5.6500    3.4269 H   0  0  0  0  0  0  0  0  0  0  0  0
   -0.1233    4.6071   -0.0641 H   0  0  0  0  0  0  0  0  0  0  0  0
    2.5463    8.6408   -0.8302 H   0  0  0  0  0  0  0  0  0  0  0  0
   -0.6626    8.8050   -2.3612 H   0  0  0  0  0  0  0  0  0  0  0  0
    0.8336    8.8388   -4.4192 H   0  0  0  0  0  0  0  0  0  0  0  0
    2.8311    7.2348   -3.7168 H   0  0  0  0  0  0  0  0  0  0  0  0
    1.8538    4.8830   -3.1896 H   0  0  0  0  0  0  0  0  0  0  0  0
   -0.7150    4.9282   -3.9842 H   0  0  0  0  0  0  0  0  0  0  0  0
    0.2515    6.6261   -5.6484 H   0  0  0  0  0  0  0  0  0  0  0  0
   -1.2643    7.3247   -4.8906 H   0  0  0  0  0  0  0  0  0  0  0  0
   -1.8399    6.5510   -2.3461 H   0  0  0  0  0  0  0  0  0  0  0  0
    3.1301    3.3603    5.5009 H   0  0  0  0  0  0  0  0  0  0  0  0
    0.5762   -2.1982    0.3056 H   0  0  0  0  0  0  0  0  0  0  0  0
    0.1223   -3.7775   -0.2422 H   0  0  0  0  0  0  0  0  0  0  0  0
    1.6688   -4.2236   -1.5296 H   0  0  0  0  0  0  0  0  0  0  0  0
    2.9813   -3.3218   -0.6823 H   0  0  0  0  0  0  0  0  0  0  0  0
    1.8064   -2.4303   -1.7033 H   0  0  0  0  0  0  0  0  0  0  0  0
    2.2495    0.5223    1.1062 H   0  0  0  0  0  0  0  0  0  0  0  0
    1.5383   -0.6803    0.3336 H   0  0  0  0  0  0  0  0  0  0  0  0
    4.5541   -0.4015    0.9372 H   0  0  0  0  0  0  0  0  0  0  0  0
    3.9321   -1.2557   -0.5005 H   0  0  0  0  0  0  0  0  0  0  0  0
    3.6956    0.5036   -0.3714 H   0  0  0  0  0  0  0  0  0  0  0  0
   -1.5689   -8.8929    1.5777 H   0  0  0  0  0  0  0  0  0  0  0  0
   -3.7884   -8.3308   -1.1458 H   0  0  0  0  0  0  0  0  0  0  0  0
   -4.1710   -2.8611    2.0734 H   0  0  0  0  0  0  0  0  0  0  0  0
   -5.1169   -0.6970    2.4222 H   0  0  0  0  0  0  0  0  0  0  0  0
   -5.0395    0.0056    0.7481 H   0  0  0  0  0  0  0  0  0  0  0  0
   -6.6623   -0.3193    1.6491 H   0  0  0  0  0  0  0  0  0  0  0  0
   -7.1596   -3.5550   -1.6878 H   0  0  0  0  0  0  0  0  0  0  0  0
  1  2  2  3
  2  3  1  0
  3  4  2  0
  3  5  1  0
  5  6  2  0
  6  7  1  0
  7  8  2  0
  8  9  1  0
  9 10  2  0
 10 11  1  0
 11 12  2  3
 12 13  1  0
 13 14  3  0
 12 15  1  0
 15 16  3  0
  8 17  1  0
 17 18  1  0
 18 19  1  0
 19 20  2  0
 20 21  1  0
 21 22  1  0
 21 23  1  0
  1 24  1  0
 24 25  2  0
 25 26  1  0
 26 27  1  0
 27 28  1  0
 28 29  1  0
 29 30  1  0
 30 31  1  0
 31 32  2  0
 32 33  1  0
 33 34  1  0
 31 35  1  0
 35 36  1  0
 36 37  2  0
 37 38  1  0
 38 39  1  0
 39 40  1  0
 38 41  1  0
 41 42  1  0
 42 43  1  0
 43 44  1  0
 44 45  1  0
 45 46  1  0
 43 47  1  0
 47 48  1  0
 37 49  1  0
 49 50  2  0
 50 51  1  0
 50 52  1  0
 52 53  2  0
 53 54  1  0
 53 55  1  0
 55 56  2  3
 56 57  1  0
 57 58  2  0
 57 59  1  0
 59 60  2  0
 60 61  1  0
 61 62  1  0
 61 63  2  0
 63 64  1  0
 63 65  1  0
 65 66  2  0
 66 67  1  0
 67 68  2  3
 68 69  1  0
 69 70  3  0
 68 71  1  0
 71 72  3  0
 11  2  1  0
 23 17  1  0
 46 24  1  0
 54 49  1  0
 67 56  1  0
 10  5  1  0
 22 18  1  0
 45 26  2  0
 66 59  1  0
 23  7  1  0
 44 28  2  0
 42 29  2  0
 34 30  2  0
 41 35  2  0
 51 36  1  0
  1 73  1  0
  6 74  1  0
  9 75  1  0
 17 76  1  0
 18 77  1  0
 19 78  1  0
 20 79  1  0
 21 80  1  0
 22 81  1  0
 22 82  1  0
 23 83  1  0
 25 84  1  0
 39 85  1  0
 39 86  1  0
 40 87  1  0
 40 88  1  0
 40 89  1  0
 47 90  1  0
 47 91  1  0
 48 92  1  0
 48 93  1  0
 48 94  1  0
 52 95  1  0
 55 96  1  0
 60 97  1  0
 62 98  1  0
 62 99  1  0
 62100  1  0
 65101  1  0
M  END

