
     RDKit          3D

107120  0  0  0  0  0  0  0  0999 V2000
   -0.4926   -5.6401    3.1989 C   0  0  0  0  0  0  0  0  0  0  0  0
   -1.4056   -5.5972    4.1864 C   0  0  0  0  0  0  0  0  0  0  0  0
   -2.3009   -6.7237    4.4528 C   0  0  0  0  0  0  0  0  0  0  0  0
   -2.1353   -7.9071    4.0587 O   0  0  0  0  0  0  0  0  0  0  0  0
   -3.4613   -6.2360    5.1662 C   0  0  0  0  0  0  0  0  0  0  0  0
   -4.6367   -6.9556    5.4857 C   0  0  0  0  0  0  0  0  0  0  0  0
   -5.6203   -6.1865    6.0782 C   0  0  0  0  0  0  0  0  0  0  0  0
   -5.4703   -4.7844    6.3290 C   0  0  0  0  0  0  0  0  0  0  0  0
   -4.3255   -4.0733    6.0077 C   0  0  0  0  0  0  0  0  0  0  0  0
   -3.2864   -4.8558    5.4309 C   0  0  0  0  0  0  0  0  0  0  0  0
   -1.9322   -4.4393    4.9699 C   0  0  0  0  0  0  0  0  0  0  0  0
   -1.2085   -3.4079    5.4723 C   0  0  0  0  0  0  0  0  0  0  0  0
    0.2190   -3.3281    5.3265 C   0  0  0  0  0  0  0  0  0  0  0  0
    1.3682   -3.2450    5.2387 N   0  0  0  0  0  0  0  0  0  0  0  0
   -1.7698   -2.4469    6.3845 C   0  0  0  0  0  0  0  0  0  0  0  0
   -2.2065   -1.6766    7.1286 N   0  0  0  0  0  0  0  0  0  0  0  0
   -6.8556   -4.7205    6.8974 C   0  0  0  0  0  0  0  0  0  0  0  0
   -7.9454   -4.0680    5.9985 C   0  0  0  0  0  0  0  0  0  0  0  0
   -9.2717   -4.4697    6.5955 C   0  0  0  0  0  0  0  0  0  0  0  0
   -9.4115   -5.7802    6.3587 C   0  0  0  0  0  0  0  0  0  0  0  0
   -8.1761   -6.2147    5.6090 C   0  0  0  0  0  0  0  0  0  0  0  0
   -7.9607   -4.9651    4.7730 C   0  0  0  0  0  0  0  0  0  0  0  0
   -7.0107   -6.1554    6.6396 C   0  0  0  0  0  0  0  0  0  0  0  0
    0.1320   -4.4840    2.5350 C   0  0  0  0  0  0  0  0  0  0  0  0
    1.8201   -4.4007    2.3284 S   0  0  0  0  0  0  0  0  0  0  0  0
    1.7177   -3.0523    1.3537 C   0  0  0  0  0  0  0  0  0  0  0  0
    2.5527   -2.2764    0.6157 C   0  0  0  0  0  0  0  0  0  0  0  0
    3.9369   -2.3415    0.4257 C   0  0  0  0  0  0  0  0  0  0  0  0
    4.5392   -1.4535   -0.5075 C   0  0  0  0  0  0  0  0  0  0  0  0
    5.8815   -1.5478   -0.6722 N   0  0  0  0  0  0  0  0  0  0  0  0
    6.2047   -2.7838    0.3838 S   0  0  0  0  0  0  0  0  0  0  0  0
    4.7557   -3.2179    1.0596 N   0  0  0  0  0  0  0  0  0  0  0  0
    3.7274   -0.5247   -1.1624 C   0  0  0  0  0  0  0  0  0  0  0  0
    4.0479    0.5040   -1.9947 C   0  0  0  0  0  0  0  0  0  0  0  0
    5.4097    1.1705   -2.7544 S   0  0  0  0  0  0  0  0  0  0  0  0
    4.4470    2.4146   -3.4216 C   0  0  0  0  0  0  0  0  0  0  0  0
    4.7047    3.4294   -4.3437 C   0  0  0  0  0  0  0  0  0  0  0  0
    6.0384    3.6367   -5.0050 C   0  0  0  0  0  0  0  0  0  0  0  0
    6.1707    2.7604   -6.2449 C   0  0  0  0  0  0  0  0  0  0  0  0
    3.5164    4.1034   -4.6878 C   0  0  0  0  0  0  0  0  0  0  0  0
    2.1921    3.4170   -3.8634 S   0  0  0  0  0  0  0  0  0  0  0  0
    3.1330    2.2973   -3.0433 C   0  0  0  0  0  0  0  0  0  0  0  0
    2.9136    1.1992   -2.2246 C   0  0  0  0  0  0  0  0  0  0  0  0
    1.8377    0.6955   -1.5693 N   0  0  0  0  0  0  0  0  0  0  0  0
    2.3365   -0.4329   -0.9509 C   0  0  0  0  0  0  0  0  0  0  0  0
    1.7191   -1.3994   -0.0950 C   0  0  0  0  0  0  0  0  0  0  0  0
    0.3958   -1.7388    0.1032 N   0  0  0  0  0  0  0  0  0  0  0  0
    0.4467   -2.7047    1.0731 C   0  0  0  0  0  0  0  0  0  0  0  0
   -0.5168   -3.4897    1.7529 C   0  0  0  0  0  0  0  0  0  0  0  0
   -2.0146   -3.3140    1.6943 C   0  0  0  0  0  0  0  0  0  0  0  0
   -2.6725   -4.3762    0.8130 C   0  0  0  0  0  0  0  0  0  0  0  0
   -0.7230   -1.5576   -0.8385 C   0  0  0  0  0  0  0  0  0  0  0  0
   -0.3274   -1.8656   -2.2854 C   0  0  0  0  0  0  0  0  0  0  0  0
    0.6039    1.4539   -1.3173 C   0  0  0  0  0  0  0  0  0  0  0  0
    0.3996    1.7306    0.1725 C   0  0  0  0  0  0  0  0  0  0  0  0
    3.3692    5.0689   -5.7856 C   0  0  0  0  0  0  0  0  0  0  0  0
    3.7843    6.3470   -5.7105 C   0  0  0  0  0  0  0  0  0  0  0  0
    4.4906    6.9435   -4.5715 C   0  0  0  0  0  0  0  0  0  0  0  0
    4.5809    6.4510   -3.4155 O   0  0  0  0  0  0  0  0  0  0  0  0
    5.0751    8.2019   -5.0014 C   0  0  0  0  0  0  0  0  0  0  0  0
    5.8965    9.0821   -4.2843 C   0  0  0  0  0  0  0  0  0  0  0  0
    6.3301    8.7923   -2.6081 Cl  0  0  0  0  0  0  0  0  0  0  0  0
    6.3909   10.2185   -4.9401 C   0  0  0  0  0  0  0  0  0  0  0  0
    6.0727   10.4537   -6.2870 C   0  0  0  0  0  0  0  0  0  0  0  0
    6.7730   11.9953   -7.1724 Br  0  0  0  0  0  0  0  0  0  0  0  0
    5.2498    9.5600   -6.9908 C   0  0  0  0  0  0  0  0  0  0  0  0
    4.7295    8.4362   -6.3256 C   0  0  0  0  0  0  0  0  0  0  0  0
    3.8224    7.3546   -6.8147 C   0  0  0  0  0  0  0  0  0  0  0  0
    3.0416    7.3804   -7.9303 C   0  0  0  0  0  0  0  0  0  0  0  0
    3.1230    8.4252   -8.9172 C   0  0  0  0  0  0  0  0  0  0  0  0
    3.1747    9.2567   -9.7231 N   0  0  0  0  0  0  0  0  0  0  0  0
    1.9924    6.4232   -8.1625 C   0  0  0  0  0  0  0  0  0  0  0  0
    1.1401    5.6631   -8.3564 N   0  0  0  0  0  0  0  0  0  0  0  0
   -0.2447   -6.6040    2.7703 H   0  0  0  0  0  0  0  0  0  0  0  0
   -4.7702   -8.0040    5.2624 H   0  0  0  0  0  0  0  0  0  0  0  0
   -4.2747   -3.0077    6.1631 H   0  0  0  0  0  0  0  0  0  0  0  0
   -6.8846   -4.4359    7.9728 H   0  0  0  0  0  0  0  0  0  0  0  0
   -7.8246   -2.9831    5.8058 H   0  0  0  0  0  0  0  0  0  0  0  0
  -10.0114   -3.8215    7.0487 H   0  0  0  0  0  0  0  0  0  0  0  0
  -10.2890   -6.3767    6.5825 H   0  0  0  0  0  0  0  0  0  0  0  0
   -8.2743   -7.1680    5.0495 H   0  0  0  0  0  0  0  0  0  0  0  0
   -7.0102   -4.9636    4.1949 H   0  0  0  0  0  0  0  0  0  0  0  0
   -8.8061   -4.7506    4.0742 H   0  0  0  0  0  0  0  0  0  0  0  0
   -7.1406   -6.7785    7.5534 H   0  0  0  0  0  0  0  0  0  0  0  0
    6.1662    4.7010   -5.2942 H   0  0  0  0  0  0  0  0  0  0  0  0
    6.8517    3.3844   -4.2914 H   0  0  0  0  0  0  0  0  0  0  0  0
    5.4039    3.0423   -6.9960 H   0  0  0  0  0  0  0  0  0  0  0  0
    6.0390    1.6911   -5.9768 H   0  0  0  0  0  0  0  0  0  0  0  0
    7.1781    2.8933   -6.6940 H   0  0  0  0  0  0  0  0  0  0  0  0
   -2.2839   -2.2925    1.3615 H   0  0  0  0  0  0  0  0  0  0  0  0
   -2.4408   -3.3838    2.7100 H   0  0  0  0  0  0  0  0  0  0  0  0
   -2.1999   -4.4078   -0.1906 H   0  0  0  0  0  0  0  0  0  0  0  0
   -3.7524   -4.1447    0.6936 H   0  0  0  0  0  0  0  0  0  0  0  0
   -2.5794   -5.3796    1.2793 H   0  0  0  0  0  0  0  0  0  0  0  0
   -1.1893   -0.5681   -0.7101 H   0  0  0  0  0  0  0  0  0  0  0  0
   -1.5257   -2.2771   -0.6301 H   0  0  0  0  0  0  0  0  0  0  0  0
    0.1077   -2.8865   -2.3477 H   0  0  0  0  0  0  0  0  0  0  0  0
   -1.2299   -1.8277   -2.9329 H   0  0  0  0  0  0  0  0  0  0  0  0
    0.4026   -1.1387   -2.6886 H   0  0  0  0  0  0  0  0  0  0  0  0
   -0.2623    0.9693   -1.7920 H   0  0  0  0  0  0  0  0  0  0  0  0
    0.6609    2.4436   -1.8090 H   0  0  0  0  0  0  0  0  0  0  0  0
    0.2244    0.7972    0.7414 H   0  0  0  0  0  0  0  0  0  0  0  0
    1.2950    2.2411    0.5855 H   0  0  0  0  0  0  0  0  0  0  0  0
   -0.4839    2.3898    0.3115 H   0  0  0  0  0  0  0  0  0  0  0  0
    2.9616    4.6665   -6.6972 H   0  0  0  0  0  0  0  0  0  0  0  0
    7.0290   10.9130   -4.4073 H   0  0  0  0  0  0  0  0  0  0  0  0
    5.0637    9.7528   -8.0327 H   0  0  0  0  0  0  0  0  0  0  0  0
  1  2  2  3
  2  3  1  0
  3  4  2  0
  3  5  1  0
  5  6  2  0
  6  7  1  0
  7  8  2  0
  8  9  1  0
  9 10  2  0
 10 11  1  0
 11 12  2  3
 12 13  1  0
 13 14  3  0
 12 15  1  0
 15 16  3  0
  8 17  1  0
 17 18  1  0
 18 19  1  0
 19 20  2  0
 20 21  1  0
 21 22  1  0
 21 23  1  0
  1 24  1  0
 24 25  1  0
 25 26  1  0
 26 27  1  0
 27 28  1  0
 28 29  1  0
 29 30  2  0
 30 31  1  0
 31 32  1  0
 29 33  1  0
 33 34  1  0
 34 35  1  0
 35 36  1  0
 36 37  1  0
 37 38  1  0
 38 39  1  0
 37 40  2  0
 40 41  1  0
 41 42  1  0
 42 43  1  0
 43 44  1  0
 44 45  1  0
 45 46  1  0
 46 47  1  0
 47 48  1  0
 48 49  1  0
 49 50  1  0
 50 51  1  0
 47 52  1  0
 52 53  1  0
 44 54  1  0
 54 55  1  0
 40 56  1  0
 56 57  2  3
 57 58  1  0
 58 59  2  0
 58 60  1  0
 60 61  2  0
 61 62  1  0
 61 63  1  0
 63 64  2  0
 64 65  1  0
 64 66  1  0
 66 67  2  0
 67 68  1  0
 68 69  2  3
 69 70  1  0
 70 71  3  0
 69 72  1  0
 72 73  3  0
 11  2  1  0
 23 17  1  0
 49 24  2  0
 68 57  1  0
 10  5  1  0
 22 18  1  0
 48 26  2  0
 67 60  1  0
 23  7  1  0
 46 27  2  0
 32 28  2  0
 45 33  2  0
 43 34  2  0
 42 36  2  0
  1 74  1  0
  6 75  1  0
  9 76  1  0
 17 77  1  0
 18 78  1  0
 19 79  1  0
 20 80  1  0
 21 81  1  0
 22 82  1  0
 22 83  1  0
 23 84  1  0
 38 85  1  0
 38 86  1  0
 39 87  1  0
 39 88  1  0
 39 89  1  0
 50 90  1  0
 50 91  1  0
 51 92  1  0
 51 93  1  0
 51 94  1  0
 52 95  1  0
 52 96  1  0
 53 97  1  0
 53 98  1  0
 53 99  1  0
 54100  1  0
 54101  1  0
 55102  1  0
 55103  1  0
 55104  1  0
 56105  1  0
 63106  1  0
 66107  1  0
M  END

