
     RDKit          3D

107120  0  0  0  0  0  0  0  0999 V2000
   -3.0044   -1.1601    5.1184 C   0  0  0  0  0  0  0  0  0  0  0  0
   -3.2837   -2.4772    5.0079 C   0  0  0  0  0  0  0  0  0  0  0  0
   -2.8872   -3.3292    3.8798 C   0  0  0  0  0  0  0  0  0  0  0  0
   -1.9787   -3.0854    3.0380 O   0  0  0  0  0  0  0  0  0  0  0  0
   -3.7226   -4.5082    3.8721 C   0  0  0  0  0  0  0  0  0  0  0  0
   -3.7604   -5.5098    2.8788 C   0  0  0  0  0  0  0  0  0  0  0  0
   -4.7567   -6.4465    3.0655 C   0  0  0  0  0  0  0  0  0  0  0  0
   -5.6744   -6.4058    4.1629 C   0  0  0  0  0  0  0  0  0  0  0  0
   -5.6315   -5.4372    5.1522 C   0  0  0  0  0  0  0  0  0  0  0  0
   -4.5972   -4.4692    4.9922 C   0  0  0  0  0  0  0  0  0  0  0  0
   -4.2737   -3.2602    5.8124 C   0  0  0  0  0  0  0  0  0  0  0  0
   -4.6913   -2.9974    7.0769 C   0  0  0  0  0  0  0  0  0  0  0  0
   -5.6750   -3.8060    7.7603 C   0  0  0  0  0  0  0  0  0  0  0  0
   -6.4940   -4.4042    8.3134 N   0  0  0  0  0  0  0  0  0  0  0  0
   -4.1383   -1.9274    7.8695 C   0  0  0  0  0  0  0  0  0  0  0  0
   -3.7019   -1.0675    8.5118 N   0  0  0  0  0  0  0  0  0  0  0  0
   -6.4160   -7.5862    3.6044 C   0  0  0  0  0  0  0  0  0  0  0  0
   -7.7727   -7.2765    2.9062 C   0  0  0  0  0  0  0  0  0  0  0  0
   -8.1149   -8.5106    2.1077 C   0  0  0  0  0  0  0  0  0  0  0  0
   -7.2490   -8.5504    1.0842 C   0  0  0  0  0  0  0  0  0  0  0  0
   -6.3491   -7.3503    1.2376 C   0  0  0  0  0  0  0  0  0  0  0  0
   -7.3733   -6.3578    1.7605 C   0  0  0  0  0  0  0  0  0  0  0  0
   -5.4662   -7.6320    2.4891 C   0  0  0  0  0  0  0  0  0  0  0  0
   -2.3302   -0.4149    4.0462 C   0  0  0  0  0  0  0  0  0  0  0  0
   -3.1430    0.0338    2.6203 S   0  0  0  0  0  0  0  0  0  0  0  0
   -1.7717    0.7530    1.9933 C   0  0  0  0  0  0  0  0  0  0  0  0
   -1.4802    1.5678    0.9531 C   0  0  0  0  0  0  0  0  0  0  0  0
   -2.3117    2.1330   -0.0181 C   0  0  0  0  0  0  0  0  0  0  0  0
   -1.7768    3.1351   -0.8745 C   0  0  0  0  0  0  0  0  0  0  0  0
   -2.6133    3.6668   -1.8008 N   0  0  0  0  0  0  0  0  0  0  0  0
   -3.9931    2.8227   -1.4443 S   0  0  0  0  0  0  0  0  0  0  0  0
   -3.6170    1.8103   -0.1924 N   0  0  0  0  0  0  0  0  0  0  0  0
   -0.4290    3.4784   -0.7387 C   0  0  0  0  0  0  0  0  0  0  0  0
    0.3773    4.1805   -1.5833 C   0  0  0  0  0  0  0  0  0  0  0  0
    0.2382    4.9804   -3.0757 S   0  0  0  0  0  0  0  0  0  0  0  0
    1.9314    4.9610   -3.2677 C   0  0  0  0  0  0  0  0  0  0  0  0
    2.7751    5.3621   -4.3068 C   0  0  0  0  0  0  0  0  0  0  0  0
    2.3174    6.1275   -5.5154 C   0  0  0  0  0  0  0  0  0  0  0  0
    2.2047    7.6153   -5.1992 C   0  0  0  0  0  0  0  0  0  0  0  0
    4.0938    4.9445   -4.0663 C   0  0  0  0  0  0  0  0  0  0  0  0
    4.1841    4.1382   -2.5604 S   0  0  0  0  0  0  0  0  0  0  0  0
    2.5488    4.3033   -2.2319 C   0  0  0  0  0  0  0  0  0  0  0  0
    1.6550    3.8809   -1.2540 C   0  0  0  0  0  0  0  0  0  0  0  0
    1.7415    3.0452   -0.1868 N   0  0  0  0  0  0  0  0  0  0  0  0
    0.4281    2.8450    0.1827 C   0  0  0  0  0  0  0  0  0  0  0  0
   -0.1470    1.9485    1.1376 C   0  0  0  0  0  0  0  0  0  0  0  0
    0.3230    1.4847    2.3530 N   0  0  0  0  0  0  0  0  0  0  0  0
   -0.7150    0.7271    2.8352 C   0  0  0  0  0  0  0  0  0  0  0  0
   -1.0096    0.0835    4.0653 C   0  0  0  0  0  0  0  0  0  0  0  0
   -0.1312   -0.0643    5.2817 C   0  0  0  0  0  0  0  0  0  0  0  0
   -0.4483    0.9999    6.3301 C   0  0  0  0  0  0  0  0  0  0  0  0
    1.3705    2.1143    3.1748 C   0  0  0  0  0  0  0  0  0  0  0  0
    2.5375    1.1620    3.4881 C   0  0  0  0  0  0  0  0  0  0  0  0
    2.9418    2.2808    0.1771 C   0  0  0  0  0  0  0  0  0  0  0  0
    2.7535    0.7813   -0.0531 C   0  0  0  0  0  0  0  0  0  0  0  0
    5.2555    5.2091   -4.9339 C   0  0  0  0  0  0  0  0  0  0  0  0
    6.2195    4.3080   -5.1887 C   0  0  0  0  0  0  0  0  0  0  0  0
    7.5884    4.6895   -5.5320 C   0  0  0  0  0  0  0  0  0  0  0  0
    7.9681    5.8321   -5.9113 O   0  0  0  0  0  0  0  0  0  0  0  0
    8.4538    3.5597   -5.2549 C   0  0  0  0  0  0  0  0  0  0  0  0
    9.8460    3.5027   -5.3043 C   0  0  0  0  0  0  0  0  0  0  0  0
   10.4798    2.3151   -4.9014 C   0  0  0  0  0  0  0  0  0  0  0  0
   12.2320    2.1982   -4.9643 Cl  0  0  0  0  0  0  0  0  0  0  0  0
    9.7177    1.2291   -4.4268 C   0  0  0  0  0  0  0  0  0  0  0  0
   10.3311    0.0949   -4.0029 F   0  0  0  0  0  0  0  0  0  0  0  0
    8.3163    1.3179   -4.3688 C   0  0  0  0  0  0  0  0  0  0  0  0
    7.6886    2.4886   -4.8204 C   0  0  0  0  0  0  0  0  0  0  0  0
    6.2469    2.8467   -4.8850 C   0  0  0  0  0  0  0  0  0  0  0  0
    5.2282    1.9726   -5.0862 C   0  0  0  0  0  0  0  0  0  0  0  0
    3.9591    2.3883   -5.6263 C   0  0  0  0  0  0  0  0  0  0  0  0
    2.9355    2.7080   -6.0626 N   0  0  0  0  0  0  0  0  0  0  0  0
    5.3908    0.5504   -4.9522 C   0  0  0  0  0  0  0  0  0  0  0  0
    5.5070   -0.5974   -4.8475 N   0  0  0  0  0  0  0  0  0  0  0  0
   -3.4187   -0.5622    5.9085 H   0  0  0  0  0  0  0  0  0  0  0  0
   -3.1141   -5.5150    2.0104 H   0  0  0  0  0  0  0  0  0  0  0  0
   -6.3777   -5.4133    5.9249 H   0  0  0  0  0  0  0  0  0  0  0  0
   -6.4045   -8.4795    4.2695 H   0  0  0  0  0  0  0  0  0  0  0  0
   -8.5752   -6.8984    3.5729 H   0  0  0  0  0  0  0  0  0  0  0  0
   -8.9478   -9.1907    2.2616 H   0  0  0  0  0  0  0  0  0  0  0  0
   -7.2583   -9.2696    0.2721 H   0  0  0  0  0  0  0  0  0  0  0  0
   -5.8063   -7.0445    0.3229 H   0  0  0  0  0  0  0  0  0  0  0  0
   -6.9460   -5.3840    2.0855 H   0  0  0  0  0  0  0  0  0  0  0  0
   -8.2083   -6.1599    1.0443 H   0  0  0  0  0  0  0  0  0  0  0  0
   -4.8364   -8.5522    2.4374 H   0  0  0  0  0  0  0  0  0  0  0  0
    1.3282    5.7462   -5.8480 H   0  0  0  0  0  0  0  0  0  0  0  0
    3.0292    5.9844   -6.3568 H   0  0  0  0  0  0  0  0  0  0  0  0
    3.1911    8.0108   -4.8656 H   0  0  0  0  0  0  0  0  0  0  0  0
    1.4509    7.7839   -4.3970 H   0  0  0  0  0  0  0  0  0  0  0  0
    1.8874    8.1680   -6.1089 H   0  0  0  0  0  0  0  0  0  0  0  0
    0.9305   -0.0421    5.0171 H   0  0  0  0  0  0  0  0  0  0  0  0
   -0.2958   -1.0661    5.7297 H   0  0  0  0  0  0  0  0  0  0  0  0
    0.3265    0.9743    7.1241 H   0  0  0  0  0  0  0  0  0  0  0  0
   -0.4531    2.0172    5.8862 H   0  0  0  0  0  0  0  0  0  0  0  0
   -1.4355    0.8034    6.7927 H   0  0  0  0  0  0  0  0  0  0  0  0
    1.7387    3.0453    2.6921 H   0  0  0  0  0  0  0  0  0  0  0  0
    0.9213    2.4652    4.1243 H   0  0  0  0  0  0  0  0  0  0  0  0
    2.7355    1.1673    4.5779 H   0  0  0  0  0  0  0  0  0  0  0  0
    2.3281    0.1250    3.1478 H   0  0  0  0  0  0  0  0  0  0  0  0
    3.4905    1.4940    3.0285 H   0  0  0  0  0  0  0  0  0  0  0  0
    3.2328    2.5153    1.2054 H   0  0  0  0  0  0  0  0  0  0  0  0
    3.8043    2.5828   -0.4353 H   0  0  0  0  0  0  0  0  0  0  0  0
    1.9578    0.3604    0.5903 H   0  0  0  0  0  0  0  0  0  0  0  0
    3.7024    0.2552    0.1913 H   0  0  0  0  0  0  0  0  0  0  0  0
    2.5070    0.5945   -1.1212 H   0  0  0  0  0  0  0  0  0  0  0  0
    5.3901    6.2318   -5.2665 H   0  0  0  0  0  0  0  0  0  0  0  0
   10.4245    4.3532   -5.6428 H   0  0  0  0  0  0  0  0  0  0  0  0
    7.7587    0.4961   -3.9488 H   0  0  0  0  0  0  0  0  0  0  0  0
  1  2  2  3
  2  3  1  0
  3  4  2  0
  3  5  1  0
  5  6  2  0
  6  7  1  0
  7  8  2  0
  8  9  1  0
  9 10  2  0
 10 11  1  0
 11 12  2  3
 12 13  1  0
 13 14  3  0
 12 15  1  0
 15 16  3  0
  8 17  1  0
 17 18  1  0
 18 19  1  0
 19 20  2  0
 20 21  1  0
 21 22  1  0
 21 23  1  0
  1 24  1  0
 24 25  1  0
 25 26  1  0
 26 27  1  0
 27 28  1  0
 28 29  1  0
 29 30  2  0
 30 31  1  0
 31 32  1  0
 29 33  1  0
 33 34  1  0
 34 35  1  0
 35 36  1  0
 36 37  1  0
 37 38  1  0
 38 39  1  0
 37 40  2  0
 40 41  1  0
 41 42  1  0
 42 43  1  0
 43 44  1  0
 44 45  1  0
 45 46  1  0
 46 47  1  0
 47 48  1  0
 48 49  1  0
 49 50  1  0
 50 51  1  0
 47 52  1  0
 52 53  1  0
 44 54  1  0
 54 55  1  0
 40 56  1  0
 56 57  2  3
 57 58  1  0
 58 59  2  0
 58 60  1  0
 60 61  2  0
 61 62  1  0
 62 63  1  0
 62 64  2  0
 64 65  1  0
 64 66  1  0
 66 67  2  0
 67 68  1  0
 68 69  2  3
 69 70  1  0
 70 71  3  0
 69 72  1  0
 72 73  3  0
 11  2  1  0
 23 17  1  0
 49 24  2  0
 68 57  1  0
 10  5  1  0
 22 18  1  0
 48 26  2  0
 67 60  1  0
 23  7  1  0
 46 27  2  0
 32 28  2  0
 45 33  2  0
 43 34  2  0
 42 36  2  0
  1 74  1  0
  6 75  1  0
  9 76  1  0
 17 77  1  0
 18 78  1  0
 19 79  1  0
 20 80  1  0
 21 81  1  0
 22 82  1  0
 22 83  1  0
 23 84  1  0
 38 85  1  0
 38 86  1  0
 39 87  1  0
 39 88  1  0
 39 89  1  0
 50 90  1  0
 50 91  1  0
 51 92  1  0
 51 93  1  0
 51 94  1  0
 52 95  1  0
 52 96  1  0
 53 97  1  0
 53 98  1  0
 53 99  1  0
 54100  1  0
 54101  1  0
 55102  1  0
 55103  1  0
 55104  1  0
 56105  1  0
 61106  1  0
 66107  1  0
M  END

