
     RDKit          3D

 95109  0  0  0  0  0  0  0  0999 V2000
   -4.3311    1.5272   -4.5481 C   0  0  0  0  0  0  0  0  0  0  0  0
   -4.6426    0.2569   -4.4196 C   0  0  0  0  0  0  0  0  0  0  0  0
   -4.7556   -0.4422   -3.1048 C   0  0  0  0  0  0  0  0  0  0  0  0
   -4.7876    0.0900   -2.0176 O   0  0  0  0  0  0  0  0  0  0  0  0
   -4.8251   -1.8673   -3.3763 C   0  0  0  0  0  0  0  0  0  0  0  0
   -4.7803   -2.8791   -2.4115 C   0  0  0  0  0  0  0  0  0  0  0  0
   -4.6921   -4.2149   -2.9516 C   0  0  0  0  0  0  0  0  0  0  0  0
   -4.6683   -4.4228   -4.2333 C   0  0  0  0  0  0  0  0  0  0  0  0
   -4.7231   -3.3952   -5.2025 C   0  0  0  0  0  0  0  0  0  0  0  0
   -4.7950   -2.1361   -4.7542 C   0  0  0  0  0  0  0  0  0  0  0  0
   -4.6627   -0.7851   -5.4093 C   0  0  0  0  0  0  0  0  0  0  0  0
   -4.1624   -0.7438   -6.6305 C   0  0  0  0  0  0  0  0  0  0  0  0
   -3.4470    0.5623   -7.0107 C   0  0  0  0  0  0  0  0  0  0  0  0
   -2.9533    1.4590   -7.2565 N   0  0  0  0  0  0  0  0  0  0  0  0
   -4.2635   -1.6388   -7.6151 C   0  0  0  0  0  0  0  0  0  0  0  0
   -4.3610   -2.4735   -8.5455 N   0  0  0  0  0  0  0  0  0  0  0  0
   -4.5754   -5.9139   -3.9447 C   0  0  0  0  0  0  0  0  0  0  0  0
   -3.2590   -6.4937   -4.2718 C   0  0  0  0  0  0  0  0  0  0  0  0
   -2.2695   -5.3599   -4.1852 C   0  0  0  0  0  0  0  0  0  0  0  0
   -2.1840   -4.9981   -2.8783 C   0  0  0  0  0  0  0  0  0  0  0  0
   -3.0416   -5.8590   -2.1134 C   0  0  0  0  0  0  0  0  0  0  0  0
   -2.8834   -7.1746   -2.9075 C   0  0  0  0  0  0  0  0  0  0  0  0
   -4.4954   -5.5992   -2.4661 C   0  0  0  0  0  0  0  0  0  0  0  0
   -4.0186    2.2836   -3.3647 C   0  0  0  0  0  0  0  0  0  0  0  0
   -4.1300    3.3984   -2.6910 C   0  0  0  0  0  0  0  0  0  0  0  0
   -3.4757    3.6272   -1.5476 C   0  0  0  0  0  0  0  0  0  0  0  0
   -3.1239    5.2043   -0.5692 S   0  0  0  0  0  0  0  0  0  0  0  0
   -1.9894    4.5277    0.5492 C   0  0  0  0  0  0  0  0  0  0  0  0
   -1.1054    4.6645    1.5875 C   0  0  0  0  0  0  0  0  0  0  0  0
   -0.6851    5.7847    2.1882 C   0  0  0  0  0  0  0  0  0  0  0  0
    0.3677    5.8777    3.1423 C   0  0  0  0  0  0  0  0  0  0  0  0
    0.6453    6.9232    3.6848 N   0  0  0  0  0  0  0  0  0  0  0  0
   -0.3878    8.0891    3.0887 S   0  0  0  0  0  0  0  0  0  0  0  0
   -1.2245    7.1191    2.0819 N   0  0  0  0  0  0  0  0  0  0  0  0
    0.9661    4.6333    3.4085 C   0  0  0  0  0  0  0  0  0  0  0  0
    2.0180    4.2532    4.2349 C   0  0  0  0  0  0  0  0  0  0  0  0
    2.0976    2.7382    4.0707 C   0  0  0  0  0  0  0  0  0  0  0  0
    1.2134    2.4735    3.2833 N   0  0  0  0  0  0  0  0  0  0  0  0
    0.7318    1.0071    3.2816 C   0  0  0  0  0  0  0  0  0  0  0  0
   -0.4374    0.9944    4.2615 C   0  0  0  0  0  0  0  0  0  0  0  0
    0.4832    3.4046    2.7900 C   0  0  0  0  0  0  0  0  0  0  0  0
   -0.5452    3.4249    1.8464 C   0  0  0  0  0  0  0  0  0  0  0  0
   -1.0539    2.5667    0.9795 N   0  0  0  0  0  0  0  0  0  0  0  0
   -1.9405    3.0850    0.1162 C   0  0  0  0  0  0  0  0  0  0  0  0
   -2.7475    3.1248   -0.8386 C   0  0  0  0  0  0  0  0  0  0  0  0
   -2.7555    1.2918   -2.2242 Se  0  0  0  0  0  2  0  0  0  0  0  0
   -0.7526    1.1446    0.7604 C   0  0  0  0  0  0  0  0  0  0  0  0
   -1.8155    0.2646    1.4094 C   0  0  0  0  0  0  0  0  0  0  0  0
    3.2703    2.6437    4.9904 C   0  0  0  0  0  0  0  0  0  0  0  0
    3.9123    2.8842    5.5362 C   0  0  0  0  0  0  0  0  0  0  0  0
    3.2732    4.7001    5.3050 S   0  0  0  0  0  0  0  0  0  0  0  0
    5.0930    2.4968    6.2348 C   0  0  0  0  0  0  0  0  0  0  0  0
    5.4800    1.1779    6.0086 C   0  0  0  0  0  0  0  0  0  0  0  0
    4.0251    0.6503    4.7905 Se  0  0  0  0  0  2  0  0  0  0  0  0
    6.5984    0.3290    6.1910 C   0  0  0  0  0  0  0  0  0  0  0  0
    6.6600   -0.8691    5.3739 C   0  0  0  0  0  0  0  0  0  0  0  0
    5.6801   -1.2892    4.4762 C   0  0  0  0  0  0  0  0  0  0  0  0
    4.4018   -1.1172    4.6194 O   0  0  0  0  0  0  0  0  0  0  0  0
    6.2497   -1.9917    3.3416 C   0  0  0  0  0  0  0  0  0  0  0  0
    5.9878   -2.6254    2.2532 C   0  0  0  0  0  0  0  0  0  0  0  0
    6.7627   -3.2186    1.3657 C   0  0  0  0  0  0  0  0  0  0  0  0
    6.5595   -4.0939   -0.1129 Cl  0  0  0  0  0  0  0  0  0  0  0  0
    8.2648   -2.8552    2.2359 S   0  0  0  0  0  0  0  0  0  0  0  0
    7.6623   -1.9936    3.5887 C   0  0  0  0  0  0  0  0  0  0  0  0
    7.9842   -1.2573    4.9268 C   0  0  0  0  0  0  0  0  0  0  0  0
    9.1888   -1.3245    5.2982 C   0  0  0  0  0  0  0  0  0  0  0  0
   10.0321   -1.8674    3.8843 C   0  0  0  0  0  0  0  0  0  0  0  0
   10.5035   -2.1906    3.0849 N   0  0  0  0  0  0  0  0  0  0  0  0
   10.1124   -0.9553    6.1936 C   0  0  0  0  0  0  0  0  0  0  0  0
   10.9552   -0.6207    6.9980 N   0  0  0  0  0  0  0  0  0  0  0  0
   -4.4193    2.0025   -5.4955 H   0  0  0  0  0  0  0  0  0  0  0  0
   -4.8044   -2.7278   -1.3658 H   0  0  0  0  0  0  0  0  0  0  0  0
   -4.6864   -3.7190   -6.2101 H   0  0  0  0  0  0  0  0  0  0  0  0
   -5.4643   -6.4879   -4.2069 H   0  0  0  0  0  0  0  0  0  0  0  0
   -3.1454   -7.1365   -5.0571 H   0  0  0  0  0  0  0  0  0  0  0  0
   -1.6555   -4.8726   -4.9223 H   0  0  0  0  0  0  0  0  0  0  0  0
   -1.5379   -4.1709   -2.4976 H   0  0  0  0  0  0  0  0  0  0  0  0
   -2.8365   -5.9777   -1.0516 H   0  0  0  0  0  0  0  0  0  0  0  0
   -3.6226   -7.8936   -2.5948 H   0  0  0  0  0  0  0  0  0  0  0  0
   -1.8275   -7.5264   -2.9284 H   0  0  0  0  0  0  0  0  0  0  0  0
   -5.2721   -6.0338   -1.8185 H   0  0  0  0  0  0  0  0  0  0  0  0
   -4.8939    4.1646   -3.1446 H   0  0  0  0  0  0  0  0  0  0  0  0
    1.5486    0.4851    3.9407 H   0  0  0  0  0  0  0  0  0  0  0  0
    0.7091    0.4794    2.4627 H   0  0  0  0  0  0  0  0  0  0  0  0
   -1.1418    1.8067    3.8962 H   0  0  0  0  0  0  0  0  0  0  0  0
   -0.1305    1.3279    5.2685 H   0  0  0  0  0  0  0  0  0  0  0  0
   -0.9656    0.0562    4.1919 H   0  0  0  0  0  0  0  0  0  0  0  0
    0.2577    0.8463    0.6957 H   0  0  0  0  0  0  0  0  0  0  0  0
   -1.0244    0.9550   -0.3726 H   0  0  0  0  0  0  0  0  0  0  0  0
   -1.3298   -0.5674    1.9813 H   0  0  0  0  0  0  0  0  0  0  0  0
   -2.3906    0.8651    2.1425 H   0  0  0  0  0  0  0  0  0  0  0  0
   -2.4995   -0.2416    0.7365 H   0  0  0  0  0  0  0  0  0  0  0  0
    5.6775    3.1015    6.8949 H   0  0  0  0  0  0  0  0  0  0  0  0
    7.3821    0.4208    6.8553 H   0  0  0  0  0  0  0  0  0  0  0  0
    4.8162   -2.7213    1.9298 H   0  0  0  0  0  0  0  0  0  0  0  0
  1  2  2  3
  2  3  1  0
  3  4  2  0
  3  5  1  0
  5  6  2  0
  6  7  1  0
  7  8  2  0
  8  9  1  0
  9 10  2  0
 10 11  1  0
 11 12  2  3
 12 13  1  0
 13 14  3  0
 12 15  1  0
 15 16  3  0
  8 17  1  0
 17 18  1  0
 18 19  1  0
 19 20  2  0
 20 21  1  0
 21 22  1  0
 21 23  1  0
  1 24  1  0
 24 25  2  0
 25 26  1  0
 26 27  1  0
 27 28  1  0
 28 29  1  0
 29 30  1  0
 30 31  1  0
 31 32  2  0
 32 33  1  0
 33 34  1  0
 31 35  1  0
 35 36  1  0
 36 37  2  0
 37 38  1  0
 38 39  1  0
 39 40  1  0
 38 41  1  0
 41 42  1  0
 42 43  1  0
 43 44  1  0
 44 45  1  0
 45 46  1  0
 43 47  1  0
 47 48  1  0
 37 49  1  0
 49 50  2  0
 50 51  1  0
 50 52  1  0
 52 53  2  0
 53 54  1  0
 53 55  1  0
 55 56  2  3
 56 57  1  0
 57 58  2  0
 57 59  1  0
 59 60  1  0
 60 61  2  0
 61 62  1  0
 61 63  1  0
 63 64  1  0
 64 65  1  0
 65 66  2  3
 66 67  1  0
 67 68  3  0
 66 69  1  0
 69 70  3  0
 11  2  1  0
 23 17  1  0
 46 24  1  0
 54 49  1  0
 65 56  1  0
 10  5  1  0
 22 18  1  0
 45 26  2  0
 64 59  2  0
 23  7  1  0
 44 28  2  0
 42 29  2  0
 34 30  2  0
 41 35  2  0
 51 36  1  0
  1 71  1  0
  6 72  1  0
  9 73  1  0
 17 74  1  0
 18 75  1  0
 19 76  1  0
 20 77  1  0
 21 78  1  0
 22 79  1  0
 22 80  1  0
 23 81  1  0
 25 82  1  0
 39 83  1  0
 39 84  1  0
 40 85  1  0
 40 86  1  0
 40 87  1  0
 47 88  1  0
 47 89  1  0
 48 90  1  0
 48 91  1  0
 48 92  1  0
 52 93  1  0
 55 94  1  0
 60 95  1  0
M  END

