
     RDKit          3D

161178  0  0  0  0  0  0  0  0999 V2000
    8.1679    0.2330   -3.0861 C   0  0  0  0  0  0  0  0  0  0  0  0
    8.4526    1.5047   -2.7658 C   0  0  0  0  0  0  0  0  0  0  0  0
    9.0081    2.4331   -3.7576 C   0  0  0  0  0  0  0  0  0  0  0  0
    9.7640    2.1293   -4.7168 O   0  0  0  0  0  0  0  0  0  0  0  0
    8.4149    3.7447   -3.5388 C   0  0  0  0  0  0  0  0  0  0  0  0
    8.5071    4.8890   -4.3658 C   0  0  0  0  0  0  0  0  0  0  0  0
    7.7293    5.9515   -3.9367 C   0  0  0  0  0  0  0  0  0  0  0  0
    6.8871    5.8921   -2.7819 C   0  0  0  0  0  0  0  0  0  0  0  0
    6.7708    4.7685   -1.9869 C   0  0  0  0  0  0  0  0  0  0  0  0
    7.5944    3.6817   -2.3813 C   0  0  0  0  0  0  0  0  0  0  0  0
    7.7037    2.3327   -1.7885 C   0  0  0  0  0  0  0  0  0  0  0  0
    7.5253    2.0158   -0.4804 C   0  0  0  0  0  0  0  0  0  0  0  0
    7.0134    2.9569    0.4816 C   0  0  0  0  0  0  0  0  0  0  0  0
    6.5964    3.6940    1.2732 N   0  0  0  0  0  0  0  0  0  0  0  0
    8.0224    0.7798    0.0612 C   0  0  0  0  0  0  0  0  0  0  0  0
    8.4345   -0.2090    0.5025 N   0  0  0  0  0  0  0  0  0  0  0  0
    6.4152    7.2936   -3.0298 C   0  0  0  0  0  0  0  0  0  0  0  0
    4.9789    7.4881   -3.6097 C   0  0  0  0  0  0  0  0  0  0  0  0
    4.6086    6.3041   -4.4803 C   0  0  0  0  0  0  0  0  0  0  0  0
    5.3933    6.3666   -5.5558 C   0  0  0  0  0  0  0  0  0  0  0  0
    6.2731    7.5845   -5.3841 C   0  0  0  0  0  0  0  0  0  0  0  0
    5.2766    8.4994   -4.6962 C   0  0  0  0  0  0  0  0  0  0  0  0
    7.2776    7.3577   -4.2134 C   0  0  0  0  0  0  0  0  0  0  0  0
    6.8179   -0.2885   -2.8696 C   0  0  0  0  0  0  0  0  0  0  0  0
    5.4452    0.3501   -3.6579 S   0  0  0  0  0  0  0  0  0  0  0  0
    4.4016   -0.6608   -2.8379 C   0  0  0  0  0  0  0  0  0  0  0  0
    2.9854   -0.7264   -2.6188 C   0  0  0  0  0  0  0  0  0  0  0  0
    2.7612   -1.6649   -1.6172 C   0  0  0  0  0  0  0  0  0  0  0  0
    4.0903   -2.0204   -0.9275 C   0  0  0  0  0  0  0  0  0  0  0  0
    5.0538   -1.4325   -1.9408 C   0  0  0  0  0  0  0  0  0  0  0  0
    6.4406   -1.2640   -1.9382 C   0  0  0  0  0  0  0  0  0  0  0  0
    4.4108   -3.5116   -0.7894 C   0  0  0  0  0  0  0  0  0  0  0  0
    5.3275   -3.9564    0.1821 C   0  0  0  0  0  0  0  0  0  0  0  0
    5.6290   -5.3121    0.3191 C   0  0  0  0  0  0  0  0  0  0  0  0
    5.0578   -6.2597   -0.5469 C   0  0  0  0  0  0  0  0  0  0  0  0
    5.3051   -7.6372   -0.4299 O   0  0  0  0  0  0  0  0  0  0  0  0
    6.0164   -8.2272    0.6540 C   0  0  0  0  0  0  0  0  0  0  0  0
    6.0129   -9.7451    0.5067 C   0  0  0  0  0  0  0  0  0  0  0  0
    4.2044   -5.8178   -1.5649 C   0  0  0  0  0  0  0  0  0  0  0  0
    3.8960   -4.4593   -1.7004 C   0  0  0  0  0  0  0  0  0  0  0  0
    4.0960   -1.2206    0.3980 C   0  0  0  0  0  0  0  0  0  0  0  0
    4.4415    0.1499    0.4041 C   0  0  0  0  0  0  0  0  0  0  0  0
    4.2335    0.9456    1.5242 C   0  0  0  0  0  0  0  0  0  0  0  0
    3.6762    0.3980    2.6881 C   0  0  0  0  0  0  0  0  0  0  0  0
    3.4287    1.1680    3.8369 O   0  0  0  0  0  0  0  0  0  0  0  0
    3.6317    2.5814    3.9490 C   0  0  0  0  0  0  0  0  0  0  0  0
    2.5230    3.3499    3.2429 C   0  0  0  0  0  0  0  0  0  0  0  0
    3.3428   -0.9597    2.7082 C   0  0  0  0  0  0  0  0  0  0  0  0
    3.5232   -1.7523    1.5700 C   0  0  0  0  0  0  0  0  0  0  0  0
    1.4318   -1.9574   -1.2352 C   0  0  0  0  0  0  0  0  0  0  0  0
    1.0879   -3.1105   -0.5058 C   0  0  0  0  0  0  0  0  0  0  0  0
   -0.2603   -3.4704   -0.3527 C   0  0  0  0  0  0  0  0  0  0  0  0
   -0.6095   -4.7779    0.0448 C   0  0  0  0  0  0  0  0  0  0  0  0
   -1.9568   -5.1641    0.0994 C   0  0  0  0  0  0  0  0  0  0  0  0
   -2.9321   -4.2050   -0.1507 C   0  0  0  0  0  0  0  0  0  0  0  0
   -4.3457   -4.2474    0.1119 C   0  0  0  0  0  0  0  0  0  0  0  0
   -4.8382   -2.9978    0.2078 C   0  0  0  0  0  0  0  0  0  0  0  0
   -3.7550   -1.9590    0.1066 C   0  0  0  0  0  0  0  0  0  0  0  0
   -3.3292   -1.4399    1.4973 C   0  0  0  0  0  0  0  0  0  0  0  0
   -2.4990   -0.3085    1.6157 C   0  0  0  0  0  0  0  0  0  0  0  0
   -1.9772    0.0782    2.8561 C   0  0  0  0  0  0  0  0  0  0  0  0
   -2.2484   -0.6794    4.0071 C   0  0  0  0  0  0  0  0  0  0  0  0
   -1.7314   -0.3722    5.2776 O   0  0  0  0  0  0  0  0  0  0  0  0
   -1.1109    0.8572    5.6518 C   0  0  0  0  0  0  0  0  0  0  0  0
   -2.1514    1.9697    5.7609 C   0  0  0  0  0  0  0  0  0  0  0  0
   -3.0493   -1.8177    3.9011 C   0  0  0  0  0  0  0  0  0  0  0  0
   -3.5732   -2.1987    2.6684 C   0  0  0  0  0  0  0  0  0  0  0  0
   -4.2173   -0.8832   -0.8816 C   0  0  0  0  0  0  0  0  0  0  0  0
   -4.2199   -1.1311   -2.2689 C   0  0  0  0  0  0  0  0  0  0  0  0
   -4.6853   -0.1649   -3.1670 C   0  0  0  0  0  0  0  0  0  0  0  0
   -5.1763    1.0606   -2.7048 C   0  0  0  0  0  0  0  0  0  0  0  0
   -5.5655    2.0226   -3.6531 O   0  0  0  0  0  0  0  0  0  0  0  0
   -5.9572    3.3692   -3.3614 C   0  0  0  0  0  0  0  0  0  0  0  0
   -7.4224    3.4393   -2.9535 C   0  0  0  0  0  0  0  0  0  0  0  0
   -5.2558    1.2811   -1.3182 C   0  0  0  0  0  0  0  0  0  0  0  0
   -4.8097    0.3091   -0.4205 C   0  0  0  0  0  0  0  0  0  0  0  0
   -2.6062   -2.8703   -0.3724 C   0  0  0  0  0  0  0  0  0  0  0  0
   -1.2715   -2.5220   -0.6481 C   0  0  0  0  0  0  0  0  0  0  0  0
   -0.9279   -1.3368   -1.3148 C   0  0  0  0  0  0  0  0  0  0  0  0
    0.3922   -1.1205   -1.7274 C   0  0  0  0  0  0  0  0  0  0  0  0
    0.6797   -0.1097   -2.6710 C   0  0  0  0  0  0  0  0  0  0  0  0
    1.9788    0.0611   -3.1585 C   0  0  0  0  0  0  0  0  0  0  0  0
   -6.1910   -2.9360    0.5077 C   0  0  0  0  0  0  0  0  0  0  0  0
   -6.7704   -4.2187    0.5371 C   0  0  0  0  0  0  0  0  0  0  0  0
   -5.5515   -5.4000    0.3194 S   0  0  0  0  0  0  0  0  0  0  0  0
   -8.1676   -4.5503    0.8485 C   0  0  0  0  0  0  0  0  0  0  0  0
   -9.2153   -3.7094    0.7618 C   0  0  0  0  0  0  0  0  0  0  0  0
  -10.3957   -3.8475    1.6216 C   0  0  0  0  0  0  0  0  0  0  0  0
  -10.7841   -4.9078    2.1863 O   0  0  0  0  0  0  0  0  0  0  0  0
  -10.9870   -2.5335    1.7984 C   0  0  0  0  0  0  0  0  0  0  0  0
  -11.9529   -2.1361    2.7157 C   0  0  0  0  0  0  0  0  0  0  0  0
  -12.2298   -0.7683    2.8451 C   0  0  0  0  0  0  0  0  0  0  0  0
  -11.5252    0.1747    2.0702 C   0  0  0  0  0  0  0  0  0  0  0  0
  -11.8286    1.8875    2.2979 Cl  0  0  0  0  0  0  0  0  0  0  0  0
  -10.5524   -0.2459    1.1471 C   0  0  0  0  0  0  0  0  0  0  0  0
  -10.3050   -1.6203    1.0088 C   0  0  0  0  0  0  0  0  0  0  0  0
   -9.2797   -2.3278    0.2018 C   0  0  0  0  0  0  0  0  0  0  0  0
   -8.8297   -1.9477   -1.0224 C   0  0  0  0  0  0  0  0  0  0  0  0
   -8.1654   -2.8750   -1.9010 C   0  0  0  0  0  0  0  0  0  0  0  0
   -7.6380   -3.6150   -2.6184 N   0  0  0  0  0  0  0  0  0  0  0  0
   -9.0975   -0.6437   -1.5688 C   0  0  0  0  0  0  0  0  0  0  0  0
   -9.3003    0.4045   -2.0148 N   0  0  0  0  0  0  0  0  0  0  0  0
    8.7141   -0.2240   -3.9020 H   0  0  0  0  0  0  0  0  0  0  0  0
    9.1063    4.9260   -5.2669 H   0  0  0  0  0  0  0  0  0  0  0  0
    6.0754    4.7356   -1.1620 H   0  0  0  0  0  0  0  0  0  0  0  0
    6.6943    8.0105   -2.2250 H   0  0  0  0  0  0  0  0  0  0  0  0
    4.2035    7.7905   -2.8719 H   0  0  0  0  0  0  0  0  0  0  0  0
    3.8035    5.5990   -4.3198 H   0  0  0  0  0  0  0  0  0  0  0  0
    5.3403    5.7101   -6.4178 H   0  0  0  0  0  0  0  0  0  0  0  0
    6.7172    7.9781   -6.3199 H   0  0  0  0  0  0  0  0  0  0  0  0
    4.3875    8.7500   -5.3309 H   0  0  0  0  0  0  0  0  0  0  0  0
    5.7296    9.4431   -4.3109 H   0  0  0  0  0  0  0  0  0  0  0  0
    8.0861    8.1196   -4.1363 H   0  0  0  0  0  0  0  0  0  0  0  0
    7.1130   -1.7650   -1.2549 H   0  0  0  0  0  0  0  0  0  0  0  0
    5.8078   -3.2534    0.8491 H   0  0  0  0  0  0  0  0  0  0  0  0
    6.3101   -5.6139    1.1070 H   0  0  0  0  0  0  0  0  0  0  0  0
    5.5176   -7.9624    1.6158 H   0  0  0  0  0  0  0  0  0  0  0  0
    7.0635   -7.8634    0.6703 H   0  0  0  0  0  0  0  0  0  0  0  0
    6.4177  -10.2162    1.4273 H   0  0  0  0  0  0  0  0  0  0  0  0
    6.6580  -10.0416   -0.3532 H   0  0  0  0  0  0  0  0  0  0  0  0
    4.9829  -10.1183    0.3306 H   0  0  0  0  0  0  0  0  0  0  0  0
    3.7653   -6.5344   -2.2515 H   0  0  0  0  0  0  0  0  0  0  0  0
    3.2427   -4.1524   -2.5030 H   0  0  0  0  0  0  0  0  0  0  0  0
    4.8308    0.6455   -0.4771 H   0  0  0  0  0  0  0  0  0  0  0  0
    4.4750    1.9883    1.4596 H   0  0  0  0  0  0  0  0  0  0  0  0
    4.6293    2.8702    3.5456 H   0  0  0  0  0  0  0  0  0  0  0  0
    3.6159    2.8595    5.0244 H   0  0  0  0  0  0  0  0  0  0  0  0
    1.5454    3.1479    3.7336 H   0  0  0  0  0  0  0  0  0  0  0  0
    2.4502    3.0667    2.1697 H   0  0  0  0  0  0  0  0  0  0  0  0
    2.7351    4.4426    3.2966 H   0  0  0  0  0  0  0  0  0  0  0  0
    2.8860   -1.3821    3.5874 H   0  0  0  0  0  0  0  0  0  0  0  0
    3.1823   -2.7818    1.5954 H   0  0  0  0  0  0  0  0  0  0  0  0
    1.8458   -3.7957   -0.1688 H   0  0  0  0  0  0  0  0  0  0  0  0
    0.1604   -5.5073    0.2709 H   0  0  0  0  0  0  0  0  0  0  0  0
   -2.2316   -6.1693    0.3957 H   0  0  0  0  0  0  0  0  0  0  0  0
   -2.2355    0.2686    0.7427 H   0  0  0  0  0  0  0  0  0  0  0  0
   -1.3467    0.9549    2.8998 H   0  0  0  0  0  0  0  0  0  0  0  0
   -0.2994    1.1284    4.9320 H   0  0  0  0  0  0  0  0  0  0  0  0
   -0.6328    0.7142    6.6408 H   0  0  0  0  0  0  0  0  0  0  0  0
   -3.0265    1.6092    6.3438 H   0  0  0  0  0  0  0  0  0  0  0  0
   -2.4802    2.2902    4.7549 H   0  0  0  0  0  0  0  0  0  0  0  0
   -1.7071    2.8386    6.2885 H   0  0  0  0  0  0  0  0  0  0  0  0
   -3.2618   -2.4151    4.7783 H   0  0  0  0  0  0  0  0  0  0  0  0
   -4.1448   -3.1173    2.6411 H   0  0  0  0  0  0  0  0  0  0  0  0
   -3.8447   -2.0703   -2.6631 H   0  0  0  0  0  0  0  0  0  0  0  0
   -4.6503   -0.3628   -4.2308 H   0  0  0  0  0  0  0  0  0  0  0  0
   -5.8164    3.9774   -4.2763 H   0  0  0  0  0  0  0  0  0  0  0  0
   -5.3080    3.8074   -2.5696 H   0  0  0  0  0  0  0  0  0  0  0  0
   -7.6083    2.8603   -2.0248 H   0  0  0  0  0  0  0  0  0  0  0  0
   -8.0572    3.0222   -3.7677 H   0  0  0  0  0  0  0  0  0  0  0  0
   -7.7093    4.4954   -2.7859 H   0  0  0  0  0  0  0  0  0  0  0  0
   -5.6505    2.2044   -0.9188 H   0  0  0  0  0  0  0  0  0  0  0  0
   -4.9207    0.4994    0.6361 H   0  0  0  0  0  0  0  0  0  0  0  0
   -1.6874   -0.6368   -1.6247 H   0  0  0  0  0  0  0  0  0  0  0  0
   -0.1123    0.5130   -3.0679 H   0  0  0  0  0  0  0  0  0  0  0  0
    2.2009    0.8114   -3.9020 H   0  0  0  0  0  0  0  0  0  0  0  0
   -6.7085   -2.0088    0.7165 H   0  0  0  0  0  0  0  0  0  0  0  0
   -8.3291   -5.5061    1.3255 H   0  0  0  0  0  0  0  0  0  0  0  0
  -12.4537   -2.8606    3.3457 H   0  0  0  0  0  0  0  0  0  0  0  0
  -12.9555   -0.4346    3.5735 H   0  0  0  0  0  0  0  0  0  0  0  0
   -9.9788    0.4888    0.6073 H   0  0  0  0  0  0  0  0  0  0  0  0
  1  2  2  3
  2  3  1  0
  3  4  2  0
  3  5  1  0
  5  6  2  0
  6  7  1  0
  7  8  2  0
  8  9  1  0
  9 10  2  0
 10 11  1  0
 11 12  2  3
 12 13  1  0
 13 14  3  0
 12 15  1  0
 15 16  3  0
  8 17  1  0
 17 18  1  0
 18 19  1  0
 19 20  2  0
 20 21  1  0
 21 22  1  0
 21 23  1  0
  1 24  1  0
 24 25  1  0
 25 26  1  0
 26 27  1  0
 27 28  2  0
 28 29  1  0
 29 30  1  0
 30 31  1  0
 29 32  1  0
 32 33  2  0
 33 34  1  0
 34 35  2  0
 35 36  1  0
 36 37  1  0
 37 38  1  0
 35 39  1  0
 39 40  2  0
 29 41  1  0
 41 42  2  0
 42 43  1  0
 43 44  2  0
 44 45  1  0
 45 46  1  0
 46 47  1  0
 44 48  1  0
 48 49  2  0
 28 50  1  0
 50 51  2  0
 51 52  1  0
 52 53  2  0
 53 54  1  0
 54 55  2  0
 55 56  1  0
 56 57  2  0
 57 58  1  0
 58 59  1  0
 59 60  2  0
 60 61  1  0
 61 62  2  0
 62 63  1  0
 63 64  1  0
 64 65  1  0
 62 66  1  0
 66 67  2  0
 58 68  1  0
 68 69  2  0
 69 70  1  0
 70 71  2  0
 71 72  1  0
 72 73  1  0
 73 74  1  0
 71 75  1  0
 75 76  2  0
 58 77  1  0
 77 78  2  0
 78 79  1  0
 79 80  2  0
 80 81  1  0
 81 82  2  0
 57 83  1  0
 83 84  2  0
 84 85  1  0
 84 86  1  0
 86 87  2  3
 87 88  1  0
 88 89  2  0
 88 90  1  0
 90 91  2  0
 91 92  1  0
 92 93  2  0
 93 94  1  0
 93 95  1  0
 95 96  2  0
 96 97  1  0
 97 98  2  3
 98 99  1  0
 99100  3  0
 98101  1  0
101102  3  0
 11  2  1  0
 23 17  1  0
 31 24  2  0
 40 32  1  0
 49 41  1  0
 80 50  1  0
 97 87  1  0
 10  5  1  0
 22 18  1  0
 30 26  2  0
 78 52  1  0
 96 90  1  0
 23  7  1  0
 82 27  1  0
 77 55  1  0
 85 56  1  0
 67 59  1  0
 76 68  1  0
  1103  1  0
  6104  1  0
  9105  1  0
 17106  1  0
 18107  1  0
 19108  1  0
 20109  1  0
 21110  1  0
 22111  1  0
 22112  1  0
 23113  1  0
 31114  1  0
 33115  1  0
 34116  1  0
 37117  1  0
 37118  1  0
 38119  1  0
 38120  1  0
 38121  1  0
 39122  1  0
 40123  1  0
 42124  1  0
 43125  1  0
 46126  1  0
 46127  1  0
 47128  1  0
 47129  1  0
 47130  1  0
 48131  1  0
 49132  1  0
 51133  1  0
 53134  1  0
 54135  1  0
 60136  1  0
 61137  1  0
 64138  1  0
 64139  1  0
 65140  1  0
 65141  1  0
 65142  1  0
 66143  1  0
 67144  1  0
 69145  1  0
 70146  1  0
 73147  1  0
 73148  1  0
 74149  1  0
 74150  1  0
 74151  1  0
 75152  1  0
 76153  1  0
 79154  1  0
 81155  1  0
 82156  1  0
 83157  1  0
 86158  1  0
 91159  1  0
 92160  1  0
 95161  1  0
M  END

