
     RDKit          3D

114127  0  0  0  0  0  0  0  0999 V2000
    6.3316   -1.0116    3.1873 C   0  0  0  0  0  0  0  0  0  0  0  0
    6.0065   -2.2078    3.7095 C   0  0  0  0  0  0  0  0  0  0  0  0
    4.7893   -2.9593    3.4024 C   0  0  0  0  0  0  0  0  0  0  0  0
    4.1147   -2.8783    2.3417 O   0  0  0  0  0  0  0  0  0  0  0  0
    4.5219   -3.8689    4.4918 C   0  0  0  0  0  0  0  0  0  0  0  0
    3.4147   -4.7430    4.6090 C   0  0  0  0  0  0  0  0  0  0  0  0
    3.4157   -5.4775    5.7822 C   0  0  0  0  0  0  0  0  0  0  0  0
    4.4351   -5.3662    6.7816 C   0  0  0  0  0  0  0  0  0  0  0  0
    5.5251   -4.5150    6.6665 C   0  0  0  0  0  0  0  0  0  0  0  0
    5.5634   -3.7627    5.4542 C   0  0  0  0  0  0  0  0  0  0  0  0
    6.6011   -2.8200    4.9371 C   0  0  0  0  0  0  0  0  0  0  0  0
    7.8903   -2.7147    5.3430 C   0  0  0  0  0  0  0  0  0  0  0  0
    8.8984   -2.1812    4.4698 C   0  0  0  0  0  0  0  0  0  0  0  0
    9.7234   -1.7736    3.7680 N   0  0  0  0  0  0  0  0  0  0  0  0
    8.3745   -3.3057    6.5599 C   0  0  0  0  0  0  0  0  0  0  0  0
    8.7786   -3.7755    7.5383 N   0  0  0  0  0  0  0  0  0  0  0  0
    3.7343   -6.3757    7.6366 C   0  0  0  0  0  0  0  0  0  0  0  0
    2.9593   -5.8344    8.8767 C   0  0  0  0  0  0  0  0  0  0  0  0
    2.0387   -6.9536    9.3122 C   0  0  0  0  0  0  0  0  0  0  0  0
    1.0875   -7.0539    8.3694 C   0  0  0  0  0  0  0  0  0  0  0  0
    1.4016   -6.0020    7.3364 C   0  0  0  0  0  0  0  0  0  0  0  0
    1.9211   -4.9093    8.2615 C   0  0  0  0  0  0  0  0  0  0  0  0
    2.6913   -6.4936    6.6099 C   0  0  0  0  0  0  0  0  0  0  0  0
    5.3817   -0.2283    2.3748 C   0  0  0  0  0  0  0  0  0  0  0  0
    4.1201    0.1592    2.8312 C   0  0  0  0  0  0  0  0  0  0  0  0
    3.5703    0.8170    1.7550 C   0  0  0  0  0  0  0  0  0  0  0  0
    4.4354    0.7837    0.7305 C   0  0  0  0  0  0  0  0  0  0  0  0
    5.5784    0.1389    1.0744 N   0  0  0  0  0  0  0  0  0  0  0  0
    6.6972   -0.2832    0.2330 C   0  0  0  0  0  0  0  0  0  0  0  0
    6.4447   -1.6784   -0.3301 C   0  0  0  0  0  0  0  0  0  0  0  0
    3.6999    0.9733   -0.4320 C   0  0  0  0  0  0  0  0  0  0  0  0
    3.9551    0.7616   -1.8055 C   0  0  0  0  0  0  0  0  0  0  0  0
    2.8598    0.8190   -2.7282 C   0  0  0  0  0  0  0  0  0  0  0  0
    3.1345    0.5786   -4.0314 N   0  0  0  0  0  0  0  0  0  0  0  0
    4.7629    0.3052   -3.9235 S   0  0  0  0  0  0  0  0  0  0  0  0
    5.1680    0.4740   -2.3272 N   0  0  0  0  0  0  0  0  0  0  0  0
    1.5766    1.0859   -2.2388 C   0  0  0  0  0  0  0  0  0  0  0  0
    0.3878    1.3413   -2.8649 C   0  0  0  0  0  0  0  0  0  0  0  0
   -0.1087    1.7220   -4.4430 S   0  0  0  0  0  0  0  0  0  0  0  0
   -1.5553    2.4143   -3.8602 C   0  0  0  0  0  0  0  0  0  0  0  0
   -2.5957    3.1324   -4.4642 C   0  0  0  0  0  0  0  0  0  0  0  0
   -2.5822    3.5465   -5.9139 C   0  0  0  0  0  0  0  0  0  0  0  0
   -2.5395    2.3463   -6.8645 C   0  0  0  0  0  0  0  0  0  0  0  0
   -3.5019    3.6174   -3.4865 C   0  0  0  0  0  0  0  0  0  0  0  0
   -2.9387    3.2202   -1.9292 S   0  0  0  0  0  0  0  0  0  0  0  0
   -1.5991    2.3858   -2.4877 C   0  0  0  0  0  0  0  0  0  0  0  0
   -0.4807    1.7906   -1.9193 C   0  0  0  0  0  0  0  0  0  0  0  0
    0.0983    1.8993   -0.6953 N   0  0  0  0  0  0  0  0  0  0  0  0
    1.3401    1.3545   -0.8916 C   0  0  0  0  0  0  0  0  0  0  0  0
    2.3891    1.2161    0.0319 C   0  0  0  0  0  0  0  0  0  0  0  0
    2.2861    1.0099    1.3823 N   0  0  0  0  0  0  0  0  0  0  0  0
    1.1510    0.3811    2.0791 C   0  0  0  0  0  0  0  0  0  0  0  0
    0.9869   -1.0746    1.6588 C   0  0  0  0  0  0  0  0  0  0  0  0
   -0.2020    2.9913    0.2453 C   0  0  0  0  0  0  0  0  0  0  0  0
    0.1581    4.3487   -0.3628 C   0  0  0  0  0  0  0  0  0  0  0  0
   -4.6306    4.5481   -3.6900 C   0  0  0  0  0  0  0  0  0  0  0  0
   -5.6683    4.3429   -4.5170 C   0  0  0  0  0  0  0  0  0  0  0  0
   -6.8663    5.4783   -4.8039 S   0  0  0  0  0  0  0  0  0  0  0  0
   -7.7154    4.5481   -5.9355 C   0  0  0  0  0  0  0  0  0  0  0  0
   -8.8305    5.0163   -6.5594 C   0  0  0  0  0  0  0  0  0  0  0  0
   -9.6411    4.2758   -7.4886 C   0  0  0  0  0  0  0  0  0  0  0  0
  -10.3087    3.6941   -8.2347 N   0  0  0  0  0  0  0  0  0  0  0  0
   -9.2884    6.3607   -6.3120 C   0  0  0  0  0  0  0  0  0  0  0  0
   -9.6552    7.4430   -6.1255 N   0  0  0  0  0  0  0  0  0  0  0  0
   -7.0808    3.3298   -6.0893 N   0  0  0  0  0  0  0  0  0  0  0  0
   -7.4143    2.2346   -7.0197 C   0  0  0  0  0  0  0  0  0  0  0  0
   -8.0936    1.0947   -6.3008 C   0  0  0  0  0  0  0  0  0  0  0  0
   -7.4273   -0.1339   -6.1519 C   0  0  0  0  0  0  0  0  0  0  0  0
   -8.0591   -1.2052   -5.5116 C   0  0  0  0  0  0  0  0  0  0  0  0
   -9.3507   -1.0510   -4.9946 C   0  0  0  0  0  0  0  0  0  0  0  0
  -10.0056    0.1737   -5.1107 C   0  0  0  0  0  0  0  0  0  0  0  0
   -9.3860    1.2433   -5.7702 C   0  0  0  0  0  0  0  0  0  0  0  0
   -5.9827    3.2167   -5.2717 C   0  0  0  0  0  0  0  0  0  0  0  0
   -5.3072    2.1483   -5.2086 O   0  0  0  0  0  0  0  0  0  0  0  0
    7.2103   -0.4859    3.5310 H   0  0  0  0  0  0  0  0  0  0  0  0
    2.6256   -4.8254    3.8658 H   0  0  0  0  0  0  0  0  0  0  0  0
    6.2558   -4.4499    7.4523 H   0  0  0  0  0  0  0  0  0  0  0  0
    4.3232   -7.3059    7.8078 H   0  0  0  0  0  0  0  0  0  0  0  0
    3.5814   -5.3931    9.6870 H   0  0  0  0  0  0  0  0  0  0  0  0
    2.0858   -7.5326   10.2278 H   0  0  0  0  0  0  0  0  0  0  0  0
    0.2374   -7.7247    8.3898 H   0  0  0  0  0  0  0  0  0  0  0  0
    0.5542   -5.7167    6.6728 H   0  0  0  0  0  0  0  0  0  0  0  0
    2.3475   -4.0270    7.7351 H   0  0  0  0  0  0  0  0  0  0  0  0
    1.1562   -4.5490    8.9904 H   0  0  0  0  0  0  0  0  0  0  0  0
    2.6213   -7.4942    6.1272 H   0  0  0  0  0  0  0  0  0  0  0  0
    3.6379   -0.1067    3.7687 H   0  0  0  0  0  0  0  0  0  0  0  0
    6.8671    0.4517   -0.5748 H   0  0  0  0  0  0  0  0  0  0  0  0
    7.6338   -0.3001    0.8326 H   0  0  0  0  0  0  0  0  0  0  0  0
    6.4423   -2.4229    0.4929 H   0  0  0  0  0  0  0  0  0  0  0  0
    7.2449   -1.9386   -1.0561 H   0  0  0  0  0  0  0  0  0  0  0  0
    5.4618   -1.7239   -0.8490 H   0  0  0  0  0  0  0  0  0  0  0  0
   -1.6942    4.1874   -6.1073 H   0  0  0  0  0  0  0  0  0  0  0  0
   -3.4778    4.1546   -6.1651 H   0  0  0  0  0  0  0  0  0  0  0  0
   -2.8135    2.6770   -7.8876 H   0  0  0  0  0  0  0  0  0  0  0  0
   -1.5215    1.9076   -6.9022 H   0  0  0  0  0  0  0  0  0  0  0  0
   -3.2540    1.5573   -6.5457 H   0  0  0  0  0  0  0  0  0  0  0  0
    1.3014    0.4383    3.1804 H   0  0  0  0  0  0  0  0  0  0  0  0
    0.2026    0.8947    1.8693 H   0  0  0  0  0  0  0  0  0  0  0  0
    0.7147   -1.1270    0.5847 H   0  0  0  0  0  0  0  0  0  0  0  0
    0.1806   -1.5548    2.2483 H   0  0  0  0  0  0  0  0  0  0  0  0
    1.9277   -1.6344    1.8196 H   0  0  0  0  0  0  0  0  0  0  0  0
   -1.2798    2.9704    0.5284 H   0  0  0  0  0  0  0  0  0  0  0  0
    0.4127    2.9144    1.1560 H   0  0  0  0  0  0  0  0  0  0  0  0
   -0.4917    4.5924   -1.2269 H   0  0  0  0  0  0  0  0  0  0  0  0
    0.0321    5.1445    0.3937 H   0  0  0  0  0  0  0  0  0  0  0  0
    1.2151    4.3486   -0.7027 H   0  0  0  0  0  0  0  0  0  0  0  0
   -4.6313    5.4491   -3.0782 H   0  0  0  0  0  0  0  0  0  0  0  0
   -7.9944    2.5555   -7.8967 H   0  0  0  0  0  0  0  0  0  0  0  0
   -6.4744    1.8741   -7.4925 H   0  0  0  0  0  0  0  0  0  0  0  0
   -6.4246   -0.2700   -6.5445 H   0  0  0  0  0  0  0  0  0  0  0  0
   -7.5467   -2.1527   -5.4163 H   0  0  0  0  0  0  0  0  0  0  0  0
   -9.8322   -1.8821   -4.4962 H   0  0  0  0  0  0  0  0  0  0  0  0
  -10.9994    0.2954   -4.7007 H   0  0  0  0  0  0  0  0  0  0  0  0
   -9.9138    2.1838   -5.8449 H   0  0  0  0  0  0  0  0  0  0  0  0
  1  2  2  3
  2  3  1  0
  3  4  2  0
  3  5  1  0
  5  6  2  0
  6  7  1  0
  7  8  2  0
  8  9  1  0
  9 10  2  0
 10 11  1  0
 11 12  2  3
 12 13  1  0
 13 14  3  0
 12 15  1  0
 15 16  3  0
  8 17  1  0
 17 18  1  0
 18 19  1  0
 19 20  2  0
 20 21  1  0
 21 22  1  0
 21 23  1  0
  1 24  1  0
 24 25  2  0
 25 26  1  0
 26 27  2  0
 27 28  1  0
 28 29  1  0
 29 30  1  0
 27 31  1  0
 31 32  1  0
 32 33  1  0
 33 34  2  0
 34 35  1  0
 35 36  1  0
 33 37  1  0
 37 38  1  0
 38 39  1  0
 39 40  1  0
 40 41  1  0
 41 42  1  0
 42 43  1  0
 41 44  2  0
 44 45  1  0
 45 46  1  0
 46 47  1  0
 47 48  1  0
 48 49  1  0
 49 50  1  0
 50 51  1  0
 51 52  1  0
 52 53  1  0
 48 54  1  0
 54 55  1  0
 44 56  1  0
 56 57  2  3
 57 58  1  0
 58 59  1  0
 59 60  2  3
 60 61  1  0
 61 62  3  0
 60 63  1  0
 63 64  3  0
 59 65  1  0
 65 66  1  0
 66 67  1  0
 67 68  2  0
 68 69  1  0
 69 70  2  0
 70 71  1  0
 71 72  2  0
 65 73  1  0
 73 74  2  0
 11  2  1  0
 23 17  1  0
 28 24  1  0
 50 31  2  0
 73 57  1  0
 10  5  1  0
 22 18  1  0
 51 26  1  0
 72 67  1  0
 23  7  1  0
 36 32  2  0
 49 37  2  0
 47 38  2  0
 46 40  2  0
  1 75  1  0
  6 76  1  0
  9 77  1  0
 17 78  1  0
 18 79  1  0
 19 80  1  0
 20 81  1  0
 21 82  1  0
 22 83  1  0
 22 84  1  0
 23 85  1  0
 25 86  1  0
 29 87  1  0
 29 88  1  0
 30 89  1  0
 30 90  1  0
 30 91  1  0
 42 92  1  0
 42 93  1  0
 43 94  1  0
 43 95  1  0
 43 96  1  0
 52 97  1  0
 52 98  1  0
 53 99  1  0
 53100  1  0
 53101  1  0
 54102  1  0
 54103  1  0
 55104  1  0
 55105  1  0
 55106  1  0
 56107  1  0
 66108  1  0
 66109  1  0
 68110  1  0
 69111  1  0
 70112  1  0
 71113  1  0
 72114  1  0
M  END

