
     RDKit          3D

139155  0  0  0  0  0  0  0  0999 V2000
    5.2811    6.4258    0.3013 C   0  0  0  0  0  0  0  0  0  0  0  0
    4.8422    7.3337   -0.5827 C   0  0  0  0  0  0  0  0  0  0  0  0
    4.9322    7.1086   -2.0312 C   0  0  0  0  0  0  0  0  0  0  0  0
    5.7897    6.3888   -2.6141 O   0  0  0  0  0  0  0  0  0  0  0  0
    3.8284    7.7884   -2.6766 C   0  0  0  0  0  0  0  0  0  0  0  0
    3.5076    7.8045   -4.0535 C   0  0  0  0  0  0  0  0  0  0  0  0
    2.3496    8.5054   -4.3491 C   0  0  0  0  0  0  0  0  0  0  0  0
    1.5281    9.1164   -3.3439 C   0  0  0  0  0  0  0  0  0  0  0  0
    1.8362    9.0984   -1.9933 C   0  0  0  0  0  0  0  0  0  0  0  0
    3.0553    8.4418   -1.6833 C   0  0  0  0  0  0  0  0  0  0  0  0
    3.7415    8.3041   -0.3771 C   0  0  0  0  0  0  0  0  0  0  0  0
    3.6992    9.1934    0.6449 C   0  0  0  0  0  0  0  0  0  0  0  0
    2.7432   10.2672    0.6979 C   0  0  0  0  0  0  0  0  0  0  0  0
    1.9756   11.1326    0.7521 N   0  0  0  0  0  0  0  0  0  0  0  0
    4.7040    9.1878    1.6819 C   0  0  0  0  0  0  0  0  0  0  0  0
    5.5075    9.1830    2.5154 N   0  0  0  0  0  0  0  0  0  0  0  0
    0.5618    9.5815   -4.3935 C   0  0  0  0  0  0  0  0  0  0  0  0
   -0.7860    8.8108   -4.5419 C   0  0  0  0  0  0  0  0  0  0  0  0
   -0.6013    7.3531   -4.1792 C   0  0  0  0  0  0  0  0  0  0  0  0
    0.1662    6.8162   -5.1292 C   0  0  0  0  0  0  0  0  0  0  0  0
    0.4875    7.9290   -6.1027 C   0  0  0  0  0  0  0  0  0  0  0  0
   -0.8332    8.6775   -6.0549 C   0  0  0  0  0  0  0  0  0  0  0  0
    1.4160    8.9802   -5.4254 C   0  0  0  0  0  0  0  0  0  0  0  0
    4.4569    5.2475    0.6614 C   0  0  0  0  0  0  0  0  0  0  0  0
    3.2897    5.1624    1.4623 C   0  0  0  0  0  0  0  0  0  0  0  0
    2.5358    6.2995    2.0877 C   0  0  0  0  0  0  0  0  0  0  0  0
    1.3320    6.6829    1.2301 C   0  0  0  0  0  0  0  0  0  0  0  0
    2.8726    3.8330    1.5975 C   0  0  0  0  0  0  0  0  0  0  0  0
    1.5502    3.0848    2.3872 S   0  0  0  0  0  0  0  0  0  0  0  0
    2.0439    1.5621    1.8194 C   0  0  0  0  0  0  0  0  0  0  0  0
    1.6650    0.2502    1.8733 C   0  0  0  0  0  0  0  0  0  0  0  0
    0.6363   -0.3873    2.5788 C   0  0  0  0  0  0  0  0  0  0  0  0
   -0.2133    0.2914    3.3920 N   0  0  0  0  0  0  0  0  0  0  0  0
   -1.1957   -0.3522    4.0873 C   0  0  0  0  0  0  0  0  0  0  0  0
   -2.0365    0.4288    5.0140 C   0  0  0  0  0  0  0  0  0  0  0  0
   -2.4243   -0.0164    6.5950 S   0  0  0  0  0  0  0  0  0  0  0  0
   -3.2986    1.3686    6.9662 C   0  0  0  0  0  0  0  0  0  0  0  0
   -3.9114    1.6674    8.3040 C   0  0  0  0  0  0  0  0  0  0  0  0
   -4.9596    0.6249    8.6803 C   0  0  0  0  0  0  0  0  0  0  0  0
   -3.2786    2.2095    5.8556 C   0  0  0  0  0  0  0  0  0  0  0  0
   -2.5601    1.6941    4.7706 C   0  0  0  0  0  0  0  0  0  0  0  0
   -3.8874    3.4210    5.8261 F   0  0  0  0  0  0  0  0  0  0  0  0
   -1.3346   -1.7528    3.9426 C   0  0  0  0  0  0  0  0  0  0  0  0
   -2.4307   -2.5029    4.5703 C   0  0  0  0  0  0  0  0  0  0  0  0
   -2.2919   -3.4237    5.6049 C   0  0  0  0  0  0  0  0  0  0  0  0
   -3.5218   -3.9351    6.0392 C   0  0  0  0  0  0  0  0  0  0  0  0
   -3.6372   -4.8080    7.0741 F   0  0  0  0  0  0  0  0  0  0  0  0
   -4.6195   -3.4309    5.3399 C   0  0  0  0  0  0  0  0  0  0  0  0
   -6.0539   -3.7529    5.6142 C   0  0  0  0  0  0  0  0  0  0  0  0
   -6.7347   -2.6163    6.3709 C   0  0  0  0  0  0  0  0  0  0  0  0
   -4.0653   -2.3233    4.1954 S   0  0  0  0  0  0  0  0  0  0  0  0
   -0.4755   -2.4276    3.1324 N   0  0  0  0  0  0  0  0  0  0  0  0
    0.5118   -1.7865    2.4601 C   0  0  0  0  0  0  0  0  0  0  0  0
    1.3659   -2.4655    1.5759 C   0  0  0  0  0  0  0  0  0  0  0  0
    1.2208   -3.7102    1.0279 C   0  0  0  0  0  0  0  0  0  0  0  0
    0.0116   -4.9022    1.0307 S   0  0  0  0  0  0  0  0  0  0  0  0
    0.6033   -5.5540   -0.4274 C   0  0  0  0  0  0  0  0  0  0  0  0
    0.1181   -6.5405   -1.2891 C   0  0  0  0  0  0  0  0  0  0  0  0
   -1.1603   -7.2955   -1.0443 C   0  0  0  0  0  0  0  0  0  0  0  0
   -2.3622   -6.5147   -1.5632 C   0  0  0  0  0  0  0  0  0  0  0  0
    0.8662   -6.5623   -2.4846 C   0  0  0  0  0  0  0  0  0  0  0  0
    2.0420   -5.3362   -2.4557 S   0  0  0  0  0  0  0  0  0  0  0  0
    1.6571   -4.8186   -0.9092 C   0  0  0  0  0  0  0  0  0  0  0  0
    2.0124   -3.7603   -0.0733 C   0  0  0  0  0  0  0  0  0  0  0  0
    2.7056   -2.6066   -0.2742 N   0  0  0  0  0  0  0  0  0  0  0  0
    3.2737   -2.1986   -1.5646 C   0  0  0  0  0  0  0  0  0  0  0  0
    2.4103   -1.1456   -2.2511 C   0  0  0  0  0  0  0  0  0  0  0  0
    2.3474   -1.8170    0.8013 C   0  0  0  0  0  0  0  0  0  0  0  0
    2.5799   -0.4373    1.0539 C   0  0  0  0  0  0  0  0  0  0  0  0
    3.5750    0.4125    0.6170 N   0  0  0  0  0  0  0  0  0  0  0  0
    3.1675    1.6203    1.0712 C   0  0  0  0  0  0  0  0  0  0  0  0
    3.6538    2.9120    0.9523 C   0  0  0  0  0  0  0  0  0  0  0  0
    4.9135    3.6732    0.1685 S   0  0  0  0  0  0  0  0  0  0  0  0
    4.9467    0.1342    0.1661 C   0  0  0  0  0  0  0  0  0  0  0  0
    5.5921   -1.0192    0.9380 C   0  0  0  0  0  0  0  0  0  0  0  0
    0.5455   -7.3116   -3.7070 C   0  0  0  0  0  0  0  0  0  0  0  0
    0.6326   -8.6491   -3.8148 C   0  0  0  0  0  0  0  0  0  0  0  0
    0.9036   -9.5855   -2.7198 C   0  0  0  0  0  0  0  0  0  0  0  0
    1.4345   -9.3037   -1.6116 O   0  0  0  0  0  0  0  0  0  0  0  0
    0.4483  -10.9039   -3.1276 C   0  0  0  0  0  0  0  0  0  0  0  0
    0.3593  -12.0818   -2.3737 C   0  0  0  0  0  0  0  0  0  0  0  0
    0.9070  -12.1634   -0.7053 Cl  0  0  0  0  0  0  0  0  0  0  0  0
   -0.2088  -13.2160   -2.9754 C   0  0  0  0  0  0  0  0  0  0  0  0
   -0.6940  -13.1536   -4.2930 C   0  0  0  0  0  0  0  0  0  0  0  0
   -1.5010  -14.6941   -5.0873 Br  0  0  0  0  0  0  0  0  0  0  0  0
   -0.6007  -11.9632   -5.0308 C   0  0  0  0  0  0  0  0  0  0  0  0
   -0.0007  -10.8407   -4.4400 C   0  0  0  0  0  0  0  0  0  0  0  0
    0.2178   -9.4721   -4.9842 C   0  0  0  0  0  0  0  0  0  0  0  0
    0.3066   -9.1191   -6.2925 C   0  0  0  0  0  0  0  0  0  0  0  0
   -0.0018  -10.0267   -7.3651 C   0  0  0  0  0  0  0  0  0  0  0  0
   -0.2515  -10.7437   -8.2402 N   0  0  0  0  0  0  0  0  0  0  0  0
    0.8741   -7.8640   -6.7051 C   0  0  0  0  0  0  0  0  0  0  0  0
    1.3365   -6.8569   -7.0424 N   0  0  0  0  0  0  0  0  0  0  0  0
    6.2899    6.0891    0.0837 H   0  0  0  0  0  0  0  0  0  0  0  0
    4.1055    7.3177   -4.8143 H   0  0  0  0  0  0  0  0  0  0  0  0
    1.1830    9.5534   -1.2639 H   0  0  0  0  0  0  0  0  0  0  0  0
    0.4795   10.6889   -4.4647 H   0  0  0  0  0  0  0  0  0  0  0  0
   -1.6672    9.3019   -4.0796 H   0  0  0  0  0  0  0  0  0  0  0  0
   -1.0731    6.8154   -3.3636 H   0  0  0  0  0  0  0  0  0  0  0  0
    0.4237    5.7670   -5.2246 H   0  0  0  0  0  0  0  0  0  0  0  0
    0.8041    7.5944   -7.1119 H   0  0  0  0  0  0  0  0  0  0  0  0
   -1.7009    8.0751   -6.4230 H   0  0  0  0  0  0  0  0  0  0  0  0
   -0.8123    9.6601   -6.5899 H   0  0  0  0  0  0  0  0  0  0  0  0
    1.8645    9.7268   -6.1193 H   0  0  0  0  0  0  0  0  0  0  0  0
    3.2083    7.1532    2.2390 H   0  0  0  0  0  0  0  0  0  0  0  0
    2.1803    6.0009    3.0937 H   0  0  0  0  0  0  0  0  0  0  0  0
    1.5998    6.7081    0.1532 H   0  0  0  0  0  0  0  0  0  0  0  0
    0.9635    7.6841    1.5303 H   0  0  0  0  0  0  0  0  0  0  0  0
    0.5163    5.9403    1.3653 H   0  0  0  0  0  0  0  0  0  0  0  0
   -3.1096    1.6811    9.0722 H   0  0  0  0  0  0  0  0  0  0  0  0
   -4.3907    2.6684    8.2885 H   0  0  0  0  0  0  0  0  0  0  0  0
   -5.7892    0.6304    7.9417 H   0  0  0  0  0  0  0  0  0  0  0  0
   -4.5056   -0.3932    8.7195 H   0  0  0  0  0  0  0  0  0  0  0  0
   -5.3729    0.8602    9.6829 H   0  0  0  0  0  0  0  0  0  0  0  0
   -2.4294    2.2271    3.8381 H   0  0  0  0  0  0  0  0  0  0  0  0
   -1.3416   -3.6935    6.0506 H   0  0  0  0  0  0  0  0  0  0  0  0
   -6.1190   -4.6849    6.2142 H   0  0  0  0  0  0  0  0  0  0  0  0
   -6.5805   -3.9277    4.6544 H   0  0  0  0  0  0  0  0  0  0  0  0
   -6.7970   -1.7121    5.7277 H   0  0  0  0  0  0  0  0  0  0  0  0
   -7.7534   -2.9309    6.6609 H   0  0  0  0  0  0  0  0  0  0  0  0
   -6.1648   -2.3694    7.2931 H   0  0  0  0  0  0  0  0  0  0  0  0
   -1.1348   -8.2872   -1.5371 H   0  0  0  0  0  0  0  0  0  0  0  0
   -1.2848   -7.4762    0.0464 H   0  0  0  0  0  0  0  0  0  0  0  0
   -2.2771   -6.3648   -2.6629 H   0  0  0  0  0  0  0  0  0  0  0  0
   -3.2962   -7.0838   -1.3539 H   0  0  0  0  0  0  0  0  0  0  0  0
   -2.4298   -5.5245   -1.0641 H   0  0  0  0  0  0  0  0  0  0  0  0
    4.3149   -1.8771   -1.4475 H   0  0  0  0  0  0  0  0  0  0  0  0
    3.3645   -3.0631   -2.2411 H   0  0  0  0  0  0  0  0  0  0  0  0
    2.3505   -0.2200   -1.6508 H   0  0  0  0  0  0  0  0  0  0  0  0
    2.8499   -0.8911   -3.2377 H   0  0  0  0  0  0  0  0  0  0  0  0
    1.3846   -1.5452   -2.4061 H   0  0  0  0  0  0  0  0  0  0  0  0
    5.5914    1.0143    0.3714 H   0  0  0  0  0  0  0  0  0  0  0  0
    4.9876    0.0163   -0.9307 H   0  0  0  0  0  0  0  0  0  0  0  0
    5.5645   -0.8079    2.0282 H   0  0  0  0  0  0  0  0  0  0  0  0
    5.0778   -1.9814    0.7464 H   0  0  0  0  0  0  0  0  0  0  0  0
    6.6513   -1.1285    0.6210 H   0  0  0  0  0  0  0  0  0  0  0  0
    0.2240   -6.7144   -4.5444 H   0  0  0  0  0  0  0  0  0  0  0  0
   -0.2917  -14.1399   -2.4153 H   0  0  0  0  0  0  0  0  0  0  0  0
   -1.0266  -11.9301   -6.0194 H   0  0  0  0  0  0  0  0  0  0  0  0
  1  2  2  3
  2  3  1  0
  3  4  2  0
  3  5  1  0
  5  6  2  0
  6  7  1  0
  7  8  2  0
  8  9  1  0
  9 10  2  0
 10 11  1  0
 11 12  2  3
 12 13  1  0
 13 14  3  0
 12 15  1  0
 15 16  3  0
  8 17  1  0
 17 18  1  0
 18 19  1  0
 19 20  2  0
 20 21  1  0
 21 22  1  0
 21 23  1  0
  1 24  1  0
 24 25  2  0
 25 26  1  0
 26 27  1  0
 25 28  1  0
 28 29  1  0
 29 30  1  0
 30 31  1  0
 31 32  2  0
 32 33  1  0
 33 34  2  0
 34 35  1  0
 35 36  1  0
 36 37  1  0
 37 38  1  0
 38 39  1  0
 37 40  2  0
 40 41  1  0
 40 42  1  0
 34 43  1  0
 43 44  1  0
 44 45  2  0
 45 46  1  0
 46 47  1  0
 46 48  2  0
 48 49  1  0
 49 50  1  0
 48 51  1  0
 43 52  2  0
 52 53  1  0
 53 54  2  0
 54 55  1  0
 55 56  1  0
 56 57  1  0
 57 58  1  0
 58 59  1  0
 59 60  1  0
 58 61  2  0
 61 62  1  0
 62 63  1  0
 63 64  1  0
 64 65  1  0
 65 66  1  0
 66 67  1  0
 65 68  1  0
 68 69  2  0
 69 70  1  0
 70 71  1  0
 71 72  1  0
 72 73  1  0
 70 74  1  0
 74 75  1  0
 61 76  1  0
 76 77  2  3
 77 78  1  0
 78 79  2  0
 78 80  1  0
 80 81  2  0
 81 82  1  0
 81 83  1  0
 83 84  2  0
 84 85  1  0
 84 86  1  0
 86 87  2  0
 87 88  1  0
 88 89  2  3
 89 90  1  0
 90 91  3  0
 89 92  1  0
 92 93  3  0
 11  2  1  0
 23 17  1  0
 73 24  1  0
 88 77  1  0
 10  5  1  0
 22 18  1  0
 72 28  2  0
 87 80  1  0
 23  7  1  0
 71 30  2  0
 69 31  1  0
 53 32  1  0
 68 54  1  0
 41 35  2  0
 51 44  1  0
 64 55  2  0
 63 57  2  0
  1 94  1  0
  6 95  1  0
  9 96  1  0
 17 97  1  0
 18 98  1  0
 19 99  1  0
 20100  1  0
 21101  1  0
 22102  1  0
 22103  1  0
 23104  1  0
 26105  1  0
 26106  1  0
 27107  1  0
 27108  1  0
 27109  1  0
 38110  1  0
 38111  1  0
 39112  1  0
 39113  1  0
 39114  1  0
 41115  1  0
 45116  1  0
 49117  1  0
 49118  1  0
 50119  1  0
 50120  1  0
 50121  1  0
 59122  1  0
 59123  1  0
 60124  1  0
 60125  1  0
 60126  1  0
 66127  1  0
 66128  1  0
 67129  1  0
 67130  1  0
 67131  1  0
 74132  1  0
 74133  1  0
 75134  1  0
 75135  1  0
 75136  1  0
 76137  1  0
 83138  1  0
 86139  1  0
M  END

