
     RDKit          3D

134149  0  0  0  0  0  0  0  0999 V2000
    0.4506   -0.5089   -7.1626 C   0  0  0  0  0  0  0  0  0  0  0  0
   -0.7869   -0.8979   -7.4998 C   0  0  0  0  0  0  0  0  0  0  0  0
   -2.0576   -0.6081   -6.8185 C   0  0  0  0  0  0  0  0  0  0  0  0
   -2.3524    0.4531   -6.2086 O   0  0  0  0  0  0  0  0  0  0  0  0
   -3.0089   -1.6486   -7.1645 C   0  0  0  0  0  0  0  0  0  0  0  0
   -4.3807   -1.7218   -6.8085 C   0  0  0  0  0  0  0  0  0  0  0  0
   -5.0511   -2.7872   -7.3857 C   0  0  0  0  0  0  0  0  0  0  0  0
   -4.4067   -3.7580   -8.2134 C   0  0  0  0  0  0  0  0  0  0  0  0
   -3.0742   -3.6905   -8.5744 C   0  0  0  0  0  0  0  0  0  0  0  0
   -2.3897   -2.5507   -8.0730 C   0  0  0  0  0  0  0  0  0  0  0  0
   -1.0592   -2.0112   -8.4588 C   0  0  0  0  0  0  0  0  0  0  0  0
   -0.4019   -2.2355   -9.6264 C   0  0  0  0  0  0  0  0  0  0  0  0
   -0.7265   -3.3179  -10.5090 C   0  0  0  0  0  0  0  0  0  0  0  0
   -0.9860   -4.1930  -11.2251 N   0  0  0  0  0  0  0  0  0  0  0  0
    0.5202   -1.2676  -10.1522 C   0  0  0  0  0  0  0  0  0  0  0  0
    1.2157   -0.4625  -10.5967 N   0  0  0  0  0  0  0  0  0  0  0  0
   -5.7107   -4.4615   -8.4425 C   0  0  0  0  0  0  0  0  0  0  0  0
   -6.3609   -4.2889   -9.8519 C   0  0  0  0  0  0  0  0  0  0  0  0
   -5.9716   -2.9480  -10.4451 C   0  0  0  0  0  0  0  0  0  0  0  0
   -6.5682   -2.0203   -9.6986 C   0  0  0  0  0  0  0  0  0  0  0  0
   -7.3534   -2.7568   -8.6357 C   0  0  0  0  0  0  0  0  0  0  0  0
   -7.7854   -3.9581   -9.4452 C   0  0  0  0  0  0  0  0  0  0  0  0
   -6.3803   -3.4419   -7.6278 C   0  0  0  0  0  0  0  0  0  0  0  0
    0.9144    0.1764   -5.9321 C   0  0  0  0  0  0  0  0  0  0  0  0
    2.2786    0.4617   -5.6593 C   0  0  0  0  0  0  0  0  0  0  0  0
    3.2486    0.9089   -6.6823 C   0  0  0  0  0  0  0  0  0  0  0  0
    3.6631    2.2488   -6.6678 C   0  0  0  0  0  0  0  0  0  0  0  0
    4.3021    2.8113   -7.7747 C   0  0  0  0  0  0  0  0  0  0  0  0
    4.5216    2.0502   -8.9297 C   0  0  0  0  0  0  0  0  0  0  0  0
    5.0418    2.7078  -10.1880 C   0  0  0  0  0  0  0  0  0  0  0  0
    4.0570    3.7570  -10.7040 C   0  0  0  0  0  0  0  0  0  0  0  0
    4.2187    0.6786   -8.9063 C   0  0  0  0  0  0  0  0  0  0  0  0
    3.6133    0.1049   -7.7756 C   0  0  0  0  0  0  0  0  0  0  0  0
    2.4599    0.7372   -4.3010 C   0  0  0  0  0  0  0  0  0  0  0  0
    3.8449    0.8824   -3.3019 S   0  0  0  0  0  0  0  0  0  0  0  0
    2.8605    0.9798   -1.9158 C   0  0  0  0  0  0  0  0  0  0  0  0
    2.9429    1.1303   -0.5551 C   0  0  0  0  0  0  0  0  0  0  0  0
    4.0313    1.1928    0.3202 C   0  0  0  0  0  0  0  0  0  0  0  0
    3.7760    1.3329    1.7197 C   0  0  0  0  0  0  0  0  0  0  0  0
    4.8556    1.3717    2.5361 N   0  0  0  0  0  0  0  0  0  0  0  0
    6.0706    1.2337    1.4125 S   0  0  0  0  0  0  0  0  0  0  0  0
    5.3323    1.1235   -0.0696 N   0  0  0  0  0  0  0  0  0  0  0  0
    2.4459    1.4013    2.1578 C   0  0  0  0  0  0  0  0  0  0  0  0
    1.9008    1.4060    3.4074 C   0  0  0  0  0  0  0  0  0  0  0  0
    2.3971    1.0383    4.9881 S   0  0  0  0  0  0  0  0  0  0  0  0
    0.7668    0.9391    5.5004 C   0  0  0  0  0  0  0  0  0  0  0  0
    0.1493    0.6018    6.7054 C   0  0  0  0  0  0  0  0  0  0  0  0
    0.8634    0.0622    7.8809 C   0  0  0  0  0  0  0  0  0  0  0  0
    0.3867   -1.0979    8.5077 C   0  0  0  0  0  0  0  0  0  0  0  0
    1.1465   -1.7361    9.4867 C   0  0  0  0  0  0  0  0  0  0  0  0
    2.4077   -1.2300    9.8537 C   0  0  0  0  0  0  0  0  0  0  0  0
    3.2848   -2.0423   10.7732 C   0  0  0  0  0  0  0  0  0  0  0  0
    3.8119   -3.2898   10.0550 C   0  0  0  0  0  0  0  0  0  0  0  0
    2.8573   -0.0248    9.2804 C   0  0  0  0  0  0  0  0  0  0  0  0
    2.0804    0.6296    8.3144 C   0  0  0  0  0  0  0  0  0  0  0  0
   -1.2526    0.6967    6.5831 C   0  0  0  0  0  0  0  0  0  0  0  0
   -1.6828    1.0370    4.9797 S   0  0  0  0  0  0  0  0  0  0  0  0
   -0.0964    1.1434    4.4572 C   0  0  0  0  0  0  0  0  0  0  0  0
    0.5525    1.3563    3.2553 C   0  0  0  0  0  0  0  0  0  0  0  0
    0.1668    1.2081    1.9626 N   0  0  0  0  0  0  0  0  0  0  0  0
    1.3519    1.3294    1.2783 C   0  0  0  0  0  0  0  0  0  0  0  0
    1.6120    1.2344   -0.1117 C   0  0  0  0  0  0  0  0  0  0  0  0
    0.7353    1.2333   -1.1611 N   0  0  0  0  0  0  0  0  0  0  0  0
    1.5443    0.9591   -2.2145 C   0  0  0  0  0  0  0  0  0  0  0  0
    1.3119    0.7893   -3.5645 C   0  0  0  0  0  0  0  0  0  0  0  0
    0.0064    0.3480   -4.4979 S   0  0  0  0  0  0  0  0  0  0  0  0
   -0.4381    2.1141   -1.2895 C   0  0  0  0  0  0  0  0  0  0  0  0
   -0.0635    3.4436   -1.9446 C   0  0  0  0  0  0  0  0  0  0  0  0
   -1.0332    0.4635    1.5429 C   0  0  0  0  0  0  0  0  0  0  0  0
   -0.9771   -0.9869    2.0139 C   0  0  0  0  0  0  0  0  0  0  0  0
   -2.2336    0.5850    7.6866 C   0  0  0  0  0  0  0  0  0  0  0  0
   -2.4811    1.5595    8.6007 C   0  0  0  0  0  0  0  0  0  0  0  0
   -1.6951    2.8471    8.6217 C   0  0  0  0  0  0  0  0  0  0  0  0
   -0.5754    2.9176    8.0418 O   0  0  0  0  0  0  0  0  0  0  0  0
   -2.1449    3.9791    9.3947 N   0  0  0  0  0  0  0  0  0  0  0  0
   -1.3673    5.2238    9.4160 C   0  0  0  0  0  0  0  0  0  0  0  0
   -0.3690    5.2081   10.5663 C   0  0  0  0  0  0  0  0  0  0  0  0
   -3.3367    3.8617   10.1751 C   0  0  0  0  0  0  0  0  0  0  0  0
   -3.5697    4.6817   11.1034 O   0  0  0  0  0  0  0  0  0  0  0  0
   -4.3089    2.7718    9.8480 C   0  0  0  0  0  0  0  0  0  0  0  0
   -5.4357    2.7459   10.8018 C   0  0  0  0  0  0  0  0  0  0  0  0
   -6.3701    2.7615   11.5042 N   0  0  0  0  0  0  0  0  0  0  0  0
   -3.5850    1.4096    9.6714 C   0  0  0  0  0  0  0  0  0  0  0  0
   -4.6501    0.3150    9.3711 C   0  0  0  0  0  0  0  0  0  0  0  0
    1.2406   -0.9334   -7.7528 H   0  0  0  0  0  0  0  0  0  0  0  0
   -4.8794   -0.9769   -6.2016 H   0  0  0  0  0  0  0  0  0  0  0  0
   -2.6517   -4.4176   -9.2508 H   0  0  0  0  0  0  0  0  0  0  0  0
   -5.7556   -5.4916   -8.0194 H   0  0  0  0  0  0  0  0  0  0  0  0
   -6.2380   -5.1587  -10.5363 H   0  0  0  0  0  0  0  0  0  0  0  0
   -5.3693   -2.7712  -11.3298 H   0  0  0  0  0  0  0  0  0  0  0  0
   -6.5273   -0.9460   -9.8696 H   0  0  0  0  0  0  0  0  0  0  0  0
   -8.1833   -2.1676   -8.1724 H   0  0  0  0  0  0  0  0  0  0  0  0
   -8.2761   -4.7639   -8.8407 H   0  0  0  0  0  0  0  0  0  0  0  0
   -8.4448   -3.7028  -10.3183 H   0  0  0  0  0  0  0  0  0  0  0  0
   -6.8649   -3.8508   -6.7120 H   0  0  0  0  0  0  0  0  0  0  0  0
    3.4304    2.8842   -5.8198 H   0  0  0  0  0  0  0  0  0  0  0  0
    4.5611    3.8621   -7.7512 H   0  0  0  0  0  0  0  0  0  0  0  0
    5.1963    1.9494  -10.9814 H   0  0  0  0  0  0  0  0  0  0  0  0
    6.0222    3.1820   -9.9803 H   0  0  0  0  0  0  0  0  0  0  0  0
    4.4113    4.1616  -11.6859 H   0  0  0  0  0  0  0  0  0  0  0  0
    3.9732    4.6111   -9.9834 H   0  0  0  0  0  0  0  0  0  0  0  0
    3.0468    3.3033  -10.8465 H   0  0  0  0  0  0  0  0  0  0  0  0
    4.4186    0.0547   -9.7700 H   0  0  0  0  0  0  0  0  0  0  0  0
    3.4055   -0.9633   -7.7836 H   0  0  0  0  0  0  0  0  0  0  0  0
   -0.5360   -1.5620    8.1878 H   0  0  0  0  0  0  0  0  0  0  0  0
    0.7913   -2.6695    9.9033 H   0  0  0  0  0  0  0  0  0  0  0  0
    4.1423   -1.4319   11.1272 H   0  0  0  0  0  0  0  0  0  0  0  0
    2.6902   -2.3471   11.6538 H   0  0  0  0  0  0  0  0  0  0  0  0
    3.0876   -3.6715    9.3067 H   0  0  0  0  0  0  0  0  0  0  0  0
    3.9699   -4.1027   10.7873 H   0  0  0  0  0  0  0  0  0  0  0  0
    4.7639   -3.0622    9.5252 H   0  0  0  0  0  0  0  0  0  0  0  0
    3.8166    0.3882    9.5625 H   0  0  0  0  0  0  0  0  0  0  0  0
    2.4480    1.5469    7.8740 H   0  0  0  0  0  0  0  0  0  0  0  0
   -1.2199    1.6182   -1.8960 H   0  0  0  0  0  0  0  0  0  0  0  0
   -0.8488    2.3793   -0.2958 H   0  0  0  0  0  0  0  0  0  0  0  0
    0.1424    3.3002   -3.0281 H   0  0  0  0  0  0  0  0  0  0  0  0
    0.8405    3.8750   -1.4637 H   0  0  0  0  0  0  0  0  0  0  0  0
   -0.8975    4.1680   -1.8334 H   0  0  0  0  0  0  0  0  0  0  0  0
   -1.9407    0.9651    1.9359 H   0  0  0  0  0  0  0  0  0  0  0  0
   -1.1166    0.3944    0.4545 H   0  0  0  0  0  0  0  0  0  0  0  0
   -0.8795   -1.0697    3.1119 H   0  0  0  0  0  0  0  0  0  0  0  0
   -0.1165   -1.5077    1.5388 H   0  0  0  0  0  0  0  0  0  0  0  0
   -1.9169   -1.5167    1.7230 H   0  0  0  0  0  0  0  0  0  0  0  0
   -2.7947   -0.3398    7.6606 H   0  0  0  0  0  0  0  0  0  0  0  0
   -0.7975    5.3544    8.4630 H   0  0  0  0  0  0  0  0  0  0  0  0
   -2.0408    6.1130    9.5037 H   0  0  0  0  0  0  0  0  0  0  0  0
    0.1979    6.1617   10.5954 H   0  0  0  0  0  0  0  0  0  0  0  0
   -0.8897    5.0929   11.5402 H   0  0  0  0  0  0  0  0  0  0  0  0
    0.3527    4.3669   10.4400 H   0  0  0  0  0  0  0  0  0  0  0  0
   -4.7488    3.0589    8.8607 H   0  0  0  0  0  0  0  0  0  0  0  0
   -3.0916    1.1330   10.6293 H   0  0  0  0  0  0  0  0  0  0  0  0
   -4.2193   -0.6907    9.1918 H   0  0  0  0  0  0  0  0  0  0  0  0
   -5.3078    0.6377    8.5222 H   0  0  0  0  0  0  0  0  0  0  0  0
   -5.3022    0.1730   10.2656 H   0  0  0  0  0  0  0  0  0  0  0  0
  1  2  2  3
  2  3  1  0
  3  4  2  0
  3  5  1  0
  5  6  2  0
  6  7  1  0
  7  8  2  0
  8  9  1  0
  9 10  2  0
 10 11  1  0
 11 12  2  3
 12 13  1  0
 13 14  3  0
 12 15  1  0
 15 16  3  0
  8 17  1  0
 17 18  1  0
 18 19  1  0
 19 20  2  0
 20 21  1  0
 21 22  1  0
 21 23  1  0
  1 24  1  0
 24 25  2  0
 25 26  1  0
 26 27  2  0
 27 28  1  0
 28 29  2  0
 29 30  1  0
 30 31  1  0
 29 32  1  0
 32 33  2  0
 25 34  1  0
 34 35  1  0
 35 36  1  0
 36 37  1  0
 37 38  1  0
 38 39  1  0
 39 40  2  0
 40 41  1  0
 41 42  1  0
 39 43  1  0
 43 44  1  0
 44 45  1  0
 45 46  1  0
 46 47  1  0
 47 48  1  0
 48 49  2  0
 49 50  1  0
 50 51  2  0
 51 52  1  0
 52 53  1  0
 51 54  1  0
 54 55  2  0
 47 56  2  0
 56 57  1  0
 57 58  1  0
 58 59  1  0
 59 60  1  0
 60 61  1  0
 61 62  1  0
 62 63  1  0
 63 64  1  0
 64 65  1  0
 65 66  1  0
 63 67  1  0
 67 68  1  0
 60 69  1  0
 69 70  1  0
 56 71  1  0
 71 72  2  3
 72 73  1  0
 73 74  2  0
 73 75  1  0
 75 76  1  0
 76 77  1  0
 75 78  1  0
 78 79  2  0
 78 80  1  0
 80 81  1  0
 81 82  3  0
 80 83  1  0
 83 84  1  0
 11  2  1  0
 23 17  1  0
 66 24  1  0
 83 72  1  0
 10  5  1  0
 22 18  1  0
 33 26  1  0
 65 34  2  0
 23  7  1  0
 64 36  2  0
 62 37  2  0
 42 38  2  0
 61 43  2  0
 59 44  2  0
 58 46  2  0
 55 48  1  0
  1 85  1  0
  6 86  1  0
  9 87  1  0
 17 88  1  0
 18 89  1  0
 19 90  1  0
 20 91  1  0
 21 92  1  0
 22 93  1  0
 22 94  1  0
 23 95  1  0
 27 96  1  0
 28 97  1  0
 30 98  1  0
 30 99  1  0
 31100  1  0
 31101  1  0
 31102  1  0
 32103  1  0
 33104  1  0
 49105  1  0
 50106  1  0
 52107  1  0
 52108  1  0
 53109  1  0
 53110  1  0
 53111  1  0
 54112  1  0
 55113  1  0
 67114  1  0
 67115  1  0
 68116  1  0
 68117  1  0
 68118  1  0
 69119  1  0
 69120  1  0
 70121  1  0
 70122  1  0
 70123  1  0
 71124  1  0
 76125  1  0
 76126  1  0
 77127  1  0
 77128  1  0
 77129  1  0
 80130  1  0
 83131  1  0
 84132  1  0
 84133  1  0
 84134  1  0
M  END

