
     RDKit          3D

139155  0  0  0  0  0  0  0  0999 V2000
   -0.8825   -6.1824   -1.0348 C   0  0  0  0  0  0  0  0  0  0  0  0
    0.4478   -5.9664   -1.0174 C   0  0  0  0  0  0  0  0  0  0  0  0
    1.0921   -4.7132   -0.5974 C   0  0  0  0  0  0  0  0  0  0  0  0
    0.5139   -3.6292   -0.3167 O   0  0  0  0  0  0  0  0  0  0  0  0
    2.5034   -4.9504   -0.4212 C   0  0  0  0  0  0  0  0  0  0  0  0
    3.4647   -4.0210    0.0384 C   0  0  0  0  0  0  0  0  0  0  0  0
    4.7323   -4.5514    0.1755 C   0  0  0  0  0  0  0  0  0  0  0  0
    5.0427   -5.9188   -0.1099 C   0  0  0  0  0  0  0  0  0  0  0  0
    4.1020   -6.8373   -0.5502 C   0  0  0  0  0  0  0  0  0  0  0  0
    2.7910   -6.3065   -0.7236 C   0  0  0  0  0  0  0  0  0  0  0  0
    1.5392   -6.9774   -1.1892 C   0  0  0  0  0  0  0  0  0  0  0  0
    1.4509   -8.1580   -1.8578 C   0  0  0  0  0  0  0  0  0  0  0  0
    0.2393   -8.5899   -2.5043 C   0  0  0  0  0  0  0  0  0  0  0  0
   -0.7290   -8.9440   -3.0320 N   0  0  0  0  0  0  0  0  0  0  0  0
    2.5863   -9.0085   -2.0938 C   0  0  0  0  0  0  0  0  0  0  0  0
    3.4881   -9.7047   -2.2974 N   0  0  0  0  0  0  0  0  0  0  0  0
    6.4780   -5.6878    0.2641 C   0  0  0  0  0  0  0  0  0  0  0  0
    7.5254   -5.5890   -0.8864 C   0  0  0  0  0  0  0  0  0  0  0  0
    6.8772   -5.0244   -2.1308 C   0  0  0  0  0  0  0  0  0  0  0  0
    6.5859   -3.7506   -1.8649 C   0  0  0  0  0  0  0  0  0  0  0  0
    7.0453   -3.4903   -0.4488 C   0  0  0  0  0  0  0  0  0  0  0  0
    8.2905   -4.3580   -0.4372 C   0  0  0  0  0  0  0  0  0  0  0  0
    6.1580   -4.2864    0.5563 C   0  0  0  0  0  0  0  0  0  0  0  0
   -1.8589   -5.0868   -0.9602 C   0  0  0  0  0  0  0  0  0  0  0  0
   -2.6777   -4.7872    0.1401 C   0  0  0  0  0  0  0  0  0  0  0  0
   -2.7549   -5.6040    1.3997 C   0  0  0  0  0  0  0  0  0  0  0  0
   -3.7971   -6.7070    1.2577 C   0  0  0  0  0  0  0  0  0  0  0  0
   -3.3486   -3.5761   -0.0585 C   0  0  0  0  0  0  0  0  0  0  0  0
   -4.1776   -2.5401    1.0018 S   0  0  0  0  0  0  0  0  0  0  0  0
   -4.2134   -1.2953   -0.1564 C   0  0  0  0  0  0  0  0  0  0  0  0
   -4.1728    0.0717   -0.0635 C   0  0  0  0  0  0  0  0  0  0  0  0
   -4.2235    0.8820    1.0892 C   0  0  0  0  0  0  0  0  0  0  0  0
   -4.6679    0.4078    2.2796 N   0  0  0  0  0  0  0  0  0  0  0  0
   -4.6557    1.1725    3.4061 C   0  0  0  0  0  0  0  0  0  0  0  0
   -5.0624    0.5313    4.6698 C   0  0  0  0  0  0  0  0  0  0  0  0
   -6.2746   -0.6323    4.8049 S   0  0  0  0  0  0  0  0  0  0  0  0
   -6.0553   -0.9313    6.4453 C   0  0  0  0  0  0  0  0  0  0  0  0
   -6.8047   -1.9512    7.2450 C   0  0  0  0  0  0  0  0  0  0  0  0
   -6.1358   -3.3181    7.1424 C   0  0  0  0  0  0  0  0  0  0  0  0
   -4.9952   -0.1537    6.8955 C   0  0  0  0  0  0  0  0  0  0  0  0
   -4.4330    0.6593    5.9059 C   0  0  0  0  0  0  0  0  0  0  0  0
   -4.5295   -0.1935    8.1682 F   0  0  0  0  0  0  0  0  0  0  0  0
   -4.1832    2.5106    3.3237 C   0  0  0  0  0  0  0  0  0  0  0  0
   -4.2811    3.4728    4.4374 C   0  0  0  0  0  0  0  0  0  0  0  0
   -3.3654    4.4874    4.7024 C   0  0  0  0  0  0  0  0  0  0  0  0
   -3.7594    5.3230    5.7540 C   0  0  0  0  0  0  0  0  0  0  0  0
   -3.0050    6.3602    6.1920 F   0  0  0  0  0  0  0  0  0  0  0  0
   -5.0017    4.9997    6.2881 C   0  0  0  0  0  0  0  0  0  0  0  0
   -5.6614    5.6611    7.4577 C   0  0  0  0  0  0  0  0  0  0  0  0
   -5.3116    4.9354    8.7522 C   0  0  0  0  0  0  0  0  0  0  0  0
   -5.5998    3.6584    5.4736 S   0  0  0  0  0  0  0  0  0  0  0  0
   -3.6939    2.9657    2.1370 N   0  0  0  0  0  0  0  0  0  0  0  0
   -3.6898    2.1877    1.0272 C   0  0  0  0  0  0  0  0  0  0  0  0
   -3.1998    2.6474   -0.2006 C   0  0  0  0  0  0  0  0  0  0  0  0
   -2.5605    3.8038   -0.5609 C   0  0  0  0  0  0  0  0  0  0  0  0
   -1.6618    5.0324    0.1936 S   0  0  0  0  0  0  0  0  0  0  0  0
   -0.9497    5.4640   -1.3022 C   0  0  0  0  0  0  0  0  0  0  0  0
    0.1498    6.2585   -1.6343 C   0  0  0  0  0  0  0  0  0  0  0  0
    0.9224    7.0834   -0.6429 C   0  0  0  0  0  0  0  0  0  0  0  0
    2.0687    6.2745   -0.0435 C   0  0  0  0  0  0  0  0  0  0  0  0
    0.5599    6.0094   -2.9583 C   0  0  0  0  0  0  0  0  0  0  0  0
   -0.4594    4.8514   -3.6893 S   0  0  0  0  0  0  0  0  0  0  0  0
   -1.4008    4.6643   -2.3208 C   0  0  0  0  0  0  0  0  0  0  0  0
   -2.3025    3.7133   -1.8886 C   0  0  0  0  0  0  0  0  0  0  0  0
   -2.7280    2.5530   -2.4352 N   0  0  0  0  0  0  0  0  0  0  0  0
   -3.1285    2.3959   -3.8408 C   0  0  0  0  0  0  0  0  0  0  0  0
   -4.1767    3.4376   -4.2316 C   0  0  0  0  0  0  0  0  0  0  0  0
   -3.2213    1.8680   -1.3616 C   0  0  0  0  0  0  0  0  0  0  0  0
   -3.5835    0.5106   -1.2591 C   0  0  0  0  0  0  0  0  0  0  0  0
   -3.1046   -0.5495   -1.9889 N   0  0  0  0  0  0  0  0  0  0  0  0
   -3.5543   -1.6363   -1.3033 C   0  0  0  0  0  0  0  0  0  0  0  0
   -3.0698   -2.9423   -1.2433 C   0  0  0  0  0  0  0  0  0  0  0  0
   -1.9719   -3.8506   -2.1258 S   0  0  0  0  0  0  0  0  0  0  0  0
   -1.8671   -0.5578   -2.7899 C   0  0  0  0  0  0  0  0  0  0  0  0
   -0.6344   -0.4917   -1.8895 C   0  0  0  0  0  0  0  0  0  0  0  0
    1.7317    6.6107   -3.6138 C   0  0  0  0  0  0  0  0  0  0  0  0
    2.7346    5.8905   -4.1495 C   0  0  0  0  0  0  0  0  0  0  0  0
    3.0036    4.4639   -3.9263 C   0  0  0  0  0  0  0  0  0  0  0  0
    2.2552    3.6514   -3.3199 O   0  0  0  0  0  0  0  0  0  0  0  0
    4.3671    4.1821   -4.3519 C   0  0  0  0  0  0  0  0  0  0  0  0
    5.0999    2.9972   -4.2150 C   0  0  0  0  0  0  0  0  0  0  0  0
    4.3183    1.5080   -3.6817 Cl  0  0  0  0  0  0  0  0  0  0  0  0
    6.4776    3.0255   -4.5041 C   0  0  0  0  0  0  0  0  0  0  0  0
    7.4309    1.5459   -4.3808 Cl  0  0  0  0  0  0  0  0  0  0  0  0
    7.1067    4.2490   -4.8334 C   0  0  0  0  0  0  0  0  0  0  0  0
    8.8558    4.2996   -5.0680 Cl  0  0  0  0  0  0  0  0  0  0  0  0
    6.3486    5.4360   -4.9385 C   0  0  0  0  0  0  0  0  0  0  0  0
    7.1778    6.9932   -4.9909 Cl  0  0  0  0  0  0  0  0  0  0  0  0
    4.9488    5.3565   -4.8021 C   0  0  0  0  0  0  0  0  0  0  0  0
    3.9180    6.4275   -4.8728 C   0  0  0  0  0  0  0  0  0  0  0  0
    3.8647    7.4127   -5.8064 C   0  0  0  0  0  0  0  0  0  0  0  0
    4.8377    7.5163   -6.8630 C   0  0  0  0  0  0  0  0  0  0  0  0
    5.6089    7.6030   -7.7222 N   0  0  0  0  0  0  0  0  0  0  0  0
    2.7162    8.2701   -5.9517 C   0  0  0  0  0  0  0  0  0  0  0  0
    1.7955    8.9616   -6.0763 N   0  0  0  0  0  0  0  0  0  0  0  0
   -1.2811   -7.1827   -1.0705 H   0  0  0  0  0  0  0  0  0  0  0  0
    3.2325   -2.9907    0.2741 H   0  0  0  0  0  0  0  0  0  0  0  0
    4.3767   -7.8647   -0.7060 H   0  0  0  0  0  0  0  0  0  0  0  0
    6.8112   -6.2652    1.1551 H   0  0  0  0  0  0  0  0  0  0  0  0
    8.1387   -6.5000   -1.0486 H   0  0  0  0  0  0  0  0  0  0  0  0
    6.7473   -5.5186   -3.0875 H   0  0  0  0  0  0  0  0  0  0  0  0
    6.1785   -3.0312   -2.5668 H   0  0  0  0  0  0  0  0  0  0  0  0
    7.2050   -2.4208   -0.1966 H   0  0  0  0  0  0  0  0  0  0  0  0
    8.7505   -4.4611    0.5752 H   0  0  0  0  0  0  0  0  0  0  0  0
    9.0672   -4.0267   -1.1670 H   0  0  0  0  0  0  0  0  0  0  0  0
    6.2971   -4.0117    1.6259 H   0  0  0  0  0  0  0  0  0  0  0  0
   -3.0250   -4.9558    2.2610 H   0  0  0  0  0  0  0  0  0  0  0  0
   -1.7648   -6.0565    1.6204 H   0  0  0  0  0  0  0  0  0  0  0  0
   -3.5221   -7.3921    0.4280 H   0  0  0  0  0  0  0  0  0  0  0  0
   -3.8491   -7.2925    2.2001 H   0  0  0  0  0  0  0  0  0  0  0  0
   -4.7976   -6.2677    1.0550 H   0  0  0  0  0  0  0  0  0  0  0  0
   -6.8441   -1.6373    8.3100 H   0  0  0  0  0  0  0  0  0  0  0  0
   -7.8468   -2.0222    6.8681 H   0  0  0  0  0  0  0  0  0  0  0  0
   -6.1305   -3.6665    6.0873 H   0  0  0  0  0  0  0  0  0  0  0  0
   -6.6975   -4.0527    7.7587 H   0  0  0  0  0  0  0  0  0  0  0  0
   -5.0905   -3.2656    7.5166 H   0  0  0  0  0  0  0  0  0  0  0  0
   -3.5790    1.2991    6.0856 H   0  0  0  0  0  0  0  0  0  0  0  0
   -2.4430    4.6194    4.1528 H   0  0  0  0  0  0  0  0  0  0  0  0
   -5.3377    6.7220    7.5280 H   0  0  0  0  0  0  0  0  0  0  0  0
   -6.7633    5.6455    7.3112 H   0  0  0  0  0  0  0  0  0  0  0  0
   -5.8372    5.4198    9.6029 H   0  0  0  0  0  0  0  0  0  0  0  0
   -4.2159    4.9805    8.9353 H   0  0  0  0  0  0  0  0  0  0  0  0
   -5.6304    3.8716    8.6974 H   0  0  0  0  0  0  0  0  0  0  0  0
    0.2479    7.4243    0.1707 H   0  0  0  0  0  0  0  0  0  0  0  0
    1.3288    7.9874   -1.1429 H   0  0  0  0  0  0  0  0  0  0  0  0
    2.7667    5.9395   -0.8401 H   0  0  0  0  0  0  0  0  0  0  0  0
    2.6312    6.9060    0.6773 H   0  0  0  0  0  0  0  0  0  0  0  0
    1.6743    5.3861    0.4938 H   0  0  0  0  0  0  0  0  0  0  0  0
   -3.5904    1.4016   -4.0079 H   0  0  0  0  0  0  0  0  0  0  0  0
   -2.2406    2.5002   -4.4976 H   0  0  0  0  0  0  0  0  0  0  0  0
   -3.7503    4.4612   -4.1755 H   0  0  0  0  0  0  0  0  0  0  0  0
   -5.0539    3.3694   -3.5526 H   0  0  0  0  0  0  0  0  0  0  0  0
   -4.5140    3.2540   -5.2737 H   0  0  0  0  0  0  0  0  0  0  0  0
   -1.8292   -1.4621   -3.4266 H   0  0  0  0  0  0  0  0  0  0  0  0
   -1.8141    0.2839   -3.4889 H   0  0  0  0  0  0  0  0  0  0  0  0
    0.2844   -0.5582   -2.5090 H   0  0  0  0  0  0  0  0  0  0  0  0
   -0.6180    0.4699   -1.3327 H   0  0  0  0  0  0  0  0  0  0  0  0
   -0.6330   -1.3264   -1.1598 H   0  0  0  0  0  0  0  0  0  0  0  0
    1.7926    7.6888   -3.6063 H   0  0  0  0  0  0  0  0  0  0  0  0
  1  2  2  3
  2  3  1  0
  3  4  2  0
  3  5  1  0
  5  6  2  0
  6  7  1  0
  7  8  2  0
  8  9  1  0
  9 10  2  0
 10 11  1  0
 11 12  2  3
 12 13  1  0
 13 14  3  0
 12 15  1  0
 15 16  3  0
  8 17  1  0
 17 18  1  0
 18 19  1  0
 19 20  2  0
 20 21  1  0
 21 22  1  0
 21 23  1  0
  1 24  1  0
 24 25  2  0
 25 26  1  0
 26 27  1  0
 25 28  1  0
 28 29  1  0
 29 30  1  0
 30 31  1  0
 31 32  2  0
 32 33  1  0
 33 34  2  0
 34 35  1  0
 35 36  1  0
 36 37  1  0
 37 38  1  0
 38 39  1  0
 37 40  2  0
 40 41  1  0
 40 42  1  0
 34 43  1  0
 43 44  1  0
 44 45  2  0
 45 46  1  0
 46 47  1  0
 46 48  2  0
 48 49  1  0
 49 50  1  0
 48 51  1  0
 43 52  2  0
 52 53  1  0
 53 54  2  0
 54 55  1  0
 55 56  1  0
 56 57  1  0
 57 58  1  0
 58 59  1  0
 59 60  1  0
 58 61  2  0
 61 62  1  0
 62 63  1  0
 63 64  1  0
 64 65  1  0
 65 66  1  0
 66 67  1  0
 65 68  1  0
 68 69  2  0
 69 70  1  0
 70 71  1  0
 71 72  1  0
 72 73  1  0
 70 74  1  0
 74 75  1  0
 61 76  1  0
 76 77  2  3
 77 78  1  0
 78 79  2  0
 78 80  1  0
 80 81  2  0
 81 82  1  0
 81 83  1  0
 83 84  1  0
 83 85  2  0
 85 86  1  0
 85 87  1  0
 87 88  1  0
 87 89  2  0
 89 90  1  0
 90 91  2  3
 91 92  1  0
 92 93  3  0
 91 94  1  0
 94 95  3  0
 11  2  1  0
 23 17  1  0
 73 24  1  0
 90 77  1  0
 10  5  1  0
 22 18  1  0
 72 28  2  0
 89 80  1  0
 23  7  1  0
 71 30  2  0
 69 31  1  0
 53 32  1  0
 68 54  1  0
 41 35  2  0
 51 44  1  0
 64 55  2  0
 63 57  2  0
  1 96  1  0
  6 97  1  0
  9 98  1  0
 17 99  1  0
 18100  1  0
 19101  1  0
 20102  1  0
 21103  1  0
 22104  1  0
 22105  1  0
 23106  1  0
 26107  1  0
 26108  1  0
 27109  1  0
 27110  1  0
 27111  1  0
 38112  1  0
 38113  1  0
 39114  1  0
 39115  1  0
 39116  1  0
 41117  1  0
 45118  1  0
 49119  1  0
 49120  1  0
 50121  1  0
 50122  1  0
 50123  1  0
 59124  1  0
 59125  1  0
 60126  1  0
 60127  1  0
 60128  1  0
 66129  1  0
 66130  1  0
 67131  1  0
 67132  1  0
 67133  1  0
 74134  1  0
 74135  1  0
 75136  1  0
 75137  1  0
 75138  1  0
 76139  1  0
M  END

