
     RDKit          3D

136153  0  0  0  0  0  0  0  0999 V2000
    6.5484   -3.2109   -2.8567 C   0  0  0  0  0  0  0  0  0  0  0  0
    7.3089   -2.7046   -1.8657 C   0  0  0  0  0  0  0  0  0  0  0  0
    7.0701   -3.0952   -0.4699 C   0  0  0  0  0  0  0  0  0  0  0  0
    6.8164   -4.2657   -0.0740 O   0  0  0  0  0  0  0  0  0  0  0  0
    7.0873   -1.9259    0.3801 C   0  0  0  0  0  0  0  0  0  0  0  0
    6.7698   -1.8728    1.7590 C   0  0  0  0  0  0  0  0  0  0  0  0
    6.7820   -0.5951    2.2799 C   0  0  0  0  0  0  0  0  0  0  0  0
    7.0984    0.5664    1.5044 C   0  0  0  0  0  0  0  0  0  0  0  0
    7.4029    0.5211    0.1525 C   0  0  0  0  0  0  0  0  0  0  0  0
    7.3816   -0.7869   -0.4119 C   0  0  0  0  0  0  0  0  0  0  0  0
    7.6170   -1.2400   -1.8176 C   0  0  0  0  0  0  0  0  0  0  0  0
    8.0260   -0.4915   -2.8735 C   0  0  0  0  0  0  0  0  0  0  0  0
    8.4910   -1.1069   -4.0898 C   0  0  0  0  0  0  0  0  0  0  0  0
    8.8914   -1.6056   -5.0527 N   0  0  0  0  0  0  0  0  0  0  0  0
    8.1079    0.9465   -2.8255 C   0  0  0  0  0  0  0  0  0  0  0  0
    8.1622    2.1104   -2.8119 N   0  0  0  0  0  0  0  0  0  0  0  0
    6.9025    1.4408    2.7083 C   0  0  0  0  0  0  0  0  0  0  0  0
    8.1902    1.9907    3.3928 C   0  0  0  0  0  0  0  0  0  0  0  0
    7.7536    2.4857    4.7529 C   0  0  0  0  0  0  0  0  0  0  0  0
    7.4553    1.3965    5.4756 C   0  0  0  0  0  0  0  0  0  0  0  0
    7.6967    0.2068    4.5791 C   0  0  0  0  0  0  0  0  0  0  0  0
    8.9125    0.7277    3.8312 C   0  0  0  0  0  0  0  0  0  0  0  0
    6.5747    0.2525    3.5017 C   0  0  0  0  0  0  0  0  0  0  0  0
    5.0869   -3.3078   -2.6912 C   0  0  0  0  0  0  0  0  0  0  0  0
    4.1869   -3.9867   -3.5500 C   0  0  0  0  0  0  0  0  0  0  0  0
    4.5808   -4.8957   -4.6429 C   0  0  0  0  0  0  0  0  0  0  0  0
    5.5597   -5.8802   -4.4260 C   0  0  0  0  0  0  0  0  0  0  0  0
    5.9442   -6.7311   -5.4649 C   0  0  0  0  0  0  0  0  0  0  0  0
    5.3404   -6.6276   -6.7261 C   0  0  0  0  0  0  0  0  0  0  0  0
    5.7942   -7.5076   -7.8607 C   0  0  0  0  0  0  0  0  0  0  0  0
    6.8093   -6.7795   -8.7361 C   0  0  0  0  0  0  0  0  0  0  0  0
    4.3708   -5.6387   -6.9463 C   0  0  0  0  0  0  0  0  0  0  0  0
    3.9916   -4.7790   -5.9136 C   0  0  0  0  0  0  0  0  0  0  0  0
    2.8580   -3.6913   -3.2134 C   0  0  0  0  0  0  0  0  0  0  0  0
    1.3266   -4.1951   -3.7918 S   0  0  0  0  0  0  0  0  0  0  0  0
    0.5433   -3.2253   -2.6284 C   0  0  0  0  0  0  0  0  0  0  0  0
   -0.7115   -2.8677   -2.2350 C   0  0  0  0  0  0  0  0  0  0  0  0
   -1.9456   -3.2415   -2.7675 C   0  0  0  0  0  0  0  0  0  0  0  0
   -3.1239   -2.6898   -2.2027 C   0  0  0  0  0  0  0  0  0  0  0  0
   -4.3062   -3.0797   -2.7438 N   0  0  0  0  0  0  0  0  0  0  0  0
   -3.7515   -4.0978   -3.9225 S   0  0  0  0  0  0  0  0  0  0  0  0
   -2.1013   -4.1002   -3.8041 N   0  0  0  0  0  0  0  0  0  0  0  0
   -3.0026   -1.7986   -1.1341 C   0  0  0  0  0  0  0  0  0  0  0  0
   -3.9770   -1.2000   -0.3929 C   0  0  0  0  0  0  0  0  0  0  0  0
   -5.6674   -1.2182   -0.2303 S   0  0  0  0  0  0  0  0  0  0  0  0
   -5.5614   -0.2374    1.1655 C   0  0  0  0  0  0  0  0  0  0  0  0
   -6.5002    0.2429    2.0862 C   0  0  0  0  0  0  0  0  0  0  0  0
   -7.9540    0.0132    1.9744 C   0  0  0  0  0  0  0  0  0  0  0  0
   -8.6321    0.3181    0.7859 C   0  0  0  0  0  0  0  0  0  0  0  0
  -10.0045    0.0618    0.6710 C   0  0  0  0  0  0  0  0  0  0  0  0
  -10.7095   -0.4985    1.7459 C   0  0  0  0  0  0  0  0  0  0  0  0
  -12.1669   -0.8425    1.6074 C   0  0  0  0  0  0  0  0  0  0  0  0
  -12.3352   -2.3068    1.2006 C   0  0  0  0  0  0  0  0  0  0  0  0
  -10.0276   -0.8017    2.9366 C   0  0  0  0  0  0  0  0  0  0  0  0
   -8.6615   -0.5423    3.0488 C   0  0  0  0  0  0  0  0  0  0  0  0
   -5.8614    0.9423    3.1279 C   0  0  0  0  0  0  0  0  0  0  0  0
   -4.1748    0.9246    2.9011 S   0  0  0  0  0  0  0  0  0  0  0  0
   -4.2579    0.0480    1.4775 C   0  0  0  0  0  0  0  0  0  0  0  0
   -3.3603   -0.5095    0.5838 C   0  0  0  0  0  0  0  0  0  0  0  0
   -2.0125   -0.6338    0.5546 N   0  0  0  0  0  0  0  0  0  0  0  0
   -1.7647   -1.4239   -0.5553 C   0  0  0  0  0  0  0  0  0  0  0  0
   -0.5613   -1.9597   -1.1536 C   0  0  0  0  0  0  0  0  0  0  0  0
    0.7899   -1.7498   -0.9390 N   0  0  0  0  0  0  0  0  0  0  0  0
    1.3981   -2.5528   -1.8422 C   0  0  0  0  0  0  0  0  0  0  0  0
    2.7160   -2.8118   -2.1677 C   0  0  0  0  0  0  0  0  0  0  0  0
    4.2035   -2.3363   -1.6034 S   0  0  0  0  0  0  0  0  0  0  0  0
    1.5391   -0.8364   -0.0782 C   0  0  0  0  0  0  0  0  0  0  0  0
    2.0715   -1.5636    1.1592 C   0  0  0  0  0  0  0  0  0  0  0  0
   -1.1587   -0.1169    1.6281 C   0  0  0  0  0  0  0  0  0  0  0  0
   -0.8625    1.3749    1.4229 C   0  0  0  0  0  0  0  0  0  0  0  0
   -6.5047    1.6136    4.2660 C   0  0  0  0  0  0  0  0  0  0  0  0
   -6.4550    2.9470    4.4318 C   0  0  0  0  0  0  0  0  0  0  0  0
   -6.1725    3.9122    3.3642 C   0  0  0  0  0  0  0  0  0  0  0  0
   -5.8076    3.6393    2.1850 O   0  0  0  0  0  0  0  0  0  0  0  0
   -6.5443    5.2303    3.8233 C   0  0  0  0  0  0  0  0  0  0  0  0
   -6.5674    6.4141    3.0880 C   0  0  0  0  0  0  0  0  0  0  0  0
   -7.0374    7.5804    3.7142 C   0  0  0  0  0  0  0  0  0  0  0  0
   -7.1189    8.7871    3.0050 C   0  0  0  0  0  0  0  0  0  0  0  0
   -7.5710    9.9466    3.6404 C   0  0  0  0  0  0  0  0  0  0  0  0
   -7.6749   11.1046    2.9368 F   0  0  0  0  0  0  0  0  0  0  0  0
   -7.9204    9.9206    4.9971 C   0  0  0  0  0  0  0  0  0  0  0  0
   -8.3515   11.0522    5.6060 F   0  0  0  0  0  0  0  0  0  0  0  0
   -7.8656    8.7194    5.7126 C   0  0  0  0  0  0  0  0  0  0  0  0
   -7.4420    7.5386    5.0799 C   0  0  0  0  0  0  0  0  0  0  0  0
   -7.4343    6.3192    5.7840 C   0  0  0  0  0  0  0  0  0  0  0  0
   -6.9841    5.1554    5.1345 C   0  0  0  0  0  0  0  0  0  0  0  0
   -6.8959    3.7424    5.6202 C   0  0  0  0  0  0  0  0  0  0  0  0
   -7.0119    3.3059    6.9054 C   0  0  0  0  0  0  0  0  0  0  0  0
   -7.2665    4.1915    8.0141 C   0  0  0  0  0  0  0  0  0  0  0  0
   -7.4604    4.8892    8.9201 N   0  0  0  0  0  0  0  0  0  0  0  0
   -6.7393    1.9445    7.2883 C   0  0  0  0  0  0  0  0  0  0  0  0
   -6.5190    0.8553    7.6124 N   0  0  0  0  0  0  0  0  0  0  0  0
    6.8821   -3.1297   -3.8743 H   0  0  0  0  0  0  0  0  0  0  0  0
    6.5335   -2.7424    2.3576 H   0  0  0  0  0  0  0  0  0  0  0  0
    7.6215    1.4246   -0.3886 H   0  0  0  0  0  0  0  0  0  0  0  0
    6.0598    2.1610    2.6134 H   0  0  0  0  0  0  0  0  0  0  0  0
    8.7806    2.7144    2.7926 H   0  0  0  0  0  0  0  0  0  0  0  0
    7.7332    3.5159    5.1034 H   0  0  0  0  0  0  0  0  0  0  0  0
    7.1467    1.3851    6.5128 H   0  0  0  0  0  0  0  0  0  0  0  0
    7.8227   -0.7644    5.1029 H   0  0  0  0  0  0  0  0  0  0  0  0
    9.2436    0.0696    2.9970 H   0  0  0  0  0  0  0  0  0  0  0  0
    9.7861    0.9275    4.4991 H   0  0  0  0  0  0  0  0  0  0  0  0
    5.5329    0.2232    3.8914 H   0  0  0  0  0  0  0  0  0  0  0  0
    6.0210   -5.9958   -3.4507 H   0  0  0  0  0  0  0  0  0  0  0  0
    6.7098   -7.4766   -5.2810 H   0  0  0  0  0  0  0  0  0  0  0  0
    4.9201   -7.7996   -8.4819 H   0  0  0  0  0  0  0  0  0  0  0  0
    6.2554   -8.4398   -7.4648 H   0  0  0  0  0  0  0  0  0  0  0  0
    7.2176   -7.4792   -9.4967 H   0  0  0  0  0  0  0  0  0  0  0  0
    7.6452   -6.3930   -8.1163 H   0  0  0  0  0  0  0  0  0  0  0  0
    6.3280   -5.9258   -9.2613 H   0  0  0  0  0  0  0  0  0  0  0  0
    3.9109   -5.5333   -7.9216 H   0  0  0  0  0  0  0  0  0  0  0  0
    3.2526   -4.0115   -6.1057 H   0  0  0  0  0  0  0  0  0  0  0  0
   -8.1048    0.7563   -0.0480 H   0  0  0  0  0  0  0  0  0  0  0  0
  -10.5104    0.2959   -0.2580 H   0  0  0  0  0  0  0  0  0  0  0  0
  -12.6924   -0.6683    2.5725 H   0  0  0  0  0  0  0  0  0  0  0  0
  -12.6523   -0.1956    0.8432 H   0  0  0  0  0  0  0  0  0  0  0  0
  -11.8745   -2.4863    0.2037 H   0  0  0  0  0  0  0  0  0  0  0  0
  -11.8539   -2.9756    1.9522 H   0  0  0  0  0  0  0  0  0  0  0  0
  -13.4084   -2.5599    1.1443 H   0  0  0  0  0  0  0  0  0  0  0  0
  -10.5565   -1.2469    3.7728 H   0  0  0  0  0  0  0  0  0  0  0  0
   -8.1504   -0.8091    3.9641 H   0  0  0  0  0  0  0  0  0  0  0  0
    2.4031   -0.4186   -0.6426 H   0  0  0  0  0  0  0  0  0  0  0  0
    0.9539    0.0542    0.1572 H   0  0  0  0  0  0  0  0  0  0  0  0
    1.3085   -2.2574    1.5704 H   0  0  0  0  0  0  0  0  0  0  0  0
    2.3588   -0.8237    1.9353 H   0  0  0  0  0  0  0  0  0  0  0  0
    2.9631   -2.1793    0.9060 H   0  0  0  0  0  0  0  0  0  0  0  0
   -1.6671   -0.2396    2.6083 H   0  0  0  0  0  0  0  0  0  0  0  0
   -0.2655   -0.7258    1.7461 H   0  0  0  0  0  0  0  0  0  0  0  0
   -0.6458    1.6021    0.3566 H   0  0  0  0  0  0  0  0  0  0  0  0
    0.0095    1.6670    2.0440 H   0  0  0  0  0  0  0  0  0  0  0  0
   -1.7331    1.9869    1.7260 H   0  0  0  0  0  0  0  0  0  0  0  0
   -6.9911    0.9814    4.9868 H   0  0  0  0  0  0  0  0  0  0  0  0
   -6.2423    6.4190    2.0561 H   0  0  0  0  0  0  0  0  0  0  0  0
   -6.8502    8.8267    1.9539 H   0  0  0  0  0  0  0  0  0  0  0  0
   -8.1623    8.7116    6.7526 H   0  0  0  0  0  0  0  0  0  0  0  0
   -7.7990    6.2999    6.7985 H   0  0  0  0  0  0  0  0  0  0  0  0
  1  2  2  3
  2  3  1  0
  3  4  2  0
  3  5  1  0
  5  6  2  0
  6  7  1  0
  7  8  2  0
  8  9  1  0
  9 10  2  0
 10 11  1  0
 11 12  2  3
 12 13  1  0
 13 14  3  0
 12 15  1  0
 15 16  3  0
  8 17  1  0
 17 18  1  0
 18 19  1  0
 19 20  2  0
 20 21  1  0
 21 22  1  0
 21 23  1  0
  1 24  1  0
 24 25  2  0
 25 26  1  0
 26 27  2  0
 27 28  1  0
 28 29  2  0
 29 30  1  0
 30 31  1  0
 29 32  1  0
 32 33  2  0
 25 34  1  0
 34 35  1  0
 35 36  1  0
 36 37  1  0
 37 38  1  0
 38 39  1  0
 39 40  2  0
 40 41  1  0
 41 42  1  0
 39 43  1  0
 43 44  1  0
 44 45  1  0
 45 46  1  0
 46 47  1  0
 47 48  1  0
 48 49  2  0
 49 50  1  0
 50 51  2  0
 51 52  1  0
 52 53  1  0
 51 54  1  0
 54 55  2  0
 47 56  2  0
 56 57  1  0
 57 58  1  0
 58 59  1  0
 59 60  1  0
 60 61  1  0
 61 62  1  0
 62 63  1  0
 63 64  1  0
 64 65  1  0
 65 66  1  0
 63 67  1  0
 67 68  1  0
 60 69  1  0
 69 70  1  0
 56 71  1  0
 71 72  2  3
 72 73  1  0
 73 74  2  0
 73 75  1  0
 75 76  2  0
 76 77  1  0
 77 78  2  0
 78 79  1  0
 79 80  1  0
 79 81  2  0
 81 82  1  0
 81 83  1  0
 83 84  2  0
 84 85  1  0
 85 86  2  0
 86 87  1  0
 87 88  2  3
 88 89  1  0
 89 90  3  0
 88 91  1  0
 91 92  3  0
 11  2  1  0
 23 17  1  0
 66 24  1  0
 87 72  1  0
 10  5  1  0
 22 18  1  0
 33 26  1  0
 65 34  2  0
 86 75  1  0
 23  7  1  0
 64 36  2  0
 84 77  1  0
 62 37  2  0
 42 38  2  0
 61 43  2  0
 59 44  2  0
 58 46  2  0
 55 48  1  0
  1 93  1  0
  6 94  1  0
  9 95  1  0
 17 96  1  0
 18 97  1  0
 19 98  1  0
 20 99  1  0
 21100  1  0
 22101  1  0
 22102  1  0
 23103  1  0
 27104  1  0
 28105  1  0
 30106  1  0
 30107  1  0
 31108  1  0
 31109  1  0
 31110  1  0
 32111  1  0
 33112  1  0
 49113  1  0
 50114  1  0
 52115  1  0
 52116  1  0
 53117  1  0
 53118  1  0
 53119  1  0
 54120  1  0
 55121  1  0
 67122  1  0
 67123  1  0
 68124  1  0
 68125  1  0
 68126  1  0
 69127  1  0
 69128  1  0
 70129  1  0
 70130  1  0
 70131  1  0
 71132  1  0
 76133  1  0
 78134  1  0
 83135  1  0
 85136  1  0
M  END

