
     RDKit          3D

101114  0  0  0  0  0  0  0  0999 V2000
    2.9153    3.2073    2.6222 C   0  0  0  0  0  0  0  0  0  0  0  0
    3.0885    3.6433    3.7901 C   0  0  0  0  0  0  0  0  0  0  0  0
    2.2765    4.8584    4.2503 C   0  0  0  0  0  0  0  0  0  0  0  0
    1.3894    5.4738    3.6044 O   0  0  0  0  0  0  0  0  0  0  0  0
    2.7455    5.1247    5.5455 C   0  0  0  0  0  0  0  0  0  0  0  0
    2.2932    6.3229    6.4533 C   0  0  0  0  0  0  0  0  0  0  0  0
    3.2358    5.8426    7.4097 C   0  0  0  0  0  0  0  0  0  0  0  0
    3.8788    5.5572    8.1236 C   0  0  0  0  0  0  0  0  0  0  0  0
    4.4165    4.2755    7.2411 C   0  0  0  0  0  0  0  0  0  0  0  0
    3.7041    4.2923    5.9977 C   0  0  0  0  0  0  0  0  0  0  0  0
    3.9428    3.3296    4.8743 C   0  0  0  0  0  0  0  0  0  0  0  0
    4.8528    2.2816    4.9000 C   0  0  0  0  0  0  0  0  0  0  0  0
    4.9704    1.4235    3.9112 C   0  0  0  0  0  0  0  0  0  0  0  0
    5.0832    0.5524    2.9419 N   0  0  0  0  0  0  0  0  0  0  0  0
    5.8874    2.4366    5.8752 C   0  0  0  0  0  0  0  0  0  0  0  0
    6.8287    2.6008    6.7651 N   0  0  0  0  0  0  0  0  0  0  0  0
    4.1386    6.1226    9.3407 C   0  0  0  0  0  0  0  0  0  0  0  0
    3.4347    5.5413   10.5425 C   0  0  0  0  0  0  0  0  0  0  0  0
    2.9631    6.6413   11.4003 C   0  0  0  0  0  0  0  0  0  0  0  0
    1.8695    7.2070   10.8545 C   0  0  0  0  0  0  0  0  0  0  0  0
    1.8476    6.6852    9.4490 C   0  0  0  0  0  0  0  0  0  0  0  0
    2.1001    5.1983    9.8282 C   0  0  0  0  0  0  0  0  0  0  0  0
    3.0505    7.0774    8.7941 C   0  0  0  0  0  0  0  0  0  0  0  0
    2.9189    2.5489    1.4345 C   0  0  0  0  0  0  0  0  0  0  0  0
    4.1324    2.3720   -0.0740 Se  0  0  0  0  0  2  0  0  0  0  0  0
    2.8860    1.2510   -1.0265 C   0  0  0  0  0  0  0  0  0  0  0  0
    2.6196    0.5240   -2.1617 C   0  0  0  0  0  0  0  0  0  0  0  0
    3.3926    0.1834   -3.2642 C   0  0  0  0  0  0  0  0  0  0  0  0
    2.9366   -0.7298   -4.1770 C   0  0  0  0  0  0  0  0  0  0  0  0
    3.7069   -0.9261   -5.2043 N   0  0  0  0  0  0  0  0  0  0  0  0
    5.0738    0.0976   -5.0154 S   0  0  0  0  0  0  0  0  0  0  0  0
    4.5240    0.7326   -3.5358 N   0  0  0  0  0  0  0  0  0  0  0  0
    1.6796   -1.3159   -4.0225 C   0  0  0  0  0  0  0  0  0  0  0  0
    1.0026   -2.2921   -4.7487 C   0  0  0  0  0  0  0  0  0  0  0  0
    0.9456   -3.4377   -6.0213 S   0  0  0  0  0  0  0  0  0  0  0  0
   -0.6140   -4.1748   -5.7115 C   0  0  0  0  0  0  0  0  0  0  0  0
   -1.4532   -5.1733   -6.1409 C   0  0  0  0  0  0  0  0  0  0  0  0
   -1.2088   -6.0632   -7.3690 C   0  0  0  0  0  0  0  0  0  0  0  0
   -1.8751   -5.5952   -8.5983 C   0  0  0  0  0  0  0  0  0  0  0  0
   -2.5603   -5.4360   -5.5454 C   0  0  0  0  0  0  0  0  0  0  0  0
   -2.4844   -4.1934   -4.2393 S   0  0  0  0  0  0  0  0  0  0  0  0
   -0.9492   -3.4825   -4.6797 C   0  0  0  0  0  0  0  0  0  0  0  0
   -0.1925   -2.4890   -4.1052 C   0  0  0  0  0  0  0  0  0  0  0  0
   -0.2206   -1.6305   -3.0290 N   0  0  0  0  0  0  0  0  0  0  0  0
    0.8793   -0.9214   -2.9090 C   0  0  0  0  0  0  0  0  0  0  0  0
    1.3101   -0.0363   -1.9625 C   0  0  0  0  0  0  0  0  0  0  0  0
    0.8478    0.3300   -0.7985 N   0  0  0  0  0  0  0  0  0  0  0  0
    1.7819    1.1358   -0.1624 C   0  0  0  0  0  0  0  0  0  0  0  0
    1.8965    1.7881    0.9717 C   0  0  0  0  0  0  0  0  0  0  0  0
   -0.3779    0.0607   -0.1014 C   0  0  0  0  0  0  0  0  0  0  0  0
   -1.3225    1.2449   -0.1569 C   0  0  0  0  0  0  0  0  0  0  0  0
   -1.5132   -1.3783   -2.4167 C   0  0  0  0  0  0  0  0  0  0  0  0
   -2.1514   -0.4073   -3.5374 C   0  0  0  0  0  0  0  0  0  0  0  0
   -3.7382   -6.2297   -5.4181 C   0  0  0  0  0  0  0  0  0  0  0  0
   -4.9191   -5.3002   -5.5322 C   0  0  0  0  0  0  0  0  0  0  0  0
   -4.6672   -3.9533   -5.8227 C   0  0  0  0  0  0  0  0  0  0  0  0
   -3.7524   -3.4039   -6.5419 O   0  0  0  0  0  0  0  0  0  0  0  0
   -5.6758   -3.2371   -5.1362 C   0  0  0  0  0  0  0  0  0  0  0  0
   -5.8578   -1.8252   -5.0224 C   0  0  0  0  0  0  0  0  0  0  0  0
   -6.8610   -1.4011   -4.2268 C   0  0  0  0  0  0  0  0  0  0  0  0
   -7.6726   -2.2349   -3.5574 C   0  0  0  0  0  0  0  0  0  0  0  0
   -8.9513   -1.6972   -2.5444 Cl  0  0  0  0  0  0  0  0  0  0  0  0
   -7.4355   -3.6836   -3.7138 C   0  0  0  0  0  0  0  0  0  0  0  0
   -6.4574   -4.0599   -4.4983 C   0  0  0  0  0  0  0  0  0  0  0  0
   -5.8877   -5.7837   -4.7840 C   0  0  0  0  0  0  0  0  0  0  0  0
   -7.0626   -6.1475   -4.2057 C   0  0  0  0  0  0  0  0  0  0  0  0
   -8.3737   -5.8974   -4.6759 C   0  0  0  0  0  0  0  0  0  0  0  0
   -9.3839   -5.7128   -5.0551 N   0  0  0  0  0  0  0  0  0  0  0  0
   -6.7429   -6.3978   -2.9190 C   0  0  0  0  0  0  0  0  0  0  0  0
   -6.3854   -6.6456   -1.5343 N   0  0  0  0  0  0  0  0  0  0  0  0
    2.2297    4.2398    2.1358 H   0  0  0  0  0  0  0  0  0  0  0  0
    1.6761    6.8576    6.0196 H   0  0  0  0  0  0  0  0  0  0  0  0
    5.0605    3.7171    7.6677 H   0  0  0  0  0  0  0  0  0  0  0  0
    5.0918    6.6463    9.5604 H   0  0  0  0  0  0  0  0  0  0  0  0
    3.8838    4.6997   11.0199 H   0  0  0  0  0  0  0  0  0  0  0  0
    3.4168    6.9535   12.3267 H   0  0  0  0  0  0  0  0  0  0  0  0
    1.2190    7.8610   11.3801 H   0  0  0  0  0  0  0  0  0  0  0  0
    0.8825    6.8017    8.9561 H   0  0  0  0  0  0  0  0  0  0  0  0
    2.2799    4.5732    8.9618 H   0  0  0  0  0  0  0  0  0  0  0  0
    1.3980    4.8490   10.5831 H   0  0  0  0  0  0  0  0  0  0  0  0
    3.3611    7.9279    8.3453 H   0  0  0  0  0  0  0  0  0  0  0  0
   -0.1237   -6.0821   -7.5026 H   0  0  0  0  0  0  0  0  0  0  0  0
   -1.4679   -7.1262   -7.1021 H   0  0  0  0  0  0  0  0  0  0  0  0
   -2.8758   -5.1268   -8.4121 H   0  0  0  0  0  0  0  0  0  0  0  0
   -2.1063   -6.5732   -9.1860 H   0  0  0  0  0  0  0  0  0  0  0  0
   -1.2376   -5.0205   -9.2651 H   0  0  0  0  0  0  0  0  0  0  0  0
    1.0294    1.7704    1.7570 H   0  0  0  0  0  0  0  0  0  0  0  0
   -0.1036    0.1371    1.0477 H   0  0  0  0  0  0  0  0  0  0  0  0
   -0.7364   -0.9337    0.0400 H   0  0  0  0  0  0  0  0  0  0  0  0
   -1.1951    1.9649    0.6944 H   0  0  0  0  0  0  0  0  0  0  0  0
   -2.3573    0.9056   -0.1866 H   0  0  0  0  0  0  0  0  0  0  0  0
   -1.0340    1.8863   -1.0494 H   0  0  0  0  0  0  0  0  0  0  0  0
   -2.2226   -2.2706   -2.5683 H   0  0  0  0  0  0  0  0  0  0  0  0
   -1.7767   -0.8150   -1.6434 H   0  0  0  0  0  0  0  0  0  0  0  0
   -1.2910    0.2433   -3.8899 H   0  0  0  0  0  0  0  0  0  0  0  0
   -2.5217   -1.0207   -4.3580 H   0  0  0  0  0  0  0  0  0  0  0  0
   -2.9069    0.2204   -3.1231 H   0  0  0  0  0  0  0  0  0  0  0  0
   -3.9709   -7.1904   -5.2959 H   0  0  0  0  0  0  0  0  0  0  0  0
   -5.1985   -1.1819   -5.5546 H   0  0  0  0  0  0  0  0  0  0  0  0
   -6.9647   -0.3043   -4.1692 H   0  0  0  0  0  0  0  0  0  0  0  0
   -8.1156   -4.2201   -3.1104 H   0  0  0  0  0  0  0  0  0  0  0  0
  1  2  2  3
  2  3  1  0
  3  4  2  0
  3  5  1  0
  5  6  2  0
  6  7  1  0
  7  8  2  0
  8  9  1  0
  9 10  2  0
 10 11  1  0
 11 12  2  3
 12 13  1  0
 13 14  3  0
 12 15  1  0
 15 16  3  0
  8 17  1  0
 17 18  1  0
 18 19  1  0
 19 20  2  0
 20 21  1  0
 21 22  1  0
 21 23  1  0
  1 24  1  0
 24 25  1  0
 25 26  1  0
 26 27  1  0
 27 28  1  0
 28 29  1  0
 29 30  2  0
 30 31  1  0
 31 32  1  0
 29 33  1  0
 33 34  1  0
 34 35  1  0
 35 36  1  0
 36 37  1  0
 37 38  1  0
 38 39  1  0
 37 40  2  0
 40 41  1  0
 41 42  1  0
 42 43  1  0
 43 44  1  0
 44 45  1  0
 45 46  1  0
 46 47  1  0
 47 48  1  0
 48 49  1  0
 47 50  1  0
 50 51  1  0
 44 52  1  0
 52 53  1  0
 40 54  1  0
 54 55  2  3
 55 56  1  0
 56 57  2  0
 56 58  1  0
 58 59  2  0
 59 60  1  0
 60 61  2  0
 61 62  1  0
 61 63  1  0
 63 64  2  0
 64 65  1  0
 65 66  2  3
 66 67  1  0
 67 68  3  0
 66 69  1  0
 69 70  3  0
 11  2  1  0
 23 17  1  0
 49 24  2  0
 65 55  1  0
 10  5  1  0
 22 18  1  0
 48 26  2  0
 64 58  1  0
 23  7  1  0
 46 27  2  0
 32 28  2  0
 45 33  2  0
 43 34  2  0
 42 36  2  0
  1 71  1  0
  6 72  1  0
  9 73  1  0
 17 74  1  0
 18 75  1  0
 19 76  1  0
 20 77  1  0
 21 78  1  0
 22 79  1  0
 22 80  1  0
 23 81  1  0
 38 82  1  0
 38 83  1  0
 39 84  1  0
 39 85  1  0
 39 86  1  0
 49 87  1  0
 50 88  1  0
 50 89  1  0
 51 90  1  0
 51 91  1  0
 51 92  1  0
 52 93  1  0
 52 94  1  0
 53 95  1  0
 53 96  1  0
 53 97  1  0
 54 98  1  0
 59 99  1  0
 60100  1  0
 63101  1  0
M  END

