
     RDKit          3D

 89101  0  0  0  0  0  0  0  0999 V2000
   -5.0255    0.2566    1.4538 C   0  0  0  0  0  0  0  0  0  0  0  0
   -4.7894   -0.7007    2.3695 C   0  0  0  0  0  0  0  0  0  0  0  0
   -5.8509   -1.3148    3.1717 C   0  0  0  0  0  0  0  0  0  0  0  0
   -6.9977   -0.8388    3.3705 O   0  0  0  0  0  0  0  0  0  0  0  0
   -5.3900   -2.6085    3.6334 C   0  0  0  0  0  0  0  0  0  0  0  0
   -6.1292   -3.5842    4.3372 C   0  0  0  0  0  0  0  0  0  0  0  0
   -5.4330   -4.7547    4.5626 C   0  0  0  0  0  0  0  0  0  0  0  0
   -4.0923   -4.9720    4.1031 C   0  0  0  0  0  0  0  0  0  0  0  0
   -3.3654   -4.0237    3.4036 C   0  0  0  0  0  0  0  0  0  0  0  0
   -4.0520   -2.7964    3.2017 C   0  0  0  0  0  0  0  0  0  0  0  0
   -3.5772   -1.5550    2.5415 C   0  0  0  0  0  0  0  0  0  0  0  0
   -2.2921   -1.1141    2.5384 C   0  0  0  0  0  0  0  0  0  0  0  0
   -1.9771    0.2869    2.4133 C   0  0  0  0  0  0  0  0  0  0  0  0
   -1.7094    1.4086    2.3302 N   0  0  0  0  0  0  0  0  0  0  0  0
   -1.1707   -1.9724    2.8251 C   0  0  0  0  0  0  0  0  0  0  0  0
   -0.2584   -2.6524    3.0500 N   0  0  0  0  0  0  0  0  0  0  0  0
   -4.1102   -6.3627    4.6572 C   0  0  0  0  0  0  0  0  0  0  0  0
   -4.2566   -7.5156    3.6185 C   0  0  0  0  0  0  0  0  0  0  0  0
   -4.6369   -8.7408    4.4184 C   0  0  0  0  0  0  0  0  0  0  0  0
   -5.8885   -8.5411    4.8454 C   0  0  0  0  0  0  0  0  0  0  0  0
   -6.3130   -7.1886    4.3211 C   0  0  0  0  0  0  0  0  0  0  0  0
   -5.6046   -7.2286    2.9739 C   0  0  0  0  0  0  0  0  0  0  0  0
   -5.4838   -6.1425    5.1273 C   0  0  0  0  0  0  0  0  0  0  0  0
   -4.1507    0.5228    0.2996 C   0  0  0  0  0  0  0  0  0  0  0  0
   -3.3641   -0.6698   -0.6272 S   0  0  0  0  0  0  0  0  0  0  0  0
   -2.4895    0.4528   -1.5119 C   0  0  0  0  0  0  0  0  0  0  0  0
   -1.2298    0.4382   -2.0427 C   0  0  0  0  0  0  0  0  0  0  0  0
   -0.3438   -0.6396   -2.1918 C   0  0  0  0  0  0  0  0  0  0  0  0
    1.0492   -0.3713   -2.3401 C   0  0  0  0  0  0  0  0  0  0  0  0
    1.8837   -1.4364   -2.4040 N   0  0  0  0  0  0  0  0  0  0  0  0
    0.7798   -2.6605   -2.2556 S   0  0  0  0  0  0  0  0  0  0  0  0
   -0.7094   -1.9418   -2.1107 N   0  0  0  0  0  0  0  0  0  0  0  0
    1.4716    0.9572   -2.3760 C   0  0  0  0  0  0  0  0  0  0  0  0
    2.7131    1.5239   -2.4365 C   0  0  0  0  0  0  0  0  0  0  0  0
    2.5502    2.8609   -2.4474 C   0  0  0  0  0  0  0  0  0  0  0  0
    1.2447    3.2267   -2.4234 N   0  0  0  0  0  0  0  0  0  0  0  0
    0.7262    4.4969   -2.9445 C   0  0  0  0  0  0  0  0  0  0  0  0
    1.1632    4.7268   -4.3873 C   0  0  0  0  0  0  0  0  0  0  0  0
    0.5779    2.0353   -2.2913 C   0  0  0  0  0  0  0  0  0  0  0  0
   -0.7895    1.7731   -2.0088 C   0  0  0  0  0  0  0  0  0  0  0  0
   -1.7151    2.5640   -1.3659 N   0  0  0  0  0  0  0  0  0  0  0  0
   -2.7443    1.7179   -1.0910 C   0  0  0  0  0  0  0  0  0  0  0  0
   -3.7134    1.7993   -0.0815 C   0  0  0  0  0  0  0  0  0  0  0  0
   -1.4669    3.7955   -0.6012 C   0  0  0  0  0  0  0  0  0  0  0  0
   -2.4218    4.9089   -1.0307 C   0  0  0  0  0  0  0  0  0  0  0  0
    3.7264    3.6055   -2.4283 C   0  0  0  0  0  0  0  0  0  0  0  0
    4.8245    2.7364   -2.3608 C   0  0  0  0  0  0  0  0  0  0  0  0
    4.3270    1.0930   -2.3792 S   0  0  0  0  0  0  0  0  0  0  0  0
    6.2011    3.1852   -2.1188 C   0  0  0  0  0  0  0  0  0  0  0  0
    6.8212    2.9922   -0.9392 C   0  0  0  0  0  0  0  0  0  0  0  0
    6.1751    2.4736    0.2884 C   0  0  0  0  0  0  0  0  0  0  0  0
    4.9854    2.0866    0.4282 O   0  0  0  0  0  0  0  0  0  0  0  0
    7.1341    2.5979    1.3503 C   0  0  0  0  0  0  0  0  0  0  0  0
    7.1349    2.3560    3.0073 S   0  0  0  0  0  0  0  0  0  0  0  0
    8.7174    2.9487    3.1714 C   0  0  0  0  0  0  0  0  0  0  0  0
    9.5657    3.0949    4.7008 Cl  0  0  0  0  0  0  0  0  0  0  0  0
    9.2259    3.3490    1.9308 C   0  0  0  0  0  0  0  0  0  0  0  0
    8.2972    3.1331    0.9091 C   0  0  0  0  0  0  0  0  0  0  0  0
    8.2228    3.3953   -0.5511 C   0  0  0  0  0  0  0  0  0  0  0  0
    9.2503    3.7900   -1.3450 C   0  0  0  0  0  0  0  0  0  0  0  0
    9.1597    3.8583   -2.7774 C   0  0  0  0  0  0  0  0  0  0  0  0
    9.1137    3.9176   -3.9349 N   0  0  0  0  0  0  0  0  0  0  0  0
   10.5442    4.1095   -0.8058 C   0  0  0  0  0  0  0  0  0  0  0  0
   11.5883    4.3710   -0.3815 N   0  0  0  0  0  0  0  0  0  0  0  0
   -5.9629    0.7964    1.5017 H   0  0  0  0  0  0  0  0  0  0  0  0
   -7.1597   -3.4513    4.6448 H   0  0  0  0  0  0  0  0  0  0  0  0
   -2.3802   -4.2381    3.0102 H   0  0  0  0  0  0  0  0  0  0  0  0
   -3.3598   -6.5377    5.4620 H   0  0  0  0  0  0  0  0  0  0  0  0
   -3.3989   -7.6521    2.9272 H   0  0  0  0  0  0  0  0  0  0  0  0
   -4.0589   -9.6509    4.5514 H   0  0  0  0  0  0  0  0  0  0  0  0
   -6.5000   -9.2641    5.3778 H   0  0  0  0  0  0  0  0  0  0  0  0
   -7.4082   -7.0125    4.2908 H   0  0  0  0  0  0  0  0  0  0  0  0
   -5.9574   -8.0563    2.3130 H   0  0  0  0  0  0  0  0  0  0  0  0
   -5.6546   -6.2708    2.4050 H   0  0  0  0  0  0  0  0  0  0  0  0
   -5.6110   -6.1766    6.2353 H   0  0  0  0  0  0  0  0  0  0  0  0
   -0.3682    4.4833   -2.9568 H   0  0  0  0  0  0  0  0  0  0  0  0
    1.0699    5.3391   -2.2973 H   0  0  0  0  0  0  0  0  0  0  0  0
    0.7910    3.8914   -5.0297 H   0  0  0  0  0  0  0  0  0  0  0  0
    0.7218    5.6829   -4.7473 H   0  0  0  0  0  0  0  0  0  0  0  0
    2.2679    4.7978   -4.4730 H   0  0  0  0  0  0  0  0  0  0  0  0
   -3.9584    2.6959    0.4704 H   0  0  0  0  0  0  0  0  0  0  0  0
   -0.4193    4.1258   -0.6918 H   0  0  0  0  0  0  0  0  0  0  0  0
   -1.6086    3.5977    0.4809 H   0  0  0  0  0  0  0  0  0  0  0  0
   -3.4643    4.6587   -0.7446 H   0  0  0  0  0  0  0  0  0  0  0  0
   -2.1316    5.8585   -0.5340 H   0  0  0  0  0  0  0  0  0  0  0  0
   -2.3961    5.0605   -2.1291 H   0  0  0  0  0  0  0  0  0  0  0  0
    3.7824    4.6870   -2.3751 H   0  0  0  0  0  0  0  0  0  0  0  0
    6.6612    3.7583   -2.9051 H   0  0  0  0  0  0  0  0  0  0  0  0
   10.2080    3.7754    1.8074 H   0  0  0  0  0  0  0  0  0  0  0  0
  1  2  2  3
  2  3  1  0
  3  4  2  0
  3  5  1  0
  5  6  2  0
  6  7  1  0
  7  8  2  0
  8  9  1  0
  9 10  2  0
 10 11  1  0
 11 12  2  3
 12 13  1  0
 13 14  3  0
 12 15  1  0
 15 16  3  0
  8 17  1  0
 17 18  1  0
 18 19  1  0
 19 20  2  0
 20 21  1  0
 21 22  1  0
 21 23  1  0
  1 24  1  0
 24 25  1  0
 25 26  1  0
 26 27  1  0
 27 28  1  0
 28 29  1  0
 29 30  2  0
 30 31  1  0
 31 32  1  0
 29 33  1  0
 33 34  1  0
 34 35  2  0
 35 36  1  0
 36 37  1  0
 37 38  1  0
 36 39  1  0
 39 40  1  0
 40 41  1  0
 41 42  1  0
 42 43  1  0
 41 44  1  0
 44 45  1  0
 35 46  1  0
 46 47  2  0
 47 48  1  0
 47 49  1  0
 49 50  2  3
 50 51  1  0
 51 52  2  0
 51 53  1  0
 53 54  1  0
 54 55  1  0
 55 56  1  0
 55 57  2  0
 57 58  1  0
 58 59  1  0
 59 60  2  3
 60 61  1  0
 61 62  3  0
 60 63  1  0
 63 64  3  0
 11  2  1  0
 23 17  1  0
 43 24  2  0
 59 50  1  0
 10  5  1  0
 22 18  1  0
 42 26  2  0
 58 53  2  0
 23  7  1  0
 40 27  2  0
 32 28  2  0
 39 33  2  0
 48 34  1  0
  1 65  1  0
  6 66  1  0
  9 67  1  0
 17 68  1  0
 18 69  1  0
 19 70  1  0
 20 71  1  0
 21 72  1  0
 22 73  1  0
 22 74  1  0
 23 75  1  0
 37 76  1  0
 37 77  1  0
 38 78  1  0
 38 79  1  0
 38 80  1  0
 43 81  1  0
 44 82  1  0
 44 83  1  0
 45 84  1  0
 45 85  1  0
 45 86  1  0
 46 87  1  0
 49 88  1  0
 57 89  1  0
M  END

