
     RDKit          3D

132147  0  0  0  0  0  0  0  0999 V2000
    5.0047   -4.1964    1.9002 C   0  0  0  0  0  0  0  0  0  0  0  0
    3.8434   -4.8818    2.0322 C   0  0  0  0  0  0  0  0  0  0  0  0
    2.7136   -4.8180    1.0886 C   0  0  0  0  0  0  0  0  0  0  0  0
    2.6554   -4.1238    0.0342 O   0  0  0  0  0  0  0  0  0  0  0  0
    1.7031   -5.7633    1.4913 C   0  0  0  0  0  0  0  0  0  0  0  0
    0.4120   -5.9076    0.9372 C   0  0  0  0  0  0  0  0  0  0  0  0
   -0.4141   -6.7472    1.6593 C   0  0  0  0  0  0  0  0  0  0  0  0
   -0.0134   -7.3967    2.8686 C   0  0  0  0  0  0  0  0  0  0  0  0
    1.2507   -7.2636    3.4125 C   0  0  0  0  0  0  0  0  0  0  0  0
    2.1381   -6.4357    2.6657 C   0  0  0  0  0  0  0  0  0  0  0  0
    3.4957   -5.9445    3.0340 C   0  0  0  0  0  0  0  0  0  0  0  0
    4.2338   -6.3716    4.0932 C   0  0  0  0  0  0  0  0  0  0  0  0
    5.3130   -5.6036    4.6538 C   0  0  0  0  0  0  0  0  0  0  0  0
    6.1694   -4.9840    5.1232 N   0  0  0  0  0  0  0  0  0  0  0  0
    4.0377   -7.6718    4.6646 C   0  0  0  0  0  0  0  0  0  0  0  0
    3.8870   -8.7245    5.1219 N   0  0  0  0  0  0  0  0  0  0  0  0
   -1.4074   -7.9310    3.0629 C   0  0  0  0  0  0  0  0  0  0  0  0
   -2.2921   -7.2263    4.1362 C   0  0  0  0  0  0  0  0  0  0  0  0
   -3.7134   -7.6591    3.8577 C   0  0  0  0  0  0  0  0  0  0  0  0
   -4.0789   -7.0535    2.7232 C   0  0  0  0  0  0  0  0  0  0  0  0
   -2.8865   -6.2430    2.2677 C   0  0  0  0  0  0  0  0  0  0  0  0
   -2.3776   -5.7930    3.6281 C   0  0  0  0  0  0  0  0  0  0  0  0
   -1.8063   -7.2744    1.8130 C   0  0  0  0  0  0  0  0  0  0  0  0
    5.1740   -3.1091    0.9201 C   0  0  0  0  0  0  0  0  0  0  0  0
    5.4547   -3.2792   -0.4515 C   0  0  0  0  0  0  0  0  0  0  0  0
    5.9634   -4.5323   -1.0436 C   0  0  0  0  0  0  0  0  0  0  0  0
    7.0392   -5.1965   -0.4300 C   0  0  0  0  0  0  0  0  0  0  0  0
    7.5670   -6.3585   -0.9884 C   0  0  0  0  0  0  0  0  0  0  0  0
    7.0263   -6.8856   -2.1719 C   0  0  0  0  0  0  0  0  0  0  0  0
    7.6379   -8.1069   -2.8036 C   0  0  0  0  0  0  0  0  0  0  0  0
    8.6586   -7.7051   -3.8686 C   0  0  0  0  0  0  0  0  0  0  0  0
    5.9538   -6.2238   -2.7915 C   0  0  0  0  0  0  0  0  0  0  0  0
    5.4336   -5.0534   -2.2380 C   0  0  0  0  0  0  0  0  0  0  0  0
    5.1894   -2.0954   -1.1562 C   0  0  0  0  0  0  0  0  0  0  0  0
    4.9768   -1.7542   -2.8124 S   0  0  0  0  0  0  0  0  0  0  0  0
    4.4151   -0.1894   -2.4726 C   0  0  0  0  0  0  0  0  0  0  0  0
    3.5225    0.6594   -3.0745 C   0  0  0  0  0  0  0  0  0  0  0  0
    2.8139    0.5045   -4.2785 C   0  0  0  0  0  0  0  0  0  0  0  0
    1.6228    1.2795   -4.4875 C   0  0  0  0  0  0  0  0  0  0  0  0
    0.9214    1.0459   -5.6245 N   0  0  0  0  0  0  0  0  0  0  0  0
    1.8644   -0.1480   -6.2809 S   0  0  0  0  0  0  0  0  0  0  0  0
    3.1180   -0.4117   -5.2318 N   0  0  0  0  0  0  0  0  0  0  0  0
    1.2528    2.2207   -3.5209 C   0  0  0  0  0  0  0  0  0  0  0  0
    0.1662    3.0494   -3.3998 C   0  0  0  0  0  0  0  0  0  0  0  0
   -1.4228    3.1167   -3.9792 S   0  0  0  0  0  0  0  0  0  0  0  0
   -1.8768    4.1500   -2.6936 C   0  0  0  0  0  0  0  0  0  0  0  0
   -3.1256    4.5403   -2.1983 C   0  0  0  0  0  0  0  0  0  0  0  0
   -4.4127    4.1795   -2.8340 C   0  0  0  0  0  0  0  0  0  0  0  0
   -5.4324    3.5657   -2.0826 C   0  0  0  0  0  0  0  0  0  0  0  0
   -6.6078    3.1439   -2.7075 C   0  0  0  0  0  0  0  0  0  0  0  0
   -6.7888    3.3404   -4.0829 C   0  0  0  0  0  0  0  0  0  0  0  0
   -8.0070    2.7851   -4.7729 C   0  0  0  0  0  0  0  0  0  0  0  0
   -7.7811    1.3239   -5.1520 C   0  0  0  0  0  0  0  0  0  0  0  0
   -5.7761    3.9652   -4.8289 C   0  0  0  0  0  0  0  0  0  0  0  0
   -4.5975    4.3851   -4.2078 C   0  0  0  0  0  0  0  0  0  0  0  0
   -2.9925    5.1335   -0.9237 C   0  0  0  0  0  0  0  0  0  0  0  0
   -1.3412    5.1724   -0.4650 S   0  0  0  0  0  0  0  0  0  0  0  0
   -0.8188    4.4060   -1.8560 C   0  0  0  0  0  0  0  0  0  0  0  0
    0.3302    3.7465   -2.2470 C   0  0  0  0  0  0  0  0  0  0  0  0
    1.4609    3.4165   -1.5848 N   0  0  0  0  0  0  0  0  0  0  0  0
    1.9969    2.4114   -2.3472 C   0  0  0  0  0  0  0  0  0  0  0  0
    3.0655    1.5174   -2.0548 C   0  0  0  0  0  0  0  0  0  0  0  0
    3.5267    1.0948   -0.8281 N   0  0  0  0  0  0  0  0  0  0  0  0
    4.3590    0.0644   -1.1342 C   0  0  0  0  0  0  0  0  0  0  0  0
    4.7757   -1.0377   -0.3843 C   0  0  0  0  0  0  0  0  0  0  0  0
    4.6213   -1.5275    1.2097 S   0  0  0  0  0  0  0  0  0  0  0  0
    2.8528    1.2329    0.4689 C   0  0  0  0  0  0  0  0  0  0  0  0
    3.7770    1.8607    1.5144 C   0  0  0  0  0  0  0  0  0  0  0  0
    2.1303    4.2161   -0.5524 C   0  0  0  0  0  0  0  0  0  0  0  0
    2.1533    5.7115   -0.8863 C   0  0  0  0  0  0  0  0  0  0  0  0
   -4.1276    5.6851   -0.1443 C   0  0  0  0  0  0  0  0  0  0  0  0
   -4.3452    5.5376    1.1917 C   0  0  0  0  0  0  0  0  0  0  0  0
   -3.4202    4.7716    2.0766 C   0  0  0  0  0  0  0  0  0  0  0  0
   -2.7326    3.8122    1.6423 O   0  0  0  0  0  0  0  0  0  0  0  0
   -3.4255    5.0689    3.4780 N   0  0  0  0  0  0  0  0  0  0  0  0
   -2.2433    4.7641    4.3030 C   0  0  0  0  0  0  0  0  0  0  0  0
   -1.1176    5.7512    4.0120 C   0  0  0  0  0  0  0  0  0  0  0  0
   -4.6139    5.6401    4.0460 C   0  0  0  0  0  0  0  0  0  0  0  0
   -4.6830    5.8854    5.2758 O   0  0  0  0  0  0  0  0  0  0  0  0
   -5.7736    5.9484    3.1734 C   0  0  0  0  0  0  0  0  0  0  0  0
   -5.6286    6.0165    1.8261 C   0  0  0  0  0  0  0  0  0  0  0  0
   -6.7848    6.4337    0.9334 C   0  0  0  0  0  0  0  0  0  0  0  0
   -7.0839    5.9445    3.7906 C   0  0  0  0  0  0  0  0  0  0  0  0
   -8.1316    5.8435    4.2577 N   0  0  0  0  0  0  0  0  0  0  0  0
    5.8339   -4.3623    2.5666 H   0  0  0  0  0  0  0  0  0  0  0  0
    0.0679   -5.3517    0.0771 H   0  0  0  0  0  0  0  0  0  0  0  0
    1.4899   -7.7060    4.3662 H   0  0  0  0  0  0  0  0  0  0  0  0
   -1.4611   -9.0437    3.0516 H   0  0  0  0  0  0  0  0  0  0  0  0
   -1.9569   -7.3428    5.1895 H   0  0  0  0  0  0  0  0  0  0  0  0
   -4.3534   -8.2603    4.4925 H   0  0  0  0  0  0  0  0  0  0  0  0
   -5.0715   -7.0680    2.2826 H   0  0  0  0  0  0  0  0  0  0  0  0
   -3.1104   -5.4353    1.5364 H   0  0  0  0  0  0  0  0  0  0  0  0
   -3.1050   -5.1678    4.1957 H   0  0  0  0  0  0  0  0  0  0  0  0
   -1.4070   -5.2436    3.5991 H   0  0  0  0  0  0  0  0  0  0  0  0
   -2.1150   -7.9725    1.0031 H   0  0  0  0  0  0  0  0  0  0  0  0
    7.4866   -4.8017    0.4767 H   0  0  0  0  0  0  0  0  0  0  0  0
    8.4104   -6.8408   -0.5114 H   0  0  0  0  0  0  0  0  0  0  0  0
    8.1465   -8.7259   -2.0292 H   0  0  0  0  0  0  0  0  0  0  0  0
    6.8475   -8.7385   -3.2685 H   0  0  0  0  0  0  0  0  0  0  0  0
    9.2362   -8.6016   -4.1813 H   0  0  0  0  0  0  0  0  0  0  0  0
    9.3671   -6.9489   -3.4656 H   0  0  0  0  0  0  0  0  0  0  0  0
    8.1397   -7.2901   -4.7557 H   0  0  0  0  0  0  0  0  0  0  0  0
    5.5334   -6.6104   -3.7101 H   0  0  0  0  0  0  0  0  0  0  0  0
    4.5954   -4.5711   -2.7203 H   0  0  0  0  0  0  0  0  0  0  0  0
   -5.3029    3.3725   -1.0231 H   0  0  0  0  0  0  0  0  0  0  0  0
   -7.3669    2.6464   -2.1198 H   0  0  0  0  0  0  0  0  0  0  0  0
   -8.2298    3.3741   -5.6880 H   0  0  0  0  0  0  0  0  0  0  0  0
   -8.8898    2.8605   -4.1016 H   0  0  0  0  0  0  0  0  0  0  0  0
   -6.8928    1.2274   -5.8102 H   0  0  0  0  0  0  0  0  0  0  0  0
   -7.6242    0.7137   -4.2374 H   0  0  0  0  0  0  0  0  0  0  0  0
   -8.6704    0.9399   -5.6897 H   0  0  0  0  0  0  0  0  0  0  0  0
   -5.8947    4.1145   -5.8919 H   0  0  0  0  0  0  0  0  0  0  0  0
   -3.8231    4.8602   -4.8009 H   0  0  0  0  0  0  0  0  0  0  0  0
    1.9142    1.8036    0.3810 H   0  0  0  0  0  0  0  0  0  0  0  0
    2.5183    0.2347    0.8171 H   0  0  0  0  0  0  0  0  0  0  0  0
    4.6286    1.1908    1.7383 H   0  0  0  0  0  0  0  0  0  0  0  0
    4.1922    2.8234    1.1543 H   0  0  0  0  0  0  0  0  0  0  0  0
    3.2093    2.0373    2.4511 H   0  0  0  0  0  0  0  0  0  0  0  0
    1.6291    4.0562    0.4270 H   0  0  0  0  0  0  0  0  0  0  0  0
    3.1830    3.8880   -0.4780 H   0  0  0  0  0  0  0  0  0  0  0  0
    3.1670    6.1194   -0.6988 H   0  0  0  0  0  0  0  0  0  0  0  0
    1.4417    6.2509   -0.2305 H   0  0  0  0  0  0  0  0  0  0  0  0
    1.8858    5.9034   -1.9457 H   0  0  0  0  0  0  0  0  0  0  0  0
   -4.8706    6.1819   -0.7504 H   0  0  0  0  0  0  0  0  0  0  0  0
   -1.8920    3.7305    4.0899 H   0  0  0  0  0  0  0  0  0  0  0  0
   -2.4917    4.8044    5.3830 H   0  0  0  0  0  0  0  0  0  0  0  0
   -1.4986    6.7936    4.0720 H   0  0  0  0  0  0  0  0  0  0  0  0
   -0.3026    5.6178    4.7561 H   0  0  0  0  0  0  0  0  0  0  0  0
   -0.7056    5.5619    2.9996 H   0  0  0  0  0  0  0  0  0  0  0  0
   -7.0343    5.6098    0.2295 H   0  0  0  0  0  0  0  0  0  0  0  0
   -7.7088    6.6951    1.4885 H   0  0  0  0  0  0  0  0  0  0  0  0
   -6.5002    7.3398    0.3557 H   0  0  0  0  0  0  0  0  0  0  0  0
  1  2  2  3
  2  3  1  0
  3  4  2  0
  3  5  1  0
  5  6  2  0
  6  7  1  0
  7  8  2  0
  8  9  1  0
  9 10  2  0
 10 11  1  0
 11 12  2  3
 12 13  1  0
 13 14  3  0
 12 15  1  0
 15 16  3  0
  8 17  1  0
 17 18  1  0
 18 19  1  0
 19 20  2  0
 20 21  1  0
 21 22  1  0
 21 23  1  0
  1 24  1  0
 24 25  2  0
 25 26  1  0
 26 27  2  0
 27 28  1  0
 28 29  2  0
 29 30  1  0
 30 31  1  0
 29 32  1  0
 32 33  2  0
 25 34  1  0
 34 35  1  0
 35 36  1  0
 36 37  1  0
 37 38  1  0
 38 39  1  0
 39 40  2  0
 40 41  1  0
 41 42  1  0
 39 43  1  0
 43 44  1  0
 44 45  1  0
 45 46  1  0
 46 47  1  0
 47 48  1  0
 48 49  2  0
 49 50  1  0
 50 51  2  0
 51 52  1  0
 52 53  1  0
 51 54  1  0
 54 55  2  0
 47 56  2  0
 56 57  1  0
 57 58  1  0
 58 59  1  0
 59 60  1  0
 60 61  1  0
 61 62  1  0
 62 63  1  0
 63 64  1  0
 64 65  1  0
 65 66  1  0
 63 67  1  0
 67 68  1  0
 60 69  1  0
 69 70  1  0
 56 71  1  0
 71 72  2  3
 72 73  1  0
 73 74  2  0
 73 75  1  0
 75 76  1  0
 76 77  1  0
 75 78  1  0
 78 79  2  0
 78 80  1  0
 80 81  2  0
 81 82  1  0
 80 83  1  0
 83 84  3  0
 11  2  1  0
 23 17  1  0
 66 24  1  0
 81 72  1  0
 10  5  1  0
 22 18  1  0
 33 26  1  0
 65 34  2  0
 23  7  1  0
 64 36  2  0
 62 37  2  0
 42 38  2  0
 61 43  2  0
 59 44  2  0
 58 46  2  0
 55 48  1  0
  1 85  1  0
  6 86  1  0
  9 87  1  0
 17 88  1  0
 18 89  1  0
 19 90  1  0
 20 91  1  0
 21 92  1  0
 22 93  1  0
 22 94  1  0
 23 95  1  0
 27 96  1  0
 28 97  1  0
 30 98  1  0
 30 99  1  0
 31100  1  0
 31101  1  0
 31102  1  0
 32103  1  0
 33104  1  0
 49105  1  0
 50106  1  0
 52107  1  0
 52108  1  0
 53109  1  0
 53110  1  0
 53111  1  0
 54112  1  0
 55113  1  0
 67114  1  0
 67115  1  0
 68116  1  0
 68117  1  0
 68118  1  0
 69119  1  0
 69120  1  0
 70121  1  0
 70122  1  0
 70123  1  0
 71124  1  0
 76125  1  0
 76126  1  0
 77127  1  0
 77128  1  0
 77129  1  0
 82130  1  0
 82131  1  0
 82132  1  0
M  END

