
     RDKit          3D

125139  0  0  0  0  0  0  0  0999 V2000
   -1.3755    3.7778    5.7314 C   0  0  0  0  0  0  0  0  0  0  0  0
   -0.0344    3.8975    5.6522 C   0  0  0  0  0  0  0  0  0  0  0  0
    0.8016    3.3282    4.5859 C   0  0  0  0  0  0  0  0  0  0  0  0
    0.4180    2.9800    3.4392 O   0  0  0  0  0  0  0  0  0  0  0  0
    2.1679    3.2732    5.0448 C   0  0  0  0  0  0  0  0  0  0  0  0
    3.2552    2.6448    4.3923 C   0  0  0  0  0  0  0  0  0  0  0  0
    4.4172    2.6293    5.1376 C   0  0  0  0  0  0  0  0  0  0  0  0
    4.5145    3.1968    6.4502 C   0  0  0  0  0  0  0  0  0  0  0  0
    3.4527    3.8156    7.0922 C   0  0  0  0  0  0  0  0  0  0  0  0
    2.2467    3.8626    6.3337 C   0  0  0  0  0  0  0  0  0  0  0  0
    0.9006    4.3917    6.7126 C   0  0  0  0  0  0  0  0  0  0  0  0
    0.6290    5.2752    7.7083 C   0  0  0  0  0  0  0  0  0  0  0  0
   -0.6717    5.8644    7.8885 C   0  0  0  0  0  0  0  0  0  0  0  0
   -1.7107    6.3495    8.0481 N   0  0  0  0  0  0  0  0  0  0  0  0
    1.6480    5.7915    8.5862 C   0  0  0  0  0  0  0  0  0  0  0  0
    2.4542    6.2224    9.2982 N   0  0  0  0  0  0  0  0  0  0  0  0
    5.9489    2.7724    6.5433 C   0  0  0  0  0  0  0  0  0  0  0  0
    7.0167    3.8938    6.3752 C   0  0  0  0  0  0  0  0  0  0  0  0
    8.3246    3.1864    6.1114 C   0  0  0  0  0  0  0  0  0  0  0  0
    8.2306    2.6571    4.8849 C   0  0  0  0  0  0  0  0  0  0  0  0
    6.8643    3.0279    4.3623 C   0  0  0  0  0  0  0  0  0  0  0  0
    6.7498    4.4156    4.9727 C   0  0  0  0  0  0  0  0  0  0  0  0
    5.8496    2.1940    5.1986 C   0  0  0  0  0  0  0  0  0  0  0  0
   -2.1684    2.9544    4.7972 C   0  0  0  0  0  0  0  0  0  0  0  0
   -3.2390    3.5331    4.0725 C   0  0  0  0  0  0  0  0  0  0  0  0
   -4.0111    2.7548    3.1922 C   0  0  0  0  0  0  0  0  0  0  0  0
   -3.7310    1.3886    3.1097 C   0  0  0  0  0  0  0  0  0  0  0  0
   -4.1813    0.3951    2.2641 C   0  0  0  0  0  0  0  0  0  0  0  0
   -3.3558   -0.6536    2.4121 C   0  0  0  0  0  0  0  0  0  0  0  0
   -2.4069   -0.4486    3.3599 N   0  0  0  0  0  0  0  0  0  0  0  0
   -2.6596    0.8192    3.7894 C   0  0  0  0  0  0  0  0  0  0  0  0
   -1.8762    1.5822    4.6563 C   0  0  0  0  0  0  0  0  0  0  0  0
   -1.2259   -1.2573    3.6694 C   0  0  0  0  0  0  0  0  0  0  0  0
   -0.0658   -0.8998    2.7401 C   0  0  0  0  0  0  0  0  0  0  0  0
   -3.4013   -1.3569    1.2300 C   0  0  0  0  0  0  0  0  0  0  0  0
   -2.7085   -2.4756    0.7755 C   0  0  0  0  0  0  0  0  0  0  0  0
   -2.8398   -2.9006   -0.5063 C   0  0  0  0  0  0  0  0  0  0  0  0
   -2.0791   -3.9908   -0.6741 N   0  0  0  0  0  0  0  0  0  0  0  0
   -1.5091   -4.1945    0.5094 N   0  0  0  0  0  0  0  0  0  0  0  0
   -0.5147   -5.2319    0.7494 C   0  0  0  0  0  0  0  0  0  0  0  0
    0.8774   -4.6960    0.4452 C   0  0  0  0  0  0  0  0  0  0  0  0
   -1.8606   -3.2906    1.4189 N   0  0  0  0  0  0  0  0  0  0  0  0
   -3.6571   -2.2199   -1.4067 C   0  0  0  0  0  0  0  0  0  0  0  0
   -4.4264   -1.0994   -0.9972 C   0  0  0  0  0  0  0  0  0  0  0  0
   -4.3063   -0.6596    0.3852 C   0  0  0  0  0  0  0  0  0  0  0  0
   -4.8184    0.4315    1.0684 N   0  0  0  0  0  0  0  0  0  0  0  0
   -6.0919    1.1514    0.9240 C   0  0  0  0  0  0  0  0  0  0  0  0
   -7.2749    0.1852    0.7706 C   0  0  0  0  0  0  0  0  0  0  0  0
   -5.0046   -0.5194   -2.1139 N   0  0  0  0  0  0  0  0  0  0  0  0
   -5.6554    0.7786   -2.2802 C   0  0  0  0  0  0  0  0  0  0  0  0
   -4.6393    1.9158   -2.2167 C   0  0  0  0  0  0  0  0  0  0  0  0
   -4.5942   -1.2942   -3.1564 C   0  0  0  0  0  0  0  0  0  0  0  0
   -3.7699   -2.2910   -2.7760 C   0  0  0  0  0  0  0  0  0  0  0  0
   -2.9013   -2.6471   -3.7553 N   0  0  0  0  0  0  0  0  0  0  0  0
   -1.7889   -3.6045   -3.6929 C   0  0  0  0  0  0  0  0  0  0  0  0
   -2.3193   -5.0335   -3.6938 C   0  0  0  0  0  0  0  0  0  0  0  0
   -3.2747   -1.8813   -4.8177 C   0  0  0  0  0  0  0  0  0  0  0  0
   -4.3237   -1.0313   -4.4945 C   0  0  0  0  0  0  0  0  0  0  0  0
   -4.8409   -0.1317   -5.4320 C   0  0  0  0  0  0  0  0  0  0  0  0
   -4.2754   -0.1097   -6.7170 C   0  0  0  0  0  0  0  0  0  0  0  0
   -3.1840   -0.9427   -7.0543 C   0  0  0  0  0  0  0  0  0  0  0  0
   -2.6487   -1.8038   -6.0684 C   0  0  0  0  0  0  0  0  0  0  0  0
   -2.5292   -0.7377   -8.3742 C   0  0  0  0  0  0  0  0  0  0  0  0
   -1.7964   -1.6406   -9.0640 C   0  0  0  0  0  0  0  0  0  0  0  0
   -1.5098   -3.0297   -8.6928 C   0  0  0  0  0  0  0  0  0  0  0  0
   -2.3080   -3.8226   -8.1225 O   0  0  0  0  0  0  0  0  0  0  0  0
   -0.2126   -3.3845   -9.2413 C   0  0  0  0  0  0  0  0  0  0  0  0
    0.2183   -2.3546  -10.0629 C   0  0  0  0  0  0  0  0  0  0  0  0
    1.5111   -2.3709  -10.5962 C   0  0  0  0  0  0  0  0  0  0  0  0
    2.3473   -3.4641  -10.3199 C   0  0  0  0  0  0  0  0  0  0  0  0
    1.9000   -4.5247   -9.5065 C   0  0  0  0  0  0  0  0  0  0  0  0
    3.1017   -5.9747   -9.1516 Br  0  0  0  0  0  0  0  0  0  0  0  0
    0.6054   -4.4876   -8.9494 C   0  0  0  0  0  0  0  0  0  0  0  0
    0.0509   -5.7538   -7.8547 Cl  0  0  0  0  0  0  0  0  0  0  0  0
   -0.8238   -1.2981  -10.1332 C   0  0  0  0  0  0  0  0  0  0  0  0
   -1.0105   -0.4067  -11.1374 C   0  0  0  0  0  0  0  0  0  0  0  0
   -0.0901   -0.2930  -12.2387 C   0  0  0  0  0  0  0  0  0  0  0  0
    0.6353   -0.2136  -13.1371 N   0  0  0  0  0  0  0  0  0  0  0  0
   -2.2577    0.3014  -11.2963 C   0  0  0  0  0  0  0  0  0  0  0  0
   -3.2667    0.8568  -11.4390 N   0  0  0  0  0  0  0  0  0  0  0  0
   -1.9193    4.1694    6.5672 H   0  0  0  0  0  0  0  0  0  0  0  0
    3.1807    2.1855    3.4155 H   0  0  0  0  0  0  0  0  0  0  0  0
    3.5588    4.1735    8.1006 H   0  0  0  0  0  0  0  0  0  0  0  0
    6.1495    2.0324    7.3512 H   0  0  0  0  0  0  0  0  0  0  0  0
    7.0484    4.6575    7.1814 H   0  0  0  0  0  0  0  0  0  0  0  0
    9.2092    3.1776    6.7413 H   0  0  0  0  0  0  0  0  0  0  0  0
    9.0244    2.1448    4.3476 H   0  0  0  0  0  0  0  0  0  0  0  0
    6.7431    2.9688    3.2601 H   0  0  0  0  0  0  0  0  0  0  0  0
    7.5326    5.1258    4.6070 H   0  0  0  0  0  0  0  0  0  0  0  0
    5.7526    4.8902    4.8426 H   0  0  0  0  0  0  0  0  0  0  0  0
    5.9828    1.0894    5.1629 H   0  0  0  0  0  0  0  0  0  0  0  0
   -3.4437    4.5931    4.1639 H   0  0  0  0  0  0  0  0  0  0  0  0
   -4.7776    3.2178    2.5898 H   0  0  0  0  0  0  0  0  0  0  0  0
   -1.0477    1.1424    5.1929 H   0  0  0  0  0  0  0  0  0  0  0  0
   -0.9115   -1.0844    4.7203 H   0  0  0  0  0  0  0  0  0  0  0  0
   -1.4719   -2.3336    3.6133 H   0  0  0  0  0  0  0  0  0  0  0  0
    0.7724   -1.6122    2.9014 H   0  0  0  0  0  0  0  0  0  0  0  0
    0.2959    0.1286    2.9619 H   0  0  0  0  0  0  0  0  0  0  0  0
   -0.3768   -0.9532    1.6775 H   0  0  0  0  0  0  0  0  0  0  0  0
   -0.5578   -5.5576    1.8108 H   0  0  0  0  0  0  0  0  0  0  0  0
   -0.7207   -6.1095    0.1016 H   0  0  0  0  0  0  0  0  0  0  0  0
    1.6383   -5.4901    0.6127 H   0  0  0  0  0  0  0  0  0  0  0  0
    0.9377   -4.3607   -0.6128 H   0  0  0  0  0  0  0  0  0  0  0  0
    1.1061   -3.8325    1.1109 H   0  0  0  0  0  0  0  0  0  0  0  0
   -6.0212    1.9243    0.1411 H   0  0  0  0  0  0  0  0  0  0  0  0
   -6.3027    1.7422    1.8418 H   0  0  0  0  0  0  0  0  0  0  0  0
   -7.5522   -0.2313    1.7619 H   0  0  0  0  0  0  0  0  0  0  0  0
   -8.1451    0.7184    0.3415 H   0  0  0  0  0  0  0  0  0  0  0  0
   -7.0181   -0.6621    0.1104 H   0  0  0  0  0  0  0  0  0  0  0  0
   -6.4912    0.8881   -1.5874 H   0  0  0  0  0  0  0  0  0  0  0  0
   -6.1903    0.8263   -3.2403 H   0  0  0  0  0  0  0  0  0  0  0  0
   -3.9566    1.8531   -3.0938 H   0  0  0  0  0  0  0  0  0  0  0  0
   -5.1703    2.8906   -2.2452 H   0  0  0  0  0  0  0  0  0  0  0  0
   -4.0368    1.8542   -1.2850 H   0  0  0  0  0  0  0  0  0  0  0  0
   -1.1582   -3.4032   -2.8090 H   0  0  0  0  0  0  0  0  0  0  0  0
   -1.1023   -3.4921   -4.5537 H   0  0  0  0  0  0  0  0  0  0  0  0
   -1.4809   -5.7436   -3.5190 H   0  0  0  0  0  0  0  0  0  0  0  0
   -2.7875   -5.2586   -4.6744 H   0  0  0  0  0  0  0  0  0  0  0  0
   -3.0752   -5.1723   -2.8928 H   0  0  0  0  0  0  0  0  0  0  0  0
   -5.6751    0.5177   -5.2300 H   0  0  0  0  0  0  0  0  0  0  0  0
   -4.6800    0.5761   -7.4507 H   0  0  0  0  0  0  0  0  0  0  0  0
   -1.7322   -2.3396   -6.2501 H   0  0  0  0  0  0  0  0  0  0  0  0
   -2.5657    0.2778   -8.7443 H   0  0  0  0  0  0  0  0  0  0  0  0
    1.9051   -1.5449  -11.1676 H   0  0  0  0  0  0  0  0  0  0  0  0
    3.3519   -3.4807  -10.7218 H   0  0  0  0  0  0  0  0  0  0  0  0
  1  2  2  3
  2  3  1  0
  3  4  2  0
  3  5  1  0
  5  6  2  0
  6  7  1  0
  7  8  2  0
  8  9  1  0
  9 10  2  0
 10 11  1  0
 11 12  2  3
 12 13  1  0
 13 14  3  0
 12 15  1  0
 15 16  3  0
  8 17  1  0
 17 18  1  0
 18 19  1  0
 19 20  2  0
 20 21  1  0
 21 22  1  0
 21 23  1  0
  1 24  1  0
 24 25  2  0
 25 26  1  0
 26 27  2  0
 27 28  1  0
 28 29  2  0
 29 30  1  0
 30 31  1  0
 31 32  2  0
 30 33  1  0
 33 34  1  0
 29 35  1  0
 35 36  1  0
 36 37  1  0
 37 38  2  0
 38 39  1  0
 39 40  1  0
 40 41  1  0
 39 42  1  0
 37 43  1  0
 43 44  2  0
 44 45  1  0
 45 46  1  0
 46 47  1  0
 47 48  1  0
 44 49  1  0
 49 50  1  0
 50 51  1  0
 49 52  1  0
 52 53  2  0
 53 54  1  0
 54 55  1  0
 55 56  1  0
 54 57  1  0
 57 58  2  0
 58 59  1  0
 59 60  2  0
 60 61  1  0
 61 62  2  0
 61 63  1  0
 63 64  2  3
 64 65  1  0
 65 66  2  0
 65 67  1  0
 67 68  2  0
 68 69  1  0
 69 70  2  0
 70 71  1  0
 71 72  1  0
 71 73  2  0
 73 74  1  0
 68 75  1  0
 75 76  2  3
 76 77  1  0
 77 78  3  0
 76 79  1  0
 79 80  3  0
 11  2  1  0
 23 17  1  0
 32 24  1  0
 45 35  2  0
 58 52  1  0
 75 64  1  0
 10  5  1  0
 22 18  1  0
 31 27  1  0
 42 36  2  0
 53 43  1  0
 62 57  1  0
 73 67  1  0
 23  7  1  0
 46 28  1  0
  1 81  1  0
  6 82  1  0
  9 83  1  0
 17 84  1  0
 18 85  1  0
 19 86  1  0
 20 87  1  0
 21 88  1  0
 22 89  1  0
 22 90  1  0
 23 91  1  0
 25 92  1  0
 26 93  1  0
 32 94  1  0
 33 95  1  0
 33 96  1  0
 34 97  1  0
 34 98  1  0
 34 99  1  0
 40100  1  0
 40101  1  0
 41102  1  0
 41103  1  0
 41104  1  0
 47105  1  0
 47106  1  0
 48107  1  0
 48108  1  0
 48109  1  0
 50110  1  0
 50111  1  0
 51112  1  0
 51113  1  0
 51114  1  0
 55115  1  0
 55116  1  0
 56117  1  0
 56118  1  0
 56119  1  0
 59120  1  0
 60121  1  0
 62122  1  0
 63123  1  0
 69124  1  0
 70125  1  0
M  END

