
     RDKit          3D

105118  0  0  0  0  0  0  0  0999 V2000
    0.6846    1.8918   -6.0317 C   0  0  0  0  0  0  0  0  0  0  0  0
    1.4718    2.9481   -5.8090 C   0  0  0  0  0  0  0  0  0  0  0  0
    1.6214    3.6059   -4.5413 C   0  0  0  0  0  0  0  0  0  0  0  0
    1.0031    3.2896   -3.4726 O   0  0  0  0  0  0  0  0  0  0  0  0
    2.5666    4.6721   -4.5957 C   0  0  0  0  0  0  0  0  0  0  0  0
    3.1683    5.6222   -3.8881 C   0  0  0  0  0  0  0  0  0  0  0  0
    4.0282    6.5638   -4.0123 C   0  0  0  0  0  0  0  0  0  0  0  0
    4.5697    6.6498   -5.4255 C   0  0  0  0  0  0  0  0  0  0  0  0
    4.0066    5.6976   -6.2483 C   0  0  0  0  0  0  0  0  0  0  0  0
    3.1001    4.7454   -6.0081 C   0  0  0  0  0  0  0  0  0  0  0  0
    2.3816    3.6623   -6.6961 C   0  0  0  0  0  0  0  0  0  0  0  0
    2.4786    3.4734   -7.9788 C   0  0  0  0  0  0  0  0  0  0  0  0
    3.2394    3.9749   -8.9998 C   0  0  0  0  0  0  0  0  0  0  0  0
    3.9093    4.4113   -9.9259 N   0  0  0  0  0  0  0  0  0  0  0  0
    1.3821    2.5890   -8.6121 C   0  0  0  0  0  0  0  0  0  0  0  0
    0.5754    1.9177   -9.0885 N   0  0  0  0  0  0  0  0  0  0  0  0
    5.4076    7.7892   -5.0649 C   0  0  0  0  0  0  0  0  0  0  0  0
    4.8892    9.1573   -5.4576 C   0  0  0  0  0  0  0  0  0  0  0  0
    3.3826    9.0758   -5.4381 C   0  0  0  0  0  0  0  0  0  0  0  0
    2.9972    8.9908   -4.1870 C   0  0  0  0  0  0  0  0  0  0  0  0
    4.2257    8.9568   -3.3305 C   0  0  0  0  0  0  0  0  0  0  0  0
    5.0938    9.9073   -4.1448 C   0  0  0  0  0  0  0  0  0  0  0  0
    4.9294    7.6773   -3.6455 C   0  0  0  0  0  0  0  0  0  0  0  0
   -0.0880    1.4348   -4.8108 C   0  0  0  0  0  0  0  0  0  0  0  0
   -1.3522    1.5628   -4.5633 C   0  0  0  0  0  0  0  0  0  0  0  0
   -2.2473    2.2646   -5.5973 C   0  0  0  0  0  0  0  0  0  0  0  0
   -2.5539    1.2930   -6.7339 C   0  0  0  0  0  0  0  0  0  0  0  0
   -1.8385    1.0589   -3.4268 C   0  0  0  0  0  0  0  0  0  0  0  0
   -3.6533    0.9450   -2.5626 Se  0  0  0  0  0  2  0  0  0  0  0  0
   -2.8599   -0.0040   -1.1136 C   0  0  0  0  0  0  0  0  0  0  0  0
   -3.1399   -0.5812    0.1008 C   0  0  0  0  0  0  0  0  0  0  0  0
   -4.3902   -0.7307    0.6850 C   0  0  0  0  0  0  0  0  0  0  0  0
   -4.3782   -1.4346    1.9028 C   0  0  0  0  0  0  0  0  0  0  0  0
   -5.6043   -1.5360    2.4414 N   0  0  0  0  0  0  0  0  0  0  0  0
   -6.6604   -0.7673    1.4081 S   0  0  0  0  0  0  0  0  0  0  0  0
   -5.5492   -0.3118    0.2773 N   0  0  0  0  0  0  0  0  0  0  0  0
   -3.1511   -1.9099    2.3869 C   0  0  0  0  0  0  0  0  0  0  0  0
   -2.9025   -2.5977    3.5218 C   0  0  0  0  0  0  0  0  0  0  0  0
   -3.8485   -3.3772    4.9696 Se  0  0  0  0  0  2  0  0  0  0  0  0
   -1.7510   -4.1120    5.6328 C   0  0  0  0  0  0  0  0  0  0  0  0
   -1.6521   -4.9125    6.6521 C   0  0  0  0  0  0  0  0  0  0  0  0
   -2.5723   -5.3285    7.7096 C   0  0  0  0  0  0  0  0  0  0  0  0
   -2.8326   -4.2034    8.7139 C   0  0  0  0  0  0  0  0  0  0  0  0
   -0.3439   -5.3948    6.5869 C   0  0  0  0  0  0  0  0  0  0  0  0
    0.2819   -4.5906    5.1559 S   0  0  0  0  0  0  0  0  0  0  0  0
   -1.4094   -3.6317    4.7974 C   0  0  0  0  0  0  0  0  0  0  0  0
   -1.5324   -2.8809    3.6556 C   0  0  0  0  0  0  0  0  0  0  0  0
   -0.9394   -2.3048    2.5319 N   0  0  0  0  0  0  0  0  0  0  0  0
   -1.9174   -1.7541    1.7975 C   0  0  0  0  0  0  0  0  0  0  0  0
   -1.9425   -1.0414    0.5735 C   0  0  0  0  0  0  0  0  0  0  0  0
   -0.9450   -0.7788   -0.2751 N   0  0  0  0  0  0  0  0  0  0  0  0
   -1.4751   -0.1321   -1.3679 C   0  0  0  0  0  0  0  0  0  0  0  0
   -1.1627    0.4794   -2.5947 C   0  0  0  0  0  0  0  0  0  0  0  0
    0.4879    0.5852   -3.4277 S   0  0  0  0  0  0  0  0  0  0  0  0
    0.4747   -0.8954   -0.1572 C   0  0  0  0  0  0  0  0  0  0  0  0
    1.0946    0.4742    0.2485 C   0  0  0  0  0  0  0  0  0  0  0  0
    0.4664   -2.3129    2.3886 C   0  0  0  0  0  0  0  0  0  0  0  0
    1.1830   -3.4815    1.8307 C   0  0  0  0  0  0  0  0  0  0  0  0
    0.5193   -6.2943    7.3078 C   0  0  0  0  0  0  0  0  0  0  0  0
    0.9676   -7.4209    6.7193 C   0  0  0  0  0  0  0  0  0  0  0  0
    1.9935   -8.6479    7.3146 S   0  0  0  0  0  0  0  0  0  0  0  0
    2.1372   -9.5190    5.6961 C   0  0  0  0  0  0  0  0  0  0  0  0
    3.0469  -10.4054    5.6160 O   0  0  0  0  0  0  0  0  0  0  0  0
    1.1918   -8.9921    4.9097 N   0  0  0  0  0  0  0  0  0  0  0  0
    0.7854   -9.5334    3.5956 C   0  0  0  0  0  0  0  0  0  0  0  0
   -0.3602  -10.5048    3.8480 C   0  0  0  0  0  0  0  0  0  0  0  0
    0.4698   -7.8068    5.3724 C   0  0  0  0  0  0  0  0  0  0  0  0
   -0.4104   -7.2119    4.7573 O   0  0  0  0  0  0  0  0  0  0  0  0
    0.5443    1.3426   -6.8474 H   0  0  0  0  0  0  0  0  0  0  0  0
    2.7518    5.5746   -2.7366 H   0  0  0  0  0  0  0  0  0  0  0  0
    4.3855    5.7348   -7.3255 H   0  0  0  0  0  0  0  0  0  0  0  0
    6.4821    7.6255   -5.2385 H   0  0  0  0  0  0  0  0  0  0  0  0
    5.3327    9.6176   -6.3369 H   0  0  0  0  0  0  0  0  0  0  0  0
    2.7534    9.0685   -6.2958 H   0  0  0  0  0  0  0  0  0  0  0  0
    1.9689    8.9848   -3.7462 H   0  0  0  0  0  0  0  0  0  0  0  0
    4.0846    9.1712   -2.2881 H   0  0  0  0  0  0  0  0  0  0  0  0
    4.6704   10.9109   -4.2064 H   0  0  0  0  0  0  0  0  0  0  0  0
    6.1690    9.8928   -3.8093 H   0  0  0  0  0  0  0  0  0  0  0  0
    5.6959    7.3349   -2.9026 H   0  0  0  0  0  0  0  0  0  0  0  0
   -3.1737    2.5890   -5.1133 H   0  0  0  0  0  0  0  0  0  0  0  0
   -1.6956    3.1072   -6.0249 H   0  0  0  0  0  0  0  0  0  0  0  0
   -2.5673    0.2209   -6.3854 H   0  0  0  0  0  0  0  0  0  0  0  0
   -3.5217    1.5060   -7.2525 H   0  0  0  0  0  0  0  0  0  0  0  0
   -1.7729    1.4033   -7.4813 H   0  0  0  0  0  0  0  0  0  0  0  0
   -3.5402   -5.7281    7.3461 H   0  0  0  0  0  0  0  0  0  0  0  0
   -2.0970   -6.1643    8.3084 H   0  0  0  0  0  0  0  0  0  0  0  0
   -3.8482   -3.8304    8.4069 H   0  0  0  0  0  0  0  0  0  0  0  0
   -2.0493   -3.4719    8.7242 H   0  0  0  0  0  0  0  0  0  0  0  0
   -2.9201   -4.6276    9.7577 H   0  0  0  0  0  0  0  0  0  0  0  0
    0.8214   -0.8417   -1.2842 H   0  0  0  0  0  0  0  0  0  0  0  0
    1.0310   -1.7625    0.0195 H   0  0  0  0  0  0  0  0  0  0  0  0
    0.5440    1.2807   -0.3729 H   0  0  0  0  0  0  0  0  0  0  0  0
    2.1179    0.5984   -0.0449 H   0  0  0  0  0  0  0  0  0  0  0  0
    0.7921    0.7000    1.2542 H   0  0  0  0  0  0  0  0  0  0  0  0
    0.9647   -1.3586    2.1605 H   0  0  0  0  0  0  0  0  0  0  0  0
    0.8263   -2.3879    3.5348 H   0  0  0  0  0  0  0  0  0  0  0  0
    0.8762   -3.8341    0.8302 H   0  0  0  0  0  0  0  0  0  0  0  0
    2.2596   -3.0822    1.6464 H   0  0  0  0  0  0  0  0  0  0  0  0
    1.3326   -4.2718    2.5337 H   0  0  0  0  0  0  0  0  0  0  0  0
    0.8746   -6.0991    8.3099 H   0  0  0  0  0  0  0  0  0  0  0  0
    0.4087   -8.7204    2.9368 H   0  0  0  0  0  0  0  0  0  0  0  0
    1.6241  -10.1008    3.1356 H   0  0  0  0  0  0  0  0  0  0  0  0
   -0.2044  -11.1443    4.7725 H   0  0  0  0  0  0  0  0  0  0  0  0
   -0.4958  -11.2248    3.0129 H   0  0  0  0  0  0  0  0  0  0  0  0
   -1.3232   -9.9877    4.0558 H   0  0  0  0  0  0  0  0  0  0  0  0
  1  2  2  3
  2  3  1  0
  3  4  2  0
  3  5  1  0
  5  6  2  0
  6  7  1  0
  7  8  2  0
  8  9  1  0
  9 10  2  0
 10 11  1  0
 11 12  2  3
 12 13  1  0
 13 14  3  0
 12 15  1  0
 15 16  3  0
  8 17  1  0
 17 18  1  0
 18 19  1  0
 19 20  2  0
 20 21  1  0
 21 22  1  0
 21 23  1  0
  1 24  1  0
 24 25  2  0
 25 26  1  0
 26 27  1  0
 25 28  1  0
 28 29  1  0
 29 30  1  0
 30 31  1  0
 31 32  1  0
 32 33  1  0
 33 34  2  0
 34 35  1  0
 35 36  1  0
 33 37  1  0
 37 38  1  0
 38 39  1  0
 39 40  1  0
 40 41  1  0
 41 42  1  0
 42 43  1  0
 41 44  2  0
 44 45  1  0
 45 46  1  0
 46 47  1  0
 47 48  1  0
 48 49  1  0
 49 50  1  0
 50 51  1  0
 51 52  1  0
 52 53  1  0
 53 54  1  0
 51 55  1  0
 55 56  1  0
 48 57  1  0
 57 58  1  0
 44 59  1  0
 59 60  2  3
 60 61  1  0
 61 62  1  0
 62 63  2  0
 62 64  1  0
 64 65  1  0
 65 66  1  0
 64 67  1  0
 67 68  2  0
 11  2  1  0
 23 17  1  0
 54 24  1  0
 67 60  1  0
 10  5  1  0
 22 18  1  0
 53 28  2  0
 23  7  1  0
 52 30  2  0
 50 31  2  0
 36 32  2  0
 49 37  2  0
 47 38  2  0
 46 40  2  0
  1 69  1  0
  6 70  1  0
  9 71  1  0
 17 72  1  0
 18 73  1  0
 19 74  1  0
 20 75  1  0
 21 76  1  0
 22 77  1  0
 22 78  1  0
 23 79  1  0
 26 80  1  0
 26 81  1  0
 27 82  1  0
 27 83  1  0
 27 84  1  0
 42 85  1  0
 42 86  1  0
 43 87  1  0
 43 88  1  0
 43 89  1  0
 55 90  1  0
 55 91  1  0
 56 92  1  0
 56 93  1  0
 56 94  1  0
 57 95  1  0
 57 96  1  0
 58 97  1  0
 58 98  1  0
 58 99  1  0
 59100  1  0
 65101  1  0
 65102  1  0
 66103  1  0
 66104  1  0
 66105  1  0
M  END

