
     RDKit          3D

127143  0  0  0  0  0  0  0  0999 V2000
    1.8006    2.4897    4.7833 C   0  0  0  0  0  0  0  0  0  0  0  0
    0.8839    2.6769    5.7495 C   0  0  0  0  0  0  0  0  0  0  0  0
   -0.5073    2.2213    5.6909 C   0  0  0  0  0  0  0  0  0  0  0  0
   -0.9385    1.2467    5.0209 O   0  0  0  0  0  0  0  0  0  0  0  0
   -1.3142    3.0879    6.5149 C   0  0  0  0  0  0  0  0  0  0  0  0
   -2.7248    3.1183    6.5854 C   0  0  0  0  0  0  0  0  0  0  0  0
   -3.2181    4.1523    7.3566 C   0  0  0  0  0  0  0  0  0  0  0  0
   -2.3803    5.1069    8.0186 C   0  0  0  0  0  0  0  0  0  0  0  0
   -0.9962    5.0855    7.9481 C   0  0  0  0  0  0  0  0  0  0  0  0
   -0.4648    4.0171    7.1757 C   0  0  0  0  0  0  0  0  0  0  0  0
    0.9542    3.7001    6.8316 C   0  0  0  0  0  0  0  0  0  0  0  0
    2.0672    4.0855    7.5043 C   0  0  0  0  0  0  0  0  0  0  0  0
    3.3205    3.4044    7.3340 C   0  0  0  0  0  0  0  0  0  0  0  0
    4.3340    2.8592    7.1983 N   0  0  0  0  0  0  0  0  0  0  0  0
    2.0202    5.0295    8.5934 C   0  0  0  0  0  0  0  0  0  0  0  0
    1.9992    5.7869    9.4725 N   0  0  0  0  0  0  0  0  0  0  0  0
   -3.5839    5.8157    8.5593 C   0  0  0  0  0  0  0  0  0  0  0  0
   -3.9081    5.5921   10.0649 C   0  0  0  0  0  0  0  0  0  0  0  0
   -5.3293    6.0645   10.2546 C   0  0  0  0  0  0  0  0  0  0  0  0
   -6.1134    5.1751    9.6346 C   0  0  0  0  0  0  0  0  0  0  0  0
   -5.1935    4.1342    9.0425 C   0  0  0  0  0  0  0  0  0  0  0  0
   -4.1503    4.0939   10.1457 C   0  0  0  0  0  0  0  0  0  0  0  0
   -4.4427    4.8404    7.8755 C   0  0  0  0  0  0  0  0  0  0  0  0
    1.4435    1.9093    3.4792 C   0  0  0  0  0  0  0  0  0  0  0  0
    0.5843    2.5035    2.5329 C   0  0  0  0  0  0  0  0  0  0  0  0
    0.0495    3.8761    2.6198 C   0  0  0  0  0  0  0  0  0  0  0  0
   -1.2220    4.0736    3.1791 C   0  0  0  0  0  0  0  0  0  0  0  0
   -1.7186    5.3621    3.3715 C   0  0  0  0  0  0  0  0  0  0  0  0
   -0.9637    6.4674    2.9751 C   0  0  0  0  0  0  0  0  0  0  0  0
    0.2753    6.2854    2.3594 C   0  0  0  0  0  0  0  0  0  0  0  0
    0.7897    4.9941    2.1569 C   0  0  0  0  0  0  0  0  0  0  0  0
    2.1093    4.8479    1.4331 C   0  0  0  0  0  0  0  0  0  0  0  0
    3.2884    5.1682    2.3469 C   0  0  0  0  0  0  0  0  0  0  0  0
    0.3398    1.6394    1.4719 C   0  0  0  0  0  0  0  0  0  0  0  0
   -0.6920    1.7292    0.1181 S   0  0  0  0  0  0  0  0  0  0  0  0
   -0.2137    0.1713   -0.3552 C   0  0  0  0  0  0  0  0  0  0  0  0
   -0.6059   -0.7847   -1.2388 C   0  0  0  0  0  0  0  0  0  0  0  0
   -1.6555   -0.8001   -2.1596 C   0  0  0  0  0  0  0  0  0  0  0  0
   -1.9333   -2.0139   -2.8482 C   0  0  0  0  0  0  0  0  0  0  0  0
   -2.9461   -1.9852   -3.7496 N   0  0  0  0  0  0  0  0  0  0  0  0
   -3.4355   -0.4144   -3.5787 S   0  0  0  0  0  0  0  0  0  0  0  0
   -2.4445    0.2655   -2.4417 N   0  0  0  0  0  0  0  0  0  0  0  0
   -1.1084   -3.1274   -2.6235 C   0  0  0  0  0  0  0  0  0  0  0  0
   -0.9236   -4.2144   -3.4309 C   0  0  0  0  0  0  0  0  0  0  0  0
   -1.4334   -4.5507   -5.0102 S   0  0  0  0  0  0  0  0  0  0  0  0
    0.0128   -5.3660   -5.3525 C   0  0  0  0  0  0  0  0  0  0  0  0
    0.5836   -5.7780   -6.5573 C   0  0  0  0  0  0  0  0  0  0  0  0
   -0.1602   -5.8898   -7.8311 C   0  0  0  0  0  0  0  0  0  0  0  0
   -0.7694   -4.7750   -8.4663 C   0  0  0  0  0  0  0  0  0  0  0  0
   -0.5479   -3.3521   -7.9826 C   0  0  0  0  0  0  0  0  0  0  0  0
   -0.2606   -2.3781   -9.1242 C   0  0  0  0  0  0  0  0  0  0  0  0
   -1.6301   -5.0077   -9.5584 C   0  0  0  0  0  0  0  0  0  0  0  0
   -1.8106   -6.2960  -10.0656 C   0  0  0  0  0  0  0  0  0  0  0  0
   -1.1433   -7.3736   -9.4871 C   0  0  0  0  0  0  0  0  0  0  0  0
   -0.3277   -7.1756   -8.3734 C   0  0  0  0  0  0  0  0  0  0  0  0
    1.9354   -6.1121   -6.3817 C   0  0  0  0  0  0  0  0  0  0  0  0
    2.3703   -5.9018   -4.7492 S   0  0  0  0  0  0  0  0  0  0  0  0
    0.8570   -5.3645   -4.2696 C   0  0  0  0  0  0  0  0  0  0  0  0
    0.3250   -4.6972   -3.1625 C   0  0  0  0  0  0  0  0  0  0  0  0
    0.9261   -4.0291   -2.1398 N   0  0  0  0  0  0  0  0  0  0  0  0
    0.0059   -3.0755   -1.7647 C   0  0  0  0  0  0  0  0  0  0  0  0
    0.1791   -1.9150   -0.9549 C   0  0  0  0  0  0  0  0  0  0  0  0
    0.9240   -1.7040    0.1855 N   0  0  0  0  0  0  0  0  0  0  0  0
    0.6815   -0.4016    0.4826 C   0  0  0  0  0  0  0  0  0  0  0  0
    0.9909    0.4308    1.5522 C   0  0  0  0  0  0  0  0  0  0  0  0
    1.9051    0.3518    2.9598 S   0  0  0  0  0  0  0  0  0  0  0  0
    1.4954   -2.6703    1.1360 C   0  0  0  0  0  0  0  0  0  0  0  0
    0.5909   -3.8853    1.3544 C   0  0  0  0  0  0  0  0  0  0  0  0
    2.3654   -4.0800   -1.8497 C   0  0  0  0  0  0  0  0  0  0  0  0
    3.0950   -2.8519   -2.3955 C   0  0  0  0  0  0  0  0  0  0  0  0
    2.8548   -6.4822   -7.4716 C   0  0  0  0  0  0  0  0  0  0  0  0
    3.3071   -5.5778   -8.3571 C   0  0  0  0  0  0  0  0  0  0  0  0
    3.4688   -5.8860   -9.7892 C   0  0  0  0  0  0  0  0  0  0  0  0
    3.5956   -7.0296  -10.2999 O   0  0  0  0  0  0  0  0  0  0  0  0
    3.3346   -4.6404  -10.5164 C   0  0  0  0  0  0  0  0  0  0  0  0
    3.3645   -4.3101  -11.8600 C   0  0  0  0  0  0  0  0  0  0  0  0
    3.1943   -2.6286  -11.8996 S   0  0  0  0  0  0  0  0  0  0  0  0
    3.0944   -2.3457  -10.2316 C   0  0  0  0  0  0  0  0  0  0  0  0
    3.1719   -3.5977   -9.6362 C   0  0  0  0  0  0  0  0  0  0  0  0
    3.2492   -4.0853   -8.2437 C   0  0  0  0  0  0  0  0  0  0  0  0
    3.6434   -3.3448   -7.1852 C   0  0  0  0  0  0  0  0  0  0  0  0
    3.5564   -1.9086   -7.1865 C   0  0  0  0  0  0  0  0  0  0  0  0
    3.4954   -0.7555   -7.1800 N   0  0  0  0  0  0  0  0  0  0  0  0
    4.4362   -3.9315   -6.1309 C   0  0  0  0  0  0  0  0  0  0  0  0
    5.0963   -4.3894   -5.2949 N   0  0  0  0  0  0  0  0  0  0  0  0
    2.7821    2.9292    4.8608 H   0  0  0  0  0  0  0  0  0  0  0  0
   -3.3675    2.4206    6.0646 H   0  0  0  0  0  0  0  0  0  0  0  0
   -0.4079    5.8537    8.4181 H   0  0  0  0  0  0  0  0  0  0  0  0
   -3.6867    6.8626    8.1919 H   0  0  0  0  0  0  0  0  0  0  0  0
   -3.1697    6.0086   10.7807 H   0  0  0  0  0  0  0  0  0  0  0  0
   -5.6688    6.9065   10.8465 H   0  0  0  0  0  0  0  0  0  0  0  0
   -7.1991    5.1701    9.6428 H   0  0  0  0  0  0  0  0  0  0  0  0
   -5.6703    3.1635    8.7874 H   0  0  0  0  0  0  0  0  0  0  0  0
   -3.2566    3.4738    9.9116 H   0  0  0  0  0  0  0  0  0  0  0  0
   -4.5597    3.7636   11.1330 H   0  0  0  0  0  0  0  0  0  0  0  0
   -5.0851    5.2744    7.0749 H   0  0  0  0  0  0  0  0  0  0  0  0
   -1.8282    3.2300    3.4763 H   0  0  0  0  0  0  0  0  0  0  0  0
   -2.6896    5.5072    3.8303 H   0  0  0  0  0  0  0  0  0  0  0  0
   -1.3503    7.4670    3.1278 H   0  0  0  0  0  0  0  0  0  0  0  0
    0.8316    7.1558    2.0335 H   0  0  0  0  0  0  0  0  0  0  0  0
    2.1316    5.5439    0.5666 H   0  0  0  0  0  0  0  0  0  0  0  0
    2.2385    3.8262    1.0125 H   0  0  0  0  0  0  0  0  0  0  0  0
    4.2354    5.0619    1.7788 H   0  0  0  0  0  0  0  0  0  0  0  0
    3.3121    4.4663    3.2052 H   0  0  0  0  0  0  0  0  0  0  0  0
    3.2124    6.2079    2.7323 H   0  0  0  0  0  0  0  0  0  0  0  0
   -1.4498   -3.0054   -7.4366 H   0  0  0  0  0  0  0  0  0  0  0  0
    0.3146   -3.3032   -7.2871 H   0  0  0  0  0  0  0  0  0  0  0  0
    0.4151   -2.8388   -9.8727 H   0  0  0  0  0  0  0  0  0  0  0  0
   -1.2029   -2.0802   -9.6297 H   0  0  0  0  0  0  0  0  0  0  0  0
    0.2186   -1.4612   -8.7218 H   0  0  0  0  0  0  0  0  0  0  0  0
   -2.1621   -4.1919  -10.0253 H   0  0  0  0  0  0  0  0  0  0  0  0
   -2.4651   -6.4562  -10.9140 H   0  0  0  0  0  0  0  0  0  0  0  0
   -1.2818   -8.3702   -9.8871 H   0  0  0  0  0  0  0  0  0  0  0  0
    0.1423   -8.0343   -7.9071 H   0  0  0  0  0  0  0  0  0  0  0  0
    1.6038   -2.2032    2.1321 H   0  0  0  0  0  0  0  0  0  0  0  0
    2.5256   -2.9421    0.8497 H   0  0  0  0  0  0  0  0  0  0  0  0
   -0.4357   -3.5490    1.6215 H   0  0  0  0  0  0  0  0  0  0  0  0
    0.9954   -4.4965    2.1938 H   0  0  0  0  0  0  0  0  0  0  0  0
    0.5395   -4.5324    0.4559 H   0  0  0  0  0  0  0  0  0  0  0  0
    2.8171   -4.9864   -2.2931 H   0  0  0  0  0  0  0  0  0  0  0  0
    2.5456   -4.2173   -0.7790 H   0  0  0  0  0  0  0  0  0  0  0  0
    4.1938   -3.0079   -2.3146 H   0  0  0  0  0  0  0  0  0  0  0  0
    2.8353   -1.9534   -1.8052 H   0  0  0  0  0  0  0  0  0  0  0  0
    2.8277   -2.6866   -3.4586 H   0  0  0  0  0  0  0  0  0  0  0  0
    2.8696   -7.5281   -7.7468 H   0  0  0  0  0  0  0  0  0  0  0  0
    3.4878   -4.9807  -12.6987 H   0  0  0  0  0  0  0  0  0  0  0  0
    2.9779   -1.3852   -9.7525 H   0  0  0  0  0  0  0  0  0  0  0  0
  1  2  2  3
  2  3  1  0
  3  4  2  0
  3  5  1  0
  5  6  2  0
  6  7  1  0
  7  8  2  0
  8  9  1  0
  9 10  2  0
 10 11  1  0
 11 12  2  3
 12 13  1  0
 13 14  3  0
 12 15  1  0
 15 16  3  0
  8 17  1  0
 17 18  1  0
 18 19  1  0
 19 20  2  0
 20 21  1  0
 21 22  1  0
 21 23  1  0
  1 24  1  0
 24 25  2  0
 25 26  1  0
 26 27  2  0
 27 28  1  0
 28 29  2  0
 29 30  1  0
 30 31  2  0
 31 32  1  0
 32 33  1  0
 25 34  1  0
 34 35  1  0
 35 36  1  0
 36 37  1  0
 37 38  1  0
 38 39  1  0
 39 40  2  0
 40 41  1  0
 41 42  1  0
 39 43  1  0
 43 44  1  0
 44 45  1  0
 45 46  1  0
 46 47  1  0
 47 48  1  0
 48 49  2  0
 49 50  1  0
 50 51  1  0
 49 52  1  0
 52 53  2  0
 53 54  1  0
 54 55  2  0
 47 56  2  0
 56 57  1  0
 57 58  1  0
 58 59  1  0
 59 60  1  0
 60 61  1  0
 61 62  1  0
 62 63  1  0
 63 64  1  0
 64 65  1  0
 65 66  1  0
 63 67  1  0
 67 68  1  0
 60 69  1  0
 69 70  1  0
 56 71  1  0
 71 72  2  3
 72 73  1  0
 73 74  2  0
 73 75  1  0
 75 76  2  0
 76 77  1  0
 77 78  1  0
 78 79  2  0
 79 80  1  0
 80 81  2  3
 81 82  1  0
 82 83  3  0
 81 84  1  0
 84 85  3  0
 11  2  1  0
 23 17  1  0
 66 24  1  0
 80 72  1  0
 10  5  1  0
 22 18  1  0
 31 26  1  0
 65 34  2  0
 79 75  1  0
 23  7  1  0
 64 36  2  0
 62 37  2  0
 42 38  2  0
 61 43  2  0
 59 44  2  0
 58 46  2  0
 55 48  1  0
  1 86  1  0
  6 87  1  0
  9 88  1  0
 17 89  1  0
 18 90  1  0
 19 91  1  0
 20 92  1  0
 21 93  1  0
 22 94  1  0
 22 95  1  0
 23 96  1  0
 27 97  1  0
 28 98  1  0
 29 99  1  0
 30100  1  0
 32101  1  0
 32102  1  0
 33103  1  0
 33104  1  0
 33105  1  0
 50106  1  0
 50107  1  0
 51108  1  0
 51109  1  0
 51110  1  0
 52111  1  0
 53112  1  0
 54113  1  0
 55114  1  0
 67115  1  0
 67116  1  0
 68117  1  0
 68118  1  0
 68119  1  0
 69120  1  0
 69121  1  0
 70122  1  0
 70123  1  0
 70124  1  0
 71125  1  0
 76126  1  0
 78127  1  0
M  END

