
     RDKit          3D

139155  0  0  0  0  0  0  0  0999 V2000
   -6.5893    2.4901   -2.8115 C   0  0  0  0  0  0  0  0  0  0  0  0
   -6.9876    2.2279   -1.5495 C   0  0  0  0  0  0  0  0  0  0  0  0
   -6.0942    1.8396   -0.4469 C   0  0  0  0  0  0  0  0  0  0  0  0
   -4.8698    1.5550   -0.5348 O   0  0  0  0  0  0  0  0  0  0  0  0
   -6.8154    1.9464    0.7986 C   0  0  0  0  0  0  0  0  0  0  0  0
   -6.3024    1.7011    2.0938 C   0  0  0  0  0  0  0  0  0  0  0  0
   -7.2166    1.9072    3.1061 C   0  0  0  0  0  0  0  0  0  0  0  0
   -8.5575    2.3456    2.8690 C   0  0  0  0  0  0  0  0  0  0  0  0
   -9.0630    2.6004    1.6040 C   0  0  0  0  0  0  0  0  0  0  0  0
   -8.1416    2.3801    0.5383 C   0  0  0  0  0  0  0  0  0  0  0  0
   -8.3278    2.5143   -0.9409 C   0  0  0  0  0  0  0  0  0  0  0  0
   -9.5031    2.6773   -1.6060 C   0  0  0  0  0  0  0  0  0  0  0  0
  -10.7497    2.9512   -0.9410 C   0  0  0  0  0  0  0  0  0  0  0  0
  -11.7639    3.1740   -0.4283 N   0  0  0  0  0  0  0  0  0  0  0  0
   -9.6159    2.4886   -3.0293 C   0  0  0  0  0  0  0  0  0  0  0  0
   -9.7161    2.3312   -4.1710 N   0  0  0  0  0  0  0  0  0  0  0  0
   -8.8377    2.3354    4.3443 C   0  0  0  0  0  0  0  0  0  0  0  0
   -8.9153    3.7065    5.0810 C   0  0  0  0  0  0  0  0  0  0  0  0
   -8.0151    4.7102    4.3979 C   0  0  0  0  0  0  0  0  0  0  0  0
   -6.7628    4.3094    4.6159 C   0  0  0  0  0  0  0  0  0  0  0  0
   -6.8521    3.0455    5.4406 C   0  0  0  0  0  0  0  0  0  0  0  0
   -8.0549    3.4007    6.2940 C   0  0  0  0  0  0  0  0  0  0  0  0
   -7.4617    1.8922    4.5863 C   0  0  0  0  0  0  0  0  0  0  0  0
   -5.2467    2.1537   -3.3096 C   0  0  0  0  0  0  0  0  0  0  0  0
   -4.2187    3.0780   -3.5498 C   0  0  0  0  0  0  0  0  0  0  0  0
   -4.3730    4.5719   -3.4770 C   0  0  0  0  0  0  0  0  0  0  0  0
   -4.8034    5.1266   -4.8294 C   0  0  0  0  0  0  0  0  0  0  0  0
   -3.0081    2.4239   -3.7861 C   0  0  0  0  0  0  0  0  0  0  0  0
   -1.4091    2.9702   -3.6494 S   0  0  0  0  0  0  0  0  0  0  0  0
   -0.8072    1.3840   -3.6027 C   0  0  0  0  0  0  0  0  0  0  0  0
    0.2318    0.8222   -2.9099 C   0  0  0  0  0  0  0  0  0  0  0  0
    1.2264    1.4774   -2.1648 C   0  0  0  0  0  0  0  0  0  0  0  0
    1.5155    2.7888   -2.3557 N   0  0  0  0  0  0  0  0  0  0  0  0
    2.4305    3.4393   -1.5890 C   0  0  0  0  0  0  0  0  0  0  0  0
    2.6255    4.8807   -1.8342 C   0  0  0  0  0  0  0  0  0  0  0  0
    2.7124    6.0901   -0.6604 S   0  0  0  0  0  0  0  0  0  0  0  0
    2.7854    7.3804   -1.7385 C   0  0  0  0  0  0  0  0  0  0  0  0
    2.9563    8.8164   -1.3566 C   0  0  0  0  0  0  0  0  0  0  0  0
    4.4267    9.1354   -1.1090 C   0  0  0  0  0  0  0  0  0  0  0  0
    2.7309    6.8765   -3.0315 C   0  0  0  0  0  0  0  0  0  0  0  0
    2.6217    5.4824   -3.0886 C   0  0  0  0  0  0  0  0  0  0  0  0
    2.7709    7.6574   -4.1381 F   0  0  0  0  0  0  0  0  0  0  0  0
    3.1045    2.7220   -0.5657 C   0  0  0  0  0  0  0  0  0  0  0  0
    4.1599    3.3137    0.2729 C   0  0  0  0  0  0  0  0  0  0  0  0
    5.2402    4.0747   -0.1681 C   0  0  0  0  0  0  0  0  0  0  0  0
    6.0908    4.4668    0.8699 C   0  0  0  0  0  0  0  0  0  0  0  0
    7.1873    5.2386    0.6733 F   0  0  0  0  0  0  0  0  0  0  0  0
    5.7053    3.9920    2.1193 C   0  0  0  0  0  0  0  0  0  0  0  0
    6.3590    4.3117    3.4274 C   0  0  0  0  0  0  0  0  0  0  0  0
    5.7058    5.5313    4.0681 C   0  0  0  0  0  0  0  0  0  0  0  0
    4.2920    3.0973    1.9382 S   0  0  0  0  0  0  0  0  0  0  0  0
    2.7964    1.4114   -0.3671 N   0  0  0  0  0  0  0  0  0  0  0  0
    1.8792    0.7737   -1.1358 C   0  0  0  0  0  0  0  0  0  0  0  0
    1.5631   -0.5748   -0.9503 C   0  0  0  0  0  0  0  0  0  0  0  0
    2.0848   -1.5075   -0.1044 C   0  0  0  0  0  0  0  0  0  0  0  0
    3.2604   -1.6280    1.1135 S   0  0  0  0  0  0  0  0  0  0  0  0
    3.0492   -3.3215    1.1705 C   0  0  0  0  0  0  0  0  0  0  0  0
    3.6428   -4.3392    1.9161 C   0  0  0  0  0  0  0  0  0  0  0  0
    4.6528   -4.1126    3.0048 C   0  0  0  0  0  0  0  0  0  0  0  0
    3.9575   -3.8574    4.3379 C   0  0  0  0  0  0  0  0  0  0  0  0
    3.1379   -5.5941    1.5343 C   0  0  0  0  0  0  0  0  0  0  0  0
    1.9564   -5.4143    0.3142 S   0  0  0  0  0  0  0  0  0  0  0  0
    2.1218   -3.7477    0.2538 C   0  0  0  0  0  0  0  0  0  0  0  0
    1.5641   -2.7019   -0.4637 C   0  0  0  0  0  0  0  0  0  0  0  0
    0.7206   -2.6225   -1.5217 N   0  0  0  0  0  0  0  0  0  0  0  0
    0.4253   -3.7587   -2.4126 C   0  0  0  0  0  0  0  0  0  0  0  0
    0.7147   -3.4429   -3.8827 C   0  0  0  0  0  0  0  0  0  0  0  0
    0.6496   -1.2675   -1.7602 C   0  0  0  0  0  0  0  0  0  0  0  0
   -0.1302   -0.5173   -2.6785 C   0  0  0  0  0  0  0  0  0  0  0  0
   -1.4193   -0.7366   -3.1076 N   0  0  0  0  0  0  0  0  0  0  0  0
   -1.8009    0.4502   -3.6511 C   0  0  0  0  0  0  0  0  0  0  0  0
   -3.0613    1.0501   -3.7455 C   0  0  0  0  0  0  0  0  0  0  0  0
   -4.6286    0.5696   -3.3831 S   0  0  0  0  0  0  0  0  0  0  0  0
   -2.3452   -1.8161   -2.7411 C   0  0  0  0  0  0  0  0  0  0  0  0
   -2.6766   -1.7890   -1.2522 C   0  0  0  0  0  0  0  0  0  0  0  0
    3.5451   -6.8855    2.1068 C   0  0  0  0  0  0  0  0  0  0  0  0
    4.1054   -7.8669    1.3743 C   0  0  0  0  0  0  0  0  0  0  0  0
    4.6074   -7.7192   -0.0103 C   0  0  0  0  0  0  0  0  0  0  0  0
    4.4821   -6.7234   -0.7712 O   0  0  0  0  0  0  0  0  0  0  0  0
    5.3869   -8.8901   -0.2979 C   0  0  0  0  0  0  0  0  0  0  0  0
    6.3887   -9.3973   -1.5390 S   0  0  0  0  0  0  0  0  0  0  0  0
    6.8700  -10.7904   -0.6895 C   0  0  0  0  0  0  0  0  0  0  0  0
    7.8211  -11.8088   -1.2255 C   0  0  0  0  0  0  0  0  0  0  0  0
    6.2521  -10.8394    0.5664 C   0  0  0  0  0  0  0  0  0  0  0  0
    5.4159   -9.7356    0.7590 C   0  0  0  0  0  0  0  0  0  0  0  0
    4.5827   -9.2084    1.8637 C   0  0  0  0  0  0  0  0  0  0  0  0
    4.2325   -9.8739    2.9919 C   0  0  0  0  0  0  0  0  0  0  0  0
    3.2468   -9.3755    3.9130 C   0  0  0  0  0  0  0  0  0  0  0  0
    2.4506   -8.9932    4.6636 N   0  0  0  0  0  0  0  0  0  0  0  0
    4.7545  -11.1815    3.2946 C   0  0  0  0  0  0  0  0  0  0  0  0
    5.1612  -12.2350    3.5481 N   0  0  0  0  0  0  0  0  0  0  0  0
   -7.2179    3.0492   -3.4833 H   0  0  0  0  0  0  0  0  0  0  0  0
   -5.2862    1.3839    2.2820 H   0  0  0  0  0  0  0  0  0  0  0  0
  -10.0700    2.9541    1.4885 H   0  0  0  0  0  0  0  0  0  0  0  0
   -9.6068    1.5928    4.6536 H   0  0  0  0  0  0  0  0  0  0  0  0
   -9.9419    4.0674    5.3029 H   0  0  0  0  0  0  0  0  0  0  0  0
   -8.3145    5.6198    3.8894 H   0  0  0  0  0  0  0  0  0  0  0  0
   -5.8630    4.8396    4.3216 H   0  0  0  0  0  0  0  0  0  0  0  0
   -5.9278    2.7839    5.9975 H   0  0  0  0  0  0  0  0  0  0  0  0
   -7.8844    4.2865    6.9536 H   0  0  0  0  0  0  0  0  0  0  0  0
   -8.4317    2.5460    6.9050 H   0  0  0  0  0  0  0  0  0  0  0  0
   -7.3926    0.8806    5.0453 H   0  0  0  0  0  0  0  0  0  0  0  0
   -5.1287    4.8416   -2.7090 H   0  0  0  0  0  0  0  0  0  0  0  0
   -3.4138    5.0436   -3.1780 H   0  0  0  0  0  0  0  0  0  0  0  0
   -4.8944    6.2298   -4.7676 H   0  0  0  0  0  0  0  0  0  0  0  0
   -4.0493    4.8759   -5.6053 H   0  0  0  0  0  0  0  0  0  0  0  0
   -5.7859    4.7026   -5.1241 H   0  0  0  0  0  0  0  0  0  0  0  0
    2.5691    9.4732   -2.1666 H   0  0  0  0  0  0  0  0  0  0  0  0
    2.3720    9.0252   -0.4347 H   0  0  0  0  0  0  0  0  0  0  0  0
    5.0202    8.9539   -2.0321 H   0  0  0  0  0  0  0  0  0  0  0  0
    4.8229    8.5028   -0.2840 H   0  0  0  0  0  0  0  0  0  0  0  0
    4.5298   10.2027   -0.8226 H   0  0  0  0  0  0  0  0  0  0  0  0
    2.5454    4.9322   -4.0160 H   0  0  0  0  0  0  0  0  0  0  0  0
    5.4082    4.3400   -1.2042 H   0  0  0  0  0  0  0  0  0  0  0  0
    7.4411    4.5097    3.2706 H   0  0  0  0  0  0  0  0  0  0  0  0
    6.2639    3.4410    4.1102 H   0  0  0  0  0  0  0  0  0  0  0  0
    6.2222    5.7707    5.0222 H   0  0  0  0  0  0  0  0  0  0  0  0
    4.6362    5.3251    4.2853 H   0  0  0  0  0  0  0  0  0  0  0  0
    5.7787    6.4099    3.3924 H   0  0  0  0  0  0  0  0  0  0  0  0
    5.3165   -4.9993    3.0989 H   0  0  0  0  0  0  0  0  0  0  0  0
    5.2908   -3.2387    2.7496 H   0  0  0  0  0  0  0  0  0  0  0  0
    3.3451   -2.9335    4.2787 H   0  0  0  0  0  0  0  0  0  0  0  0
    4.7186   -3.7306    5.1358 H   0  0  0  0  0  0  0  0  0  0  0  0
    3.3019   -4.7143    4.6027 H   0  0  0  0  0  0  0  0  0  0  0  0
    1.0883   -4.6116   -2.1620 H   0  0  0  0  0  0  0  0  0  0  0  0
   -0.5956   -4.1451   -2.2422 H   0  0  0  0  0  0  0  0  0  0  0  0
    1.7468   -3.0471   -3.9904 H   0  0  0  0  0  0  0  0  0  0  0  0
    0.0032   -2.7017   -4.2913 H   0  0  0  0  0  0  0  0  0  0  0  0
    0.6184   -4.3690   -4.4887 H   0  0  0  0  0  0  0  0  0  0  0  0
   -1.9536   -2.7893   -3.0517 H   0  0  0  0  0  0  0  0  0  0  0  0
   -3.2814   -1.7340   -3.3236 H   0  0  0  0  0  0  0  0  0  0  0  0
   -3.4641   -2.5411   -1.0360 H   0  0  0  0  0  0  0  0  0  0  0  0
   -3.0464   -0.7845   -0.9608 H   0  0  0  0  0  0  0  0  0  0  0  0
   -1.7837   -2.0358   -0.6444 H   0  0  0  0  0  0  0  0  0  0  0  0
    3.4618   -6.9790    3.1766 H   0  0  0  0  0  0  0  0  0  0  0  0
    8.0810  -12.5542   -0.4443 H   0  0  0  0  0  0  0  0  0  0  0  0
    8.7501  -11.3066   -1.5661 H   0  0  0  0  0  0  0  0  0  0  0  0
    7.3533  -12.3319   -2.0849 H   0  0  0  0  0  0  0  0  0  0  0  0
    6.4384  -11.6192    1.2899 H   0  0  0  0  0  0  0  0  0  0  0  0
  1  2  2  3
  2  3  1  0
  3  4  2  0
  3  5  1  0
  5  6  2  0
  6  7  1  0
  7  8  2  0
  8  9  1  0
  9 10  2  0
 10 11  1  0
 11 12  2  3
 12 13  1  0
 13 14  3  0
 12 15  1  0
 15 16  3  0
  8 17  1  0
 17 18  1  0
 18 19  1  0
 19 20  2  0
 20 21  1  0
 21 22  1  0
 21 23  1  0
  1 24  1  0
 24 25  2  0
 25 26  1  0
 26 27  1  0
 25 28  1  0
 28 29  1  0
 29 30  1  0
 30 31  1  0
 31 32  2  0
 32 33  1  0
 33 34  2  0
 34 35  1  0
 35 36  1  0
 36 37  1  0
 37 38  1  0
 38 39  1  0
 37 40  2  0
 40 41  1  0
 40 42  1  0
 34 43  1  0
 43 44  1  0
 44 45  2  0
 45 46  1  0
 46 47  1  0
 46 48  2  0
 48 49  1  0
 49 50  1  0
 48 51  1  0
 43 52  2  0
 52 53  1  0
 53 54  2  0
 54 55  1  0
 55 56  1  0
 56 57  1  0
 57 58  1  0
 58 59  1  0
 59 60  1  0
 58 61  2  0
 61 62  1  0
 62 63  1  0
 63 64  1  0
 64 65  1  0
 65 66  1  0
 66 67  1  0
 65 68  1  0
 68 69  2  0
 69 70  1  0
 70 71  1  0
 71 72  1  0
 72 73  1  0
 70 74  1  0
 74 75  1  0
 61 76  1  0
 76 77  2  3
 77 78  1  0
 78 79  2  0
 78 80  1  0
 80 81  1  0
 81 82  1  0
 82 83  1  0
 82 84  2  0
 84 85  1  0
 85 86  1  0
 86 87  2  3
 87 88  1  0
 88 89  3  0
 87 90  1  0
 90 91  3  0
 11  2  1  0
 23 17  1  0
 73 24  1  0
 86 77  1  0
 10  5  1  0
 22 18  1  0
 72 28  2  0
 85 80  2  0
 23  7  1  0
 71 30  2  0
 69 31  1  0
 53 32  1  0
 68 54  1  0
 41 35  2  0
 51 44  1  0
 64 55  2  0
 63 57  2  0
  1 92  1  0
  6 93  1  0
  9 94  1  0
 17 95  1  0
 18 96  1  0
 19 97  1  0
 20 98  1  0
 21 99  1  0
 22100  1  0
 22101  1  0
 23102  1  0
 26103  1  0
 26104  1  0
 27105  1  0
 27106  1  0
 27107  1  0
 38108  1  0
 38109  1  0
 39110  1  0
 39111  1  0
 39112  1  0
 41113  1  0
 45114  1  0
 49115  1  0
 49116  1  0
 50117  1  0
 50118  1  0
 50119  1  0
 59120  1  0
 59121  1  0
 60122  1  0
 60123  1  0
 60124  1  0
 66125  1  0
 66126  1  0
 67127  1  0
 67128  1  0
 67129  1  0
 74130  1  0
 74131  1  0
 75132  1  0
 75133  1  0
 75134  1  0
 76135  1  0
 83136  1  0
 83137  1  0
 83138  1  0
 84139  1  0
M  END

