
     RDKit          3D

104118  0  0  0  0  0  0  0  0999 V2000
    2.5424    2.1344    3.9352 C   0  0  0  0  0  0  0  0  0  0  0  0
    1.6937    3.0352    3.4033 C   0  0  0  0  0  0  0  0  0  0  0  0
    0.9119    2.8546    2.1799 C   0  0  0  0  0  0  0  0  0  0  0  0
    1.2682    2.2079    1.1592 O   0  0  0  0  0  0  0  0  0  0  0  0
   -0.2874    3.6511    2.2763 C   0  0  0  0  0  0  0  0  0  0  0  0
   -1.4237    3.5801    1.4394 C   0  0  0  0  0  0  0  0  0  0  0  0
   -2.4955    4.3285    1.8824 C   0  0  0  0  0  0  0  0  0  0  0  0
   -2.4535    5.1237    3.0746 C   0  0  0  0  0  0  0  0  0  0  0  0
   -1.3407    5.2059    3.8979 C   0  0  0  0  0  0  0  0  0  0  0  0
   -0.2240    4.4383    3.4581 C   0  0  0  0  0  0  0  0  0  0  0  0
    1.0909    4.1989    4.1202 C   0  0  0  0  0  0  0  0  0  0  0  0
    1.7066    5.0040    5.0205 C   0  0  0  0  0  0  0  0  0  0  0  0
    1.0609    6.1560    5.5950 C   0  0  0  0  0  0  0  0  0  0  0  0
    0.5557    7.0824    6.0724 N   0  0  0  0  0  0  0  0  0  0  0  0
    3.0948    4.8351    5.3714 C   0  0  0  0  0  0  0  0  0  0  0  0
    4.2109    4.7121    5.6508 N   0  0  0  0  0  0  0  0  0  0  0  0
   -3.8843    5.5270    2.8701 C   0  0  0  0  0  0  0  0  0  0  0  0
   -4.1446    6.9730    2.3440 C   0  0  0  0  0  0  0  0  0  0  0  0
   -5.5788    6.9822    1.8523 C   0  0  0  0  0  0  0  0  0  0  0  0
   -5.6077    6.2307    0.7449 C   0  0  0  0  0  0  0  0  0  0  0  0
   -4.1970    5.7432    0.5231 C   0  0  0  0  0  0  0  0  0  0  0  0
   -3.4439    6.9798    0.9991 C   0  0  0  0  0  0  0  0  0  0  0  0
   -3.9241    4.7070    1.6534 C   0  0  0  0  0  0  0  0  0  0  0  0
    2.7541    0.7772    3.3848 C   0  0  0  0  0  0  0  0  0  0  0  0
    3.9885    0.0951    3.3379 C   0  0  0  0  0  0  0  0  0  0  0  0
    5.3054    0.6636    3.7814 C   0  0  0  0  0  0  0  0  0  0  0  0
    5.6002    0.2848    5.2311 C   0  0  0  0  0  0  0  0  0  0  0  0
    3.8273   -1.1895    2.8141 C   0  0  0  0  0  0  0  0  0  0  0  0
    2.5388   -1.5127    2.4924 C   0  0  0  0  0  0  0  0  0  0  0  0
    1.5030   -0.2468    2.8205 S   0  0  0  0  0  0  0  0  0  0  0  0
    2.4396   -2.7121    1.8166 C   0  0  0  0  0  0  0  0  0  0  0  0
    3.6344   -3.3290    1.6612 C   0  0  0  0  0  0  0  0  0  0  0  0
    4.9132   -2.4188    2.3236 S   0  0  0  0  0  0  0  0  0  0  0  0
    3.4038   -4.4491    0.9016 C   0  0  0  0  0  0  0  0  0  0  0  0
    4.2326   -5.4760    0.4391 C   0  0  0  0  0  0  0  0  0  0  0  0
    5.5477   -5.5777    0.7348 N   0  0  0  0  0  0  0  0  0  0  0  0
    5.9153   -6.9546   -0.1140 S   0  0  0  0  0  0  0  0  0  0  0  0
    4.5102   -7.4568   -0.8398 N   0  0  0  0  0  0  0  0  0  0  0  0
    3.6651   -6.4905   -0.3966 C   0  0  0  0  0  0  0  0  0  0  0  0
    2.3143   -6.3846   -0.7762 C   0  0  0  0  0  0  0  0  0  0  0  0
    1.6595   -6.9472   -1.8392 C   0  0  0  0  0  0  0  0  0  0  0  0
    2.1658   -7.8287   -3.2039 S   0  0  0  0  0  0  0  0  0  0  0  0
    0.9038   -7.1970   -4.1507 C   0  0  0  0  0  0  0  0  0  0  0  0
    0.6560   -7.2134   -5.5243 C   0  0  0  0  0  0  0  0  0  0  0  0
   -0.3007   -6.2498   -5.8696 C   0  0  0  0  0  0  0  0  0  0  0  0
   -0.8382   -5.4319   -4.4745 S   0  0  0  0  0  0  0  0  0  0  0  0
    0.1722   -6.2830   -3.4412 C   0  0  0  0  0  0  0  0  0  0  0  0
    0.5991   -6.1308   -2.1262 C   0  0  0  0  0  0  0  0  0  0  0  0
    0.5241   -5.0542   -1.2948 N   0  0  0  0  0  0  0  0  0  0  0  0
    0.0935   -3.7192   -1.7555 C   0  0  0  0  0  0  0  0  0  0  0  0
    1.1840   -3.0444   -2.5860 C   0  0  0  0  0  0  0  0  0  0  0  0
    1.5270   -5.2877   -0.3879 C   0  0  0  0  0  0  0  0  0  0  0  0
    2.0416   -4.3913    0.5718 C   0  0  0  0  0  0  0  0  0  0  0  0
    1.4212   -3.3462    1.1957 N   0  0  0  0  0  0  0  0  0  0  0  0
    0.0075   -3.2497    1.5937 C   0  0  0  0  0  0  0  0  0  0  0  0
   -0.1813   -3.6562    3.0579 C   0  0  0  0  0  0  0  0  0  0  0  0
   -0.7241   -5.9216   -7.2387 C   0  0  0  0  0  0  0  0  0  0  0  0
   -0.9448   -4.6643   -7.6671 C   0  0  0  0  0  0  0  0  0  0  0  0
   -1.8572   -4.3339   -8.7627 C   0  0  0  0  0  0  0  0  0  0  0  0
   -2.2586   -5.1332   -9.6508 O   0  0  0  0  0  0  0  0  0  0  0  0
   -2.2766   -2.9458   -8.6091 C   0  0  0  0  0  0  0  0  0  0  0  0
   -1.6096   -2.4037   -7.5254 C   0  0  0  0  0  0  0  0  0  0  0  0
   -1.9432   -1.1211   -7.0596 C   0  0  0  0  0  0  0  0  0  0  0  0
   -2.9000   -0.3713   -7.7616 C   0  0  0  0  0  0  0  0  0  0  0  0
   -3.5283   -0.8984   -8.9033 C   0  0  0  0  0  0  0  0  0  0  0  0
   -4.7741    0.2098   -9.8496 Br  0  0  0  0  0  0  0  0  0  0  0  0
   -3.2321   -2.2105   -9.3323 C   0  0  0  0  0  0  0  0  0  0  0  0
   -4.0356   -2.9095  -10.7344 Cl  0  0  0  0  0  0  0  0  0  0  0  0
   -0.6300   -3.3823   -6.9904 C   0  0  0  0  0  0  0  0  0  0  0  0
    0.5632   -3.0633   -6.4244 C   0  0  0  0  0  0  0  0  0  0  0  0
    1.6600   -4.0014   -6.3899 C   0  0  0  0  0  0  0  0  0  0  0  0
    2.5489   -4.7433   -6.3639 N   0  0  0  0  0  0  0  0  0  0  0  0
    0.8722   -1.7314   -5.9725 C   0  0  0  0  0  0  0  0  0  0  0  0
    1.1324   -0.6679   -5.6052 N   0  0  0  0  0  0  0  0  0  0  0  0
    3.0134    2.3321    4.8857 H   0  0  0  0  0  0  0  0  0  0  0  0
   -1.4739    2.9539    0.5589 H   0  0  0  0  0  0  0  0  0  0  0  0
   -1.3755    5.7636    4.8196 H   0  0  0  0  0  0  0  0  0  0  0  0
   -4.5719    5.1760    3.6735 H   0  0  0  0  0  0  0  0  0  0  0  0
   -3.8744    7.7902    3.0468 H   0  0  0  0  0  0  0  0  0  0  0  0
   -6.4106    7.5580    2.2464 H   0  0  0  0  0  0  0  0  0  0  0  0
   -6.4634    6.0839    0.0925 H   0  0  0  0  0  0  0  0  0  0  0  0
   -3.9612    5.4039   -0.5096 H   0  0  0  0  0  0  0  0  0  0  0  0
   -2.3383    6.8398    1.0700 H   0  0  0  0  0  0  0  0  0  0  0  0
   -3.6638    7.8948    0.3922 H   0  0  0  0  0  0  0  0  0  0  0  0
   -4.6215    3.8398    1.6987 H   0  0  0  0  0  0  0  0  0  0  0  0
    5.2945    1.7700    3.6760 H   0  0  0  0  0  0  0  0  0  0  0  0
    6.1150    0.2839    3.1259 H   0  0  0  0  0  0  0  0  0  0  0  0
    5.6481   -0.8200    5.3348 H   0  0  0  0  0  0  0  0  0  0  0  0
    6.5884    0.6982    5.5286 H   0  0  0  0  0  0  0  0  0  0  0  0
    4.8196    0.7127    5.8997 H   0  0  0  0  0  0  0  0  0  0  0  0
    1.2102   -7.8115   -6.2331 H   0  0  0  0  0  0  0  0  0  0  0  0
   -0.8432   -3.7990   -2.3471 H   0  0  0  0  0  0  0  0  0  0  0  0
   -0.1588   -3.0447   -0.9288 H   0  0  0  0  0  0  0  0  0  0  0  0
    2.0618   -2.8113   -1.9445 H   0  0  0  0  0  0  0  0  0  0  0  0
    1.5276   -3.7102   -3.4012 H   0  0  0  0  0  0  0  0  0  0  0  0
    0.8034   -2.0936   -3.0122 H   0  0  0  0  0  0  0  0  0  0  0  0
   -0.6283   -3.9339    0.9930 H   0  0  0  0  0  0  0  0  0  0  0  0
   -0.3457   -2.2055    1.4473 H   0  0  0  0  0  0  0  0  0  0  0  0
    0.4409   -3.0309    3.7313 H   0  0  0  0  0  0  0  0  0  0  0  0
   -1.2493   -3.5229    3.3351 H   0  0  0  0  0  0  0  0  0  0  0  0
    0.1068   -4.7225    3.1843 H   0  0  0  0  0  0  0  0  0  0  0  0
   -0.9756   -6.7451   -7.8913 H   0  0  0  0  0  0  0  0  0  0  0  0
   -1.5077   -0.7043   -6.1659 H   0  0  0  0  0  0  0  0  0  0  0  0
   -3.1485    0.6226   -7.4132 H   0  0  0  0  0  0  0  0  0  0  0  0
  1  2  2  3
  2  3  1  0
  3  4  2  0
  3  5  1  0
  5  6  2  0
  6  7  1  0
  7  8  2  0
  8  9  1  0
  9 10  2  0
 10 11  1  0
 11 12  2  3
 12 13  1  0
 13 14  3  0
 12 15  1  0
 15 16  3  0
  8 17  1  0
 17 18  1  0
 18 19  1  0
 19 20  2  0
 20 21  1  0
 21 22  1  0
 21 23  1  0
  1 24  1  0
 24 25  2  0
 25 26  1  0
 26 27  1  0
 25 28  1  0
 28 29  2  0
 29 30  1  0
 29 31  1  0
 31 32  2  0
 32 33  1  0
 32 34  1  0
 34 35  1  0
 35 36  2  0
 36 37  1  0
 37 38  1  0
 38 39  2  0
 39 40  1  0
 40 41  1  0
 41 42  1  0
 42 43  1  0
 43 44  1  0
 44 45  2  0
 45 46  1  0
 46 47  1  0
 47 48  1  0
 48 49  1  0
 49 50  1  0
 50 51  1  0
 49 52  1  0
 52 53  1  0
 53 54  1  0
 54 55  1  0
 55 56  1  0
 45 57  1  0
 57 58  2  3
 58 59  1  0
 59 60  2  0
 59 61  1  0
 61 62  2  0
 62 63  1  0
 63 64  2  0
 64 65  1  0
 65 66  1  0
 65 67  2  0
 67 68  1  0
 62 69  1  0
 69 70  2  3
 70 71  1  0
 71 72  3  0
 70 73  1  0
 73 74  3  0
 11  2  1  0
 23 17  1  0
 30 24  1  0
 54 31  1  0
 69 58  1  0
 10  5  1  0
 22 18  1  0
 33 28  1  0
 53 34  2  0
 67 61  1  0
 23  7  1  0
 39 35  1  0
 52 40  2  0
 48 41  2  0
 47 43  2  0
  1 75  1  0
  6 76  1  0
  9 77  1  0
 17 78  1  0
 18 79  1  0
 19 80  1  0
 20 81  1  0
 21 82  1  0
 22 83  1  0
 22 84  1  0
 23 85  1  0
 26 86  1  0
 26 87  1  0
 27 88  1  0
 27 89  1  0
 27 90  1  0
 44 91  1  0
 50 92  1  0
 50 93  1  0
 51 94  1  0
 51 95  1  0
 51 96  1  0
 55 97  1  0
 55 98  1  0
 56 99  1  0
 56100  1  0
 56101  1  0
 57102  1  0
 63103  1  0
 64104  1  0
M  END

