
     RDKit          3D

134150  0  0  0  0  0  0  0  0999 V2000
    3.0254    3.6210   -5.6451 C   0  0  0  0  0  0  0  0  0  0  0  0
    3.2792    4.9016   -5.3388 C   0  0  0  0  0  0  0  0  0  0  0  0
    4.1548    5.3489   -4.2498 C   0  0  0  0  0  0  0  0  0  0  0  0
    5.0491    4.6646   -3.6848 O   0  0  0  0  0  0  0  0  0  0  0  0
    3.8022    6.7006   -3.9050 C   0  0  0  0  0  0  0  0  0  0  0  0
    4.3291    7.4724   -2.8454 C   0  0  0  0  0  0  0  0  0  0  0  0
    3.6904    8.6805   -2.6668 C   0  0  0  0  0  0  0  0  0  0  0  0
    2.6061    9.1202   -3.4954 C   0  0  0  0  0  0  0  0  0  0  0  0
    2.1385    8.4098   -4.5872 C   0  0  0  0  0  0  0  0  0  0  0  0
    2.7815    7.1596   -4.7886 C   0  0  0  0  0  0  0  0  0  0  0  0
    2.5139    6.1071   -5.8060 C   0  0  0  0  0  0  0  0  0  0  0  0
    1.8898    6.2769   -6.9933 C   0  0  0  0  0  0  0  0  0  0  0  0
    1.3270    7.5392   -7.4131 C   0  0  0  0  0  0  0  0  0  0  0  0
    0.8715    8.5480   -7.7542 N   0  0  0  0  0  0  0  0  0  0  0  0
    1.9009    5.2555   -8.0056 C   0  0  0  0  0  0  0  0  0  0  0  0
    1.9230    4.4398   -8.8343 N   0  0  0  0  0  0  0  0  0  0  0  0
    2.4588   10.3589   -2.6639 C   0  0  0  0  0  0  0  0  0  0  0  0
    2.9518   11.6748   -3.3088 C   0  0  0  0  0  0  0  0  0  0  0  0
    3.0784   12.6690   -2.1913 C   0  0  0  0  0  0  0  0  0  0  0  0
    4.1211   12.2765   -1.4473 C   0  0  0  0  0  0  0  0  0  0  0  0
    4.6626   11.0211   -2.0953 C   0  0  0  0  0  0  0  0  0  0  0  0
    4.4280   11.4043   -3.5436 C   0  0  0  0  0  0  0  0  0  0  0  0
    3.5954    9.9233   -1.8404 C   0  0  0  0  0  0  0  0  0  0  0  0
    3.3516    2.4834   -4.6985 C   0  0  0  0  0  0  0  0  0  0  0  0
    2.2383    2.3093   -3.4523 S   0  0  0  0  0  0  0  0  0  0  0  0
    3.1122    1.1538   -2.6819 C   0  0  0  0  0  0  0  0  0  0  0  0
    2.6112    0.2149   -1.7198 C   0  0  0  0  0  0  0  0  0  0  0  0
    3.3051   -0.9963   -1.7040 C   0  0  0  0  0  0  0  0  0  0  0  0
    4.7752   -0.8468   -2.8392 Si  0  0  0  0  0  4  0  0  0  0  0  0
    4.2248    0.8352   -3.3976 C   0  0  0  0  0  0  0  0  0  0  0  0
    4.4255    1.6962   -4.5295 C   0  0  0  0  0  0  0  0  0  0  0  0
    6.3610   -0.8803   -1.8456 C   0  0  0  0  0  0  0  0  0  0  0  0
    6.2629   -0.0379   -0.5869 C   0  0  0  0  0  0  0  0  0  0  0  0
    4.7124   -2.1817   -4.1504 C   0  0  0  0  0  0  0  0  0  0  0  0
    5.9090   -2.0942   -5.0860 C   0  0  0  0  0  0  0  0  0  0  0  0
    2.8218   -2.0834   -0.9335 C   0  0  0  0  0  0  0  0  0  0  0  0
    1.6286   -1.8609   -0.2051 C   0  0  0  0  0  0  0  0  0  0  0  0
    0.8771   -2.6721    0.6308 C   0  0  0  0  0  0  0  0  0  0  0  0
   -0.1040   -1.8497    1.1725 C   0  0  0  0  0  0  0  0  0  0  0  0
   -0.0548   -0.6106    0.6507 N   0  0  0  0  0  0  0  0  0  0  0  0
   -0.8728    0.5558    1.0034 C   0  0  0  0  0  0  0  0  0  0  0  0
   -0.2617    1.2888    2.1880 C   0  0  0  0  0  0  0  0  0  0  0  0
    1.0178   -0.6152   -0.1688 C   0  0  0  0  0  0  0  0  0  0  0  0
    1.4959    0.4468   -0.9215 C   0  0  0  0  0  0  0  0  0  0  0  0
   -0.9671   -2.2974    2.1766 C   0  0  0  0  0  0  0  0  0  0  0  0
   -0.8489   -3.6413    2.5468 C   0  0  0  0  0  0  0  0  0  0  0  0
   -1.5991   -4.3029    3.6057 C   0  0  0  0  0  0  0  0  0  0  0  0
   -1.3537   -5.6222    3.7929 C   0  0  0  0  0  0  0  0  0  0  0  0
   -0.1035   -6.2173    2.5815 Si  0  0  0  0  0  4  0  0  0  0  0  0
    0.0611   -4.5037    1.9146 C   0  0  0  0  0  0  0  0  0  0  0  0
    0.9732   -4.0299    0.9606 C   0  0  0  0  0  0  0  0  0  0  0  0
    1.4838   -6.8210    3.3658 C   0  0  0  0  0  0  0  0  0  0  0  0
    2.2147   -5.6990    4.0887 C   0  0  0  0  0  0  0  0  0  0  0  0
   -0.8641   -7.3555    1.2984 C   0  0  0  0  0  0  0  0  0  0  0  0
   -0.0111   -7.4200    0.0357 C   0  0  0  0  0  0  0  0  0  0  0  0
   -2.1523   -6.2371    4.7625 C   0  0  0  0  0  0  0  0  0  0  0  0
   -3.0221   -5.3154    5.3682 C   0  0  0  0  0  0  0  0  0  0  0  0
   -2.8056   -3.7861    4.6417 S   0  0  0  0  0  0  0  0  0  0  0  0
   -4.1686   -5.6790    6.2408 C   0  0  0  0  0  0  0  0  0  0  0  0
   -4.9634   -4.7647    6.8216 C   0  0  0  0  0  0  0  0  0  0  0  0
   -6.3556   -4.6697    6.3739 C   0  0  0  0  0  0  0  0  0  0  0  0
   -7.1049   -5.6485    6.1036 O   0  0  0  0  0  0  0  0  0  0  0  0
   -6.6645   -3.2680    6.1047 C   0  0  0  0  0  0  0  0  0  0  0  0
   -7.6852   -2.7689    5.2580 C   0  0  0  0  0  0  0  0  0  0  0  0
   -7.5177   -1.4427    4.9144 C   0  0  0  0  0  0  0  0  0  0  0  0
   -6.4395   -0.6362    5.3853 C   0  0  0  0  0  0  0  0  0  0  0  0
   -5.4406   -1.1111    6.2081 C   0  0  0  0  0  0  0  0  0  0  0  0
   -5.5747   -2.4763    6.5594 C   0  0  0  0  0  0  0  0  0  0  0  0
   -4.5572   -3.3713    7.1378 C   0  0  0  0  0  0  0  0  0  0  0  0
   -3.5202   -3.0323    7.9419 C   0  0  0  0  0  0  0  0  0  0  0  0
   -2.7003   -4.0433    8.5505 C   0  0  0  0  0  0  0  0  0  0  0  0
   -2.0408   -4.8497    9.0637 N   0  0  0  0  0  0  0  0  0  0  0  0
   -3.2162   -1.6721    8.2820 C   0  0  0  0  0  0  0  0  0  0  0  0
   -2.9607   -0.5729    8.5435 N   0  0  0  0  0  0  0  0  0  0  0  0
   -6.8558    0.4868    4.4831 C   0  0  0  0  0  0  0  0  0  0  0  0
   -5.9646    0.7060    3.2273 C   0  0  0  0  0  0  0  0  0  0  0  0
   -6.7611    1.5681    2.2897 C   0  0  0  0  0  0  0  0  0  0  0  0
   -7.7755    0.8146    1.8400 C   0  0  0  0  0  0  0  0  0  0  0  0
   -7.6192   -0.5368    2.4895 C   0  0  0  0  0  0  0  0  0  0  0  0
   -6.1018   -0.6157    2.4875 C   0  0  0  0  0  0  0  0  0  0  0  0
   -7.9646   -0.3441    3.9985 C   0  0  0  0  0  0  0  0  0  0  0  0
    2.3272    3.3557   -6.4248 H   0  0  0  0  0  0  0  0  0  0  0  0
    5.1350    7.1468   -2.1970 H   0  0  0  0  0  0  0  0  0  0  0  0
    1.3113    8.7884   -5.1762 H   0  0  0  0  0  0  0  0  0  0  0  0
    1.4890   10.4198   -2.1060 H   0  0  0  0  0  0  0  0  0  0  0  0
    2.3718   12.0089   -4.1987 H   0  0  0  0  0  0  0  0  0  0  0  0
    2.4623   13.5329   -2.0121 H   0  0  0  0  0  0  0  0  0  0  0  0
    4.5220   12.7948   -0.5819 H   0  0  0  0  0  0  0  0  0  0  0  0
    5.7123   10.7549   -1.8219 H   0  0  0  0  0  0  0  0  0  0  0  0
    4.6302   10.5869   -4.2693 H   0  0  0  0  0  0  0  0  0  0  0  0
    5.0005   12.2962   -3.8717 H   0  0  0  0  0  0  0  0  0  0  0  0
    3.3589    9.7128   -0.7738 H   0  0  0  0  0  0  0  0  0  0  0  0
    5.2079    1.5759   -5.2631 H   0  0  0  0  0  0  0  0  0  0  0  0
    6.5660   -1.9462   -1.5800 H   0  0  0  0  0  0  0  0  0  0  0  0
    7.1852   -0.4937   -2.4894 H   0  0  0  0  0  0  0  0  0  0  0  0
    7.1824   -0.1831    0.0106 H   0  0  0  0  0  0  0  0  0  0  0  0
    5.3869   -0.3503    0.0367 H   0  0  0  0  0  0  0  0  0  0  0  0
    6.1610    1.0369   -0.8467 H   0  0  0  0  0  0  0  0  0  0  0  0
    3.7689   -2.0711   -4.7325 H   0  0  0  0  0  0  0  0  0  0  0  0
    4.7025   -3.1842   -3.6589 H   0  0  0  0  0  0  0  0  0  0  0  0
    6.8576   -2.1615   -4.5128 H   0  0  0  0  0  0  0  0  0  0  0  0
    5.8772   -2.9346   -5.8190 H   0  0  0  0  0  0  0  0  0  0  0  0
    5.8885   -1.1308   -5.6442 H   0  0  0  0  0  0  0  0  0  0  0  0
    3.3427   -3.0318   -0.9112 H   0  0  0  0  0  0  0  0  0  0  0  0
   -1.9099    0.2418    1.2425 H   0  0  0  0  0  0  0  0  0  0  0  0
   -0.9607    1.2408    0.1332 H   0  0  0  0  0  0  0  0  0  0  0  0
   -0.7242    2.2938    2.2729 H   0  0  0  0  0  0  0  0  0  0  0  0
    0.8296    1.4314    2.0372 H   0  0  0  0  0  0  0  0  0  0  0  0
   -0.4158    0.7206    3.1250 H   0  0  0  0  0  0  0  0  0  0  0  0
    1.0064    1.4144   -0.9025 H   0  0  0  0  0  0  0  0  0  0  0  0
   -1.6903   -1.6336    2.6549 H   0  0  0  0  0  0  0  0  0  0  0  0
    1.6888   -4.6851    0.4972 H   0  0  0  0  0  0  0  0  0  0  0  0
    2.1386   -7.2301    2.5709 H   0  0  0  0  0  0  0  0  0  0  0  0
    1.2325   -7.6356    4.0770 H   0  0  0  0  0  0  0  0  0  0  0  0
    1.5382   -5.1583    4.7870 H   0  0  0  0  0  0  0  0  0  0  0  0
    2.6354   -4.9814    3.3452 H   0  0  0  0  0  0  0  0  0  0  0  0
    3.0607   -6.1238    4.6641 H   0  0  0  0  0  0  0  0  0  0  0  0
   -1.8721   -6.9748    1.0274 H   0  0  0  0  0  0  0  0  0  0  0  0
   -0.9682   -8.3673    1.7338 H   0  0  0  0  0  0  0  0  0  0  0  0
    1.0385   -7.6683    0.2820 H   0  0  0  0  0  0  0  0  0  0  0  0
   -0.0399   -6.4487   -0.5037 H   0  0  0  0  0  0  0  0  0  0  0  0
   -0.4023   -8.2106   -0.6341 H   0  0  0  0  0  0  0  0  0  0  0  0
   -2.1373   -7.2988    4.9800 H   0  0  0  0  0  0  0  0  0  0  0  0
   -4.5736   -6.6694    6.0687 H   0  0  0  0  0  0  0  0  0  0  0  0
   -8.4360   -3.4013    4.8015 H   0  0  0  0  0  0  0  0  0  0  0  0
   -4.5713   -0.5006    6.4341 H   0  0  0  0  0  0  0  0  0  0  0  0
   -7.1639    1.4142    5.0361 H   0  0  0  0  0  0  0  0  0  0  0  0
   -4.9287    1.0431    3.4243 H   0  0  0  0  0  0  0  0  0  0  0  0
   -6.5174    2.5745    1.9441 H   0  0  0  0  0  0  0  0  0  0  0  0
   -8.4843    1.0947    1.0629 H   0  0  0  0  0  0  0  0  0  0  0  0
   -8.1502   -1.3730    1.9817 H   0  0  0  0  0  0  0  0  0  0  0  0
   -5.6851   -1.4940    3.0324 H   0  0  0  0  0  0  0  0  0  0  0  0
   -5.6539   -0.5961    1.4579 H   0  0  0  0  0  0  0  0  0  0  0  0
   -8.9768    0.0654    4.2133 H   0  0  0  0  0  0  0  0  0  0  0  0
  1  2  2  3
  2  3  1  0
  3  4  2  0
  3  5  1  0
  5  6  2  0
  6  7  1  0
  7  8  2  0
  8  9  1  0
  9 10  2  0
 10 11  1  0
 11 12  2  3
 12 13  1  0
 13 14  3  0
 12 15  1  0
 15 16  3  0
  8 17  1  0
 17 18  1  0
 18 19  1  0
 19 20  2  0
 20 21  1  0
 21 22  1  0
 21 23  1  0
  1 24  1  0
 24 25  1  0
 25 26  1  0
 26 27  1  0
 27 28  2  0
 28 29  1  0
 29 30  1  0
 30 31  1  0
 29 32  1  0
 32 33  1  0
 29 34  1  0
 34 35  1  0
 28 36  1  0
 36 37  2  0
 37 38  1  0
 38 39  2  0
 39 40  1  0
 40 41  1  0
 41 42  1  0
 40 43  1  0
 43 44  2  0
 39 45  1  0
 45 46  2  0
 46 47  1  0
 47 48  2  0
 48 49  1  0
 49 50  1  0
 50 51  2  0
 49 52  1  0
 52 53  1  0
 49 54  1  0
 54 55  1  0
 48 56  1  0
 56 57  2  0
 57 58  1  0
 57 59  1  0
 59 60  2  3
 60 61  1  0
 61 62  2  0
 61 63  1  0
 63 64  2  0
 64 65  1  0
 65 66  2  0
 66 67  1  0
 67 68  2  0
 68 69  1  0
 69 70  2  3
 70 71  1  0
 71 72  3  0
 70 73  1  0
 73 74  3  0
 66 75  1  0
 75 76  1  0
 76 77  1  0
 77 78  2  0
 78 79  1  0
 79 80  1  0
 79 81  1  0
 11  2  1  0
 23 17  1  0
 31 24  2  0
 43 37  1  0
 50 46  1  0
 69 60  1  0
 81 75  1  0
 10  5  1  0
 22 18  1  0
 30 26  2  0
 51 38  1  0
 68 63  1  0
 80 76  1  0
 23  7  1  0
 44 27  1  0
 58 47  1  0
 81 65  1  0
  1 82  1  0
  6 83  1  0
  9 84  1  0
 17 85  1  0
 18 86  1  0
 19 87  1  0
 20 88  1  0
 21 89  1  0
 22 90  1  0
 22 91  1  0
 23 92  1  0
 31 93  1  0
 32 94  1  0
 32 95  1  0
 33 96  1  0
 33 97  1  0
 33 98  1  0
 34 99  1  0
 34100  1  0
 35101  1  0
 35102  1  0
 35103  1  0
 36104  1  0
 41105  1  0
 41106  1  0
 42107  1  0
 42108  1  0
 42109  1  0
 44110  1  0
 45111  1  0
 51112  1  0
 52113  1  0
 52114  1  0
 53115  1  0
 53116  1  0
 53117  1  0
 54118  1  0
 54119  1  0
 55120  1  0
 55121  1  0
 55122  1  0
 56123  1  0
 59124  1  0
 64125  1  0
 67126  1  0
 75127  1  0
 76128  1  0
 77129  1  0
 78130  1  0
 79131  1  0
 80132  1  0
 80133  1  0
 81134  1  0
M  END

