
     RDKit          3D

108122  0  0  0  0  0  0  0  0999 V2000
   -3.6382   -4.2210    2.4848 C   0  0  0  0  0  0  0  0  0  0  0  0
   -4.7144   -4.0361    1.6954 C   0  0  0  0  0  0  0  0  0  0  0  0
   -5.8844   -4.9088    1.7670 C   0  0  0  0  0  0  0  0  0  0  0  0
   -6.1781   -5.6747    2.7237 O   0  0  0  0  0  0  0  0  0  0  0  0
   -6.6151   -4.8054    0.5233 C   0  0  0  0  0  0  0  0  0  0  0  0
   -7.7553   -5.5464    0.1353 C   0  0  0  0  0  0  0  0  0  0  0  0
   -8.2069   -5.2539   -1.1384 C   0  0  0  0  0  0  0  0  0  0  0  0
   -7.5644   -4.3028   -1.9944 C   0  0  0  0  0  0  0  0  0  0  0  0
   -6.4409   -3.5839   -1.6269 C   0  0  0  0  0  0  0  0  0  0  0  0
   -5.9794   -3.8454   -0.3067 C   0  0  0  0  0  0  0  0  0  0  0  0
   -4.8567   -3.2217    0.4473 C   0  0  0  0  0  0  0  0  0  0  0  0
   -4.3621   -1.9752    0.2376 C   0  0  0  0  0  0  0  0  0  0  0  0
   -3.7001   -1.2248    1.2736 C   0  0  0  0  0  0  0  0  0  0  0  0
   -3.1736   -0.5975    2.0913 N   0  0  0  0  0  0  0  0  0  0  0  0
   -4.5722   -1.2497   -0.9891 C   0  0  0  0  0  0  0  0  0  0  0  0
   -4.7307   -0.6547   -1.9709 N   0  0  0  0  0  0  0  0  0  0  0  0
   -8.5614   -4.5776   -3.0811 C   0  0  0  0  0  0  0  0  0  0  0  0
   -8.0976   -5.4314   -4.2999 C   0  0  0  0  0  0  0  0  0  0  0  0
   -7.0302   -6.4098   -3.8686 C   0  0  0  0  0  0  0  0  0  0  0  0
   -7.6263   -7.2979   -3.0727 C   0  0  0  0  0  0  0  0  0  0  0  0
   -9.0813   -6.8950   -2.9894 C   0  0  0  0  0  0  0  0  0  0  0  0
   -9.2709   -6.3882   -4.4079 C   0  0  0  0  0  0  0  0  0  0  0  0
   -9.2193   -5.5535   -2.2063 C   0  0  0  0  0  0  0  0  0  0  0  0
   -2.2810   -3.7182    2.2013 C   0  0  0  0  0  0  0  0  0  0  0  0
   -1.7082   -3.6348    0.9309 C   0  0  0  0  0  0  0  0  0  0  0  0
   -0.4934   -3.0153    1.1400 C   0  0  0  0  0  0  0  0  0  0  0  0
   -0.3711   -2.7554    2.4593 C   0  0  0  0  0  0  0  0  0  0  0  0
   -1.4515   -3.1932    3.1470 N   0  0  0  0  0  0  0  0  0  0  0  0
   -1.6764   -3.1951    4.5956 C   0  0  0  0  0  0  0  0  0  0  0  0
   -2.6726   -2.1125    5.0066 C   0  0  0  0  0  0  0  0  0  0  0  0
    0.4110   -1.6143    2.5633 C   0  0  0  0  0  0  0  0  0  0  0  0
    0.5720   -0.6567    3.5904 C   0  0  0  0  0  0  0  0  0  0  0  0
    1.1592    0.6082    3.2766 C   0  0  0  0  0  0  0  0  0  0  0  0
    1.2911    1.5035    4.2883 N   0  0  0  0  0  0  0  0  0  0  0  0
    0.6356    0.6263    5.5286 S   0  0  0  0  0  0  0  0  0  0  0  0
    0.1991   -0.8314    4.8815 N   0  0  0  0  0  0  0  0  0  0  0  0
    1.6073    0.8340    1.9768 C   0  0  0  0  0  0  0  0  0  0  0  0
    2.3450    1.8474    1.4382 C   0  0  0  0  0  0  0  0  0  0  0  0
    3.0128    3.3381    1.8955 S   0  0  0  0  0  0  0  0  0  0  0  0
    3.8705    3.4246    0.4204 C   0  0  0  0  0  0  0  0  0  0  0  0
    4.6749    4.4024   -0.1592 C   0  0  0  0  0  0  0  0  0  0  0  0
    4.7864    5.7974    0.3964 C   0  0  0  0  0  0  0  0  0  0  0  0
    3.7313    6.7103   -0.2266 C   0  0  0  0  0  0  0  0  0  0  0  0
    5.1298    3.9814   -1.4305 C   0  0  0  0  0  0  0  0  0  0  0  0
    4.4656    2.4562   -1.8143 S   0  0  0  0  0  0  0  0  0  0  0  0
    3.6562    2.3154   -0.3563 C   0  0  0  0  0  0  0  0  0  0  0  0
    2.7558    1.4340    0.2167 C   0  0  0  0  0  0  0  0  0  0  0  0
    2.3025    0.1977   -0.1055 N   0  0  0  0  0  0  0  0  0  0  0  0
    1.5295   -0.1413    0.9783 C   0  0  0  0  0  0  0  0  0  0  0  0
    0.8219   -1.3365    1.2431 C   0  0  0  0  0  0  0  0  0  0  0  0
    0.1883   -2.1547    0.3488 N   0  0  0  0  0  0  0  0  0  0  0  0
   -0.2686   -1.7782   -1.0003 C   0  0  0  0  0  0  0  0  0  0  0  0
   -0.0347   -2.9111   -1.9999 C   0  0  0  0  0  0  0  0  0  0  0  0
    2.9839   -0.7116   -1.0333 C   0  0  0  0  0  0  0  0  0  0  0  0
    4.2190   -1.3253   -0.3761 C   0  0  0  0  0  0  0  0  0  0  0  0
    5.8459    4.8063   -2.4146 C   0  0  0  0  0  0  0  0  0  0  0  0
    7.0111    5.4310   -2.1620 C   0  0  0  0  0  0  0  0  0  0  0  0
    7.9048    5.1526   -1.0111 C   0  0  0  0  0  0  0  0  0  0  0  0
    7.7098    4.3299   -0.0785 O   0  0  0  0  0  0  0  0  0  0  0  0
    9.1034    5.9301   -1.2070 C   0  0  0  0  0  0  0  0  0  0  0  0
    9.0234    6.6386   -2.3678 C   0  0  0  0  0  0  0  0  0  0  0  0
   10.3770    7.6611   -2.5568 S   0  0  0  0  0  0  0  0  0  0  0  0
   11.0575    7.1175   -1.0960 C   0  0  0  0  0  0  0  0  0  0  0  0
   12.2056    7.4420   -0.3830 C   0  0  0  0  0  0  0  0  0  0  0  0
   12.2652    6.7251    0.8200 C   0  0  0  0  0  0  0  0  0  0  0  0
   10.8936    5.7202    0.9773 S   0  0  0  0  0  0  0  0  0  0  0  0
   10.2524    6.1978   -0.4927 C   0  0  0  0  0  0  0  0  0  0  0  0
    7.7332    6.4160   -3.0453 C   0  0  0  0  0  0  0  0  0  0  0  0
    7.2868    7.0790   -4.1370 C   0  0  0  0  0  0  0  0  0  0  0  0
    8.1317    7.9888   -4.8659 C   0  0  0  0  0  0  0  0  0  0  0  0
    8.7923    8.7259   -5.4741 N   0  0  0  0  0  0  0  0  0  0  0  0
    5.9373    6.9526   -4.6234 C   0  0  0  0  0  0  0  0  0  0  0  0
    4.8536    6.8486   -5.0225 N   0  0  0  0  0  0  0  0  0  0  0  0
   -3.7447   -4.8538    3.3573 H   0  0  0  0  0  0  0  0  0  0  0  0
   -8.2302   -6.2848    0.7661 H   0  0  0  0  0  0  0  0  0  0  0  0
   -5.9685   -2.9113   -2.3234 H   0  0  0  0  0  0  0  0  0  0  0  0
   -9.2014   -3.7034   -3.3351 H   0  0  0  0  0  0  0  0  0  0  0  0
   -7.8639   -4.8569   -5.2203 H   0  0  0  0  0  0  0  0  0  0  0  0
   -5.9954   -6.4373   -4.1897 H   0  0  0  0  0  0  0  0  0  0  0  0
   -7.1598   -8.1746   -2.6353 H   0  0  0  0  0  0  0  0  0  0  0  0
   -9.7760   -7.7033   -2.6747 H   0  0  0  0  0  0  0  0  0  0  0  0
  -10.2502   -5.8766   -4.5694 H   0  0  0  0  0  0  0  0  0  0  0  0
   -9.1338   -7.1801   -5.1839 H   0  0  0  0  0  0  0  0  0  0  0  0
  -10.2627   -5.2750   -1.9318 H   0  0  0  0  0  0  0  0  0  0  0  0
   -2.1834   -3.8596   -0.0122 H   0  0  0  0  0  0  0  0  0  0  0  0
   -2.0725   -4.1837    4.9081 H   0  0  0  0  0  0  0  0  0  0  0  0
   -0.7175   -3.0795    5.1378 H   0  0  0  0  0  0  0  0  0  0  0  0
   -3.6797   -2.3435    4.6049 H   0  0  0  0  0  0  0  0  0  0  0  0
   -2.7335   -2.0665    6.1141 H   0  0  0  0  0  0  0  0  0  0  0  0
   -2.3571   -1.1204    4.6277 H   0  0  0  0  0  0  0  0  0  0  0  0
    4.6414    5.7786    1.4982 H   0  0  0  0  0  0  0  0  0  0  0  0
    5.7895    6.2266    0.2117 H   0  0  0  0  0  0  0  0  0  0  0  0
    3.9339    6.8442   -1.3105 H   0  0  0  0  0  0  0  0  0  0  0  0
    3.7642    7.7071    0.2649 H   0  0  0  0  0  0  0  0  0  0  0  0
    2.7160    6.2801   -0.0941 H   0  0  0  0  0  0  0  0  0  0  0  0
    0.2333   -0.8584   -1.3561 H   0  0  0  0  0  0  0  0  0  0  0  0
   -1.3516   -1.5314   -0.9712 H   0  0  0  0  0  0  0  0  0  0  0  0
   -0.2060   -2.5385   -3.0324 H   0  0  0  0  0  0  0  0  0  0  0  0
    1.0045   -3.2958   -1.9306 H   0  0  0  0  0  0  0  0  0  0  0  0
   -0.7317   -3.7509   -1.8128 H   0  0  0  0  0  0  0  0  0  0  0  0
    2.3269   -1.5380   -1.3489 H   0  0  0  0  0  0  0  0  0  0  0  0
    3.2833   -0.1642   -1.9514 H   0  0  0  0  0  0  0  0  0  0  0  0
    3.9132   -1.9283    0.5076 H   0  0  0  0  0  0  0  0  0  0  0  0
    4.7337   -1.9894   -1.1019 H   0  0  0  0  0  0  0  0  0  0  0  0
    4.9228   -0.5273   -0.0521 H   0  0  0  0  0  0  0  0  0  0  0  0
    5.4057    4.8508   -3.3918 H   0  0  0  0  0  0  0  0  0  0  0  0
   12.9421    8.1656   -0.7011 H   0  0  0  0  0  0  0  0  0  0  0  0
   13.0577    6.8095    1.5514 H   0  0  0  0  0  0  0  0  0  0  0  0
  1  2  2  3
  2  3  1  0
  3  4  2  0
  3  5  1  0
  5  6  2  0
  6  7  1  0
  7  8  2  0
  8  9  1  0
  9 10  2  0
 10 11  1  0
 11 12  2  3
 12 13  1  0
 13 14  3  0
 12 15  1  0
 15 16  3  0
  8 17  1  0
 17 18  1  0
 18 19  1  0
 19 20  2  0
 20 21  1  0
 21 22  1  0
 21 23  1  0
  1 24  1  0
 24 25  2  0
 25 26  1  0
 26 27  2  0
 27 28  1  0
 28 29  1  0
 29 30  1  0
 27 31  1  0
 31 32  1  0
 32 33  1  0
 33 34  2  0
 34 35  1  0
 35 36  1  0
 33 37  1  0
 37 38  1  0
 38 39  1  0
 39 40  1  0
 40 41  1  0
 41 42  1  0
 42 43  1  0
 41 44  2  0
 44 45  1  0
 45 46  1  0
 46 47  1  0
 47 48  1  0
 48 49  1  0
 49 50  1  0
 50 51  1  0
 51 52  1  0
 52 53  1  0
 48 54  1  0
 54 55  1  0
 44 56  1  0
 56 57  2  3
 57 58  1  0
 58 59  2  0
 58 60  1  0
 60 61  2  0
 61 62  1  0
 62 63  1  0
 63 64  1  0
 64 65  2  0
 65 66  1  0
 66 67  1  0
 61 68  1  0
 68 69  2  3
 69 70  1  0
 70 71  3  0
 69 72  1  0
 72 73  3  0
 11  2  1  0
 23 17  1  0
 28 24  1  0
 50 31  2  0
 68 57  1  0
 10  5  1  0
 22 18  1  0
 51 26  1  0
 67 60  1  0
 23  7  1  0
 36 32  2  0
 49 37  2  0
 67 63  2  0
 47 38  2  0
 46 40  2  0
  1 74  1  0
  6 75  1  0
  9 76  1  0
 17 77  1  0
 18 78  1  0
 19 79  1  0
 20 80  1  0
 21 81  1  0
 22 82  1  0
 22 83  1  0
 23 84  1  0
 25 85  1  0
 29 86  1  0
 29 87  1  0
 30 88  1  0
 30 89  1  0
 30 90  1  0
 42 91  1  0
 42 92  1  0
 43 93  1  0
 43 94  1  0
 43 95  1  0
 52 96  1  0
 52 97  1  0
 53 98  1  0
 53 99  1  0
 53100  1  0
 54101  1  0
 54102  1  0
 55103  1  0
 55104  1  0
 55105  1  0
 56106  1  0
 64107  1  0
 65108  1  0
M  END

