
     RDKit          3D

101115  0  0  0  0  0  0  0  0999 V2000
    6.2105    2.8471    1.4738 C   0  0  0  0  0  0  0  0  0  0  0  0
    6.5580    1.6197    0.9071 C   0  0  0  0  0  0  0  0  0  0  0  0
    7.6810    1.4170    0.0402 C   0  0  0  0  0  0  0  0  0  0  0  0
    8.7436    2.0529    0.0147 O   0  0  0  0  0  0  0  0  0  0  0  0
    7.3486    0.2681   -0.8608 C   0  0  0  0  0  0  0  0  0  0  0  0
    8.0512   -0.2323   -1.9334 C   0  0  0  0  0  0  0  0  0  0  0  0
    7.5005   -1.2456   -2.7574 C   0  0  0  0  0  0  0  0  0  0  0  0
    6.2481   -1.6776   -2.4125 C   0  0  0  0  0  0  0  0  0  0  0  0
    5.5533   -1.1641   -1.3089 C   0  0  0  0  0  0  0  0  0  0  0  0
    6.1079   -0.1915   -0.5373 C   0  0  0  0  0  0  0  0  0  0  0  0
    5.5403    0.6222    0.6083 C   0  0  0  0  0  0  0  0  0  0  0  0
    4.5570    0.1476    1.2879 C   0  0  0  0  0  0  0  0  0  0  0  0
    3.5650   -0.8411    0.8190 C   0  0  0  0  0  0  0  0  0  0  0  0
    2.7931   -1.5968    0.4628 N   0  0  0  0  0  0  0  0  0  0  0  0
    4.4596    0.2444    2.7728 C   0  0  0  0  0  0  0  0  0  0  0  0
    4.3716    0.3233    3.9020 N   0  0  0  0  0  0  0  0  0  0  0  0
    6.1825   -2.5422   -3.6086 C   0  0  0  0  0  0  0  0  0  0  0  0
    6.2632   -3.9984   -3.4399 C   0  0  0  0  0  0  0  0  0  0  0  0
    6.6154   -4.5388   -4.8078 C   0  0  0  0  0  0  0  0  0  0  0  0
    7.8811   -4.2038   -5.0372 C   0  0  0  0  0  0  0  0  0  0  0  0
    8.3660   -3.3804   -3.8518 C   0  0  0  0  0  0  0  0  0  0  0  0
    7.6446   -4.1690   -2.7768 C   0  0  0  0  0  0  0  0  0  0  0  0
    7.6278   -2.1076   -3.9235 C   0  0  0  0  0  0  0  0  0  0  0  0
    5.1271    3.0594    2.3167 C   0  0  0  0  0  0  0  0  0  0  0  0
    4.4924    3.2344    3.4576 C   0  0  0  0  0  0  0  0  0  0  0  0
    3.1522    3.3988    3.6254 C   0  0  0  0  0  0  0  0  0  0  0  0
    2.0306    3.4622    5.0359 S   0  0  0  0  0  0  0  0  0  0  0  0
    0.5317    3.5024    4.1614 C   0  0  0  0  0  0  0  0  0  0  0  0
   -0.8448    3.4818    4.2058 C   0  0  0  0  0  0  0  0  0  0  0  0
   -1.7690    3.4078    5.2468 C   0  0  0  0  0  0  0  0  0  0  0  0
   -3.0868    3.2835    4.9453 C   0  0  0  0  0  0  0  0  0  0  0  0
   -3.9282    3.2288    5.9852 N   0  0  0  0  0  0  0  0  0  0  0  0
   -2.9447    3.3434    7.3377 S   0  0  0  0  0  0  0  0  0  0  0  0
   -1.4629    3.4584    6.5448 N   0  0  0  0  0  0  0  0  0  0  0  0
   -3.4967    3.2212    3.6002 C   0  0  0  0  0  0  0  0  0  0  0  0
   -4.7185    2.9110    3.0458 C   0  0  0  0  0  0  0  0  0  0  0  0
   -4.6089    2.7892    1.6919 C   0  0  0  0  0  0  0  0  0  0  0  0
   -3.2771    3.0324    1.3918 N   0  0  0  0  0  0  0  0  0  0  0  0
   -2.7765    2.8531    0.0573 C   0  0  0  0  0  0  0  0  0  0  0  0
   -2.1013    1.5179   -0.2133 C   0  0  0  0  0  0  0  0  0  0  0  0
   -2.6247    3.2903    2.5358 C   0  0  0  0  0  0  0  0  0  0  0  0
   -1.2679    3.4437    2.8776 C   0  0  0  0  0  0  0  0  0  0  0  0
   -0.2007    3.4624    2.1081 N   0  0  0  0  0  0  0  0  0  0  0  0
    0.9526    3.4797    2.8970 C   0  0  0  0  0  0  0  0  0  0  0  0
    2.2512    3.4252    2.7256 C   0  0  0  0  0  0  0  0  0  0  0  0
    3.4036    3.1562    1.0603 Se  0  0  0  0  0  2  0  0  0  0  0  0
   -0.0734    3.8290    0.7115 C   0  0  0  0  0  0  0  0  0  0  0  0
    0.5873    5.3070    0.7256 C   0  0  0  0  0  0  0  0  0  0  0  0
   -5.7279    2.4733    1.1424 C   0  0  0  0  0  0  0  0  0  0  0  0
   -6.8623    2.2669    1.6252 C   0  0  0  0  0  0  0  0  0  0  0  0
   -6.3909    2.5688    3.3391 S   0  0  0  0  0  0  0  0  0  0  0  0
   -8.0117    1.8896    1.0196 C   0  0  0  0  0  0  0  0  0  0  0  0
   -8.1050    1.6601   -0.2773 C   0  0  0  0  0  0  0  0  0  0  0  0
   -6.3190    2.0098   -0.8863 Se  0  0  0  0  0  2  0  0  0  0  0  0
   -9.0586    1.2466   -1.3131 C   0  0  0  0  0  0  0  0  0  0  0  0
   -8.8380    0.0100   -1.7677 C   0  0  0  0  0  0  0  0  0  0  0  0
   -7.7681   -0.8953   -1.2952 C   0  0  0  0  0  0  0  0  0  0  0  0
   -6.9388   -0.6342   -0.3736 O   0  0  0  0  0  0  0  0  0  0  0  0
   -7.8019   -2.1409   -2.0400 C   0  0  0  0  0  0  0  0  0  0  0  0
   -7.0238   -3.2601   -1.9817 C   0  0  0  0  0  0  0  0  0  0  0  0
   -7.2120   -4.3739   -2.8075 C   0  0  0  0  0  0  0  0  0  0  0  0
   -6.3196   -5.5525   -2.6921 C   0  0  0  0  0  0  0  0  0  0  0  0
   -5.1786   -5.3000   -3.4510 F   0  0  0  0  0  0  0  0  0  0  0  0
   -5.8598   -5.6589   -1.3567 F   0  0  0  0  0  0  0  0  0  0  0  0
   -6.9427   -6.7002   -3.0156 F   0  0  0  0  0  0  0  0  0  0  0  0
   -8.2417   -4.3022   -3.7043 C   0  0  0  0  0  0  0  0  0  0  0  0
   -9.0497   -3.1515   -3.7730 C   0  0  0  0  0  0  0  0  0  0  0  0
   -8.8445   -2.0603   -2.9532 C   0  0  0  0  0  0  0  0  0  0  0  0
   -9.5109   -0.7338   -2.8271 C   0  0  0  0  0  0  0  0  0  0  0  0
  -10.3770   -0.2183   -3.6723 C   0  0  0  0  0  0  0  0  0  0  0  0
  -10.7633    1.1409   -3.6876 C   0  0  0  0  0  0  0  0  0  0  0  0
  -11.0922    2.3060   -3.7207 N   0  0  0  0  0  0  0  0  0  0  0  0
  -10.9890   -1.0224   -4.7330 C   0  0  0  0  0  0  0  0  0  0  0  0
  -11.4853   -1.6784   -5.5744 N   0  0  0  0  0  0  0  0  0  0  0  0
    6.8728    3.6780    1.2084 H   0  0  0  0  0  0  0  0  0  0  0  0
    9.0570    0.1466   -2.1477 H   0  0  0  0  0  0  0  0  0  0  0  0
    4.5986   -1.5944   -1.1849 H   0  0  0  0  0  0  0  0  0  0  0  0
    5.4734   -2.1637   -4.3970 H   0  0  0  0  0  0  0  0  0  0  0  0
    5.4871   -4.5412   -2.9510 H   0  0  0  0  0  0  0  0  0  0  0  0
    5.9167   -5.0615   -5.4039 H   0  0  0  0  0  0  0  0  0  0  0  0
    8.4611   -4.4573   -5.9002 H   0  0  0  0  0  0  0  0  0  0  0  0
    9.4481   -3.3818   -3.7317 H   0  0  0  0  0  0  0  0  0  0  0  0
    7.7060   -3.7271   -1.7871 H   0  0  0  0  0  0  0  0  0  0  0  0
    7.9396   -5.2510   -2.8171 H   0  0  0  0  0  0  0  0  0  0  0  0
    7.6918   -1.5743   -4.9116 H   0  0  0  0  0  0  0  0  0  0  0  0
    5.1953    3.2518    4.3712 H   0  0  0  0  0  0  0  0  0  0  0  0
   -2.4570    3.7249   -0.5195 H   0  0  0  0  0  0  0  0  0  0  0  0
   -3.7266    2.6757   -0.6286 H   0  0  0  0  0  0  0  0  0  0  0  0
   -2.7814    0.7005   -0.4973 H   0  0  0  0  0  0  0  0  0  0  0  0
   -1.3490    1.6154   -1.0276 H   0  0  0  0  0  0  0  0  0  0  0  0
   -1.5878    1.1746    0.7393 H   0  0  0  0  0  0  0  0  0  0  0  0
   -0.8741    4.0434    0.1284 H   0  0  0  0  0  0  0  0  0  0  0  0
    0.6964    3.2526    0.1785 H   0  0  0  0  0  0  0  0  0  0  0  0
    1.2652    5.2993    1.5816 H   0  0  0  0  0  0  0  0  0  0  0  0
    1.1170    5.4192   -0.2083 H   0  0  0  0  0  0  0  0  0  0  0  0
   -0.2470    6.0177    0.8383 H   0  0  0  0  0  0  0  0  0  0  0  0
   -8.9917    1.7507    1.6018 H   0  0  0  0  0  0  0  0  0  0  0  0
   -9.8055    1.9024   -1.5773 H   0  0  0  0  0  0  0  0  0  0  0  0
   -6.2067   -3.3249   -1.2705 H   0  0  0  0  0  0  0  0  0  0  0  0
   -8.4548   -5.1513   -4.3933 H   0  0  0  0  0  0  0  0  0  0  0  0
   -9.8359   -3.1643   -4.4920 H   0  0  0  0  0  0  0  0  0  0  0  0
  1  2  2  3
  2  3  1  0
  3  4  2  0
  3  5  1  0
  5  6  2  0
  6  7  1  0
  7  8  2  0
  8  9  1  0
  9 10  2  0
 10 11  1  0
 11 12  2  3
 12 13  1  0
 13 14  3  0
 12 15  1  0
 15 16  3  0
  8 17  1  0
 17 18  1  0
 18 19  1  0
 19 20  2  0
 20 21  1  0
 21 22  1  0
 21 23  1  0
  1 24  1  0
 24 25  2  0
 25 26  1  0
 26 27  1  0
 27 28  1  0
 28 29  1  0
 29 30  1  0
 30 31  1  0
 31 32  2  0
 32 33  1  0
 33 34  1  0
 31 35  1  0
 35 36  1  0
 36 37  2  0
 37 38  1  0
 38 39  1  0
 39 40  1  0
 38 41  1  0
 41 42  1  0
 42 43  1  0
 43 44  1  0
 44 45  1  0
 45 46  1  0
 43 47  1  0
 47 48  1  0
 37 49  1  0
 49 50  2  0
 50 51  1  0
 50 52  1  0
 52 53  2  0
 53 54  1  0
 53 55  1  0
 55 56  2  3
 56 57  1  0
 57 58  2  0
 57 59  1  0
 59 60  2  0
 60 61  1  0
 61 62  1  0
 62 63  1  0
 62 64  1  0
 62 65  1  0
 61 66  2  0
 66 67  1  0
 67 68  2  0
 68 69  1  0
 69 70  2  3
 70 71  1  0
 71 72  3  0
 70 73  1  0
 73 74  3  0
 11  2  1  0
 23 17  1  0
 46 24  1  0
 54 49  1  0
 69 56  1  0
 10  5  1  0
 22 18  1  0
 45 26  2  0
 68 59  1  0
 23  7  1  0
 44 28  2  0
 42 29  2  0
 34 30  2  0
 41 35  2  0
 51 36  1  0
  1 75  1  0
  6 76  1  0
  9 77  1  0
 17 78  1  0
 18 79  1  0
 19 80  1  0
 20 81  1  0
 21 82  1  0
 22 83  1  0
 22 84  1  0
 23 85  1  0
 25 86  1  0
 39 87  1  0
 39 88  1  0
 40 89  1  0
 40 90  1  0
 40 91  1  0
 47 92  1  0
 47 93  1  0
 48 94  1  0
 48 95  1  0
 48 96  1  0
 52 97  1  0
 55 98  1  0
 60 99  1  0
 66100  1  0
 67101  1  0
M  END

