
     RDKit          3D

110124  0  0  0  0  0  0  0  0999 V2000
    5.4085   -3.7815   -2.3547 C   0  0  0  0  0  0  0  0  0  0  0  0
    5.6765   -2.4775   -2.5788 C   0  0  0  0  0  0  0  0  0  0  0  0
    6.6631   -2.0731   -3.6329 C   0  0  0  0  0  0  0  0  0  0  0  0
    7.4253   -2.8444   -4.2388 O   0  0  0  0  0  0  0  0  0  0  0  0
    6.5444   -0.6132   -3.7979 C   0  0  0  0  0  0  0  0  0  0  0  0
    7.1014    0.2410   -4.7736 C   0  0  0  0  0  0  0  0  0  0  0  0
    6.6699    1.5355   -4.8297 C   0  0  0  0  0  0  0  0  0  0  0  0
    5.7358    2.0392   -3.9892 C   0  0  0  0  0  0  0  0  0  0  0  0
    5.1936    1.1635   -3.0132 C   0  0  0  0  0  0  0  0  0  0  0  0
    5.6114   -0.1272   -2.9511 C   0  0  0  0  0  0  0  0  0  0  0  0
    5.0500   -1.2814   -2.1444 C   0  0  0  0  0  0  0  0  0  0  0  0
    4.4513   -0.9887   -0.9810 C   0  0  0  0  0  0  0  0  0  0  0  0
    3.8393    0.0326   -0.4986 C   0  0  0  0  0  0  0  0  0  0  0  0
    3.2217    1.0757   -0.0113 N   0  0  0  0  0  0  0  0  0  0  0  0
    4.7734   -1.9974    0.2031 C   0  0  0  0  0  0  0  0  0  0  0  0
    5.0034   -2.7165    1.0576 N   0  0  0  0  0  0  0  0  0  0  0  0
    5.6503    3.3923   -4.6052 C   0  0  0  0  0  0  0  0  0  0  0  0
    6.2404    4.5393   -3.8829 C   0  0  0  0  0  0  0  0  0  0  0  0
    7.2790    4.0651   -2.9188 C   0  0  0  0  0  0  0  0  0  0  0  0
    8.1874    3.4794   -3.6806 C   0  0  0  0  0  0  0  0  0  0  0  0
    7.9329    3.7272   -5.0990 C   0  0  0  0  0  0  0  0  0  0  0  0
    7.1994    5.0776   -4.9931 C   0  0  0  0  0  0  0  0  0  0  0  0
    6.7406    2.8538   -5.5190 C   0  0  0  0  0  0  0  0  0  0  0  0
    4.4354   -4.2417   -1.4049 C   0  0  0  0  0  0  0  0  0  0  0  0
    4.2342   -5.1230   -0.4270 C   0  0  0  0  0  0  0  0  0  0  0  0
    5.3507   -6.0485    0.0104 C   0  0  0  0  0  0  0  0  0  0  0  0
    5.5315   -7.2128   -0.8977 C   0  0  0  0  0  0  0  0  0  0  0  0
    2.9986   -5.1558    0.1863 C   0  0  0  0  0  0  0  0  0  0  0  0
    2.1738   -5.9251    1.5241 S   0  0  0  0  0  0  0  0  0  0  0  0
    0.6894   -5.0917    1.4646 C   0  0  0  0  0  0  0  0  0  0  0  0
   -0.5305   -4.8494    2.1040 C   0  0  0  0  0  0  0  0  0  0  0  0
   -1.1149   -5.4177    3.2430 C   0  0  0  0  0  0  0  0  0  0  0  0
   -2.2790   -4.9241    3.6908 C   0  0  0  0  0  0  0  0  0  0  0  0
   -2.9272   -5.4053    4.7314 N   0  0  0  0  0  0  0  0  0  0  0  0
   -1.5097   -6.9533    5.1903 Se  0  0  0  0  0  2  0  0  0  0  0  0
   -0.5711   -6.4568    3.8879 N   0  0  0  0  0  0  0  0  0  0  0  0
   -2.8264   -3.8061    2.9752 C   0  0  0  0  0  0  0  0  0  0  0  0
   -3.8297   -2.9372    3.3816 C   0  0  0  0  0  0  0  0  0  0  0  0
   -5.0753   -2.5523    4.5292 S   0  0  0  0  0  0  0  0  0  0  0  0
   -5.5795   -1.0134    3.8730 C   0  0  0  0  0  0  0  0  0  0  0  0
   -6.4676   -0.0061    4.1836 C   0  0  0  0  0  0  0  0  0  0  0  0
   -7.4211   -0.1381    5.3573 C   0  0  0  0  0  0  0  0  0  0  0  0
   -8.5891   -0.9857    4.9085 C   0  0  0  0  0  0  0  0  0  0  0  0
   -6.4586    1.0900    3.3624 C   0  0  0  0  0  0  0  0  0  0  0  0
   -5.2754    0.6573    2.2610 S   0  0  0  0  0  0  0  0  0  0  0  0
   -4.7818   -0.8988    2.8389 C   0  0  0  0  0  0  0  0  0  0  0  0
   -3.8492   -1.8840    2.5440 C   0  0  0  0  0  0  0  0  0  0  0  0
   -2.8360   -2.0789    1.5769 N   0  0  0  0  0  0  0  0  0  0  0  0
   -2.2531   -3.2619    1.8786 C   0  0  0  0  0  0  0  0  0  0  0  0
   -1.0804   -3.8072    1.3916 C   0  0  0  0  0  0  0  0  0  0  0  0
   -0.2754   -3.4874    0.4018 N   0  0  0  0  0  0  0  0  0  0  0  0
    0.8605   -4.2532    0.4176 C   0  0  0  0  0  0  0  0  0  0  0  0
    2.0759   -4.3138   -0.2299 C   0  0  0  0  0  0  0  0  0  0  0  0
    2.8605   -3.4573   -1.4671 S   0  0  0  0  0  0  0  0  0  0  0  0
   -0.6761   -2.8390   -0.8592 C   0  0  0  0  0  0  0  0  0  0  0  0
   -0.4525   -3.8870   -2.0130 C   0  0  0  0  0  0  0  0  0  0  0  0
   -2.4553   -1.0107    0.6931 C   0  0  0  0  0  0  0  0  0  0  0  0
   -1.2258   -0.2318    1.3199 C   0  0  0  0  0  0  0  0  0  0  0  0
   -7.3270    2.2232    3.4735 C   0  0  0  0  0  0  0  0  0  0  0  0
   -7.6891    3.1880    2.6477 C   0  0  0  0  0  0  0  0  0  0  0  0
   -8.6579    4.2346    3.0305 C   0  0  0  0  0  0  0  0  0  0  0  0
   -9.1558    4.4670    4.1518 O   0  0  0  0  0  0  0  0  0  0  0  0
   -8.9379    4.9550    1.7988 C   0  0  0  0  0  0  0  0  0  0  0  0
   -9.8027    6.0284    1.5004 C   0  0  0  0  0  0  0  0  0  0  0  0
   -9.9324    6.5603    0.2598 C   0  0  0  0  0  0  0  0  0  0  0  0
   -9.2053    6.0490   -0.8184 C   0  0  0  0  0  0  0  0  0  0  0  0
   -9.3840    6.6941   -2.4013 Cl  0  0  0  0  0  0  0  0  0  0  0  0
   -8.3306    4.9639   -0.5223 C   0  0  0  0  0  0  0  0  0  0  0  0
   -8.2231    4.4563    0.7436 C   0  0  0  0  0  0  0  0  0  0  0  0
   -7.3870    3.3126    1.2661 C   0  0  0  0  0  0  0  0  0  0  0  0
   -6.3620    2.9986    0.4710 C   0  0  0  0  0  0  0  0  0  0  0  0
   -6.0747    3.0428   -0.8086 C   0  0  0  0  0  0  0  0  0  0  0  0
   -5.7973    3.0657   -2.0199 N   0  0  0  0  0  0  0  0  0  0  0  0
   -5.0746    3.2128    1.3014 C   0  0  0  0  0  0  0  0  0  0  0  0
   -4.0556    3.3721    1.9665 N   0  0  0  0  0  0  0  0  0  0  0  0
    5.9953   -4.4889   -2.9483 H   0  0  0  0  0  0  0  0  0  0  0  0
    7.8662   -0.1331   -5.4585 H   0  0  0  0  0  0  0  0  0  0  0  0
    4.4496    1.6068   -2.3725 H   0  0  0  0  0  0  0  0  0  0  0  0
    4.7008    3.6034   -5.1589 H   0  0  0  0  0  0  0  0  0  0  0  0
    5.5942    5.3248   -3.5157 H   0  0  0  0  0  0  0  0  0  0  0  0
    7.2195    4.1911   -1.8389 H   0  0  0  0  0  0  0  0  0  0  0  0
    9.0046    2.9025   -3.2830 H   0  0  0  0  0  0  0  0  0  0  0  0
    8.7926    3.6920   -5.7394 H   0  0  0  0  0  0  0  0  0  0  0  0
    7.8180    5.8822   -4.6754 H   0  0  0  0  0  0  0  0  0  0  0  0
    6.5905    5.2465   -5.9120 H   0  0  0  0  0  0  0  0  0  0  0  0
    6.5379    2.9134   -6.5561 H   0  0  0  0  0  0  0  0  0  0  0  0
    5.1189   -6.4767    1.0089 H   0  0  0  0  0  0  0  0  0  0  0  0
    6.3172   -5.5001    0.0606 H   0  0  0  0  0  0  0  0  0  0  0  0
    5.5099   -6.9167   -1.9478 H   0  0  0  0  0  0  0  0  0  0  0  0
    6.5936   -7.6022   -0.7065 H   0  0  0  0  0  0  0  0  0  0  0  0
    4.8589   -8.0713   -0.6732 H   0  0  0  0  0  0  0  0  0  0  0  0
   -7.7631    0.8388    5.6655 H   0  0  0  0  0  0  0  0  0  0  0  0
   -6.8246   -0.6034    6.1781 H   0  0  0  0  0  0  0  0  0  0  0  0
   -9.5425   -0.3670    4.9830 H   0  0  0  0  0  0  0  0  0  0  0  0
   -8.4415   -1.2646    3.8327 H   0  0  0  0  0  0  0  0  0  0  0  0
   -8.6292   -1.9478    5.4903 H   0  0  0  0  0  0  0  0  0  0  0  0
   -1.7886   -2.7284   -0.8825 H   0  0  0  0  0  0  0  0  0  0  0  0
   -0.1435   -1.9835   -1.0657 H   0  0  0  0  0  0  0  0  0  0  0  0
    0.1387   -3.3956   -2.8286 H   0  0  0  0  0  0  0  0  0  0  0  0
   -1.4252   -4.1093   -2.4369 H   0  0  0  0  0  0  0  0  0  0  0  0
    0.0312   -4.7736   -1.5826 H   0  0  0  0  0  0  0  0  0  0  0  0
   -3.3086   -0.2191    0.7474 H   0  0  0  0  0  0  0  0  0  0  0  0
   -2.2450   -1.0716   -0.3065 H   0  0  0  0  0  0  0  0  0  0  0  0
   -1.2203    0.8017    0.8551 H   0  0  0  0  0  0  0  0  0  0  0  0
   -1.2746   -0.2741    2.4225 H   0  0  0  0  0  0  0  0  0  0  0  0
   -0.2644   -0.7226    0.9959 H   0  0  0  0  0  0  0  0  0  0  0  0
   -7.8091    2.3703    4.4832 H   0  0  0  0  0  0  0  0  0  0  0  0
  -10.3829    6.4189    2.3752 H   0  0  0  0  0  0  0  0  0  0  0  0
  -10.6051    7.4017    0.0360 H   0  0  0  0  0  0  0  0  0  0  0  0
   -7.7972    4.6454   -1.3847 H   0  0  0  0  0  0  0  0  0  0  0  0
  1  2  2  3
  2  3  1  0
  3  4  2  0
  3  5  1  0
  5  6  2  0
  6  7  1  0
  7  8  2  0
  8  9  1  0
  9 10  2  0
 10 11  1  0
 11 12  2  3
 12 13  1  0
 13 14  3  0
 12 15  1  0
 15 16  3  0
  8 17  1  0
 17 18  1  0
 18 19  1  0
 19 20  2  0
 20 21  1  0
 21 22  1  0
 21 23  1  0
  1 24  1  0
 24 25  2  0
 25 26  1  0
 26 27  1  0
 25 28  1  0
 28 29  1  0
 29 30  1  0
 30 31  1  0
 31 32  1  0
 32 33  1  0
 33 34  2  0
 34 35  1  0
 35 36  1  0
 33 37  1  0
 37 38  1  0
 38 39  1  0
 39 40  1  0
 40 41  1  0
 41 42  1  0
 42 43  1  0
 41 44  2  0
 44 45  1  0
 45 46  1  0
 46 47  1  0
 47 48  1  0
 48 49  1  0
 49 50  1  0
 50 51  1  0
 51 52  1  0
 52 53  1  0
 53 54  1  0
 51 55  1  0
 55 56  1  0
 48 57  1  0
 57 58  1  0
 44 59  1  0
 59 60  2  3
 60 61  1  0
 61 62  2  0
 61 63  1  0
 63 64  2  0
 64 65  1  0
 65 66  2  0
 66 67  1  0
 66 68  1  0
 68 69  2  0
 69 70  1  0
 70 71  2  3
 71 72  1  0
 72 73  3  0
 71 74  1  0
 74 75  3  0
 11  2  1  0
 23 17  1  0
 54 24  1  0
 70 60  1  0
 10  5  1  0
 22 18  1  0
 53 28  2  0
 69 63  1  0
 23  7  1  0
 52 30  2  0
 50 31  2  0
 36 32  2  0
 49 37  2  0
 47 38  2  0
 46 40  2  0
  1 76  1  0
  6 77  1  0
  9 78  1  0
 17 79  1  0
 18 80  1  0
 19 81  1  0
 20 82  1  0
 21 83  1  0
 22 84  1  0
 22 85  1  0
 23 86  1  0
 26 87  1  0
 26 88  1  0
 27 89  1  0
 27 90  1  0
 27 91  1  0
 42 92  1  0
 42 93  1  0
 43 94  1  0
 43 95  1  0
 43 96  1  0
 55 97  1  0
 55 98  1  0
 56 99  1  0
 56100  1  0
 56101  1  0
 57102  1  0
 57103  1  0
 58104  1  0
 58105  1  0
 58106  1  0
 59107  1  0
 64108  1  0
 65109  1  0
 68110  1  0
M  END

