
     RDKit          3D

101115  0  0  0  0  0  0  0  0999 V2000
    6.7159   -0.9062    2.3289 C   0  0  0  0  0  0  0  0  0  0  0  0
    6.0279   -0.5230    3.4623 C   0  0  0  0  0  0  0  0  0  0  0  0
    6.4078    0.7013    4.3522 C   0  0  0  0  0  0  0  0  0  0  0  0
    7.4629    1.3860    4.3337 O   0  0  0  0  0  0  0  0  0  0  0  0
    5.1926    0.9372    5.1777 C   0  0  0  0  0  0  0  0  0  0  0  0
    4.9415    1.9132    6.1659 C   0  0  0  0  0  0  0  0  0  0  0  0
    3.6097    1.7547    6.6805 C   0  0  0  0  0  0  0  0  0  0  0  0
    2.6973    0.6838    6.3838 C   0  0  0  0  0  0  0  0  0  0  0  0
    2.9145   -0.1722    5.3850 C   0  0  0  0  0  0  0  0  0  0  0  0
    4.2126   -0.0453    4.8292 C   0  0  0  0  0  0  0  0  0  0  0  0
    4.8078   -1.1182    4.0797 C   0  0  0  0  0  0  0  0  0  0  0  0
    4.3934   -2.4040    3.8544 C   0  0  0  0  0  0  0  0  0  0  0  0
    5.2499   -3.3961    3.2038 C   0  0  0  0  0  0  0  0  0  0  0  0
    5.8737   -4.1380    2.5882 N   0  0  0  0  0  0  0  0  0  0  0  0
    3.3879   -2.9439    4.6490 C   0  0  0  0  0  0  0  0  0  0  0  0
    2.5324   -3.3765    5.3494 N   0  0  0  0  0  0  0  0  0  0  0  0
    1.5930    1.4072    7.0829 C   0  0  0  0  0  0  0  0  0  0  0  0
    0.4965    2.1255    6.1736 C   0  0  0  0  0  0  0  0  0  0  0  0
   -0.2917    3.0307    7.1070 C   0  0  0  0  0  0  0  0  0  0  0  0
    0.5177    4.0681    7.4095 C   0  0  0  0  0  0  0  0  0  0  0  0
    1.8380    3.7601    6.7093 C   0  0  0  0  0  0  0  0  0  0  0  0
    1.3211    3.1760    5.3996 C   0  0  0  0  0  0  0  0  0  0  0  0
    2.5202    2.5099    7.4028 C   0  0  0  0  0  0  0  0  0  0  0  0
    5.8900   -1.2271    1.0466 C   0  0  0  0  0  0  0  0  0  0  0  0
    6.2430   -2.0330   -0.0439 C   0  0  0  0  0  0  0  0  0  0  0  0
    7.5913   -2.6848   -0.2340 C   0  0  0  0  0  0  0  0  0  0  0  0
    8.6492   -1.6084   -0.3249 C   0  0  0  0  0  0  0  0  0  0  0  0
    5.1775   -1.8932   -0.9940 C   0  0  0  0  0  0  0  0  0  0  0  0
    4.0255   -1.2611   -0.6082 C   0  0  0  0  0  0  0  0  0  0  0  0
    4.2805   -0.6710    0.8782 S   0  0  0  0  0  0  0  0  0  0  0  0
    3.0200   -1.0785   -1.5070 C   0  0  0  0  0  0  0  0  0  0  0  0
    3.4501   -1.5660   -2.6447 C   0  0  0  0  0  0  0  0  0  0  0  0
    5.0685   -2.1684   -2.6360 S   0  0  0  0  0  0  0  0  0  0  0  0
    2.4906   -1.1925   -3.5612 C   0  0  0  0  0  0  0  0  0  0  0  0
    2.4635   -1.2257   -4.9547 C   0  0  0  0  0  0  0  0  0  0  0  0
    3.4493   -1.8021   -5.7148 N   0  0  0  0  0  0  0  0  0  0  0  0
    2.7768   -1.5010   -7.2091 S   0  0  0  0  0  0  0  0  0  0  0  0
    1.3053   -0.7385   -7.0313 N   0  0  0  0  0  0  0  0  0  0  0  0
    1.2932   -0.6592   -5.6676 C   0  0  0  0  0  0  0  0  0  0  0  0
    0.2566   -0.0721   -4.9223 C   0  0  0  0  0  0  0  0  0  0  0  0
   -0.9697    0.5338   -5.2876 C   0  0  0  0  0  0  0  0  0  0  0  0
   -1.8416    0.8893   -6.7052 S   0  0  0  0  0  0  0  0  0  0  0  0
   -3.1443    1.4424   -5.7333 C   0  0  0  0  0  0  0  0  0  0  0  0
   -4.4394    1.9214   -6.0146 C   0  0  0  0  0  0  0  0  0  0  0  0
   -5.1931    2.0928   -4.8200 C   0  0  0  0  0  0  0  0  0  0  0  0
   -4.1760    1.7920   -3.4282 S   0  0  0  0  0  0  0  0  0  0  0  0
   -2.8813    1.3698   -4.4146 C   0  0  0  0  0  0  0  0  0  0  0  0
   -1.5999    0.8864   -4.1695 C   0  0  0  0  0  0  0  0  0  0  0  0
   -0.9418    0.4975   -3.0594 N   0  0  0  0  0  0  0  0  0  0  0  0
   -1.5480    0.5814   -1.7419 C   0  0  0  0  0  0  0  0  0  0  0  0
   -1.3828    1.9260   -1.1274 C   0  0  0  0  0  0  0  0  0  0  0  0
    0.2698   -0.0238   -3.5084 C   0  0  0  0  0  0  0  0  0  0  0  0
    1.4338   -0.5477   -2.7917 C   0  0  0  0  0  0  0  0  0  0  0  0
    1.8265   -0.4994   -1.4568 N   0  0  0  0  0  0  0  0  0  0  0  0
    1.3024    0.1272   -0.2239 C   0  0  0  0  0  0  0  0  0  0  0  0
    1.7632    1.5514   -0.0707 C   0  0  0  0  0  0  0  0  0  0  0  0
   -6.5346    2.6985   -4.7029 C   0  0  0  0  0  0  0  0  0  0  0  0
   -7.7604    2.0922   -4.7343 C   0  0  0  0  0  0  0  0  0  0  0  0
   -8.9958    2.8724   -4.4376 C   0  0  0  0  0  0  0  0  0  0  0  0
   -9.0670    4.1356   -4.2198 O   0  0  0  0  0  0  0  0  0  0  0  0
  -10.1366    2.0304   -4.5561 C   0  0  0  0  0  0  0  0  0  0  0  0
  -11.4822    2.2058   -4.2962 C   0  0  0  0  0  0  0  0  0  0  0  0
  -12.1705    0.6629   -4.3250 S   0  0  0  0  0  0  0  0  0  0  0  0
  -10.7441   -0.1888   -4.6738 C   0  0  0  0  0  0  0  0  0  0  0  0
   -9.7405    0.7537   -4.7969 C   0  0  0  0  0  0  0  0  0  0  0  0
   -8.2896    0.6590   -4.9872 C   0  0  0  0  0  0  0  0  0  0  0  0
   -7.6403   -0.4336   -5.4841 C   0  0  0  0  0  0  0  0  0  0  0  0
   -6.2697   -0.6725   -5.6067 C   0  0  0  0  0  0  0  0  0  0  0  0
   -5.1580   -0.9348   -5.9748 N   0  0  0  0  0  0  0  0  0  0  0  0
   -8.3580   -1.6406   -5.7621 C   0  0  0  0  0  0  0  0  0  0  0  0
   -8.9719   -2.6172   -5.8466 N   0  0  0  0  0  0  0  0  0  0  0  0
    7.7103   -1.5237    2.5897 H   0  0  0  0  0  0  0  0  0  0  0  0
    5.6536    2.7469    6.2939 H   0  0  0  0  0  0  0  0  0  0  0  0
    2.1159   -0.8299    4.9692 H   0  0  0  0  0  0  0  0  0  0  0  0
    1.2357    0.7928    7.9308 H   0  0  0  0  0  0  0  0  0  0  0  0
   -0.0869    1.4156    5.5635 H   0  0  0  0  0  0  0  0  0  0  0  0
   -1.3640    2.9324    7.3136 H   0  0  0  0  0  0  0  0  0  0  0  0
    0.3135    4.9706    8.0321 H   0  0  0  0  0  0  0  0  0  0  0  0
    2.4998    4.6269    6.5790 H   0  0  0  0  0  0  0  0  0  0  0  0
    2.0088    2.8417    4.6272 H   0  0  0  0  0  0  0  0  0  0  0  0
    0.7457    3.8127    4.7145 H   0  0  0  0  0  0  0  0  0  0  0  0
    2.7706    2.6495    8.4583 H   0  0  0  0  0  0  0  0  0  0  0  0
    7.7520   -3.2734    0.6645 H   0  0  0  0  0  0  0  0  0  0  0  0
    7.4670   -3.2860   -1.1031 H   0  0  0  0  0  0  0  0  0  0  0  0
    8.8800   -1.1386    0.6430 H   0  0  0  0  0  0  0  0  0  0  0  0
    9.5348   -2.0980   -0.7442 H   0  0  0  0  0  0  0  0  0  0  0  0
    8.3234   -0.7676   -1.0005 H   0  0  0  0  0  0  0  0  0  0  0  0
   -4.8822    2.1222   -7.0350 H   0  0  0  0  0  0  0  0  0  0  0  0
   -1.3286   -0.3412   -1.2234 H   0  0  0  0  0  0  0  0  0  0  0  0
   -2.6297    0.3868   -1.8501 H   0  0  0  0  0  0  0  0  0  0  0  0
   -1.3505    1.8592   -0.0361 H   0  0  0  0  0  0  0  0  0  0  0  0
   -0.4600    2.4863   -1.4529 H   0  0  0  0  0  0  0  0  0  0  0  0
   -2.2387    2.5478   -1.3862 H   0  0  0  0  0  0  0  0  0  0  0  0
    1.6120   -0.4703    0.6492 H   0  0  0  0  0  0  0  0  0  0  0  0
    0.2860   -0.0150   -0.0253 H   0  0  0  0  0  0  0  0  0  0  0  0
    0.9659    2.1097    0.4518 H   0  0  0  0  0  0  0  0  0  0  0  0
    1.9451    2.0590   -1.0871 H   0  0  0  0  0  0  0  0  0  0  0  0
    2.6678    1.5612    0.5605 H   0  0  0  0  0  0  0  0  0  0  0  0
   -6.6190    3.7619   -4.3998 H   0  0  0  0  0  0  0  0  0  0  0  0
  -12.0082    3.1167   -4.0034 H   0  0  0  0  0  0  0  0  0  0  0  0
  -10.7675   -1.2767   -4.7158 H   0  0  0  0  0  0  0  0  0  0  0  0
  1  2  2  3
  2  3  1  0
  3  4  2  0
  3  5  1  0
  5  6  2  0
  6  7  1  0
  7  8  2  0
  8  9  1  0
  9 10  2  0
 10 11  1  0
 11 12  2  3
 12 13  1  0
 13 14  3  0
 12 15  1  0
 15 16  3  0
  8 17  1  0
 17 18  1  0
 18 19  1  0
 19 20  2  0
 20 21  1  0
 21 22  1  0
 21 23  1  0
  1 24  1  0
 24 25  2  0
 25 26  1  0
 26 27  1  0
 25 28  1  0
 28 29  2  0
 29 30  1  0
 29 31  1  0
 31 32  2  0
 32 33  1  0
 32 34  1  0
 34 35  1  0
 35 36  2  0
 36 37  1  0
 37 38  1  0
 38 39  2  0
 39 40  1  0
 40 41  1  0
 41 42  1  0
 42 43  1  0
 43 44  1  0
 44 45  2  0
 45 46  1  0
 46 47  1  0
 47 48  1  0
 48 49  1  0
 49 50  1  0
 50 51  1  0
 49 52  1  0
 52 53  1  0
 53 54  1  0
 54 55  1  0
 55 56  1  0
 45 57  1  0
 57 58  2  3
 58 59  1  0
 59 60  2  0
 59 61  1  0
 61 62  2  0
 62 63  1  0
 63 64  1  0
 64 65  2  0
 65 66  1  0
 66 67  2  3
 67 68  1  0
 68 69  3  0
 67 70  1  0
 70 71  3  0
 11  2  1  0
 23 17  1  0
 30 24  1  0
 54 31  1  0
 66 58  1  0
 10  5  1  0
 22 18  1  0
 33 28  1  0
 53 34  2  0
 65 61  1  0
 23  7  1  0
 39 35  1  0
 52 40  2  0
 48 41  2  0
 47 43  2  0
  1 72  1  0
  6 73  1  0
  9 74  1  0
 17 75  1  0
 18 76  1  0
 19 77  1  0
 20 78  1  0
 21 79  1  0
 22 80  1  0
 22 81  1  0
 23 82  1  0
 26 83  1  0
 26 84  1  0
 27 85  1  0
 27 86  1  0
 27 87  1  0
 44 88  1  0
 50 89  1  0
 50 90  1  0
 51 91  1  0
 51 92  1  0
 51 93  1  0
 55 94  1  0
 55 95  1  0
 56 96  1  0
 56 97  1  0
 56 98  1  0
 57 99  1  0
 62100  1  0
 64101  1  0
M  END

