
     RDKit          3D

110124  0  0  0  0  0  0  0  0999 V2000
    1.3499   -7.1311   -2.4213 C   0  0  0  0  0  0  0  0  0  0  0  0
    0.1201   -7.1409   -1.8280 C   0  0  0  0  0  0  0  0  0  0  0  0
   -0.5769   -6.2897   -0.9353 C   0  0  0  0  0  0  0  0  0  0  0  0
   -0.0072   -5.6706    0.0439 O   0  0  0  0  0  0  0  0  0  0  0  0
   -1.9896   -6.1878   -1.2246 C   0  0  0  0  0  0  0  0  0  0  0  0
   -2.9674   -5.4805   -0.5598 C   0  0  0  0  0  0  0  0  0  0  0  0
   -4.2684   -5.5806   -1.0129 C   0  0  0  0  0  0  0  0  0  0  0  0
   -4.6100   -6.3579   -2.0925 C   0  0  0  0  0  0  0  0  0  0  0  0
   -3.5724   -7.0531   -2.7249 C   0  0  0  0  0  0  0  0  0  0  0  0
   -2.2635   -6.9822   -2.3266 C   0  0  0  0  0  0  0  0  0  0  0  0
   -0.9788   -7.6216   -2.7739 C   0  0  0  0  0  0  0  0  0  0  0  0
   -0.9508   -8.5475   -3.6380 C   0  0  0  0  0  0  0  0  0  0  0  0
   -0.0322   -9.5184   -4.0505 C   0  0  0  0  0  0  0  0  0  0  0  0
    0.7207  -10.2868   -4.3896 N   0  0  0  0  0  0  0  0  0  0  0  0
   -1.7240   -7.9589   -4.8625 C   0  0  0  0  0  0  0  0  0  0  0  0
   -2.3249   -7.5202   -5.7859 N   0  0  0  0  0  0  0  0  0  0  0  0
   -6.0534   -6.1049   -2.0318 C   0  0  0  0  0  0  0  0  0  0  0  0
   -6.8323   -7.2118   -1.3143 C   0  0  0  0  0  0  0  0  0  0  0  0
   -5.9386   -7.7920   -0.3021 C   0  0  0  0  0  0  0  0  0  0  0  0
   -5.8198   -6.9203    0.6980 C   0  0  0  0  0  0  0  0  0  0  0  0
   -6.4644   -5.6350    0.2443 C   0  0  0  0  0  0  0  0  0  0  0  0
   -7.6926   -6.2872   -0.4340 C   0  0  0  0  0  0  0  0  0  0  0  0
   -5.6808   -5.1487   -0.9072 C   0  0  0  0  0  0  0  0  0  0  0  0
    2.1573   -5.9096   -2.1439 C   0  0  0  0  0  0  0  0  0  0  0  0
    3.1486   -5.3856   -2.9761 C   0  0  0  0  0  0  0  0  0  0  0  0
    3.9172   -6.2797   -3.8834 C   0  0  0  0  0  0  0  0  0  0  0  0
    5.0106   -6.9701   -3.0527 C   0  0  0  0  0  0  0  0  0  0  0  0
    3.3219   -4.1308   -2.7524 C   0  0  0  0  0  0  0  0  0  0  0  0
    4.4805   -2.6602   -3.8673 Se  0  0  0  0  0  2  0  0  0  0  0  0
    3.7360   -1.2892   -2.6804 C   0  0  0  0  0  0  0  0  0  0  0  0
    3.7193    0.0450   -2.4598 C   0  0  0  0  0  0  0  0  0  0  0  0
    4.3021    1.1114   -3.1854 C   0  0  0  0  0  0  0  0  0  0  0  0
    3.9593    2.3651   -2.8175 C   0  0  0  0  0  0  0  0  0  0  0  0
    4.5167    3.3662   -3.5511 N   0  0  0  0  0  0  0  0  0  0  0  0
    5.4469    2.5594   -4.6648 S   0  0  0  0  0  0  0  0  0  0  0  0
    5.1456    0.9894   -4.2181 N   0  0  0  0  0  0  0  0  0  0  0  0
    3.0818    2.5287   -1.7160 C   0  0  0  0  0  0  0  0  0  0  0  0
    2.6957    3.6603   -1.0863 C   0  0  0  0  0  0  0  0  0  0  0  0
    2.7495    5.5961   -1.2126 Se  0  0  0  0  0  2  0  0  0  0  0  0
    1.4064    5.5434    0.7640 C   0  0  0  0  0  0  0  0  0  0  0  0
    1.1054    6.7217    1.1213 C   0  0  0  0  0  0  0  0  0  0  0  0
    1.3336    8.1184    0.9170 C   0  0  0  0  0  0  0  0  0  0  0  0
    0.6672    8.7955   -0.2229 C   0  0  0  0  0  0  0  0  0  0  0  0
    0.1648    6.3147    2.1619 C   0  0  0  0  0  0  0  0  0  0  0  0
    0.1985    4.5758    2.0914 S   0  0  0  0  0  0  0  0  0  0  0  0
    1.5369    4.5398    0.6007 C   0  0  0  0  0  0  0  0  0  0  0  0
    1.9393    3.3658    0.0346 C   0  0  0  0  0  0  0  0  0  0  0  0
    1.8737    1.9928    0.0747 N   0  0  0  0  0  0  0  0  0  0  0  0
    2.5404    1.5147   -0.9768 C   0  0  0  0  0  0  0  0  0  0  0  0
    2.8530    0.2095   -1.4038 C   0  0  0  0  0  0  0  0  0  0  0  0
    2.3816   -0.9514   -1.0444 N   0  0  0  0  0  0  0  0  0  0  0  0
    2.9407   -1.9797   -1.8495 C   0  0  0  0  0  0  0  0  0  0  0  0
    2.8066   -3.3213   -1.9596 C   0  0  0  0  0  0  0  0  0  0  0  0
    1.7169   -4.5592   -1.2158 S   0  0  0  0  0  0  0  0  0  0  0  0
    1.2071   -1.2817   -0.2453 C   0  0  0  0  0  0  0  0  0  0  0  0
    0.0558   -1.5620   -1.3247 C   0  0  0  0  0  0  0  0  0  0  0  0
    1.4673    1.2453    1.2778 C   0  0  0  0  0  0  0  0  0  0  0  0
    2.6123    0.5922    2.0011 C   0  0  0  0  0  0  0  0  0  0  0  0
   -0.6732    7.1733    2.9596 C   0  0  0  0  0  0  0  0  0  0  0  0
   -0.5102    7.2634    4.2603 C   0  0  0  0  0  0  0  0  0  0  0  0
    0.5786    6.4617    4.9642 C   0  0  0  0  0  0  0  0  0  0  0  0
    1.3446    5.7052    4.3686 O   0  0  0  0  0  0  0  0  0  0  0  0
    0.5009    6.7772    6.3830 C   0  0  0  0  0  0  0  0  0  0  0  0
    1.1772    6.5216    7.9294 S   0  0  0  0  0  0  0  0  0  0  0  0
    0.1911    7.5305    8.8614 C   0  0  0  0  0  0  0  0  0  0  0  0
    0.2193    7.8229   10.3455 C   0  0  0  0  0  0  0  0  0  0  0  0
   -0.6610    8.0498    7.9181 C   0  0  0  0  0  0  0  0  0  0  0  0
   -0.5216    7.6796    6.6399 C   0  0  0  0  0  0  0  0  0  0  0  0
   -1.1116    7.9381    5.2763 C   0  0  0  0  0  0  0  0  0  0  0  0
   -2.2434    8.9082    5.2018 C   0  0  0  0  0  0  0  0  0  0  0  0
   -2.6650    9.0866    3.8440 C   0  0  0  0  0  0  0  0  0  0  0  0
   -3.0985    9.2451    2.5017 N   0  0  0  0  0  0  0  0  0  0  0  0
   -2.6123    9.2823    5.9472 C   0  0  0  0  0  0  0  0  0  0  0  0
   -3.2778    9.9912    7.3044 N   0  0  0  0  0  0  0  0  0  0  0  0
    1.7199   -7.8606   -3.0310 H   0  0  0  0  0  0  0  0  0  0  0  0
   -2.7914   -4.8636    0.2765 H   0  0  0  0  0  0  0  0  0  0  0  0
   -3.8385   -7.6622   -3.5436 H   0  0  0  0  0  0  0  0  0  0  0  0
   -6.5506   -5.7019   -2.8996 H   0  0  0  0  0  0  0  0  0  0  0  0
   -7.4213   -7.8369   -1.9375 H   0  0  0  0  0  0  0  0  0  0  0  0
   -5.4562   -8.7720   -0.3717 H   0  0  0  0  0  0  0  0  0  0  0  0
   -5.3513   -7.0898    1.6415 H   0  0  0  0  0  0  0  0  0  0  0  0
   -6.7135   -4.9434    1.0356 H   0  0  0  0  0  0  0  0  0  0  0  0
   -8.2836   -5.6146   -1.0359 H   0  0  0  0  0  0  0  0  0  0  0  0
   -8.2712   -6.9141    0.2907 H   0  0  0  0  0  0  0  0  0  0  0  0
   -5.8435   -4.0641   -1.1906 H   0  0  0  0  0  0  0  0  0  0  0  0
    4.4511   -5.7064   -4.6566 H   0  0  0  0  0  0  0  0  0  0  0  0
    3.2554   -7.0221   -4.3697 H   0  0  0  0  0  0  0  0  0  0  0  0
    5.1723   -7.9949   -3.3644 H   0  0  0  0  0  0  0  0  0  0  0  0
    6.0015   -6.4170   -3.1701 H   0  0  0  0  0  0  0  0  0  0  0  0
    4.8120   -6.8986   -1.9633 H   0  0  0  0  0  0  0  0  0  0  0  0
    1.0607    8.7213    1.8461 H   0  0  0  0  0  0  0  0  0  0  0  0
    2.4929    8.3144    0.8552 H   0  0  0  0  0  0  0  0  0  0  0  0
    0.5181    8.1560   -1.0979 H   0  0  0  0  0  0  0  0  0  0  0  0
    1.3278    9.6711   -0.5233 H   0  0  0  0  0  0  0  0  0  0  0  0
   -0.2740    9.2982    0.0894 H   0  0  0  0  0  0  0  0  0  0  0  0
    0.7278   -0.6130    0.3244 H   0  0  0  0  0  0  0  0  0  0  0  0
    1.3305   -2.2750    0.2107 H   0  0  0  0  0  0  0  0  0  0  0  0
   -0.1838   -0.5432   -1.6360 H   0  0  0  0  0  0  0  0  0  0  0  0
   -0.7759   -1.9060   -0.6944 H   0  0  0  0  0  0  0  0  0  0  0  0
    0.4259   -2.2150   -2.1062 H   0  0  0  0  0  0  0  0  0  0  0  0
    0.5433    0.8231    1.3533 H   0  0  0  0  0  0  0  0  0  0  0  0
    1.3003    2.1673    2.0550 H   0  0  0  0  0  0  0  0  0  0  0  0
    3.3159    0.1188    1.2608 H   0  0  0  0  0  0  0  0  0  0  0  0
    3.2527    1.3608    2.4964 H   0  0  0  0  0  0  0  0  0  0  0  0
    2.2741   -0.2302    2.6543 H   0  0  0  0  0  0  0  0  0  0  0  0
   -1.4406    7.7273    2.4597 H   0  0  0  0  0  0  0  0  0  0  0  0
    0.0713    8.9148   10.5067 H   0  0  0  0  0  0  0  0  0  0  0  0
    1.2597    7.5921   10.7196 H   0  0  0  0  0  0  0  0  0  0  0  0
   -0.4779    7.1600   10.8182 H   0  0  0  0  0  0  0  0  0  0  0  0
   -1.4231    8.7733    8.3403 H   0  0  0  0  0  0  0  0  0  0  0  0
  1  2  2  3
  2  3  1  0
  3  4  2  0
  3  5  1  0
  5  6  2  0
  6  7  1  0
  7  8  2  0
  8  9  1  0
  9 10  2  0
 10 11  1  0
 11 12  2  3
 12 13  1  0
 13 14  3  0
 12 15  1  0
 15 16  3  0
  8 17  1  0
 17 18  1  0
 18 19  1  0
 19 20  2  0
 20 21  1  0
 21 22  1  0
 21 23  1  0
  1 24  1  0
 24 25  2  0
 25 26  1  0
 26 27  1  0
 25 28  1  0
 28 29  1  0
 29 30  1  0
 30 31  1  0
 31 32  1  0
 32 33  1  0
 33 34  2  0
 34 35  1  0
 35 36  1  0
 33 37  1  0
 37 38  1  0
 38 39  1  0
 39 40  1  0
 40 41  1  0
 41 42  1  0
 42 43  1  0
 41 44  2  0
 44 45  1  0
 45 46  1  0
 46 47  1  0
 47 48  1  0
 48 49  1  0
 49 50  1  0
 50 51  1  0
 51 52  1  0
 52 53  1  0
 53 54  1  0
 51 55  1  0
 55 56  1  0
 48 57  1  0
 57 58  1  0
 44 59  1  0
 59 60  2  3
 60 61  1  0
 61 62  2  0
 61 63  1  0
 63 64  1  0
 64 65  1  0
 65 66  1  0
 65 67  2  0
 67 68  1  0
 68 69  1  0
 69 70  2  3
 70 71  1  0
 71 72  3  0
 70 73  1  0
 73 74  3  0
 11  2  1  0
 23 17  1  0
 54 24  1  0
 69 60  1  0
 10  5  1  0
 22 18  1  0
 53 28  2  0
 68 63  2  0
 23  7  1  0
 52 30  2  0
 50 31  2  0
 36 32  2  0
 49 37  2  0
 47 38  2  0
 46 40  2  0
  1 75  1  0
  6 76  1  0
  9 77  1  0
 17 78  1  0
 18 79  1  0
 19 80  1  0
 20 81  1  0
 21 82  1  0
 22 83  1  0
 22 84  1  0
 23 85  1  0
 26 86  1  0
 26 87  1  0
 27 88  1  0
 27 89  1  0
 27 90  1  0
 42 91  1  0
 42 92  1  0
 43 93  1  0
 43 94  1  0
 43 95  1  0
 55 96  1  0
 55 97  1  0
 56 98  1  0
 56 99  1  0
 56100  1  0
 57101  1  0
 57102  1  0
 58103  1  0
 58104  1  0
 58105  1  0
 59106  1  0
 66107  1  0
 66108  1  0
 66109  1  0
 67110  1  0
M  END

