
     RDKit          3D

127143  0  0  0  0  0  0  0  0999 V2000
   -0.1137   -5.1569   -3.5705 C   0  0  0  0  0  0  0  0  0  0  0  0
    0.5183   -4.7895   -4.7015 C   0  0  0  0  0  0  0  0  0  0  0  0
    0.6169   -3.4081   -5.1968 C   0  0  0  0  0  0  0  0  0  0  0  0
    0.2738   -2.3634   -4.5769 O   0  0  0  0  0  0  0  0  0  0  0  0
    1.0916   -3.4325   -6.5584 C   0  0  0  0  0  0  0  0  0  0  0  0
    1.2189   -2.3254   -7.4269 C   0  0  0  0  0  0  0  0  0  0  0  0
    1.5969   -2.6627   -8.7100 C   0  0  0  0  0  0  0  0  0  0  0  0
    1.8301   -4.0126   -9.1270 C   0  0  0  0  0  0  0  0  0  0  0  0
    1.6973   -5.1031   -8.2836 C   0  0  0  0  0  0  0  0  0  0  0  0
    1.3323   -4.7777   -6.9446 C   0  0  0  0  0  0  0  0  0  0  0  0
    1.0645   -5.6791   -5.7807 C   0  0  0  0  0  0  0  0  0  0  0  0
    1.4035   -6.9924   -5.6749 C   0  0  0  0  0  0  0  0  0  0  0  0
    2.0471   -7.7179   -6.7385 C   0  0  0  0  0  0  0  0  0  0  0  0
    2.5738   -8.3161   -7.5795 N   0  0  0  0  0  0  0  0  0  0  0  0
    1.2563   -7.7426   -4.4562 C   0  0  0  0  0  0  0  0  0  0  0  0
    1.1438   -8.3592   -3.4840 N   0  0  0  0  0  0  0  0  0  0  0  0
    2.1124   -3.5492  -10.5254 C   0  0  0  0  0  0  0  0  0  0  0  0
    0.9925   -3.8032  -11.5773 C   0  0  0  0  0  0  0  0  0  0  0  0
    1.3254   -2.9245  -12.7579 C   0  0  0  0  0  0  0  0  0  0  0  0
    1.1078   -1.6635  -12.3658 C   0  0  0  0  0  0  0  0  0  0  0  0
    0.6342   -1.7357  -10.9337 C   0  0  0  0  0  0  0  0  0  0  0  0
   -0.1826   -3.0147  -11.0253 C   0  0  0  0  0  0  0  0  0  0  0  0
    1.8727   -2.1674  -10.0958 C   0  0  0  0  0  0  0  0  0  0  0  0
   -0.6900   -4.1781   -2.6385 C   0  0  0  0  0  0  0  0  0  0  0  0
   -2.0141   -3.7103   -2.6885 C   0  0  0  0  0  0  0  0  0  0  0  0
   -3.0374   -4.1953   -3.6299 C   0  0  0  0  0  0  0  0  0  0  0  0
   -3.3572   -3.3961   -4.7390 C   0  0  0  0  0  0  0  0  0  0  0  0
   -4.3065   -3.8251   -5.6669 C   0  0  0  0  0  0  0  0  0  0  0  0
   -4.9456   -5.0547   -5.4958 C   0  0  0  0  0  0  0  0  0  0  0  0
   -4.6398   -5.8571   -4.3936 C   0  0  0  0  0  0  0  0  0  0  0  0
   -3.6779   -5.4476   -3.4545 C   0  0  0  0  0  0  0  0  0  0  0  0
   -3.4348   -6.3100   -2.2354 C   0  0  0  0  0  0  0  0  0  0  0  0
   -4.3534   -5.8957   -1.0904 C   0  0  0  0  0  0  0  0  0  0  0  0
   -2.1924   -2.6358   -1.8212 C   0  0  0  0  0  0  0  0  0  0  0  0
   -3.5192   -1.6207   -1.4597 S   0  0  0  0  0  0  0  0  0  0  0  0
   -2.5589   -0.7192   -0.3858 C   0  0  0  0  0  0  0  0  0  0  0  0
   -2.7124    0.2189    0.5960 C   0  0  0  0  0  0  0  0  0  0  0  0
   -3.8530    0.8374    1.1254 C   0  0  0  0  0  0  0  0  0  0  0  0
   -3.7186    1.6154    2.3175 C   0  0  0  0  0  0  0  0  0  0  0  0
   -4.8436    2.1877    2.8095 N   0  0  0  0  0  0  0  0  0  0  0  0
   -5.9410    1.6398    1.6947 S   0  0  0  0  0  0  0  0  0  0  0  0
   -5.0985    0.7186    0.6035 N   0  0  0  0  0  0  0  0  0  0  0  0
   -2.4458    1.7617    2.8824 C   0  0  0  0  0  0  0  0  0  0  0  0
   -1.9826    2.5132    3.9246 C   0  0  0  0  0  0  0  0  0  0  0  0
   -2.5573    3.5408    5.1495 S   0  0  0  0  0  0  0  0  0  0  0  0
   -0.9541    3.8685    5.6474 C   0  0  0  0  0  0  0  0  0  0  0  0
   -0.4022    4.5715    6.7145 C   0  0  0  0  0  0  0  0  0  0  0  0
   -1.1855    5.2532    7.7589 C   0  0  0  0  0  0  0  0  0  0  0  0
   -1.5181    4.6112    8.9770 C   0  0  0  0  0  0  0  0  0  0  0  0
   -1.1946    3.1560    9.2363 C   0  0  0  0  0  0  0  0  0  0  0  0
   -2.3998    2.2709    8.9358 C   0  0  0  0  0  0  0  0  0  0  0  0
   -2.2099    5.3353    9.9624 C   0  0  0  0  0  0  0  0  0  0  0  0
   -2.5520    6.6731    9.7534 C   0  0  0  0  0  0  0  0  0  0  0  0
   -2.2177    7.3026    8.5545 C   0  0  0  0  0  0  0  0  0  0  0  0
   -1.5392    6.5961    7.5594 C   0  0  0  0  0  0  0  0  0  0  0  0
    1.0004    4.4838    6.7083 C   0  0  0  0  0  0  0  0  0  0  0  0
    1.5236    3.4952    5.4159 S   0  0  0  0  0  0  0  0  0  0  0  0
   -0.0351    3.2273    4.8566 C   0  0  0  0  0  0  0  0  0  0  0  0
   -0.6295    2.4352    3.8943 C   0  0  0  0  0  0  0  0  0  0  0  0
   -0.1555    1.6743    2.8792 N   0  0  0  0  0  0  0  0  0  0  0  0
   -1.3008    1.1906    2.3055 C   0  0  0  0  0  0  0  0  0  0  0  0
   -1.4567    0.3119    1.2133 C   0  0  0  0  0  0  0  0  0  0  0  0
   -0.5933   -0.6384    0.7343 N   0  0  0  0  0  0  0  0  0  0  0  0
   -1.2910   -1.1922   -0.2879 C   0  0  0  0  0  0  0  0  0  0  0  0
   -1.0795   -2.2930   -1.0993 C   0  0  0  0  0  0  0  0  0  0  0  0
    0.2168   -3.2801   -1.5020 S   0  0  0  0  0  0  0  0  0  0  0  0
    0.4311   -1.3602    1.5096 C   0  0  0  0  0  0  0  0  0  0  0  0
   -0.1575   -2.6083    2.1697 C   0  0  0  0  0  0  0  0  0  0  0  0
    1.1493    1.8806    2.2311 C   0  0  0  0  0  0  0  0  0  0  0  0
    1.2154    3.2545    1.5648 C   0  0  0  0  0  0  0  0  0  0  0  0
    1.8638    4.9482    7.8020 C   0  0  0  0  0  0  0  0  0  0  0  0
    2.9367    5.7371    7.6320 C   0  0  0  0  0  0  0  0  0  0  0  0
    3.2615    6.4929    6.4035 C   0  0  0  0  0  0  0  0  0  0  0  0
    2.7482    6.3607    5.2610 O   0  0  0  0  0  0  0  0  0  0  0  0
    4.2181    7.5008    6.7822 C   0  0  0  0  0  0  0  0  0  0  0  0
    4.9653    8.8057    6.0432 S   0  0  0  0  0  0  0  0  0  0  0  0
    5.7305    9.2874    7.4841 C   0  0  0  0  0  0  0  0  0  0  0  0
    6.8754   10.8033    7.6391 Br  0  0  0  0  0  0  0  0  0  0  0  0
    5.3832    8.4353    8.5378 C   0  0  0  0  0  0  0  0  0  0  0  0
    4.5178    7.4292    8.1022 C   0  0  0  0  0  0  0  0  0  0  0  0
    3.8084    6.2890    8.7236 C   0  0  0  0  0  0  0  0  0  0  0  0
    4.0444    5.7663    9.9502 C   0  0  0  0  0  0  0  0  0  0  0  0
    3.5127    4.4897   10.3528 C   0  0  0  0  0  0  0  0  0  0  0  0
    3.0920    3.4586   10.6734 N   0  0  0  0  0  0  0  0  0  0  0  0
    4.9360    6.3978   10.8876 C   0  0  0  0  0  0  0  0  0  0  0  0
    5.6502    6.8966   11.6499 N   0  0  0  0  0  0  0  0  0  0  0  0
   -0.3318   -6.1884   -3.3608 H   0  0  0  0  0  0  0  0  0  0  0  0
    1.0020   -1.3085   -7.1284 H   0  0  0  0  0  0  0  0  0  0  0  0
    1.8226   -6.1009   -8.6647 H   0  0  0  0  0  0  0  0  0  0  0  0
    3.1533   -3.7577  -10.8639 H   0  0  0  0  0  0  0  0  0  0  0  0
    0.7937   -4.8680  -11.8184 H   0  0  0  0  0  0  0  0  0  0  0  0
    1.5859   -3.2408  -13.7620 H   0  0  0  0  0  0  0  0  0  0  0  0
    1.1668   -0.7815  -12.9973 H   0  0  0  0  0  0  0  0  0  0  0  0
    0.0913   -0.8377  -10.5678 H   0  0  0  0  0  0  0  0  0  0  0  0
   -1.0416   -2.9443  -11.7362 H   0  0  0  0  0  0  0  0  0  0  0  0
   -0.5630   -3.3831  -10.0476 H   0  0  0  0  0  0  0  0  0  0  0  0
    2.7603   -1.4975  -10.1622 H   0  0  0  0  0  0  0  0  0  0  0  0
   -2.8685   -2.4390   -4.8843 H   0  0  0  0  0  0  0  0  0  0  0  0
   -4.5474   -3.2044   -6.5211 H   0  0  0  0  0  0  0  0  0  0  0  0
   -5.6861   -5.3847   -6.2142 H   0  0  0  0  0  0  0  0  0  0  0  0
   -5.1611   -6.7984   -4.2684 H   0  0  0  0  0  0  0  0  0  0  0  0
   -2.3800   -6.2449   -1.9009 H   0  0  0  0  0  0  0  0  0  0  0  0
   -3.6245   -7.3772   -2.4814 H   0  0  0  0  0  0  0  0  0  0  0  0
   -5.4168   -5.9884   -1.3955 H   0  0  0  0  0  0  0  0  0  0  0  0
   -4.1495   -4.8457   -0.7886 H   0  0  0  0  0  0  0  0  0  0  0  0
   -4.1770   -6.5555   -0.2149 H   0  0  0  0  0  0  0  0  0  0  0  0
   -0.3338    2.8132    8.6267 H   0  0  0  0  0  0  0  0  0  0  0  0
   -0.8983    3.0216   10.2989 H   0  0  0  0  0  0  0  0  0  0  0  0
   -2.1291    1.2073    9.0955 H   0  0  0  0  0  0  0  0  0  0  0  0
   -3.2433    2.5292    9.6115 H   0  0  0  0  0  0  0  0  0  0  0  0
   -2.7242    2.4007    7.8824 H   0  0  0  0  0  0  0  0  0  0  0  0
   -2.4838    4.8616   10.8978 H   0  0  0  0  0  0  0  0  0  0  0  0
   -3.0747    7.2226   10.5242 H   0  0  0  0  0  0  0  0  0  0  0  0
   -2.4794    8.3405    8.3970 H   0  0  0  0  0  0  0  0  0  0  0  0
   -1.2755    7.0995    6.6361 H   0  0  0  0  0  0  0  0  0  0  0  0
    0.8285   -0.7410    2.3329 H   0  0  0  0  0  0  0  0  0  0  0  0
    1.2743   -1.6432    0.8445 H   0  0  0  0  0  0  0  0  0  0  0  0
   -0.4925   -3.3383    1.4066 H   0  0  0  0  0  0  0  0  0  0  0  0
    0.6140   -3.0928    2.8031 H   0  0  0  0  0  0  0  0  0  0  0  0
   -1.0190   -2.3293    2.8133 H   0  0  0  0  0  0  0  0  0  0  0  0
    1.9605    1.7930    2.9849 H   0  0  0  0  0  0  0  0  0  0  0  0
    1.3304    1.1394    1.4315 H   0  0  0  0  0  0  0  0  0  0  0  0
    0.4644    3.3131    0.7475 H   0  0  0  0  0  0  0  0  0  0  0  0
    2.2266    3.4092    1.1325 H   0  0  0  0  0  0  0  0  0  0  0  0
    1.0190    4.0621    2.2985 H   0  0  0  0  0  0  0  0  0  0  0  0
    1.5366    4.7001    8.7986 H   0  0  0  0  0  0  0  0  0  0  0  0
    5.7271    8.5719    9.5505 H   0  0  0  0  0  0  0  0  0  0  0  0
  1  2  2  3
  2  3  1  0
  3  4  2  0
  3  5  1  0
  5  6  2  0
  6  7  1  0
  7  8  2  0
  8  9  1  0
  9 10  2  0
 10 11  1  0
 11 12  2  3
 12 13  1  0
 13 14  3  0
 12 15  1  0
 15 16  3  0
  8 17  1  0
 17 18  1  0
 18 19  1  0
 19 20  2  0
 20 21  1  0
 21 22  1  0
 21 23  1  0
  1 24  1  0
 24 25  2  0
 25 26  1  0
 26 27  2  0
 27 28  1  0
 28 29  2  0
 29 30  1  0
 30 31  2  0
 31 32  1  0
 32 33  1  0
 25 34  1  0
 34 35  1  0
 35 36  1  0
 36 37  1  0
 37 38  1  0
 38 39  1  0
 39 40  2  0
 40 41  1  0
 41 42  1  0
 39 43  1  0
 43 44  1  0
 44 45  1  0
 45 46  1  0
 46 47  1  0
 47 48  1  0
 48 49  2  0
 49 50  1  0
 50 51  1  0
 49 52  1  0
 52 53  2  0
 53 54  1  0
 54 55  2  0
 47 56  2  0
 56 57  1  0
 57 58  1  0
 58 59  1  0
 59 60  1  0
 60 61  1  0
 61 62  1  0
 62 63  1  0
 63 64  1  0
 64 65  1  0
 65 66  1  0
 63 67  1  0
 67 68  1  0
 60 69  1  0
 69 70  1  0
 56 71  1  0
 71 72  2  3
 72 73  1  0
 73 74  2  0
 73 75  1  0
 75 76  1  0
 76 77  1  0
 77 78  1  0
 77 79  2  0
 79 80  1  0
 80 81  1  0
 81 82  2  3
 82 83  1  0
 83 84  3  0
 82 85  1  0
 85 86  3  0
 11  2  1  0
 23 17  1  0
 66 24  1  0
 81 72  1  0
 10  5  1  0
 22 18  1  0
 31 26  1  0
 65 34  2  0
 80 75  2  0
 23  7  1  0
 64 36  2  0
 62 37  2  0
 42 38  2  0
 61 43  2  0
 59 44  2  0
 58 46  2  0
 55 48  1  0
  1 87  1  0
  6 88  1  0
  9 89  1  0
 17 90  1  0
 18 91  1  0
 19 92  1  0
 20 93  1  0
 21 94  1  0
 22 95  1  0
 22 96  1  0
 23 97  1  0
 27 98  1  0
 28 99  1  0
 29100  1  0
 30101  1  0
 32102  1  0
 32103  1  0
 33104  1  0
 33105  1  0
 33106  1  0
 50107  1  0
 50108  1  0
 51109  1  0
 51110  1  0
 51111  1  0
 52112  1  0
 53113  1  0
 54114  1  0
 55115  1  0
 67116  1  0
 67117  1  0
 68118  1  0
 68119  1  0
 68120  1  0
 69121  1  0
 69122  1  0
 70123  1  0
 70124  1  0
 70125  1  0
 71126  1  0
 79127  1  0
M  END

