
     RDKit          3D

130147  0  0  0  0  0  0  0  0999 V2000
   -8.8776   -0.8552    0.3508 C   0  0  0  0  0  0  0  0  0  0  0  0
   -9.3147    0.0591   -0.5391 C   0  0  0  0  0  0  0  0  0  0  0  0
   -8.4710    0.8946   -1.4073 C   0  0  0  0  0  0  0  0  0  0  0  0
   -7.2147    0.9893   -1.3743 O   0  0  0  0  0  0  0  0  0  0  0  0
   -9.2988    1.4750   -2.4398 C   0  0  0  0  0  0  0  0  0  0  0  0
   -8.8734    2.3125   -3.4978 C   0  0  0  0  0  0  0  0  0  0  0  0
   -9.8787    2.6588   -4.3794 C   0  0  0  0  0  0  0  0  0  0  0  0
  -11.2242    2.1833   -4.2545 C   0  0  0  0  0  0  0  0  0  0  0  0
  -11.6446    1.3519   -3.2295 C   0  0  0  0  0  0  0  0  0  0  0  0
  -10.6332    1.0265   -2.2787 C   0  0  0  0  0  0  0  0  0  0  0  0
  -10.7204    0.2090   -1.0334 C   0  0  0  0  0  0  0  0  0  0  0  0
  -11.8537   -0.0941   -0.3425 C   0  0  0  0  0  0  0  0  0  0  0  0
  -11.8216   -0.6096    1.0043 C   0  0  0  0  0  0  0  0  0  0  0  0
  -11.8063   -1.0178    2.0908 N   0  0  0  0  0  0  0  0  0  0  0  0
  -13.1709    0.2097   -0.8354 C   0  0  0  0  0  0  0  0  0  0  0  0
  -14.2361    0.4544   -1.2129 N   0  0  0  0  0  0  0  0  0  0  0  0
  -11.6200    2.9243   -5.4997 C   0  0  0  0  0  0  0  0  0  0  0  0
  -11.8235    2.1060   -6.8116 C   0  0  0  0  0  0  0  0  0  0  0  0
  -10.9184    0.8954   -6.8141 C   0  0  0  0  0  0  0  0  0  0  0  0
   -9.6708    1.3521   -6.9245 C   0  0  0  0  0  0  0  0  0  0  0  0
   -9.7661    2.8587   -6.9903 C   0  0  0  0  0  0  0  0  0  0  0  0
  -11.0526    2.9807   -7.7858 C   0  0  0  0  0  0  0  0  0  0  0  0
  -10.2462    3.4239   -5.6176 C   0  0  0  0  0  0  0  0  0  0  0  0
   -7.5090   -0.9239    0.8925 C   0  0  0  0  0  0  0  0  0  0  0  0
   -6.8552   -2.1208    1.2214 C   0  0  0  0  0  0  0  0  0  0  0  0
   -5.6248   -1.8640    1.8146 C   0  0  0  0  0  0  0  0  0  0  0  0
   -4.3532   -2.8412    2.3383 S   0  0  0  0  0  0  0  0  0  0  0  0
   -3.3832   -1.5067    2.7621 C   0  0  0  0  0  0  0  0  0  0  0  0
   -2.0582   -1.5240    3.2044 C   0  0  0  0  0  0  0  0  0  0  0  0
   -1.4305   -0.2804    3.3633 C   0  0  0  0  0  0  0  0  0  0  0  0
   -0.0250    0.0185    3.5844 C   0  0  0  0  0  0  0  0  0  0  0  0
    0.1430    1.3243    3.5166 C   0  0  0  0  0  0  0  0  0  0  0  0
   -1.1264    2.0920    3.2071 C   0  0  0  0  0  0  0  0  0  0  0  0
   -1.0355    2.8483    1.8463 C   0  0  0  0  0  0  0  0  0  0  0  0
   -0.5854    1.9819    0.6611 C   0  0  0  0  0  0  0  0  0  0  0  0
   -1.4220    3.0352    4.4061 C   0  0  0  0  0  0  0  0  0  0  0  0
   -2.6890    3.8827    4.2709 C   0  0  0  0  0  0  0  0  0  0  0  0
   -2.0970    0.9250    3.1329 C   0  0  0  0  0  0  0  0  0  0  0  0
   -3.4287    0.9343    2.6764 C   0  0  0  0  0  0  0  0  0  0  0  0
   -4.0563   -0.3036    2.4956 C   0  0  0  0  0  0  0  0  0  0  0  0
   -5.3167   -0.5484    1.9700 C   0  0  0  0  0  0  0  0  0  0  0  0
   -6.5659    0.4088    1.4002 S   0  0  0  0  0  0  0  0  0  0  0  0
    1.5442    1.6162    3.2994 C   0  0  0  0  0  0  0  0  0  0  0  0
    2.2123    0.4002    3.1665 C   0  0  0  0  0  0  0  0  0  0  0  0
    1.2441   -0.7627    3.2916 C   0  0  0  0  0  0  0  0  0  0  0  0
    1.0663   -1.5271    1.9440 C   0  0  0  0  0  0  0  0  0  0  0  0
    2.3401   -2.0956    1.3170 C   0  0  0  0  0  0  0  0  0  0  0  0
    1.6038   -1.7112    4.4658 C   0  0  0  0  0  0  0  0  0  0  0  0
    1.8000   -0.9967    5.8079 C   0  0  0  0  0  0  0  0  0  0  0  0
    3.5989    0.3627    2.9522 C   0  0  0  0  0  0  0  0  0  0  0  0
    4.2614    1.5871    2.8294 C   0  0  0  0  0  0  0  0  0  0  0  0
    3.5800    2.8074    2.9664 C   0  0  0  0  0  0  0  0  0  0  0  0
    2.2030    2.8519    3.2081 C   0  0  0  0  0  0  0  0  0  0  0  0
    4.6238    4.1088    2.6135 S   0  0  0  0  0  0  0  0  0  0  0  0
    5.9371    3.0912    2.2896 C   0  0  0  0  0  0  0  0  0  0  0  0
    7.1522    3.2948    1.6371 C   0  0  0  0  0  0  0  0  0  0  0  0
    7.7562    2.0750    1.2800 C   0  0  0  0  0  0  0  0  0  0  0  0
    6.7265    0.7981    1.7611 S   0  0  0  0  0  0  0  0  0  0  0  0
    5.5782    1.7886    2.4521 C   0  0  0  0  0  0  0  0  0  0  0  0
    8.8092    1.9787    0.2466 C   0  0  0  0  0  0  0  0  0  0  0  0
    9.4175    0.8409   -0.1476 C   0  0  0  0  0  0  0  0  0  0  0  0
    9.3157   -0.4648    0.5090 C   0  0  0  0  0  0  0  0  0  0  0  0
    9.2817   -0.6643    1.7559 O   0  0  0  0  0  0  0  0  0  0  0  0
    9.3999   -1.4987   -0.4974 C   0  0  0  0  0  0  0  0  0  0  0  0
    9.0525   -2.8608   -0.3408 C   0  0  0  0  0  0  0  0  0  0  0  0
    9.0054   -3.5655   -1.5315 C   0  0  0  0  0  0  0  0  0  0  0  0
    9.3007   -2.9756   -2.8035 C   0  0  0  0  0  0  0  0  0  0  0  0
    9.6514   -1.6438   -2.9605 C   0  0  0  0  0  0  0  0  0  0  0  0
    9.6973   -0.8981   -1.7475 C   0  0  0  0  0  0  0  0  0  0  0  0
    9.8792    0.5687   -1.5423 C   0  0  0  0  0  0  0  0  0  0  0  0
   10.4742    1.4459   -2.3880 C   0  0  0  0  0  0  0  0  0  0  0  0
   10.9056    1.0750   -3.7076 C   0  0  0  0  0  0  0  0  0  0  0  0
   11.2522    0.7898   -4.7757 N   0  0  0  0  0  0  0  0  0  0  0  0
   10.8272    2.7823   -1.9756 C   0  0  0  0  0  0  0  0  0  0  0  0
   11.1154    3.8544   -1.6470 N   0  0  0  0  0  0  0  0  0  0  0  0
    8.9818   -4.2686   -3.4941 C   0  0  0  0  0  0  0  0  0  0  0  0
   10.1898   -5.1122   -4.0032 C   0  0  0  0  0  0  0  0  0  0  0  0
    9.6349   -6.4899   -4.2919 C   0  0  0  0  0  0  0  0  0  0  0  0
    9.3412   -7.0365   -3.1058 C   0  0  0  0  0  0  0  0  0  0  0  0
    9.7126   -6.0139   -2.0572 C   0  0  0  0  0  0  0  0  0  0  0  0
   10.9480   -5.4317   -2.7265 C   0  0  0  0  0  0  0  0  0  0  0  0
    8.6681   -4.8688   -2.1932 C   0  0  0  0  0  0  0  0  0  0  0  0
   -9.5437   -1.6414    0.6707 H   0  0  0  0  0  0  0  0  0  0  0  0
   -7.8504    2.6445   -3.6184 H   0  0  0  0  0  0  0  0  0  0  0  0
  -12.6563    0.9875   -3.2006 H   0  0  0  0  0  0  0  0  0  0  0  0
  -12.3708    3.7232   -5.3266 H   0  0  0  0  0  0  0  0  0  0  0  0
  -12.8803    1.9048   -7.0844 H   0  0  0  0  0  0  0  0  0  0  0  0
  -11.2167   -0.1489   -6.8265 H   0  0  0  0  0  0  0  0  0  0  0  0
   -8.7787    0.7455   -7.0422 H   0  0  0  0  0  0  0  0  0  0  0  0
   -8.8828    3.3666   -7.4302 H   0  0  0  0  0  0  0  0  0  0  0  0
  -10.9824    2.5515   -8.8131 H   0  0  0  0  0  0  0  0  0  0  0  0
  -11.4367    4.0265   -7.8456 H   0  0  0  0  0  0  0  0  0  0  0  0
  -10.1643    4.5296   -5.5093 H   0  0  0  0  0  0  0  0  0  0  0  0
   -7.2493   -3.1113    1.0284 H   0  0  0  0  0  0  0  0  0  0  0  0
   -1.5338   -2.4561    3.3678 H   0  0  0  0  0  0  0  0  0  0  0  0
   -0.3384    3.7100    1.9394 H   0  0  0  0  0  0  0  0  0  0  0  0
   -2.0330    3.2638    1.5886 H   0  0  0  0  0  0  0  0  0  0  0  0
   -1.2050    1.0662    0.5809 H   0  0  0  0  0  0  0  0  0  0  0  0
   -0.6957    2.5587   -0.2795 H   0  0  0  0  0  0  0  0  0  0  0  0
    0.4793    1.6950    0.7641 H   0  0  0  0  0  0  0  0  0  0  0  0
   -1.5045    2.4381    5.3382 H   0  0  0  0  0  0  0  0  0  0  0  0
   -0.5643    3.7290    4.5411 H   0  0  0  0  0  0  0  0  0  0  0  0
   -3.5907    3.2442    4.2117 H   0  0  0  0  0  0  0  0  0  0  0  0
   -2.6376    4.5489    3.3867 H   0  0  0  0  0  0  0  0  0  0  0  0
   -2.7944    4.5254    5.1684 H   0  0  0  0  0  0  0  0  0  0  0  0
   -3.9273    1.8535    2.4027 H   0  0  0  0  0  0  0  0  0  0  0  0
    0.5931   -0.8592    1.1907 H   0  0  0  0  0  0  0  0  0  0  0  0
    0.3738   -2.3804    2.0994 H   0  0  0  0  0  0  0  0  0  0  0  0
    2.9066   -2.7158    2.0376 H   0  0  0  0  0  0  0  0  0  0  0  0
    2.9821   -1.2779    0.9261 H   0  0  0  0  0  0  0  0  0  0  0  0
    2.0634   -2.7348    0.4546 H   0  0  0  0  0  0  0  0  0  0  0  0
    0.7973   -2.4664    4.5866 H   0  0  0  0  0  0  0  0  0  0  0  0
    2.5380   -2.2565    4.2339 H   0  0  0  0  0  0  0  0  0  0  0  0
    2.6329   -0.2633    5.7462 H   0  0  0  0  0  0  0  0  0  0  0  0
    2.0593   -1.7447    6.5882 H   0  0  0  0  0  0  0  0  0  0  0  0
    0.8744   -0.4709    6.1168 H   0  0  0  0  0  0  0  0  0  0  0  0
    4.1317   -0.5738    2.8654 H   0  0  0  0  0  0  0  0  0  0  0  0
    1.6716    3.7917    3.2872 H   0  0  0  0  0  0  0  0  0  0  0  0
    7.5030    4.2664    1.3194 H   0  0  0  0  0  0  0  0  0  0  0  0
    8.8950    2.8615   -0.3684 H   0  0  0  0  0  0  0  0  0  0  0  0
    8.7671   -3.2967    0.6061 H   0  0  0  0  0  0  0  0  0  0  0  0
    9.7830   -1.2232   -3.9430 H   0  0  0  0  0  0  0  0  0  0  0  0
    8.1145   -4.2006   -4.1893 H   0  0  0  0  0  0  0  0  0  0  0  0
   10.7853   -4.6624   -4.8235 H   0  0  0  0  0  0  0  0  0  0  0  0
    9.5595   -6.9862   -5.2546 H   0  0  0  0  0  0  0  0  0  0  0  0
    8.9912   -8.0521   -2.9438 H   0  0  0  0  0  0  0  0  0  0  0  0
    9.8567   -6.4145   -1.0317 H   0  0  0  0  0  0  0  0  0  0  0  0
   11.7648   -6.1804   -2.8702 H   0  0  0  0  0  0  0  0  0  0  0  0
   11.3705   -4.5416   -2.2117 H   0  0  0  0  0  0  0  0  0  0  0  0
    7.6031   -5.1671   -2.0663 H   0  0  0  0  0  0  0  0  0  0  0  0
  1  2  2  3
  2  3  1  0
  3  4  2  0
  3  5  1  0
  5  6  2  0
  6  7  1  0
  7  8  2  0
  8  9  1  0
  9 10  2  0
 10 11  1  0
 11 12  2  3
 12 13  1  0
 13 14  3  0
 12 15  1  0
 15 16  3  0
  8 17  1  0
 17 18  1  0
 18 19  1  0
 19 20  2  0
 20 21  1  0
 21 22  1  0
 21 23  1  0
  1 24  1  0
 24 25  2  0
 25 26  1  0
 26 27  1  0
 27 28  1  0
 28 29  2  0
 29 30  1  0
 30 31  1  0
 31 32  2  0
 32 33  1  0
 33 34  1  0
 34 35  1  0
 33 36  1  0
 36 37  1  0
 33 38  1  0
 38 39  1  0
 39 40  2  0
 40 41  1  0
 41 42  1  0
 32 43  1  0
 43 44  2  0
 44 45  1  0
 45 46  1  0
 46 47  1  0
 45 48  1  0
 48 49  1  0
 44 50  1  0
 50 51  2  0
 51 52  1  0
 52 53  2  0
 52 54  1  0
 54 55  1  0
 55 56  1  0
 56 57  2  0
 57 58  1  0
 58 59  1  0
 57 60  1  0
 60 61  2  3
 61 62  1  0
 62 63  2  0
 62 64  1  0
 64 65  2  0
 65 66  1  0
 66 67  2  0
 67 68  1  0
 68 69  2  0
 69 70  1  0
 70 71  2  3
 71 72  1  0
 72 73  3  0
 71 74  1  0
 74 75  3  0
 67 76  1  0
 76 77  1  0
 77 78  1  0
 78 79  2  0
 79 80  1  0
 80 81  1  0
 80 82  1  0
 11  2  1  0
 23 17  1  0
 42 24  1  0
 53 43  1  0
 59 55  2  0
 70 61  1  0
 82 76  1  0
 10  5  1  0
 22 18  1  0
 41 26  2  0
 59 51  1  0
 69 64  1  0
 81 77  1  0
 23  7  1  0
 40 28  1  0
 82 66  1  0
 38 30  2  0
 45 31  1  0
  1 83  1  0
  6 84  1  0
  9 85  1  0
 17 86  1  0
 18 87  1  0
 19 88  1  0
 20 89  1  0
 21 90  1  0
 22 91  1  0
 22 92  1  0
 23 93  1  0
 25 94  1  0
 29 95  1  0
 34 96  1  0
 34 97  1  0
 35 98  1  0
 35 99  1  0
 35100  1  0
 36101  1  0
 36102  1  0
 37103  1  0
 37104  1  0
 37105  1  0
 39106  1  0
 46107  1  0
 46108  1  0
 47109  1  0
 47110  1  0
 47111  1  0
 48112  1  0
 48113  1  0
 49114  1  0
 49115  1  0
 49116  1  0
 50117  1  0
 53118  1  0
 56119  1  0
 60120  1  0
 65121  1  0
 68122  1  0
 76123  1  0
 77124  1  0
 78125  1  0
 79126  1  0
 80127  1  0
 81128  1  0
 81129  1  0
 82130  1  0
M  END

