
     RDKit          3D

130146  0  0  0  0  0  0  0  0999 V2000
    2.9237   -4.4297   -2.9972 C   0  0  0  0  0  0  0  0  0  0  0  0
    2.4439   -5.3903   -3.8044 C   0  0  0  0  0  0  0  0  0  0  0  0
    2.7695   -5.4012   -5.2306 C   0  0  0  0  0  0  0  0  0  0  0  0
    3.6014   -4.6456   -5.8039 O   0  0  0  0  0  0  0  0  0  0  0  0
    1.9740   -6.4042   -5.8917 C   0  0  0  0  0  0  0  0  0  0  0  0
    2.0737   -6.7928   -7.2473 C   0  0  0  0  0  0  0  0  0  0  0  0
    1.3476   -7.9243   -7.5569 C   0  0  0  0  0  0  0  0  0  0  0  0
    0.5707   -8.6418   -6.5933 C   0  0  0  0  0  0  0  0  0  0  0  0
    0.4510   -8.2521   -5.2681 C   0  0  0  0  0  0  0  0  0  0  0  0
    1.1703   -7.0683   -4.9287 C   0  0  0  0  0  0  0  0  0  0  0  0
    1.4295   -6.4733   -3.5800 C   0  0  0  0  0  0  0  0  0  0  0  0
    1.0099   -6.9897   -2.3993 C   0  0  0  0  0  0  0  0  0  0  0  0
    1.7818   -6.8779   -1.1912 C   0  0  0  0  0  0  0  0  0  0  0  0
    2.4009   -6.8185   -0.2158 N   0  0  0  0  0  0  0  0  0  0  0  0
   -0.1778   -7.7940   -2.2922 C   0  0  0  0  0  0  0  0  0  0  0  0
   -1.1371   -8.4328   -2.1926 N   0  0  0  0  0  0  0  0  0  0  0  0
    0.2517   -9.6956   -7.6119 C   0  0  0  0  0  0  0  0  0  0  0  0
    1.0260  -11.0425   -7.4844 C   0  0  0  0  0  0  0  0  0  0  0  0
    0.8342  -11.7556   -8.8004 C   0  0  0  0  0  0  0  0  0  0  0  0
    1.5394  -11.0731   -9.7103 C   0  0  0  0  0  0  0  0  0  0  0  0
    2.1859   -9.9233   -8.9758 C   0  0  0  0  0  0  0  0  0  0  0  0
    2.4772  -10.6246   -7.6600 C   0  0  0  0  0  0  0  0  0  0  0  0
    1.0300   -8.9480   -8.6039 C   0  0  0  0  0  0  0  0  0  0  0  0
    2.4479   -4.0831   -1.6536 C   0  0  0  0  0  0  0  0  0  0  0  0
    3.3088   -3.7422   -0.6001 C   0  0  0  0  0  0  0  0  0  0  0  0
    4.7739   -3.7581   -0.7096 C   0  0  0  0  0  0  0  0  0  0  0  0
    5.4496   -2.6002   -1.1185 C   0  0  0  0  0  0  0  0  0  0  0  0
    6.8349   -2.6205   -1.2894 C   0  0  0  0  0  0  0  0  0  0  0  0
    7.5614   -3.7952   -1.0377 C   0  0  0  0  0  0  0  0  0  0  0  0
    9.0431   -3.8342   -1.2871 C   0  0  0  0  0  0  0  0  0  0  0  0
    9.3349   -4.3494   -2.6937 C   0  0  0  0  0  0  0  0  0  0  0  0
    6.8809   -4.9537   -0.6291 C   0  0  0  0  0  0  0  0  0  0  0  0
    5.4922   -4.9355   -0.4676 C   0  0  0  0  0  0  0  0  0  0  0  0
    2.6255   -3.1088    0.4328 C   0  0  0  0  0  0  0  0  0  0  0  0
    3.2005   -2.1758    1.7194 S   0  0  0  0  0  0  0  0  0  0  0  0
    1.6610   -1.5353    2.0120 C   0  0  0  0  0  0  0  0  0  0  0  0
    1.2769   -0.2895    2.4157 C   0  0  0  0  0  0  0  0  0  0  0  0
    2.0686    0.7558    2.9175 C   0  0  0  0  0  0  0  0  0  0  0  0
    1.5686    2.0867    2.8653 C   0  0  0  0  0  0  0  0  0  0  0  0
    2.3746    3.0715    3.3339 N   0  0  0  0  0  0  0  0  0  0  0  0
    3.6946    2.1673    3.7628 S   0  0  0  0  0  0  0  0  0  0  0  0
    3.3258    0.5934    3.4046 N   0  0  0  0  0  0  0  0  0  0  0  0
    0.2922    2.2968    2.3404 C   0  0  0  0  0  0  0  0  0  0  0  0
   -0.4899    3.4087    2.3042 C   0  0  0  0  0  0  0  0  0  0  0  0
   -0.4079    5.0239    2.8048 S   0  0  0  0  0  0  0  0  0  0  0  0
   -2.0808    5.2052    2.5293 C   0  0  0  0  0  0  0  0  0  0  0  0
   -2.9581    6.2719    2.7117 C   0  0  0  0  0  0  0  0  0  0  0  0
   -2.5264    7.6433    3.0633 C   0  0  0  0  0  0  0  0  0  0  0  0
   -1.4738    8.2476    2.3563 C   0  0  0  0  0  0  0  0  0  0  0  0
   -1.0451    9.5336    2.6893 C   0  0  0  0  0  0  0  0  0  0  0  0
   -1.6607   10.2380    3.7359 C   0  0  0  0  0  0  0  0  0  0  0  0
   -1.2089   11.6317    4.0760 C   0  0  0  0  0  0  0  0  0  0  0  0
   -1.8342   12.6521    3.1302 C   0  0  0  0  0  0  0  0  0  0  0  0
   -2.7239    9.6422    4.4330 C   0  0  0  0  0  0  0  0  0  0  0  0
   -3.1473    8.3509    4.1037 C   0  0  0  0  0  0  0  0  0  0  0  0
   -4.2822    5.8637    2.4709 C   0  0  0  0  0  0  0  0  0  0  0  0
   -4.3263    4.2221    2.0058 S   0  0  0  0  0  0  0  0  0  0  0  0
   -2.6638    4.0283    2.1249 C   0  0  0  0  0  0  0  0  0  0  0  0
   -1.7378    3.0094    1.9566 C   0  0  0  0  0  0  0  0  0  0  0  0
   -1.8155    1.6761    1.7128 N   0  0  0  0  0  0  0  0  0  0  0  0
   -0.5229    1.2479    1.8949 C   0  0  0  0  0  0  0  0  0  0  0  0
    0.0244   -0.0618    1.8263 C   0  0  0  0  0  0  0  0  0  0  0  0
   -0.2972   -1.0847    0.9640 N   0  0  0  0  0  0  0  0  0  0  0  0
    0.7257   -1.9752    1.1127 C   0  0  0  0  0  0  0  0  0  0  0  0
    1.2866   -2.8914    0.2115 C   0  0  0  0  0  0  0  0  0  0  0  0
    0.8819   -3.5009   -1.3062 S   0  0  0  0  0  0  0  0  0  0  0  0
   -1.1119   -0.9702   -0.2495 C   0  0  0  0  0  0  0  0  0  0  0  0
   -2.1909   -2.0504   -0.3007 C   0  0  0  0  0  0  0  0  0  0  0  0
   -3.0362    0.8681    1.8164 C   0  0  0  0  0  0  0  0  0  0  0  0
   -3.9434    1.0413    0.5958 C   0  0  0  0  0  0  0  0  0  0  0  0
   -5.4553    6.7440    2.4867 C   0  0  0  0  0  0  0  0  0  0  0  0
   -6.2815    6.8284    3.5422 C   0  0  0  0  0  0  0  0  0  0  0  0
   -6.1140    6.1453    4.8277 C   0  0  0  0  0  0  0  0  0  0  0  0
   -5.4131    5.1186    5.0363 O   0  0  0  0  0  0  0  0  0  0  0  0
   -6.8284    6.9089    5.8421 C   0  0  0  0  0  0  0  0  0  0  0  0
   -6.8033    6.7570    7.2331 C   0  0  0  0  0  0  0  0  0  0  0  0
   -6.0379    5.3520    7.9726 Cl  0  0  0  0  0  0  0  0  0  0  0  0
   -7.3901    7.7621    8.0269 C   0  0  0  0  0  0  0  0  0  0  0  0
   -7.4110    7.5920    9.7821 Cl  0  0  0  0  0  0  0  0  0  0  0  0
   -7.8993    8.9349    7.4231 C   0  0  0  0  0  0  0  0  0  0  0  0
   -8.4957   10.2537    8.4319 Cl  0  0  0  0  0  0  0  0  0  0  0  0
   -7.8870    9.0759    6.0181 C   0  0  0  0  0  0  0  0  0  0  0  0
   -8.2034   10.6574    5.2995 Cl  0  0  0  0  0  0  0  0  0  0  0  0
   -7.4469    7.9914    5.2353 C   0  0  0  0  0  0  0  0  0  0  0  0
   -7.3104    7.8737    3.7581 C   0  0  0  0  0  0  0  0  0  0  0  0
   -8.2313    8.2489    2.8356 C   0  0  0  0  0  0  0  0  0  0  0  0
   -8.1228    7.8582    1.4536 C   0  0  0  0  0  0  0  0  0  0  0  0
   -8.0429    7.5456    0.3419 N   0  0  0  0  0  0  0  0  0  0  0  0
   -9.4898    8.8387    3.2114 C   0  0  0  0  0  0  0  0  0  0  0  0
  -10.5062    9.3046    3.5069 N   0  0  0  0  0  0  0  0  0  0  0  0
    3.7049   -3.7857   -3.3840 H   0  0  0  0  0  0  0  0  0  0  0  0
    2.7219   -6.3015   -7.9600 H   0  0  0  0  0  0  0  0  0  0  0  0
   -0.0905   -8.8671   -4.5725 H   0  0  0  0  0  0  0  0  0  0  0  0
   -0.8342   -9.7830   -7.8411 H   0  0  0  0  0  0  0  0  0  0  0  0
    0.8017  -11.6459   -6.5805 H   0  0  0  0  0  0  0  0  0  0  0  0
    0.3189  -12.6948   -8.9725 H   0  0  0  0  0  0  0  0  0  0  0  0
    1.6934  -11.3627  -10.7445 H   0  0  0  0  0  0  0  0  0  0  0  0
    3.0574   -9.4653   -9.4867 H   0  0  0  0  0  0  0  0  0  0  0  0
    2.8603   -9.9525   -6.8606 H   0  0  0  0  0  0  0  0  0  0  0  0
    3.1781  -11.4879   -7.7640 H   0  0  0  0  0  0  0  0  0  0  0  0
    0.4356   -8.5507   -9.4566 H   0  0  0  0  0  0  0  0  0  0  0  0
    4.8986   -1.6916   -1.3275 H   0  0  0  0  0  0  0  0  0  0  0  0
    7.3404   -1.7248   -1.6278 H   0  0  0  0  0  0  0  0  0  0  0  0
    9.5371   -4.4990   -0.5443 H   0  0  0  0  0  0  0  0  0  0  0  0
    9.4821   -2.8187   -1.1704 H   0  0  0  0  0  0  0  0  0  0  0  0
   10.4270   -4.3077   -2.8873 H   0  0  0  0  0  0  0  0  0  0  0  0
    8.9951   -5.4011   -2.7940 H   0  0  0  0  0  0  0  0  0  0  0  0
    8.8145   -3.7238   -3.4496 H   0  0  0  0  0  0  0  0  0  0  0  0
    7.4226   -5.8740   -0.4521 H   0  0  0  0  0  0  0  0  0  0  0  0
    4.9790   -5.8386   -0.1628 H   0  0  0  0  0  0  0  0  0  0  0  0
   -0.9911    7.7264    1.5389 H   0  0  0  0  0  0  0  0  0  0  0  0
   -0.2346    9.9846    2.1279 H   0  0  0  0  0  0  0  0  0  0  0  0
   -0.1016   11.6964    4.0074 H   0  0  0  0  0  0  0  0  0  0  0  0
   -1.4916   11.8836    5.1224 H   0  0  0  0  0  0  0  0  0  0  0  0
   -2.9426   12.6010    3.1841 H   0  0  0  0  0  0  0  0  0  0  0  0
   -1.5110   13.6721    3.4217 H   0  0  0  0  0  0  0  0  0  0  0  0
   -1.5081   12.4609    2.0860 H   0  0  0  0  0  0  0  0  0  0  0  0
   -3.2200   10.1722    5.2364 H   0  0  0  0  0  0  0  0  0  0  0  0
   -3.9402    7.8993    4.6821 H   0  0  0  0  0  0  0  0  0  0  0  0
   -1.5821    0.0248   -0.3184 H   0  0  0  0  0  0  0  0  0  0  0  0
   -0.4656   -1.0456   -1.1487 H   0  0  0  0  0  0  0  0  0  0  0  0
   -2.8680   -1.9797    0.5729 H   0  0  0  0  0  0  0  0  0  0  0  0
   -1.7367   -3.0614   -0.3011 H   0  0  0  0  0  0  0  0  0  0  0  0
   -2.7888   -1.9287   -1.2268 H   0  0  0  0  0  0  0  0  0  0  0  0
   -3.5900    1.1558    2.7339 H   0  0  0  0  0  0  0  0  0  0  0  0
   -2.7736   -0.1980    1.9512 H   0  0  0  0  0  0  0  0  0  0  0  0
   -3.3868    1.4593   -0.2686 H   0  0  0  0  0  0  0  0  0  0  0  0
   -4.3708    0.0611    0.3010 H   0  0  0  0  0  0  0  0  0  0  0  0
   -4.7898    1.7178    0.8298 H   0  0  0  0  0  0  0  0  0  0  0  0
   -5.5451    7.4528    1.6743 H   0  0  0  0  0  0  0  0  0  0  0  0
  1  2  2  3
  2  3  1  0
  3  4  2  0
  3  5  1  0
  5  6  2  0
  6  7  1  0
  7  8  2  0
  8  9  1  0
  9 10  2  0
 10 11  1  0
 11 12  2  3
 12 13  1  0
 13 14  3  0
 12 15  1  0
 15 16  3  0
  8 17  1  0
 17 18  1  0
 18 19  1  0
 19 20  2  0
 20 21  1  0
 21 22  1  0
 21 23  1  0
  1 24  1  0
 24 25  2  0
 25 26  1  0
 26 27  2  0
 27 28  1  0
 28 29  2  0
 29 30  1  0
 30 31  1  0
 29 32  1  0
 32 33  2  0
 25 34  1  0
 34 35  1  0
 35 36  1  0
 36 37  1  0
 37 38  1  0
 38 39  1  0
 39 40  2  0
 40 41  1  0
 41 42  1  0
 39 43  1  0
 43 44  1  0
 44 45  1  0
 45 46  1  0
 46 47  1  0
 47 48  1  0
 48 49  2  0
 49 50  1  0
 50 51  2  0
 51 52  1  0
 52 53  1  0
 51 54  1  0
 54 55  2  0
 47 56  2  0
 56 57  1  0
 57 58  1  0
 58 59  1  0
 59 60  1  0
 60 61  1  0
 61 62  1  0
 62 63  1  0
 63 64  1  0
 64 65  1  0
 65 66  1  0
 63 67  1  0
 67 68  1  0
 60 69  1  0
 69 70  1  0
 56 71  1  0
 71 72  2  3
 72 73  1  0
 73 74  2  0
 73 75  1  0
 75 76  2  0
 76 77  1  0
 76 78  1  0
 78 79  1  0
 78 80  2  0
 80 81  1  0
 80 82  1  0
 82 83  1  0
 82 84  2  0
 84 85  1  0
 85 86  2  3
 86 87  1  0
 87 88  3  0
 86 89  1  0
 89 90  3  0
 11  2  1  0
 23 17  1  0
 66 24  1  0
 85 72  1  0
 10  5  1  0
 22 18  1  0
 33 26  1  0
 65 34  2  0
 84 75  1  0
 23  7  1  0
 64 36  2  0
 62 37  2  0
 42 38  2  0
 61 43  2  0
 59 44  2  0
 58 46  2  0
 55 48  1  0
  1 91  1  0
  6 92  1  0
  9 93  1  0
 17 94  1  0
 18 95  1  0
 19 96  1  0
 20 97  1  0
 21 98  1  0
 22 99  1  0
 22100  1  0
 23101  1  0
 27102  1  0
 28103  1  0
 30104  1  0
 30105  1  0
 31106  1  0
 31107  1  0
 31108  1  0
 32109  1  0
 33110  1  0
 49111  1  0
 50112  1  0
 52113  1  0
 52114  1  0
 53115  1  0
 53116  1  0
 53117  1  0
 54118  1  0
 55119  1  0
 67120  1  0
 67121  1  0
 68122  1  0
 68123  1  0
 68124  1  0
 69125  1  0
 69126  1  0
 70127  1  0
 70128  1  0
 70129  1  0
 71130  1  0
M  END

