
     RDKit          3D

102114  0  0  0  0  0  0  0  0999 V2000
    1.1897    4.9889    2.9140 C   0  0  0  0  0  0  0  0  0  0  0  0
    0.3452    5.5841    2.0507 C   0  0  0  0  0  0  0  0  0  0  0  0
   -0.3133    4.9324    0.9143 C   0  0  0  0  0  0  0  0  0  0  0  0
   -0.5204    3.6968    0.7827 O   0  0  0  0  0  0  0  0  0  0  0  0
   -0.6999    5.9508   -0.0405 C   0  0  0  0  0  0  0  0  0  0  0  0
   -1.1913    5.7537   -1.3533 C   0  0  0  0  0  0  0  0  0  0  0  0
   -1.3430    6.9240   -2.0760 C   0  0  0  0  0  0  0  0  0  0  0  0
   -1.0380    8.2170   -1.5414 C   0  0  0  0  0  0  0  0  0  0  0  0
   -0.5546    8.4172   -0.2602 C   0  0  0  0  0  0  0  0  0  0  0  0
   -0.3945    7.2270    0.5032 C   0  0  0  0  0  0  0  0  0  0  0  0
    0.1474    7.0544    1.8801 C   0  0  0  0  0  0  0  0  0  0  0  0
    0.1925    7.9940    2.8618 C   0  0  0  0  0  0  0  0  0  0  0  0
    0.4485    7.6557    4.2368 C   0  0  0  0  0  0  0  0  0  0  0  0
    0.6452    7.3873    5.3460 N   0  0  0  0  0  0  0  0  0  0  0  0
   -0.1684    9.3668    2.6362 C   0  0  0  0  0  0  0  0  0  0  0  0
   -0.4519   10.4774    2.4633 N   0  0  0  0  0  0  0  0  0  0  0  0
   -1.4366    8.8621   -2.8344 C   0  0  0  0  0  0  0  0  0  0  0  0
   -2.8075    9.6050   -2.8903 C   0  0  0  0  0  0  0  0  0  0  0  0
   -3.7934    8.9539   -1.9439 C   0  0  0  0  0  0  0  0  0  0  0  0
   -4.0649    7.7499   -2.4508 C   0  0  0  0  0  0  0  0  0  0  0  0
   -3.2585    7.6225   -3.7245 C   0  0  0  0  0  0  0  0  0  0  0  0
   -3.3417    9.0604   -4.2038 C   0  0  0  0  0  0  0  0  0  0  0  0
   -1.7388    7.5380   -3.3868 C   0  0  0  0  0  0  0  0  0  0  0  0
    1.4467    3.5435    2.9285 C   0  0  0  0  0  0  0  0  0  0  0  0
    0.7849    2.5300    4.1288 S   0  0  0  0  0  0  0  0  0  0  0  0
    1.4443    1.1675    3.4342 C   0  0  0  0  0  0  0  0  0  0  0  0
    1.4752   -0.1738    3.6555 C   0  0  0  0  0  0  0  0  0  0  0  0
    0.9821   -0.9663    4.6941 C   0  0  0  0  0  0  0  0  0  0  0  0
    1.2188   -2.3709    4.6483 C   0  0  0  0  0  0  0  0  0  0  0  0
    0.6994   -3.1117    5.6598 N   0  0  0  0  0  0  0  0  0  0  0  0
   -0.0180   -1.9131    6.5498 S   0  0  0  0  0  0  0  0  0  0  0  0
    0.2724   -0.4930    5.7480 N   0  0  0  0  0  0  0  0  0  0  0  0
    1.9002   -2.9078    3.5436 C   0  0  0  0  0  0  0  0  0  0  0  0
    1.9254   -4.1959    3.0858 C   0  0  0  0  0  0  0  0  0  0  0  0
    1.0595   -5.5995    3.4990 S   0  0  0  0  0  0  0  0  0  0  0  0
    1.1324   -6.1695    1.9019 C   0  0  0  0  0  0  0  0  0  0  0  0
    0.5051   -7.2318    1.2500 C   0  0  0  0  0  0  0  0  0  0  0  0
   -0.2053   -8.3460    1.9669 C   0  0  0  0  0  0  0  0  0  0  0  0
    0.7783   -9.4359    2.3726 C   0  0  0  0  0  0  0  0  0  0  0  0
    0.6719   -7.1266   -0.1446 C   0  0  0  0  0  0  0  0  0  0  0  0
    1.5755   -5.7322   -0.5204 S   0  0  0  0  0  0  0  0  0  0  0  0
    1.7661   -5.2690    1.0818 C   0  0  0  0  0  0  0  0  0  0  0  0
    2.2322   -4.1385    1.7581 C   0  0  0  0  0  0  0  0  0  0  0  0
    2.4838   -2.8688    1.3340 N   0  0  0  0  0  0  0  0  0  0  0  0
    2.3279   -2.1075    2.4684 C   0  0  0  0  0  0  0  0  0  0  0  0
    2.2033   -0.6976    2.5875 C   0  0  0  0  0  0  0  0  0  0  0  0
    2.7346    0.3002    1.8126 N   0  0  0  0  0  0  0  0  0  0  0  0
    2.1816    1.4384    2.3325 C   0  0  0  0  0  0  0  0  0  0  0  0
    2.2316    2.8109    2.0001 C   0  0  0  0  0  0  0  0  0  0  0  0
    2.8518    3.4106    0.7536 C   0  0  0  0  0  0  0  0  0  0  0  0
    3.8349    4.5383    1.0618 C   0  0  0  0  0  0  0  0  0  0  0  0
    4.0167    0.1897    1.0960 C   0  0  0  0  0  0  0  0  0  0  0  0
    5.1466    0.8665    1.8644 C   0  0  0  0  0  0  0  0  0  0  0  0
    2.3622   -2.4287   -0.0647 C   0  0  0  0  0  0  0  0  0  0  0  0
    3.5634   -2.8834   -0.8990 C   0  0  0  0  0  0  0  0  0  0  0  0
    0.1198   -8.0323   -1.1630 C   0  0  0  0  0  0  0  0  0  0  0  0
   -1.1925   -8.1824   -1.3998 C   0  0  0  0  0  0  0  0  0  0  0  0
   -1.7918   -9.3629   -2.6194 S   0  0  0  0  0  0  0  0  0  0  0  0
   -3.4657   -8.9309   -2.1282 C   0  0  0  0  0  0  0  0  0  0  0  0
   -4.4771   -9.4816   -2.6420 O   0  0  0  0  0  0  0  0  0  0  0  0
   -3.5801   -7.9234   -1.1270 N   0  0  0  0  0  0  0  0  0  0  0  0
   -4.8405   -7.3353   -0.6746 C   0  0  0  0  0  0  0  0  0  0  0  0
   -5.1967   -6.1189   -1.5201 C   0  0  0  0  0  0  0  0  0  0  0  0
   -2.2909   -7.4589   -0.7444 C   0  0  0  0  0  0  0  0  0  0  0  0
   -2.1342   -6.4909    0.0452 O   0  0  0  0  0  0  0  0  0  0  0  0
    1.7498    5.5722    3.6252 H   0  0  0  0  0  0  0  0  0  0  0  0
   -1.3905    4.7791   -1.7700 H   0  0  0  0  0  0  0  0  0  0  0  0
   -0.2859    9.4052    0.0757 H   0  0  0  0  0  0  0  0  0  0  0  0
   -0.6041    9.3833   -3.3578 H   0  0  0  0  0  0  0  0  0  0  0  0
   -2.7485   10.7110   -2.8151 H   0  0  0  0  0  0  0  0  0  0  0  0
   -4.2615    9.3957   -1.0700 H   0  0  0  0  0  0  0  0  0  0  0  0
   -4.7963    7.0469   -2.0620 H   0  0  0  0  0  0  0  0  0  0  0  0
   -3.6317    6.8614   -4.4422 H   0  0  0  0  0  0  0  0  0  0  0  0
   -4.3861    9.3971   -4.4286 H   0  0  0  0  0  0  0  0  0  0  0  0
   -2.6807    9.2831   -5.0748 H   0  0  0  0  0  0  0  0  0  0  0  0
   -1.0822    7.2496   -4.2382 H   0  0  0  0  0  0  0  0  0  0  0  0
   -0.9889   -8.7914    1.3244 H   0  0  0  0  0  0  0  0  0  0  0  0
   -0.7105   -7.9428    2.8696 H   0  0  0  0  0  0  0  0  0  0  0  0
    0.2331  -10.2372    2.9110 H   0  0  0  0  0  0  0  0  0  0  0  0
    1.2592   -9.8724    1.4712 H   0  0  0  0  0  0  0  0  0  0  0  0
    1.5616   -9.0250    3.0455 H   0  0  0  0  0  0  0  0  0  0  0  0
    3.3826    2.6455    0.1683 H   0  0  0  0  0  0  0  0  0  0  0  0
    2.0584    3.8005    0.0855 H   0  0  0  0  0  0  0  0  0  0  0  0
    4.5329    4.2523    1.8734 H   0  0  0  0  0  0  0  0  0  0  0  0
    3.2979    5.4633    1.3540 H   0  0  0  0  0  0  0  0  0  0  0  0
    4.4267    4.7703    0.1536 H   0  0  0  0  0  0  0  0  0  0  0  0
    3.9343    0.5738    0.0593 H   0  0  0  0  0  0  0  0  0  0  0  0
    4.3152   -0.8725    1.0256 H   0  0  0  0  0  0  0  0  0  0  0  0
    4.9687    1.9514    1.9511 H   0  0  0  0  0  0  0  0  0  0  0  0
    5.2280    0.4300    2.8815 H   0  0  0  0  0  0  0  0  0  0  0  0
    6.1063    0.7156    1.3264 H   0  0  0  0  0  0  0  0  0  0  0  0
    2.2518   -1.3311   -0.1400 H   0  0  0  0  0  0  0  0  0  0  0  0
    1.4283   -2.8433   -0.5020 H   0  0  0  0  0  0  0  0  0  0  0  0
    3.3639   -2.6808   -1.9706 H   0  0  0  0  0  0  0  0  0  0  0  0
    4.4888   -2.3463   -0.6141 H   0  0  0  0  0  0  0  0  0  0  0  0
    3.7488   -3.9666   -0.7748 H   0  0  0  0  0  0  0  0  0  0  0  0
    0.8228   -8.5717   -1.7841 H   0  0  0  0  0  0  0  0  0  0  0  0
   -4.7538   -7.0329    0.3928 H   0  0  0  0  0  0  0  0  0  0  0  0
   -5.6558   -8.0868   -0.7462 H   0  0  0  0  0  0  0  0  0  0  0  0
   -6.1663   -5.7029   -1.1783 H   0  0  0  0  0  0  0  0  0  0  0  0
   -5.2793   -6.4060   -2.5904 H   0  0  0  0  0  0  0  0  0  0  0  0
   -4.4160   -5.3374   -1.4132 H   0  0  0  0  0  0  0  0  0  0  0  0
  1  2  2  3
  2  3  1  0
  3  4  2  0
  3  5  1  0
  5  6  2  0
  6  7  1  0
  7  8  2  0
  8  9  1  0
  9 10  2  0
 10 11  1  0
 11 12  2  3
 12 13  1  0
 13 14  3  0
 12 15  1  0
 15 16  3  0
  8 17  1  0
 17 18  1  0
 18 19  1  0
 19 20  2  0
 20 21  1  0
 21 22  1  0
 21 23  1  0
  1 24  1  0
 24 25  1  0
 25 26  1  0
 26 27  1  0
 27 28  1  0
 28 29  1  0
 29 30  2  0
 30 31  1  0
 31 32  1  0
 29 33  1  0
 33 34  1  0
 34 35  1  0
 35 36  1  0
 36 37  1  0
 37 38  1  0
 38 39  1  0
 37 40  2  0
 40 41  1  0
 41 42  1  0
 42 43  1  0
 43 44  1  0
 44 45  1  0
 45 46  1  0
 46 47  1  0
 47 48  1  0
 48 49  1  0
 49 50  1  0
 50 51  1  0
 47 52  1  0
 52 53  1  0
 44 54  1  0
 54 55  1  0
 40 56  1  0
 56 57  2  3
 57 58  1  0
 58 59  1  0
 59 60  2  0
 59 61  1  0
 61 62  1  0
 62 63  1  0
 61 64  1  0
 64 65  2  0
 11  2  1  0
 23 17  1  0
 49 24  2  0
 64 57  1  0
 10  5  1  0
 22 18  1  0
 48 26  2  0
 23  7  1  0
 46 27  2  0
 32 28  2  0
 45 33  2  0
 43 34  2  0
 42 36  2  0
  1 66  1  0
  6 67  1  0
  9 68  1  0
 17 69  1  0
 18 70  1  0
 19 71  1  0
 20 72  1  0
 21 73  1  0
 22 74  1  0
 22 75  1  0
 23 76  1  0
 38 77  1  0
 38 78  1  0
 39 79  1  0
 39 80  1  0
 39 81  1  0
 50 82  1  0
 50 83  1  0
 51 84  1  0
 51 85  1  0
 51 86  1  0
 52 87  1  0
 52 88  1  0
 53 89  1  0
 53 90  1  0
 53 91  1  0
 54 92  1  0
 54 93  1  0
 55 94  1  0
 55 95  1  0
 55 96  1  0
 56 97  1  0
 62 98  1  0
 62 99  1  0
 63100  1  0
 63101  1  0
 63102  1  0
M  END

