
     RDKit          3D

107121  0  0  0  0  0  0  0  0999 V2000
    0.2244   -2.6626   -3.7653 C   0  0  0  0  0  0  0  0  0  0  0  0
   -0.2150   -3.0522   -4.9728 C   0  0  0  0  0  0  0  0  0  0  0  0
   -1.5130   -2.6995   -5.5621 C   0  0  0  0  0  0  0  0  0  0  0  0
   -2.5106   -2.2281   -4.9506 O   0  0  0  0  0  0  0  0  0  0  0  0
   -1.4380   -2.9124   -6.9921 C   0  0  0  0  0  0  0  0  0  0  0  0
   -2.4101   -2.5642   -7.9585 C   0  0  0  0  0  0  0  0  0  0  0  0
   -1.9985   -2.7544   -9.2631 C   0  0  0  0  0  0  0  0  0  0  0  0
   -0.7000   -3.2495   -9.6039 C   0  0  0  0  0  0  0  0  0  0  0  0
    0.2589   -3.5934   -8.6649 C   0  0  0  0  0  0  0  0  0  0  0  0
   -0.1577   -3.4336   -7.3151 C   0  0  0  0  0  0  0  0  0  0  0  0
    0.6050   -3.6645   -6.0591 C   0  0  0  0  0  0  0  0  0  0  0  0
    1.6811   -4.4775   -5.9008 C   0  0  0  0  0  0  0  0  0  0  0  0
    2.1821   -4.8470   -4.6016 C   0  0  0  0  0  0  0  0  0  0  0  0
    2.5897   -5.1511   -3.5620 N   0  0  0  0  0  0  0  0  0  0  0  0
    2.2956   -5.1707   -7.0031 C   0  0  0  0  0  0  0  0  0  0  0  0
    2.8011   -5.7324   -7.8822 N   0  0  0  0  0  0  0  0  0  0  0  0
   -1.0210   -3.1348  -11.0642 C   0  0  0  0  0  0  0  0  0  0  0  0
   -1.3104   -4.4459  -11.8545 C   0  0  0  0  0  0  0  0  0  0  0  0
   -1.9174   -5.4791  -10.9340 C   0  0  0  0  0  0  0  0  0  0  0  0
   -3.1305   -5.0320  -10.6068 C   0  0  0  0  0  0  0  0  0  0  0  0
   -3.3116   -3.7104  -11.3202 C   0  0  0  0  0  0  0  0  0  0  0  0
   -2.5613   -4.0252  -12.6036 C   0  0  0  0  0  0  0  0  0  0  0  0
   -2.3549   -2.6398  -10.7149 C   0  0  0  0  0  0  0  0  0  0  0  0
   -0.6334   -2.0022   -2.7773 C   0  0  0  0  0  0  0  0  0  0  0  0
   -1.4241   -2.6636   -1.8180 C   0  0  0  0  0  0  0  0  0  0  0  0
   -1.5245   -4.1554   -1.6668 C   0  0  0  0  0  0  0  0  0  0  0  0
   -0.3772   -4.6855   -0.8115 C   0  0  0  0  0  0  0  0  0  0  0  0
   -1.9456   -1.7508   -0.9013 C   0  0  0  0  0  0  0  0  0  0  0  0
   -1.5829   -0.4488   -1.1280 C   0  0  0  0  0  0  0  0  0  0  0  0
   -0.5737   -0.3284   -2.4563 S   0  0  0  0  0  0  0  0  0  0  0  0
   -1.9740    0.3917   -0.1056 C   0  0  0  0  0  0  0  0  0  0  0  0
   -2.6438   -0.2565    0.8773 C   0  0  0  0  0  0  0  0  0  0  0  0
   -2.7917   -1.9220    0.5787 S   0  0  0  0  0  0  0  0  0  0  0  0
   -2.9323    0.6727    1.8374 C   0  0  0  0  0  0  0  0  0  0  0  0
   -3.6484    0.6041    3.0358 C   0  0  0  0  0  0  0  0  0  0  0  0
   -4.2441   -0.5189    3.5088 N   0  0  0  0  0  0  0  0  0  0  0  0
   -4.8682    0.0781    4.9240 S   0  0  0  0  0  0  0  0  0  0  0  0
   -4.4416    1.6782    4.9981 N   0  0  0  0  0  0  0  0  0  0  0  0
   -3.7637    1.7886    3.8277 C   0  0  0  0  0  0  0  0  0  0  0  0
   -3.1135    2.9592    3.3985 C   0  0  0  0  0  0  0  0  0  0  0  0
   -2.7665    4.0818    4.0993 C   0  0  0  0  0  0  0  0  0  0  0  0
   -2.7933    4.5127    5.7440 S   0  0  0  0  0  0  0  0  0  0  0  0
   -1.4810    5.5695    5.5300 C   0  0  0  0  0  0  0  0  0  0  0  0
   -0.6609    6.2353    6.4391 C   0  0  0  0  0  0  0  0  0  0  0  0
    0.4810    6.7326    5.7976 C   0  0  0  0  0  0  0  0  0  0  0  0
    0.4637    6.3207    4.1450 S   0  0  0  0  0  0  0  0  0  0  0  0
   -1.0143    5.5340    4.2400 C   0  0  0  0  0  0  0  0  0  0  0  0
   -1.7430    4.6775    3.4200 C   0  0  0  0  0  0  0  0  0  0  0  0
   -1.3951    3.9930    2.2970 N   0  0  0  0  0  0  0  0  0  0  0  0
   -0.0095    3.9101    1.7986 C   0  0  0  0  0  0  0  0  0  0  0  0
    0.8316    2.9904    2.6865 C   0  0  0  0  0  0  0  0  0  0  0  0
   -2.3254    2.9869    2.2374 C   0  0  0  0  0  0  0  0  0  0  0  0
   -2.3345    1.8588    1.3887 C   0  0  0  0  0  0  0  0  0  0  0  0
   -1.8048    1.7119    0.1369 N   0  0  0  0  0  0  0  0  0  0  0  0
   -1.7118    2.7429   -0.9100 C   0  0  0  0  0  0  0  0  0  0  0  0
   -2.9374    2.7079   -1.8245 C   0  0  0  0  0  0  0  0  0  0  0  0
    1.6594    7.2732    6.4825 C   0  0  0  0  0  0  0  0  0  0  0  0
    2.7676    6.5485    6.6985 C   0  0  0  0  0  0  0  0  0  0  0  0
    4.1964    7.1730    7.3169 S   0  0  0  0  0  0  0  0  0  0  0  0
    5.0486    5.7090    7.2424 C   0  0  0  0  0  0  0  0  0  0  0  0
    6.3611    5.5923    7.5645 C   0  0  0  0  0  0  0  0  0  0  0  0
    7.1339    4.3938    7.3473 C   0  0  0  0  0  0  0  0  0  0  0  0
    7.7674    3.4429    7.1626 N   0  0  0  0  0  0  0  0  0  0  0  0
    7.0956    6.7286    8.0664 C   0  0  0  0  0  0  0  0  0  0  0  0
    7.6871    7.6381    8.4722 N   0  0  0  0  0  0  0  0  0  0  0  0
    4.2241    4.7183    6.7676 N   0  0  0  0  0  0  0  0  0  0  0  0
    4.5392    3.3198    6.6548 C   0  0  0  0  0  0  0  0  0  0  0  0
    4.6376    2.5254    7.8084 C   0  0  0  0  0  0  0  0  0  0  0  0
    4.8939    1.1563    7.6956 C   0  0  0  0  0  0  0  0  0  0  0  0
    5.0442    0.5718    6.4336 C   0  0  0  0  0  0  0  0  0  0  0  0
    4.9322    1.3579    5.2805 C   0  0  0  0  0  0  0  0  0  0  0  0
    4.6758    2.7282    5.3881 C   0  0  0  0  0  0  0  0  0  0  0  0
    2.9715    5.1805    6.4746 C   0  0  0  0  0  0  0  0  0  0  0  0
    2.0554    4.4057    6.0800 O   0  0  0  0  0  0  0  0  0  0  0  0
    1.2644   -2.7664   -3.4976 H   0  0  0  0  0  0  0  0  0  0  0  0
   -3.3764   -2.1496   -7.7051 H   0  0  0  0  0  0  0  0  0  0  0  0
    1.2461   -3.9073   -8.9685 H   0  0  0  0  0  0  0  0  0  0  0  0
   -0.4002   -2.3848  -11.6056 H   0  0  0  0  0  0  0  0  0  0  0  0
   -0.4722   -4.8142  -12.4840 H   0  0  0  0  0  0  0  0  0  0  0  0
   -1.4950   -6.4312  -10.6383 H   0  0  0  0  0  0  0  0  0  0  0  0
   -3.8654   -5.5529  -10.0040 H   0  0  0  0  0  0  0  0  0  0  0  0
   -4.3638   -3.3822  -11.4521 H   0  0  0  0  0  0  0  0  0  0  0  0
   -2.4116   -3.1380  -13.2642 H   0  0  0  0  0  0  0  0  0  0  0  0
   -3.0205   -4.8517  -13.1936 H   0  0  0  0  0  0  0  0  0  0  0  0
   -2.5456   -1.5952  -11.0509 H   0  0  0  0  0  0  0  0  0  0  0  0
   -2.4918   -4.4282   -1.1913 H   0  0  0  0  0  0  0  0  0  0  0  0
   -1.4850   -4.6382   -2.6666 H   0  0  0  0  0  0  0  0  0  0  0  0
    0.6017   -4.4542   -1.2891 H   0  0  0  0  0  0  0  0  0  0  0  0
   -0.4020   -4.2258    0.2031 H   0  0  0  0  0  0  0  0  0  0  0  0
   -0.4647   -5.7873   -0.7034 H   0  0  0  0  0  0  0  0  0  0  0  0
   -0.8233    6.2575    7.5093 H   0  0  0  0  0  0  0  0  0  0  0  0
    0.0432    3.5157    0.7756 H   0  0  0  0  0  0  0  0  0  0  0  0
    0.4464    4.9198    1.7639 H   0  0  0  0  0  0  0  0  0  0  0  0
    0.4072    1.9657    2.6786 H   0  0  0  0  0  0  0  0  0  0  0  0
    0.8502    3.3603    3.7322 H   0  0  0  0  0  0  0  0  0  0  0  0
    1.8723    2.9475    2.3102 H   0  0  0  0  0  0  0  0  0  0  0  0
   -1.6795    3.7602   -0.4677 H   0  0  0  0  0  0  0  0  0  0  0  0
   -0.7929    2.5862   -1.5121 H   0  0  0  0  0  0  0  0  0  0  0  0
   -3.0479    1.7126   -2.2982 H   0  0  0  0  0  0  0  0  0  0  0  0
   -2.8234    3.4620   -2.6295 H   0  0  0  0  0  0  0  0  0  0  0  0
   -3.8482    2.9403   -1.2363 H   0  0  0  0  0  0  0  0  0  0  0  0
    1.6458    8.3186    6.7721 H   0  0  0  0  0  0  0  0  0  0  0  0
    4.5186    2.9717    8.7867 H   0  0  0  0  0  0  0  0  0  0  0  0
    4.9802    0.5476    8.5858 H   0  0  0  0  0  0  0  0  0  0  0  0
    5.2380   -0.4891    6.3477 H   0  0  0  0  0  0  0  0  0  0  0  0
    5.0349    0.9042    4.3012 H   0  0  0  0  0  0  0  0  0  0  0  0
    4.5774    3.3318    4.4921 H   0  0  0  0  0  0  0  0  0  0  0  0
  1  2  2  3
  2  3  1  0
  3  4  2  0
  3  5  1  0
  5  6  2  0
  6  7  1  0
  7  8  2  0
  8  9  1  0
  9 10  2  0
 10 11  1  0
 11 12  2  3
 12 13  1  0
 13 14  3  0
 12 15  1  0
 15 16  3  0
  8 17  1  0
 17 18  1  0
 18 19  1  0
 19 20  2  0
 20 21  1  0
 21 22  1  0
 21 23  1  0
  1 24  1  0
 24 25  2  0
 25 26  1  0
 26 27  1  0
 25 28  1  0
 28 29  2  0
 29 30  1  0
 29 31  1  0
 31 32  2  0
 32 33  1  0
 32 34  1  0
 34 35  1  0
 35 36  2  0
 36 37  1  0
 37 38  1  0
 38 39  2  0
 39 40  1  0
 40 41  1  0
 41 42  1  0
 42 43  1  0
 43 44  1  0
 44 45  2  0
 45 46  1  0
 46 47  1  0
 47 48  1  0
 48 49  1  0
 49 50  1  0
 50 51  1  0
 49 52  1  0
 52 53  1  0
 53 54  1  0
 54 55  1  0
 55 56  1  0
 45 57  1  0
 57 58  2  3
 58 59  1  0
 59 60  1  0
 60 61  2  3
 61 62  1  0
 62 63  3  0
 61 64  1  0
 64 65  3  0
 60 66  1  0
 66 67  1  0
 67 68  2  0
 68 69  1  0
 69 70  2  0
 70 71  1  0
 71 72  2  0
 66 73  1  0
 73 74  2  0
 11  2  1  0
 23 17  1  0
 30 24  1  0
 54 31  1  0
 73 58  1  0
 10  5  1  0
 22 18  1  0
 33 28  1  0
 53 34  2  0
 72 67  1  0
 23  7  1  0
 39 35  1  0
 52 40  2  0
 48 41  2  0
 47 43  2  0
  1 75  1  0
  6 76  1  0
  9 77  1  0
 17 78  1  0
 18 79  1  0
 19 80  1  0
 20 81  1  0
 21 82  1  0
 22 83  1  0
 22 84  1  0
 23 85  1  0
 26 86  1  0
 26 87  1  0
 27 88  1  0
 27 89  1  0
 27 90  1  0
 44 91  1  0
 50 92  1  0
 50 93  1  0
 51 94  1  0
 51 95  1  0
 51 96  1  0
 55 97  1  0
 55 98  1  0
 56 99  1  0
 56100  1  0
 56101  1  0
 57102  1  0
 68103  1  0
 69104  1  0
 70105  1  0
 71106  1  0
 72107  1  0
M  END

