
     RDKit          3D

113127  0  0  0  0  0  0  0  0999 V2000
    1.2592   -5.2687   -5.3329 C   0  0  0  0  0  0  0  0  0  0  0  0
   -0.0716   -5.1252   -5.1680 C   0  0  0  0  0  0  0  0  0  0  0  0
   -0.7136   -4.3980   -4.0610 C   0  0  0  0  0  0  0  0  0  0  0  0
   -0.1800   -4.0767   -2.9629 O   0  0  0  0  0  0  0  0  0  0  0  0
   -2.0677   -4.0716   -4.4406 C   0  0  0  0  0  0  0  0  0  0  0  0
   -2.9709   -3.2474   -3.7330 C   0  0  0  0  0  0  0  0  0  0  0  0
   -4.1341   -2.9744   -4.4255 C   0  0  0  0  0  0  0  0  0  0  0  0
   -4.4012   -3.4766   -5.7403 C   0  0  0  0  0  0  0  0  0  0  0  0
   -3.5239   -4.2945   -6.4328 C   0  0  0  0  0  0  0  0  0  0  0  0
   -2.3288   -4.6110   -5.7254 C   0  0  0  0  0  0  0  0  0  0  0  0
   -1.1447   -5.3973   -6.1738 C   0  0  0  0  0  0  0  0  0  0  0  0
   -1.1251   -6.3353   -7.1576 C   0  0  0  0  0  0  0  0  0  0  0  0
   -2.3071   -6.7024   -7.8917 C   0  0  0  0  0  0  0  0  0  0  0  0
   -3.2503   -7.0254   -8.4736 N   0  0  0  0  0  0  0  0  0  0  0  0
    0.0262   -7.1627   -7.4150 C   0  0  0  0  0  0  0  0  0  0  0  0
    0.9435   -7.8370   -7.6266 N   0  0  0  0  0  0  0  0  0  0  0  0
   -5.7088   -2.7428   -5.7692 C   0  0  0  0  0  0  0  0  0  0  0  0
   -6.9924   -3.6000   -5.5845 C   0  0  0  0  0  0  0  0  0  0  0  0
   -8.0972   -2.6246   -5.2553 C   0  0  0  0  0  0  0  0  0  0  0  0
   -7.8473   -2.1691   -4.0218 C   0  0  0  0  0  0  0  0  0  0  0  0
   -6.5813   -2.8496   -3.5617 C   0  0  0  0  0  0  0  0  0  0  0  0
   -6.8020   -4.2080   -4.2050 C   0  0  0  0  0  0  0  0  0  0  0  0
   -5.4367   -2.2361   -4.4200 C   0  0  0  0  0  0  0  0  0  0  0  0
    2.2211   -4.7050   -4.3757 C   0  0  0  0  0  0  0  0  0  0  0  0
    2.6183   -5.4636   -2.8957 S   0  0  0  0  0  0  0  0  0  0  0  0
    3.3160   -4.0718   -2.2876 C   0  0  0  0  0  0  0  0  0  0  0  0
    3.6889   -3.5737   -1.0756 C   0  0  0  0  0  0  0  0  0  0  0  0
    3.9028   -4.1853    0.1630 C   0  0  0  0  0  0  0  0  0  0  0  0
    4.2579   -3.3669    1.2756 C   0  0  0  0  0  0  0  0  0  0  0  0
    4.4469   -3.9949    2.4621 N   0  0  0  0  0  0  0  0  0  0  0  0
    4.1708   -5.5624    1.9976 S   0  0  0  0  0  0  0  0  0  0  0  0
    3.8073   -5.5201    0.3817 N   0  0  0  0  0  0  0  0  0  0  0  0
    4.3192   -1.9770    1.0977 C   0  0  0  0  0  0  0  0  0  0  0  0
    4.3296   -0.9710    2.0206 C   0  0  0  0  0  0  0  0  0  0  0  0
    4.2276   -0.8388    3.7108 S   0  0  0  0  0  0  0  0  0  0  0  0
    3.7232    0.7865    3.5796 C   0  0  0  0  0  0  0  0  0  0  0  0
    3.3578    1.7570    4.5153 C   0  0  0  0  0  0  0  0  0  0  0  0
    3.5142    1.5932    6.0021 C   0  0  0  0  0  0  0  0  0  0  0  0
    4.8709    2.1107    6.4646 C   0  0  0  0  0  0  0  0  0  0  0  0
    2.9380    2.9370    3.8655 C   0  0  0  0  0  0  0  0  0  0  0  0
    3.0263    2.7424    2.1769 S   0  0  0  0  0  0  0  0  0  0  0  0
    3.5992    1.1694    2.2677 C   0  0  0  0  0  0  0  0  0  0  0  0
    3.9607    0.1671    1.3777 C   0  0  0  0  0  0  0  0  0  0  0  0
    3.7273   -0.0289    0.0545 N   0  0  0  0  0  0  0  0  0  0  0  0
    4.0149   -1.3615   -0.1304 C   0  0  0  0  0  0  0  0  0  0  0  0
    3.7981   -2.1904   -1.2658 C   0  0  0  0  0  0  0  0  0  0  0  0
    3.6293   -1.8628   -2.5898 N   0  0  0  0  0  0  0  0  0  0  0  0
    3.2587   -3.0425   -3.1592 C   0  0  0  0  0  0  0  0  0  0  0  0
    2.6212   -3.3501   -4.3709 C   0  0  0  0  0  0  0  0  0  0  0  0
    2.2211   -2.3647   -5.4402 C   0  0  0  0  0  0  0  0  0  0  0  0
    3.1370   -2.4862   -6.6548 C   0  0  0  0  0  0  0  0  0  0  0  0
    4.3183   -0.7881   -3.3277 C   0  0  0  0  0  0  0  0  0  0  0  0
    5.7816   -0.6473   -2.9064 C   0  0  0  0  0  0  0  0  0  0  0  0
    2.8537    0.8229   -0.7590 C   0  0  0  0  0  0  0  0  0  0  0  0
    3.6147    2.0266   -1.3108 C   0  0  0  0  0  0  0  0  0  0  0  0
    2.6580    4.2266    4.5084 C   0  0  0  0  0  0  0  0  0  0  0  0
    1.5480    4.4804    5.2252 C   0  0  0  0  0  0  0  0  0  0  0  0
    0.5022    3.5113    5.5656 C   0  0  0  0  0  0  0  0  0  0  0  0
    0.3208    2.3841    5.0274 O   0  0  0  0  0  0  0  0  0  0  0  0
   -0.2778    4.0495    6.6600 C   0  0  0  0  0  0  0  0  0  0  0  0
   -1.3212    3.4366    7.3525 C   0  0  0  0  0  0  0  0  0  0  0  0
   -1.9062    4.1226    8.4293 C   0  0  0  0  0  0  0  0  0  0  0  0
   -2.9785    3.5585    9.1326 C   0  0  0  0  0  0  0  0  0  0  0  0
   -3.5479    4.2394   10.2119 C   0  0  0  0  0  0  0  0  0  0  0  0
   -4.5924    3.6852   10.8744 F   0  0  0  0  0  0  0  0  0  0  0  0
   -3.0404    5.4799   10.6090 C   0  0  0  0  0  0  0  0  0  0  0  0
   -3.5865    6.1228   11.6700 F   0  0  0  0  0  0  0  0  0  0  0  0
   -1.9694    6.0567    9.9197 C   0  0  0  0  0  0  0  0  0  0  0  0
   -1.4000    5.3944    8.8216 C   0  0  0  0  0  0  0  0  0  0  0  0
   -0.3403    5.9851    8.0994 C   0  0  0  0  0  0  0  0  0  0  0  0
    0.1929    5.3092    6.9893 C   0  0  0  0  0  0  0  0  0  0  0  0
    1.2681    5.7058    6.0329 C   0  0  0  0  0  0  0  0  0  0  0  0
    1.6998    6.9678    5.7643 C   0  0  0  0  0  0  0  0  0  0  0  0
    1.3254    8.1037    6.5652 C   0  0  0  0  0  0  0  0  0  0  0  0
    1.0425    9.0250    7.2057 N   0  0  0  0  0  0  0  0  0  0  0  0
    2.4546    7.2852    4.5803 C   0  0  0  0  0  0  0  0  0  0  0  0
    3.0540    7.5476    3.6261 N   0  0  0  0  0  0  0  0  0  0  0  0
    1.6679   -5.6341   -6.2603 H   0  0  0  0  0  0  0  0  0  0  0  0
   -2.7555   -2.8260   -2.7602 H   0  0  0  0  0  0  0  0  0  0  0  0
   -3.7296   -4.5999   -7.4457 H   0  0  0  0  0  0  0  0  0  0  0  0
   -5.7598   -1.9570   -6.5531 H   0  0  0  0  0  0  0  0  0  0  0  0
   -7.2168   -4.3129   -6.4041 H   0  0  0  0  0  0  0  0  0  0  0  0
   -8.9680   -2.3885   -5.8549 H   0  0  0  0  0  0  0  0  0  0  0  0
   -8.4815   -1.5022   -3.4485 H   0  0  0  0  0  0  0  0  0  0  0  0
   -6.4148   -2.8523   -2.4650 H   0  0  0  0  0  0  0  0  0  0  0  0
   -5.9326   -4.8963   -4.1259 H   0  0  0  0  0  0  0  0  0  0  0  0
   -7.7088   -4.7369   -3.8229 H   0  0  0  0  0  0  0  0  0  0  0  0
   -5.3219   -1.1307   -4.3520 H   0  0  0  0  0  0  0  0  0  0  0  0
    2.7120    2.1414    6.5367 H   0  0  0  0  0  0  0  0  0  0  0  0
    3.4166    0.5211    6.2749 H   0  0  0  0  0  0  0  0  0  0  0  0
    4.9721    3.1916    6.2263 H   0  0  0  0  0  0  0  0  0  0  0  0
    5.6880    1.5500    5.9648 H   0  0  0  0  0  0  0  0  0  0  0  0
    4.9614    1.9758    7.5642 H   0  0  0  0  0  0  0  0  0  0  0  0
    2.2289   -1.3280   -5.0493 H   0  0  0  0  0  0  0  0  0  0  0  0
    1.1739   -2.5630   -5.7576 H   0  0  0  0  0  0  0  0  0  0  0  0
    4.1994   -2.3563   -6.3592 H   0  0  0  0  0  0  0  0  0  0  0  0
    2.8697   -1.7076   -7.3989 H   0  0  0  0  0  0  0  0  0  0  0  0
    3.0135   -3.4832   -7.1287 H   0  0  0  0  0  0  0  0  0  0  0  0
    3.7826    0.1698   -3.2427 H   0  0  0  0  0  0  0  0  0  0  0  0
    4.3399   -1.0174   -4.4100 H   0  0  0  0  0  0  0  0  0  0  0  0
    6.3115   -1.6138   -3.0589 H   0  0  0  0  0  0  0  0  0  0  0  0
    6.2752    0.1254   -3.5319 H   0  0  0  0  0  0  0  0  0  0  0  0
    5.8696   -0.3492   -1.8427 H   0  0  0  0  0  0  0  0  0  0  0  0
    2.3835    0.2407   -1.5725 H   0  0  0  0  0  0  0  0  0  0  0  0
    2.0036    1.1851   -0.1423 H   0  0  0  0  0  0  0  0  0  0  0  0
    4.6066    1.7315   -1.7158 H   0  0  0  0  0  0  0  0  0  0  0  0
    3.0177    2.5035   -2.1194 H   0  0  0  0  0  0  0  0  0  0  0  0
    3.7828    2.7843   -0.5131 H   0  0  0  0  0  0  0  0  0  0  0  0
    3.4325    4.9694    4.4216 H   0  0  0  0  0  0  0  0  0  0  0  0
   -1.6694    2.4555    7.0511 H   0  0  0  0  0  0  0  0  0  0  0  0
   -3.3748    2.5911    8.8484 H   0  0  0  0  0  0  0  0  0  0  0  0
   -1.5904    7.0189   10.2419 H   0  0  0  0  0  0  0  0  0  0  0  0
    0.0561    6.9332    8.4231 H   0  0  0  0  0  0  0  0  0  0  0  0
  1  2  2  3
  2  3  1  0
  3  4  2  0
  3  5  1  0
  5  6  2  0
  6  7  1  0
  7  8  2  0
  8  9  1  0
  9 10  2  0
 10 11  1  0
 11 12  2  3
 12 13  1  0
 13 14  3  0
 12 15  1  0
 15 16  3  0
  8 17  1  0
 17 18  1  0
 18 19  1  0
 19 20  2  0
 20 21  1  0
 21 22  1  0
 21 23  1  0
  1 24  1  0
 24 25  1  0
 25 26  1  0
 26 27  1  0
 27 28  1  0
 28 29  1  0
 29 30  2  0
 30 31  1  0
 31 32  1  0
 29 33  1  0
 33 34  1  0
 34 35  1  0
 35 36  1  0
 36 37  1  0
 37 38  1  0
 38 39  1  0
 37 40  2  0
 40 41  1  0
 41 42  1  0
 42 43  1  0
 43 44  1  0
 44 45  1  0
 45 46  1  0
 46 47  1  0
 47 48  1  0
 48 49  1  0
 49 50  1  0
 50 51  1  0
 47 52  1  0
 52 53  1  0
 44 54  1  0
 54 55  1  0
 40 56  1  0
 56 57  2  3
 57 58  1  0
 58 59  2  0
 58 60  1  0
 60 61  2  0
 61 62  1  0
 62 63  2  0
 63 64  1  0
 64 65  1  0
 64 66  2  0
 66 67  1  0
 66 68  1  0
 68 69  2  0
 69 70  1  0
 70 71  2  0
 71 72  1  0
 72 73  2  3
 73 74  1  0
 74 75  3  0
 73 76  1  0
 76 77  3  0
 11  2  1  0
 23 17  1  0
 49 24  2  0
 72 57  1  0
 10  5  1  0
 22 18  1  0
 48 26  2  0
 71 60  1  0
 23  7  1  0
 46 27  2  0
 69 62  1  0
 32 28  2  0
 45 33  2  0
 43 34  2  0
 42 36  2  0
  1 78  1  0
  6 79  1  0
  9 80  1  0
 17 81  1  0
 18 82  1  0
 19 83  1  0
 20 84  1  0
 21 85  1  0
 22 86  1  0
 22 87  1  0
 23 88  1  0
 38 89  1  0
 38 90  1  0
 39 91  1  0
 39 92  1  0
 39 93  1  0
 50 94  1  0
 50 95  1  0
 51 96  1  0
 51 97  1  0
 51 98  1  0
 52 99  1  0
 52100  1  0
 53101  1  0
 53102  1  0
 53103  1  0
 54104  1  0
 54105  1  0
 55106  1  0
 55107  1  0
 55108  1  0
 56109  1  0
 61110  1  0
 63111  1  0
 68112  1  0
 70113  1  0
M  END

