
     RDKit          3D

139155  0  0  0  0  0  0  0  0999 V2000
   -5.6563   -1.7515   -4.8385 C   0  0  0  0  0  0  0  0  0  0  0  0
   -6.8650   -2.1643   -4.4249 C   0  0  0  0  0  0  0  0  0  0  0  0
   -7.3574   -2.0904   -3.0419 C   0  0  0  0  0  0  0  0  0  0  0  0
   -6.6545   -1.9810   -2.0012 O   0  0  0  0  0  0  0  0  0  0  0  0
   -8.8029   -2.1065   -3.0674 C   0  0  0  0  0  0  0  0  0  0  0  0
   -9.6766   -1.8961   -1.9758 C   0  0  0  0  0  0  0  0  0  0  0  0
  -11.0092   -1.8090   -2.3362 C   0  0  0  0  0  0  0  0  0  0  0  0
  -11.4614   -1.9096   -3.6911 C   0  0  0  0  0  0  0  0  0  0  0  0
  -10.6113   -2.1190   -4.7646 C   0  0  0  0  0  0  0  0  0  0  0  0
   -9.2383   -2.2426   -4.4120 C   0  0  0  0  0  0  0  0  0  0  0  0
   -8.0516   -2.4176   -5.2913 C   0  0  0  0  0  0  0  0  0  0  0  0
   -8.0386   -2.9360   -6.5456 C   0  0  0  0  0  0  0  0  0  0  0  0
   -6.8116   -3.3300   -7.1918 C   0  0  0  0  0  0  0  0  0  0  0  0
   -5.8312   -3.6597   -7.7090 N   0  0  0  0  0  0  0  0  0  0  0  0
   -9.2431   -3.2991   -7.2450 C   0  0  0  0  0  0  0  0  0  0  0  0
  -10.2031   -3.6041   -7.8172 N   0  0  0  0  0  0  0  0  0  0  0  0
  -12.8744   -1.6590   -3.2552 C   0  0  0  0  0  0  0  0  0  0  0  0
  -13.4841   -0.2499   -3.5314 C   0  0  0  0  0  0  0  0  0  0  0  0
  -12.3951    0.8004   -3.5051 C   0  0  0  0  0  0  0  0  0  0  0  0
  -11.9784    0.8853   -2.2414 C   0  0  0  0  0  0  0  0  0  0  0  0
  -12.7944   -0.1125   -1.4511 C   0  0  0  0  0  0  0  0  0  0  0  0
  -14.1179    0.0284   -2.1832 C   0  0  0  0  0  0  0  0  0  0  0  0
  -12.4116   -1.5650   -1.8669 C   0  0  0  0  0  0  0  0  0  0  0  0
   -4.6244   -1.2733   -3.9115 C   0  0  0  0  0  0  0  0  0  0  0  0
   -4.3631    0.0769   -3.6255 C   0  0  0  0  0  0  0  0  0  0  0  0
   -5.0676    1.2468   -4.2530 C   0  0  0  0  0  0  0  0  0  0  0  0
   -4.4088    1.6304   -5.5729 C   0  0  0  0  0  0  0  0  0  0  0  0
   -3.3158    0.1907   -2.7144 C   0  0  0  0  0  0  0  0  0  0  0  0
   -2.5364    1.5297   -1.9957 S   0  0  0  0  0  0  0  0  0  0  0  0
   -1.5033    0.4817   -1.1486 C   0  0  0  0  0  0  0  0  0  0  0  0
   -0.4615    0.5511   -0.2813 C   0  0  0  0  0  0  0  0  0  0  0  0
    0.1612    1.6833    0.2450 C   0  0  0  0  0  0  0  0  0  0  0  0
   -0.2557    2.9409   -0.0518 N   0  0  0  0  0  0  0  0  0  0  0  0
    0.3840    4.0423    0.4325 C   0  0  0  0  0  0  0  0  0  0  0  0
   -0.2246    5.3610    0.1673 C   0  0  0  0  0  0  0  0  0  0  0  0
   -1.1849    5.7173   -1.1708 S   0  0  0  0  0  0  0  0  0  0  0  0
   -1.6304    7.2608   -0.6733 C   0  0  0  0  0  0  0  0  0  0  0  0
   -2.6157    8.1417   -1.3764 C   0  0  0  0  0  0  0  0  0  0  0  0
   -4.0384    7.7948   -0.9573 C   0  0  0  0  0  0  0  0  0  0  0  0
   -1.0645    7.4990    0.5731 C   0  0  0  0  0  0  0  0  0  0  0  0
   -0.2843    6.4395    1.0487 C   0  0  0  0  0  0  0  0  0  0  0  0
   -1.2848    8.6293    1.2894 F   0  0  0  0  0  0  0  0  0  0  0  0
    1.5490    3.8596    1.2237 C   0  0  0  0  0  0  0  0  0  0  0  0
    2.4563    4.9558    1.6118 C   0  0  0  0  0  0  0  0  0  0  0  0
    2.8440    6.0240    0.8074 C   0  0  0  0  0  0  0  0  0  0  0  0
    3.8577    6.8044    1.3789 C   0  0  0  0  0  0  0  0  0  0  0  0
    4.4103    7.8708    0.7456 F   0  0  0  0  0  0  0  0  0  0  0  0
    4.2703    6.3555    2.6275 C   0  0  0  0  0  0  0  0  0  0  0  0
    5.4079    6.9080    3.4307 C   0  0  0  0  0  0  0  0  0  0  0  0
    6.7207    6.2391    3.0374 C   0  0  0  0  0  0  0  0  0  0  0  0
    3.4078    4.9617    3.0024 S   0  0  0  0  0  0  0  0  0  0  0  0
    1.9229    2.5945    1.5554 N   0  0  0  0  0  0  0  0  0  0  0  0
    1.2485    1.5088    1.1011 C   0  0  0  0  0  0  0  0  0  0  0  0
    1.6450    0.2099    1.4184 C   0  0  0  0  0  0  0  0  0  0  0  0
    2.6859   -0.1884    2.1955 C   0  0  0  0  0  0  0  0  0  0  0  0
    3.9912    0.5088    3.0267 S   0  0  0  0  0  0  0  0  0  0  0  0
    4.6434   -1.0398    3.3188 C   0  0  0  0  0  0  0  0  0  0  0  0
    5.8461   -1.4708    3.8734 C   0  0  0  0  0  0  0  0  0  0  0  0
    6.8624   -0.5590    4.5029 C   0  0  0  0  0  0  0  0  0  0  0  0
    6.6439   -0.4622    6.0071 C   0  0  0  0  0  0  0  0  0  0  0  0
    5.9816   -2.8618    3.7369 C   0  0  0  0  0  0  0  0  0  0  0  0
    4.6236   -3.5193    2.9349 S   0  0  0  0  0  0  0  0  0  0  0  0
    3.8643   -2.0317    2.7715 C   0  0  0  0  0  0  0  0  0  0  0  0
    2.7372   -1.5293    2.1342 C   0  0  0  0  0  0  0  0  0  0  0  0
    1.7560   -2.0649    1.3633 N   0  0  0  0  0  0  0  0  0  0  0  0
    1.6563   -3.5020    1.1217 C   0  0  0  0  0  0  0  0  0  0  0  0
    2.4894   -3.9030   -0.0962 C   0  0  0  0  0  0  0  0  0  0  0  0
    1.0526   -0.9647    0.8893 C   0  0  0  0  0  0  0  0  0  0  0  0
   -0.0606   -0.7849   -0.0174 C   0  0  0  0  0  0  0  0  0  0  0  0
   -0.8698   -1.6444   -0.7486 N   0  0  0  0  0  0  0  0  0  0  0  0
   -1.7289   -0.8196   -1.4007 C   0  0  0  0  0  0  0  0  0  0  0  0
   -2.7769   -1.0012   -2.2954 C   0  0  0  0  0  0  0  0  0  0  0  0
   -3.5707   -2.2853   -3.0317 S   0  0  0  0  0  0  0  0  0  0  0  0
   -0.9542   -3.1005   -0.8515 C   0  0  0  0  0  0  0  0  0  0  0  0
   -1.8679   -3.6643    0.2352 C   0  0  0  0  0  0  0  0  0  0  0  0
    7.1628   -3.6356    4.1380 C   0  0  0  0  0  0  0  0  0  0  0  0
    8.0443   -4.1299    3.2529 C   0  0  0  0  0  0  0  0  0  0  0  0
    8.0795   -3.8155    1.8179 C   0  0  0  0  0  0  0  0  0  0  0  0
    7.1627   -3.2809    1.1405 O   0  0  0  0  0  0  0  0  0  0  0  0
    9.3930   -4.1454    1.3139 C   0  0  0  0  0  0  0  0  0  0  0  0
    9.9030   -3.9187    0.0352 C   0  0  0  0  0  0  0  0  0  0  0  0
   11.2440   -4.2352   -0.2132 C   0  0  0  0  0  0  0  0  0  0  0  0
   12.0554   -4.7443    0.8190 C   0  0  0  0  0  0  0  0  0  0  0  0
   13.7468   -5.0927    0.5069 Cl  0  0  0  0  0  0  0  0  0  0  0  0
   11.5216   -4.9578    2.1033 C   0  0  0  0  0  0  0  0  0  0  0  0
   10.1653   -4.6758    2.3339 C   0  0  0  0  0  0  0  0  0  0  0  0
    9.3422   -4.8000    3.5694 C   0  0  0  0  0  0  0  0  0  0  0  0
    9.6113   -5.5633    4.6597 C   0  0  0  0  0  0  0  0  0  0  0  0
    8.6159   -5.8402    5.6640 C   0  0  0  0  0  0  0  0  0  0  0  0
    7.8164   -6.0685    6.4680 N   0  0  0  0  0  0  0  0  0  0  0  0
   10.8640   -6.2529    4.8369 C   0  0  0  0  0  0  0  0  0  0  0  0
   11.8674   -6.8118    4.9943 N   0  0  0  0  0  0  0  0  0  0  0  0
   -5.4677   -1.5900   -5.8891 H   0  0  0  0  0  0  0  0  0  0  0  0
   -9.3346   -1.7602   -0.9572 H   0  0  0  0  0  0  0  0  0  0  0  0
  -10.9866   -2.1167   -5.7734 H   0  0  0  0  0  0  0  0  0  0  0  0
  -13.5604   -2.5138   -3.4424 H   0  0  0  0  0  0  0  0  0  0  0  0
  -14.1705   -0.1912   -4.4027 H   0  0  0  0  0  0  0  0  0  0  0  0
  -12.0655    1.4272   -4.3274 H   0  0  0  0  0  0  0  0  0  0  0  0
  -11.2573    1.5968   -1.8586 H   0  0  0  0  0  0  0  0  0  0  0  0
  -12.8331    0.0742   -0.3552 H   0  0  0  0  0  0  0  0  0  0  0  0
  -14.5623    1.0500   -2.1061 H   0  0  0  0  0  0  0  0  0  0  0  0
  -14.8772   -0.7335   -1.8823 H   0  0  0  0  0  0  0  0  0  0  0  0
  -12.8125   -2.3660   -1.2075 H   0  0  0  0  0  0  0  0  0  0  0  0
   -6.1346    0.9919   -4.4312 H   0  0  0  0  0  0  0  0  0  0  0  0
   -5.0397    2.1146   -3.5604 H   0  0  0  0  0  0  0  0  0  0  0  0
   -4.4703    0.7910   -6.2971 H   0  0  0  0  0  0  0  0  0  0  0  0
   -3.3405    1.8896   -5.4081 H   0  0  0  0  0  0  0  0  0  0  0  0
   -4.9299    2.5113   -5.9997 H   0  0  0  0  0  0  0  0  0  0  0  0
   -2.4056    9.2070   -1.1386 H   0  0  0  0  0  0  0  0  0  0  0  0
   -2.5137    8.0064   -2.4735 H   0  0  0  0  0  0  0  0  0  0  0  0
   -4.7557    8.4663   -1.4769 H   0  0  0  0  0  0  0  0  0  0  0  0
   -4.2787    6.7416   -1.2251 H   0  0  0  0  0  0  0  0  0  0  0  0
   -4.1599    7.9272    0.1400 H   0  0  0  0  0  0  0  0  0  0  0  0
    0.1776    6.4487    2.0265 H   0  0  0  0  0  0  0  0  0  0  0  0
    2.4510    6.2075   -0.1838 H   0  0  0  0  0  0  0  0  0  0  0  0
    5.4860    8.0026    3.2719 H   0  0  0  0  0  0  0  0  0  0  0  0
    5.2151    6.7269    4.5103 H   0  0  0  0  0  0  0  0  0  0  0  0
    7.5431    6.6274    3.6754 H   0  0  0  0  0  0  0  0  0  0  0  0
    6.6539    5.1342    3.1742 H   0  0  0  0  0  0  0  0  0  0  0  0
    6.9610    6.4593    1.9748 H   0  0  0  0  0  0  0  0  0  0  0  0
    7.8865   -0.9369    4.3003 H   0  0  0  0  0  0  0  0  0  0  0  0
    6.7879    0.4555    4.0541 H   0  0  0  0  0  0  0  0  0  0  0  0
    5.6299   -0.0610    6.2229 H   0  0  0  0  0  0  0  0  0  0  0  0
    7.3958    0.2243    6.4456 H   0  0  0  0  0  0  0  0  0  0  0  0
    6.7519   -1.4617    6.4793 H   0  0  0  0  0  0  0  0  0  0  0  0
    0.6147   -3.8309    1.0904 H   0  0  0  0  0  0  0  0  0  0  0  0
    2.0480   -4.0555    1.9999 H   0  0  0  0  0  0  0  0  0  0  0  0
    3.5702   -3.7729    0.1248 H   0  0  0  0  0  0  0  0  0  0  0  0
    2.3037   -4.9682   -0.3459 H   0  0  0  0  0  0  0  0  0  0  0  0
    2.2405   -3.2706   -0.9724 H   0  0  0  0  0  0  0  0  0  0  0  0
   -1.3772   -3.3880   -1.8321 H   0  0  0  0  0  0  0  0  0  0  0  0
    0.0329   -3.5617   -0.8947 H   0  0  0  0  0  0  0  0  0  0  0  0
   -1.5947   -3.2553    1.2319 H   0  0  0  0  0  0  0  0  0  0  0  0
   -1.7873   -4.7715    0.2543 H   0  0  0  0  0  0  0  0  0  0  0  0
   -2.9240   -3.3894    0.0202 H   0  0  0  0  0  0  0  0  0  0  0  0
    7.3693   -3.6757    5.1967 H   0  0  0  0  0  0  0  0  0  0  0  0
    9.2809   -3.5007   -0.7473 H   0  0  0  0  0  0  0  0  0  0  0  0
   11.6594   -4.0669   -1.1980 H   0  0  0  0  0  0  0  0  0  0  0  0
   12.1760   -5.3028    2.8847 H   0  0  0  0  0  0  0  0  0  0  0  0
  1  2  2  3
  2  3  1  0
  3  4  2  0
  3  5  1  0
  5  6  2  0
  6  7  1  0
  7  8  2  0
  8  9  1  0
  9 10  2  0
 10 11  1  0
 11 12  2  3
 12 13  1  0
 13 14  3  0
 12 15  1  0
 15 16  3  0
  8 17  1  0
 17 18  1  0
 18 19  1  0
 19 20  2  0
 20 21  1  0
 21 22  1  0
 21 23  1  0
  1 24  1  0
 24 25  2  0
 25 26  1  0
 26 27  1  0
 25 28  1  0
 28 29  1  0
 29 30  1  0
 30 31  1  0
 31 32  2  0
 32 33  1  0
 33 34  2  0
 34 35  1  0
 35 36  1  0
 36 37  1  0
 37 38  1  0
 38 39  1  0
 37 40  2  0
 40 41  1  0
 40 42  1  0
 34 43  1  0
 43 44  1  0
 44 45  2  0
 45 46  1  0
 46 47  1  0
 46 48  2  0
 48 49  1  0
 49 50  1  0
 48 51  1  0
 43 52  2  0
 52 53  1  0
 53 54  2  0
 54 55  1  0
 55 56  1  0
 56 57  1  0
 57 58  1  0
 58 59  1  0
 59 60  1  0
 58 61  2  0
 61 62  1  0
 62 63  1  0
 63 64  1  0
 64 65  1  0
 65 66  1  0
 66 67  1  0
 65 68  1  0
 68 69  2  0
 69 70  1  0
 70 71  1  0
 71 72  1  0
 72 73  1  0
 70 74  1  0
 74 75  1  0
 61 76  1  0
 76 77  2  3
 77 78  1  0
 78 79  2  0
 78 80  1  0
 80 81  2  0
 81 82  1  0
 82 83  2  0
 83 84  1  0
 83 85  1  0
 85 86  2  0
 86 87  1  0
 87 88  2  3
 88 89  1  0
 89 90  3  0
 88 91  1  0
 91 92  3  0
 11  2  1  0
 23 17  1  0
 73 24  1  0
 87 77  1  0
 10  5  1  0
 22 18  1  0
 72 28  2  0
 86 80  1  0
 23  7  1  0
 71 30  2  0
 69 31  1  0
 53 32  1  0
 68 54  1  0
 41 35  2  0
 51 44  1  0
 64 55  2  0
 63 57  2  0
  1 93  1  0
  6 94  1  0
  9 95  1  0
 17 96  1  0
 18 97  1  0
 19 98  1  0
 20 99  1  0
 21100  1  0
 22101  1  0
 22102  1  0
 23103  1  0
 26104  1  0
 26105  1  0
 27106  1  0
 27107  1  0
 27108  1  0
 38109  1  0
 38110  1  0
 39111  1  0
 39112  1  0
 39113  1  0
 41114  1  0
 45115  1  0
 49116  1  0
 49117  1  0
 50118  1  0
 50119  1  0
 50120  1  0
 59121  1  0
 59122  1  0
 60123  1  0
 60124  1  0
 60125  1  0
 66126  1  0
 66127  1  0
 67128  1  0
 67129  1  0
 67130  1  0
 74131  1  0
 74132  1  0
 75133  1  0
 75134  1  0
 75135  1  0
 76136  1  0
 81137  1  0
 82138  1  0
 85139  1  0
M  END

