
     RDKit          3D

101115  0  0  0  0  0  0  0  0999 V2000
   -5.2383    1.7968    0.6956 C   0  0  0  0  0  0  0  0  0  0  0  0
   -4.4336    2.7418    1.2212 C   0  0  0  0  0  0  0  0  0  0  0  0
   -3.0397    2.5263    1.6372 C   0  0  0  0  0  0  0  0  0  0  0  0
   -2.3537    1.4869    1.4516 O   0  0  0  0  0  0  0  0  0  0  0  0
   -2.6083    3.6579    2.4232 C   0  0  0  0  0  0  0  0  0  0  0  0
   -1.3405    3.8314    3.0265 C   0  0  0  0  0  0  0  0  0  0  0  0
   -1.2011    5.0273    3.7035 C   0  0  0  0  0  0  0  0  0  0  0  0
   -2.2402    6.0067    3.7803 C   0  0  0  0  0  0  0  0  0  0  0  0
   -3.4845    5.8394    3.1992 C   0  0  0  0  0  0  0  0  0  0  0  0
   -3.6636    4.6034    2.5100 C   0  0  0  0  0  0  0  0  0  0  0  0
   -4.8382    4.0906    1.7402 C   0  0  0  0  0  0  0  0  0  0  0  0
   -5.9815    4.7625    1.4496 C   0  0  0  0  0  0  0  0  0  0  0  0
   -6.3426    6.0015    2.0789 C   0  0  0  0  0  0  0  0  0  0  0  0
   -6.6576    6.9978    2.5791 N   0  0  0  0  0  0  0  0  0  0  0  0
   -6.9046    4.3176    0.4373 C   0  0  0  0  0  0  0  0  0  0  0  0
   -7.6547    3.9741   -0.3773 N   0  0  0  0  0  0  0  0  0  0  0  0
   -1.3530    6.9149    4.5769 C   0  0  0  0  0  0  0  0  0  0  0  0
   -0.7521    8.1357    3.8208 C   0  0  0  0  0  0  0  0  0  0  0  0
    0.3717    8.6452    4.6901 C   0  0  0  0  0  0  0  0  0  0  0  0
    1.3464    7.7287    4.6251 C   0  0  0  0  0  0  0  0  0  0  0  0
    0.8432    6.6329    3.7161 C   0  0  0  0  0  0  0  0  0  0  0  0
    0.0746    7.4901    2.7223 C   0  0  0  0  0  0  0  0  0  0  0  0
   -0.2887    5.9088    4.5028 C   0  0  0  0  0  0  0  0  0  0  0  0
   -4.7476    0.5174    0.1614 C   0  0  0  0  0  0  0  0  0  0  0  0
   -5.1294   -0.7571    0.6133 C   0  0  0  0  0  0  0  0  0  0  0  0
   -6.0998   -1.0233    1.7304 C   0  0  0  0  0  0  0  0  0  0  0  0
   -7.5024   -1.2460    1.1774 C   0  0  0  0  0  0  0  0  0  0  0  0
   -4.4253   -1.7534   -0.0670 C   0  0  0  0  0  0  0  0  0  0  0  0
   -3.5405   -1.3066   -1.0155 C   0  0  0  0  0  0  0  0  0  0  0  0
   -3.5714    0.3714   -1.0652 S   0  0  0  0  0  0  0  0  0  0  0  0
   -2.6887   -2.3037   -1.4940 C   0  0  0  0  0  0  0  0  0  0  0  0
   -2.9456   -3.5033   -0.8952 C   0  0  0  0  0  0  0  0  0  0  0  0
   -4.1796   -3.3967    0.2666 S   0  0  0  0  0  0  0  0  0  0  0  0
   -1.7922   -4.2335   -0.9550 C   0  0  0  0  0  0  0  0  0  0  0  0
   -1.3555   -5.2535   -0.0953 C   0  0  0  0  0  0  0  0  0  0  0  0
   -2.1684   -5.9406    0.7463 N   0  0  0  0  0  0  0  0  0  0  0  0
   -1.0486   -6.9025    1.4983 S   0  0  0  0  0  0  0  0  0  0  0  0
    0.4236   -6.5049    0.8499 N   0  0  0  0  0  0  0  0  0  0  0  0
    0.0347   -5.5486   -0.0315 C   0  0  0  0  0  0  0  0  0  0  0  0
    0.9043   -4.8689   -0.8850 C   0  0  0  0  0  0  0  0  0  0  0  0
    2.2621   -4.9274   -1.0239 C   0  0  0  0  0  0  0  0  0  0  0  0
    3.5374   -5.1532    0.0711 S   0  0  0  0  0  0  0  0  0  0  0  0
    4.5558   -4.1762   -0.8747 C   0  0  0  0  0  0  0  0  0  0  0  0
    5.7881   -3.5976   -0.6138 C   0  0  0  0  0  0  0  0  0  0  0  0
    6.0909   -2.6220   -1.5764 C   0  0  0  0  0  0  0  0  0  0  0  0
    4.8389   -2.4987   -2.7204 S   0  0  0  0  0  0  0  0  0  0  0  0
    3.9091   -3.6802   -1.9725 C   0  0  0  0  0  0  0  0  0  0  0  0
    2.5876   -4.0833   -2.0412 C   0  0  0  0  0  0  0  0  0  0  0  0
    1.5070   -3.4528   -2.5655 N   0  0  0  0  0  0  0  0  0  0  0  0
    1.4791   -2.8991   -3.9315 C   0  0  0  0  0  0  0  0  0  0  0  0
    0.4854   -3.6376   -4.8209 C   0  0  0  0  0  0  0  0  0  0  0  0
    0.4650   -3.8969   -1.7903 C   0  0  0  0  0  0  0  0  0  0  0  0
   -0.8903   -3.4707   -1.7199 C   0  0  0  0  0  0  0  0  0  0  0  0
   -1.4252   -2.2377   -1.9909 N   0  0  0  0  0  0  0  0  0  0  0  0
   -0.6987   -0.9793   -2.2253 C   0  0  0  0  0  0  0  0  0  0  0  0
   -1.0874   -0.3696   -3.5708 C   0  0  0  0  0  0  0  0  0  0  0  0
    7.3270   -1.8291   -1.6075 C   0  0  0  0  0  0  0  0  0  0  0  0
    7.8925   -1.2843   -0.5178 C   0  0  0  0  0  0  0  0  0  0  0  0
    9.3461   -1.0981   -0.3936 C   0  0  0  0  0  0  0  0  0  0  0  0
   10.1981   -1.1746   -1.3148 O   0  0  0  0  0  0  0  0  0  0  0  0
    9.6215   -0.9709    1.0165 C   0  0  0  0  0  0  0  0  0  0  0  0
   10.9799   -0.8722    1.9861 S   0  0  0  0  0  0  0  0  0  0  0  0
   10.0561   -0.8463    3.4169 C   0  0  0  0  0  0  0  0  0  0  0  0
   10.7330   -0.7332    5.0257 Cl  0  0  0  0  0  0  0  0  0  0  0  0
    8.6923   -0.9280    3.1276 C   0  0  0  0  0  0  0  0  0  0  0  0
    8.4797   -1.0140    1.7472 C   0  0  0  0  0  0  0  0  0  0  0  0
    7.3065   -1.1027    0.8525 C   0  0  0  0  0  0  0  0  0  0  0  0
    6.0426   -0.7391    1.1695 C   0  0  0  0  0  0  0  0  0  0  0  0
    5.6168   -0.5752    2.5361 C   0  0  0  0  0  0  0  0  0  0  0  0
    5.2611   -0.4389    3.6291 N   0  0  0  0  0  0  0  0  0  0  0  0
    5.0829   -0.3646    0.1687 C   0  0  0  0  0  0  0  0  0  0  0  0
    4.3178   -0.0410   -0.6383 N   0  0  0  0  0  0  0  0  0  0  0  0
   -6.3066    1.9130    0.7170 H   0  0  0  0  0  0  0  0  0  0  0  0
   -0.5394    3.1032    2.9567 H   0  0  0  0  0  0  0  0  0  0  0  0
   -4.2229    6.6140    3.2808 H   0  0  0  0  0  0  0  0  0  0  0  0
   -1.7264    7.1138    5.6049 H   0  0  0  0  0  0  0  0  0  0  0  0
   -1.4822    8.9042    3.4933 H   0  0  0  0  0  0  0  0  0  0  0  0
    0.4347    9.6101    5.1854 H   0  0  0  0  0  0  0  0  0  0  0  0
    2.3346    7.8193    5.0660 H   0  0  0  0  0  0  0  0  0  0  0  0
    1.6292    5.9769    3.2842 H   0  0  0  0  0  0  0  0  0  0  0  0
   -0.5193    6.9085    1.9835 H   0  0  0  0  0  0  0  0  0  0  0  0
    0.7215    8.2169    2.1700 H   0  0  0  0  0  0  0  0  0  0  0  0
    0.0070    5.4741    5.4828 H   0  0  0  0  0  0  0  0  0  0  0  0
   -6.1123   -0.1713    2.4403 H   0  0  0  0  0  0  0  0  0  0  0  0
   -5.7784   -1.9219    2.3000 H   0  0  0  0  0  0  0  0  0  0  0  0
   -7.5122   -2.1235    0.4922 H   0  0  0  0  0  0  0  0  0  0  0  0
   -7.8465   -0.3432    0.6253 H   0  0  0  0  0  0  0  0  0  0  0  0
   -8.2010   -1.4469    2.0191 H   0  0  0  0  0  0  0  0  0  0  0  0
    6.4066   -3.8366    0.2428 H   0  0  0  0  0  0  0  0  0  0  0  0
    2.4788   -3.0208   -4.4004 H   0  0  0  0  0  0  0  0  0  0  0  0
    1.2844   -1.8146   -3.9379 H   0  0  0  0  0  0  0  0  0  0  0  0
   -0.5542   -3.4982   -4.4565 H   0  0  0  0  0  0  0  0  0  0  0  0
    0.7208   -4.7219   -4.8454 H   0  0  0  0  0  0  0  0  0  0  0  0
    0.5398   -3.2375   -5.8579 H   0  0  0  0  0  0  0  0  0  0  0  0
    0.3914   -1.1237   -2.1415 H   0  0  0  0  0  0  0  0  0  0  0  0
   -0.9226   -0.2570   -1.4136 H   0  0  0  0  0  0  0  0  0  0  0  0
   -0.9192   -1.0903   -4.3968 H   0  0  0  0  0  0  0  0  0  0  0  0
   -2.1588   -0.0870   -3.5697 H   0  0  0  0  0  0  0  0  0  0  0  0
   -0.4763    0.5374   -3.7574 H   0  0  0  0  0  0  0  0  0  0  0  0
    7.8831   -1.8450   -2.5362 H   0  0  0  0  0  0  0  0  0  0  0  0
    7.9196   -0.9380    3.8813 H   0  0  0  0  0  0  0  0  0  0  0  0
  1  2  2  3
  2  3  1  0
  3  4  2  0
  3  5  1  0
  5  6  2  0
  6  7  1  0
  7  8  2  0
  8  9  1  0
  9 10  2  0
 10 11  1  0
 11 12  2  3
 12 13  1  0
 13 14  3  0
 12 15  1  0
 15 16  3  0
  8 17  1  0
 17 18  1  0
 18 19  1  0
 19 20  2  0
 20 21  1  0
 21 22  1  0
 21 23  1  0
  1 24  1  0
 24 25  2  0
 25 26  1  0
 26 27  1  0
 25 28  1  0
 28 29  2  0
 29 30  1  0
 29 31  1  0
 31 32  2  0
 32 33  1  0
 32 34  1  0
 34 35  1  0
 35 36  2  0
 36 37  1  0
 37 38  1  0
 38 39  2  0
 39 40  1  0
 40 41  1  0
 41 42  1  0
 42 43  1  0
 43 44  1  0
 44 45  2  0
 45 46  1  0
 46 47  1  0
 47 48  1  0
 48 49  1  0
 49 50  1  0
 50 51  1  0
 49 52  1  0
 52 53  1  0
 53 54  1  0
 54 55  1  0
 55 56  1  0
 45 57  1  0
 57 58  2  3
 58 59  1  0
 59 60  2  0
 59 61  1  0
 61 62  1  0
 62 63  1  0
 63 64  1  0
 63 65  2  0
 65 66  1  0
 66 67  1  0
 67 68  2  3
 68 69  1  0
 69 70  3  0
 68 71  1  0
 71 72  3  0
 11  2  1  0
 23 17  1  0
 30 24  1  0
 54 31  1  0
 67 58  1  0
 10  5  1  0
 22 18  1  0
 33 28  1  0
 53 34  2  0
 66 61  2  0
 23  7  1  0
 39 35  1  0
 52 40  2  0
 48 41  2  0
 47 43  2  0
  1 73  1  0
  6 74  1  0
  9 75  1  0
 17 76  1  0
 18 77  1  0
 19 78  1  0
 20 79  1  0
 21 80  1  0
 22 81  1  0
 22 82  1  0
 23 83  1  0
 26 84  1  0
 26 85  1  0
 27 86  1  0
 27 87  1  0
 27 88  1  0
 44 89  1  0
 50 90  1  0
 50 91  1  0
 51 92  1  0
 51 93  1  0
 51 94  1  0
 55 95  1  0
 55 96  1  0
 56 97  1  0
 56 98  1  0
 56 99  1  0
 57100  1  0
 65101  1  0
M  END

