
     RDKit          3D

130146  0  0  0  0  0  0  0  0999 V2000
   -4.9274   -3.9263    1.1460 C   0  0  0  0  0  0  0  0  0  0  0  0
   -4.4526   -3.5911    2.3601 C   0  0  0  0  0  0  0  0  0  0  0  0
   -3.3076   -2.7090    2.6043 C   0  0  0  0  0  0  0  0  0  0  0  0
   -2.9044   -1.7837    1.8486 O   0  0  0  0  0  0  0  0  0  0  0  0
   -2.7500   -3.0251    3.8960 C   0  0  0  0  0  0  0  0  0  0  0  0
   -1.5191   -2.5707    4.4192 C   0  0  0  0  0  0  0  0  0  0  0  0
   -1.1597   -3.1803    5.6042 C   0  0  0  0  0  0  0  0  0  0  0  0
   -1.9644   -4.1721    6.2536 C   0  0  0  0  0  0  0  0  0  0  0  0
   -3.1777   -4.6152    5.7492 C   0  0  0  0  0  0  0  0  0  0  0  0
   -3.5712   -3.9950    4.5284 C   0  0  0  0  0  0  0  0  0  0  0  0
   -4.7477   -4.2750    3.6548 C   0  0  0  0  0  0  0  0  0  0  0  0
   -5.9198   -4.8487    4.0237 C   0  0  0  0  0  0  0  0  0  0  0  0
   -7.0759   -4.8481    3.1644 C   0  0  0  0  0  0  0  0  0  0  0  0
   -8.0092   -4.8455    2.4794 N   0  0  0  0  0  0  0  0  0  0  0  0
   -6.1400   -5.3748    5.3461 C   0  0  0  0  0  0  0  0  0  0  0  0
   -6.3329   -5.7981    6.4066 N   0  0  0  0  0  0  0  0  0  0  0  0
   -0.9370   -4.3173    7.3377 C   0  0  0  0  0  0  0  0  0  0  0  0
   -1.2698   -3.6622    8.7097 C   0  0  0  0  0  0  0  0  0  0  0  0
    0.0362   -3.6009    9.4655 C   0  0  0  0  0  0  0  0  0  0  0  0
    0.7878   -2.6791    8.8512 C   0  0  0  0  0  0  0  0  0  0  0  0
   -0.0375   -2.1485    7.7048 C   0  0  0  0  0  0  0  0  0  0  0  0
   -1.4064   -2.1886    8.3638 C   0  0  0  0  0  0  0  0  0  0  0  0
   -0.1137   -3.3052    6.6674 C   0  0  0  0  0  0  0  0  0  0  0  0
   -4.2752   -3.5061   -0.1036 C   0  0  0  0  0  0  0  0  0  0  0  0
   -4.8974   -2.8214   -1.1599 C   0  0  0  0  0  0  0  0  0  0  0  0
   -6.2453   -2.2336   -1.0813 C   0  0  0  0  0  0  0  0  0  0  0  0
   -6.4023   -1.0396   -0.3617 C   0  0  0  0  0  0  0  0  0  0  0  0
   -7.6439   -0.4092   -0.3001 C   0  0  0  0  0  0  0  0  0  0  0  0
   -8.7403   -0.9640   -0.9588 C   0  0  0  0  0  0  0  0  0  0  0  0
   -8.6020   -2.1559   -1.6735 C   0  0  0  0  0  0  0  0  0  0  0  0
   -7.3598   -2.8279   -1.7243 C   0  0  0  0  0  0  0  0  0  0  0  0
   -7.1856   -4.1106   -2.5223 C   0  0  0  0  0  0  0  0  0  0  0  0
   -8.4562   -4.9520   -2.6606 C   0  0  0  0  0  0  0  0  0  0  0  0
   -3.9854   -2.5416   -2.1777 C   0  0  0  0  0  0  0  0  0  0  0  0
   -4.0302   -1.4891   -3.5272 S   0  0  0  0  0  0  0  0  0  0  0  0
   -2.3527   -1.6602   -3.7438 C   0  0  0  0  0  0  0  0  0  0  0  0
   -1.3292   -1.0148   -4.3831 C   0  0  0  0  0  0  0  0  0  0  0  0
   -1.3056   -0.1036   -5.4387 C   0  0  0  0  0  0  0  0  0  0  0  0
   -0.0469    0.4322   -5.8487 C   0  0  0  0  0  0  0  0  0  0  0  0
   -0.0686    1.3281   -6.8676 N   0  0  0  0  0  0  0  0  0  0  0  0
   -1.6944    1.3502   -7.1892 S   0  0  0  0  0  0  0  0  0  0  0  0
   -2.4061    0.3112   -6.1139 N   0  0  0  0  0  0  0  0  0  0  0  0
    1.1082    0.0922   -5.1220 C   0  0  0  0  0  0  0  0  0  0  0  0
    2.2946    0.7695   -5.0310 C   0  0  0  0  0  0  0  0  0  0  0  0
    2.8143    2.2822   -5.6043 S   0  0  0  0  0  0  0  0  0  0  0  0
    3.8235    2.4992   -4.2581 C   0  0  0  0  0  0  0  0  0  0  0  0
    4.5096    3.6139   -3.7747 C   0  0  0  0  0  0  0  0  0  0  0  0
    4.7104    4.8621   -4.5358 C   0  0  0  0  0  0  0  0  0  0  0  0
    5.5798    4.9229   -5.6545 C   0  0  0  0  0  0  0  0  0  0  0  0
    6.4155    3.7356   -6.0856 C   0  0  0  0  0  0  0  0  0  0  0  0
    7.6413    3.5761   -5.1895 C   0  0  0  0  0  0  0  0  0  0  0  0
    5.7469    6.1473   -6.3262 C   0  0  0  0  0  0  0  0  0  0  0  0
    5.0586    7.2872   -5.9051 C   0  0  0  0  0  0  0  0  0  0  0  0
    4.2047    7.2242   -4.8040 C   0  0  0  0  0  0  0  0  0  0  0  0
    4.0299    6.0194   -4.1226 C   0  0  0  0  0  0  0  0  0  0  0  0
    4.8771    3.4305   -2.4333 C   0  0  0  0  0  0  0  0  0  0  0  0
    4.3945    1.8850   -1.9050 S   0  0  0  0  0  0  0  0  0  0  0  0
    3.6995    1.4568   -3.3730 C   0  0  0  0  0  0  0  0  0  0  0  0
    2.8390    0.4526   -3.8191 C   0  0  0  0  0  0  0  0  0  0  0  0
    2.0977   -0.4614   -3.1357 N   0  0  0  0  0  0  0  0  0  0  0  0
    1.0523   -0.7354   -3.9875 C   0  0  0  0  0  0  0  0  0  0  0  0
   -0.1642   -1.4080   -3.7095 C   0  0  0  0  0  0  0  0  0  0  0  0
   -0.4394   -2.3667   -2.7741 N   0  0  0  0  0  0  0  0  0  0  0  0
   -1.7882   -2.4594   -2.8073 C   0  0  0  0  0  0  0  0  0  0  0  0
   -2.7120   -2.9871   -1.9315 C   0  0  0  0  0  0  0  0  0  0  0  0
   -2.6227   -3.7556   -0.4498 S   0  0  0  0  0  0  0  0  0  0  0  0
    0.4756   -3.3620   -2.2036 C   0  0  0  0  0  0  0  0  0  0  0  0
    0.1846   -4.7585   -2.7490 C   0  0  0  0  0  0  0  0  0  0  0  0
    2.1045   -0.5739   -1.6679 C   0  0  0  0  0  0  0  0  0  0  0  0
    3.3390   -1.3309   -1.1703 C   0  0  0  0  0  0  0  0  0  0  0  0
    5.5911    4.4158   -1.6083 C   0  0  0  0  0  0  0  0  0  0  0  0
    5.0795    4.9518   -0.4824 C   0  0  0  0  0  0  0  0  0  0  0  0
    3.7781    4.6228    0.1129 C   0  0  0  0  0  0  0  0  0  0  0  0
    2.8104    4.0601   -0.4643 O   0  0  0  0  0  0  0  0  0  0  0  0
    3.7564    5.1221    1.4685 C   0  0  0  0  0  0  0  0  0  0  0  0
    2.7715    4.9354    2.4394 C   0  0  0  0  0  0  0  0  0  0  0  0
    2.9867    5.4535    3.7254 C   0  0  0  0  0  0  0  0  0  0  0  0
    1.7495    5.2228    4.9534 Cl  0  0  0  0  0  0  0  0  0  0  0  0
    4.1931    6.1283    4.0197 C   0  0  0  0  0  0  0  0  0  0  0  0
    4.5097    6.7535    5.6314 Cl  0  0  0  0  0  0  0  0  0  0  0  0
    5.1722    6.2949    3.0235 C   0  0  0  0  0  0  0  0  0  0  0  0
    4.9312    5.8042    1.7300 C   0  0  0  0  0  0  0  0  0  0  0  0
    5.7721    5.8488    0.4966 C   0  0  0  0  0  0  0  0  0  0  0  0
    6.8131    6.6858    0.2507 C   0  0  0  0  0  0  0  0  0  0  0  0
    7.3409    7.5833    1.2445 C   0  0  0  0  0  0  0  0  0  0  0  0
    7.7789    8.3090    2.0318 N   0  0  0  0  0  0  0  0  0  0  0  0
    7.3835    6.8454   -1.0619 C   0  0  0  0  0  0  0  0  0  0  0  0
    7.8440    6.9851   -2.1143 N   0  0  0  0  0  0  0  0  0  0  0  0
   -5.7305   -4.6355    1.0384 H   0  0  0  0  0  0  0  0  0  0  0  0
   -0.8856   -1.8537    3.9141 H   0  0  0  0  0  0  0  0  0  0  0  0
   -3.7206   -5.4100    6.2345 H   0  0  0  0  0  0  0  0  0  0  0  0
   -0.4796   -5.3305    7.3829 H   0  0  0  0  0  0  0  0  0  0  0  0
   -2.1188   -4.1137    9.2649 H   0  0  0  0  0  0  0  0  0  0  0  0
    0.2987   -4.1336   10.3729 H   0  0  0  0  0  0  0  0  0  0  0  0
    1.7621   -2.3313    9.1773 H   0  0  0  0  0  0  0  0  0  0  0  0
    0.2837   -1.1633    7.3058 H   0  0  0  0  0  0  0  0  0  0  0  0
   -1.4834   -1.5288    9.2618 H   0  0  0  0  0  0  0  0  0  0  0  0
   -2.2508   -1.9588    7.6780 H   0  0  0  0  0  0  0  0  0  0  0  0
    0.8636   -3.6759    6.2867 H   0  0  0  0  0  0  0  0  0  0  0  0
   -5.5553   -0.5883    0.1399 H   0  0  0  0  0  0  0  0  0  0  0  0
   -7.7543    0.5164    0.2507 H   0  0  0  0  0  0  0  0  0  0  0  0
   -9.7012   -0.4655   -0.9200 H   0  0  0  0  0  0  0  0  0  0  0  0
   -9.4738   -2.5451   -2.1777 H   0  0  0  0  0  0  0  0  0  0  0  0
   -6.4286   -4.7570   -2.0256 H   0  0  0  0  0  0  0  0  0  0  0  0
   -6.8018   -3.8568   -3.5341 H   0  0  0  0  0  0  0  0  0  0  0  0
   -8.1946   -5.9536   -3.0699 H   0  0  0  0  0  0  0  0  0  0  0  0
   -8.9391   -5.0912   -1.6693 H   0  0  0  0  0  0  0  0  0  0  0  0
   -9.1665   -4.4740   -3.3660 H   0  0  0  0  0  0  0  0  0  0  0  0
    6.7587    3.8625   -7.1361 H   0  0  0  0  0  0  0  0  0  0  0  0
    5.8162    2.8042   -6.0653 H   0  0  0  0  0  0  0  0  0  0  0  0
    8.2583    2.7241   -5.5502 H   0  0  0  0  0  0  0  0  0  0  0  0
    7.3335    3.3660   -4.1449 H   0  0  0  0  0  0  0  0  0  0  0  0
    8.2586    4.4982   -5.2088 H   0  0  0  0  0  0  0  0  0  0  0  0
    6.4201    6.2248   -7.1713 H   0  0  0  0  0  0  0  0  0  0  0  0
    5.1960    8.2241   -6.4281 H   0  0  0  0  0  0  0  0  0  0  0  0
    3.6737    8.1110   -4.4802 H   0  0  0  0  0  0  0  0  0  0  0  0
    3.3629    5.9842   -3.2700 H   0  0  0  0  0  0  0  0  0  0  0  0
    0.3925   -3.3609   -1.0980 H   0  0  0  0  0  0  0  0  0  0  0  0
    1.5123   -3.1233   -2.4969 H   0  0  0  0  0  0  0  0  0  0  0  0
    0.9373   -5.4741   -2.3552 H   0  0  0  0  0  0  0  0  0  0  0  0
    0.2414   -4.7542   -3.8572 H   0  0  0  0  0  0  0  0  0  0  0  0
   -0.8221   -5.1033   -2.4359 H   0  0  0  0  0  0  0  0  0  0  0  0
    1.1896   -1.0575   -1.2851 H   0  0  0  0  0  0  0  0  0  0  0  0
    2.0878    0.4420   -1.2198 H   0  0  0  0  0  0  0  0  0  0  0  0
    3.3037   -2.3984   -1.4558 H   0  0  0  0  0  0  0  0  0  0  0  0
    3.3895   -1.2667   -0.0619 H   0  0  0  0  0  0  0  0  0  0  0  0
    4.2674   -0.8998   -1.5920 H   0  0  0  0  0  0  0  0  0  0  0  0
    6.5831    4.6640   -1.9405 H   0  0  0  0  0  0  0  0  0  0  0  0
    1.8633    4.3925    2.2067 H   0  0  0  0  0  0  0  0  0  0  0  0
    6.1014    6.7693    3.2894 H   0  0  0  0  0  0  0  0  0  0  0  0
  1  2  2  3
  2  3  1  0
  3  4  2  0
  3  5  1  0
  5  6  2  0
  6  7  1  0
  7  8  2  0
  8  9  1  0
  9 10  2  0
 10 11  1  0
 11 12  2  3
 12 13  1  0
 13 14  3  0
 12 15  1  0
 15 16  3  0
  8 17  1  0
 17 18  1  0
 18 19  1  0
 19 20  2  0
 20 21  1  0
 21 22  1  0
 21 23  1  0
  1 24  1  0
 24 25  2  0
 25 26  1  0
 26 27  2  0
 27 28  1  0
 28 29  2  0
 29 30  1  0
 30 31  2  0
 31 32  1  0
 32 33  1  0
 25 34  1  0
 34 35  1  0
 35 36  1  0
 36 37  1  0
 37 38  1  0
 38 39  1  0
 39 40  2  0
 40 41  1  0
 41 42  1  0
 39 43  1  0
 43 44  1  0
 44 45  1  0
 45 46  1  0
 46 47  1  0
 47 48  1  0
 48 49  2  0
 49 50  1  0
 50 51  1  0
 49 52  1  0
 52 53  2  0
 53 54  1  0
 54 55  2  0
 47 56  2  0
 56 57  1  0
 57 58  1  0
 58 59  1  0
 59 60  1  0
 60 61  1  0
 61 62  1  0
 62 63  1  0
 63 64  1  0
 64 65  1  0
 65 66  1  0
 63 67  1  0
 67 68  1  0
 60 69  1  0
 69 70  1  0
 56 71  1  0
 71 72  2  3
 72 73  1  0
 73 74  2  0
 73 75  1  0
 75 76  2  0
 76 77  1  0
 77 78  1  0
 77 79  2  0
 79 80  1  0
 79 81  1  0
 81 82  2  0
 82 83  1  0
 83 84  2  3
 84 85  1  0
 85 86  3  0
 84 87  1  0
 87 88  3  0
 11  2  1  0
 23 17  1  0
 66 24  1  0
 83 72  1  0
 10  5  1  0
 22 18  1  0
 31 26  1  0
 65 34  2  0
 82 75  1  0
 23  7  1  0
 64 36  2  0
 62 37  2  0
 42 38  2  0
 61 43  2  0
 59 44  2  0
 58 46  2  0
 55 48  1  0
  1 89  1  0
  6 90  1  0
  9 91  1  0
 17 92  1  0
 18 93  1  0
 19 94  1  0
 20 95  1  0
 21 96  1  0
 22 97  1  0
 22 98  1  0
 23 99  1  0
 27100  1  0
 28101  1  0
 29102  1  0
 30103  1  0
 32104  1  0
 32105  1  0
 33106  1  0
 33107  1  0
 33108  1  0
 50109  1  0
 50110  1  0
 51111  1  0
 51112  1  0
 51113  1  0
 52114  1  0
 53115  1  0
 54116  1  0
 55117  1  0
 67118  1  0
 67119  1  0
 68120  1  0
 68121  1  0
 68122  1  0
 69123  1  0
 69124  1  0
 70125  1  0
 70126  1  0
 70127  1  0
 71128  1  0
 76129  1  0
 81130  1  0
M  END

