
     RDKit          3D

110123  0  0  0  0  0  0  0  0999 V2000
    0.6757   -2.2737    6.4803 C   0  0  0  0  0  0  0  0  0  0  0  0
   -0.4998   -1.7432    6.8719 C   0  0  0  0  0  0  0  0  0  0  0  0
   -1.2434   -0.7044    6.1392 C   0  0  0  0  0  0  0  0  0  0  0  0
   -0.8037    0.0230    5.2046 O   0  0  0  0  0  0  0  0  0  0  0  0
   -2.6061   -0.6935    6.6110 C   0  0  0  0  0  0  0  0  0  0  0  0
   -3.6825    0.0354    6.0606 C   0  0  0  0  0  0  0  0  0  0  0  0
   -4.9091   -0.2695    6.6152 C   0  0  0  0  0  0  0  0  0  0  0  0
   -5.0779   -1.2344    7.6574 C   0  0  0  0  0  0  0  0  0  0  0  0
   -4.0291   -1.9603    8.1967 C   0  0  0  0  0  0  0  0  0  0  0  0
   -2.7492   -1.6474    7.6512 C   0  0  0  0  0  0  0  0  0  0  0  0
   -1.4224   -2.2684    7.9274 C   0  0  0  0  0  0  0  0  0  0  0  0
   -1.0774   -2.9933    9.0264 C   0  0  0  0  0  0  0  0  0  0  0  0
   -2.0063   -3.2751   10.0909 C   0  0  0  0  0  0  0  0  0  0  0  0
   -2.7338   -3.4994   10.9620 N   0  0  0  0  0  0  0  0  0  0  0  0
    0.2815   -3.3951    9.2904 C   0  0  0  0  0  0  0  0  0  0  0  0
    1.3700   -3.7238    9.5174 N   0  0  0  0  0  0  0  0  0  0  0  0
   -6.5627   -1.0191    7.6386 C   0  0  0  0  0  0  0  0  0  0  0  0
   -7.4120   -2.1408    6.9729 C   0  0  0  0  0  0  0  0  0  0  0  0
   -8.7709   -1.5331    6.7169 C   0  0  0  0  0  0  0  0  0  0  0  0
   -8.6095   -0.6427    5.7321 C   0  0  0  0  0  0  0  0  0  0  0  0
   -7.1462   -0.6768    5.3614 C   0  0  0  0  0  0  0  0  0  0  0  0
   -6.8968   -2.1639    5.5442 C   0  0  0  0  0  0  0  0  0  0  0  0
   -6.3889   -0.0390    6.5635 C   0  0  0  0  0  0  0  0  0  0  0  0
    1.4527   -1.7279    5.3567 C   0  0  0  0  0  0  0  0  0  0  0  0
    2.2068   -0.1930    5.4092 S   0  0  0  0  0  0  0  0  0  0  0  0
    2.4815   -0.1996    3.7616 C   0  0  0  0  0  0  0  0  0  0  0  0
    2.8726    0.6689    2.7886 C   0  0  0  0  0  0  0  0  0  0  0  0
    3.4161    1.9524    2.8462 C   0  0  0  0  0  0  0  0  0  0  0  0
    3.6922    2.6272    1.6218 C   0  0  0  0  0  0  0  0  0  0  0  0
    4.1975    3.8821    1.7139 N   0  0  0  0  0  0  0  0  0  0  0  0
    4.2744    4.0324    3.3632 S   0  0  0  0  0  0  0  0  0  0  0  0
    3.6988    2.6126    3.9954 N   0  0  0  0  0  0  0  0  0  0  0  0
    3.3720    1.9905    0.4137 C   0  0  0  0  0  0  0  0  0  0  0  0
    3.2696    2.4964   -0.8482 C   0  0  0  0  0  0  0  0  0  0  0  0
    3.2970    4.0449   -1.5494 S   0  0  0  0  0  0  0  0  0  0  0  0
    2.4302    3.4776   -2.9026 C   0  0  0  0  0  0  0  0  0  0  0  0
    1.9280    4.0982   -4.0489 C   0  0  0  0  0  0  0  0  0  0  0  0
    2.0857    5.5605   -4.3600 C   0  0  0  0  0  0  0  0  0  0  0  0
    0.8080    6.3293   -4.0531 C   0  0  0  0  0  0  0  0  0  0  0  0
    1.2046    3.1787   -4.8279 C   0  0  0  0  0  0  0  0  0  0  0  0
    1.1503    1.6558   -4.0569 S   0  0  0  0  0  0  0  0  0  0  0  0
    2.0951    2.1537   -2.7640 C   0  0  0  0  0  0  0  0  0  0  0  0
    2.5763    1.5924   -1.5878 C   0  0  0  0  0  0  0  0  0  0  0  0
    2.2060    0.4989   -0.8724 N   0  0  0  0  0  0  0  0  0  0  0  0
    2.7643    0.7237    0.3641 C   0  0  0  0  0  0  0  0  0  0  0  0
    2.5969    0.0145    1.5818 C   0  0  0  0  0  0  0  0  0  0  0  0
    2.1601   -1.2637    1.8069 N   0  0  0  0  0  0  0  0  0  0  0  0
    2.0410   -1.3262    3.1642 C   0  0  0  0  0  0  0  0  0  0  0  0
    1.4526   -2.2523    4.0419 C   0  0  0  0  0  0  0  0  0  0  0  0
    0.6730   -3.4800    3.6380 C   0  0  0  0  0  0  0  0  0  0  0  0
   -0.7086   -3.1056    3.1011 C   0  0  0  0  0  0  0  0  0  0  0  0
    2.4122   -2.4120    0.9241 C   0  0  0  0  0  0  0  0  0  0  0  0
    3.6311   -3.2088    1.3885 C   0  0  0  0  0  0  0  0  0  0  0  0
    1.0152   -0.3089   -1.1883 C   0  0  0  0  0  0  0  0  0  0  0  0
    1.2777   -1.2676   -2.3568 C   0  0  0  0  0  0  0  0  0  0  0  0
    0.5670    3.4673   -6.1206 C   0  0  0  0  0  0  0  0  0  0  0  0
    1.0524    3.0284   -7.2910 C   0  0  0  0  0  0  0  0  0  0  0  0
    0.3306    3.3389   -8.7743 S   0  0  0  0  0  0  0  0  0  0  0  0
    1.4917    2.5197   -9.6936 C   0  0  0  0  0  0  0  0  0  0  0  0
    1.4327    2.4049  -11.0431 C   0  0  0  0  0  0  0  0  0  0  0  0
    0.3326    2.9748  -11.7829 C   0  0  0  0  0  0  0  0  0  0  0  0
   -0.5510    3.4245  -12.3830 N   0  0  0  0  0  0  0  0  0  0  0  0
    2.4105    1.6958  -11.8299 C   0  0  0  0  0  0  0  0  0  0  0  0
    3.1871    1.1254  -12.4732 N   0  0  0  0  0  0  0  0  0  0  0  0
    2.4529    2.0069   -8.8633 N   0  0  0  0  0  0  0  0  0  0  0  0
    3.5935    1.2305   -9.2565 C   0  0  0  0  0  0  0  0  0  0  0  0
    4.8018    1.8658   -9.5845 C   0  0  0  0  0  0  0  0  0  0  0  0
    5.9295    1.1017   -9.9119 C   0  0  0  0  0  0  0  0  0  0  0  0
    5.8544   -0.2969   -9.9135 C   0  0  0  0  0  0  0  0  0  0  0  0
    4.6524   -0.9294   -9.5892 C   0  0  0  0  0  0  0  0  0  0  0  0
    3.5231   -0.1703   -9.2579 C   0  0  0  0  0  0  0  0  0  0  0  0
    2.2136    2.2902   -7.5448 C   0  0  0  0  0  0  0  0  0  0  0  0
    3.0024    1.9126   -6.6308 O   0  0  0  0  0  0  0  0  0  0  0  0
    1.0382   -3.1949    6.8995 H   0  0  0  0  0  0  0  0  0  0  0  0
   -3.5710    0.7325    5.2421 H   0  0  0  0  0  0  0  0  0  0  0  0
   -4.2150   -2.7329    8.9261 H   0  0  0  0  0  0  0  0  0  0  0  0
   -6.9660   -0.6021    8.5888 H   0  0  0  0  0  0  0  0  0  0  0  0
   -7.4223   -3.1146    7.5015 H   0  0  0  0  0  0  0  0  0  0  0  0
   -9.7168   -1.8169    7.1682 H   0  0  0  0  0  0  0  0  0  0  0  0
   -9.3989   -0.0771    5.2454 H   0  0  0  0  0  0  0  0  0  0  0  0
   -6.9024   -0.2631    4.3633 H   0  0  0  0  0  0  0  0  0  0  0  0
   -7.5056   -2.8031    4.8595 H   0  0  0  0  0  0  0  0  0  0  0  0
   -5.8291   -2.4625    5.4499 H   0  0  0  0  0  0  0  0  0  0  0  0
   -6.6837    0.9996    6.8282 H   0  0  0  0  0  0  0  0  0  0  0  0
    2.9123    5.9857   -3.7583 H   0  0  0  0  0  0  0  0  0  0  0  0
    2.3536    5.6859   -5.4301 H   0  0  0  0  0  0  0  0  0  0  0  0
    0.5430    6.2129   -2.9782 H   0  0  0  0  0  0  0  0  0  0  0  0
    0.9604    7.4077   -4.2659 H   0  0  0  0  0  0  0  0  0  0  0  0
   -0.0312    5.9622   -4.6767 H   0  0  0  0  0  0  0  0  0  0  0  0
    1.2222   -4.0666    2.8791 H   0  0  0  0  0  0  0  0  0  0  0  0
    0.5473   -4.1488    4.5172 H   0  0  0  0  0  0  0  0  0  0  0  0
   -1.2425   -2.4383    3.8090 H   0  0  0  0  0  0  0  0  0  0  0  0
   -1.3111   -4.0241    2.9674 H   0  0  0  0  0  0  0  0  0  0  0  0
   -0.6188   -2.5845    2.1256 H   0  0  0  0  0  0  0  0  0  0  0  0
    2.6612   -2.0625   -0.0912 H   0  0  0  0  0  0  0  0  0  0  0  0
    1.5154   -3.0624    0.8592 H   0  0  0  0  0  0  0  0  0  0  0  0
    3.8162   -4.0477    0.6868 H   0  0  0  0  0  0  0  0  0  0  0  0
    4.5310   -2.5545    1.4000 H   0  0  0  0  0  0  0  0  0  0  0  0
    3.4814   -3.6260    2.4061 H   0  0  0  0  0  0  0  0  0  0  0  0
    0.1835    0.3734   -1.4619 H   0  0  0  0  0  0  0  0  0  0  0  0
    0.6492   -0.8657   -0.3047 H   0  0  0  0  0  0  0  0  0  0  0  0
    0.3772   -1.3158   -3.0096 H   0  0  0  0  0  0  0  0  0  0  0  0
    1.4772   -2.2961   -1.9902 H   0  0  0  0  0  0  0  0  0  0  0  0
    2.1406   -0.9351   -2.9700 H   0  0  0  0  0  0  0  0  0  0  0  0
   -0.3305    4.0705   -6.1182 H   0  0  0  0  0  0  0  0  0  0  0  0
    4.8661    2.9489   -9.5781 H   0  0  0  0  0  0  0  0  0  0  0  0
    6.8590    1.5985  -10.1676 H   0  0  0  0  0  0  0  0  0  0  0  0
    6.7265   -0.8838  -10.1688 H   0  0  0  0  0  0  0  0  0  0  0  0
    4.5931   -2.0074   -9.5952 H   0  0  0  0  0  0  0  0  0  0  0  0
    2.5958   -0.6638   -8.9967 H   0  0  0  0  0  0  0  0  0  0  0  0
  1  2  2  3
  2  3  1  0
  3  4  2  0
  3  5  1  0
  5  6  2  0
  6  7  1  0
  7  8  2  0
  8  9  1  0
  9 10  2  0
 10 11  1  0
 11 12  2  3
 12 13  1  0
 13 14  3  0
 12 15  1  0
 15 16  3  0
  8 17  1  0
 17 18  1  0
 18 19  1  0
 19 20  2  0
 20 21  1  0
 21 22  1  0
 21 23  1  0
  1 24  1  0
 24 25  1  0
 25 26  1  0
 26 27  1  0
 27 28  1  0
 28 29  1  0
 29 30  2  0
 30 31  1  0
 31 32  1  0
 29 33  1  0
 33 34  1  0
 34 35  1  0
 35 36  1  0
 36 37  1  0
 37 38  1  0
 38 39  1  0
 37 40  2  0
 40 41  1  0
 41 42  1  0
 42 43  1  0
 43 44  1  0
 44 45  1  0
 45 46  1  0
 46 47  1  0
 47 48  1  0
 48 49  1  0
 49 50  1  0
 50 51  1  0
 47 52  1  0
 52 53  1  0
 44 54  1  0
 54 55  1  0
 40 56  1  0
 56 57  2  3
 57 58  1  0
 58 59  1  0
 59 60  2  3
 60 61  1  0
 61 62  3  0
 60 63  1  0
 63 64  3  0
 59 65  1  0
 65 66  1  0
 66 67  2  0
 67 68  1  0
 68 69  2  0
 69 70  1  0
 70 71  2  0
 65 72  1  0
 72 73  2  0
 11  2  1  0
 23 17  1  0
 49 24  2  0
 72 57  1  0
 10  5  1  0
 22 18  1  0
 48 26  2  0
 71 66  1  0
 23  7  1  0
 46 27  2  0
 32 28  2  0
 45 33  2  0
 43 34  2  0
 42 36  2  0
  1 74  1  0
  6 75  1  0
  9 76  1  0
 17 77  1  0
 18 78  1  0
 19 79  1  0
 20 80  1  0
 21 81  1  0
 22 82  1  0
 22 83  1  0
 23 84  1  0
 38 85  1  0
 38 86  1  0
 39 87  1  0
 39 88  1  0
 39 89  1  0
 50 90  1  0
 50 91  1  0
 51 92  1  0
 51 93  1  0
 51 94  1  0
 52 95  1  0
 52 96  1  0
 53 97  1  0
 53 98  1  0
 53 99  1  0
 54100  1  0
 54101  1  0
 55102  1  0
 55103  1  0
 55104  1  0
 56105  1  0
 67106  1  0
 68107  1  0
 69108  1  0
 70109  1  0
 71110  1  0
M  END

