
     RDKit          3D

134149  0  0  0  0  0  0  0  0999 V2000
    2.4640   -4.5497    5.3552 C   0  0  0  0  0  0  0  0  0  0  0  0
    3.4561   -4.4174    4.4528 C   0  0  0  0  0  0  0  0  0  0  0  0
    3.2788   -4.0317    3.0448 C   0  0  0  0  0  0  0  0  0  0  0  0
    2.2074   -4.0725    2.3826 O   0  0  0  0  0  0  0  0  0  0  0  0
    4.5426   -3.5604    2.5306 C   0  0  0  0  0  0  0  0  0  0  0  0
    4.7753   -2.9580    1.2730 C   0  0  0  0  0  0  0  0  0  0  0  0
    6.0617   -2.4833    1.1099 C   0  0  0  0  0  0  0  0  0  0  0  0
    7.0654   -2.5800    2.1262 C   0  0  0  0  0  0  0  0  0  0  0  0
    6.8424   -3.1673    3.3615 C   0  0  0  0  0  0  0  0  0  0  0  0
    5.5301   -3.6909    3.5398 C   0  0  0  0  0  0  0  0  0  0  0  0
    4.9216   -4.3453    4.7341 C   0  0  0  0  0  0  0  0  0  0  0  0
    5.5834   -4.9524    5.7530 C   0  0  0  0  0  0  0  0  0  0  0  0
    7.0186   -4.9377    5.8630 C   0  0  0  0  0  0  0  0  0  0  0  0
    8.1723   -4.9356    5.9633 N   0  0  0  0  0  0  0  0  0  0  0  0
    4.9092   -5.7735    6.7259 C   0  0  0  0  0  0  0  0  0  0  0  0
    4.3760   -6.4369    7.5117 N   0  0  0  0  0  0  0  0  0  0  0  0
    8.0392   -1.8423    1.2581 C   0  0  0  0  0  0  0  0  0  0  0  0
    8.3143   -0.3556    1.6300 C   0  0  0  0  0  0  0  0  0  0  0  0
    8.9837    0.2555    0.4235 C   0  0  0  0  0  0  0  0  0  0  0  0
    8.0481    0.3392   -0.5291 C   0  0  0  0  0  0  0  0  0  0  0  0
    6.7785   -0.2177    0.0674 C   0  0  0  0  0  0  0  0  0  0  0  0
    6.9477    0.2934    1.4881 C   0  0  0  0  0  0  0  0  0  0  0  0
    7.0123   -1.7496    0.2150 C   0  0  0  0  0  0  0  0  0  0  0  0
    1.0514   -4.4053    4.9856 C   0  0  0  0  0  0  0  0  0  0  0  0
    0.2453   -5.4246    4.4571 C   0  0  0  0  0  0  0  0  0  0  0  0
    0.6318   -6.8459    4.3979 C   0  0  0  0  0  0  0  0  0  0  0  0
    1.2776   -7.3229    3.2473 C   0  0  0  0  0  0  0  0  0  0  0  0
    1.6726   -8.6593    3.1606 C   0  0  0  0  0  0  0  0  0  0  0  0
    1.4267   -9.5313    4.2212 C   0  0  0  0  0  0  0  0  0  0  0  0
    0.7731   -9.0738    5.3668 C   0  0  0  0  0  0  0  0  0  0  0  0
    0.3553   -7.7348    5.4658 C   0  0  0  0  0  0  0  0  0  0  0  0
   -0.3666   -7.2913    6.7196 C   0  0  0  0  0  0  0  0  0  0  0  0
    0.6157   -7.0077    7.8511 C   0  0  0  0  0  0  0  0  0  0  0  0
   -0.8897   -4.8987    3.8381 C   0  0  0  0  0  0  0  0  0  0  0  0
   -1.9433   -5.5582    2.6822 S   0  0  0  0  0  0  0  0  0  0  0  0
   -2.5725   -4.0251    2.3104 C   0  0  0  0  0  0  0  0  0  0  0  0
   -3.0534   -3.4694    1.1574 C   0  0  0  0  0  0  0  0  0  0  0  0
   -3.3527   -4.0989   -0.0592 C   0  0  0  0  0  0  0  0  0  0  0  0
   -3.4362   -3.3099   -1.2395 C   0  0  0  0  0  0  0  0  0  0  0  0
   -3.6765   -3.9616   -2.4044 N   0  0  0  0  0  0  0  0  0  0  0  0
   -3.7531   -5.5168   -1.8416 S   0  0  0  0  0  0  0  0  0  0  0  0
   -3.5020   -5.4391   -0.2074 N   0  0  0  0  0  0  0  0  0  0  0  0
   -3.2620   -1.9303   -1.1334 C   0  0  0  0  0  0  0  0  0  0  0  0
   -3.3049   -0.9478   -2.0771 C   0  0  0  0  0  0  0  0  0  0  0  0
   -3.4556   -0.7637   -3.7590 S   0  0  0  0  0  0  0  0  0  0  0  0
   -3.3397    0.9346   -3.5976 C   0  0  0  0  0  0  0  0  0  0  0  0
   -3.2488    1.9773   -4.5188 C   0  0  0  0  0  0  0  0  0  0  0  0
   -3.2227    1.7689   -5.9763 C   0  0  0  0  0  0  0  0  0  0  0  0
   -4.4121    1.6323   -6.7315 C   0  0  0  0  0  0  0  0  0  0  0  0
   -5.7792    1.7801   -6.1041 C   0  0  0  0  0  0  0  0  0  0  0  0
   -6.2691    3.2221   -6.2087 C   0  0  0  0  0  0  0  0  0  0  0  0
   -4.3197    1.4282   -8.1204 C   0  0  0  0  0  0  0  0  0  0  0  0
   -3.0732    1.3378   -8.7441 C   0  0  0  0  0  0  0  0  0  0  0  0
   -1.9045    1.4644   -7.9933 C   0  0  0  0  0  0  0  0  0  0  0  0
   -1.9776    1.6814   -6.6166 C   0  0  0  0  0  0  0  0  0  0  0  0
   -3.0704    3.2415   -3.8819 C   0  0  0  0  0  0  0  0  0  0  0  0
   -2.9327    2.9547   -2.1805 S   0  0  0  0  0  0  0  0  0  0  0  0
   -3.2028    1.3091   -2.2880 C   0  0  0  0  0  0  0  0  0  0  0  0
   -3.1706    0.2265   -1.4263 C   0  0  0  0  0  0  0  0  0  0  0  0
   -3.0508    0.0892   -0.0837 N   0  0  0  0  0  0  0  0  0  0  0  0
   -3.0251   -1.2788    0.0929 C   0  0  0  0  0  0  0  0  0  0  0  0
   -2.8045   -2.0844    1.2522 C   0  0  0  0  0  0  0  0  0  0  0  0
   -2.0800   -1.8181    2.3934 N   0  0  0  0  0  0  0  0  0  0  0  0
   -1.9633   -3.0262    3.0074 C   0  0  0  0  0  0  0  0  0  0  0  0
   -0.9992   -3.5296    3.8835 C   0  0  0  0  0  0  0  0  0  0  0  0
    0.3415   -2.8944    4.6678 S   0  0  0  0  0  0  0  0  0  0  0  0
   -1.2380   -0.6570    2.7058 C   0  0  0  0  0  0  0  0  0  0  0  0
   -0.0675   -0.5412    1.7336 C   0  0  0  0  0  0  0  0  0  0  0  0
   -3.3749    1.1727    0.8585 C   0  0  0  0  0  0  0  0  0  0  0  0
   -4.4432    0.7614    1.8744 C   0  0  0  0  0  0  0  0  0  0  0  0
   -2.6915    4.4994   -4.6233 C   0  0  0  0  0  0  0  0  0  0  0  0
   -2.0763    5.5864   -4.1284 C   0  0  0  0  0  0  0  0  0  0  0  0
   -1.1563    6.3395   -5.0062 C   0  0  0  0  0  0  0  0  0  0  0  0
   -0.6857    5.7929   -6.0432 O   0  0  0  0  0  0  0  0  0  0  0  0
   -0.8121    7.7026   -4.6809 N   0  0  0  0  0  0  0  0  0  0  0  0
    0.2242    8.4078   -5.4489 C   0  0  0  0  0  0  0  0  0  0  0  0
   -0.3959    9.1529   -6.6245 C   0  0  0  0  0  0  0  0  0  0  0  0
   -1.5699    8.4017   -3.6696 C   0  0  0  0  0  0  0  0  0  0  0  0
   -1.3383    9.6213   -3.4372 O   0  0  0  0  0  0  0  0  0  0  0  0
   -2.6995    7.6971   -2.9498 C   0  0  0  0  0  0  0  0  0  0  0  0
   -3.0016    8.3357   -1.6545 C   0  0  0  0  0  0  0  0  0  0  0  0
   -3.2385    8.8362   -0.6386 N   0  0  0  0  0  0  0  0  0  0  0  0
   -2.3931    6.1893   -2.7729 C   0  0  0  0  0  0  0  0  0  0  0  0
   -1.2163    5.9420   -1.8052 C   0  0  0  0  0  0  0  0  0  0  0  0
    2.6809   -4.6291    6.4064 H   0  0  0  0  0  0  0  0  0  0  0  0
    4.0074   -2.8378    0.5203 H   0  0  0  0  0  0  0  0  0  0  0  0
    7.6089   -3.1616    4.1171 H   0  0  0  0  0  0  0  0  0  0  0  0
    8.9319   -2.4442    0.9787 H   0  0  0  0  0  0  0  0  0  0  0  0
    8.8337   -0.1885    2.5964 H   0  0  0  0  0  0  0  0  0  0  0  0
    9.9937    0.6440    0.3576 H   0  0  0  0  0  0  0  0  0  0  0  0
    8.1690    0.8081   -1.4998 H   0  0  0  0  0  0  0  0  0  0  0  0
    5.8415    0.0805   -0.4491 H   0  0  0  0  0  0  0  0  0  0  0  0
    6.1851   -0.0854    2.2028 H   0  0  0  0  0  0  0  0  0  0  0  0
    6.9762    1.4075    1.5585 H   0  0  0  0  0  0  0  0  0  0  0  0
    7.2535   -2.2950   -0.7242 H   0  0  0  0  0  0  0  0  0  0  0  0
    1.4749   -6.6595    2.4154 H   0  0  0  0  0  0  0  0  0  0  0  0
    2.1715   -9.0175    2.2701 H   0  0  0  0  0  0  0  0  0  0  0  0
    1.7378  -10.5656    4.1530 H   0  0  0  0  0  0  0  0  0  0  0  0
    0.5844   -9.7667    6.1781 H   0  0  0  0  0  0  0  0  0  0  0  0
   -1.0703   -8.0882    7.0448 H   0  0  0  0  0  0  0  0  0  0  0  0
   -0.9830   -6.3863    6.5338 H   0  0  0  0  0  0  0  0  0  0  0  0
    0.0618   -6.6460    8.7416 H   0  0  0  0  0  0  0  0  0  0  0  0
    1.3425   -6.2299    7.5472 H   0  0  0  0  0  0  0  0  0  0  0  0
    1.1642   -7.9338    8.1266 H   0  0  0  0  0  0  0  0  0  0  0  0
   -6.5070    1.1140   -6.6176 H   0  0  0  0  0  0  0  0  0  0  0  0
   -5.7681    1.4702   -5.0382 H   0  0  0  0  0  0  0  0  0  0  0  0
   -7.2097    3.3384   -5.6312 H   0  0  0  0  0  0  0  0  0  0  0  0
   -5.5141    3.9249   -5.8012 H   0  0  0  0  0  0  0  0  0  0  0  0
   -6.4745    3.4776   -7.2687 H   0  0  0  0  0  0  0  0  0  0  0  0
   -5.2168    1.3445   -8.7219 H   0  0  0  0  0  0  0  0  0  0  0  0
   -3.0135    1.1730   -9.8116 H   0  0  0  0  0  0  0  0  0  0  0  0
   -0.9397    1.3957   -8.4791 H   0  0  0  0  0  0  0  0  0  0  0  0
   -1.0603    1.7739   -6.0450 H   0  0  0  0  0  0  0  0  0  0  0  0
   -0.8473   -0.7271    3.7367 H   0  0  0  0  0  0  0  0  0  0  0  0
   -1.8291    0.2591    2.7503 H   0  0  0  0  0  0  0  0  0  0  0  0
   -0.4305   -0.3357    0.7062 H   0  0  0  0  0  0  0  0  0  0  0  0
    0.5967    0.2906    2.0464 H   0  0  0  0  0  0  0  0  0  0  0  0
    0.5170   -1.4862    1.7302 H   0  0  0  0  0  0  0  0  0  0  0  0
   -3.8131    2.0284    0.3048 H   0  0  0  0  0  0  0  0  0  0  0  0
   -2.4598    1.5920    1.3132 H   0  0  0  0  0  0  0  0  0  0  0  0
   -4.0922   -0.0451    2.5459 H   0  0  0  0  0  0  0  0  0  0  0  0
   -4.7151    1.6372    2.5004 H   0  0  0  0  0  0  0  0  0  0  0  0
   -5.3533    0.4103    1.3425 H   0  0  0  0  0  0  0  0  0  0  0  0
   -3.6582    4.2659   -4.2040 H   0  0  0  0  0  0  0  0  0  0  0  0
    0.7623    9.1283   -4.7963 H   0  0  0  0  0  0  0  0  0  0  0  0
    0.9848    7.6911   -5.8262 H   0  0  0  0  0  0  0  0  0  0  0  0
   -1.1300    9.9024   -6.2609 H   0  0  0  0  0  0  0  0  0  0  0  0
   -0.9101    8.4404   -7.3020 H   0  0  0  0  0  0  0  0  0  0  0  0
    0.3976    9.6798   -7.1934 H   0  0  0  0  0  0  0  0  0  0  0  0
   -3.6081    7.7964   -3.5820 H   0  0  0  0  0  0  0  0  0  0  0  0
   -3.3026    5.7148   -2.3435 H   0  0  0  0  0  0  0  0  0  0  0  0
   -0.9182    4.8743   -1.8087 H   0  0  0  0  0  0  0  0  0  0  0  0
   -1.5075    6.2099   -0.7682 H   0  0  0  0  0  0  0  0  0  0  0  0
   -0.3258    6.5409   -2.0913 H   0  0  0  0  0  0  0  0  0  0  0  0
  1  2  2  3
  2  3  1  0
  3  4  2  0
  3  5  1  0
  5  6  2  0
  6  7  1  0
  7  8  2  0
  8  9  1  0
  9 10  2  0
 10 11  1  0
 11 12  2  3
 12 13  1  0
 13 14  3  0
 12 15  1  0
 15 16  3  0
  8 17  1  0
 17 18  1  0
 18 19  1  0
 19 20  2  0
 20 21  1  0
 21 22  1  0
 21 23  1  0
  1 24  1  0
 24 25  2  0
 25 26  1  0
 26 27  2  0
 27 28  1  0
 28 29  2  0
 29 30  1  0
 30 31  2  0
 31 32  1  0
 32 33  1  0
 25 34  1  0
 34 35  1  0
 35 36  1  0
 36 37  1  0
 37 38  1  0
 38 39  1  0
 39 40  2  0
 40 41  1  0
 41 42  1  0
 39 43  1  0
 43 44  1  0
 44 45  1  0
 45 46  1  0
 46 47  1  0
 47 48  1  0
 48 49  2  0
 49 50  1  0
 50 51  1  0
 49 52  1  0
 52 53  2  0
 53 54  1  0
 54 55  2  0
 47 56  2  0
 56 57  1  0
 57 58  1  0
 58 59  1  0
 59 60  1  0
 60 61  1  0
 61 62  1  0
 62 63  1  0
 63 64  1  0
 64 65  1  0
 65 66  1  0
 63 67  1  0
 67 68  1  0
 60 69  1  0
 69 70  1  0
 56 71  1  0
 71 72  2  3
 72 73  1  0
 73 74  2  0
 73 75  1  0
 75 76  1  0
 76 77  1  0
 75 78  1  0
 78 79  2  0
 78 80  1  0
 80 81  1  0
 81 82  3  0
 80 83  1  0
 83 84  1  0
 11  2  1  0
 23 17  1  0
 66 24  1  0
 83 72  1  0
 10  5  1  0
 22 18  1  0
 31 26  1  0
 65 34  2  0
 23  7  1  0
 64 36  2  0
 62 37  2  0
 42 38  2  0
 61 43  2  0
 59 44  2  0
 58 46  2  0
 55 48  1  0
  1 85  1  0
  6 86  1  0
  9 87  1  0
 17 88  1  0
 18 89  1  0
 19 90  1  0
 20 91  1  0
 21 92  1  0
 22 93  1  0
 22 94  1  0
 23 95  1  0
 27 96  1  0
 28 97  1  0
 29 98  1  0
 30 99  1  0
 32100  1  0
 32101  1  0
 33102  1  0
 33103  1  0
 33104  1  0
 50105  1  0
 50106  1  0
 51107  1  0
 51108  1  0
 51109  1  0
 52110  1  0
 53111  1  0
 54112  1  0
 55113  1  0
 67114  1  0
 67115  1  0
 68116  1  0
 68117  1  0
 68118  1  0
 69119  1  0
 69120  1  0
 70121  1  0
 70122  1  0
 70123  1  0
 71124  1  0
 76125  1  0
 76126  1  0
 77127  1  0
 77128  1  0
 77129  1  0
 80130  1  0
 83131  1  0
 84132  1  0
 84133  1  0
 84134  1  0
M  END

