
     RDKit          3D

 95109  0  0  0  0  0  0  0  0999 V2000
   -3.9921    0.8834   -6.4574 C   0  0  0  0  0  0  0  0  0  0  0  0
   -2.6510    1.0138   -6.7674 C   0  0  0  0  0  0  0  0  0  0  0  0
   -1.6999    0.0242   -6.3751 C   0  0  0  0  0  0  0  0  0  0  0  0
   -2.0228   -1.2105   -5.9732 O   0  0  0  0  0  0  0  0  0  0  0  0
   -0.3637    0.3658   -6.4207 C   0  0  0  0  0  0  0  0  0  0  0  0
    0.8573   -0.1533   -6.2035 C   0  0  0  0  0  0  0  0  0  0  0  0
    2.0620    0.3976   -6.3646 C   0  0  0  0  0  0  0  0  0  0  0  0
    1.9823    1.6340   -6.8047 C   0  0  0  0  0  0  0  0  0  0  0  0
    0.9078    2.3876   -7.1118 C   0  0  0  0  0  0  0  0  0  0  0  0
   -0.3669    1.8150   -6.9428 C   0  0  0  0  0  0  0  0  0  0  0  0
   -1.8094    2.1453   -7.1284 C   0  0  0  0  0  0  0  0  0  0  0  0
   -2.1693    3.2164   -7.6394 C   0  0  0  0  0  0  0  0  0  0  0  0
   -3.1845    4.0653   -8.1906 C   0  0  0  0  0  0  0  0  0  0  0  0
   -3.9131    4.6970   -8.5946 N   0  0  0  0  0  0  0  0  0  0  0  0
   -1.1164    4.2081   -7.4210 C   0  0  0  0  0  0  0  0  0  0  0  0
   -0.0404    5.1860   -7.2049 N   0  0  0  0  0  0  0  0  0  0  0  0
    3.4965    1.7999   -6.5485 C   0  0  0  0  0  0  0  0  0  0  0  0
    3.7678    2.2508   -5.1073 C   0  0  0  0  0  0  0  0  0  0  0  0
    2.6683    1.7041   -4.2988 C   0  0  0  0  0  0  0  0  0  0  0  0
    2.9103    0.3904   -4.0814 C   0  0  0  0  0  0  0  0  0  0  0  0
    4.0500    0.0416   -4.9786 C   0  0  0  0  0  0  0  0  0  0  0  0
    4.9058    1.2585   -4.7522 C   0  0  0  0  0  0  0  0  0  0  0  0
    3.5823    0.3353   -6.3470 C   0  0  0  0  0  0  0  0  0  0  0  0
   -4.1680   -0.3020   -5.7097 C   0  0  0  0  0  0  0  0  0  0  0  0
   -4.3405   -1.4185   -5.0225 C   0  0  0  0  0  0  0  0  0  0  0  0
   -4.0928   -1.9271   -3.9237 C   0  0  0  0  0  0  0  0  0  0  0  0
   -4.4214   -3.4432   -2.9562 S   0  0  0  0  0  0  0  0  0  0  0  0
   -3.6260   -2.9728   -1.4779 C   0  0  0  0  0  0  0  0  0  0  0  0
   -3.2900   -3.2439   -0.1836 C   0  0  0  0  0  0  0  0  0  0  0  0
   -3.4572   -4.4134    0.6059 C   0  0  0  0  0  0  0  0  0  0  0  0
   -2.8857   -4.2859    1.8742 C   0  0  0  0  0  0  0  0  0  0  0  0
   -3.0169   -5.6020    2.5082 N   0  0  0  0  0  0  0  0  0  0  0  0
   -3.7609   -6.5759    1.4571 S   0  0  0  0  0  0  0  0  0  0  0  0
   -3.9473   -5.4959    0.2279 N   0  0  0  0  0  0  0  0  0  0  0  0
   -2.2401   -3.1729    2.3859 C   0  0  0  0  0  0  0  0  0  0  0  0
   -1.7834   -3.0412    3.6626 C   0  0  0  0  0  0  0  0  0  0  0  0
   -1.3073   -1.5479    3.6374 C   0  0  0  0  0  0  0  0  0  0  0  0
   -1.5466   -1.0942    2.4015 N   0  0  0  0  0  0  0  0  0  0  0  0
   -1.4352    0.3389    2.1266 C   0  0  0  0  0  0  0  0  0  0  0  0
   -2.6767    1.1549    2.2266 C   0  0  0  0  0  0  0  0  0  0  0  0
   -2.0885   -2.0507    1.6494 C   0  0  0  0  0  0  0  0  0  0  0  0
   -2.6042   -2.1530    0.3639 C   0  0  0  0  0  0  0  0  0  0  0  0
   -2.5320   -1.2669   -0.6516 N   0  0  0  0  0  0  0  0  0  0  0  0
   -3.1177   -1.6448   -1.7546 C   0  0  0  0  0  0  0  0  0  0  0  0
   -3.4938   -1.4209   -2.9812 C   0  0  0  0  0  0  0  0  0  0  0  0
   -3.1063    0.4446   -3.9258 Se  0  0  0  0  0  2  0  0  0  0  0  0
   -1.5308   -0.1751   -0.6236 C   0  0  0  0  0  0  0  0  0  0  0  0
   -0.1600   -0.7812   -0.7250 C   0  0  0  0  0  0  0  0  0  0  0  0
   -0.9127   -1.5567    4.8334 C   0  0  0  0  0  0  0  0  0  0  0  0
   -0.5890   -1.6011    5.8500 C   0  0  0  0  0  0  0  0  0  0  0  0
   -1.4443   -3.4852    5.2232 S   0  0  0  0  0  0  0  0  0  0  0  0
   -0.2477   -1.6646    6.9742 C   0  0  0  0  0  0  0  0  0  0  0  0
    0.6969   -0.9792    7.4321 C   0  0  0  0  0  0  0  0  0  0  0  0
    0.8275   -0.0956    5.1772 Se  0  0  0  0  0  2  0  0  0  0  0  0
    1.8437   -0.1527    7.7696 C   0  0  0  0  0  0  0  0  0  0  0  0
    1.6659    0.9148    8.5788 C   0  0  0  0  0  0  0  0  0  0  0  0
    0.7039    1.5472    9.2779 C   0  0  0  0  0  0  0  0  0  0  0  0
   -0.4670    1.1323    9.6510 O   0  0  0  0  0  0  0  0  0  0  0  0
    1.1362    2.9361    9.6296 C   0  0  0  0  0  0  0  0  0  0  0  0
    0.6729    4.3629   10.4097 S   0  0  0  0  0  0  0  0  0  0  0  0
    2.0047    5.2831   10.1506 C   0  0  0  0  0  0  0  0  0  0  0  0
    2.4475    6.9607   10.6124 Cl  0  0  0  0  0  0  0  0  0  0  0  0
    2.9374    4.4560    9.3889 C   0  0  0  0  0  0  0  0  0  0  0  0
    2.3348    3.1953    9.1778 C   0  0  0  0  0  0  0  0  0  0  0  0
    2.8361    1.9778    8.4678 C   0  0  0  0  0  0  0  0  0  0  0  0
    3.7762    1.7269    7.6967 C   0  0  0  0  0  0  0  0  0  0  0  0
    4.3835    0.9040    6.7640 C   0  0  0  0  0  0  0  0  0  0  0  0
    4.8855    0.2212    5.9725 N   0  0  0  0  0  0  0  0  0  0  0  0
    4.9328    2.7545    8.1175 C   0  0  0  0  0  0  0  0  0  0  0  0
    5.7639    3.5178    8.4145 N   0  0  0  0  0  0  0  0  0  0  0  0
   -4.7217    1.5258   -6.7566 H   0  0  0  0  0  0  0  0  0  0  0  0
    0.8074   -1.2079   -5.7799 H   0  0  0  0  0  0  0  0  0  0  0  0
    0.9892    3.3212   -7.4982 H   0  0  0  0  0  0  0  0  0  0  0  0
    4.0294    2.3060   -7.3209 H   0  0  0  0  0  0  0  0  0  0  0  0
    4.0303    3.2929   -4.9797 H   0  0  0  0  0  0  0  0  0  0  0  0
    1.8321    2.2066   -3.9129 H   0  0  0  0  0  0  0  0  0  0  0  0
    2.4543   -0.2944   -3.4096 H   0  0  0  0  0  0  0  0  0  0  0  0
    4.5485   -0.8482   -4.8412 H   0  0  0  0  0  0  0  0  0  0  0  0
    5.2197    1.3824   -3.6803 H   0  0  0  0  0  0  0  0  0  0  0  0
    5.7572    1.3230   -5.4363 H   0  0  0  0  0  0  0  0  0  0  0  0
    3.9696   -0.2771   -7.1419 H   0  0  0  0  0  0  0  0  0  0  0  0
   -4.9216   -2.1036   -5.8962 H   0  0  0  0  0  0  0  0  0  0  0  0
   -0.8618    0.7021    3.1406 H   0  0  0  0  0  0  0  0  0  0  0  0
   -0.6903    0.6985    1.4608 H   0  0  0  0  0  0  0  0  0  0  0  0
   -3.4660    0.5678    2.7732 H   0  0  0  0  0  0  0  0  0  0  0  0
   -3.1477    1.4277    1.2368 H   0  0  0  0  0  0  0  0  0  0  0  0
   -2.5287    2.0880    2.8108 H   0  0  0  0  0  0  0  0  0  0  0  0
   -1.5701    0.1146   -1.8382 H   0  0  0  0  0  0  0  0  0  0  0  0
   -1.7604    0.7933   -0.3685 H   0  0  0  0  0  0  0  0  0  0  0  0
   -0.2760   -1.6557   -1.3662 H   0  0  0  0  0  0  0  0  0  0  0  0
    0.4964   -0.0240   -1.2232 H   0  0  0  0  0  0  0  0  0  0  0  0
    0.2337   -1.1354    0.2224 H   0  0  0  0  0  0  0  0  0  0  0  0
   -0.6530   -2.3198    7.9118 H   0  0  0  0  0  0  0  0  0  0  0  0
    2.8178   -0.4511    7.5073 H   0  0  0  0  0  0  0  0  0  0  0  0
    3.8507    4.8670    9.0764 H   0  0  0  0  0  0  0  0  0  0  0  0
  1  2  2  3
  2  3  1  0
  3  4  2  0
  3  5  1  0
  5  6  2  0
  6  7  1  0
  7  8  2  0
  8  9  1  0
  9 10  2  0
 10 11  1  0
 11 12  2  3
 12 13  1  0
 13 14  3  0
 12 15  1  0
 15 16  3  0
  8 17  1  0
 17 18  1  0
 18 19  1  0
 19 20  2  0
 20 21  1  0
 21 22  1  0
 21 23  1  0
  1 24  1  0
 24 25  2  0
 25 26  1  0
 26 27  1  0
 27 28  1  0
 28 29  1  0
 29 30  1  0
 30 31  1  0
 31 32  2  0
 32 33  1  0
 33 34  1  0
 31 35  1  0
 35 36  1  0
 36 37  2  0
 37 38  1  0
 38 39  1  0
 39 40  1  0
 38 41  1  0
 41 42  1  0
 42 43  1  0
 43 44  1  0
 44 45  1  0
 45 46  1  0
 43 47  1  0
 47 48  1  0
 37 49  1  0
 49 50  2  0
 50 51  1  0
 50 52  1  0
 52 53  2  0
 53 54  1  0
 53 55  1  0
 55 56  2  3
 56 57  1  0
 57 58  2  0
 57 59  1  0
 59 60  1  0
 60 61  1  0
 61 62  1  0
 61 63  2  0
 63 64  1  0
 64 65  1  0
 65 66  2  3
 66 67  1  0
 67 68  3  0
 66 69  1  0
 69 70  3  0
 11  2  1  0
 23 17  1  0
 46 24  1  0
 54 49  1  0
 65 56  1  0
 10  5  1  0
 22 18  1  0
 45 26  2  0
 64 59  2  0
 23  7  1  0
 44 28  2  0
 42 29  2  0
 34 30  2  0
 41 35  2  0
 51 36  1  0
  1 71  1  0
  6 72  1  0
  9 73  1  0
 17 74  1  0
 18 75  1  0
 19 76  1  0
 20 77  1  0
 21 78  1  0
 22 79  1  0
 22 80  1  0
 23 81  1  0
 25 82  1  0
 39 83  1  0
 39 84  1  0
 40 85  1  0
 40 86  1  0
 40 87  1  0
 47 88  1  0
 47 89  1  0
 48 90  1  0
 48 91  1  0
 48 92  1  0
 52 93  1  0
 55 94  1  0
 63 95  1  0
M  END

