
     RDKit          3D

114128  0  0  0  0  0  0  0  0999 V2000
    2.0431   -1.4219   -6.4977 C   0  0  0  0  0  0  0  0  0  0  0  0
    2.3245   -0.1828   -6.1762 C   0  0  0  0  0  0  0  0  0  0  0  0
    1.7438    0.7095   -5.2030 C   0  0  0  0  0  0  0  0  0  0  0  0
    0.6158    0.6498   -4.6878 O   0  0  0  0  0  0  0  0  0  0  0  0
    2.7295    1.7937   -4.8641 C   0  0  0  0  0  0  0  0  0  0  0  0
    2.6023    2.7738   -3.8797 C   0  0  0  0  0  0  0  0  0  0  0  0
    3.6504    3.5701   -3.6140 C   0  0  0  0  0  0  0  0  0  0  0  0
    4.8136    3.4133   -4.3037 C   0  0  0  0  0  0  0  0  0  0  0  0
    4.9404    2.4518   -5.2809 C   0  0  0  0  0  0  0  0  0  0  0  0
    3.7887    1.5622   -5.5765 C   0  0  0  0  0  0  0  0  0  0  0  0
    3.7031    0.3653   -6.4659 C   0  0  0  0  0  0  0  0  0  0  0  0
    4.7187   -0.1034   -7.0820 C   0  0  0  0  0  0  0  0  0  0  0  0
    4.6898   -1.5261   -7.7389 C   0  0  0  0  0  0  0  0  0  0  0  0
    4.6615   -2.4677   -8.1722 N   0  0  0  0  0  0  0  0  0  0  0  0
    5.9170    0.4317   -7.2317 C   0  0  0  0  0  0  0  0  0  0  0  0
    7.1782    0.9704   -7.3783 N   0  0  0  0  0  0  0  0  0  0  0  0
    5.5606    4.4540   -3.4859 C   0  0  0  0  0  0  0  0  0  0  0  0
    6.4697    3.8812   -2.4446 C   0  0  0  0  0  0  0  0  0  0  0  0
    5.9068    2.5029   -2.1512 C   0  0  0  0  0  0  0  0  0  0  0  0
    4.7796    2.6567   -1.5011 C   0  0  0  0  0  0  0  0  0  0  0  0
    4.5278    4.1457   -1.3583 C   0  0  0  0  0  0  0  0  0  0  0  0
    5.9504    4.6037   -1.1893 C   0  0  0  0  0  0  0  0  0  0  0  0
    4.2405    4.6473   -2.7675 C   0  0  0  0  0  0  0  0  0  0  0  0
    0.9637   -2.1862   -5.7531 C   0  0  0  0  0  0  0  0  0  0  0  0
    0.9938   -3.5031   -5.5158 C   0  0  0  0  0  0  0  0  0  0  0  0
    1.8236   -4.4299   -6.3941 C   0  0  0  0  0  0  0  0  0  0  0  0
    1.0000   -4.5914   -7.6901 C   0  0  0  0  0  0  0  0  0  0  0  0
    0.1751   -4.0452   -4.5204 C   0  0  0  0  0  0  0  0  0  0  0  0
   -0.1338   -5.4491   -3.6273 S   0  0  0  0  0  0  0  0  0  0  0  0
   -1.1858   -4.9647   -2.4528 C   0  0  0  0  0  0  0  0  0  0  0  0
   -1.9385   -5.1223   -1.2930 C   0  0  0  0  0  0  0  0  0  0  0  0
   -1.8888   -6.2561   -0.3977 C   0  0  0  0  0  0  0  0  0  0  0  0
   -2.4443   -6.0458    0.8080 C   0  0  0  0  0  0  0  0  0  0  0  0
   -2.3648   -7.1241    1.6571 N   0  0  0  0  0  0  0  0  0  0  0  0
   -1.6149   -8.4452    1.0371 Se  0  0  0  0  0  2  0  0  0  0  0  0
   -1.3250   -7.3316   -0.7911 N   0  0  0  0  0  0  0  0  0  0  0  0
   -3.0471   -4.8505    1.1334 C   0  0  0  0  0  0  0  0  0  0  0  0
   -3.6726   -4.3417    2.2913 C   0  0  0  0  0  0  0  0  0  0  0  0
   -3.8738   -4.7117    3.9723 S   0  0  0  0  0  0  0  0  0  0  0  0
   -4.5473   -3.1675    4.4372 C   0  0  0  0  0  0  0  0  0  0  0  0
   -4.9218   -2.4835    5.6182 C   0  0  0  0  0  0  0  0  0  0  0  0
   -4.8408   -3.1959    6.9716 C   0  0  0  0  0  0  0  0  0  0  0  0
   -3.4348   -3.2581    7.4631 C   0  0  0  0  0  0  0  0  0  0  0  0
   -5.2738   -1.2459    5.4980 C   0  0  0  0  0  0  0  0  0  0  0  0
   -5.1280   -0.9179    3.7850 S   0  0  0  0  0  0  0  0  0  0  0  0
   -4.5854   -2.4689    3.2885 C   0  0  0  0  0  0  0  0  0  0  0  0
   -4.0880   -3.1715    2.1718 C   0  0  0  0  0  0  0  0  0  0  0  0
   -3.7909   -2.7395    0.8518 N   0  0  0  0  0  0  0  0  0  0  0  0
   -3.1522   -3.7243    0.2590 C   0  0  0  0  0  0  0  0  0  0  0  0
   -2.5170   -3.9552   -0.9479 C   0  0  0  0  0  0  0  0  0  0  0  0
   -2.1566   -3.0261   -1.8255 N   0  0  0  0  0  0  0  0  0  0  0  0
   -1.3745   -3.4728   -2.7853 C   0  0  0  0  0  0  0  0  0  0  0  0
   -0.5940   -3.2034   -3.8764 C   0  0  0  0  0  0  0  0  0  0  0  0
   -0.1481   -1.6726   -4.6895 S   0  0  0  0  0  0  0  0  0  0  0  0
   -2.0744   -1.5546   -1.5163 C   0  0  0  0  0  0  0  0  0  0  0  0
   -0.5103   -1.2022   -1.4343 C   0  0  0  0  0  0  0  0  0  0  0  0
   -4.4691   -1.5957    0.2649 C   0  0  0  0  0  0  0  0  0  0  0  0
   -5.8599   -2.1446   -0.2540 C   0  0  0  0  0  0  0  0  0  0  0  0
   -5.6749   -0.0742    6.3799 C   0  0  0  0  0  0  0  0  0  0  0  0
   -4.6089    0.7606    6.4720 C   0  0  0  0  0  0  0  0  0  0  0  0
   -3.3232    0.7002    5.9461 C   0  0  0  0  0  0  0  0  0  0  0  0
   -2.7951   -0.3543    5.3939 O   0  0  0  0  0  0  0  0  0  0  0  0
   -2.6405    1.9632    6.1040 C   0  0  0  0  0  0  0  0  0  0  0  0
   -1.3802    2.2602    5.6287 C   0  0  0  0  0  0  0  0  0  0  0  0
   -0.9751    3.6325    5.8248 C   0  0  0  0  0  0  0  0  0  0  0  0
    0.2985    3.9875    5.3422 O   0  0  0  0  0  0  0  0  0  0  0  0
    1.0890    2.9606    4.7261 C   0  0  0  0  0  0  0  0  0  0  0  0
   -1.7866    4.4478    6.4094 C   0  0  0  0  0  0  0  0  0  0  0  0
   -3.0808    4.2249    6.9213 C   0  0  0  0  0  0  0  0  0  0  0  0
   -3.4723    2.8560    6.7237 C   0  0  0  0  0  0  0  0  0  0  0  0
   -4.7041    2.2160    6.9941 C   0  0  0  0  0  0  0  0  0  0  0  0
   -5.8810    2.5788    7.4707 C   0  0  0  0  0  0  0  0  0  0  0  0
   -7.0848    2.0373    7.6183 C   0  0  0  0  0  0  0  0  0  0  0  0
   -8.2504    1.4982    7.7722 N   0  0  0  0  0  0  0  0  0  0  0  0
   -5.8098    3.9049    7.9093 C   0  0  0  0  0  0  0  0  0  0  0  0
   -5.7551    5.3150    8.3632 N   0  0  0  0  0  0  0  0  0  0  0  0
    2.4748   -1.9189   -7.3015 H   0  0  0  0  0  0  0  0  0  0  0  0
    1.6878    2.8678   -3.3487 H   0  0  0  0  0  0  0  0  0  0  0  0
    5.7892    2.3426   -5.8154 H   0  0  0  0  0  0  0  0  0  0  0  0
    5.9232    5.2577   -4.1076 H   0  0  0  0  0  0  0  0  0  0  0  0
    7.5335    3.9631   -2.5433 H   0  0  0  0  0  0  0  0  0  0  0  0
    6.4127    1.5937   -2.4693 H   0  0  0  0  0  0  0  0  0  0  0  0
    4.1535    1.8996   -1.1174 H   0  0  0  0  0  0  0  0  0  0  0  0
    3.8313    4.4162   -0.6147 H   0  0  0  0  0  0  0  0  0  0  0  0
    6.4544    4.1924   -0.2994 H   0  0  0  0  0  0  0  0  0  0  0  0
    6.1093    5.6926   -1.2568 H   0  0  0  0  0  0  0  0  0  0  0  0
    3.7276    5.6060   -2.8241 H   0  0  0  0  0  0  0  0  0  0  0  0
    2.7531   -3.9691   -6.6961 H   0  0  0  0  0  0  0  0  0  0  0  0
    2.0216   -5.3945   -5.9193 H   0  0  0  0  0  0  0  0  0  0  0  0
   -0.0621   -4.8020   -7.3432 H   0  0  0  0  0  0  0  0  0  0  0  0
    0.9311   -3.6451   -8.2599 H   0  0  0  0  0  0  0  0  0  0  0  0
    1.4355   -5.4117   -8.2650 H   0  0  0  0  0  0  0  0  0  0  0  0
   -5.4331   -2.6094    7.6916 H   0  0  0  0  0  0  0  0  0  0  0  0
   -5.3282   -4.1894    6.8836 H   0  0  0  0  0  0  0  0  0  0  0  0
   -3.2853   -2.8330    8.5107 H   0  0  0  0  0  0  0  0  0  0  0  0
   -3.0432   -4.2948    7.5284 H   0  0  0  0  0  0  0  0  0  0  0  0
   -2.6977   -2.6720    6.8523 H   0  0  0  0  0  0  0  0  0  0  0  0
   -2.5038   -1.0023   -2.2610 H   0  0  0  0  0  0  0  0  0  0  0  0
   -2.2914   -1.4175   -0.4897 H   0  0  0  0  0  0  0  0  0  0  0  0
   -0.0484   -2.1059   -1.8068 H   0  0  0  0  0  0  0  0  0  0  0  0
   -0.3163   -0.3561   -2.0999 H   0  0  0  0  0  0  0  0  0  0  0  0
   -0.2230   -1.0651   -0.3712 H   0  0  0  0  0  0  0  0  0  0  0  0
   -4.1512   -1.1013   -0.5552 H   0  0  0  0  0  0  0  0  0  0  0  0
   -4.7324   -0.8651    1.0678 H   0  0  0  0  0  0  0  0  0  0  0  0
   -6.5920   -2.0843    0.5756 H   0  0  0  0  0  0  0  0  0  0  0  0
   -5.6740   -3.0550   -0.7449 H   0  0  0  0  0  0  0  0  0  0  0  0
   -6.2675   -1.3583   -0.9841 H   0  0  0  0  0  0  0  0  0  0  0  0
   -6.5674    0.0511    6.8271 H   0  0  0  0  0  0  0  0  0  0  0  0
   -0.7301    1.5814    5.1750 H   0  0  0  0  0  0  0  0  0  0  0  0
    1.2882    2.1520    5.4490 H   0  0  0  0  0  0  0  0  0  0  0  0
    0.5928    2.5045    3.8426 H   0  0  0  0  0  0  0  0  0  0  0  0
    2.0181    3.4399    4.3648 H   0  0  0  0  0  0  0  0  0  0  0  0
   -1.4672    5.5429    6.5205 H   0  0  0  0  0  0  0  0  0  0  0  0
   -3.6649    4.9262    7.3581 H   0  0  0  0  0  0  0  0  0  0  0  0
  1  2  2  3
  2  3  1  0
  3  4  2  0
  3  5  1  0
  5  6  2  0
  6  7  1  0
  7  8  2  0
  8  9  1  0
  9 10  2  0
 10 11  1  0
 11 12  2  3
 12 13  1  0
 13 14  3  0
 12 15  1  0
 15 16  3  0
  8 17  1  0
 17 18  1  0
 18 19  1  0
 19 20  2  0
 20 21  1  0
 21 22  1  0
 21 23  1  0
  1 24  1  0
 24 25  2  0
 25 26  1  0
 26 27  1  0
 25 28  1  0
 28 29  1  0
 29 30  1  0
 30 31  1  0
 31 32  1  0
 32 33  1  0
 33 34  2  0
 34 35  1  0
 35 36  1  0
 33 37  1  0
 37 38  1  0
 38 39  1  0
 39 40  1  0
 40 41  1  0
 41 42  1  0
 42 43  1  0
 41 44  2  0
 44 45  1  0
 45 46  1  0
 46 47  1  0
 47 48  1  0
 48 49  1  0
 49 50  1  0
 50 51  1  0
 51 52  1  0
 52 53  1  0
 53 54  1  0
 51 55  1  0
 55 56  1  0
 48 57  1  0
 57 58  1  0
 44 59  1  0
 59 60  2  3
 60 61  1  0
 61 62  2  0
 61 63  1  0
 63 64  2  0
 64 65  1  0
 65 66  1  0
 66 67  1  0
 65 68  2  0
 68 69  1  0
 69 70  2  0
 70 71  1  0
 71 72  2  3
 72 73  1  0
 73 74  3  0
 72 75  1  0
 75 76  3  0
 11  2  1  0
 23 17  1  0
 54 24  1  0
 71 60  1  0
 10  5  1  0
 22 18  1  0
 53 28  2  0
 70 63  1  0
 23  7  1  0
 52 30  2  0
 50 31  2  0
 36 32  2  0
 49 37  2  0
 47 38  2  0
 46 40  2  0
  1 77  1  0
  6 78  1  0
  9 79  1  0
 17 80  1  0
 18 81  1  0
 19 82  1  0
 20 83  1  0
 21 84  1  0
 22 85  1  0
 22 86  1  0
 23 87  1  0
 26 88  1  0
 26 89  1  0
 27 90  1  0
 27 91  1  0
 27 92  1  0
 42 93  1  0
 42 94  1  0
 43 95  1  0
 43 96  1  0
 43 97  1  0
 55 98  1  0
 55 99  1  0
 56100  1  0
 56101  1  0
 56102  1  0
 57103  1  0
 57104  1  0
 58105  1  0
 58106  1  0
 58107  1  0
 59108  1  0
 64109  1  0
 67110  1  0
 67111  1  0
 67112  1  0
 68113  1  0
 69114  1  0
M  END

