
     RDKit          3D

125139  0  0  0  0  0  0  0  0999 V2000
    6.1926    3.2276   -2.9144 C   0  0  0  0  0  0  0  0  0  0  0  0
    6.3502    3.8875   -1.7487 C   0  0  0  0  0  0  0  0  0  0  0  0
    5.3113    4.0511   -0.7232 C   0  0  0  0  0  0  0  0  0  0  0  0
    4.2151    3.4304   -0.6591 O   0  0  0  0  0  0  0  0  0  0  0  0
    5.7326    5.0711    0.2078 C   0  0  0  0  0  0  0  0  0  0  0  0
    4.9712    5.6247    1.2657 C   0  0  0  0  0  0  0  0  0  0  0  0
    5.6037    6.6609    1.9270 C   0  0  0  0  0  0  0  0  0  0  0  0
    6.9083    7.1344    1.5730 C   0  0  0  0  0  0  0  0  0  0  0  0
    7.6523    6.6012    0.5349 C   0  0  0  0  0  0  0  0  0  0  0  0
    7.0317    5.5169   -0.1485 C   0  0  0  0  0  0  0  0  0  0  0  0
    7.5172    4.7234   -1.3177 C   0  0  0  0  0  0  0  0  0  0  0  0
    8.8039    4.6240   -1.7444 C   0  0  0  0  0  0  0  0  0  0  0  0
    9.8905    5.3226   -1.1057 C   0  0  0  0  0  0  0  0  0  0  0  0
   10.7724    5.8717   -0.5956 N   0  0  0  0  0  0  0  0  0  0  0  0
    9.2158    3.7109   -2.7777 C   0  0  0  0  0  0  0  0  0  0  0  0
    9.5681    2.9896   -3.6102 N   0  0  0  0  0  0  0  0  0  0  0  0
    6.8542    8.1577    2.6661 C   0  0  0  0  0  0  0  0  0  0  0  0
    7.6979    7.8655    3.9430 C   0  0  0  0  0  0  0  0  0  0  0  0
    7.1767    8.8055    5.0036 C   0  0  0  0  0  0  0  0  0  0  0  0
    5.9529    8.3704    5.3314 C   0  0  0  0  0  0  0  0  0  0  0  0
    5.6901    7.1520    4.4788 C   0  0  0  0  0  0  0  0  0  0  0  0
    7.0963    6.5701    4.4656 C   0  0  0  0  0  0  0  0  0  0  0  0
    5.5141    7.6788    3.0245 C   0  0  0  0  0  0  0  0  0  0  0  0
    4.9816    2.4550   -3.2264 C   0  0  0  0  0  0  0  0  0  0  0  0
    3.8247    3.1103   -3.7079 C   0  0  0  0  0  0  0  0  0  0  0  0
    2.6376    2.3948   -3.9320 C   0  0  0  0  0  0  0  0  0  0  0  0
    2.6378    1.0241   -3.6652 C   0  0  0  0  0  0  0  0  0  0  0  0
    1.6638    0.0434   -3.7435 C   0  0  0  0  0  0  0  0  0  0  0  0
    2.2547   -1.1225   -3.4043 C   0  0  0  0  0  0  0  0  0  0  0  0
    3.5593   -0.9747   -3.0662 N   0  0  0  0  0  0  0  0  0  0  0  0
    3.7920    0.3567   -3.2568 C   0  0  0  0  0  0  0  0  0  0  0  0
    4.9787    1.0623   -3.0253 C   0  0  0  0  0  0  0  0  0  0  0  0
    4.4877   -1.9901   -2.5614 C   0  0  0  0  0  0  0  0  0  0  0  0
    4.8271   -2.9902   -3.6590 C   0  0  0  0  0  0  0  0  0  0  0  0
    1.2540   -2.0065   -3.0750 C   0  0  0  0  0  0  0  0  0  0  0  0
    1.2316   -3.2326   -2.3969 C   0  0  0  0  0  0  0  0  0  0  0  0
    0.0560   -3.7545   -1.9328 C   0  0  0  0  0  0  0  0  0  0  0  0
    0.3073   -4.9367   -1.3529 N   0  0  0  0  0  0  0  0  0  0  0  0
    1.6243   -5.0946   -1.4636 N   0  0  0  0  0  0  0  0  0  0  0  0
    2.3289   -6.2886   -1.0177 C   0  0  0  0  0  0  0  0  0  0  0  0
    2.1477   -7.4133   -2.0304 C   0  0  0  0  0  0  0  0  0  0  0  0
    2.2198   -4.0876   -2.0998 N   0  0  0  0  0  0  0  0  0  0  0  0
   -1.1551   -3.1083   -2.1827 C   0  0  0  0  0  0  0  0  0  0  0  0
   -1.1800   -1.9163   -2.9304 C   0  0  0  0  0  0  0  0  0  0  0  0
    0.0522   -1.2970   -3.2979 C   0  0  0  0  0  0  0  0  0  0  0  0
    0.3091    0.0202   -3.6101 N   0  0  0  0  0  0  0  0  0  0  0  0
   -0.5073    1.1889   -3.2200 C   0  0  0  0  0  0  0  0  0  0  0  0
   -0.7849    1.2097   -1.7146 C   0  0  0  0  0  0  0  0  0  0  0  0
   -2.4641   -1.5017   -3.1415 N   0  0  0  0  0  0  0  0  0  0  0  0
   -2.9621   -0.7406   -4.2969 C   0  0  0  0  0  0  0  0  0  0  0  0
   -3.9165   -1.5715   -5.1588 C   0  0  0  0  0  0  0  0  0  0  0  0
   -3.2047   -2.3993   -2.4483 C   0  0  0  0  0  0  0  0  0  0  0  0
   -2.4705   -3.3763   -1.8673 C   0  0  0  0  0  0  0  0  0  0  0  0
   -3.0674   -3.8818   -0.7591 N   0  0  0  0  0  0  0  0  0  0  0  0
   -2.5052   -4.7992    0.2357 C   0  0  0  0  0  0  0  0  0  0  0  0
   -1.7202   -4.0322    1.2958 C   0  0  0  0  0  0  0  0  0  0  0  0
   -4.2203   -3.1609   -0.6552 C   0  0  0  0  0  0  0  0  0  0  0  0
   -4.3254   -2.2227   -1.6732 C   0  0  0  0  0  0  0  0  0  0  0  0
   -5.2868   -1.2162   -1.6584 C   0  0  0  0  0  0  0  0  0  0  0  0
   -6.2187   -1.2158   -0.6099 C   0  0  0  0  0  0  0  0  0  0  0  0
   -6.1589   -2.1920    0.4117 C   0  0  0  0  0  0  0  0  0  0  0  0
   -5.1250   -3.1550    0.4111 C   0  0  0  0  0  0  0  0  0  0  0  0
   -7.0988   -2.0998    1.5435 C   0  0  0  0  0  0  0  0  0  0  0  0
   -7.8791   -3.1152    1.9661 C   0  0  0  0  0  0  0  0  0  0  0  0
   -7.9118   -4.4727    1.4041 C   0  0  0  0  0  0  0  0  0  0  0  0
   -7.4877   -4.8272    0.2722 O   0  0  0  0  0  0  0  0  0  0  0  0
   -8.5687   -5.3416    2.3525 C   0  0  0  0  0  0  0  0  0  0  0  0
   -8.7070   -6.7289    2.2985 C   0  0  0  0  0  0  0  0  0  0  0  0
   -9.2935   -7.3861    3.3902 C   0  0  0  0  0  0  0  0  0  0  0  0
   -9.4834   -9.1318    3.3533 Cl  0  0  0  0  0  0  0  0  0  0  0  0
   -9.7016   -6.6493    4.5193 C   0  0  0  0  0  0  0  0  0  0  0  0
  -10.2257   -7.2881    5.5968 F   0  0  0  0  0  0  0  0  0  0  0  0
   -9.5483   -5.2534    4.5540 C   0  0  0  0  0  0  0  0  0  0  0  0
   -9.0067   -4.5985    3.4325 C   0  0  0  0  0  0  0  0  0  0  0  0
   -8.7247   -3.1544    3.2001 C   0  0  0  0  0  0  0  0  0  0  0  0
   -9.3338   -2.1068    3.8162 C   0  0  0  0  0  0  0  0  0  0  0  0
  -10.3023   -2.2886    4.8664 C   0  0  0  0  0  0  0  0  0  0  0  0
  -11.0893   -2.4134    5.7042 N   0  0  0  0  0  0  0  0  0  0  0  0
   -9.1872   -0.7471    3.3627 C   0  0  0  0  0  0  0  0  0  0  0  0
   -9.0826    0.3503    3.0054 N   0  0  0  0  0  0  0  0  0  0  0  0
    6.9326    3.2764   -3.6918 H   0  0  0  0  0  0  0  0  0  0  0  0
    3.9767    5.2904    1.5271 H   0  0  0  0  0  0  0  0  0  0  0  0
    8.6051    7.0270    0.2711 H   0  0  0  0  0  0  0  0  0  0  0  0
    6.8872    9.2076    2.2970 H   0  0  0  0  0  0  0  0  0  0  0  0
    8.7976    7.8746    3.8027 H   0  0  0  0  0  0  0  0  0  0  0  0
    7.7019    9.6308    5.4681 H   0  0  0  0  0  0  0  0  0  0  0  0
    5.3165    8.7805    6.1082 H   0  0  0  0  0  0  0  0  0  0  0  0
    4.8888    6.4801    4.8490 H   0  0  0  0  0  0  0  0  0  0  0  0
    7.4691    6.2853    5.4784 H   0  0  0  0  0  0  0  0  0  0  0  0
    7.2219    5.7008    3.7844 H   0  0  0  0  0  0  0  0  0  0  0  0
    4.7035    8.4277    2.8751 H   0  0  0  0  0  0  0  0  0  0  0  0
    3.8424    4.1762   -3.9001 H   0  0  0  0  0  0  0  0  0  0  0  0
    1.7814    2.9049   -4.3465 H   0  0  0  0  0  0  0  0  0  0  0  0
    5.8770    0.5712   -2.6764 H   0  0  0  0  0  0  0  0  0  0  0  0
    5.4279   -1.5310   -2.2070 H   0  0  0  0  0  0  0  0  0  0  0  0
    4.0481   -2.4932   -1.6813 H   0  0  0  0  0  0  0  0  0  0  0  0
    5.3910   -2.4846   -4.4718 H   0  0  0  0  0  0  0  0  0  0  0  0
    5.4522   -3.8061   -3.2432 H   0  0  0  0  0  0  0  0  0  0  0  0
    3.9045   -3.4325   -4.0900 H   0  0  0  0  0  0  0  0  0  0  0  0
    3.4131   -6.0658   -0.8983 H   0  0  0  0  0  0  0  0  0  0  0  0
    1.9281   -6.6101   -0.0303 H   0  0  0  0  0  0  0  0  0  0  0  0
    2.5335   -7.0987   -3.0246 H   0  0  0  0  0  0  0  0  0  0  0  0
    1.0717   -7.6752   -2.1215 H   0  0  0  0  0  0  0  0  0  0  0  0
    2.7075   -8.3112   -1.6962 H   0  0  0  0  0  0  0  0  0  0  0  0
    0.0014    2.1294   -3.4761 H   0  0  0  0  0  0  0  0  0  0  0  0
   -1.4512    1.2362   -3.7781 H   0  0  0  0  0  0  0  0  0  0  0  0
   -1.2913    2.1608   -1.4431 H   0  0  0  0  0  0  0  0  0  0  0  0
   -1.4463    0.3691   -1.4289 H   0  0  0  0  0  0  0  0  0  0  0  0
    0.1710    1.1349   -1.1497 H   0  0  0  0  0  0  0  0  0  0  0  0
   -3.4877    0.1707   -3.9449 H   0  0  0  0  0  0  0  0  0  0  0  0
   -2.1146   -0.4576   -4.9587 H   0  0  0  0  0  0  0  0  0  0  0  0
   -4.8735   -1.7508   -4.6209 H   0  0  0  0  0  0  0  0  0  0  0  0
   -3.4517   -2.5530   -5.4171 H   0  0  0  0  0  0  0  0  0  0  0  0
   -4.1388   -1.0257   -6.0997 H   0  0  0  0  0  0  0  0  0  0  0  0
   -1.8574   -5.5476   -0.2629 H   0  0  0  0  0  0  0  0  0  0  0  0
   -3.3236   -5.3715    0.7227 H   0  0  0  0  0  0  0  0  0  0  0  0
   -1.2820   -4.7519    2.0203 H   0  0  0  0  0  0  0  0  0  0  0  0
   -2.3946   -3.3423    1.8422 H   0  0  0  0  0  0  0  0  0  0  0  0
   -0.9025   -3.4501    0.8262 H   0  0  0  0  0  0  0  0  0  0  0  0
   -5.3109   -0.4497   -2.4197 H   0  0  0  0  0  0  0  0  0  0  0  0
   -6.9764   -0.4417   -0.5778 H   0  0  0  0  0  0  0  0  0  0  0  0
   -5.0171   -3.8439    1.2390 H   0  0  0  0  0  0  0  0  0  0  0  0
   -7.0976   -1.1599    2.0660 H   0  0  0  0  0  0  0  0  0  0  0  0
   -8.3551   -7.2879    1.4402 H   0  0  0  0  0  0  0  0  0  0  0  0
   -9.8156   -4.7239    5.4534 H   0  0  0  0  0  0  0  0  0  0  0  0
  1  2  2  3
  2  3  1  0
  3  4  2  0
  3  5  1  0
  5  6  2  0
  6  7  1  0
  7  8  2  0
  8  9  1  0
  9 10  2  0
 10 11  1  0
 11 12  2  3
 12 13  1  0
 13 14  3  0
 12 15  1  0
 15 16  3  0
  8 17  1  0
 17 18  1  0
 18 19  1  0
 19 20  2  0
 20 21  1  0
 21 22  1  0
 21 23  1  0
  1 24  1  0
 24 25  2  0
 25 26  1  0
 26 27  2  0
 27 28  1  0
 28 29  2  0
 29 30  1  0
 30 31  1  0
 31 32  2  0
 30 33  1  0
 33 34  1  0
 29 35  1  0
 35 36  1  0
 36 37  1  0
 37 38  2  0
 38 39  1  0
 39 40  1  0
 40 41  1  0
 39 42  1  0
 37 43  1  0
 43 44  2  0
 44 45  1  0
 45 46  1  0
 46 47  1  0
 47 48  1  0
 44 49  1  0
 49 50  1  0
 50 51  1  0
 49 52  1  0
 52 53  2  0
 53 54  1  0
 54 55  1  0
 55 56  1  0
 54 57  1  0
 57 58  2  0
 58 59  1  0
 59 60  2  0
 60 61  1  0
 61 62  2  0
 61 63  1  0
 63 64  2  3
 64 65  1  0
 65 66  2  0
 65 67  1  0
 67 68  2  0
 68 69  1  0
 69 70  1  0
 69 71  2  0
 71 72  1  0
 71 73  1  0
 73 74  2  0
 74 75  1  0
 75 76  2  3
 76 77  1  0
 77 78  3  0
 76 79  1  0
 79 80  3  0
 11  2  1  0
 23 17  1  0
 32 24  1  0
 45 35  2  0
 58 52  1  0
 75 64  1  0
 10  5  1  0
 22 18  1  0
 31 27  1  0
 42 36  2  0
 53 43  1  0
 62 57  1  0
 74 67  1  0
 23  7  1  0
 46 28  1  0
  1 81  1  0
  6 82  1  0
  9 83  1  0
 17 84  1  0
 18 85  1  0
 19 86  1  0
 20 87  1  0
 21 88  1  0
 22 89  1  0
 22 90  1  0
 23 91  1  0
 25 92  1  0
 26 93  1  0
 32 94  1  0
 33 95  1  0
 33 96  1  0
 34 97  1  0
 34 98  1  0
 34 99  1  0
 40100  1  0
 40101  1  0
 41102  1  0
 41103  1  0
 41104  1  0
 47105  1  0
 47106  1  0
 48107  1  0
 48108  1  0
 48109  1  0
 50110  1  0
 50111  1  0
 51112  1  0
 51113  1  0
 51114  1  0
 55115  1  0
 55116  1  0
 56117  1  0
 56118  1  0
 56119  1  0
 59120  1  0
 60121  1  0
 62122  1  0
 63123  1  0
 68124  1  0
 73125  1  0
M  END

