
     RDKit          3D

104117  0  0  0  0  0  0  0  0999 V2000
   -3.2915    1.2178   -4.8988 C   0  0  0  0  0  0  0  0  0  0  0  0
   -4.4577    1.4839   -4.2789 C   0  0  0  0  0  0  0  0  0  0  0  0
   -4.7773    1.1022   -2.8958 C   0  0  0  0  0  0  0  0  0  0  0  0
   -3.9735    0.6282   -2.0434 O   0  0  0  0  0  0  0  0  0  0  0  0
   -6.1953    1.2620   -2.6836 C   0  0  0  0  0  0  0  0  0  0  0  0
   -6.9233    0.9051   -1.5251 C   0  0  0  0  0  0  0  0  0  0  0  0
   -8.2889    1.0628   -1.6508 C   0  0  0  0  0  0  0  0  0  0  0  0
   -8.9103    1.5492   -2.8441 C   0  0  0  0  0  0  0  0  0  0  0  0
   -8.2055    1.9084   -3.9818 C   0  0  0  0  0  0  0  0  0  0  0  0
   -6.7908    1.7638   -3.8717 C   0  0  0  0  0  0  0  0  0  0  0  0
   -5.7221    2.0128   -4.8869 C   0  0  0  0  0  0  0  0  0  0  0  0
   -5.8412    2.7202   -6.0390 C   0  0  0  0  0  0  0  0  0  0  0  0
   -7.0980    3.2451   -6.5066 C   0  0  0  0  0  0  0  0  0  0  0  0
   -8.0976    3.6781   -6.8973 N   0  0  0  0  0  0  0  0  0  0  0  0
   -4.7010    3.1074   -6.8273 C   0  0  0  0  0  0  0  0  0  0  0  0
   -3.7945    3.4250   -7.4723 N   0  0  0  0  0  0  0  0  0  0  0  0
  -10.2659    1.3699   -2.2291 C   0  0  0  0  0  0  0  0  0  0  0  0
  -11.1249    0.1581   -2.7046 C   0  0  0  0  0  0  0  0  0  0  0  0
  -10.2268   -0.9895   -3.1127 C   0  0  0  0  0  0  0  0  0  0  0  0
   -9.6430   -1.4325   -1.9978 C   0  0  0  0  0  0  0  0  0  0  0  0
  -10.1711   -0.5753   -0.8669 C   0  0  0  0  0  0  0  0  0  0  0  0
  -11.5922   -0.3756   -1.3618 C   0  0  0  0  0  0  0  0  0  0  0  0
   -9.6277    0.8789   -1.0040 C   0  0  0  0  0  0  0  0  0  0  0  0
   -2.1515    0.6140   -4.1955 C   0  0  0  0  0  0  0  0  0  0  0  0
   -1.8780   -1.0672   -4.1582 S   0  0  0  0  0  0  0  0  0  0  0  0
   -0.5482   -0.8934   -3.1630 C   0  0  0  0  0  0  0  0  0  0  0  0
    0.2720   -1.6932   -2.4319 C   0  0  0  0  0  0  0  0  0  0  0  0
    0.2601   -3.0794   -2.2450 C   0  0  0  0  0  0  0  0  0  0  0  0
    1.0845   -3.6397   -1.2289 C   0  0  0  0  0  0  0  0  0  0  0  0
    1.0453   -4.9869   -1.0720 N   0  0  0  0  0  0  0  0  0  0  0  0
   -0.0754   -5.3663   -2.2357 S   0  0  0  0  0  0  0  0  0  0  0  0
   -0.5168   -3.9389   -2.9520 N   0  0  0  0  0  0  0  0  0  0  0  0
    1.9152   -2.7846   -0.4982 C   0  0  0  0  0  0  0  0  0  0  0  0
    2.8534   -3.0474    0.4576 C   0  0  0  0  0  0  0  0  0  0  0  0
    3.4208   -4.3366    1.4041 S   0  0  0  0  0  0  0  0  0  0  0  0
    4.5694   -3.3101    2.1459 C   0  0  0  0  0  0  0  0  0  0  0  0
    5.4902   -3.4892    3.1843 C   0  0  0  0  0  0  0  0  0  0  0  0
    5.5912   -4.7475    4.0000 C   0  0  0  0  0  0  0  0  0  0  0  0
    4.6054   -4.7214    5.1635 C   0  0  0  0  0  0  0  0  0  0  0  0
    6.1797   -2.2906    3.4529 C   0  0  0  0  0  0  0  0  0  0  0  0
    5.5759   -1.0404    2.4530 S   0  0  0  0  0  0  0  0  0  0  0  0
    4.5022   -2.0341    1.6454 C   0  0  0  0  0  0  0  0  0  0  0  0
    3.5008   -1.8865    0.6977 C   0  0  0  0  0  0  0  0  0  0  0  0
    3.0350   -0.8479   -0.0411 N   0  0  0  0  0  0  0  0  0  0  0  0
    1.9848   -1.3979   -0.7388 C   0  0  0  0  0  0  0  0  0  0  0  0
    1.0583   -0.8231   -1.6602 C   0  0  0  0  0  0  0  0  0  0  0  0
    0.6247    0.4776   -1.8187 N   0  0  0  0  0  0  0  0  0  0  0  0
   -0.3195    0.3869   -2.8056 C   0  0  0  0  0  0  0  0  0  0  0  0
   -1.2004    1.3067   -3.4120 C   0  0  0  0  0  0  0  0  0  0  0  0
   -1.0542    2.8079   -3.4260 C   0  0  0  0  0  0  0  0  0  0  0  0
   -2.0752    3.5019   -2.5264 C   0  0  0  0  0  0  0  0  0  0  0  0
    0.6824    1.5660   -0.8253 C   0  0  0  0  0  0  0  0  0  0  0  0
    0.2846    1.0891    0.5737 C   0  0  0  0  0  0  0  0  0  0  0  0
    3.7693    0.4097   -0.2518 C   0  0  0  0  0  0  0  0  0  0  0  0
    4.0697    0.6584   -1.7304 C   0  0  0  0  0  0  0  0  0  0  0  0
    7.0885   -2.0521    4.5875 C   0  0  0  0  0  0  0  0  0  0  0  0
    8.2339   -1.3443    4.4919 C   0  0  0  0  0  0  0  0  0  0  0  0
    8.8530   -0.8897    3.2271 C   0  0  0  0  0  0  0  0  0  0  0  0
    8.5704   -1.2610    2.0589 O   0  0  0  0  0  0  0  0  0  0  0  0
    9.9045    0.0260    3.5796 C   0  0  0  0  0  0  0  0  0  0  0  0
   11.0165    0.9626    2.7485 S   0  0  0  0  0  0  0  0  0  0  0  0
   11.6949    1.5629    4.1899 C   0  0  0  0  0  0  0  0  0  0  0  0
   13.1370    2.8130    4.2520 Br  0  0  0  0  0  0  0  0  0  0  0  0
   11.0601    1.0064    5.3052 C   0  0  0  0  0  0  0  0  0  0  0  0
   10.0326    0.1377    4.9216 C   0  0  0  0  0  0  0  0  0  0  0  0
    9.0525   -0.7400    5.6108 C   0  0  0  0  0  0  0  0  0  0  0  0
    8.9695   -0.9524    6.9496 C   0  0  0  0  0  0  0  0  0  0  0  0
    9.7688   -0.1980    7.8866 C   0  0  0  0  0  0  0  0  0  0  0  0
   10.4023    0.4091    8.6445 N   0  0  0  0  0  0  0  0  0  0  0  0
    8.0961   -1.9338    7.5375 C   0  0  0  0  0  0  0  0  0  0  0  0
    7.3999   -2.7279    8.0092 N   0  0  0  0  0  0  0  0  0  0  0  0
   -3.1885    1.3268   -5.9637 H   0  0  0  0  0  0  0  0  0  0  0  0
   -6.4593    0.4994   -0.6359 H   0  0  0  0  0  0  0  0  0  0  0  0
   -8.7315    2.2118   -4.8712 H   0  0  0  0  0  0  0  0  0  0  0  0
  -10.8276    2.3183   -2.0876 H   0  0  0  0  0  0  0  0  0  0  0  0
  -11.9341    0.4057   -3.4257 H   0  0  0  0  0  0  0  0  0  0  0  0
  -10.1218   -1.4180   -4.1023 H   0  0  0  0  0  0  0  0  0  0  0  0
   -8.9819   -2.2877   -1.9305 H   0  0  0  0  0  0  0  0  0  0  0  0
  -10.0692   -1.0268    0.1414 H   0  0  0  0  0  0  0  0  0  0  0  0
  -12.1720   -1.3283   -1.4328 H   0  0  0  0  0  0  0  0  0  0  0  0
  -12.1676    0.3648   -0.7613 H   0  0  0  0  0  0  0  0  0  0  0  0
   -9.7948    1.5273   -0.1159 H   0  0  0  0  0  0  0  0  0  0  0  0
    6.6251   -4.8669    4.3881 H   0  0  0  0  0  0  0  0  0  0  0  0
    5.3740   -5.6265    3.3600 H   0  0  0  0  0  0  0  0  0  0  0  0
    4.6682   -5.6732    5.7322 H   0  0  0  0  0  0  0  0  0  0  0  0
    3.5651   -4.6025    4.7854 H   0  0  0  0  0  0  0  0  0  0  0  0
    4.8420   -3.8781    5.8479 H   0  0  0  0  0  0  0  0  0  0  0  0
   -1.1929    3.1758   -4.4661 H   0  0  0  0  0  0  0  0  0  0  0  0
   -0.0239    3.1021   -3.1440 H   0  0  0  0  0  0  0  0  0  0  0  0
   -1.7630    4.5548   -2.3587 H   0  0  0  0  0  0  0  0  0  0  0  0
   -2.1618    2.9991   -1.5410 H   0  0  0  0  0  0  0  0  0  0  0  0
   -3.0715    3.5268   -3.0145 H   0  0  0  0  0  0  0  0  0  0  0  0
   -0.0423    2.3538   -1.0682 H   0  0  0  0  0  0  0  0  0  0  0  0
    1.6553    2.0797   -0.8467 H   0  0  0  0  0  0  0  0  0  0  0  0
    0.0980    1.9661    1.2248 H   0  0  0  0  0  0  0  0  0  0  0  0
    1.0857    0.4880    1.0394 H   0  0  0  0  0  0  0  0  0  0  0  0
   -0.6454    0.4867    0.5226 H   0  0  0  0  0  0  0  0  0  0  0  0
    4.7542    0.3687    0.2615 H   0  0  0  0  0  0  0  0  0  0  0  0
    3.2490    1.2542    0.2345 H   0  0  0  0  0  0  0  0  0  0  0  0
    4.8094    1.4835   -1.8233 H   0  0  0  0  0  0  0  0  0  0  0  0
    4.4937   -0.2529   -2.2012 H   0  0  0  0  0  0  0  0  0  0  0  0
    3.1572    0.9611   -2.2732 H   0  0  0  0  0  0  0  0  0  0  0  0
    6.7237   -2.3949    5.5367 H   0  0  0  0  0  0  0  0  0  0  0  0
   11.3447    1.2394    6.3200 H   0  0  0  0  0  0  0  0  0  0  0  0
  1  2  2  3
  2  3  1  0
  3  4  2  0
  3  5  1  0
  5  6  2  0
  6  7  1  0
  7  8  2  0
  8  9  1  0
  9 10  2  0
 10 11  1  0
 11 12  2  3
 12 13  1  0
 13 14  3  0
 12 15  1  0
 15 16  3  0
  8 17  1  0
 17 18  1  0
 18 19  1  0
 19 20  2  0
 20 21  1  0
 21 22  1  0
 21 23  1  0
  1 24  1  0
 24 25  1  0
 25 26  1  0
 26 27  1  0
 27 28  1  0
 28 29  1  0
 29 30  2  0
 30 31  1  0
 31 32  1  0
 29 33  1  0
 33 34  1  0
 34 35  1  0
 35 36  1  0
 36 37  1  0
 37 38  1  0
 38 39  1  0
 37 40  2  0
 40 41  1  0
 41 42  1  0
 42 43  1  0
 43 44  1  0
 44 45  1  0
 45 46  1  0
 46 47  1  0
 47 48  1  0
 48 49  1  0
 49 50  1  0
 50 51  1  0
 47 52  1  0
 52 53  1  0
 44 54  1  0
 54 55  1  0
 40 56  1  0
 56 57  2  3
 57 58  1  0
 58 59  2  0
 58 60  1  0
 60 61  1  0
 61 62  1  0
 62 63  1  0
 62 64  2  0
 64 65  1  0
 65 66  1  0
 66 67  2  3
 67 68  1  0
 68 69  3  0
 67 70  1  0
 70 71  3  0
 11  2  1  0
 23 17  1  0
 49 24  2  0
 66 57  1  0
 10  5  1  0
 22 18  1  0
 48 26  2  0
 65 60  2  0
 23  7  1  0
 46 27  2  0
 32 28  2  0
 45 33  2  0
 43 34  2  0
 42 36  2  0
  1 72  1  0
  6 73  1  0
  9 74  1  0
 17 75  1  0
 18 76  1  0
 19 77  1  0
 20 78  1  0
 21 79  1  0
 22 80  1  0
 22 81  1  0
 23 82  1  0
 38 83  1  0
 38 84  1  0
 39 85  1  0
 39 86  1  0
 39 87  1  0
 50 88  1  0
 50 89  1  0
 51 90  1  0
 51 91  1  0
 51 92  1  0
 52 93  1  0
 52 94  1  0
 53 95  1  0
 53 96  1  0
 53 97  1  0
 54 98  1  0
 54 99  1  0
 55100  1  0
 55101  1  0
 55102  1  0
 56103  1  0
 64104  1  0
M  END

