
     RDKit          3D

107121  0  0  0  0  0  0  0  0999 V2000
   -6.7455    2.4688    0.1826 C   0  0  0  0  0  0  0  0  0  0  0  0
   -5.7733    3.2239   -0.4219 C   0  0  0  0  0  0  0  0  0  0  0  0
   -4.4026    2.8134   -0.6720 C   0  0  0  0  0  0  0  0  0  0  0  0
   -3.8601    1.7437   -0.3176 O   0  0  0  0  0  0  0  0  0  0  0  0
   -3.7204    3.8723   -1.4348 C   0  0  0  0  0  0  0  0  0  0  0  0
   -2.4179    3.9543   -1.8511 C   0  0  0  0  0  0  0  0  0  0  0  0
   -1.9515    5.0621   -2.5058 C   0  0  0  0  0  0  0  0  0  0  0  0
   -2.7783    6.1286   -2.7608 C   0  0  0  0  0  0  0  0  0  0  0  0
   -4.1170    6.0268   -2.3271 C   0  0  0  0  0  0  0  0  0  0  0  0
   -4.5915    4.9147   -1.6729 C   0  0  0  0  0  0  0  0  0  0  0  0
   -5.8997    4.5339   -1.0496 C   0  0  0  0  0  0  0  0  0  0  0  0
   -6.9355    5.2941   -1.0279 C   0  0  0  0  0  0  0  0  0  0  0  0
   -8.1588    5.1905   -0.4471 C   0  0  0  0  0  0  0  0  0  0  0  0
   -9.3208    5.1059    0.0844 N   0  0  0  0  0  0  0  0  0  0  0  0
   -7.0348    6.3898   -2.0778 C   0  0  0  0  0  0  0  0  0  0  0  0
   -7.1216    7.2784   -2.9019 N   0  0  0  0  0  0  0  0  0  0  0  0
   -1.7160    6.9118   -3.4151 C   0  0  0  0  0  0  0  0  0  0  0  0
   -1.1386    7.9861   -2.5774 C   0  0  0  0  0  0  0  0  0  0  0  0
   -1.3286    7.6630   -1.1427 C   0  0  0  0  0  0  0  0  0  0  0  0
   -0.5985    6.5551   -0.9012 C   0  0  0  0  0  0  0  0  0  0  0  0
    0.1454    6.2228   -2.1204 C   0  0  0  0  0  0  0  0  0  0  0  0
    0.3727    7.6550   -2.6611 C   0  0  0  0  0  0  0  0  0  0  0  0
   -0.7816    5.7094   -3.1552 C   0  0  0  0  0  0  0  0  0  0  0  0
   -6.1981    1.0998    0.5539 C   0  0  0  0  0  0  0  0  0  0  0  0
   -6.4131   -0.0822   -0.0783 C   0  0  0  0  0  0  0  0  0  0  0  0
   -7.4956   -0.2151   -1.1353 C   0  0  0  0  0  0  0  0  0  0  0  0
   -7.0333   -0.9465   -2.3522 C   0  0  0  0  0  0  0  0  0  0  0  0
   -5.5884   -1.1285    0.2895 C   0  0  0  0  0  0  0  0  0  0  0  0
   -5.1808   -2.7213   -0.3216 S   0  0  0  0  0  0  0  0  0  0  0  0
   -3.8369   -3.0308    0.6614 C   0  0  0  0  0  0  0  0  0  0  0  0
   -2.7513   -3.8896    0.8284 C   0  0  0  0  0  0  0  0  0  0  0  0
   -2.3508   -4.9581    0.0062 C   0  0  0  0  0  0  0  0  0  0  0  0
   -1.0939   -5.4280    0.1085 C   0  0  0  0  0  0  0  0  0  0  0  0
   -0.6288   -6.4090   -0.6289 N   0  0  0  0  0  0  0  0  0  0  0  0
   -2.4611   -6.7331   -1.7417 Se  0  0  0  0  0  2  0  0  0  0  0  0
   -3.1568   -5.5169   -0.8825 N   0  0  0  0  0  0  0  0  0  0  0  0
   -0.2851   -4.7889    1.0711 C   0  0  0  0  0  0  0  0  0  0  0  0
    1.0941   -4.9163    1.2890 C   0  0  0  0  0  0  0  0  0  0  0  0
    2.5482   -5.5566    0.6643 S   0  0  0  0  0  0  0  0  0  0  0  0
    3.6898   -4.6434    1.6262 C   0  0  0  0  0  0  0  0  0  0  0  0
    5.0461   -4.4597    1.6999 C   0  0  0  0  0  0  0  0  0  0  0  0
    6.0582   -5.2225    0.8961 C   0  0  0  0  0  0  0  0  0  0  0  0
    6.0935   -4.7117   -0.5372 C   0  0  0  0  0  0  0  0  0  0  0  0
    5.4847   -3.4650    2.6165 C   0  0  0  0  0  0  0  0  0  0  0  0
    4.0076   -2.9484    3.2443 S   0  0  0  0  0  0  0  0  0  0  0  0
    2.8914   -3.9149    2.3749 C   0  0  0  0  0  0  0  0  0  0  0  0
    1.5143   -4.0454    2.2053 C   0  0  0  0  0  0  0  0  0  0  0  0
    0.3830   -3.3407    2.5968 N   0  0  0  0  0  0  0  0  0  0  0  0
   -0.6708   -3.7725    1.9036 C   0  0  0  0  0  0  0  0  0  0  0  0
   -1.9816   -3.2646    1.7758 C   0  0  0  0  0  0  0  0  0  0  0  0
   -2.5481   -2.1096    2.1654 N   0  0  0  0  0  0  0  0  0  0  0  0
   -3.7346   -1.9415    1.4407 C   0  0  0  0  0  0  0  0  0  0  0  0
   -4.6831   -0.9482    1.2092 C   0  0  0  0  0  0  0  0  0  0  0  0
   -4.9372    0.7491    1.6282 S   0  0  0  0  0  0  0  0  0  0  0  0
   -2.1368   -1.1113    3.0991 C   0  0  0  0  0  0  0  0  0  0  0  0
   -1.3520    0.0542    2.5184 C   0  0  0  0  0  0  0  0  0  0  0  0
    0.3191   -2.5081    3.7626 C   0  0  0  0  0  0  0  0  0  0  0  0
   -0.3264   -3.2525    4.9491 C   0  0  0  0  0  0  0  0  0  0  0  0
    6.8742   -3.0395    2.7693 C   0  0  0  0  0  0  0  0  0  0  0  0
    7.6609   -2.5423    1.6949 C   0  0  0  0  0  0  0  0  0  0  0  0
    8.3141   -2.1104    0.7269 C   0  0  0  0  0  0  0  0  0  0  0  0
    9.6534   -2.5583    0.6449 O   0  0  0  0  0  0  0  0  0  0  0  0
    7.9884   -1.2388   -0.3592 C   0  0  0  0  0  0  0  0  0  0  0  0
    8.4058   -0.3996   -1.7816 S   0  0  0  0  0  0  0  0  0  0  0  0
    6.9206    0.3677   -2.0870 C   0  0  0  0  0  0  0  0  0  0  0  0
    6.1472   -0.0743   -1.0501 C   0  0  0  0  0  0  0  0  0  0  0  0
    6.6970   -0.9115   -0.1388 C   0  0  0  0  0  0  0  0  0  0  0  0
    6.3003   -1.6174    1.1289 C   0  0  0  0  0  0  0  0  0  0  0  0
    5.4397   -1.0627    1.9281 C   0  0  0  0  0  0  0  0  0  0  0  0
    4.3151   -0.4321    1.2453 C   0  0  0  0  0  0  0  0  0  0  0  0
    3.4194    0.0472    0.7108 N   0  0  0  0  0  0  0  0  0  0  0  0
    5.6939   -0.7831    3.3608 C   0  0  0  0  0  0  0  0  0  0  0  0
    5.8766   -0.5626    4.4077 N   0  0  0  0  0  0  0  0  0  0  0  0
   -7.7108    2.7427    0.3812 H   0  0  0  0  0  0  0  0  0  0  0  0
   -1.7620    3.0935   -1.6399 H   0  0  0  0  0  0  0  0  0  0  0  0
   -4.7107    6.8773   -2.5221 H   0  0  0  0  0  0  0  0  0  0  0  0
   -1.8428    7.1004   -4.5079 H   0  0  0  0  0  0  0  0  0  0  0  0
   -1.3494    9.0146   -2.8700 H   0  0  0  0  0  0  0  0  0  0  0  0
   -1.9128    8.1901   -0.4299 H   0  0  0  0  0  0  0  0  0  0  0  0
   -0.5576    5.9848    0.0371 H   0  0  0  0  0  0  0  0  0  0  0  0
    1.0685    5.6592   -1.9968 H   0  0  0  0  0  0  0  0  0  0  0  0
    0.9603    8.2374   -1.9468 H   0  0  0  0  0  0  0  0  0  0  0  0
    0.6989    7.6531   -3.6916 H   0  0  0  0  0  0  0  0  0  0  0  0
   -0.4105    5.2679   -4.0738 H   0  0  0  0  0  0  0  0  0  0  0  0
   -7.7957    0.8311   -1.4710 H   0  0  0  0  0  0  0  0  0  0  0  0
   -8.3894   -0.6773   -0.7025 H   0  0  0  0  0  0  0  0  0  0  0  0
   -6.9507   -0.2483   -3.2036 H   0  0  0  0  0  0  0  0  0  0  0  0
   -6.0809   -1.4636   -2.2182 H   0  0  0  0  0  0  0  0  0  0  0  0
   -7.8595   -1.6815   -2.6402 H   0  0  0  0  0  0  0  0  0  0  0  0
    7.0738   -5.1393    1.3318 H   0  0  0  0  0  0  0  0  0  0  0  0
    5.8435   -6.3274    0.9019 H   0  0  0  0  0  0  0  0  0  0  0  0
    5.3254   -3.9533   -0.7554 H   0  0  0  0  0  0  0  0  0  0  0  0
    5.9070   -5.5320   -1.2875 H   0  0  0  0  0  0  0  0  0  0  0  0
    7.0920   -4.2523   -0.7760 H   0  0  0  0  0  0  0  0  0  0  0  0
   -1.9353   -1.3833    4.1297 H   0  0  0  0  0  0  0  0  0  0  0  0
   -3.1220   -0.5075    3.3827 H   0  0  0  0  0  0  0  0  0  0  0  0
   -0.5269   -0.2518    1.8533 H   0  0  0  0  0  0  0  0  0  0  0  0
   -0.9714    0.6993    3.3675 H   0  0  0  0  0  0  0  0  0  0  0  0
   -1.9682    0.7749    1.9427 H   0  0  0  0  0  0  0  0  0  0  0  0
    1.4329   -2.5868    4.1896 H   0  0  0  0  0  0  0  0  0  0  0  0
    0.2972   -1.4658    3.7322 H   0  0  0  0  0  0  0  0  0  0  0  0
   -1.3043   -3.6647    4.6247 H   0  0  0  0  0  0  0  0  0  0  0  0
   -0.4348   -2.5540    5.8093 H   0  0  0  0  0  0  0  0  0  0  0  0
    0.2750   -4.1000    5.3103 H   0  0  0  0  0  0  0  0  0  0  0  0
    7.3762   -3.0795    3.7013 H   0  0  0  0  0  0  0  0  0  0  0  0
    6.5996    1.0622   -2.8898 H   0  0  0  0  0  0  0  0  0  0  0  0
    5.0916    0.2909   -1.0431 H   0  0  0  0  0  0  0  0  0  0  0  0
  1  2  2  3
  2  3  1  0
  3  4  2  0
  3  5  1  0
  5  6  2  0
  6  7  1  0
  7  8  2  0
  8  9  1  0
  9 10  2  0
 10 11  1  0
 11 12  2  3
 12 13  1  0
 13 14  3  0
 12 15  1  0
 15 16  3  0
  8 17  1  0
 17 18  1  0
 18 19  1  0
 19 20  2  0
 20 21  1  0
 21 22  1  0
 21 23  1  0
  1 24  1  0
 24 25  2  0
 25 26  1  0
 26 27  1  0
 25 28  1  0
 28 29  1  0
 29 30  1  0
 30 31  1  0
 31 32  1  0
 32 33  1  0
 33 34  2  0
 34 35  1  0
 35 36  1  0
 33 37  1  0
 37 38  1  0
 38 39  1  0
 39 40  1  0
 40 41  1  0
 41 42  1  0
 42 43  1  0
 41 44  2  0
 44 45  1  0
 45 46  1  0
 46 47  1  0
 47 48  1  0
 48 49  1  0
 49 50  1  0
 50 51  1  0
 51 52  1  0
 52 53  1  0
 53 54  1  0
 51 55  1  0
 55 56  1  0
 48 57  1  0
 57 58  1  0
 44 59  1  0
 59 60  2  3
 60 61  1  0
 61 62  2  0
 61 63  1  0
 63 64  1  0
 64 65  1  0
 65 66  2  0
 66 67  1  0
 67 68  1  0
 68 69  2  3
 69 70  1  0
 70 71  3  0
 69 72  1  0
 72 73  3  0
 11  2  1  0
 23 17  1  0
 54 24  1  0
 68 60  1  0
 10  5  1  0
 22 18  1  0
 53 28  2  0
 67 63  2  0
 23  7  1  0
 52 30  2  0
 50 31  2  0
 36 32  2  0
 49 37  2  0
 47 38  2  0
 46 40  2  0
  1 74  1  0
  6 75  1  0
  9 76  1  0
 17 77  1  0
 18 78  1  0
 19 79  1  0
 20 80  1  0
 21 81  1  0
 22 82  1  0
 22 83  1  0
 23 84  1  0
 26 85  1  0
 26 86  1  0
 27 87  1  0
 27 88  1  0
 27 89  1  0
 42 90  1  0
 42 91  1  0
 43 92  1  0
 43 93  1  0
 43 94  1  0
 55 95  1  0
 55 96  1  0
 56 97  1  0
 56 98  1  0
 56 99  1  0
 57100  1  0
 57101  1  0
 58102  1  0
 58103  1  0
 58104  1  0
 59105  1  0
 65106  1  0
 66107  1  0
M  END

