
     RDKit          3D

107121  0  0  0  0  0  0  0  0999 V2000
   -3.3095    5.3700   -2.7648 C   0  0  0  0  0  0  0  0  0  0  0  0
   -4.2006    5.1049   -1.8533 C   0  0  0  0  0  0  0  0  0  0  0  0
   -4.8524    6.1477   -1.0249 C   0  0  0  0  0  0  0  0  0  0  0  0
   -4.8325    7.3639   -1.2542 O   0  0  0  0  0  0  0  0  0  0  0  0
   -5.5070    5.4520    0.1083 C   0  0  0  0  0  0  0  0  0  0  0  0
   -6.1231    6.0262    1.2239 C   0  0  0  0  0  0  0  0  0  0  0  0
   -6.5594    5.2722    2.2643 C   0  0  0  0  0  0  0  0  0  0  0  0
   -6.3844    3.9037    2.1820 C   0  0  0  0  0  0  0  0  0  0  0  0
   -5.7684    3.3349    1.0327 C   0  0  0  0  0  0  0  0  0  0  0  0
   -5.3188    4.0955   -0.0064 C   0  0  0  0  0  0  0  0  0  0  0  0
   -4.5233    3.8374   -1.2464 C   0  0  0  0  0  0  0  0  0  0  0  0
   -4.7969    2.6977   -1.9254 C   0  0  0  0  0  0  0  0  0  0  0  0
   -4.8678    2.5560   -3.2315 C   0  0  0  0  0  0  0  0  0  0  0  0
   -4.9386    2.4355   -4.5245 N   0  0  0  0  0  0  0  0  0  0  0  0
   -4.8650    1.4317   -1.0643 C   0  0  0  0  0  0  0  0  0  0  0  0
   -4.9176    0.5919   -0.4755 N   0  0  0  0  0  0  0  0  0  0  0  0
   -6.8808    3.5996    3.5605 C   0  0  0  0  0  0  0  0  0  0  0  0
   -5.6738    3.4687    4.5109 C   0  0  0  0  0  0  0  0  0  0  0  0
   -4.6259    4.3644    3.9970 C   0  0  0  0  0  0  0  0  0  0  0  0
   -4.9651    5.6417    4.2429 C   0  0  0  0  0  0  0  0  0  0  0  0
   -6.3788    5.5792    4.7534 C   0  0  0  0  0  0  0  0  0  0  0  0
   -6.2722    4.3570    5.6315 C   0  0  0  0  0  0  0  0  0  0  0  0
   -7.1935    5.0673    3.5929 C   0  0  0  0  0  0  0  0  0  0  0  0
   -2.5152    4.4979   -3.6357 C   0  0  0  0  0  0  0  0  0  0  0  0
   -1.4965    4.8206   -4.5022 C   0  0  0  0  0  0  0  0  0  0  0  0
   -1.4385    6.1253   -5.2289 C   0  0  0  0  0  0  0  0  0  0  0  0
   -1.0255    7.2771   -4.3355 C   0  0  0  0  0  0  0  0  0  0  0  0
   -0.6278    3.8465   -4.6489 C   0  0  0  0  0  0  0  0  0  0  0  0
    1.4343    3.8649   -5.2830 Se  0  0  0  0  0  2  0  0  0  0  0  0
    1.6454    2.0641   -4.5450 C   0  0  0  0  0  0  0  0  0  0  0  0
    2.5791    1.1258   -4.2518 C   0  0  0  0  0  0  0  0  0  0  0  0
    3.9758    1.1014   -4.3669 C   0  0  0  0  0  0  0  0  0  0  0  0
    4.6511    0.1140   -3.7491 C   0  0  0  0  0  0  0  0  0  0  0  0
    5.9975    0.1330   -3.9057 N   0  0  0  0  0  0  0  0  0  0  0  0
    6.2773    1.4703   -4.8619 S   0  0  0  0  0  0  0  0  0  0  0  0
    4.6974    1.9924   -5.0634 N   0  0  0  0  0  0  0  0  0  0  0  0
    3.9186   -0.8320   -3.0085 C   0  0  0  0  0  0  0  0  0  0  0  0
    4.3321   -1.7822   -2.1362 C   0  0  0  0  0  0  0  0  0  0  0  0
    5.9889   -2.5580   -1.4258 Se  0  0  0  0  0  2  0  0  0  0  0  0
    4.7953   -3.7781   -0.1497 C   0  0  0  0  0  0  0  0  0  0  0  0
    5.1479   -4.6704    0.7042 C   0  0  0  0  0  0  0  0  0  0  0  0
    6.5377   -5.0461    1.1563 C   0  0  0  0  0  0  0  0  0  0  0  0
    7.2921   -5.8767    0.1894 C   0  0  0  0  0  0  0  0  0  0  0  0
    4.0248   -5.2838    1.2985 C   0  0  0  0  0  0  0  0  0  0  0  0
    2.7323   -4.4742    0.5484 S   0  0  0  0  0  0  0  0  0  0  0  0
    3.6937   -3.3605   -0.5318 C   0  0  0  0  0  0  0  0  0  0  0  0
    3.3602   -2.4069   -1.4706 C   0  0  0  0  0  0  0  0  0  0  0  0
    2.1827   -1.7942   -1.9601 N   0  0  0  0  0  0  0  0  0  0  0  0
    2.5517   -0.8655   -2.8757 C   0  0  0  0  0  0  0  0  0  0  0  0
    1.8702    0.1570   -3.5459 C   0  0  0  0  0  0  0  0  0  0  0  0
    0.6136    0.5189   -3.4566 N   0  0  0  0  0  0  0  0  0  0  0  0
    0.4241    1.7698   -4.0597 C   0  0  0  0  0  0  0  0  0  0  0  0
   -0.5775    2.6991   -4.1592 C   0  0  0  0  0  0  0  0  0  0  0  0
   -2.0907    2.8563   -3.2095 S   0  0  0  0  0  0  0  0  0  0  0  0
   -0.5501   -0.3684   -3.2986 C   0  0  0  0  0  0  0  0  0  0  0  0
   -1.2624   -0.4184   -4.7545 C   0  0  0  0  0  0  0  0  0  0  0  0
    0.8741   -2.0946   -1.4158 C   0  0  0  0  0  0  0  0  0  0  0  0
    0.3125   -1.1126   -0.4167 C   0  0  0  0  0  0  0  0  0  0  0  0
    4.1331   -6.3901    2.1953 C   0  0  0  0  0  0  0  0  0  0  0  0
    3.4834   -6.5337    3.3816 C   0  0  0  0  0  0  0  0  0  0  0  0
    2.5955   -5.5762    3.8997 C   0  0  0  0  0  0  0  0  0  0  0  0
    2.1821   -4.4607    3.4081 O   0  0  0  0  0  0  0  0  0  0  0  0
    2.1944   -6.1190    5.1897 C   0  0  0  0  0  0  0  0  0  0  0  0
    1.1942   -5.8262    6.5773 S   0  0  0  0  0  0  0  0  0  0  0  0
    1.5402   -7.2058    7.4570 C   0  0  0  0  0  0  0  0  0  0  0  0
    2.4605   -7.8948    6.6275 C   0  0  0  0  0  0  0  0  0  0  0  0
    2.7660   -7.2953    5.4668 C   0  0  0  0  0  0  0  0  0  0  0  0
    3.7364   -7.6659    4.1710 C   0  0  0  0  0  0  0  0  0  0  0  0
    4.2397   -8.8082    4.3606 C   0  0  0  0  0  0  0  0  0  0  0  0
    5.0375   -9.2351    2.9992 C   0  0  0  0  0  0  0  0  0  0  0  0
    5.6204   -9.5235    2.0241 N   0  0  0  0  0  0  0  0  0  0  0  0
    4.3434   -9.6923    5.2476 C   0  0  0  0  0  0  0  0  0  0  0  0
    4.4449  -10.6104    6.1996 N   0  0  0  0  0  0  0  0  0  0  0  0
   -3.1096    6.4716   -2.9190 H   0  0  0  0  0  0  0  0  0  0  0  0
   -6.2528    7.1115    1.2827 H   0  0  0  0  0  0  0  0  0  0  0  0
   -5.6692    2.2576    1.0380 H   0  0  0  0  0  0  0  0  0  0  0  0
   -7.6815    2.8768    3.6625 H   0  0  0  0  0  0  0  0  0  0  0  0
   -5.4214    2.4891    4.8352 H   0  0  0  0  0  0  0  0  0  0  0  0
   -3.7201    4.0701    3.4944 H   0  0  0  0  0  0  0  0  0  0  0  0
   -4.3904    6.5182    4.0880 H   0  0  0  0  0  0  0  0  0  0  0  0
   -6.7560    6.4660    5.2154 H   0  0  0  0  0  0  0  0  0  0  0  0
   -5.5938    4.4583    6.4892 H   0  0  0  0  0  0  0  0  0  0  0  0
   -7.2777    3.9640    5.9077 H   0  0  0  0  0  0  0  0  0  0  0  0
   -8.2817    5.2540    3.6278 H   0  0  0  0  0  0  0  0  0  0  0  0
   -0.7541    6.0374   -6.1266 H   0  0  0  0  0  0  0  0  0  0  0  0
   -2.4897    6.3275   -5.5848 H   0  0  0  0  0  0  0  0  0  0  0  0
   -0.1606    7.7951   -4.7996 H   0  0  0  0  0  0  0  0  0  0  0  0
   -1.8699    8.0136   -4.3013 H   0  0  0  0  0  0  0  0  0  0  0  0
   -0.7660    6.8769   -3.3478 H   0  0  0  0  0  0  0  0  0  0  0  0
    7.1078   -4.0746    1.3562 H   0  0  0  0  0  0  0  0  0  0  0  0
    6.4997   -5.5266    2.1528 H   0  0  0  0  0  0  0  0  0  0  0  0
    6.9179   -5.7110   -0.8338 H   0  0  0  0  0  0  0  0  0  0  0  0
    8.3846   -5.5320    0.1908 H   0  0  0  0  0  0  0  0  0  0  0  0
    7.3068   -6.9271    0.4811 H   0  0  0  0  0  0  0  0  0  0  0  0
   -0.2009   -1.3794   -3.3580 H   0  0  0  0  0  0  0  0  0  0  0  0
   -1.2977   -0.0630   -2.6437 H   0  0  0  0  0  0  0  0  0  0  0  0
   -0.4397   -0.7096   -5.4797 H   0  0  0  0  0  0  0  0  0  0  0  0
   -2.0230   -1.1738   -4.7373 H   0  0  0  0  0  0  0  0  0  0  0  0
   -1.5461    0.5973   -4.9775 H   0  0  0  0  0  0  0  0  0  0  0  0
    0.1343   -2.5559   -2.0311 H   0  0  0  0  0  0  0  0  0  0  0  0
    1.0566   -2.9997   -0.6678 H   0  0  0  0  0  0  0  0  0  0  0  0
    0.6837   -0.1150   -0.6196 H   0  0  0  0  0  0  0  0  0  0  0  0
    0.3965   -1.4520    0.6605 H   0  0  0  0  0  0  0  0  0  0  0  0
   -0.8331   -1.0726   -0.5212 H   0  0  0  0  0  0  0  0  0  0  0  0
    4.8343   -7.1762    1.8699 H   0  0  0  0  0  0  0  0  0  0  0  0
    1.1967   -7.6018    8.4307 H   0  0  0  0  0  0  0  0  0  0  0  0
    2.7965   -8.8564    7.0681 H   0  0  0  0  0  0  0  0  0  0  0  0
  1  2  2  3
  2  3  1  0
  3  4  2  0
  3  5  1  0
  5  6  2  0
  6  7  1  0
  7  8  2  0
  8  9  1  0
  9 10  2  0
 10 11  1  0
 11 12  2  3
 12 13  1  0
 13 14  3  0
 12 15  1  0
 15 16  3  0
  8 17  1  0
 17 18  1  0
 18 19  1  0
 19 20  2  0
 20 21  1  0
 21 22  1  0
 21 23  1  0
  1 24  1  0
 24 25  2  0
 25 26  1  0
 26 27  1  0
 25 28  1  0
 28 29  1  0
 29 30  1  0
 30 31  1  0
 31 32  1  0
 32 33  1  0
 33 34  2  0
 34 35  1  0
 35 36  1  0
 33 37  1  0
 37 38  1  0
 38 39  1  0
 39 40  1  0
 40 41  1  0
 41 42  1  0
 42 43  1  0
 41 44  2  0
 44 45  1  0
 45 46  1  0
 46 47  1  0
 47 48  1  0
 48 49  1  0
 49 50  1  0
 50 51  1  0
 51 52  1  0
 52 53  1  0
 53 54  1  0
 51 55  1  0
 55 56  1  0
 48 57  1  0
 57 58  1  0
 44 59  1  0
 59 60  2  3
 60 61  1  0
 61 62  2  0
 61 63  1  0
 63 64  1  0
 64 65  1  0
 65 66  2  0
 66 67  1  0
 67 68  1  0
 68 69  2  3
 69 70  1  0
 70 71  3  0
 69 72  1  0
 72 73  3  0
 11  2  1  0
 23 17  1  0
 54 24  1  0
 68 60  1  0
 10  5  1  0
 22 18  1  0
 53 28  2  0
 67 63  2  0
 23  7  1  0
 52 30  2  0
 50 31  2  0
 36 32  2  0
 49 37  2  0
 47 38  2  0
 46 40  2  0
  1 74  1  0
  6 75  1  0
  9 76  1  0
 17 77  1  0
 18 78  1  0
 19 79  1  0
 20 80  1  0
 21 81  1  0
 22 82  1  0
 22 83  1  0
 23 84  1  0
 26 85  1  0
 26 86  1  0
 27 87  1  0
 27 88  1  0
 27 89  1  0
 42 90  1  0
 42 91  1  0
 43 92  1  0
 43 93  1  0
 43 94  1  0
 55 95  1  0
 55 96  1  0
 56 97  1  0
 56 98  1  0
 56 99  1  0
 57100  1  0
 57101  1  0
 58102  1  0
 58103  1  0
 58104  1  0
 59105  1  0
 65106  1  0
 66107  1  0
M  END

