
     RDKit          3D

122136  0  0  0  0  0  0  0  0999 V2000
    5.0632    5.1224    0.2738 C   0  0  0  0  0  0  0  0  0  0  0  0
    4.3649    4.8986    1.4088 C   0  0  0  0  0  0  0  0  0  0  0  0
    3.4819    3.7441    1.6410 C   0  0  0  0  0  0  0  0  0  0  0  0
    3.0442    2.9412    0.7756 O   0  0  0  0  0  0  0  0  0  0  0  0
    3.2163    3.6385    3.0507 C   0  0  0  0  0  0  0  0  0  0  0  0
    2.4714    2.6236    3.6884 C   0  0  0  0  0  0  0  0  0  0  0  0
    2.4092    2.7562    5.0571 C   0  0  0  0  0  0  0  0  0  0  0  0
    3.0456    3.8204    5.7724 C   0  0  0  0  0  0  0  0  0  0  0  0
    3.7889    4.8144    5.1520 C   0  0  0  0  0  0  0  0  0  0  0  0
    3.8527    4.7081    3.7318 C   0  0  0  0  0  0  0  0  0  0  0  0
    4.5100    5.5974    2.7243 C   0  0  0  0  0  0  0  0  0  0  0  0
    4.9187    6.8782    2.9105 C   0  0  0  0  0  0  0  0  0  0  0  0
    5.2204    7.7511    1.8055 C   0  0  0  0  0  0  0  0  0  0  0  0
    5.4421    8.4596    0.9178 N   0  0  0  0  0  0  0  0  0  0  0  0
    4.9277    7.5110    4.2026 C   0  0  0  0  0  0  0  0  0  0  0  0
    4.9374    8.0371    5.2335 N   0  0  0  0  0  0  0  0  0  0  0  0
    2.5122    3.2847    7.0701 C   0  0  0  0  0  0  0  0  0  0  0  0
    1.3156    4.0570    7.7000 C   0  0  0  0  0  0  0  0  0  0  0  0
    0.7146    3.1272    8.7280 C   0  0  0  0  0  0  0  0  0  0  0  0
    0.1212    2.1399    8.0459 C   0  0  0  0  0  0  0  0  0  0  0  0
    0.3440    2.4369    6.5836 C   0  0  0  0  0  0  0  0  0  0  0  0
    0.2382    3.9529    6.6337 C   0  0  0  0  0  0  0  0  0  0  0  0
    1.8609    2.1985    6.3305 C   0  0  0  0  0  0  0  0  0  0  0  0
    4.8448    4.2906   -0.9187 C   0  0  0  0  0  0  0  0  0  0  0  0
    5.5902    3.1047   -1.0728 C   0  0  0  0  0  0  0  0  0  0  0  0
    5.1146    2.0666   -1.8875 C   0  0  0  0  0  0  0  0  0  0  0  0
    3.8966    2.2439   -2.5558 C   0  0  0  0  0  0  0  0  0  0  0  0
    3.0120    1.3500   -3.1571 C   0  0  0  0  0  0  0  0  0  0  0  0
    1.8680    2.0450   -3.3976 C   0  0  0  0  0  0  0  0  0  0  0  0
    1.9577    3.3426   -2.9965 N   0  0  0  0  0  0  0  0  0  0  0  0
    3.2099    3.4486   -2.4800 C   0  0  0  0  0  0  0  0  0  0  0  0
    3.6838    4.4963   -1.6814 C   0  0  0  0  0  0  0  0  0  0  0  0
    0.8939    4.3423   -2.8591 C   0  0  0  0  0  0  0  0  0  0  0  0
    0.2432    4.2605   -1.4752 C   0  0  0  0  0  0  0  0  0  0  0  0
    0.8313    1.1291   -3.3443 C   0  0  0  0  0  0  0  0  0  0  0  0
   -0.5558    1.2846   -3.2167 C   0  0  0  0  0  0  0  0  0  0  0  0
   -1.3529    0.2415   -2.8526 C   0  0  0  0  0  0  0  0  0  0  0  0
   -2.6210    0.6678   -2.7808 N   0  0  0  0  0  0  0  0  0  0  0  0
   -2.5619    1.9561   -3.0992 N   0  0  0  0  0  0  0  0  0  0  0  0
   -3.7321    2.8246   -3.1586 C   0  0  0  0  0  0  0  0  0  0  0  0
   -4.4784    2.6137   -4.4695 C   0  0  0  0  0  0  0  0  0  0  0  0
   -1.3295    2.3666   -3.3808 N   0  0  0  0  0  0  0  0  0  0  0  0
   -0.8174   -1.0250   -2.6467 C   0  0  0  0  0  0  0  0  0  0  0  0
    0.5674   -1.2661   -2.8303 C   0  0  0  0  0  0  0  0  0  0  0  0
    1.4288   -0.1358   -3.1161 C   0  0  0  0  0  0  0  0  0  0  0  0
    2.7900    0.0192   -2.9509 N   0  0  0  0  0  0  0  0  0  0  0  0
    3.6797   -0.8247   -2.1555 C   0  0  0  0  0  0  0  0  0  0  0  0
    4.8929   -1.2985   -2.9683 C   0  0  0  0  0  0  0  0  0  0  0  0
    0.8070   -2.6291   -2.8251 N   0  0  0  0  0  0  0  0  0  0  0  0
    1.9365   -3.3895   -3.3635 C   0  0  0  0  0  0  0  0  0  0  0  0
    2.6329   -4.2317   -2.2808 C   0  0  0  0  0  0  0  0  0  0  0  0
   -0.4142   -3.1642   -2.5744 C   0  0  0  0  0  0  0  0  0  0  0  0
   -1.3813   -2.2552   -2.4332 C   0  0  0  0  0  0  0  0  0  0  0  0
   -2.6174   -2.7993   -2.3307 N   0  0  0  0  0  0  0  0  0  0  0  0
   -3.9124   -2.1231   -2.1941 C   0  0  0  0  0  0  0  0  0  0  0  0
   -4.0681   -1.5469   -0.7915 C   0  0  0  0  0  0  0  0  0  0  0  0
   -2.3729   -4.1409   -2.4026 C   0  0  0  0  0  0  0  0  0  0  0  0
   -1.0209   -4.4069   -2.6149 C   0  0  0  0  0  0  0  0  0  0  0  0
   -0.5612   -5.6998   -2.8612 C   0  0  0  0  0  0  0  0  0  0  0  0
   -1.4761   -6.7554   -2.7437 C   0  0  0  0  0  0  0  0  0  0  0  0
   -2.8305   -6.5065   -2.4206 C   0  0  0  0  0  0  0  0  0  0  0  0
   -3.3001   -5.1837   -2.3057 C   0  0  0  0  0  0  0  0  0  0  0  0
   -3.7714   -7.6262   -2.2475 C   0  0  0  0  0  0  0  0  0  0  0  0
   -3.6195   -8.5766   -1.3083 C   0  0  0  0  0  0  0  0  0  0  0  0
   -2.6809   -8.5094   -0.1656 C   0  0  0  0  0  0  0  0  0  0  0  0
   -1.7692   -7.6646    0.0353 O   0  0  0  0  0  0  0  0  0  0  0  0
   -3.0897   -9.5311    0.7623 C   0  0  0  0  0  0  0  0  0  0  0  0
   -2.6561  -10.0052    2.3087 S   0  0  0  0  0  0  0  0  0  0  0  0
   -3.8936  -11.1685    2.3857 C   0  0  0  0  0  0  0  0  0  0  0  0
   -4.2247  -12.2834    3.8956 Br  0  0  0  0  0  0  0  0  0  0  0  0
   -4.6467  -11.1684    1.2075 C   0  0  0  0  0  0  0  0  0  0  0  0
   -4.1613  -10.2188    0.3041 C   0  0  0  0  0  0  0  0  0  0  0  0
   -4.5425   -9.7325   -1.0411 C   0  0  0  0  0  0  0  0  0  0  0  0
   -5.4054  -10.3287   -1.8951 C   0  0  0  0  0  0  0  0  0  0  0  0
   -5.4881   -9.9528   -3.2830 C   0  0  0  0  0  0  0  0  0  0  0  0
   -5.5454   -9.6522   -4.4009 N   0  0  0  0  0  0  0  0  0  0  0  0
   -6.2011  -11.4628   -1.5083 C   0  0  0  0  0  0  0  0  0  0  0  0
   -6.8485  -12.3824   -1.2250 N   0  0  0  0  0  0  0  0  0  0  0  0
    5.8553    5.8529    0.2352 H   0  0  0  0  0  0  0  0  0  0  0  0
    1.9757    1.8218    3.1517 H   0  0  0  0  0  0  0  0  0  0  0  0
    4.2699    5.5822    5.7344 H   0  0  0  0  0  0  0  0  0  0  0  0
    3.3042    2.9544    7.7780 H   0  0  0  0  0  0  0  0  0  0  0  0
    1.5428    5.0822    8.0627 H   0  0  0  0  0  0  0  0  0  0  0  0
    0.6805    3.2672    9.8026 H   0  0  0  0  0  0  0  0  0  0  0  0
   -0.4811    1.3436    8.4704 H   0  0  0  0  0  0  0  0  0  0  0  0
   -0.3498    1.9231    5.8824 H   0  0  0  0  0  0  0  0  0  0  0  0
   -0.7600    4.3154    6.9755 H   0  0  0  0  0  0  0  0  0  0  0  0
    0.4895    4.4601    5.6758 H   0  0  0  0  0  0  0  0  0  0  0  0
    2.2371    1.1783    6.5682 H   0  0  0  0  0  0  0  0  0  0  0  0
    6.4732    2.9379   -0.4693 H   0  0  0  0  0  0  0  0  0  0  0  0
    5.6699    1.1458   -1.9125 H   0  0  0  0  0  0  0  0  0  0  0  0
    3.0892    5.3865   -1.5207 H   0  0  0  0  0  0  0  0  0  0  0  0
    0.1508    4.2288   -3.6674 H   0  0  0  0  0  0  0  0  0  0  0  0
    1.3146    5.3601   -2.9953 H   0  0  0  0  0  0  0  0  0  0  0  0
   -0.0441    3.2171   -1.2290 H   0  0  0  0  0  0  0  0  0  0  0  0
    0.9472    4.6139   -0.6966 H   0  0  0  0  0  0  0  0  0  0  0  0
   -0.6633    4.9005   -1.4484 H   0  0  0  0  0  0  0  0  0  0  0  0
   -4.4075    2.5940   -2.3056 H   0  0  0  0  0  0  0  0  0  0  0  0
   -3.4196    3.8889   -3.0757 H   0  0  0  0  0  0  0  0  0  0  0  0
   -4.8160    1.5564   -4.5500 H   0  0  0  0  0  0  0  0  0  0  0  0
   -5.3673    3.2779   -4.5021 H   0  0  0  0  0  0  0  0  0  0  0  0
   -3.8156    2.8537   -5.3272 H   0  0  0  0  0  0  0  0  0  0  0  0
    4.0163   -0.2796   -1.2475 H   0  0  0  0  0  0  0  0  0  0  0  0
    3.1316   -1.6733   -1.7488 H   0  0  0  0  0  0  0  0  0  0  0  0
    5.5571   -1.9111   -2.3230 H   0  0  0  0  0  0  0  0  0  0  0  0
    4.5982   -1.9074   -3.8451 H   0  0  0  0  0  0  0  0  0  0  0  0
    5.4666   -0.4437   -3.3750 H   0  0  0  0  0  0  0  0  0  0  0  0
    2.6363   -2.7096   -3.8627 H   0  0  0  0  0  0  0  0  0  0  0  0
    1.5794   -4.0631   -4.1707 H   0  0  0  0  0  0  0  0  0  0  0  0
    3.6284   -4.5624   -2.6504 H   0  0  0  0  0  0  0  0  0  0  0  0
    2.0547   -5.1315   -2.0136 H   0  0  0  0  0  0  0  0  0  0  0  0
    2.7692   -3.6832   -1.3277 H   0  0  0  0  0  0  0  0  0  0  0  0
   -4.7483   -2.8242   -2.3861 H   0  0  0  0  0  0  0  0  0  0  0  0
   -4.0124   -1.3321   -2.9613 H   0  0  0  0  0  0  0  0  0  0  0  0
   -3.2524   -0.8249   -0.5757 H   0  0  0  0  0  0  0  0  0  0  0  0
   -4.0359   -2.3639   -0.0423 H   0  0  0  0  0  0  0  0  0  0  0  0
   -5.0440   -1.0223   -0.7073 H   0  0  0  0  0  0  0  0  0  0  0  0
    0.4482   -5.9076   -3.1688 H   0  0  0  0  0  0  0  0  0  0  0  0
   -1.1362   -7.7711   -2.9002 H   0  0  0  0  0  0  0  0  0  0  0  0
   -4.3459   -4.9953   -2.1012 H   0  0  0  0  0  0  0  0  0  0  0  0
   -4.6601   -7.6050   -2.8569 H   0  0  0  0  0  0  0  0  0  0  0  0
   -5.5034  -11.8067    1.0487 H   0  0  0  0  0  0  0  0  0  0  0  0
  1  2  2  3
  2  3  1  0
  3  4  2  0
  3  5  1  0
  5  6  2  0
  6  7  1  0
  7  8  2  0
  8  9  1  0
  9 10  2  0
 10 11  1  0
 11 12  2  3
 12 13  1  0
 13 14  3  0
 12 15  1  0
 15 16  3  0
  8 17  1  0
 17 18  1  0
 18 19  1  0
 19 20  2  0
 20 21  1  0
 21 22  1  0
 21 23  1  0
  1 24  1  0
 24 25  2  0
 25 26  1  0
 26 27  2  0
 27 28  1  0
 28 29  2  0
 29 30  1  0
 30 31  1  0
 31 32  2  0
 30 33  1  0
 33 34  1  0
 29 35  1  0
 35 36  1  0
 36 37  1  0
 37 38  2  0
 38 39  1  0
 39 40  1  0
 40 41  1  0
 39 42  1  0
 37 43  1  0
 43 44  2  0
 44 45  1  0
 45 46  1  0
 46 47  1  0
 47 48  1  0
 44 49  1  0
 49 50  1  0
 50 51  1  0
 49 52  1  0
 52 53  2  0
 53 54  1  0
 54 55  1  0
 55 56  1  0
 54 57  1  0
 57 58  2  0
 58 59  1  0
 59 60  2  0
 60 61  1  0
 61 62  2  0
 61 63  1  0
 63 64  2  3
 64 65  1  0
 65 66  2  0
 65 67  1  0
 67 68  1  0
 68 69  1  0
 69 70  1  0
 69 71  2  0
 71 72  1  0
 72 73  1  0
 73 74  2  3
 74 75  1  0
 75 76  3  0
 74 77  1  0
 77 78  3  0
 11  2  1  0
 23 17  1  0
 32 24  1  0
 45 35  2  0
 58 52  1  0
 73 64  1  0
 10  5  1  0
 22 18  1  0
 31 27  1  0
 42 36  2  0
 53 43  1  0
 62 57  1  0
 72 67  2  0
 23  7  1  0
 46 28  1  0
  1 79  1  0
  6 80  1  0
  9 81  1  0
 17 82  1  0
 18 83  1  0
 19 84  1  0
 20 85  1  0
 21 86  1  0
 22 87  1  0
 22 88  1  0
 23 89  1  0
 25 90  1  0
 26 91  1  0
 32 92  1  0
 33 93  1  0
 33 94  1  0
 34 95  1  0
 34 96  1  0
 34 97  1  0
 40 98  1  0
 40 99  1  0
 41100  1  0
 41101  1  0
 41102  1  0
 47103  1  0
 47104  1  0
 48105  1  0
 48106  1  0
 48107  1  0
 50108  1  0
 50109  1  0
 51110  1  0
 51111  1  0
 51112  1  0
 55113  1  0
 55114  1  0
 56115  1  0
 56116  1  0
 56117  1  0
 59118  1  0
 60119  1  0
 62120  1  0
 63121  1  0
 71122  1  0
M  END

