
     RDKit          3D

111124  0  0  0  0  0  0  0  0999 V2000
    5.3862    1.6255   -3.4385 C   0  0  0  0  0  0  0  0  0  0  0  0
    5.8849    2.2122   -2.3330 C   0  0  0  0  0  0  0  0  0  0  0  0
    6.9315    3.2317   -2.4014 C   0  0  0  0  0  0  0  0  0  0  0  0
    7.7412    3.3965   -3.3531 O   0  0  0  0  0  0  0  0  0  0  0  0
    6.7996    4.1001   -1.2480 C   0  0  0  0  0  0  0  0  0  0  0  0
    7.4992    5.3051   -0.9956 C   0  0  0  0  0  0  0  0  0  0  0  0
    7.0583    5.9814    0.1288 C   0  0  0  0  0  0  0  0  0  0  0  0
    5.9814    5.5141    0.9505 C   0  0  0  0  0  0  0  0  0  0  0  0
    5.2883    4.3390    0.7049 C   0  0  0  0  0  0  0  0  0  0  0  0
    5.7503    3.6116   -0.4259 C   0  0  0  0  0  0  0  0  0  0  0  0
    5.2625    2.3235   -0.9829 C   0  0  0  0  0  0  0  0  0  0  0  0
    4.7078    1.3116   -0.2706 C   0  0  0  0  0  0  0  0  0  0  0  0
    4.2169    1.4863    1.0733 C   0  0  0  0  0  0  0  0  0  0  0  0
    3.8139    1.6217    2.1517 N   0  0  0  0  0  0  0  0  0  0  0  0
    4.7149   -0.0458   -0.7516 C   0  0  0  0  0  0  0  0  0  0  0  0
    4.7206   -1.1445   -1.1168 N   0  0  0  0  0  0  0  0  0  0  0  0
    6.1072    6.7215    1.8310 C   0  0  0  0  0  0  0  0  0  0  0  0
    5.0341    7.8444    1.6894 C   0  0  0  0  0  0  0  0  0  0  0  0
    4.5196    7.8941    0.2689 C   0  0  0  0  0  0  0  0  0  0  0  0
    5.5285    8.3296   -0.4876 C   0  0  0  0  0  0  0  0  0  0  0  0
    6.6987    8.5579    0.4412 C   0  0  0  0  0  0  0  0  0  0  0  0
    5.9396    9.0624    1.6542 C   0  0  0  0  0  0  0  0  0  0  0  0
    7.2158    7.1959    0.9962 C   0  0  0  0  0  0  0  0  0  0  0  0
    4.0618    0.9860   -3.5284 C   0  0  0  0  0  0  0  0  0  0  0  0
    3.8606   -0.5207   -4.2985 S   0  0  0  0  0  0  0  0  0  0  0  0
    2.2764   -0.6466   -3.7903 C   0  0  0  0  0  0  0  0  0  0  0  0
    1.2370   -1.5108   -3.9087 C   0  0  0  0  0  0  0  0  0  0  0  0
    1.1002   -2.6294   -4.7290 C   0  0  0  0  0  0  0  0  0  0  0  0
   -0.1580   -3.2815   -4.7795 C   0  0  0  0  0  0  0  0  0  0  0  0
   -0.2577   -4.3633   -5.5916 N   0  0  0  0  0  0  0  0  0  0  0  0
    1.2787   -4.3916   -6.2098 S   0  0  0  0  0  0  0  0  0  0  0  0
    2.0898   -3.1260   -5.5147 N   0  0  0  0  0  0  0  0  0  0  0  0
   -1.1955   -2.8078   -3.9701 C   0  0  0  0  0  0  0  0  0  0  0  0
   -2.3940   -3.3965   -3.6934 C   0  0  0  0  0  0  0  0  0  0  0  0
   -3.0938   -4.9165   -3.9804 S   0  0  0  0  0  0  0  0  0  0  0  0
   -4.1124   -4.7396   -2.6265 C   0  0  0  0  0  0  0  0  0  0  0  0
   -4.9223   -5.6523   -1.9401 C   0  0  0  0  0  0  0  0  0  0  0  0
   -5.2144   -7.0348   -2.4607 C   0  0  0  0  0  0  0  0  0  0  0  0
   -4.0959   -8.0093   -2.1066 C   0  0  0  0  0  0  0  0  0  0  0  0
   -5.2859   -5.1592   -0.6649 C   0  0  0  0  0  0  0  0  0  0  0  0
   -4.5552   -3.6329   -0.4492 S   0  0  0  0  0  0  0  0  0  0  0  0
   -3.8575   -3.5634   -1.9678 C   0  0  0  0  0  0  0  0  0  0  0  0
   -2.8897   -2.7796   -2.5950 C   0  0  0  0  0  0  0  0  0  0  0  0
   -2.1086   -1.7492   -2.1703 N   0  0  0  0  0  0  0  0  0  0  0  0
   -1.0424   -1.7349   -3.0588 C   0  0  0  0  0  0  0  0  0  0  0  0
    0.2003   -0.9959   -3.1022 C   0  0  0  0  0  0  0  0  0  0  0  0
    0.6030    0.2243   -2.5813 N   0  0  0  0  0  0  0  0  0  0  0  0
    1.8709    0.4063   -3.0623 C   0  0  0  0  0  0  0  0  0  0  0  0
    2.8259    1.4478   -2.9942 C   0  0  0  0  0  0  0  0  0  0  0  0
    2.5125    2.8989   -2.6649 C   0  0  0  0  0  0  0  0  0  0  0  0
    3.1899    3.9195   -3.5848 C   0  0  0  0  0  0  0  0  0  0  0  0
   -0.1005    1.1590   -1.7065 C   0  0  0  0  0  0  0  0  0  0  0  0
   -1.2280    1.8654   -2.4544 C   0  0  0  0  0  0  0  0  0  0  0  0
   -2.2971   -1.1091   -0.8671 C   0  0  0  0  0  0  0  0  0  0  0  0
   -1.3100   -1.6621    0.1586 C   0  0  0  0  0  0  0  0  0  0  0  0
   -5.9005   -5.9849    0.4052 C   0  0  0  0  0  0  0  0  0  0  0  0
   -6.3813   -5.5598    1.5964 C   0  0  0  0  0  0  0  0  0  0  0  0
   -6.4364   -4.1838    2.1131 C   0  0  0  0  0  0  0  0  0  0  0  0
   -6.6292   -3.1362    1.4413 O   0  0  0  0  0  0  0  0  0  0  0  0
   -6.3923   -4.2413    3.5618 C   0  0  0  0  0  0  0  0  0  0  0  0
   -6.2559   -3.1917    4.4695 C   0  0  0  0  0  0  0  0  0  0  0  0
   -6.1443   -3.4889    5.8391 C   0  0  0  0  0  0  0  0  0  0  0  0
   -6.0132   -2.4254    6.7435 O   0  0  0  0  0  0  0  0  0  0  0  0
   -5.8212   -2.5843    8.1458 C   0  0  0  0  0  0  0  0  0  0  0  0
   -6.1585   -4.8445    6.2572 C   0  0  0  0  0  0  0  0  0  0  0  0
   -6.2995   -5.8832    5.3215 C   0  0  0  0  0  0  0  0  0  0  0  0
   -6.4550   -5.5597    3.9662 C   0  0  0  0  0  0  0  0  0  0  0  0
   -6.6263   -6.4378    2.7790 C   0  0  0  0  0  0  0  0  0  0  0  0
   -7.1700   -7.6783    2.7637 C   0  0  0  0  0  0  0  0  0  0  0  0
   -7.5543   -8.3612    3.9702 C   0  0  0  0  0  0  0  0  0  0  0  0
   -7.8698   -8.9146    4.9370 N   0  0  0  0  0  0  0  0  0  0  0  0
   -7.5599   -8.3296    1.5386 C   0  0  0  0  0  0  0  0  0  0  0  0
   -7.8783   -8.8568    0.5600 N   0  0  0  0  0  0  0  0  0  0  0  0
    5.9745    1.6516   -4.3487 H   0  0  0  0  0  0  0  0  0  0  0  0
    8.2854    5.6842   -1.6381 H   0  0  0  0  0  0  0  0  0  0  0  0
    4.4468    4.0509    1.3142 H   0  0  0  0  0  0  0  0  0  0  0  0
    6.4042    6.4846    2.8770 H   0  0  0  0  0  0  0  0  0  0  0  0
    4.2500    7.8520    2.4744 H   0  0  0  0  0  0  0  0  0  0  0  0
    3.5055    7.7066   -0.0712 H   0  0  0  0  0  0  0  0  0  0  0  0
    5.4756    8.5441   -1.5505 H   0  0  0  0  0  0  0  0  0  0  0  0
    7.4826    9.2394    0.0509 H   0  0  0  0  0  0  0  0  0  0  0  0
    5.3954   10.0205    1.4718 H   0  0  0  0  0  0  0  0  0  0  0  0
    6.5748    9.1692    2.5634 H   0  0  0  0  0  0  0  0  0  0  0  0
    8.1885    7.2460    1.5332 H   0  0  0  0  0  0  0  0  0  0  0  0
   -5.3224   -6.9868   -3.5681 H   0  0  0  0  0  0  0  0  0  0  0  0
   -6.1771   -7.4047   -2.0556 H   0  0  0  0  0  0  0  0  0  0  0  0
   -3.1074   -7.6081   -2.4372 H   0  0  0  0  0  0  0  0  0  0  0  0
   -4.2674   -8.9737   -2.6255 H   0  0  0  0  0  0  0  0  0  0  0  0
   -4.0656   -8.1837   -1.0081 H   0  0  0  0  0  0  0  0  0  0  0  0
    2.7417    3.1180   -1.6023 H   0  0  0  0  0  0  0  0  0  0  0  0
    1.4379    3.0762   -2.8324 H   0  0  0  0  0  0  0  0  0  0  0  0
    2.7286    4.9160   -3.4261 H   0  0  0  0  0  0  0  0  0  0  0  0
    4.2641    4.0326   -3.3532 H   0  0  0  0  0  0  0  0  0  0  0  0
    3.0589    3.6299   -4.6474 H   0  0  0  0  0  0  0  0  0  0  0  0
    0.5862    1.9075   -1.2817 H   0  0  0  0  0  0  0  0  0  0  0  0
   -0.4032    0.6620   -0.7824 H   0  0  0  0  0  0  0  0  0  0  0  0
   -0.8099    2.5013   -3.2626 H   0  0  0  0  0  0  0  0  0  0  0  0
   -1.7980    2.5052   -1.7500 H   0  0  0  0  0  0  0  0  0  0  0  0
   -1.9149    1.1281   -2.9181 H   0  0  0  0  0  0  0  0  0  0  0  0
   -3.3181   -1.2973   -0.4882 H   0  0  0  0  0  0  0  0  0  0  0  0
   -2.3209   -0.0168   -0.9504 H   0  0  0  0  0  0  0  0  0  0  0  0
   -1.4295   -1.1195    1.1195 H   0  0  0  0  0  0  0  0  0  0  0  0
   -0.2620   -1.5551   -0.1956 H   0  0  0  0  0  0  0  0  0  0  0  0
   -1.5123   -2.7392    0.3291 H   0  0  0  0  0  0  0  0  0  0  0  0
   -5.8280   -7.0473    0.2474 H   0  0  0  0  0  0  0  0  0  0  0  0
   -6.2205   -2.1671    4.1207 H   0  0  0  0  0  0  0  0  0  0  0  0
   -6.6932   -3.1096    8.5911 H   0  0  0  0  0  0  0  0  0  0  0  0
   -5.7342   -1.5856    8.6146 H   0  0  0  0  0  0  0  0  0  0  0  0
   -4.8898   -3.1561    8.3407 H   0  0  0  0  0  0  0  0  0  0  0  0
   -6.0513   -5.1042    7.2981 H   0  0  0  0  0  0  0  0  0  0  0  0
   -6.2665   -6.9067    5.6639 H   0  0  0  0  0  0  0  0  0  0  0  0
  1  2  2  3
  2  3  1  0
  3  4  2  0
  3  5  1  0
  5  6  2  0
  6  7  1  0
  7  8  2  0
  8  9  1  0
  9 10  2  0
 10 11  1  0
 11 12  2  3
 12 13  1  0
 13 14  3  0
 12 15  1  0
 15 16  3  0
  8 17  1  0
 17 18  1  0
 18 19  1  0
 19 20  2  0
 20 21  1  0
 21 22  1  0
 21 23  1  0
  1 24  1  0
 24 25  1  0
 25 26  1  0
 26 27  1  0
 27 28  1  0
 28 29  1  0
 29 30  2  0
 30 31  1  0
 31 32  1  0
 29 33  1  0
 33 34  1  0
 34 35  1  0
 35 36  1  0
 36 37  1  0
 37 38  1  0
 38 39  1  0
 37 40  2  0
 40 41  1  0
 41 42  1  0
 42 43  1  0
 43 44  1  0
 44 45  1  0
 45 46  1  0
 46 47  1  0
 47 48  1  0
 48 49  1  0
 49 50  1  0
 50 51  1  0
 47 52  1  0
 52 53  1  0
 44 54  1  0
 54 55  1  0
 40 56  1  0
 56 57  2  3
 57 58  1  0
 58 59  2  0
 58 60  1  0
 60 61  2  0
 61 62  1  0
 62 63  1  0
 63 64  1  0
 62 65  2  0
 65 66  1  0
 66 67  2  0
 67 68  1  0
 68 69  2  3
 69 70  1  0
 70 71  3  0
 69 72  1  0
 72 73  3  0
 11  2  1  0
 23 17  1  0
 49 24  2  0
 68 57  1  0
 10  5  1  0
 22 18  1  0
 48 26  2  0
 67 60  1  0
 23  7  1  0
 46 27  2  0
 32 28  2  0
 45 33  2  0
 43 34  2  0
 42 36  2  0
  1 74  1  0
  6 75  1  0
  9 76  1  0
 17 77  1  0
 18 78  1  0
 19 79  1  0
 20 80  1  0
 21 81  1  0
 22 82  1  0
 22 83  1  0
 23 84  1  0
 38 85  1  0
 38 86  1  0
 39 87  1  0
 39 88  1  0
 39 89  1  0
 50 90  1  0
 50 91  1  0
 51 92  1  0
 51 93  1  0
 51 94  1  0
 52 95  1  0
 52 96  1  0
 53 97  1  0
 53 98  1  0
 53 99  1  0
 54100  1  0
 54101  1  0
 55102  1  0
 55103  1  0
 55104  1  0
 56105  1  0
 61106  1  0
 64107  1  0
 64108  1  0
 64109  1  0
 65110  1  0
 66111  1  0
M  END

