
     RDKit          3D

106119  0  0  0  0  0  0  0  0999 V2000
   -0.9865   -6.0217    1.5246 C   0  0  0  0  0  0  0  0  0  0  0  0
   -0.0950   -5.5457    2.4158 C   0  0  0  0  0  0  0  0  0  0  0  0
    0.1565   -4.1229    2.6903 C   0  0  0  0  0  0  0  0  0  0  0  0
   -0.2763   -3.1431    2.0279 O   0  0  0  0  0  0  0  0  0  0  0  0
    0.8933   -4.0102    3.9269 C   0  0  0  0  0  0  0  0  0  0  0  0
    1.2436   -2.8168    4.5991 C   0  0  0  0  0  0  0  0  0  0  0  0
    1.8403   -3.0216    5.8261 C   0  0  0  0  0  0  0  0  0  0  0  0
    2.0666   -4.3232    6.3764 C   0  0  0  0  0  0  0  0  0  0  0  0
    1.7183   -5.4959    5.7261 C   0  0  0  0  0  0  0  0  0  0  0  0
    1.1302   -5.3103    4.4457 C   0  0  0  0  0  0  0  0  0  0  0  0
    0.6183   -6.3223    3.4779 C   0  0  0  0  0  0  0  0  0  0  0  0
    0.9634   -7.6351    3.4260 C   0  0  0  0  0  0  0  0  0  0  0  0
    1.8444   -8.2443    4.3868 C   0  0  0  0  0  0  0  0  0  0  0  0
    2.5548   -8.7512    5.1483 N   0  0  0  0  0  0  0  0  0  0  0  0
    0.6131   -8.4782    2.3133 C   0  0  0  0  0  0  0  0  0  0  0  0
    0.3418   -9.1646    1.4206 N   0  0  0  0  0  0  0  0  0  0  0  0
    2.6379   -3.7133    7.6215 C   0  0  0  0  0  0  0  0  0  0  0  0
    1.7292   -3.7269    8.8849 C   0  0  0  0  0  0  0  0  0  0  0  0
    2.3399   -2.7340    9.8461 C   0  0  0  0  0  0  0  0  0  0  0  0
    2.1277   -1.5190    9.3257 C   0  0  0  0  0  0  0  0  0  0  0  0
    1.3840   -1.7329    8.0304 C   0  0  0  0  0  0  0  0  0  0  0  0
    0.5214   -2.9110    8.4515 C   0  0  0  0  0  0  0  0  0  0  0  0
    2.4099   -2.3804    7.0535 C   0  0  0  0  0  0  0  0  0  0  0  0
   -1.6105   -5.1876    0.4862 C   0  0  0  0  0  0  0  0  0  0  0  0
   -2.9787   -4.8795    0.3967 C   0  0  0  0  0  0  0  0  0  0  0  0
   -4.0077   -5.2806    1.4174 C   0  0  0  0  0  0  0  0  0  0  0  0
   -4.0273   -4.2897    2.5776 C   0  0  0  0  0  0  0  0  0  0  0  0
   -3.2072   -3.9522   -0.6250 C   0  0  0  0  0  0  0  0  0  0  0  0
   -2.0876   -3.5547   -1.3165 C   0  0  0  0  0  0  0  0  0  0  0  0
   -0.7350   -4.3271   -0.6969 S   0  0  0  0  0  0  0  0  0  0  0  0
   -2.3123   -2.4548   -2.1433 C   0  0  0  0  0  0  0  0  0  0  0  0
   -3.6120   -2.0465   -2.0879 C   0  0  0  0  0  0  0  0  0  0  0  0
   -4.5317   -2.9476   -0.9816 S   0  0  0  0  0  0  0  0  0  0  0  0
   -3.6372   -0.7384   -2.4828 C   0  0  0  0  0  0  0  0  0  0  0  0
   -4.6052    0.2482   -2.2441 C   0  0  0  0  0  0  0  0  0  0  0  0
   -5.8527   -0.0016   -1.7741 N   0  0  0  0  0  0  0  0  0  0  0  0
   -6.4296    1.5483   -1.6669 S   0  0  0  0  0  0  0  0  0  0  0  0
   -5.2037    2.5433   -2.1678 N   0  0  0  0  0  0  0  0  0  0  0  0
   -4.2563    1.6143   -2.4444 C   0  0  0  0  0  0  0  0  0  0  0  0
   -2.9730    1.9157   -2.9031 C   0  0  0  0  0  0  0  0  0  0  0  0
   -2.3816    3.1026   -3.2181 C   0  0  0  0  0  0  0  0  0  0  0  0
   -2.6862    4.7725   -3.1374 S   0  0  0  0  0  0  0  0  0  0  0  0
   -1.1331    5.1014   -3.7682 C   0  0  0  0  0  0  0  0  0  0  0  0
   -0.4015    6.2738   -3.9251 C   0  0  0  0  0  0  0  0  0  0  0  0
    0.9171    5.9853   -4.3002 C   0  0  0  0  0  0  0  0  0  0  0  0
    1.1404    4.2982   -4.4660 S   0  0  0  0  0  0  0  0  0  0  0  0
   -0.4407    3.9486   -4.0388 C   0  0  0  0  0  0  0  0  0  0  0  0
   -1.1590    2.8114   -3.7172 C   0  0  0  0  0  0  0  0  0  0  0  0
   -0.8920    1.4838   -3.7546 N   0  0  0  0  0  0  0  0  0  0  0  0
    0.0333    0.8776   -4.7277 C   0  0  0  0  0  0  0  0  0  0  0  0
   -0.7219    0.1485   -5.8363 C   0  0  0  0  0  0  0  0  0  0  0  0
   -2.0096    0.9290   -3.1749 C   0  0  0  0  0  0  0  0  0  0  0  0
   -2.3203   -0.4233   -2.8654 C   0  0  0  0  0  0  0  0  0  0  0  0
   -1.4791   -1.4718   -2.5822 N   0  0  0  0  0  0  0  0  0  0  0  0
   -0.0506   -1.3997   -2.2488 C   0  0  0  0  0  0  0  0  0  0  0  0
    0.7775   -2.2735   -3.1936 C   0  0  0  0  0  0  0  0  0  0  0  0
    1.9711    6.9928   -4.5014 C   0  0  0  0  0  0  0  0  0  0  0  0
    3.1877    6.9441   -3.9075 C   0  0  0  0  0  0  0  0  0  0  0  0
    3.5026    5.9708   -2.8316 C   0  0  0  0  0  0  0  0  0  0  0  0
    2.5956    5.5385   -2.0703 O   0  0  0  0  0  0  0  0  0  0  0  0
    4.8648    5.5688   -2.6244 N   0  0  0  0  0  0  0  0  0  0  0  0
    5.1793    4.4247   -1.7561 C   0  0  0  0  0  0  0  0  0  0  0  0
    5.0689    3.1163   -2.5322 C   0  0  0  0  0  0  0  0  0  0  0  0
    5.9021    6.2578   -3.3462 C   0  0  0  0  0  0  0  0  0  0  0  0
    7.0889    5.8263   -3.3111 O   0  0  0  0  0  0  0  0  0  0  0  0
    5.5840    7.4896   -4.1120 C   0  0  0  0  0  0  0  0  0  0  0  0
    4.2953    7.8572   -4.3328 C   0  0  0  0  0  0  0  0  0  0  0  0
    3.9779    9.1475   -5.0612 C   0  0  0  0  0  0  0  0  0  0  0  0
    6.6910    8.2852   -4.6020 C   0  0  0  0  0  0  0  0  0  0  0  0
    7.5783    8.9195   -4.9861 N   0  0  0  0  0  0  0  0  0  0  0  0
   -1.3316   -7.0418    1.5858 H   0  0  0  0  0  0  0  0  0  0  0  0
    1.0318   -1.8308    4.2105 H   0  0  0  0  0  0  0  0  0  0  0  0
    1.8484   -6.4461    6.2084 H   0  0  0  0  0  0  0  0  0  0  0  0
    3.7081   -3.9660    7.7905 H   0  0  0  0  0  0  0  0  0  0  0  0
    1.5160   -4.7310    9.3070 H   0  0  0  0  0  0  0  0  0  0  0  0
    2.7758   -2.9410   10.8169 H   0  0  0  0  0  0  0  0  0  0  0  0
    2.3606   -0.5723    9.8010 H   0  0  0  0  0  0  0  0  0  0  0  0
    0.8363   -0.8481    7.6441 H   0  0  0  0  0  0  0  0  0  0  0  0
   -0.0656   -3.3661    7.6232 H   0  0  0  0  0  0  0  0  0  0  0  0
   -0.1763   -2.6769    9.2931 H   0  0  0  0  0  0  0  0  0  0  0  0
    3.3323   -1.7875    6.8608 H   0  0  0  0  0  0  0  0  0  0  0  0
   -3.7803   -6.2978    1.8061 H   0  0  0  0  0  0  0  0  0  0  0  0
   -5.0149   -5.3146    0.9442 H   0  0  0  0  0  0  0  0  0  0  0  0
   -3.0275   -4.2295    3.0576 H   0  0  0  0  0  0  0  0  0  0  0  0
   -4.7713   -4.6197    3.3318 H   0  0  0  0  0  0  0  0  0  0  0  0
   -4.3155   -3.2795    2.2146 H   0  0  0  0  0  0  0  0  0  0  0  0
   -0.7822    7.2648   -3.7153 H   0  0  0  0  0  0  0  0  0  0  0  0
    0.7625    0.2157   -4.2462 H   0  0  0  0  0  0  0  0  0  0  0  0
    0.6459    1.6622   -5.2129 H   0  0  0  0  0  0  0  0  0  0  0  0
   -1.2769   -0.7204   -5.4295 H   0  0  0  0  0  0  0  0  0  0  0  0
    0.0011   -0.2229   -6.5940 H   0  0  0  0  0  0  0  0  0  0  0  0
   -1.4359    0.8431   -6.3256 H   0  0  0  0  0  0  0  0  0  0  0  0
    0.3048   -0.3550   -2.2464 H   0  0  0  0  0  0  0  0  0  0  0  0
    0.1120   -1.7360   -1.2042 H   0  0  0  0  0  0  0  0  0  0  0  0
    0.5326   -2.0550   -4.2535 H   0  0  0  0  0  0  0  0  0  0  0  0
    0.5696   -3.3495   -3.0167 H   0  0  0  0  0  0  0  0  0  0  0  0
    1.8615   -2.0856   -3.0230 H   0  0  0  0  0  0  0  0  0  0  0  0
    1.7474    7.7537   -5.2345 H   0  0  0  0  0  0  0  0  0  0  0  0
    4.4882    4.3940   -0.8876 H   0  0  0  0  0  0  0  0  0  0  0  0
    6.2056    4.5195   -1.3420 H   0  0  0  0  0  0  0  0  0  0  0  0
    5.2668    2.2619   -1.8517 H   0  0  0  0  0  0  0  0  0  0  0  0
    4.0524    3.0027   -2.9641 H   0  0  0  0  0  0  0  0  0  0  0  0
    5.8173    3.0947   -3.3505 H   0  0  0  0  0  0  0  0  0  0  0  0
    3.0104    9.5620   -4.7155 H   0  0  0  0  0  0  0  0  0  0  0  0
    4.7329    9.9349   -4.8577 H   0  0  0  0  0  0  0  0  0  0  0  0
    3.9321    8.9574   -6.1514 H   0  0  0  0  0  0  0  0  0  0  0  0
  1  2  2  3
  2  3  1  0
  3  4  2  0
  3  5  1  0
  5  6  2  0
  6  7  1  0
  7  8  2  0
  8  9  1  0
  9 10  2  0
 10 11  1  0
 11 12  2  3
 12 13  1  0
 13 14  3  0
 12 15  1  0
 15 16  3  0
  8 17  1  0
 17 18  1  0
 18 19  1  0
 19 20  2  0
 20 21  1  0
 21 22  1  0
 21 23  1  0
  1 24  1  0
 24 25  2  0
 25 26  1  0
 26 27  1  0
 25 28  1  0
 28 29  2  0
 29 30  1  0
 29 31  1  0
 31 32  2  0
 32 33  1  0
 32 34  1  0
 34 35  1  0
 35 36  2  0
 36 37  1  0
 37 38  1  0
 38 39  2  0
 39 40  1  0
 40 41  1  0
 41 42  1  0
 42 43  1  0
 43 44  1  0
 44 45  2  0
 45 46  1  0
 46 47  1  0
 47 48  1  0
 48 49  1  0
 49 50  1  0
 50 51  1  0
 49 52  1  0
 52 53  1  0
 53 54  1  0
 54 55  1  0
 55 56  1  0
 45 57  1  0
 57 58  2  3
 58 59  1  0
 59 60  2  0
 59 61  1  0
 61 62  1  0
 62 63  1  0
 61 64  1  0
 64 65  2  0
 64 66  1  0
 66 67  2  0
 67 68  1  0
 66 69  1  0
 69 70  3  0
 11  2  1  0
 23 17  1  0
 30 24  1  0
 54 31  1  0
 67 58  1  0
 10  5  1  0
 22 18  1  0
 33 28  1  0
 53 34  2  0
 23  7  1  0
 39 35  1  0
 52 40  2  0
 48 41  2  0
 47 43  2  0
  1 71  1  0
  6 72  1  0
  9 73  1  0
 17 74  1  0
 18 75  1  0
 19 76  1  0
 20 77  1  0
 21 78  1  0
 22 79  1  0
 22 80  1  0
 23 81  1  0
 26 82  1  0
 26 83  1  0
 27 84  1  0
 27 85  1  0
 27 86  1  0
 44 87  1  0
 50 88  1  0
 50 89  1  0
 51 90  1  0
 51 91  1  0
 51 92  1  0
 55 93  1  0
 55 94  1  0
 56 95  1  0
 56 96  1  0
 56 97  1  0
 57 98  1  0
 62 99  1  0
 62100  1  0
 63101  1  0
 63102  1  0
 63103  1  0
 68104  1  0
 68105  1  0
 68106  1  0
M  END

