
     RDKit          3D

127143  0  0  0  0  0  0  0  0999 V2000
   -5.1502    3.9432   -3.7288 C   0  0  0  0  0  0  0  0  0  0  0  0
   -4.3477    3.8306   -4.8071 C   0  0  0  0  0  0  0  0  0  0  0  0
   -2.9346    4.2258   -4.8083 C   0  0  0  0  0  0  0  0  0  0  0  0
   -2.4707    5.2975   -4.3407 O   0  0  0  0  0  0  0  0  0  0  0  0
   -2.1504    3.2187   -5.4759 C   0  0  0  0  0  0  0  0  0  0  0  0
   -0.7417    3.1065   -5.4684 C   0  0  0  0  0  0  0  0  0  0  0  0
   -0.2798    1.9021   -5.9578 C   0  0  0  0  0  0  0  0  0  0  0  0
   -1.1461    0.8607   -6.4262 C   0  0  0  0  0  0  0  0  0  0  0  0
   -2.5285    0.9794   -6.4610 C   0  0  0  0  0  0  0  0  0  0  0  0
   -3.0238    2.2250   -5.9804 C   0  0  0  0  0  0  0  0  0  0  0  0
   -4.4273    2.6578   -5.7284 C   0  0  0  0  0  0  0  0  0  0  0  0
   -5.5487    2.1801   -6.3189 C   0  0  0  0  0  0  0  0  0  0  0  0
   -6.8210    2.8391   -6.1671 C   0  0  0  0  0  0  0  0  0  0  0  0
   -7.8447    3.3652   -6.0448 N   0  0  0  0  0  0  0  0  0  0  0  0
   -5.5331    1.0355   -7.1914 C   0  0  0  0  0  0  0  0  0  0  0  0
   -5.5384    0.1039   -7.8813 N   0  0  0  0  0  0  0  0  0  0  0  0
    0.0287   -0.0532   -6.6111 C   0  0  0  0  0  0  0  0  0  0  0  0
    0.2173   -1.1650   -5.5339 C   0  0  0  0  0  0  0  0  0  0  0  0
    1.6275   -1.6741   -5.7060 C   0  0  0  0  0  0  0  0  0  0  0  0
    2.4393   -0.6938   -5.2891 C   0  0  0  0  0  0  0  0  0  0  0  0
    1.5484    0.4423   -4.8487 C   0  0  0  0  0  0  0  0  0  0  0  0
    0.4154   -0.3741   -4.2490 C   0  0  0  0  0  0  0  0  0  0  0  0
    0.9154    1.0199   -6.1491 C   0  0  0  0  0  0  0  0  0  0  0  0
   -4.5782    3.8427   -2.3747 C   0  0  0  0  0  0  0  0  0  0  0  0
   -3.8789    4.8309   -1.6408 C   0  0  0  0  0  0  0  0  0  0  0  0
   -3.8332    6.2728   -1.9831 C   0  0  0  0  0  0  0  0  0  0  0  0
   -2.6338    6.9998   -1.8918 C   0  0  0  0  0  0  0  0  0  0  0  0
   -2.5903    8.3473   -2.2543 C   0  0  0  0  0  0  0  0  0  0  0  0
   -3.7428    8.9899   -2.7261 C   0  0  0  0  0  0  0  0  0  0  0  0
   -3.6956   10.4434   -3.1142 C   0  0  0  0  0  0  0  0  0  0  0  0
   -4.0173   11.3310   -1.9167 C   0  0  0  0  0  0  0  0  0  0  0  0
   -4.9488    8.2757   -2.7956 C   0  0  0  0  0  0  0  0  0  0  0  0
   -4.9936    6.9286   -2.4297 C   0  0  0  0  0  0  0  0  0  0  0  0
   -3.2104    4.2427   -0.5564 C   0  0  0  0  0  0  0  0  0  0  0  0
   -2.0612    4.7959    0.5880 S   0  0  0  0  0  0  0  0  0  0  0  0
   -1.8316    3.2159    1.1697 C   0  0  0  0  0  0  0  0  0  0  0  0
   -1.0716    2.5151    2.0657 C   0  0  0  0  0  0  0  0  0  0  0  0
   -0.1356    2.9092    3.0256 C   0  0  0  0  0  0  0  0  0  0  0  0
    0.4756    1.9041    3.8355 C   0  0  0  0  0  0  0  0  0  0  0  0
    1.3990    2.3231    4.7345 N   0  0  0  0  0  0  0  0  0  0  0  0
    1.3508    3.9534    4.4465 S   0  0  0  0  0  0  0  0  0  0  0  0
    0.2429    4.1924    3.2390 N   0  0  0  0  0  0  0  0  0  0  0  0
    0.1419    0.5588    3.6139 C   0  0  0  0  0  0  0  0  0  0  0  0
    0.7679   -0.5890    4.0119 C   0  0  0  0  0  0  0  0  0  0  0  0
    2.2569   -0.9433    4.7471 S   0  0  0  0  0  0  0  0  0  0  0  0
    2.2977   -2.4858    4.0230 C   0  0  0  0  0  0  0  0  0  0  0  0
    3.2846   -3.4724    3.9311 C   0  0  0  0  0  0  0  0  0  0  0  0
    4.5838   -3.4153    4.6365 C   0  0  0  0  0  0  0  0  0  0  0  0
    4.6358   -3.0771    5.9976 C   0  0  0  0  0  0  0  0  0  0  0  0
    5.8618   -3.0289    6.6688 C   0  0  0  0  0  0  0  0  0  0  0  0
    7.0539   -3.3048    5.9827 C   0  0  0  0  0  0  0  0  0  0  0  0
    8.3741   -3.2862    6.7073 C   0  0  0  0  0  0  0  0  0  0  0  0
    8.8218   -4.7060    7.0480 C   0  0  0  0  0  0  0  0  0  0  0  0
    7.0055   -3.6326    4.6185 C   0  0  0  0  0  0  0  0  0  0  0  0
    5.7807   -3.6822    3.9500 C   0  0  0  0  0  0  0  0  0  0  0  0
    2.9181   -4.4509    2.9864 C   0  0  0  0  0  0  0  0  0  0  0  0
    1.3940   -4.0779    2.3158 S   0  0  0  0  0  0  0  0  0  0  0  0
    1.2173   -2.6682    3.1992 C   0  0  0  0  0  0  0  0  0  0  0  0
    0.3453   -1.5855    3.1823 C   0  0  0  0  0  0  0  0  0  0  0  0
   -0.5235   -1.1423    2.2349 N   0  0  0  0  0  0  0  0  0  0  0  0
   -0.7245    0.1696    2.5807 C   0  0  0  0  0  0  0  0  0  0  0  0
   -1.4213    1.1707    1.8708 C   0  0  0  0  0  0  0  0  0  0  0  0
   -2.4453    1.0456    0.9745 N   0  0  0  0  0  0  0  0  0  0  0  0
   -2.6162    2.3150    0.5370 C   0  0  0  0  0  0  0  0  0  0  0  0
   -3.4093    2.8919   -0.4313 C   0  0  0  0  0  0  0  0  0  0  0  0
   -4.3780    2.3121   -1.6537 S   0  0  0  0  0  0  0  0  0  0  0  0
   -3.4961    0.0170    0.9740 C   0  0  0  0  0  0  0  0  0  0  0  0
   -4.7361    0.5005    1.7238 C   0  0  0  0  0  0  0  0  0  0  0  0
   -0.5681   -1.6930    0.8674 C   0  0  0  0  0  0  0  0  0  0  0  0
    0.6882   -1.3096    0.0842 C   0  0  0  0  0  0  0  0  0  0  0  0
    3.6731   -5.6778    2.6854 C   0  0  0  0  0  0  0  0  0  0  0  0
    3.9923   -6.0675    1.4371 C   0  0  0  0  0  0  0  0  0  0  0  0
    3.8917   -5.2229    0.2242 C   0  0  0  0  0  0  0  0  0  0  0  0
    3.4656   -4.0410    0.1428 O   0  0  0  0  0  0  0  0  0  0  0  0
    4.5186   -5.9504   -0.8439 C   0  0  0  0  0  0  0  0  0  0  0  0
    4.8643   -5.6682   -2.4574 S   0  0  0  0  0  0  0  0  0  0  0  0
    5.6581   -7.1613   -2.6259 C   0  0  0  0  0  0  0  0  0  0  0  0
    6.3855   -7.7270   -4.1128 Cl  0  0  0  0  0  0  0  0  0  0  0  0
    5.6568   -7.8642   -1.4170 C   0  0  0  0  0  0  0  0  0  0  0  0
    5.0002   -7.1414   -0.4166 C   0  0  0  0  0  0  0  0  0  0  0  0
    4.6967   -7.3354    1.0219 C   0  0  0  0  0  0  0  0  0  0  0  0
    4.9122   -8.4642    1.7395 C   0  0  0  0  0  0  0  0  0  0  0  0
    5.5860   -9.6048    1.1746 C   0  0  0  0  0  0  0  0  0  0  0  0
    6.1273  -10.5281    0.7331 N   0  0  0  0  0  0  0  0  0  0  0  0
    4.4388   -8.6396    3.0877 C   0  0  0  0  0  0  0  0  0  0  0  0
    4.0641   -8.7942    4.1712 N   0  0  0  0  0  0  0  0  0  0  0  0
   -6.1274    3.4919   -3.7834 H   0  0  0  0  0  0  0  0  0  0  0  0
   -0.0863    3.8484   -5.0293 H   0  0  0  0  0  0  0  0  0  0  0  0
   -3.1486    0.1432   -6.7409 H   0  0  0  0  0  0  0  0  0  0  0  0
    0.1899   -0.3696   -7.6661 H   0  0  0  0  0  0  0  0  0  0  0  0
   -0.5681   -1.9495   -5.5024 H   0  0  0  0  0  0  0  0  0  0  0  0
    1.9392   -2.6701   -6.0019 H   0  0  0  0  0  0  0  0  0  0  0  0
    3.5171   -0.7614   -5.1869 H   0  0  0  0  0  0  0  0  0  0  0  0
    2.0250    1.1863   -4.1748 H   0  0  0  0  0  0  0  0  0  0  0  0
    0.7336   -1.0032   -3.3831 H   0  0  0  0  0  0  0  0  0  0  0  0
   -0.4672    0.2277   -3.9411 H   0  0  0  0  0  0  0  0  0  0  0  0
    1.6326    1.3940   -6.9138 H   0  0  0  0  0  0  0  0  0  0  0  0
   -1.7145    6.5176   -1.5888 H   0  0  0  0  0  0  0  0  0  0  0  0
   -1.6525    8.8848   -2.1887 H   0  0  0  0  0  0  0  0  0  0  0  0
   -4.4212   10.6461   -3.9300 H   0  0  0  0  0  0  0  0  0  0  0  0
   -2.6857   10.7033   -3.4957 H   0  0  0  0  0  0  0  0  0  0  0  0
   -5.0226   11.0857   -1.5083 H   0  0  0  0  0  0  0  0  0  0  0  0
   -3.2521   11.1906   -1.1204 H   0  0  0  0  0  0  0  0  0  0  0  0
   -4.0115   12.3968   -2.2314 H   0  0  0  0  0  0  0  0  0  0  0  0
   -5.8569    8.7662   -3.1267 H   0  0  0  0  0  0  0  0  0  0  0  0
   -5.9373    6.3993   -2.4841 H   0  0  0  0  0  0  0  0  0  0  0  0
    3.7289   -2.8680    6.5471 H   0  0  0  0  0  0  0  0  0  0  0  0
    5.8792   -2.7758    7.7216 H   0  0  0  0  0  0  0  0  0  0  0  0
    9.1475   -2.7967    6.0718 H   0  0  0  0  0  0  0  0  0  0  0  0
    8.2956   -2.6974    7.6487 H   0  0  0  0  0  0  0  0  0  0  0  0
    8.9692   -5.2985    6.1195 H   0  0  0  0  0  0  0  0  0  0  0  0
    9.7827   -4.6700    7.6027 H   0  0  0  0  0  0  0  0  0  0  0  0
    8.0604   -5.2063    7.6842 H   0  0  0  0  0  0  0  0  0  0  0  0
    7.9164   -3.8488    4.0753 H   0  0  0  0  0  0  0  0  0  0  0  0
    5.7714   -3.9184    2.8949 H   0  0  0  0  0  0  0  0  0  0  0  0
   -3.7669   -0.2460   -0.0692 H   0  0  0  0  0  0  0  0  0  0  0  0
   -3.1563   -0.8970    1.4994 H   0  0  0  0  0  0  0  0  0  0  0  0
   -4.4622    0.8121    2.7562 H   0  0  0  0  0  0  0  0  0  0  0  0
   -5.4825   -0.3187    1.7854 H   0  0  0  0  0  0  0  0  0  0  0  0
   -5.2063    1.3598    1.1988 H   0  0  0  0  0  0  0  0  0  0  0  0
   -0.6689   -2.7983    0.9059 H   0  0  0  0  0  0  0  0  0  0  0  0
   -1.4244   -1.3178    0.2930 H   0  0  0  0  0  0  0  0  0  0  0  0
    0.7396   -0.2058   -0.0319 H   0  0  0  0  0  0  0  0  0  0  0  0
    1.6036   -1.6554    0.6048 H   0  0  0  0  0  0  0  0  0  0  0  0
    0.6563   -1.7746   -0.9244 H   0  0  0  0  0  0  0  0  0  0  0  0
    4.0222   -6.2268    3.5403 H   0  0  0  0  0  0  0  0  0  0  0  0
    6.1205   -8.8307   -1.2965 H   0  0  0  0  0  0  0  0  0  0  0  0
  1  2  2  3
  2  3  1  0
  3  4  2  0
  3  5  1  0
  5  6  2  0
  6  7  1  0
  7  8  2  0
  8  9  1  0
  9 10  2  0
 10 11  1  0
 11 12  2  3
 12 13  1  0
 13 14  3  0
 12 15  1  0
 15 16  3  0
  8 17  1  0
 17 18  1  0
 18 19  1  0
 19 20  2  0
 20 21  1  0
 21 22  1  0
 21 23  1  0
  1 24  1  0
 24 25  2  0
 25 26  1  0
 26 27  2  0
 27 28  1  0
 28 29  2  0
 29 30  1  0
 30 31  1  0
 29 32  1  0
 32 33  2  0
 25 34  1  0
 34 35  1  0
 35 36  1  0
 36 37  1  0
 37 38  1  0
 38 39  1  0
 39 40  2  0
 40 41  1  0
 41 42  1  0
 39 43  1  0
 43 44  1  0
 44 45  1  0
 45 46  1  0
 46 47  1  0
 47 48  1  0
 48 49  2  0
 49 50  1  0
 50 51  2  0
 51 52  1  0
 52 53  1  0
 51 54  1  0
 54 55  2  0
 47 56  2  0
 56 57  1  0
 57 58  1  0
 58 59  1  0
 59 60  1  0
 60 61  1  0
 61 62  1  0
 62 63  1  0
 63 64  1  0
 64 65  1  0
 65 66  1  0
 63 67  1  0
 67 68  1  0
 60 69  1  0
 69 70  1  0
 56 71  1  0
 71 72  2  3
 72 73  1  0
 73 74  2  0
 73 75  1  0
 75 76  1  0
 76 77  1  0
 77 78  1  0
 77 79  2  0
 79 80  1  0
 80 81  1  0
 81 82  2  3
 82 83  1  0
 83 84  3  0
 82 85  1  0
 85 86  3  0
 11  2  1  0
 23 17  1  0
 66 24  1  0
 81 72  1  0
 10  5  1  0
 22 18  1  0
 33 26  1  0
 65 34  2  0
 80 75  2  0
 23  7  1  0
 64 36  2  0
 62 37  2  0
 42 38  2  0
 61 43  2  0
 59 44  2  0
 58 46  2  0
 55 48  1  0
  1 87  1  0
  6 88  1  0
  9 89  1  0
 17 90  1  0
 18 91  1  0
 19 92  1  0
 20 93  1  0
 21 94  1  0
 22 95  1  0
 22 96  1  0
 23 97  1  0
 27 98  1  0
 28 99  1  0
 30100  1  0
 30101  1  0
 31102  1  0
 31103  1  0
 31104  1  0
 32105  1  0
 33106  1  0
 49107  1  0
 50108  1  0
 52109  1  0
 52110  1  0
 53111  1  0
 53112  1  0
 53113  1  0
 54114  1  0
 55115  1  0
 67116  1  0
 67117  1  0
 68118  1  0
 68119  1  0
 68120  1  0
 69121  1  0
 69122  1  0
 70123  1  0
 70124  1  0
 70125  1  0
 71126  1  0
 79127  1  0
M  END

