
     RDKit          3D

114127  0  0  0  0  0  0  0  0999 V2000
   -5.6014    2.2356    3.2091 C   0  0  0  0  0  0  0  0  0  0  0  0
   -5.4365    3.4063    3.8558 C   0  0  0  0  0  0  0  0  0  0  0  0
   -4.2799    3.7250    4.7061 C   0  0  0  0  0  0  0  0  0  0  0  0
   -3.2868    2.9812    4.9313 O   0  0  0  0  0  0  0  0  0  0  0  0
   -4.5017    4.9996    5.3414 C   0  0  0  0  0  0  0  0  0  0  0  0
   -3.6116    5.6699    6.2105 C   0  0  0  0  0  0  0  0  0  0  0  0
   -4.0385    6.9272    6.5844 C   0  0  0  0  0  0  0  0  0  0  0  0
   -5.2610    7.5111    6.1156 C   0  0  0  0  0  0  0  0  0  0  0  0
   -6.1418    6.8541    5.2716 C   0  0  0  0  0  0  0  0  0  0  0  0
   -5.7462    5.5300    4.9119 C   0  0  0  0  0  0  0  0  0  0  0  0
   -6.4094    4.5429    3.9985 C   0  0  0  0  0  0  0  0  0  0  0  0
   -7.6240    4.6801    3.4004 C   0  0  0  0  0  0  0  0  0  0  0  0
   -8.1035    3.7904    2.3776 C   0  0  0  0  0  0  0  0  0  0  0  0
   -8.5047    3.0862    1.5507 N   0  0  0  0  0  0  0  0  0  0  0  0
   -8.5446    5.7329    3.7462 C   0  0  0  0  0  0  0  0  0  0  0  0
   -9.3019    6.5676    4.0131 N   0  0  0  0  0  0  0  0  0  0  0  0
   -4.9535    8.7848    6.8462 C   0  0  0  0  0  0  0  0  0  0  0  0
   -4.4559    9.9848    5.9831 C   0  0  0  0  0  0  0  0  0  0  0  0
   -3.8445   10.9691    6.9525 C   0  0  0  0  0  0  0  0  0  0  0  0
   -2.7104   10.4105    7.4001 C   0  0  0  0  0  0  0  0  0  0  0  0
   -2.5928    9.0739    6.7129 C   0  0  0  0  0  0  0  0  0  0  0  0
   -3.1732    9.4537    5.3592 C   0  0  0  0  0  0  0  0  0  0  0  0
   -3.7078    8.1793    7.3344 C   0  0  0  0  0  0  0  0  0  0  0  0
   -4.4777    1.3206    2.9355 C   0  0  0  0  0  0  0  0  0  0  0  0
   -3.3177    1.7223    2.2639 C   0  0  0  0  0  0  0  0  0  0  0  0
   -2.6218    0.5497    2.0948 C   0  0  0  0  0  0  0  0  0  0  0  0
   -3.3273   -0.4583    2.6072 C   0  0  0  0  0  0  0  0  0  0  0  0
   -4.5082   -0.0344    3.1159 N   0  0  0  0  0  0  0  0  0  0  0  0
   -5.6602   -0.8137    3.5728 C   0  0  0  0  0  0  0  0  0  0  0  0
   -6.5223   -1.2412    2.3875 C   0  0  0  0  0  0  0  0  0  0  0  0
   -2.7817   -1.6298    2.1156 C   0  0  0  0  0  0  0  0  0  0  0  0
   -3.1779   -2.9790    2.1827 C   0  0  0  0  0  0  0  0  0  0  0  0
   -2.4581   -3.9490    1.4270 C   0  0  0  0  0  0  0  0  0  0  0  0
   -2.8678   -5.2399    1.5176 N   0  0  0  0  0  0  0  0  0  0  0  0
   -4.1349   -5.0583    2.5651 S   0  0  0  0  0  0  0  0  0  0  0  0
   -4.2068   -3.4463    2.9273 N   0  0  0  0  0  0  0  0  0  0  0  0
   -1.3592   -3.5355    0.6786 C   0  0  0  0  0  0  0  0  0  0  0  0
   -0.4559   -4.2560   -0.0478 C   0  0  0  0  0  0  0  0  0  0  0  0
   -0.1538   -5.8541   -0.5439 S   0  0  0  0  0  0  0  0  0  0  0  0
    1.2638   -5.3584   -1.3651 C   0  0  0  0  0  0  0  0  0  0  0  0
    2.1546   -5.9986   -2.2382 C   0  0  0  0  0  0  0  0  0  0  0  0
    2.0605   -7.4605   -2.5895 C   0  0  0  0  0  0  0  0  0  0  0  0
    3.2645   -8.2369   -2.0640 C   0  0  0  0  0  0  0  0  0  0  0  0
    3.0775   -5.0766   -2.7980 C   0  0  0  0  0  0  0  0  0  0  0  0
    2.7124   -3.5148   -2.2102 S   0  0  0  0  0  0  0  0  0  0  0  0
    1.4660   -4.0113   -1.2237 C   0  0  0  0  0  0  0  0  0  0  0  0
    0.4875   -3.3906   -0.4673 C   0  0  0  0  0  0  0  0  0  0  0  0
    0.2890   -2.1216   -0.0355 N   0  0  0  0  0  0  0  0  0  0  0  0
   -0.9147   -2.1988    0.6360 C   0  0  0  0  0  0  0  0  0  0  0  0
   -1.6861   -1.2089    1.3170 C   0  0  0  0  0  0  0  0  0  0  0  0
   -1.6507    0.1669    1.2407 N   0  0  0  0  0  0  0  0  0  0  0  0
   -1.1190    1.0529    0.1935 C   0  0  0  0  0  0  0  0  0  0  0  0
   -1.5705    0.6173   -1.1988 C   0  0  0  0  0  0  0  0  0  0  0  0
    1.3617   -1.1174    0.0271 C   0  0  0  0  0  0  0  0  0  0  0  0
    1.6923   -0.7259    1.4674 C   0  0  0  0  0  0  0  0  0  0  0  0
    4.0009   -5.3815   -3.9200 C   0  0  0  0  0  0  0  0  0  0  0  0
    4.9442   -4.5600   -4.4394 C   0  0  0  0  0  0  0  0  0  0  0  0
    5.3206   -3.2195   -3.9749 C   0  0  0  0  0  0  0  0  0  0  0  0
    5.4368   -2.8495   -2.7762 O   0  0  0  0  0  0  0  0  0  0  0  0
    5.7690   -2.4549   -5.1215 C   0  0  0  0  0  0  0  0  0  0  0  0
    5.9933   -1.0815   -5.2117 C   0  0  0  0  0  0  0  0  0  0  0  0
    6.2796   -0.5225   -6.4729 C   0  0  0  0  0  0  0  0  0  0  0  0
    6.4666    0.9390   -6.6146 C   0  0  0  0  0  0  0  0  0  0  0  0
    6.6406    1.4466   -7.7575 O   0  0  0  0  0  0  0  0  0  0  0  0
    6.4416    1.7580   -5.4808 O   0  0  0  0  0  0  0  0  0  0  0  0
    6.5873    3.1725   -5.5517 C   0  0  0  0  0  0  0  0  0  0  0  0
    6.3420   -1.3710   -7.6049 C   0  0  0  0  0  0  0  0  0  0  0  0
    6.1184   -2.7520   -7.4854 C   0  0  0  0  0  0  0  0  0  0  0  0
    5.8493   -3.2881   -6.2197 C   0  0  0  0  0  0  0  0  0  0  0  0
    5.5059   -4.6779   -5.8152 C   0  0  0  0  0  0  0  0  0  0  0  0
    5.8822   -5.8190   -6.4398 C   0  0  0  0  0  0  0  0  0  0  0  0
    6.5824   -5.8093   -7.6982 C   0  0  0  0  0  0  0  0  0  0  0  0
    7.1484   -5.8128   -8.7084 N   0  0  0  0  0  0  0  0  0  0  0  0
    5.7518   -7.1101   -5.8144 C   0  0  0  0  0  0  0  0  0  0  0  0
    5.6520   -8.1496   -5.3144 N   0  0  0  0  0  0  0  0  0  0  0  0
   -6.5583    1.9315    2.8221 H   0  0  0  0  0  0  0  0  0  0  0  0
   -2.6617    5.2560    6.5241 H   0  0  0  0  0  0  0  0  0  0  0  0
   -7.0221    7.3585    4.9109 H   0  0  0  0  0  0  0  0  0  0  0  0
   -5.6902    9.0345    7.6432 H   0  0  0  0  0  0  0  0  0  0  0  0
   -5.1999   10.4112    5.2766 H   0  0  0  0  0  0  0  0  0  0  0  0
   -4.1980   11.9657    7.1893 H   0  0  0  0  0  0  0  0  0  0  0  0
   -1.9849   10.8798    8.0559 H   0  0  0  0  0  0  0  0  0  0  0  0
   -1.5737    8.6305    6.7004 H   0  0  0  0  0  0  0  0  0  0  0  0
   -3.3223    8.5940    4.6680 H   0  0  0  0  0  0  0  0  0  0  0  0
   -2.5768   10.2388    4.8319 H   0  0  0  0  0  0  0  0  0  0  0  0
   -3.6619    8.0407    8.4387 H   0  0  0  0  0  0  0  0  0  0  0  0
   -3.0959    2.7043    1.8660 H   0  0  0  0  0  0  0  0  0  0  0  0
   -5.3252   -1.6868    4.1645 H   0  0  0  0  0  0  0  0  0  0  0  0
   -6.2811   -0.1984    4.2609 H   0  0  0  0  0  0  0  0  0  0  0  0
   -7.3680   -1.8657    2.7448 H   0  0  0  0  0  0  0  0  0  0  0  0
   -5.9228   -1.8271    1.6569 H   0  0  0  0  0  0  0  0  0  0  0  0
   -6.9316   -0.3493    1.8705 H   0  0  0  0  0  0  0  0  0  0  0  0
    1.9819   -7.5761   -3.6894 H   0  0  0  0  0  0  0  0  0  0  0  0
    1.1401   -7.9003   -2.1502 H   0  0  0  0  0  0  0  0  0  0  0  0
    3.1244   -9.3218   -2.2707 H   0  0  0  0  0  0  0  0  0  0  0  0
    4.1940   -7.9047   -2.5716 H   0  0  0  0  0  0  0  0  0  0  0  0
    3.3750   -8.0928   -0.9699 H   0  0  0  0  0  0  0  0  0  0  0  0
   -1.4917    2.0880    0.3409 H   0  0  0  0  0  0  0  0  0  0  0  0
   -0.0316    1.1709    0.2818 H   0  0  0  0  0  0  0  0  0  0  0  0
   -1.2357    1.3601   -1.9512 H   0  0  0  0  0  0  0  0  0  0  0  0
   -2.6777    0.5491   -1.2311 H   0  0  0  0  0  0  0  0  0  0  0  0
   -1.1492   -0.3726   -1.4677 H   0  0  0  0  0  0  0  0  0  0  0  0
    1.1438   -0.2658   -0.6359 H   0  0  0  0  0  0  0  0  0  0  0  0
    2.2967   -1.5352   -0.3900 H   0  0  0  0  0  0  0  0  0  0  0  0
    2.5665   -0.0419    1.4749 H   0  0  0  0  0  0  0  0  0  0  0  0
    1.9394   -1.6343    2.0546 H   0  0  0  0  0  0  0  0  0  0  0  0
    0.8452   -0.2121    1.9602 H   0  0  0  0  0  0  0  0  0  0  0  0
    3.7717   -6.2853   -4.4588 H   0  0  0  0  0  0  0  0  0  0  0  0
    5.9005   -0.4619   -4.3285 H   0  0  0  0  0  0  0  0  0  0  0  0
    7.5546    3.4327   -6.0276 H   0  0  0  0  0  0  0  0  0  0  0  0
    6.5657    3.5912   -4.5256 H   0  0  0  0  0  0  0  0  0  0  0  0
    5.7518    3.6111   -6.1371 H   0  0  0  0  0  0  0  0  0  0  0  0
    6.5391   -0.9607   -8.5867 H   0  0  0  0  0  0  0  0  0  0  0  0
    6.1122   -3.3597   -8.3773 H   0  0  0  0  0  0  0  0  0  0  0  0
  1  2  2  3
  2  3  1  0
  3  4  2  0
  3  5  1  0
  5  6  2  0
  6  7  1  0
  7  8  2  0
  8  9  1  0
  9 10  2  0
 10 11  1  0
 11 12  2  3
 12 13  1  0
 13 14  3  0
 12 15  1  0
 15 16  3  0
  8 17  1  0
 17 18  1  0
 18 19  1  0
 19 20  2  0
 20 21  1  0
 21 22  1  0
 21 23  1  0
  1 24  1  0
 24 25  2  0
 25 26  1  0
 26 27  2  0
 27 28  1  0
 28 29  1  0
 29 30  1  0
 27 31  1  0
 31 32  1  0
 32 33  1  0
 33 34  2  0
 34 35  1  0
 35 36  1  0
 33 37  1  0
 37 38  1  0
 38 39  1  0
 39 40  1  0
 40 41  1  0
 41 42  1  0
 42 43  1  0
 41 44  2  0
 44 45  1  0
 45 46  1  0
 46 47  1  0
 47 48  1  0
 48 49  1  0
 49 50  1  0
 50 51  1  0
 51 52  1  0
 52 53  1  0
 48 54  1  0
 54 55  1  0
 44 56  1  0
 56 57  2  3
 57 58  1  0
 58 59  2  0
 58 60  1  0
 60 61  2  0
 61 62  1  0
 62 63  1  0
 63 64  2  0
 63 65  1  0
 65 66  1  0
 62 67  2  0
 67 68  1  0
 68 69  2  0
 69 70  1  0
 70 71  2  3
 71 72  1  0
 72 73  3  0
 71 74  1  0
 74 75  3  0
 11  2  1  0
 23 17  1  0
 28 24  1  0
 50 31  2  0
 70 57  1  0
 10  5  1  0
 22 18  1  0
 51 26  1  0
 69 60  1  0
 23  7  1  0
 36 32  2  0
 49 37  2  0
 47 38  2  0
 46 40  2  0
  1 76  1  0
  6 77  1  0
  9 78  1  0
 17 79  1  0
 18 80  1  0
 19 81  1  0
 20 82  1  0
 21 83  1  0
 22 84  1  0
 22 85  1  0
 23 86  1  0
 25 87  1  0
 29 88  1  0
 29 89  1  0
 30 90  1  0
 30 91  1  0
 30 92  1  0
 42 93  1  0
 42 94  1  0
 43 95  1  0
 43 96  1  0
 43 97  1  0
 52 98  1  0
 52 99  1  0
 53100  1  0
 53101  1  0
 53102  1  0
 54103  1  0
 54104  1  0
 55105  1  0
 55106  1  0
 55107  1  0
 56108  1  0
 61109  1  0
 66110  1  0
 66111  1  0
 66112  1  0
 67113  1  0
 68114  1  0
M  END

