
     RDKit          3D

 98112  0  0  0  0  0  0  0  0999 V2000
   -5.7179   -2.3299   -1.1340 C   0  0  0  0  0  0  0  0  0  0  0  0
   -5.2294   -2.4008    0.1261 C   0  0  0  0  0  0  0  0  0  0  0  0
   -3.8973   -1.9712    0.5908 C   0  0  0  0  0  0  0  0  0  0  0  0
   -2.8220   -1.9864   -0.0715 O   0  0  0  0  0  0  0  0  0  0  0  0
   -3.9797   -1.6476    2.0006 C   0  0  0  0  0  0  0  0  0  0  0  0
   -2.9573   -1.0917    2.8026 C   0  0  0  0  0  0  0  0  0  0  0  0
   -3.3637   -0.7708    4.0838 C   0  0  0  0  0  0  0  0  0  0  0  0
   -4.7019   -0.9826    4.5530 C   0  0  0  0  0  0  0  0  0  0  0  0
   -5.7018   -1.5470    3.7775 C   0  0  0  0  0  0  0  0  0  0  0  0
   -5.2925   -1.9127    2.4641 C   0  0  0  0  0  0  0  0  0  0  0  0
   -6.0737   -2.5297    1.3546 C   0  0  0  0  0  0  0  0  0  0  0  0
   -7.1929   -3.2882    1.4774 C   0  0  0  0  0  0  0  0  0  0  0  0
   -7.8721   -3.4721    2.7352 C   0  0  0  0  0  0  0  0  0  0  0  0
   -8.4169   -3.6228    3.7438 N   0  0  0  0  0  0  0  0  0  0  0  0
   -7.7045   -4.0753    0.3876 C   0  0  0  0  0  0  0  0  0  0  0  0
   -8.1275   -4.7206   -0.4724 N   0  0  0  0  0  0  0  0  0  0  0  0
   -4.3421   -0.4035    5.8860 C   0  0  0  0  0  0  0  0  0  0  0  0
   -4.1754   -1.4117    7.0612 C   0  0  0  0  0  0  0  0  0  0  0  0
   -3.4441   -0.6678    8.1508 C   0  0  0  0  0  0  0  0  0  0  0  0
   -2.1926   -0.4902    7.7117 C   0  0  0  0  0  0  0  0  0  0  0  0
   -2.1252   -1.1248    6.3447 C   0  0  0  0  0  0  0  0  0  0  0  0
   -3.0464   -2.3100    6.5860 C   0  0  0  0  0  0  0  0  0  0  0  0
   -2.9675   -0.2006    5.4119 C   0  0  0  0  0  0  0  0  0  0  0  0
   -4.9778   -1.8712   -2.3271 C   0  0  0  0  0  0  0  0  0  0  0  0
   -5.4675   -0.8747   -3.1816 C   0  0  0  0  0  0  0  0  0  0  0  0
   -4.5353   -0.5463   -4.1547 C   0  0  0  0  0  0  0  0  0  0  0  0
   -4.3553    0.8651   -5.0881 S   0  0  0  0  0  0  0  0  0  0  0  0
   -2.7413    0.4732   -5.4328 C   0  0  0  0  0  0  0  0  0  0  0  0
   -1.6137    1.2098   -5.6610 C   0  0  0  0  0  0  0  0  0  0  0  0
   -1.4640    2.4891   -6.1967 C   0  0  0  0  0  0  0  0  0  0  0  0
   -0.1681    3.0707   -6.2254 C   0  0  0  0  0  0  0  0  0  0  0  0
   -0.0642    4.3238   -6.7385 N   0  0  0  0  0  0  0  0  0  0  0  0
   -1.6488    4.5890   -7.1418 S   0  0  0  0  0  0  0  0  0  0  0  0
   -2.4835    3.2269   -6.7019 N   0  0  0  0  0  0  0  0  0  0  0  0
    0.8956    2.3656   -5.6561 C   0  0  0  0  0  0  0  0  0  0  0  0
    2.1197    2.8306   -5.2803 C   0  0  0  0  0  0  0  0  0  0  0  0
    2.6286    1.9396   -4.3956 C   0  0  0  0  0  0  0  0  0  0  0  0
    1.8057    0.8790   -4.1897 N   0  0  0  0  0  0  0  0  0  0  0  0
    1.9019   -0.0074   -3.0260 C   0  0  0  0  0  0  0  0  0  0  0  0
    0.8740    0.3519   -1.9519 C   0  0  0  0  0  0  0  0  0  0  0  0
    0.7352    1.1143   -5.0260 C   0  0  0  0  0  0  0  0  0  0  0  0
   -0.5436    0.4757   -5.1190 C   0  0  0  0  0  0  0  0  0  0  0  0
   -1.0014   -0.7413   -4.6682 N   0  0  0  0  0  0  0  0  0  0  0  0
   -2.3428   -0.6748   -4.8359 C   0  0  0  0  0  0  0  0  0  0  0  0
   -3.3701   -1.2705   -4.1155 C   0  0  0  0  0  0  0  0  0  0  0  0
   -3.4170   -2.3518   -2.8319 S   0  0  0  0  0  0  0  0  0  0  0  0
   -0.3064   -2.0153   -4.4518 C   0  0  0  0  0  0  0  0  0  0  0  0
    0.7403   -2.2812   -5.5373 C   0  0  0  0  0  0  0  0  0  0  0  0
    3.6716    2.4918   -3.6610 C   0  0  0  0  0  0  0  0  0  0  0  0
    4.6226    2.0492   -2.3468 S   0  0  0  0  0  0  0  0  0  0  0  0
    5.3509    3.5835   -2.1957 C   0  0  0  0  0  0  0  0  0  0  0  0
    4.8793    4.4331   -3.2039 C   0  0  0  0  0  0  0  0  0  0  0  0
    3.9280    3.7953   -3.9908 C   0  0  0  0  0  0  0  0  0  0  0  0
    2.8625    4.3565   -5.1916 S   0  0  0  0  0  0  0  0  0  0  0  0
    6.4131    3.9416   -1.2400 C   0  0  0  0  0  0  0  0  0  0  0  0
    6.3740    3.6686    0.0781 C   0  0  0  0  0  0  0  0  0  0  0  0
    5.2762    3.0002    0.7892 C   0  0  0  0  0  0  0  0  0  0  0  0
    4.0707    2.9214    0.4212 O   0  0  0  0  0  0  0  0  0  0  0  0
    5.7846    2.5078    2.0477 C   0  0  0  0  0  0  0  0  0  0  0  0
    5.1326    1.7049    2.9865 C   0  0  0  0  0  0  0  0  0  0  0  0
    5.8436    1.2976    4.1266 C   0  0  0  0  0  0  0  0  0  0  0  0
    7.1836    1.6898    4.3012 C   0  0  0  0  0  0  0  0  0  0  0  0
    8.0763    1.1666    5.7176 Cl  0  0  0  0  0  0  0  0  0  0  0  0
    7.8188    2.4987    3.3442 C   0  0  0  0  0  0  0  0  0  0  0  0
    7.0963    2.9218    2.2126 C   0  0  0  0  0  0  0  0  0  0  0  0
    7.5086    3.7668    1.0536 C   0  0  0  0  0  0  0  0  0  0  0  0
    8.5792    4.6008    0.9919 C   0  0  0  0  0  0  0  0  0  0  0  0
    8.7338    5.5758   -0.0533 C   0  0  0  0  0  0  0  0  0  0  0  0
    8.8832    6.3692   -0.8862 N   0  0  0  0  0  0  0  0  0  0  0  0
    9.5783    4.6606    2.0283 C   0  0  0  0  0  0  0  0  0  0  0  0
   10.3851    4.7198    2.8544 N   0  0  0  0  0  0  0  0  0  0  0  0
   -6.7863   -2.4004   -1.2750 H   0  0  0  0  0  0  0  0  0  0  0  0
   -1.9594   -0.8934    2.4350 H   0  0  0  0  0  0  0  0  0  0  0  0
   -6.7021   -1.6496    4.1616 H   0  0  0  0  0  0  0  0  0  0  0  0
   -4.8970    0.5288    6.1195 H   0  0  0  0  0  0  0  0  0  0  0  0
   -5.0953   -1.9323    7.3856 H   0  0  0  0  0  0  0  0  0  0  0  0
   -3.8284   -0.3933    9.1274 H   0  0  0  0  0  0  0  0  0  0  0  0
   -1.3768   -0.0531    8.2735 H   0  0  0  0  0  0  0  0  0  0  0  0
   -1.0986   -1.3631    5.9941 H   0  0  0  0  0  0  0  0  0  0  0  0
   -2.6733   -3.0081    7.3755 H   0  0  0  0  0  0  0  0  0  0  0  0
   -3.2761   -2.8992    5.6666 H   0  0  0  0  0  0  0  0  0  0  0  0
   -2.6382    0.8624    5.3637 H   0  0  0  0  0  0  0  0  0  0  0  0
   -6.3912   -0.3315   -3.0338 H   0  0  0  0  0  0  0  0  0  0  0  0
    1.8650   -1.0516   -3.3329 H   0  0  0  0  0  0  0  0  0  0  0  0
    2.9055    0.0576   -2.5681 H   0  0  0  0  0  0  0  0  0  0  0  0
    1.0501    1.3921   -1.6034 H   0  0  0  0  0  0  0  0  0  0  0  0
    0.9817   -0.3350   -1.0820 H   0  0  0  0  0  0  0  0  0  0  0  0
   -0.1634    0.2645   -2.3341 H   0  0  0  0  0  0  0  0  0  0  0  0
   -1.0415   -2.8456   -4.5195 H   0  0  0  0  0  0  0  0  0  0  0  0
    0.0760   -2.0947   -3.4182 H   0  0  0  0  0  0  0  0  0  0  0  0
    1.1488   -3.3037   -5.4134 H   0  0  0  0  0  0  0  0  0  0  0  0
    0.2744   -2.2059   -6.5409 H   0  0  0  0  0  0  0  0  0  0  0  0
    1.5746   -1.5593   -5.4894 H   0  0  0  0  0  0  0  0  0  0  0  0
    5.1657    5.4644   -3.3181 H   0  0  0  0  0  0  0  0  0  0  0  0
    7.2819    4.3899   -1.6790 H   0  0  0  0  0  0  0  0  0  0  0  0
    4.1136    1.3787    2.8309 H   0  0  0  0  0  0  0  0  0  0  0  0
    5.3626    0.6609    4.8606 H   0  0  0  0  0  0  0  0  0  0  0  0
    8.8604    2.7451    3.4928 H   0  0  0  0  0  0  0  0  0  0  0  0
  1  2  2  3
  2  3  1  0
  3  4  2  0
  3  5  1  0
  5  6  2  0
  6  7  1  0
  7  8  2  0
  8  9  1  0
  9 10  2  0
 10 11  1  0
 11 12  2  3
 12 13  1  0
 13 14  3  0
 12 15  1  0
 15 16  3  0
  8 17  1  0
 17 18  1  0
 18 19  1  0
 19 20  2  0
 20 21  1  0
 21 22  1  0
 21 23  1  0
  1 24  1  0
 24 25  2  0
 25 26  1  0
 26 27  1  0
 27 28  1  0
 28 29  1  0
 29 30  1  0
 30 31  1  0
 31 32  2  0
 32 33  1  0
 33 34  1  0
 31 35  1  0
 35 36  1  0
 36 37  2  0
 37 38  1  0
 38 39  1  0
 39 40  1  0
 38 41  1  0
 41 42  1  0
 42 43  1  0
 43 44  1  0
 44 45  1  0
 45 46  1  0
 43 47  1  0
 47 48  1  0
 37 49  1  0
 49 50  1  0
 50 51  1  0
 51 52  2  0
 52 53  1  0
 53 54  1  0
 51 55  1  0
 55 56  2  3
 56 57  1  0
 57 58  2  0
 57 59  1  0
 59 60  2  0
 60 61  1  0
 61 62  2  0
 62 63  1  0
 62 64  1  0
 64 65  2  0
 65 66  1  0
 66 67  2  3
 67 68  1  0
 68 69  3  0
 67 70  1  0
 70 71  3  0
 11  2  1  0
 23 17  1  0
 46 24  1  0
 53 49  2  0
 66 56  1  0
 10  5  1  0
 22 18  1  0
 45 26  2  0
 65 59  1  0
 23  7  1  0
 44 28  2  0
 42 29  2  0
 34 30  2  0
 41 35  2  0
 54 36  1  0
  1 72  1  0
  6 73  1  0
  9 74  1  0
 17 75  1  0
 18 76  1  0
 19 77  1  0
 20 78  1  0
 21 79  1  0
 22 80  1  0
 22 81  1  0
 23 82  1  0
 25 83  1  0
 39 84  1  0
 39 85  1  0
 40 86  1  0
 40 87  1  0
 40 88  1  0
 47 89  1  0
 47 90  1  0
 48 91  1  0
 48 92  1  0
 48 93  1  0
 52 94  1  0
 55 95  1  0
 60 96  1  0
 61 97  1  0
 64 98  1  0
M  END

