
     RDKit          3D

105118  0  0  0  0  0  0  0  0999 V2000
    4.9130    0.0275    0.2855 C   0  0  0  0  0  0  0  0  0  0  0  0
    5.6688   -0.1197   -0.8177 C   0  0  0  0  0  0  0  0  0  0  0  0
    5.3731   -1.0152   -1.9440 C   0  0  0  0  0  0  0  0  0  0  0  0
    4.5704   -1.9854   -1.9365 O   0  0  0  0  0  0  0  0  0  0  0  0
    6.1697   -0.6052   -3.0796 C   0  0  0  0  0  0  0  0  0  0  0  0
    6.0967   -1.1086   -4.3986 C   0  0  0  0  0  0  0  0  0  0  0  0
    6.8840   -0.4231   -5.3034 C   0  0  0  0  0  0  0  0  0  0  0  0
    7.6922    0.7021   -4.9412 C   0  0  0  0  0  0  0  0  0  0  0  0
    7.7772    1.1923   -3.6486 C   0  0  0  0  0  0  0  0  0  0  0  0
    6.9994    0.4801   -2.6933 C   0  0  0  0  0  0  0  0  0  0  0  0
    6.8268    0.7305   -1.2342 C   0  0  0  0  0  0  0  0  0  0  0  0
    7.6751    1.4155   -0.4232 C   0  0  0  0  0  0  0  0  0  0  0  0
    8.8244    2.1213   -0.9253 C   0  0  0  0  0  0  0  0  0  0  0  0
    9.7552    2.6946   -1.3153 N   0  0  0  0  0  0  0  0  0  0  0  0
    7.5777    1.3702    1.0119 C   0  0  0  0  0  0  0  0  0  0  0  0
    7.5073    1.3322    2.1669 N   0  0  0  0  0  0  0  0  0  0  0  0
    8.0990    0.8909   -6.3714 C   0  0  0  0  0  0  0  0  0  0  0  0
    7.4215    2.0674   -7.1358 C   0  0  0  0  0  0  0  0  0  0  0  0
    7.6794    1.8103   -8.6020 C   0  0  0  0  0  0  0  0  0  0  0  0
    6.9400    0.7457   -8.9380 C   0  0  0  0  0  0  0  0  0  0  0  0
    6.2025    0.3244   -7.6894 C   0  0  0  0  0  0  0  0  0  0  0  0
    5.9456    1.7014   -7.0946 C   0  0  0  0  0  0  0  0  0  0  0  0
    7.2823   -0.2722   -6.7390 C   0  0  0  0  0  0  0  0  0  0  0  0
    3.6290   -0.6656    0.5066 C   0  0  0  0  0  0  0  0  0  0  0  0
    2.5360   -0.5429   -0.3533 C   0  0  0  0  0  0  0  0  0  0  0  0
    1.4877   -1.0940    0.3503 C   0  0  0  0  0  0  0  0  0  0  0  0
    1.9393   -1.5000    1.5502 C   0  0  0  0  0  0  0  0  0  0  0  0
    3.2564   -1.2184    1.6976 N   0  0  0  0  0  0  0  0  0  0  0  0
    4.0881   -1.2873    2.9015 C   0  0  0  0  0  0  0  0  0  0  0  0
    3.9463   -0.0201    3.7454 C   0  0  0  0  0  0  0  0  0  0  0  0
    0.8483   -1.5157    2.4053 C   0  0  0  0  0  0  0  0  0  0  0  0
    0.7189   -1.6481    3.8032 C   0  0  0  0  0  0  0  0  0  0  0  0
   -0.5440   -1.3731    4.4097 C   0  0  0  0  0  0  0  0  0  0  0  0
   -0.6318   -1.5073    5.7565 N   0  0  0  0  0  0  0  0  0  0  0  0
    0.9192   -1.9775    6.0919 S   0  0  0  0  0  0  0  0  0  0  0  0
    1.7119   -2.0323    4.6405 N   0  0  0  0  0  0  0  0  0  0  0  0
   -1.6213   -1.0288    3.5931 C   0  0  0  0  0  0  0  0  0  0  0  0
   -2.9348   -0.8079    3.8827 C   0  0  0  0  0  0  0  0  0  0  0  0
   -3.9561   -0.6740    5.2308 S   0  0  0  0  0  0  0  0  0  0  0  0
   -5.3018   -0.4380    4.2031 C   0  0  0  0  0  0  0  0  0  0  0  0
   -6.6387   -0.1108    4.4386 C   0  0  0  0  0  0  0  0  0  0  0  0
   -7.2271    0.0509    5.8132 C   0  0  0  0  0  0  0  0  0  0  0  0
   -7.1450    1.4997    6.2799 C   0  0  0  0  0  0  0  0  0  0  0  0
   -7.3101    0.1582    3.2286 C   0  0  0  0  0  0  0  0  0  0  0  0
   -6.2595   -0.1241    1.9076 S   0  0  0  0  0  0  0  0  0  0  0  0
   -4.9478   -0.4986    2.8801 C   0  0  0  0  0  0  0  0  0  0  0  0
   -3.5881   -0.6980    2.7050 C   0  0  0  0  0  0  0  0  0  0  0  0
   -2.7781   -0.8485    1.6270 N   0  0  0  0  0  0  0  0  0  0  0  0
   -1.5287   -0.9753    2.1952 C   0  0  0  0  0  0  0  0  0  0  0  0
   -0.2503   -1.1452    1.5959 C   0  0  0  0  0  0  0  0  0  0  0  0
    0.1662   -0.8008    0.3379 N   0  0  0  0  0  0  0  0  0  0  0  0
   -0.4016    0.2410   -0.5263 C   0  0  0  0  0  0  0  0  0  0  0  0
   -0.6100   -0.2845   -1.9448 C   0  0  0  0  0  0  0  0  0  0  0  0
   -3.2519   -1.3429    0.3223 C   0  0  0  0  0  0  0  0  0  0  0  0
   -2.8599   -2.8036    0.1096 C   0  0  0  0  0  0  0  0  0  0  0  0
   -8.7243    0.5714    3.1145 C   0  0  0  0  0  0  0  0  0  0  0  0
   -9.2325    1.3526    2.1412 C   0  0  0  0  0  0  0  0  0  0  0  0
  -10.6567    1.3160    1.7717 C   0  0  0  0  0  0  0  0  0  0  0  0
  -11.5993    0.8295    2.4550 O   0  0  0  0  0  0  0  0  0  0  0  0
  -10.7702    1.8630    0.4393 C   0  0  0  0  0  0  0  0  0  0  0  0
   -9.5380    2.2868   -0.0001 C   0  0  0  0  0  0  0  0  0  0  0  0
   -9.5313    2.8070   -1.2895 C   0  0  0  0  0  0  0  0  0  0  0  0
  -11.1305    2.6962   -1.8420 S   0  0  0  0  0  0  0  0  0  0  0  0
  -11.8079    2.0093   -0.4556 C   0  0  0  0  0  0  0  0  0  0  0  0
  -13.4853    1.5544   -0.2327 Cl  0  0  0  0  0  0  0  0  0  0  0  0
   -8.5259    2.1233    1.0655 C   0  0  0  0  0  0  0  0  0  0  0  0
   -7.4032    2.8685    1.1906 C   0  0  0  0  0  0  0  0  0  0  0  0
   -6.7493    3.0593    2.4598 C   0  0  0  0  0  0  0  0  0  0  0  0
   -6.2170    3.2217    3.4741 N   0  0  0  0  0  0  0  0  0  0  0  0
   -6.8613    3.6191    0.0876 C   0  0  0  0  0  0  0  0  0  0  0  0
   -6.4124    4.2209   -0.7961 N   0  0  0  0  0  0  0  0  0  0  0  0
    5.1629    0.7721    1.0195 H   0  0  0  0  0  0  0  0  0  0  0  0
    5.4441   -1.9211   -4.6871 H   0  0  0  0  0  0  0  0  0  0  0  0
    8.3422    2.0863   -3.4379 H   0  0  0  0  0  0  0  0  0  0  0  0
    9.1926    0.7698   -6.5453 H   0  0  0  0  0  0  0  0  0  0  0  0
    7.6804    3.0875   -6.7787 H   0  0  0  0  0  0  0  0  0  0  0  0
    8.2680    2.4163   -9.2851 H   0  0  0  0  0  0  0  0  0  0  0  0
    6.8248    0.3470   -9.9399 H   0  0  0  0  0  0  0  0  0  0  0  0
    5.3052   -0.3089   -7.8634 H   0  0  0  0  0  0  0  0  0  0  0  0
    5.5063    1.6803   -6.0726 H   0  0  0  0  0  0  0  0  0  0  0  0
    5.3104    2.3520   -7.7432 H   0  0  0  0  0  0  0  0  0  0  0  0
    7.8536   -1.1401   -7.1378 H   0  0  0  0  0  0  0  0  0  0  0  0
    2.4871    0.0419   -1.2619 H   0  0  0  0  0  0  0  0  0  0  0  0
    5.1550   -1.4057    2.6136 H   0  0  0  0  0  0  0  0  0  0  0  0
    3.8413   -2.1924    3.4851 H   0  0  0  0  0  0  0  0  0  0  0  0
    4.4146    0.8421    3.2289 H   0  0  0  0  0  0  0  0  0  0  0  0
    4.4566   -0.1669    4.7199 H   0  0  0  0  0  0  0  0  0  0  0  0
    2.8797    0.2183    3.9292 H   0  0  0  0  0  0  0  0  0  0  0  0
   -6.6767   -0.5928    6.5332 H   0  0  0  0  0  0  0  0  0  0  0  0
   -8.2867   -0.2831    5.8223 H   0  0  0  0  0  0  0  0  0  0  0  0
   -7.7555    2.1516    5.6213 H   0  0  0  0  0  0  0  0  0  0  0  0
   -7.5312    1.5759    7.3177 H   0  0  0  0  0  0  0  0  0  0  0  0
   -6.0907    1.8482    6.2724 H   0  0  0  0  0  0  0  0  0  0  0  0
   -1.3346    0.6508   -0.1002 H   0  0  0  0  0  0  0  0  0  0  0  0
    0.2920    1.1097   -0.5680 H   0  0  0  0  0  0  0  0  0  0  0  0
   -1.1756   -1.2393   -1.9357 H   0  0  0  0  0  0  0  0  0  0  0  0
   -1.1728    0.4642   -2.5401 H   0  0  0  0  0  0  0  0  0  0  0  0
    0.3661   -0.4610   -2.4390 H   0  0  0  0  0  0  0  0  0  0  0  0
   -2.9017   -0.7186   -0.5111 H   0  0  0  0  0  0  0  0  0  0  0  0
   -4.3578   -1.2868    0.2682 H   0  0  0  0  0  0  0  0  0  0  0  0
   -3.3157   -3.1781   -0.8310 H   0  0  0  0  0  0  0  0  0  0  0  0
   -1.7599   -2.9010    0.0211 H   0  0  0  0  0  0  0  0  0  0  0  0
   -3.2181   -3.4210    0.9603 H   0  0  0  0  0  0  0  0  0  0  0  0
   -9.4159    0.1121    3.8106 H   0  0  0  0  0  0  0  0  0  0  0  0
   -8.6900    3.1891   -1.8491 H   0  0  0  0  0  0  0  0  0  0  0  0
  1  2  2  3
  2  3  1  0
  3  4  2  0
  3  5  1  0
  5  6  2  0
  6  7  1  0
  7  8  2  0
  8  9  1  0
  9 10  2  0
 10 11  1  0
 11 12  2  3
 12 13  1  0
 13 14  3  0
 12 15  1  0
 15 16  3  0
  8 17  1  0
 17 18  1  0
 18 19  1  0
 19 20  2  0
 20 21  1  0
 21 22  1  0
 21 23  1  0
  1 24  1  0
 24 25  2  0
 25 26  1  0
 26 27  2  0
 27 28  1  0
 28 29  1  0
 29 30  1  0
 27 31  1  0
 31 32  1  0
 32 33  1  0
 33 34  2  0
 34 35  1  0
 35 36  1  0
 33 37  1  0
 37 38  1  0
 38 39  1  0
 39 40  1  0
 40 41  1  0
 41 42  1  0
 42 43  1  0
 41 44  2  0
 44 45  1  0
 45 46  1  0
 46 47  1  0
 47 48  1  0
 48 49  1  0
 49 50  1  0
 50 51  1  0
 51 52  1  0
 52 53  1  0
 48 54  1  0
 54 55  1  0
 44 56  1  0
 56 57  2  3
 57 58  1  0
 58 59  2  0
 58 60  1  0
 60 61  1  0
 61 62  2  0
 62 63  1  0
 63 64  1  0
 64 65  1  0
 61 66  1  0
 66 67  2  3
 67 68  1  0
 68 69  3  0
 67 70  1  0
 70 71  3  0
 11  2  1  0
 23 17  1  0
 28 24  1  0
 50 31  2  0
 66 57  1  0
 10  5  1  0
 22 18  1  0
 51 26  1  0
 64 60  2  0
 23  7  1  0
 36 32  2  0
 49 37  2  0
 47 38  2  0
 46 40  2  0
  1 72  1  0
  6 73  1  0
  9 74  1  0
 17 75  1  0
 18 76  1  0
 19 77  1  0
 20 78  1  0
 21 79  1  0
 22 80  1  0
 22 81  1  0
 23 82  1  0
 25 83  1  0
 29 84  1  0
 29 85  1  0
 30 86  1  0
 30 87  1  0
 30 88  1  0
 42 89  1  0
 42 90  1  0
 43 91  1  0
 43 92  1  0
 43 93  1  0
 52 94  1  0
 52 95  1  0
 53 96  1  0
 53 97  1  0
 53 98  1  0
 54 99  1  0
 54100  1  0
 55101  1  0
 55102  1  0
 55103  1  0
 56104  1  0
 62105  1  0
M  END

