
     RDKit          3D

113128  0  0  0  0  0  0  0  0999 V2000
    6.5090   -2.5477    2.1041 C   0  0  0  0  0  0  0  0  0  0  0  0
    6.1754   -1.7071    2.8996 C   0  0  0  0  0  0  0  0  0  0  0  0
    4.7620   -1.2738    3.3533 C   0  0  0  0  0  0  0  0  0  0  0  0
    3.9121   -2.2301    2.9945 O   0  0  0  0  0  0  0  0  0  0  0  0
    4.6874   -0.0831    3.9544 C   0  0  0  0  0  0  0  0  0  0  0  0
    3.6078    0.7531    4.3144 C   0  0  0  0  0  0  0  0  0  0  0  0
    3.6466    1.9678    4.6934 C   0  0  0  0  0  0  0  0  0  0  0  0
    4.9005    2.4417    4.7514 C   0  0  0  0  0  0  0  0  0  0  0  0
    6.1172    1.9440    4.5222 C   0  0  0  0  0  0  0  0  0  0  0  0
    5.9687    0.4721    4.0323 C   0  0  0  0  0  0  0  0  0  0  0  0
    6.8640   -0.4127    3.4670 C   0  0  0  0  0  0  0  0  0  0  0  0
    8.2491   -0.5382    3.4137 C   0  0  0  0  0  0  0  0  0  0  0  0
    8.8460    0.5340    3.9126 C   0  0  0  0  0  0  0  0  0  0  0  0
    9.5772    1.7992    4.5226 N   0  0  0  0  0  0  0  0  0  0  0  0
    9.0407   -1.4810    2.6692 C   0  0  0  0  0  0  0  0  0  0  0  0
    9.7116   -2.2494    2.0495 N   0  0  0  0  0  0  0  0  0  0  0  0
    4.2943    3.8811    4.6957 C   0  0  0  0  0  0  0  0  0  0  0  0
    4.4743    4.7989    5.7378 C   0  0  0  0  0  0  0  0  0  0  0  0
    3.3653    5.8633    5.4171 C   0  0  0  0  0  0  0  0  0  0  0  0
    2.2076    5.3145    5.8144 C   0  0  0  0  0  0  0  0  0  0  0  0
    2.5317    3.8291    6.1984 C   0  0  0  0  0  0  0  0  0  0  0  0
    3.7788    4.2089    6.9727 C   0  0  0  0  0  0  0  0  0  0  0  0
    2.9367    3.2229    4.9700 C   0  0  0  0  0  0  0  0  0  0  0  0
    5.4359   -3.3380    1.3168 C   0  0  0  0  0  0  0  0  0  0  0  0
    4.8068   -4.3406    1.1939 C   0  0  0  0  0  0  0  0  0  0  0  0
    5.0758   -5.5245    2.2226 C   0  0  0  0  0  0  0  0  0  0  0  0
    4.0610   -5.3836    3.3475 C   0  0  0  0  0  0  0  0  0  0  0  0
    3.7587   -4.5464    0.3569 C   0  0  0  0  0  0  0  0  0  0  0  0
    2.4383   -5.6085   -0.0198 S   0  0  0  0  0  0  0  0  0  0  0  0
    1.5683   -4.5737   -1.0315 C   0  0  0  0  0  0  0  0  0  0  0  0
    0.3137   -4.4811   -1.7509 C   0  0  0  0  0  0  0  0  0  0  0  0
   -0.7786   -5.3617   -1.8473 C   0  0  0  0  0  0  0  0  0  0  0  0
   -1.9283   -4.9880   -2.4705 C   0  0  0  0  0  0  0  0  0  0  0  0
   -2.9638   -5.6639   -2.6144 N   0  0  0  0  0  0  0  0  0  0  0  0
   -2.0742   -7.5249   -1.5200 Se  0  0  0  0  0  2  0  0  0  0  0  0
   -0.7454   -6.5682   -1.3661 N   0  0  0  0  0  0  0  0  0  0  0  0
   -1.8295   -3.6262   -3.0242 C   0  0  0  0  0  0  0  0  0  0  0  0
   -2.8120   -2.9478   -3.6900 C   0  0  0  0  0  0  0  0  0  0  0  0
   -4.4759   -2.9896   -4.1428 S   0  0  0  0  0  0  0  0  0  0  0  0
   -4.5456   -1.3062   -4.7408 C   0  0  0  0  0  0  0  0  0  0  0  0
   -5.5677   -0.5447   -5.1436 C   0  0  0  0  0  0  0  0  0  0  0  0
   -6.9899   -0.8978   -5.4306 C   0  0  0  0  0  0  0  0  0  0  0  0
   -7.8828   -1.0440   -4.2241 C   0  0  0  0  0  0  0  0  0  0  0  0
   -5.1659    0.8126   -5.3183 C   0  0  0  0  0  0  0  0  0  0  0  0
   -3.5327    0.7621   -4.9781 S   0  0  0  0  0  0  0  0  0  0  0  0
   -3.3850   -0.9436   -4.5414 C   0  0  0  0  0  0  0  0  0  0  0  0
   -2.3932   -1.7052   -4.0070 C   0  0  0  0  0  0  0  0  0  0  0  0
   -1.0760   -1.6397   -3.5554 N   0  0  0  0  0  0  0  0  0  0  0  0
   -0.7702   -2.8040   -2.9324 C   0  0  0  0  0  0  0  0  0  0  0  0
    0.3347   -3.2286   -2.2366 C   0  0  0  0  0  0  0  0  0  0  0  0
    1.4625   -2.5761   -1.8495 N   0  0  0  0  0  0  0  0  0  0  0  0
    2.2015   -3.5161   -1.0929 C   0  0  0  0  0  0  0  0  0  0  0  0
    3.4402   -3.3940   -0.3977 C   0  0  0  0  0  0  0  0  0  0  0  0
    4.6202   -2.2563    0.1385 S   0  0  0  0  0  0  0  0  0  0  0  0
    1.7075   -1.1568   -1.7010 C   0  0  0  0  0  0  0  0  0  0  0  0
    1.7389   -0.7720   -0.1984 C   0  0  0  0  0  0  0  0  0  0  0  0
   -0.0746   -0.7278   -4.0818 C   0  0  0  0  0  0  0  0  0  0  0  0
    1.0277   -1.3689   -4.8874 C   0  0  0  0  0  0  0  0  0  0  0  0
   -6.2082    1.8608   -5.5315 C   0  0  0  0  0  0  0  0  0  0  0  0
   -6.6197    2.3166   -4.3385 C   0  0  0  0  0  0  0  0  0  0  0  0
   -6.2880    2.0470   -3.0336 C   0  0  0  0  0  0  0  0  0  0  0  0
   -5.1409    1.4582   -2.7252 O   0  0  0  0  0  0  0  0  0  0  0  0
   -7.2950    2.4712   -2.0230 C   0  0  0  0  0  0  0  0  0  0  0  0
   -8.3387    3.0309   -2.8062 C   0  0  0  0  0  0  0  0  0  0  0  0
   -9.4904    3.4163   -1.6192 S   0  0  0  0  0  0  0  0  0  0  0  0
   -8.6502    2.9121   -0.2177 C   0  0  0  0  0  0  0  0  0  0  0  0
   -8.9778    2.9711    1.1620 C   0  0  0  0  0  0  0  0  0  0  0  0
   -8.0444    2.5617    2.1010 C   0  0  0  0  0  0  0  0  0  0  0  0
   -6.8291    2.1250    1.6236 C   0  0  0  0  0  0  0  0  0  0  0  0
   -6.5453    2.0612    0.3396 C   0  0  0  0  0  0  0  0  0  0  0  0
   -7.4753    2.4494   -0.6765 C   0  0  0  0  0  0  0  0  0  0  0  0
   -7.9576    2.9815   -4.2261 C   0  0  0  0  0  0  0  0  0  0  0  0
   -8.3982    3.6782   -5.1997 C   0  0  0  0  0  0  0  0  0  0  0  0
   -9.6456    4.3890   -5.3841 C   0  0  0  0  0  0  0  0  0  0  0  0
  -10.7793    5.0452   -5.5740 N   0  0  0  0  0  0  0  0  0  0  0  0
   -7.3557    4.3431   -5.9628 C   0  0  0  0  0  0  0  0  0  0  0  0
   -6.3544    4.9931   -6.6931 N   0  0  0  0  0  0  0  0  0  0  0  0
    7.4602   -2.8563    1.8426 H   0  0  0  0  0  0  0  0  0  0  0  0
    2.6125    0.2198    4.2477 H   0  0  0  0  0  0  0  0  0  0  0  0
    7.0528    2.1598    4.5238 H   0  0  0  0  0  0  0  0  0  0  0  0
    4.3283    4.2539    3.6007 H   0  0  0  0  0  0  0  0  0  0  0  0
    5.4001    5.3160    5.9607 H   0  0  0  0  0  0  0  0  0  0  0  0
    3.5859    6.7827    4.9462 H   0  0  0  0  0  0  0  0  0  0  0  0
    1.2496    5.6562    5.9214 H   0  0  0  0  0  0  0  0  0  0  0  0
    1.7235    3.4445    6.8251 H   0  0  0  0  0  0  0  0  0  0  0  0
    4.2702    3.4170    7.4924 H   0  0  0  0  0  0  0  0  0  0  0  0
    3.4970    5.0908    7.6675 H   0  0  0  0  0  0  0  0  0  0  0  0
    2.1910    3.4496    4.0538 H   0  0  0  0  0  0  0  0  0  0  0  0
    4.9930   -6.3666    1.5887 H   0  0  0  0  0  0  0  0  0  0  0  0
    6.0301   -5.3712    2.6896 H   0  0  0  0  0  0  0  0  0  0  0  0
    3.8349   -6.4759    3.6692 H   0  0  0  0  0  0  0  0  0  0  0  0
    3.1296   -4.9061    2.9964 H   0  0  0  0  0  0  0  0  0  0  0  0
    4.5065   -4.9379    4.2625 H   0  0  0  0  0  0  0  0  0  0  0  0
   -7.4526   -0.2202   -6.1729 H   0  0  0  0  0  0  0  0  0  0  0  0
   -7.0046   -1.9208   -5.9276 H   0  0  0  0  0  0  0  0  0  0  0  0
   -8.2351   -0.1085   -3.8111 H   0  0  0  0  0  0  0  0  0  0  0  0
   -8.8244   -1.5684   -4.6072 H   0  0  0  0  0  0  0  0  0  0  0  0
   -7.4353   -1.7196   -3.4670 H   0  0  0  0  0  0  0  0  0  0  0  0
    0.8689   -0.5024   -2.0213 H   0  0  0  0  0  0  0  0  0  0  0  0
    2.5750   -0.8229   -2.2037 H   0  0  0  0  0  0  0  0  0  0  0  0
    0.7152   -0.5461    0.1584 H   0  0  0  0  0  0  0  0  0  0  0  0
    2.2366    0.2668   -0.1499 H   0  0  0  0  0  0  0  0  0  0  0  0
    2.2200   -1.4668    0.4519 H   0  0  0  0  0  0  0  0  0  0  0  0
    0.1082    0.2046   -3.5772 H   0  0  0  0  0  0  0  0  0  0  0  0
   -0.6710   -0.2538   -5.0151 H   0  0  0  0  0  0  0  0  0  0  0  0
    1.0846   -2.4683   -4.6979 H   0  0  0  0  0  0  0  0  0  0  0  0
    2.0246   -0.8660   -4.5267 H   0  0  0  0  0  0  0  0  0  0  0  0
    1.0092   -1.2242   -5.9615 H   0  0  0  0  0  0  0  0  0  0  0  0
   -6.5532    2.1673   -6.4610 H   0  0  0  0  0  0  0  0  0  0  0  0
   -9.9760    3.3335    1.3977 H   0  0  0  0  0  0  0  0  0  0  0  0
   -8.3178    2.5273    3.1735 H   0  0  0  0  0  0  0  0  0  0  0  0
   -6.0174    1.8559    2.3653 H   0  0  0  0  0  0  0  0  0  0  0  0
   -5.5254    1.6959    0.0644 H   0  0  0  0  0  0  0  0  0  0  0  0
  1  2  2  3
  2  3  1  0
  3  4  2  0
  3  5  1  0
  5  6  2  0
  6  7  1  0
  7  8  2  0
  8  9  1  0
  9 10  2  0
 10 11  1  0
 11 12  2  3
 12 13  1  0
 13 14  3  0
 12 15  1  0
 15 16  3  0
  8 17  1  0
 17 18  1  0
 18 19  1  0
 19 20  2  0
 20 21  1  0
 21 22  1  0
 21 23  1  0
  1 24  1  0
 24 25  2  0
 25 26  1  0
 26 27  1  0
 25 28  1  0
 28 29  1  0
 29 30  1  0
 30 31  1  0
 31 32  1  0
 32 33  1  0
 33 34  2  0
 34 35  1  0
 35 36  1  0
 33 37  1  0
 37 38  1  0
 38 39  1  0
 39 40  1  0
 40 41  1  0
 41 42  1  0
 42 43  1  0
 41 44  2  0
 44 45  1  0
 45 46  1  0
 46 47  1  0
 47 48  1  0
 48 49  1  0
 49 50  1  0
 50 51  1  0
 51 52  1  0
 52 53  1  0
 53 54  1  0
 51 55  1  0
 55 56  1  0
 48 57  1  0
 57 58  1  0
 44 59  1  0
 59 60  2  3
 60 61  1  0
 61 62  2  0
 61 63  1  0
 63 64  2  0
 64 65  1  0
 65 66  1  0
 66 67  2  0
 67 68  1  0
 68 69  2  0
 69 70  1  0
 70 71  2  0
 64 72  1  0
 72 73  2  3
 73 74  1  0
 74 75  3  0
 73 76  1  0
 76 77  3  0
 11  2  1  0
 23 17  1  0
 54 24  1  0
 72 60  1  0
 10  5  1  0
 22 18  1  0
 53 28  2  0
 71 63  1  0
 23  7  1  0
 52 30  2  0
 71 66  1  0
 50 31  2  0
 36 32  2  0
 49 37  2  0
 47 38  2  0
 46 40  2  0
  1 78  1  0
  6 79  1  0
  9 80  1  0
 17 81  1  0
 18 82  1  0
 19 83  1  0
 20 84  1  0
 21 85  1  0
 22 86  1  0
 22 87  1  0
 23 88  1  0
 26 89  1  0
 26 90  1  0
 27 91  1  0
 27 92  1  0
 27 93  1  0
 42 94  1  0
 42 95  1  0
 43 96  1  0
 43 97  1  0
 43 98  1  0
 55 99  1  0
 55100  1  0
 56101  1  0
 56102  1  0
 56103  1  0
 57104  1  0
 57105  1  0
 58106  1  0
 58107  1  0
 58108  1  0
 59109  1  0
 67110  1  0
 68111  1  0
 69112  1  0
 70113  1  0
M  END

