
     RDKit          3D

 97110  0  0  0  0  0  0  0  0999 V2000
    5.6307    1.9028   -2.0439 C   0  0  0  0  0  0  0  0  0  0  0  0
    5.4218    2.3478   -3.3404 C   0  0  0  0  0  0  0  0  0  0  0  0
    4.4910    3.0572   -4.0268 C   0  0  0  0  0  0  0  0  0  0  0  0
    3.3857    3.5374   -3.4505 O   0  0  0  0  0  0  0  0  0  0  0  0
    4.7153    3.2744   -5.3873 C   0  0  0  0  0  0  0  0  0  0  0  0
    4.1515    3.9201   -6.4562 C   0  0  0  0  0  0  0  0  0  0  0  0
    4.5697    4.0387   -7.6904 C   0  0  0  0  0  0  0  0  0  0  0  0
    5.8048    3.3907   -7.9660 C   0  0  0  0  0  0  0  0  0  0  0  0
    6.4843    2.7032   -6.9638 C   0  0  0  0  0  0  0  0  0  0  0  0
    5.9751    2.6192   -5.6679 C   0  0  0  0  0  0  0  0  0  0  0  0
    6.4524    2.0181   -4.4084 C   0  0  0  0  0  0  0  0  0  0  0  0
    7.5522    1.3229   -4.3111 C   0  0  0  0  0  0  0  0  0  0  0  0
    7.9971    0.7149   -3.0638 C   0  0  0  0  0  0  0  0  0  0  0  0
    8.3773    0.2242   -2.0542 N   0  0  0  0  0  0  0  0  0  0  0  0
    8.4240    1.0049   -5.4005 C   0  0  0  0  0  0  0  0  0  0  0  0
    9.1477    0.7566   -6.2856 N   0  0  0  0  0  0  0  0  0  0  0  0
    5.7977    3.8397   -9.3706 C   0  0  0  0  0  0  0  0  0  0  0  0
    6.7825    4.9775   -9.5779 C   0  0  0  0  0  0  0  0  0  0  0  0
    6.3852    5.7305  -10.7974 C   0  0  0  0  0  0  0  0  0  0  0  0
    5.2487    6.3332  -10.5510 C   0  0  0  0  0  0  0  0  0  0  0  0
    4.8462    5.9937   -9.1360 C   0  0  0  0  0  0  0  0  0  0  0  0
    6.2445    5.9355   -8.4988 C   0  0  0  0  0  0  0  0  0  0  0  0
    4.4785    4.5445   -9.0972 C   0  0  0  0  0  0  0  0  0  0  0  0
    4.4027    2.4180   -1.3152 C   0  0  0  0  0  0  0  0  0  0  0  0
    3.5107    2.9025   -0.7905 C   0  0  0  0  0  0  0  0  0  0  0  0
    2.3979    2.6799   -0.0800 C   0  0  0  0  0  0  0  0  0  0  0  0
    1.1732    3.5518    0.7725 S   0  0  0  0  0  0  0  0  0  0  0  0
    0.3107    2.2890    1.5334 C   0  0  0  0  0  0  0  0  0  0  0  0
   -0.6872    1.7515    2.1450 C   0  0  0  0  0  0  0  0  0  0  0  0
   -1.6112    2.5101    3.5368 C   0  0  0  0  0  0  0  0  0  0  0  0
   -1.8311    1.6500    3.7728 C   0  0  0  0  0  0  0  0  0  0  0  0
   -1.8276    2.3695    5.3437 N   0  0  0  0  0  0  0  0  0  0  0  0
   -1.4057    3.9995    4.9035 S   0  0  0  0  0  0  0  0  0  0  0  0
   -1.2613    3.8095    2.9913 N   0  0  0  0  0  0  0  0  0  0  0  0
   -2.0945    0.3465    4.0082 C   0  0  0  0  0  0  0  0  0  0  0  0
   -2.9383   -0.4928    4.6259 C   0  0  0  0  0  0  0  0  0  0  0  0
   -2.9232   -1.7487    4.0260 C   0  0  0  0  0  0  0  0  0  0  0  0
   -1.9940   -1.6285    2.9858 N   0  0  0  0  0  0  0  0  0  0  0  0
   -1.8223   -2.5647    1.8763 C   0  0  0  0  0  0  0  0  0  0  0  0
   -2.4135   -2.0408    0.5925 C   0  0  0  0  0  0  0  0  0  0  0  0
   -1.4837   -0.4179    2.9398 C   0  0  0  0  0  0  0  0  0  0  0  0
   -0.7778    0.4379    2.1219 C   0  0  0  0  0  0  0  0  0  0  0  0
    0.3678    0.0006    1.4066 N   0  0  0  0  0  0  0  0  0  0  0  0
    1.0560    1.1222    1.0261 C   0  0  0  0  0  0  0  0  0  0  0  0
    2.0910    1.4741    0.2101 C   0  0  0  0  0  0  0  0  0  0  0  0
    3.5541    0.4481   -0.6269 Se  0  0  0  0  0  2  0  0  0  0  0  0
    0.8026   -1.3243    1.2267 C   0  0  0  0  0  0  0  0  0  0  0  0
    1.6078   -1.7945    2.4856 C   0  0  0  0  0  0  0  0  0  0  0  0
   -3.8197   -2.5265    4.5223 C   0  0  0  0  0  0  0  0  0  0  0  0
   -4.6574   -2.3186    5.4608 C   0  0  0  0  0  0  0  0  0  0  0  0
   -4.1852   -0.6287    5.8238 S   0  0  0  0  0  0  0  0  0  0  0  0
   -5.6626   -3.0933    5.8636 C   0  0  0  0  0  0  0  0  0  0  0  0
   -5.9775   -4.3076    5.3098 C   0  0  0  0  0  0  0  0  0  0  0  0
   -4.6446   -4.4296    4.0167 Se  0  0  0  0  0  2  0  0  0  0  0  0
   -7.2087   -5.0570    5.5373 C   0  0  0  0  0  0  0  0  0  0  0  0
   -7.7701   -5.4369    6.6191 C   0  0  0  0  0  0  0  0  0  0  0  0
   -7.2139   -5.1903    8.0277 C   0  0  0  0  0  0  0  0  0  0  0  0
   -6.7754   -4.9762    9.1324 N   0  0  0  0  0  0  0  0  0  0  0  0
   -8.8722   -6.2892    6.5329 C   0  0  0  0  0  0  0  0  0  0  0  0
   -9.8464   -6.9297    7.2176 C   0  0  0  0  0  0  0  0  0  0  0  0
  -10.7880   -7.7412    6.6774 C   0  0  0  0  0  0  0  0  0  0  0  0
  -11.5275   -8.4009    6.2563 N   0  0  0  0  0  0  0  0  0  0  0  0
   -9.6907   -6.4815    8.6273 C   0  0  0  0  0  0  0  0  0  0  0  0
   -9.5686   -6.0990    9.7670 N   0  0  0  0  0  0  0  0  0  0  0  0
   -8.9635   -6.4889    5.0743 O   0  0  0  0  0  0  0  0  0  0  0  0
   -8.1280   -5.5442    4.4497 C   0  0  0  0  0  0  0  0  0  0  0  0
   -7.2884   -6.1731    3.3479 C   0  0  0  0  0  0  0  0  0  0  0  0
   -8.9507   -4.4504    3.8680 C   0  0  0  0  0  0  0  0  0  0  0  0
    6.3442    1.4157   -1.6393 H   0  0  0  0  0  0  0  0  0  0  0  0
    3.1617    4.4213   -6.1477 H   0  0  0  0  0  0  0  0  0  0  0  0
    7.4212    2.2267   -7.2201 H   0  0  0  0  0  0  0  0  0  0  0  0
    5.7491    3.0624  -10.1438 H   0  0  0  0  0  0  0  0  0  0  0  0
    7.8221    4.7182   -9.4665 H   0  0  0  0  0  0  0  0  0  0  0  0
    7.0267    5.7262  -11.6808 H   0  0  0  0  0  0  0  0  0  0  0  0
    4.6336    6.9506  -11.1791 H   0  0  0  0  0  0  0  0  0  0  0  0
    4.1647    6.6687   -8.6763 H   0  0  0  0  0  0  0  0  0  0  0  0
    6.6937    6.9099   -8.5339 H   0  0  0  0  0  0  0  0  0  0  0  0
    6.2068    5.4522   -7.4938 H   0  0  0  0  0  0  0  0  0  0  0  0
    3.6240    4.1884   -9.6596 H   0  0  0  0  0  0  0  0  0  0  0  0
    3.6509    4.1854   -0.8823 H   0  0  0  0  0  0  0  0  0  0  0  0
   -0.9947   -3.2215    1.8826 H   0  0  0  0  0  0  0  0  0  0  0  0
   -2.6708   -3.3707    2.1266 H   0  0  0  0  0  0  0  0  0  0  0  0
   -3.3308   -1.4015    0.8535 H   0  0  0  0  0  0  0  0  0  0  0  0
   -1.7166   -1.4544   -0.0302 H   0  0  0  0  0  0  0  0  0  0  0  0
   -2.8013   -2.8309   -0.0739 H   0  0  0  0  0  0  0  0  0  0  0  0
    0.3004   -2.1208    0.7666 H   0  0  0  0  0  0  0  0  0  0  0  0
    1.7076   -1.2331    0.4671 H   0  0  0  0  0  0  0  0  0  0  0  0
    2.6022   -2.1331    2.2391 H   0  0  0  0  0  0  0  0  0  0  0  0
    1.6040   -0.9095    3.1925 H   0  0  0  0  0  0  0  0  0  0  0  0
    1.0473   -2.5903    3.0114 H   0  0  0  0  0  0  0  0  0  0  0  0
   -6.3716   -2.8134    6.7189 H   0  0  0  0  0  0  0  0  0  0  0  0
   -7.9081   -6.8703    2.8031 H   0  0  0  0  0  0  0  0  0  0  0  0
   -6.4351   -6.6893    3.8518 H   0  0  0  0  0  0  0  0  0  0  0  0
   -6.9341   -5.3718    2.7298 H   0  0  0  0  0  0  0  0  0  0  0  0
   -8.5427   -4.0824    2.9143 H   0  0  0  0  0  0  0  0  0  0  0  0
   -9.9906   -4.7978    3.6705 H   0  0  0  0  0  0  0  0  0  0  0  0
   -9.0776   -3.5586    4.5336 H   0  0  0  0  0  0  0  0  0  0  0  0
  1  2  2  3
  2  3  1  0
  3  4  2  0
  3  5  1  0
  5  6  2  0
  6  7  1  0
  7  8  2  0
  8  9  1  0
  9 10  2  0
 10 11  1  0
 11 12  2  3
 12 13  1  0
 13 14  3  0
 12 15  1  0
 15 16  3  0
  8 17  1  0
 17 18  1  0
 18 19  1  0
 19 20  2  0
 20 21  1  0
 21 22  1  0
 21 23  1  0
  1 24  1  0
 24 25  2  0
 25 26  1  0
 26 27  1  0
 27 28  1  0
 28 29  1  0
 29 30  1  0
 30 31  1  0
 31 32  2  0
 32 33  1  0
 33 34  1  0
 31 35  1  0
 35 36  1  0
 36 37  2  0
 37 38  1  0
 38 39  1  0
 39 40  1  0
 38 41  1  0
 41 42  1  0
 42 43  1  0
 43 44  1  0
 44 45  1  0
 45 46  1  0
 43 47  1  0
 47 48  1  0
 37 49  1  0
 49 50  2  0
 50 51  1  0
 50 52  1  0
 52 53  2  0
 53 54  1  0
 53 55  1  0
 55 56  2  0
 56 57  1  0
 57 58  3  0
 56 59  1  0
 59 60  2  3
 60 61  1  0
 61 62  3  0
 60 63  1  0
 63 64  3  0
 59 65  1  0
 65 66  1  0
 66 67  1  0
 66 68  1  0
 11  2  1  0
 23 17  1  0
 46 24  1  0
 54 49  1  0
 66 55  1  0
 10  5  1  0
 22 18  1  0
 45 26  2  0
 23  7  1  0
 44 28  2  0
 42 29  2  0
 34 30  2  0
 41 35  2  0
 51 36  1  0
  1 69  1  0
  6 70  1  0
  9 71  1  0
 17 72  1  0
 18 73  1  0
 19 74  1  0
 20 75  1  0
 21 76  1  0
 22 77  1  0
 22 78  1  0
 23 79  1  0
 25 80  1  0
 39 81  1  0
 39 82  1  0
 40 83  1  0
 40 84  1  0
 40 85  1  0
 47 86  1  0
 47 87  1  0
 48 88  1  0
 48 89  1  0
 48 90  1  0
 52 91  1  0
 67 92  1  0
 67 93  1  0
 67 94  1  0
 68 95  1  0
 68 96  1  0
 68 97  1  0
M  END

