
     RDKit          3D

136152  0  0  0  0  0  0  0  0999 V2000
   -3.4586    4.4474    2.4770 C   0  0  0  0  0  0  0  0  0  0  0  0
   -3.7705    5.2079    3.5431 C   0  0  0  0  0  0  0  0  0  0  0  0
   -2.8991    5.3928    4.7003 C   0  0  0  0  0  0  0  0  0  0  0  0
   -1.6895    5.0477    4.7712 O   0  0  0  0  0  0  0  0  0  0  0  0
   -3.5860    6.1788    5.6921 C   0  0  0  0  0  0  0  0  0  0  0  0
   -3.1422    6.4643    7.0039 C   0  0  0  0  0  0  0  0  0  0  0  0
   -4.0605    7.1555    7.7665 C   0  0  0  0  0  0  0  0  0  0  0  0
   -5.3460    7.5463    7.2749 C   0  0  0  0  0  0  0  0  0  0  0  0
   -5.7880    7.2651    5.9934 C   0  0  0  0  0  0  0  0  0  0  0  0
   -4.8468    6.5742    5.1757 C   0  0  0  0  0  0  0  0  0  0  0  0
   -4.9988    6.0362    3.7868 C   0  0  0  0  0  0  0  0  0  0  0  0
   -6.0519    6.2403    2.9510 C   0  0  0  0  0  0  0  0  0  0  0  0
   -6.2394    5.5148    1.7239 C   0  0  0  0  0  0  0  0  0  0  0  0
   -6.4112    4.9330    0.7362 N   0  0  0  0  0  0  0  0  0  0  0  0
   -7.0683    7.2257    3.2120 C   0  0  0  0  0  0  0  0  0  0  0  0
   -7.8909    8.0210    3.4005 N   0  0  0  0  0  0  0  0  0  0  0  0
   -5.6921    8.1455    8.6060 C   0  0  0  0  0  0  0  0  0  0  0  0
   -6.6885    7.3413    9.4904 C   0  0  0  0  0  0  0  0  0  0  0  0
   -6.5623    7.9133   10.8812 C   0  0  0  0  0  0  0  0  0  0  0  0
   -5.3623    7.5338   11.3404 C   0  0  0  0  0  0  0  0  0  0  0  0
   -4.7210    6.7221   10.2425 C   0  0  0  0  0  0  0  0  0  0  0  0
   -5.9642    6.0240    9.7147 C   0  0  0  0  0  0  0  0  0  0  0  0
   -4.3771    7.7361    9.1106 C   0  0  0  0  0  0  0  0  0  0  0  0
   -2.4448    3.3709    2.4957 C   0  0  0  0  0  0  0  0  0  0  0  0
   -2.3914    2.2817    3.4122 C   0  0  0  0  0  0  0  0  0  0  0  0
   -3.3299    2.1103    4.5538 C   0  0  0  0  0  0  0  0  0  0  0  0
   -4.7074    2.2348    4.2865 C   0  0  0  0  0  0  0  0  0  0  0  0
   -5.6410    2.2504    5.3190 C   0  0  0  0  0  0  0  0  0  0  0  0
   -5.2213    2.1217    6.6385 C   0  0  0  0  0  0  0  0  0  0  0  0
   -3.8696    1.9360    6.9278 C   0  0  0  0  0  0  0  0  0  0  0  0
   -2.9068    1.8919    5.8985 C   0  0  0  0  0  0  0  0  0  0  0  0
   -1.4726    1.5956    6.2994 C   0  0  0  0  0  0  0  0  0  0  0  0
   -0.6484    2.8510    6.5492 C   0  0  0  0  0  0  0  0  0  0  0  0
   -1.5778    1.2584    2.9041 C   0  0  0  0  0  0  0  0  0  0  0  0
   -1.3860   -0.3891    3.3133 S   0  0  0  0  0  0  0  0  0  0  0  0
   -0.4749   -0.6804    1.9157 C   0  0  0  0  0  0  0  0  0  0  0  0
   -0.1959   -1.7772    1.1562 C   0  0  0  0  0  0  0  0  0  0  0  0
   -0.3416   -3.1406    1.4317 C   0  0  0  0  0  0  0  0  0  0  0  0
   -0.1429   -4.0751    0.3765 C   0  0  0  0  0  0  0  0  0  0  0  0
   -0.2596   -5.3904    0.6871 N   0  0  0  0  0  0  0  0  0  0  0  0
   -0.6251   -5.2625    2.2967 S   0  0  0  0  0  0  0  0  0  0  0  0
   -0.6423   -3.6448    2.6535 N   0  0  0  0  0  0  0  0  0  0  0  0
    0.1853   -3.5914   -0.8951 C   0  0  0  0  0  0  0  0  0  0  0  0
    0.6607   -4.2505   -1.9891 C   0  0  0  0  0  0  0  0  0  0  0  0
    1.2315   -5.8180   -2.3133 S   0  0  0  0  0  0  0  0  0  0  0  0
    2.1173   -5.2412   -3.6482 C   0  0  0  0  0  0  0  0  0  0  0  0
    3.0085   -5.8471   -4.5328 C   0  0  0  0  0  0  0  0  0  0  0  0
    3.2614   -7.2988   -4.5581 C   0  0  0  0  0  0  0  0  0  0  0  0
    4.4550   -7.8607   -4.0440 C   0  0  0  0  0  0  0  0  0  0  0  0
    5.5269   -7.0118   -3.3969 C   0  0  0  0  0  0  0  0  0  0  0  0
    5.1751   -6.6954   -1.9444 C   0  0  0  0  0  0  0  0  0  0  0  0
    4.6191   -9.2576   -4.0723 C   0  0  0  0  0  0  0  0  0  0  0  0
    3.6332  -10.0786   -4.6223 C   0  0  0  0  0  0  0  0  0  0  0  0
    2.4653   -9.5194   -5.1378 C   0  0  0  0  0  0  0  0  0  0  0  0
    2.2758   -8.1371   -5.1017 C   0  0  0  0  0  0  0  0  0  0  0  0
    3.5893   -4.9085   -5.4105 C   0  0  0  0  0  0  0  0  0  0  0  0
    2.9550   -3.3619   -5.0509 S   0  0  0  0  0  0  0  0  0  0  0  0
    1.9947   -3.8851   -3.7868 C   0  0  0  0  0  0  0  0  0  0  0  0
    1.1570   -3.3137   -2.8383 C   0  0  0  0  0  0  0  0  0  0  0  0
    1.0243   -2.0473   -2.3601 N   0  0  0  0  0  0  0  0  0  0  0  0
    0.3595   -2.2217   -1.1666 C   0  0  0  0  0  0  0  0  0  0  0  0
    0.0862   -1.2887   -0.1284 C   0  0  0  0  0  0  0  0  0  0  0  0
   -0.1373    0.0650   -0.1888 N   0  0  0  0  0  0  0  0  0  0  0  0
   -0.4062    0.4034    1.1006 C   0  0  0  0  0  0  0  0  0  0  0  0
   -1.0256    1.5118    1.6702 C   0  0  0  0  0  0  0  0  0  0  0  0
   -1.5259    3.0059    1.1137 S   0  0  0  0  0  0  0  0  0  0  0  0
   -0.6668    0.8129   -1.3376 C   0  0  0  0  0  0  0  0  0  0  0  0
   -2.1680    0.5790   -1.5010 C   0  0  0  0  0  0  0  0  0  0  0  0
    1.8895   -0.9265   -2.7530 C   0  0  0  0  0  0  0  0  0  0  0  0
    1.4536   -0.3223   -4.0925 C   0  0  0  0  0  0  0  0  0  0  0  0
    4.3896   -5.2683   -6.6019 C   0  0  0  0  0  0  0  0  0  0  0  0
    5.0827   -4.4125   -7.3809 C   0  0  0  0  0  0  0  0  0  0  0  0
    5.6377   -3.1123   -6.9704 C   0  0  0  0  0  0  0  0  0  0  0  0
    5.6111   -2.6158   -5.8141 O   0  0  0  0  0  0  0  0  0  0  0  0
    6.4551   -2.6044   -8.0496 C   0  0  0  0  0  0  0  0  0  0  0  0
    7.1744   -1.4121   -8.0853 C   0  0  0  0  0  0  0  0  0  0  0  0
    7.9771   -1.1312   -9.2051 C   0  0  0  0  0  0  0  0  0  0  0  0
    8.7219    0.1768   -9.2674 C   0  0  0  0  0  0  0  0  0  0  0  0
    8.0700   -2.0848  -10.2571 C   0  0  0  0  0  0  0  0  0  0  0  0
    8.9639   -1.8476  -11.4462 C   0  0  0  0  0  0  0  0  0  0  0  0
    7.3437   -3.2922  -10.1760 C   0  0  0  0  0  0  0  0  0  0  0  0
    6.4981   -3.5222   -9.0793 C   0  0  0  0  0  0  0  0  0  0  0  0
    5.5947   -4.6700   -8.7684 C   0  0  0  0  0  0  0  0  0  0  0  0
    5.1289   -5.5954   -9.6546 C   0  0  0  0  0  0  0  0  0  0  0  0
    5.5475   -5.6329  -11.0319 C   0  0  0  0  0  0  0  0  0  0  0  0
    5.8660   -5.6729  -12.1428 N   0  0  0  0  0  0  0  0  0  0  0  0
    4.0831   -6.5326   -9.3331 C   0  0  0  0  0  0  0  0  0  0  0  0
    3.2505   -7.2957   -9.0841 N   0  0  0  0  0  0  0  0  0  0  0  0
   -4.0043    4.5278    1.5592 H   0  0  0  0  0  0  0  0  0  0  0  0
   -2.1867    6.1357    7.3926 H   0  0  0  0  0  0  0  0  0  0  0  0
   -6.7892    7.5243    5.7005 H   0  0  0  0  0  0  0  0  0  0  0  0
   -5.8533    9.2450    8.5729 H   0  0  0  0  0  0  0  0  0  0  0  0
   -7.7260    7.2648    9.1006 H   0  0  0  0  0  0  0  0  0  0  0  0
   -7.3218    8.4422   11.4471 H   0  0  0  0  0  0  0  0  0  0  0  0
   -4.9826    7.7038   12.3424 H   0  0  0  0  0  0  0  0  0  0  0  0
   -3.8897    6.0586   10.5632 H   0  0  0  0  0  0  0  0  0  0  0  0
   -6.4606    5.3702   10.4727 H   0  0  0  0  0  0  0  0  0  0  0  0
   -5.7963    5.4300    8.7891 H   0  0  0  0  0  0  0  0  0  0  0  0
   -3.7097    8.5770    9.4016 H   0  0  0  0  0  0  0  0  0  0  0  0
   -5.0622    2.3423    3.2693 H   0  0  0  0  0  0  0  0  0  0  0  0
   -6.6920    2.3730    5.0950 H   0  0  0  0  0  0  0  0  0  0  0  0
   -5.9462    2.1496    7.4405 H   0  0  0  0  0  0  0  0  0  0  0  0
   -3.5728    1.8124    7.9616 H   0  0  0  0  0  0  0  0  0  0  0  0
   -0.9543    0.9773    5.5484 H   0  0  0  0  0  0  0  0  0  0  0  0
   -1.4697    0.9855    7.2298 H   0  0  0  0  0  0  0  0  0  0  0  0
    0.2380    2.5941    7.1671 H   0  0  0  0  0  0  0  0  0  0  0  0
   -0.2748    3.2483    5.5855 H   0  0  0  0  0  0  0  0  0  0  0  0
   -1.2426    3.6186    7.0893 H   0  0  0  0  0  0  0  0  0  0  0  0
    5.6742   -6.0657   -3.9591 H   0  0  0  0  0  0  0  0  0  0  0  0
    6.5025   -7.5445   -3.4188 H   0  0  0  0  0  0  0  0  0  0  0  0
    4.2932   -6.0279   -1.8969 H   0  0  0  0  0  0  0  0  0  0  0  0
    4.9588   -7.6290   -1.3868 H   0  0  0  0  0  0  0  0  0  0  0  0
    6.0304   -6.1794   -1.4588 H   0  0  0  0  0  0  0  0  0  0  0  0
    5.5119   -9.7121   -3.6641 H   0  0  0  0  0  0  0  0  0  0  0  0
    3.7733  -11.1509   -4.6431 H   0  0  0  0  0  0  0  0  0  0  0  0
    1.7011  -10.1595   -5.5612 H   0  0  0  0  0  0  0  0  0  0  0  0
    1.3588   -7.7183   -5.4999 H   0  0  0  0  0  0  0  0  0  0  0  0
   -0.4576    1.8948   -1.2186 H   0  0  0  0  0  0  0  0  0  0  0  0
   -0.1934    0.5060   -2.2688 H   0  0  0  0  0  0  0  0  0  0  0  0
   -2.5489    1.1922   -2.3446 H   0  0  0  0  0  0  0  0  0  0  0  0
   -2.7172    0.8634   -0.5805 H   0  0  0  0  0  0  0  0  0  0  0  0
   -2.3647   -0.4931   -1.7205 H   0  0  0  0  0  0  0  0  0  0  0  0
    2.9418   -1.2743   -2.8320 H   0  0  0  0  0  0  0  0  0  0  0  0
    1.9015   -0.1461   -1.9668 H   0  0  0  0  0  0  0  0  0  0  0  0
    1.7580    0.7480   -4.1375 H   0  0  0  0  0  0  0  0  0  0  0  0
    1.9350   -0.8420   -4.9458 H   0  0  0  0  0  0  0  0  0  0  0  0
    0.3533   -0.3931   -4.2327 H   0  0  0  0  0  0  0  0  0  0  0  0
    4.3383   -6.3041   -6.8861 H   0  0  0  0  0  0  0  0  0  0  0  0
    7.1052   -0.7187   -7.2564 H   0  0  0  0  0  0  0  0  0  0  0  0
    8.3538    0.7757  -10.1270 H   0  0  0  0  0  0  0  0  0  0  0  0
    9.8096   -0.0108   -9.3849 H   0  0  0  0  0  0  0  0  0  0  0  0
    8.5728    0.7773   -8.3441 H   0  0  0  0  0  0  0  0  0  0  0  0
   10.0246   -1.8506  -11.1183 H   0  0  0  0  0  0  0  0  0  0  0  0
    8.8364   -2.6351  -12.2191 H   0  0  0  0  0  0  0  0  0  0  0  0
    8.7210   -0.8716  -11.9158 H   0  0  0  0  0  0  0  0  0  0  0  0
    7.4743   -4.0305  -10.9468 H   0  0  0  0  0  0  0  0  0  0  0  0
  1  2  2  3
  2  3  1  0
  3  4  2  0
  3  5  1  0
  5  6  2  0
  6  7  1  0
  7  8  2  0
  8  9  1  0
  9 10  2  0
 10 11  1  0
 11 12  2  3
 12 13  1  0
 13 14  3  0
 12 15  1  0
 15 16  3  0
  8 17  1  0
 17 18  1  0
 18 19  1  0
 19 20  2  0
 20 21  1  0
 21 22  1  0
 21 23  1  0
  1 24  1  0
 24 25  2  0
 25 26  1  0
 26 27  2  0
 27 28  1  0
 28 29  2  0
 29 30  1  0
 30 31  2  0
 31 32  1  0
 32 33  1  0
 25 34  1  0
 34 35  1  0
 35 36  1  0
 36 37  1  0
 37 38  1  0
 38 39  1  0
 39 40  2  0
 40 41  1  0
 41 42  1  0
 39 43  1  0
 43 44  1  0
 44 45  1  0
 45 46  1  0
 46 47  1  0
 47 48  1  0
 48 49  2  0
 49 50  1  0
 50 51  1  0
 49 52  1  0
 52 53  2  0
 53 54  1  0
 54 55  2  0
 47 56  2  0
 56 57  1  0
 57 58  1  0
 58 59  1  0
 59 60  1  0
 60 61  1  0
 61 62  1  0
 62 63  1  0
 63 64  1  0
 64 65  1  0
 65 66  1  0
 63 67  1  0
 67 68  1  0
 60 69  1  0
 69 70  1  0
 56 71  1  0
 71 72  2  3
 72 73  1  0
 73 74  2  0
 73 75  1  0
 75 76  2  0
 76 77  1  0
 77 78  1  0
 77 79  2  0
 79 80  1  0
 79 81  1  0
 81 82  2  0
 82 83  1  0
 83 84  2  3
 84 85  1  0
 85 86  3  0
 84 87  1  0
 87 88  3  0
 11  2  1  0
 23 17  1  0
 66 24  1  0
 83 72  1  0
 10  5  1  0
 22 18  1  0
 31 26  1  0
 65 34  2  0
 82 75  1  0
 23  7  1  0
 64 36  2  0
 62 37  2  0
 42 38  2  0
 61 43  2  0
 59 44  2  0
 58 46  2  0
 55 48  1  0
  1 89  1  0
  6 90  1  0
  9 91  1  0
 17 92  1  0
 18 93  1  0
 19 94  1  0
 20 95  1  0
 21 96  1  0
 22 97  1  0
 22 98  1  0
 23 99  1  0
 27100  1  0
 28101  1  0
 29102  1  0
 30103  1  0
 32104  1  0
 32105  1  0
 33106  1  0
 33107  1  0
 33108  1  0
 50109  1  0
 50110  1  0
 51111  1  0
 51112  1  0
 51113  1  0
 52114  1  0
 53115  1  0
 54116  1  0
 55117  1  0
 67118  1  0
 67119  1  0
 68120  1  0
 68121  1  0
 68122  1  0
 69123  1  0
 69124  1  0
 70125  1  0
 70126  1  0
 70127  1  0
 71128  1  0
 76129  1  0
 78130  1  0
 78131  1  0
 78132  1  0
 80133  1  0
 80134  1  0
 80135  1  0
 81136  1  0
M  END

