
     RDKit          3D

 98112  0  0  0  0  0  0  0  0999 V2000
   -6.3493   -3.0353   -2.6551 C   0  0  0  0  0  0  0  0  0  0  0  0
   -5.3275   -3.6444   -1.9490 C   0  0  0  0  0  0  0  0  0  0  0  0
   -4.2542   -2.8879   -1.2893 C   0  0  0  0  0  0  0  0  0  0  0  0
   -4.2621   -1.6682   -0.9763 O   0  0  0  0  0  0  0  0  0  0  0  0
   -3.1015   -3.7715   -1.0132 C   0  0  0  0  0  0  0  0  0  0  0  0
   -1.8687   -3.4303   -0.5346 C   0  0  0  0  0  0  0  0  0  0  0  0
   -0.8876   -4.4010   -0.4896 C   0  0  0  0  0  0  0  0  0  0  0  0
   -1.1987   -5.6628   -0.9122 C   0  0  0  0  0  0  0  0  0  0  0  0
   -2.4703   -5.9886   -1.4060 C   0  0  0  0  0  0  0  0  0  0  0  0
   -3.4554   -5.0408   -1.4697 C   0  0  0  0  0  0  0  0  0  0  0  0
   -4.8466   -4.9975   -2.0557 C   0  0  0  0  0  0  0  0  0  0  0  0
   -5.4815   -6.0420   -2.4732 C   0  0  0  0  0  0  0  0  0  0  0  0
   -4.9211   -7.3261   -2.5492 C   0  0  0  0  0  0  0  0  0  0  0  0
   -4.4468   -8.4533   -2.6186 N   0  0  0  0  0  0  0  0  0  0  0  0
   -6.8974   -5.9455   -2.8210 C   0  0  0  0  0  0  0  0  0  0  0  0
   -8.0546   -5.8471   -3.0994 N   0  0  0  0  0  0  0  0  0  0  0  0
    0.1851   -6.0584   -0.5361 C   0  0  0  0  0  0  0  0  0  0  0  0
    0.3816   -6.5894    0.8821 C   0  0  0  0  0  0  0  0  0  0  0  0
   -0.4222   -5.8056    1.8447 C   0  0  0  0  0  0  0  0  0  0  0  0
    0.1253   -4.6017    2.0749 C   0  0  0  0  0  0  0  0  0  0  0  0
    1.1670   -4.4863    1.0273 C   0  0  0  0  0  0  0  0  0  0  0  0
    1.7575   -5.9171    1.1755 C   0  0  0  0  0  0  0  0  0  0  0  0
    0.5756   -4.6143   -0.3069 C   0  0  0  0  0  0  0  0  0  0  0  0
   -6.1983   -1.6177   -2.6735 C   0  0  0  0  0  0  0  0  0  0  0  0
   -6.4792   -0.3892   -2.5168 C   0  0  0  0  0  0  0  0  0  0  0  0
   -5.7264    0.7247   -2.6983 C   0  0  0  0  0  0  0  0  0  0  0  0
   -5.9062    2.4518   -2.2724 S   0  0  0  0  0  0  0  0  0  0  0  0
   -4.2854    2.9398   -2.6677 C   0  0  0  0  0  0  0  0  0  0  0  0
   -3.3463    3.9718   -2.5260 C   0  0  0  0  0  0  0  0  0  0  0  0
   -3.4669    5.2262   -1.9696 C   0  0  0  0  0  0  0  0  0  0  0  0
   -2.3300    5.9404   -1.7545 C   0  0  0  0  0  0  0  0  0  0  0  0
   -2.5167    7.1585   -1.2040 N   0  0  0  0  0  0  0  0  0  0  0  0
   -4.1668    7.2934   -1.0036 S   0  0  0  0  0  0  0  0  0  0  0  0
   -4.6268    5.8137   -1.6150 N   0  0  0  0  0  0  0  0  0  0  0  0
   -1.0993    5.3619   -2.0946 C   0  0  0  0  0  0  0  0  0  0  0  0
    0.1750    5.7466   -1.6689 C   0  0  0  0  0  0  0  0  0  0  0  0
    1.0600    4.7613   -1.9883 C   0  0  0  0  0  0  0  0  0  0  0  0
    0.3760    3.7446   -2.6221 N   0  0  0  0  0  0  0  0  0  0  0  0
    1.0335    2.5927   -3.1282 C   0  0  0  0  0  0  0  0  0  0  0  0
    1.3625    2.7916   -4.5655 C   0  0  0  0  0  0  0  0  0  0  0  0
   -0.9395    4.1343   -2.6637 C   0  0  0  0  0  0  0  0  0  0  0  0
   -2.1236    3.4135   -2.9034 C   0  0  0  0  0  0  0  0  0  0  0  0
   -2.3575    2.1558   -3.2586 N   0  0  0  0  0  0  0  0  0  0  0  0
   -3.7060    1.8184   -3.1054 C   0  0  0  0  0  0  0  0  0  0  0  0
   -4.4984    0.7571   -3.0956 C   0  0  0  0  0  0  0  0  0  0  0  0
   -4.1934   -1.2499   -3.3315 Se  0  0  0  0  0  2  0  0  0  0  0  0
   -1.4643    1.2698   -3.9622 C   0  0  0  0  0  0  0  0  0  0  0  0
   -1.6282    1.5036   -5.4791 C   0  0  0  0  0  0  0  0  0  0  0  0
    2.3324    4.9692   -1.4557 C   0  0  0  0  0  0  0  0  0  0  0  0
    2.6163    5.9990   -0.7470 C   0  0  0  0  0  0  0  0  0  0  0  0
    1.0609    6.8425   -0.7496 S   0  0  0  0  0  0  0  0  0  0  0  0
    3.7821    6.1661   -0.0376 C   0  0  0  0  0  0  0  0  0  0  0  0
    4.7339    5.2571   -0.0158 C   0  0  0  0  0  0  0  0  0  0  0  0
    3.9356    3.8946   -1.2135 Se  0  0  0  0  0  2  0  0  0  0  0  0
    5.9058    4.8741    0.7844 C   0  0  0  0  0  0  0  0  0  0  0  0
    5.6259    4.4348    2.0385 C   0  0  0  0  0  0  0  0  0  0  0  0
    4.2277    4.3624    2.5403 C   0  0  0  0  0  0  0  0  0  0  0  0
    3.1488    4.6836    1.9943 O   0  0  0  0  0  0  0  0  0  0  0  0
    4.2467    3.8098    3.8850 C   0  0  0  0  0  0  0  0  0  0  0  0
    3.2046    3.5282    4.7603 C   0  0  0  0  0  0  0  0  0  0  0  0
    1.9072    3.7960    4.4159 F   0  0  0  0  0  0  0  0  0  0  0  0
    3.4304    2.9868    6.0123 C   0  0  0  0  0  0  0  0  0  0  0  0
    4.7044    2.7345    6.3709 C   0  0  0  0  0  0  0  0  0  0  0  0
    5.7640    3.0158    5.4742 C   0  0  0  0  0  0  0  0  0  0  0  0
    5.5762    3.5571    4.2250 C   0  0  0  0  0  0  0  0  0  0  0  0
    6.4516    3.9364    3.0927 C   0  0  0  0  0  0  0  0  0  0  0  0
    7.7332    3.7948    3.0292 C   0  0  0  0  0  0  0  0  0  0  0  0
    8.5747    4.0691    1.9359 C   0  0  0  0  0  0  0  0  0  0  0  0
    9.2877    4.2803    1.0132 N   0  0  0  0  0  0  0  0  0  0  0  0
    8.5013    3.2284    4.1907 C   0  0  0  0  0  0  0  0  0  0  0  0
    9.1265    2.7753    5.1009 N   0  0  0  0  0  0  0  0  0  0  0  0
   -7.0738   -3.5533   -3.0898 H   0  0  0  0  0  0  0  0  0  0  0  0
   -1.6747   -2.4020   -0.2036 H   0  0  0  0  0  0  0  0  0  0  0  0
   -2.6398   -6.9726   -1.7373 H   0  0  0  0  0  0  0  0  0  0  0  0
    0.7578   -6.5717   -1.3104 H   0  0  0  0  0  0  0  0  0  0  0  0
    0.3685   -7.6531    0.9632 H   0  0  0  0  0  0  0  0  0  0  0  0
   -1.3208   -6.1558    2.3171 H   0  0  0  0  0  0  0  0  0  0  0  0
   -0.1009   -3.8501    2.8055 H   0  0  0  0  0  0  0  0  0  0  0  0
    1.9308   -3.7341    1.1724 H   0  0  0  0  0  0  0  0  0  0  0  0
    2.4589   -6.0997    0.3630 H   0  0  0  0  0  0  0  0  0  0  0  0
    2.0546   -6.0527    2.1902 H   0  0  0  0  0  0  0  0  0  0  0  0
    1.1842   -4.1867   -1.1612 H   0  0  0  0  0  0  0  0  0  0  0  0
   -7.5740   -0.2600   -2.1239 H   0  0  0  0  0  0  0  0  0  0  0  0
    2.1384    2.5822   -2.6852 H   0  0  0  0  0  0  0  0  0  0  0  0
    0.8005    1.6138   -2.7114 H   0  0  0  0  0  0  0  0  0  0  0  0
    1.2034    1.8486   -5.1494 H   0  0  0  0  0  0  0  0  0  0  0  0
    2.3870    3.0936   -4.8079 H   0  0  0  0  0  0  0  0  0  0  0  0
    0.6907    3.6132   -4.9789 H   0  0  0  0  0  0  0  0  0  0  0  0
   -0.5630    0.9002   -3.6260 H   0  0  0  0  0  0  0  0  0  0  0  0
   -2.0289    0.2185   -3.9168 H   0  0  0  0  0  0  0  0  0  0  0  0
   -2.6984    1.3277   -5.7236 H   0  0  0  0  0  0  0  0  0  0  0  0
   -1.2397    2.4472   -5.7938 H   0  0  0  0  0  0  0  0  0  0  0  0
   -1.0476    0.7242   -6.0414 H   0  0  0  0  0  0  0  0  0  0  0  0
    4.0028    7.1054    0.5786 H   0  0  0  0  0  0  0  0  0  0  0  0
    6.8747    4.9417    0.3741 H   0  0  0  0  0  0  0  0  0  0  0  0
    2.5559    2.8110    6.6439 H   0  0  0  0  0  0  0  0  0  0  0  0
    4.8845    2.3064    7.3352 H   0  0  0  0  0  0  0  0  0  0  0  0
    6.7434    2.8089    5.8254 H   0  0  0  0  0  0  0  0  0  0  0  0
  1  2  2  3
  2  3  1  0
  3  4  2  0
  3  5  1  0
  5  6  2  0
  6  7  1  0
  7  8  2  0
  8  9  1  0
  9 10  2  0
 10 11  1  0
 11 12  2  3
 12 13  1  0
 13 14  3  0
 12 15  1  0
 15 16  3  0
  8 17  1  0
 17 18  1  0
 18 19  1  0
 19 20  2  0
 20 21  1  0
 21 22  1  0
 21 23  1  0
  1 24  1  0
 24 25  2  0
 25 26  1  0
 26 27  1  0
 27 28  1  0
 28 29  1  0
 29 30  1  0
 30 31  1  0
 31 32  2  0
 32 33  1  0
 33 34  1  0
 31 35  1  0
 35 36  1  0
 36 37  2  0
 37 38  1  0
 38 39  1  0
 39 40  1  0
 38 41  1  0
 41 42  1  0
 42 43  1  0
 43 44  1  0
 44 45  1  0
 45 46  1  0
 43 47  1  0
 47 48  1  0
 37 49  1  0
 49 50  2  0
 50 51  1  0
 50 52  1  0
 52 53  2  0
 53 54  1  0
 53 55  1  0
 55 56  2  3
 56 57  1  0
 57 58  2  0
 57 59  1  0
 59 60  2  0
 60 61  1  0
 60 62  1  0
 62 63  2  0
 63 64  1  0
 64 65  2  0
 65 66  1  0
 66 67  2  3
 67 68  1  0
 68 69  3  0
 67 70  1  0
 70 71  3  0
 11  2  1  0
 23 17  1  0
 46 24  1  0
 54 49  1  0
 66 56  1  0
 10  5  1  0
 22 18  1  0
 45 26  2  0
 65 59  1  0
 23  7  1  0
 44 28  2  0
 42 29  2  0
 34 30  2  0
 41 35  2  0
 51 36  1  0
  1 72  1  0
  6 73  1  0
  9 74  1  0
 17 75  1  0
 18 76  1  0
 19 77  1  0
 20 78  1  0
 21 79  1  0
 22 80  1  0
 22 81  1  0
 23 82  1  0
 25 83  1  0
 39 84  1  0
 39 85  1  0
 40 86  1  0
 40 87  1  0
 40 88  1  0
 47 89  1  0
 47 90  1  0
 48 91  1  0
 48 92  1  0
 48 93  1  0
 52 94  1  0
 55 95  1  0
 62 96  1  0
 63 97  1  0
 64 98  1  0
M  END

