
     RDKit          3D

173193  0  0  0  0  0  0  0  0999 V2000
    2.4636    2.7899    2.1965 C   0  0  0  0  0  0  0  0  0  0  0  0
    2.0190    3.8426    2.9304 C   0  0  0  0  0  0  0  0  0  0  0  0
    2.2482    4.0018    4.3668 C   0  0  0  0  0  0  0  0  0  0  0  0
    2.6984    3.1174    5.1412 O   0  0  0  0  0  0  0  0  0  0  0  0
    1.6054    5.2170    4.7993 C   0  0  0  0  0  0  0  0  0  0  0  0
    1.7797    5.8633    6.0477 C   0  0  0  0  0  0  0  0  0  0  0  0
    1.1324    7.0824    6.1488 C   0  0  0  0  0  0  0  0  0  0  0  0
    0.3436    7.6249    5.0914 C   0  0  0  0  0  0  0  0  0  0  0  0
    0.1672    7.0028    3.8651 C   0  0  0  0  0  0  0  0  0  0  0  0
    0.8465    5.7593    3.7239 C   0  0  0  0  0  0  0  0  0  0  0  0
    1.0733    4.9297    2.5007 C   0  0  0  0  0  0  0  0  0  0  0  0
    0.5967    5.2105    1.2629 C   0  0  0  0  0  0  0  0  0  0  0  0
   -0.5122    6.0990    1.0290 C   0  0  0  0  0  0  0  0  0  0  0  0
   -1.4241    6.7843    0.8106 N   0  0  0  0  0  0  0  0  0  0  0  0
    1.0698    4.5785    0.0521 C   0  0  0  0  0  0  0  0  0  0  0  0
    1.4542    4.1237   -0.9333 N   0  0  0  0  0  0  0  0  0  0  0  0
    0.0548    8.8478    5.9024 C   0  0  0  0  0  0  0  0  0  0  0  0
   -1.3569    8.9708    6.5473 C   0  0  0  0  0  0  0  0  0  0  0  0
   -1.9055    7.5969    6.8862 C   0  0  0  0  0  0  0  0  0  0  0  0
   -1.1534    7.1239    7.8793 C   0  0  0  0  0  0  0  0  0  0  0  0
   -0.1133    8.1837    8.1814 C   0  0  0  0  0  0  0  0  0  0  0  0
   -0.9546    9.4249    7.9390 C   0  0  0  0  0  0  0  0  0  0  0  0
    0.8777    8.3054    6.9837 C   0  0  0  0  0  0  0  0  0  0  0  0
    3.3151    1.7321    2.7449 C   0  0  0  0  0  0  0  0  0  0  0  0
    2.8115    0.5605    3.3192 C   0  0  0  0  0  0  0  0  0  0  0  0
    3.7157   -0.4935    3.2511 C   0  0  0  0  0  0  0  0  0  0  0  0
    3.4099   -2.1471    3.2451 S   0  0  0  0  0  0  0  0  0  0  0  0
    4.7105   -2.5439    2.2247 C   0  0  0  0  0  0  0  0  0  0  0  0
    4.4946   -3.3399    1.0255 C   0  0  0  0  0  0  0  0  0  0  0  0
    4.7449   -2.4925   -0.0551 C   0  0  0  0  0  0  0  0  0  0  0  0
    5.7606   -1.4461    0.3514 C   0  0  0  0  0  0  0  0  0  0  0  0
    5.6918   -0.1217   -0.4458 C   0  0  0  0  0  0  0  0  0  0  0  0
    6.8689    0.6215   -0.7169 C   0  0  0  0  0  0  0  0  0  0  0  0
    6.8215    1.7929   -1.4734 C   0  0  0  0  0  0  0  0  0  0  0  0
    5.5969    2.2493   -1.9820 C   0  0  0  0  0  0  0  0  0  0  0  0
    5.5505    3.4719   -2.8541 C   0  0  0  0  0  0  0  0  0  0  0  0
    5.2900    4.7183   -2.0158 C   0  0  0  0  0  0  0  0  0  0  0  0
    4.4165    1.5888   -1.6249 C   0  0  0  0  0  0  0  0  0  0  0  0
    4.4616    0.4343   -0.8490 C   0  0  0  0  0  0  0  0  0  0  0  0
    7.1438   -2.1036    0.1732 C   0  0  0  0  0  0  0  0  0  0  0  0
    8.1474   -1.9739    1.1618 C   0  0  0  0  0  0  0  0  0  0  0  0
    9.4073   -2.5553    0.9825 C   0  0  0  0  0  0  0  0  0  0  0  0
    9.7033   -3.2636   -0.1947 C   0  0  0  0  0  0  0  0  0  0  0  0
   11.0183   -3.9675   -0.3542 C   0  0  0  0  0  0  0  0  0  0  0  0
   10.9196   -5.4092    0.1505 C   0  0  0  0  0  0  0  0  0  0  0  0
    8.7257   -3.3777   -1.2004 C   0  0  0  0  0  0  0  0  0  0  0  0
    7.4715   -2.7789   -1.0235 C   0  0  0  0  0  0  0  0  0  0  0  0
    5.3593   -1.3603    1.8368 C   0  0  0  0  0  0  0  0  0  0  0  0
    4.8312   -0.2396    2.4954 C   0  0  0  0  0  0  0  0  0  0  0  0
    4.8350    1.3856    2.0898 S   0  0  0  0  0  0  0  0  0  0  0  0
    3.9256   -2.5695   -1.1945 C   0  0  0  0  0  0  0  0  0  0  0  0
    3.0153   -3.6253   -1.2341 C   0  0  0  0  0  0  0  0  0  0  0  0
    1.8923   -3.7974   -1.9955 C   0  0  0  0  0  0  0  0  0  0  0  0
    0.9732   -2.8036   -2.3830 C   0  0  0  0  0  0  0  0  0  0  0  0
   -0.3267   -3.2342   -2.7349 C   0  0  0  0  0  0  0  0  0  0  0  0
   -0.5417   -4.6049   -2.9511 C   0  0  0  0  0  0  0  0  0  0  0  0
    0.2552   -5.5696   -2.3023 C   0  0  0  0  0  0  0  0  0  0  0  0
    1.4316   -5.0791   -1.7127 C   0  0  0  0  0  0  0  0  0  0  0  0
    2.1116   -5.6014   -0.6548 N   0  0  0  0  0  0  0  0  0  0  0  0
    1.8063   -6.8373    0.0767 C   0  0  0  0  0  0  0  0  0  0  0  0
    2.5500   -8.0026   -0.5597 C   0  0  0  0  0  0  0  0  0  0  0  0
    3.0359   -4.6648   -0.3284 C   0  0  0  0  0  0  0  0  0  0  0  0
    3.7266   -4.5079    0.8934 C   0  0  0  0  0  0  0  0  0  0  0  0
   -1.9104   -4.7314   -3.3710 C   0  0  0  0  0  0  0  0  0  0  0  0
   -2.9232   -5.9680   -3.9440 S   0  0  0  0  0  0  0  0  0  0  0  0
   -4.2229   -4.8836   -4.0667 C   0  0  0  0  0  0  0  0  0  0  0  0
   -5.5753   -5.0488   -4.3605 C   0  0  0  0  0  0  0  0  0  0  0  0
   -6.2780   -3.8496   -4.1658 C   0  0  0  0  0  0  0  0  0  0  0  0
   -5.1890   -2.6194   -3.7011 S   0  0  0  0  0  0  0  0  0  0  0  0
   -3.8563   -3.6238   -3.6713 C   0  0  0  0  0  0  0  0  0  0  0  0
   -2.5349   -3.5304   -3.2321 C   0  0  0  0  0  0  0  0  0  0  0  0
   -1.6898   -2.6039   -2.3726 C   0  0  0  0  0  0  0  0  0  0  0  0
   -1.9455   -1.1096   -2.6106 C   0  0  0  0  0  0  0  0  0  0  0  0
   -0.9530   -0.2098   -3.0692 C   0  0  0  0  0  0  0  0  0  0  0  0
   -1.1293    1.1790   -2.9382 C   0  0  0  0  0  0  0  0  0  0  0  0
   -2.3295    1.7012   -2.4209 C   0  0  0  0  0  0  0  0  0  0  0  0
   -2.5277    3.1904   -2.2744 C   0  0  0  0  0  0  0  0  0  0  0  0
   -2.6563    3.6069   -0.8084 C   0  0  0  0  0  0  0  0  0  0  0  0
   -3.3543    0.8186   -2.0632 C   0  0  0  0  0  0  0  0  0  0  0  0
   -3.1568   -0.5575   -2.1410 C   0  0  0  0  0  0  0  0  0  0  0  0
   -1.9288   -2.9117   -0.8637 C   0  0  0  0  0  0  0  0  0  0  0  0
   -0.9513   -2.5638    0.1017 C   0  0  0  0  0  0  0  0  0  0  0  0
   -1.0528   -2.9989    1.4190 C   0  0  0  0  0  0  0  0  0  0  0  0
   -2.1810   -3.7078    1.8525 C   0  0  0  0  0  0  0  0  0  0  0  0
   -2.2697   -4.2244    3.2589 C   0  0  0  0  0  0  0  0  0  0  0  0
   -2.0309   -5.7291    3.2963 C   0  0  0  0  0  0  0  0  0  0  0  0
   -3.2303   -3.9348    0.9394 C   0  0  0  0  0  0  0  0  0  0  0  0
   -3.1139   -3.5318   -0.3901 C   0  0  0  0  0  0  0  0  0  0  0  0
   -7.7417   -3.6672   -4.2947 C   0  0  0  0  0  0  0  0  0  0  0  0
   -8.4789   -3.0144   -3.3766 C   0  0  0  0  0  0  0  0  0  0  0  0
   -7.9568   -2.4161   -2.1453 C   0  0  0  0  0  0  0  0  0  0  0  0
   -7.0371   -2.8895   -1.4246 O   0  0  0  0  0  0  0  0  0  0  0  0
   -8.7479   -1.2528   -1.8185 C   0  0  0  0  0  0  0  0  0  0  0  0
   -8.3762   -0.1753   -1.0199 C   0  0  0  0  0  0  0  0  0  0  0  0
   -9.1287    1.0103   -1.1044 C   0  0  0  0  0  0  0  0  0  0  0  0
   -8.6991    2.1823   -0.4584 C   0  0  0  0  0  0  0  0  0  0  0  0
   -9.3994    3.3707   -0.6312 C   0  0  0  0  0  0  0  0  0  0  0  0
  -10.5732    3.3992   -1.3912 C   0  0  0  0  0  0  0  0  0  0  0  0
  -11.2719    4.5540   -1.5310 F   0  0  0  0  0  0  0  0  0  0  0  0
  -11.0214    2.2432   -2.0365 C   0  0  0  0  0  0  0  0  0  0  0  0
  -10.2982    1.0530   -1.9241 C   0  0  0  0  0  0  0  0  0  0  0  0
  -10.6614   -0.0697   -2.6944 C   0  0  0  0  0  0  0  0  0  0  0  0
   -9.8509   -1.2177   -2.6542 C   0  0  0  0  0  0  0  0  0  0  0  0
   -9.8302   -2.4021   -3.5637 C   0  0  0  0  0  0  0  0  0  0  0  0
  -10.8931   -2.8973   -4.2545 C   0  0  0  0  0  0  0  0  0  0  0  0
  -10.7999   -4.1376   -4.9895 C   0  0  0  0  0  0  0  0  0  0  0  0
  -10.7267   -5.1120   -5.5966 N   0  0  0  0  0  0  0  0  0  0  0  0
  -12.2333   -2.3909   -4.0517 C   0  0  0  0  0  0  0  0  0  0  0  0
  -13.3179   -2.0560   -3.8623 N   0  0  0  0  0  0  0  0  0  0  0  0
    2.2606    2.7028    1.1379 H   0  0  0  0  0  0  0  0  0  0  0  0
    2.4543    5.5061    6.8228 H   0  0  0  0  0  0  0  0  0  0  0  0
   -0.3811    7.5035    3.0917 H   0  0  0  0  0  0  0  0  0  0  0  0
    0.4603    9.7866    5.4577 H   0  0  0  0  0  0  0  0  0  0  0  0
   -2.0644    9.6437    6.0194 H   0  0  0  0  0  0  0  0  0  0  0  0
   -2.7652    7.1019    6.4533 H   0  0  0  0  0  0  0  0  0  0  0  0
   -1.3106    6.1991    8.4351 H   0  0  0  0  0  0  0  0  0  0  0  0
    0.3498    8.1148    9.1857 H   0  0  0  0  0  0  0  0  0  0  0  0
   -1.8150    9.5199    8.6397 H   0  0  0  0  0  0  0  0  0  0  0  0
   -0.3645   10.3742    7.9479 H   0  0  0  0  0  0  0  0  0  0  0  0
    1.7999    8.8825    7.2001 H   0  0  0  0  0  0  0  0  0  0  0  0
    1.7623    0.4290    3.5399 H   0  0  0  0  0  0  0  0  0  0  0  0
    7.8351    0.3314   -0.3435 H   0  0  0  0  0  0  0  0  0  0  0  0
    7.7441    2.3176   -1.6855 H   0  0  0  0  0  0  0  0  0  0  0  0
    4.7410    3.3603   -3.6105 H   0  0  0  0  0  0  0  0  0  0  0  0
    6.5138    3.5877   -3.4024 H   0  0  0  0  0  0  0  0  0  0  0  0
    4.2638    4.6857   -1.5824 H   0  0  0  0  0  0  0  0  0  0  0  0
    5.3833    5.6178   -2.6593 H   0  0  0  0  0  0  0  0  0  0  0  0
    6.0251    4.7933   -1.1836 H   0  0  0  0  0  0  0  0  0  0  0  0
    3.4555    1.9910   -1.9319 H   0  0  0  0  0  0  0  0  0  0  0  0
    3.5344   -0.0173   -0.5425 H   0  0  0  0  0  0  0  0  0  0  0  0
    7.9552   -1.4545    2.0887 H   0  0  0  0  0  0  0  0  0  0  0  0
   10.1329   -2.4767    1.7774 H   0  0  0  0  0  0  0  0  0  0  0  0
   11.3087   -3.9862   -1.4365 H   0  0  0  0  0  0  0  0  0  0  0  0
   11.8235   -3.4251    0.2025 H   0  0  0  0  0  0  0  0  0  0  0  0
   11.8722   -5.9403   -0.0461 H   0  0  0  0  0  0  0  0  0  0  0  0
   10.1031   -5.9326   -0.3846 H   0  0  0  0  0  0  0  0  0  0  0  0
   10.7130   -5.4143    1.2393 H   0  0  0  0  0  0  0  0  0  0  0  0
    8.9288   -3.9433   -2.1048 H   0  0  0  0  0  0  0  0  0  0  0  0
    6.7609   -2.8562   -1.8264 H   0  0  0  0  0  0  0  0  0  0  0  0
    3.9768   -1.8330   -1.9805 H   0  0  0  0  0  0  0  0  0  0  0  0
    1.1853   -1.7762   -2.1404 H   0  0  0  0  0  0  0  0  0  0  0  0
   -0.0972   -6.5739   -2.1139 H   0  0  0  0  0  0  0  0  0  0  0  0
    2.1028   -6.7562    1.1413 H   0  0  0  0  0  0  0  0  0  0  0  0
    0.7179   -7.0334    0.0665 H   0  0  0  0  0  0  0  0  0  0  0  0
    2.3676   -8.0261   -1.6549 H   0  0  0  0  0  0  0  0  0  0  0  0
    3.6402   -7.8878   -0.3845 H   0  0  0  0  0  0  0  0  0  0  0  0
    2.2181   -8.9601   -0.1055 H   0  0  0  0  0  0  0  0  0  0  0  0
    3.5822   -5.1868    1.7240 H   0  0  0  0  0  0  0  0  0  0  0  0
   -6.0373   -5.9936   -4.6437 H   0  0  0  0  0  0  0  0  0  0  0  0
   -0.0444   -0.5657   -3.5110 H   0  0  0  0  0  0  0  0  0  0  0  0
   -0.3259    1.8413   -3.2369 H   0  0  0  0  0  0  0  0  0  0  0  0
   -1.6837    3.7344   -2.7424 H   0  0  0  0  0  0  0  0  0  0  0  0
   -3.4524    3.4906   -2.8169 H   0  0  0  0  0  0  0  0  0  0  0  0
   -2.7179    4.7106   -0.7495 H   0  0  0  0  0  0  0  0  0  0  0  0
   -3.5964    3.1899   -0.3714 H   0  0  0  0  0  0  0  0  0  0  0  0
   -1.7819    3.2504   -0.2200 H   0  0  0  0  0  0  0  0  0  0  0  0
   -4.2977    1.1968   -1.6739 H   0  0  0  0  0  0  0  0  0  0  0  0
   -3.9296   -1.1973   -1.7354 H   0  0  0  0  0  0  0  0  0  0  0  0
   -0.0602   -2.0224   -0.1683 H   0  0  0  0  0  0  0  0  0  0  0  0
   -0.2243   -2.8404    2.1007 H   0  0  0  0  0  0  0  0  0  0  0  0
   -3.2716   -3.9905    3.6854 H   0  0  0  0  0  0  0  0  0  0  0  0
   -1.5113   -3.7235    3.9013 H   0  0  0  0  0  0  0  0  0  0  0  0
   -2.8061   -6.2637    2.7024 H   0  0  0  0  0  0  0  0  0  0  0  0
   -1.0343   -5.9767    2.8739 H   0  0  0  0  0  0  0  0  0  0  0  0
   -2.0743   -6.0844    4.3462 H   0  0  0  0  0  0  0  0  0  0  0  0
   -4.1215   -4.4893    1.2421 H   0  0  0  0  0  0  0  0  0  0  0  0
   -3.9353   -3.7693   -1.0486 H   0  0  0  0  0  0  0  0  0  0  0  0
   -8.1928   -4.0290   -5.1999 H   0  0  0  0  0  0  0  0  0  0  0  0
   -7.4537   -0.2238   -0.4476 H   0  0  0  0  0  0  0  0  0  0  0  0
   -7.7802    2.1916    0.1224 H   0  0  0  0  0  0  0  0  0  0  0  0
   -9.0516    4.2815   -0.1559 H   0  0  0  0  0  0  0  0  0  0  0  0
  -11.9112    2.2915   -2.6592 H   0  0  0  0  0  0  0  0  0  0  0  0
  -11.5150   -0.0091   -3.3634 H   0  0  0  0  0  0  0  0  0  0  0  0
  1  2  2  3
  2  3  1  0
  3  4  2  0
  3  5  1  0
  5  6  2  0
  6  7  1  0
  7  8  2  0
  8  9  1  0
  9 10  2  0
 10 11  1  0
 11 12  2  3
 12 13  1  0
 13 14  3  0
 12 15  1  0
 15 16  3  0
  8 17  1  0
 17 18  1  0
 18 19  1  0
 19 20  2  0
 20 21  1  0
 21 22  1  0
 21 23  1  0
  1 24  1  0
 24 25  2  0
 25 26  1  0
 26 27  1  0
 27 28  1  0
 28 29  1  0
 29 30  2  0
 30 31  1  0
 31 32  1  0
 32 33  2  0
 33 34  1  0
 34 35  2  0
 35 36  1  0
 36 37  1  0
 35 38  1  0
 38 39  2  0
 31 40  1  0
 40 41  2  0
 41 42  1  0
 42 43  2  0
 43 44  1  0
 44 45  1  0
 43 46  1  0
 46 47  2  0
 31 48  1  0
 48 49  1  0
 49 50  1  0
 30 51  1  0
 51 52  2  0
 52 53  1  0
 53 54  2  0
 54 55  1  0
 55 56  2  0
 56 57  1  0
 57 58  2  0
 58 59  1  0
 59 60  1  0
 60 61  1  0
 59 62  1  0
 62 63  2  0
 56 64  1  0
 64 65  1  0
 65 66  1  0
 66 67  1  0
 67 68  2  0
 68 69  1  0
 69 70  1  0
 70 71  1  0
 71 72  1  0
 72 73  1  0
 73 74  2  0
 74 75  1  0
 75 76  2  0
 76 77  1  0
 77 78  1  0
 76 79  1  0
 79 80  2  0
 72 81  1  0
 81 82  2  0
 82 83  1  0
 83 84  2  0
 84 85  1  0
 85 86  1  0
 84 87  1  0
 87 88  2  0
 68 89  1  0
 89 90  2  3
 90 91  1  0
 91 92  2  0
 91 93  1  0
 93 94  2  0
 94 95  1  0
 95 96  2  0
 96 97  1  0
 97 98  2  0
 98 99  1  0
 98100  1  0
100101  2  0
101102  1  0
102103  2  0
103104  1  0
104105  2  3
105106  1  0
106107  3  0
105108  1  0
108109  3  0
 11  2  1  0
 23 17  1  0
 50 24  1  0
 62 52  1  0
 71 64  2  0
 80 73  1  0
 88 81  1  0
104 90  1  0
 10  5  1  0
 22 18  1  0
 49 26  2  0
 58 53  1  0
 70 66  2  0
103 93  1  0
 23  7  1  0
 48 28  2  0
 72 55  1  0
101 95  1  0
 63 29  1  0
 39 32  1  0
 47 40  1  0
  1110  1  0
  6111  1  0
  9112  1  0
 17113  1  0
 18114  1  0
 19115  1  0
 20116  1  0
 21117  1  0
 22118  1  0
 22119  1  0
 23120  1  0
 25121  1  0
 33122  1  0
 34123  1  0
 36124  1  0
 36125  1  0
 37126  1  0
 37127  1  0
 37128  1  0
 38129  1  0
 39130  1  0
 41131  1  0
 42132  1  0
 44133  1  0
 44134  1  0
 45135  1  0
 45136  1  0
 45137  1  0
 46138  1  0
 47139  1  0
 51140  1  0
 54141  1  0
 57142  1  0
 60143  1  0
 60144  1  0
 61145  1  0
 61146  1  0
 61147  1  0
 63148  1  0
 67149  1  0
 74150  1  0
 75151  1  0
 77152  1  0
 77153  1  0
 78154  1  0
 78155  1  0
 78156  1  0
 79157  1  0
 80158  1  0
 82159  1  0
 83160  1  0
 85161  1  0
 85162  1  0
 86163  1  0
 86164  1  0
 86165  1  0
 87166  1  0
 88167  1  0
 89168  1  0
 94169  1  0
 96170  1  0
 97171  1  0
100172  1  0
102173  1  0
M  END

