
     RDKit          3D

101114  0  0  0  0  0  0  0  0999 V2000
    5.4202   -2.5322   -4.8031 C   0  0  0  0  0  0  0  0  0  0  0  0
    4.6971   -2.0810   -5.8878 C   0  0  0  0  0  0  0  0  0  0  0  0
    3.2140   -1.8087   -5.8218 C   0  0  0  0  0  0  0  0  0  0  0  0
    2.4057   -2.4406   -5.1371 O   0  0  0  0  0  0  0  0  0  0  0  0
    2.9408   -0.6875   -6.7204 C   0  0  0  0  0  0  0  0  0  0  0  0
    1.8628    0.0807   -6.9920 C   0  0  0  0  0  0  0  0  0  0  0  0
    1.7764    1.1619   -7.7678 C   0  0  0  0  0  0  0  0  0  0  0  0
    2.9603    1.5693   -8.3947 C   0  0  0  0  0  0  0  0  0  0  0  0
    4.0879    0.8560   -8.1707 C   0  0  0  0  0  0  0  0  0  0  0  0
    4.2077   -0.2574   -7.3735 C   0  0  0  0  0  0  0  0  0  0  0  0
    5.2155   -1.1359   -6.8327 C   0  0  0  0  0  0  0  0  0  0  0  0
    6.4779   -1.1095   -7.1664 C   0  0  0  0  0  0  0  0  0  0  0  0
    7.0696   -0.1234   -8.1504 C   0  0  0  0  0  0  0  0  0  0  0  0
    7.5242    0.6061   -8.8874 N   0  0  0  0  0  0  0  0  0  0  0  0
    7.4687   -2.0905   -6.8432 C   0  0  0  0  0  0  0  0  0  0  0  0
    8.3375   -2.9593   -6.5636 N   0  0  0  0  0  0  0  0  0  0  0  0
    2.2648    2.7180   -9.0223 C   0  0  0  0  0  0  0  0  0  0  0  0
    2.6208    4.0515   -8.3950 C   0  0  0  0  0  0  0  0  0  0  0  0
    1.5293    4.9864   -8.7155 C   0  0  0  0  0  0  0  0  0  0  0  0
    0.4920    4.6470   -7.9742 C   0  0  0  0  0  0  0  0  0  0  0  0
    0.8142    3.3588   -7.2833 C   0  0  0  0  0  0  0  0  0  0  0  0
    2.2595    3.6945   -6.9306 C   0  0  0  0  0  0  0  0  0  0  0  0
    1.0090    2.3025   -8.3358 C   0  0  0  0  0  0  0  0  0  0  0  0
    4.6664   -2.6432   -3.6147 C   0  0  0  0  0  0  0  0  0  0  0  0
    4.7252   -3.9249   -2.0889 Se  0  0  0  0  0  2  0  0  0  0  0  0
    3.4358   -2.9168   -1.1779 C   0  0  0  0  0  0  0  0  0  0  0  0
    2.7011   -2.8690    0.0017 C   0  0  0  0  0  0  0  0  0  0  0  0
    2.7604   -3.8131    1.0035 C   0  0  0  0  0  0  0  0  0  0  0  0
    1.8900   -3.5366    2.0845 C   0  0  0  0  0  0  0  0  0  0  0  0
    1.7595   -4.5502    2.8492 N   0  0  0  0  0  0  0  0  0  0  0  0
    2.6675   -5.8155    2.3499 S   0  0  0  0  0  0  0  0  0  0  0  0
    3.3095   -5.0568    1.0095 N   0  0  0  0  0  0  0  0  0  0  0  0
    1.1151   -2.4044    2.0351 C   0  0  0  0  0  0  0  0  0  0  0  0
    0.1397   -1.9543    2.9003 C   0  0  0  0  0  0  0  0  0  0  0  0
   -0.6383   -2.2553    4.3240 S   0  0  0  0  0  0  0  0  0  0  0  0
   -1.8748   -0.7199    4.1460 C   0  0  0  0  0  0  0  0  0  0  0  0
   -2.7913   -0.7226    5.1309 C   0  0  0  0  0  0  0  0  0  0  0  0
   -2.8738   -1.3481    6.4503 C   0  0  0  0  0  0  0  0  0  0  0  0
   -2.6548   -2.8603    6.3503 C   0  0  0  0  0  0  0  0  0  0  0  0
   -3.7388    0.2186    4.6243 C   0  0  0  0  0  0  0  0  0  0  0  0
   -2.9977    0.7161    3.0624 S   0  0  0  0  0  0  0  0  0  0  0  0
   -1.4684   -0.4138    3.2099 C   0  0  0  0  0  0  0  0  0  0  0  0
   -0.4973   -0.7929    2.3508 C   0  0  0  0  0  0  0  0  0  0  0  0
    0.1795   -0.5861    1.1567 N   0  0  0  0  0  0  0  0  0  0  0  0
    1.0901   -1.4859    0.9518 C   0  0  0  0  0  0  0  0  0  0  0  0
    1.9711   -1.7794   -0.1216 C   0  0  0  0  0  0  0  0  0  0  0  0
    2.1365   -1.1087   -1.2809 N   0  0  0  0  0  0  0  0  0  0  0  0
    3.1383   -1.8800   -1.9702 C   0  0  0  0  0  0  0  0  0  0  0  0
    3.7504   -1.7655   -3.1447 C   0  0  0  0  0  0  0  0  0  0  0  0
    1.4624   -0.0195   -1.9017 C   0  0  0  0  0  0  0  0  0  0  0  0
    0.3317   -0.5281   -2.7999 C   0  0  0  0  0  0  0  0  0  0  0  0
   -0.2139    0.5399    0.3573 C   0  0  0  0  0  0  0  0  0  0  0  0
    0.4790    1.8513    0.6438 C   0  0  0  0  0  0  0  0  0  0  0  0
   -5.0033    0.6381    5.1247 C   0  0  0  0  0  0  0  0  0  0  0  0
   -5.4576    1.1112    6.2572 C   0  0  0  0  0  0  0  0  0  0  0  0
   -6.7482    1.4328    6.6020 C   0  0  0  0  0  0  0  0  0  0  0  0
   -7.7183    1.5275    5.5102 O   0  0  0  0  0  0  0  0  0  0  0  0
   -7.1788    1.6789    7.7495 C   0  0  0  0  0  0  0  0  0  0  0  0
   -8.0703    1.9674    8.8647 C   0  0  0  0  0  0  0  0  0  0  0  0
   -8.1605    2.1008    9.9624 C   0  0  0  0  0  0  0  0  0  0  0  0
   -9.5384    2.5057   11.0698 Cl  0  0  0  0  0  0  0  0  0  0  0  0
   -6.9070    1.9505   10.8199 C   0  0  0  0  0  0  0  0  0  0  0  0
   -6.8261    2.0944   12.4549 Cl  0  0  0  0  0  0  0  0  0  0  0  0
   -5.8673    1.6640    9.9062 C   0  0  0  0  0  0  0  0  0  0  0  0
   -5.8387    1.5290    8.6164 C   0  0  0  0  0  0  0  0  0  0  0  0
   -4.8101    1.1847    7.5488 C   0  0  0  0  0  0  0  0  0  0  0  0
   -3.5295    1.4260    7.8813 C   0  0  0  0  0  0  0  0  0  0  0  0
   -3.0791    1.4107    9.1749 C   0  0  0  0  0  0  0  0  0  0  0  0
   -2.6753    1.3949   10.3673 N   0  0  0  0  0  0  0  0  0  0  0  0
   -2.6315    1.9088    6.9076 C   0  0  0  0  0  0  0  0  0  0  0  0
   -1.8230    2.3224    6.0408 N   0  0  0  0  0  0  0  0  0  0  0  0
    6.4292   -2.7836   -4.9183 H   0  0  0  0  0  0  0  0  0  0  0  0
    0.8895   -0.2729   -6.4722 H   0  0  0  0  0  0  0  0  0  0  0  0
    5.0135    1.1856   -8.6735 H   0  0  0  0  0  0  0  0  0  0  0  0
    2.2763    2.7579  -10.0933 H   0  0  0  0  0  0  0  0  0  0  0  0
    3.6204    4.4019   -8.4954 H   0  0  0  0  0  0  0  0  0  0  0  0
    1.5935    5.8026   -9.4032 H   0  0  0  0  0  0  0  0  0  0  0  0
   -0.4249    5.2331   -7.9176 H   0  0  0  0  0  0  0  0  0  0  0  0
    0.1653    3.1604   -6.4669 H   0  0  0  0  0  0  0  0  0  0  0  0
    2.3435    4.5503   -6.2831 H   0  0  0  0  0  0  0  0  0  0  0  0
    2.8187    2.7905   -6.6051 H   0  0  0  0  0  0  0  0  0  0  0  0
    0.1459    2.0161   -8.9095 H   0  0  0  0  0  0  0  0  0  0  0  0
   -3.9171   -1.2915    6.8369 H   0  0  0  0  0  0  0  0  0  0  0  0
   -2.1777   -0.9353    7.1676 H   0  0  0  0  0  0  0  0  0  0  0  0
   -1.5242   -3.0015    6.3806 H   0  0  0  0  0  0  0  0  0  0  0  0
   -3.1457   -3.4164    7.1713 H   0  0  0  0  0  0  0  0  0  0  0  0
   -3.0329   -3.1847    5.3750 H   0  0  0  0  0  0  0  0  0  0  0  0
    3.6253   -0.8062   -3.8086 H   0  0  0  0  0  0  0  0  0  0  0  0
    1.3575    0.9464   -1.5032 H   0  0  0  0  0  0  0  0  0  0  0  0
    2.2069    0.3348   -2.7627 H   0  0  0  0  0  0  0  0  0  0  0  0
   -0.3450    0.3411   -2.9525 H   0  0  0  0  0  0  0  0  0  0  0  0
   -0.2772   -1.2995   -2.3759 H   0  0  0  0  0  0  0  0  0  0  0  0
    0.8007   -0.7955   -3.7800 H   0  0  0  0  0  0  0  0  0  0  0  0
   -0.6672    0.3750   -0.6109 H   0  0  0  0  0  0  0  0  0  0  0  0
   -1.2620    0.8546    0.8800 H   0  0  0  0  0  0  0  0  0  0  0  0
    1.5665    1.7698    0.5345 H   0  0  0  0  0  0  0  0  0  0  0  0
    0.0237    2.5668   -0.1143 H   0  0  0  0  0  0  0  0  0  0  0  0
    0.2274    2.2707    1.5949 H   0  0  0  0  0  0  0  0  0  0  0  0
   -5.7712    0.5095    4.2925 H   0  0  0  0  0  0  0  0  0  0  0  0
   -9.1053    2.0862    8.1868 H   0  0  0  0  0  0  0  0  0  0  0  0
   -4.9065    1.5033   10.5131 H   0  0  0  0  0  0  0  0  0  0  0  0
  1  2  2  3
  2  3  1  0
  3  4  2  0
  3  5  1  0
  5  6  2  0
  6  7  1  0
  7  8  2  0
  8  9  1  0
  9 10  2  0
 10 11  1  0
 11 12  2  3
 12 13  1  0
 13 14  3  0
 12 15  1  0
 15 16  3  0
  8 17  1  0
 17 18  1  0
 18 19  1  0
 19 20  2  0
 20 21  1  0
 21 22  1  0
 21 23  1  0
  1 24  1  0
 24 25  1  0
 25 26  1  0
 26 27  1  0
 27 28  1  0
 28 29  1  0
 29 30  2  0
 30 31  1  0
 31 32  1  0
 29 33  1  0
 33 34  1  0
 34 35  1  0
 35 36  1  0
 36 37  1  0
 37 38  1  0
 38 39  1  0
 37 40  2  0
 40 41  1  0
 41 42  1  0
 42 43  1  0
 43 44  1  0
 44 45  1  0
 45 46  1  0
 46 47  1  0
 47 48  1  0
 48 49  1  0
 47 50  1  0
 50 51  1  0
 44 52  1  0
 52 53  1  0
 40 54  1  0
 54 55  2  3
 55 56  1  0
 56 57  2  0
 56 58  1  0
 58 59  2  0
 59 60  1  0
 60 61  1  0
 60 62  2  0
 62 63  1  0
 62 64  1  0
 64 65  2  0
 65 66  1  0
 66 67  2  3
 67 68  1  0
 68 69  3  0
 67 70  1  0
 70 71  3  0
 11  2  1  0
 23 17  1  0
 49 24  2  0
 66 55  1  0
 10  5  1  0
 22 18  1  0
 48 26  2  0
 65 58  1  0
 23  7  1  0
 46 27  2  0
 32 28  2  0
 45 33  2  0
 43 34  2  0
 42 36  2  0
  1 72  1  0
  6 73  1  0
  9 74  1  0
 17 75  1  0
 18 76  1  0
 19 77  1  0
 20 78  1  0
 21 79  1  0
 22 80  1  0
 22 81  1  0
 23 82  1  0
 38 83  1  0
 38 84  1  0
 39 85  1  0
 39 86  1  0
 39 87  1  0
 49 88  1  0
 50 89  1  0
 50 90  1  0
 51 91  1  0
 51 92  1  0
 51 93  1  0
 52 94  1  0
 52 95  1  0
 53 96  1  0
 53 97  1  0
 53 98  1  0
 54 99  1  0
 59100  1  0
 64101  1  0
M  END

