
     RDKit          3D

102116  0  0  0  0  0  0  0  0999 V2000
    4.5937   -5.9815   -1.4252 C   0  0  0  0  0  0  0  0  0  0  0  0
    4.3006   -5.3368   -2.5724 C   0  0  0  0  0  0  0  0  0  0  0  0
    2.9084   -5.2674   -3.0620 C   0  0  0  0  0  0  0  0  0  0  0  0
    1.9267   -5.9342   -2.6727 O   0  0  0  0  0  0  0  0  0  0  0  0
    2.8350   -4.2702   -4.1058 C   0  0  0  0  0  0  0  0  0  0  0  0
    1.7070   -3.8457   -4.8563 C   0  0  0  0  0  0  0  0  0  0  0  0
    1.8943   -2.8399   -5.7707 C   0  0  0  0  0  0  0  0  0  0  0  0
    3.0899   -2.2842   -5.9276 C   0  0  0  0  0  0  0  0  0  0  0  0
    4.2186   -2.6637   -5.2396 C   0  0  0  0  0  0  0  0  0  0  0  0
    4.0427   -3.7067   -4.3080 C   0  0  0  0  0  0  0  0  0  0  0  0
    5.0160   -4.3394   -3.3619 C   0  0  0  0  0  0  0  0  0  0  0  0
    6.1985   -3.8008   -3.0868 C   0  0  0  0  0  0  0  0  0  0  0  0
    6.7547   -4.4120   -1.6243 C   0  0  0  0  0  0  0  0  0  0  0  0
    6.9601   -4.6481   -1.0659 N   0  0  0  0  0  0  0  0  0  0  0  0
    6.9172   -2.8847   -3.7462 C   0  0  0  0  0  0  0  0  0  0  0  0
    7.5286   -2.0902   -4.2950 N   0  0  0  0  0  0  0  0  0  0  0  0
    2.4530   -1.2161   -6.7727 C   0  0  0  0  0  0  0  0  0  0  0  0
    1.7552   -0.1348   -5.9431 C   0  0  0  0  0  0  0  0  0  0  0  0
    1.0783   -0.7571   -4.7984 C   0  0  0  0  0  0  0  0  0  0  0  0
   -0.0856   -1.3105   -5.1573 C   0  0  0  0  0  0  0  0  0  0  0  0
    0.0092   -1.3600   -6.6458 C   0  0  0  0  0  0  0  0  0  0  0  0
    0.5168    0.0814   -6.8580 C   0  0  0  0  0  0  0  0  0  0  0  0
    1.2361   -2.1334   -6.9543 C   0  0  0  0  0  0  0  0  0  0  0  0
    3.3494   -6.4832   -0.7494 C   0  0  0  0  0  0  0  0  0  0  0  0
    2.3604   -6.8500   -0.2129 C   0  0  0  0  0  0  0  0  0  0  0  0
    1.2648   -6.3741    0.4696 C   0  0  0  0  0  0  0  0  0  0  0  0
   -0.3295   -6.7755    1.1218 S   0  0  0  0  0  0  0  0  0  0  0  0
   -0.9161   -5.2186    1.5228 C   0  0  0  0  0  0  0  0  0  0  0  0
   -1.9474   -4.3734    1.9276 C   0  0  0  0  0  0  0  0  0  0  0  0
   -3.2499   -4.5140    2.3735 C   0  0  0  0  0  0  0  0  0  0  0  0
   -4.0358   -3.4304    2.6705 C   0  0  0  0  0  0  0  0  0  0  0  0
   -5.2826   -3.7249    3.0591 N   0  0  0  0  0  0  0  0  0  0  0  0
   -5.3695   -5.3727    3.0288 S   0  0  0  0  0  0  0  0  0  0  0  0
   -3.8512   -5.7096    2.5103 N   0  0  0  0  0  0  0  0  0  0  0  0
   -3.5004   -2.1426    2.4688 C   0  0  0  0  0  0  0  0  0  0  0  0
   -4.1215   -0.9012    2.4162 C   0  0  0  0  0  0  0  0  0  0  0  0
   -3.2499   -0.0113    1.9102 C   0  0  0  0  0  0  0  0  0  0  0  0
   -2.0263   -0.6539    1.6382 N   0  0  0  0  0  0  0  0  0  0  0  0
   -1.0031   -0.0050    0.8432 C   0  0  0  0  0  0  0  0  0  0  0  0
   -1.3258   -0.2361   -0.6475 C   0  0  0  0  0  0  0  0  0  0  0  0
   -2.2343   -1.9281    2.0126 C   0  0  0  0  0  0  0  0  0  0  0  0
   -1.4619   -3.0712    1.7823 C   0  0  0  0  0  0  0  0  0  0  0  0
   -0.2473   -3.1573    1.3672 N   0  0  0  0  0  0  0  0  0  0  0  0
    0.1236   -4.4488    1.1660 C   0  0  0  0  0  0  0  0  0  0  0  0
    1.2065   -5.0726    0.6358 C   0  0  0  0  0  0  0  0  0  0  0  0
    2.7346   -4.4038   -0.1768 Se  0  0  0  0  0  2  0  0  0  0  0  0
    0.8178   -2.1365    1.6560 C   0  0  0  0  0  0  0  0  0  0  0  0
    1.7137   -2.7460    2.8066 C   0  0  0  0  0  0  0  0  0  0  0  0
   -3.6765    1.2620    1.7481 C   0  0  0  0  0  0  0  0  0  0  0  0
   -4.9965    1.6182    2.1245 C   0  0  0  0  0  0  0  0  0  0  0  0
   -5.5175    0.0806    2.6782 S   0  0  0  0  0  0  0  0  0  0  0  0
   -4.9296    2.8919    1.7446 C   0  0  0  0  0  0  0  0  0  0  0  0
   -4.9835    3.9769    1.4624 C   0  0  0  0  0  0  0  0  0  0  0  0
   -2.8943    2.9053    1.0152 Se  0  0  0  0  0  2  0  0  0  0  0  0
   -4.4482    5.3116    1.0392 C   0  0  0  0  0  0  0  0  0  0  0  0
   -3.4733    5.8169    1.8072 C   0  0  0  0  0  0  0  0  0  0  0  0
   -2.9851    5.1218    3.0378 C   0  0  0  0  0  0  0  0  0  0  0  0
   -3.4773    4.1512    3.5684 O   0  0  0  0  0  0  0  0  0  0  0  0
   -1.7732    5.8771    3.4759 C   0  0  0  0  0  0  0  0  0  0  0  0
   -0.9583    5.5109    4.5305 C   0  0  0  0  0  0  0  0  0  0  0  0
    0.2272    6.2897    4.7357 C   0  0  0  0  0  0  0  0  0  0  0  0
    0.4640    7.2951    3.9071 C   0  0  0  0  0  0  0  0  0  0  0  0
    1.6512    8.0751    4.0914 O   0  0  0  0  0  0  0  0  0  0  0  0
    2.5852    7.7786    5.1062 C   0  0  0  0  0  0  0  0  0  0  0  0
   -0.3660    7.6535    2.8587 C   0  0  0  0  0  0  0  0  0  0  0  0
   -1.5443    6.8953    2.6314 C   0  0  0  0  0  0  0  0  0  0  0  0
   -2.5897    6.8844    1.5635 C   0  0  0  0  0  0  0  0  0  0  0  0
   -2.3466    7.5030    0.4119 C   0  0  0  0  0  0  0  0  0  0  0  0
   -3.0279    7.0615   -0.8390 C   0  0  0  0  0  0  0  0  0  0  0  0
   -3.6000    6.6998   -1.8476 N   0  0  0  0  0  0  0  0  0  0  0  0
   -1.3492    8.4420    0.1537 C   0  0  0  0  0  0  0  0  0  0  0  0
   -0.4667    9.2480   -0.0737 N   0  0  0  0  0  0  0  0  0  0  0  0
    5.4789   -6.2135   -0.9873 H   0  0  0  0  0  0  0  0  0  0  0  0
    0.7881   -4.3187   -4.6683 H   0  0  0  0  0  0  0  0  0  0  0  0
    5.1377   -2.2154   -5.4096 H   0  0  0  0  0  0  0  0  0  0  0  0
    2.9904   -0.8721   -7.6372 H   0  0  0  0  0  0  0  0  0  0  0  0
    2.3240    0.7598   -5.7777 H   0  0  0  0  0  0  0  0  0  0  0  0
    1.3989   -0.8116   -3.7471 H   0  0  0  0  0  0  0  0  0  0  0  0
   -0.9481   -1.6316   -4.5996 H   0  0  0  0  0  0  0  0  0  0  0  0
   -0.8987   -1.6347   -7.1449 H   0  0  0  0  0  0  0  0  0  0  0  0
    0.8374    0.2596   -7.8876 H   0  0  0  0  0  0  0  0  0  0  0  0
   -0.1603    0.7893   -6.4420 H   0  0  0  0  0  0  0  0  0  0  0  0
    1.2661   -2.7419   -7.8747 H   0  0  0  0  0  0  0  0  0  0  0  0
    2.3133   -8.0721   -0.3761 H   0  0  0  0  0  0  0  0  0  0  0  0
   -1.1654    1.1298    0.9926 H   0  0  0  0  0  0  0  0  0  0  0  0
   -0.0060   -0.0788    0.9148 H   0  0  0  0  0  0  0  0  0  0  0  0
   -2.4424   -0.0848   -0.7983 H   0  0  0  0  0  0  0  0  0  0  0  0
   -0.7226    0.4517   -1.2331 H   0  0  0  0  0  0  0  0  0  0  0  0
   -1.1310   -1.2683   -0.9356 H   0  0  0  0  0  0  0  0  0  0  0  0
    0.3675   -1.3360    2.2887 H   0  0  0  0  0  0  0  0  0  0  0  0
    1.4249   -1.9323    0.8370 H   0  0  0  0  0  0  0  0  0  0  0  0
    2.1477   -3.6767    2.5327 H   0  0  0  0  0  0  0  0  0  0  0  0
    1.0094   -2.7707    3.7002 H   0  0  0  0  0  0  0  0  0  0  0  0
    2.4814   -1.9686    3.0703 H   0  0  0  0  0  0  0  0  0  0  0  0
   -6.3567    3.0858    2.1743 H   0  0  0  0  0  0  0  0  0  0  0  0
   -4.8481    5.7701    0.2119 H   0  0  0  0  0  0  0  0  0  0  0  0
   -1.1344    4.7075    5.1829 H   0  0  0  0  0  0  0  0  0  0  0  0
    0.8636    5.9788    5.5606 H   0  0  0  0  0  0  0  0  0  0  0  0
    2.4272    8.2860    6.0551 H   0  0  0  0  0  0  0  0  0  0  0  0
    2.6650    6.6761    5.3244 H   0  0  0  0  0  0  0  0  0  0  0  0
    3.6032    8.0932    4.6774 H   0  0  0  0  0  0  0  0  0  0  0  0
   -0.1065    8.4792    2.2778 H   0  0  0  0  0  0  0  0  0  0  0  0
  1  2  2  3
  2  3  1  0
  3  4  2  0
  3  5  1  0
  5  6  2  0
  6  7  1  0
  7  8  2  0
  8  9  1  0
  9 10  2  0
 10 11  1  0
 11 12  2  3
 12 13  1  0
 13 14  3  0
 12 15  1  0
 15 16  3  0
  8 17  1  0
 17 18  1  0
 18 19  1  0
 19 20  2  0
 20 21  1  0
 21 22  1  0
 21 23  1  0
  1 24  1  0
 24 25  2  0
 25 26  1  0
 26 27  1  0
 27 28  1  0
 28 29  1  0
 29 30  1  0
 30 31  1  0
 31 32  2  0
 32 33  1  0
 33 34  1  0
 31 35  1  0
 35 36  1  0
 36 37  2  0
 37 38  1  0
 38 39  1  0
 39 40  1  0
 38 41  1  0
 41 42  1  0
 42 43  1  0
 43 44  1  0
 44 45  1  0
 45 46  1  0
 43 47  1  0
 47 48  1  0
 37 49  1  0
 49 50  2  0
 50 51  1  0
 50 52  1  0
 52 53  2  0
 53 54  1  0
 53 55  1  0
 55 56  2  3
 56 57  1  0
 57 58  2  0
 57 59  1  0
 59 60  2  0
 60 61  1  0
 61 62  2  0
 62 63  1  0
 63 64  1  0
 62 65  1  0
 65 66  2  0
 66 67  1  0
 67 68  2  3
 68 69  1  0
 69 70  3  0
 68 71  1  0
 71 72  3  0
 11  2  1  0
 23 17  1  0
 46 24  1  0
 54 49  1  0
 67 56  1  0
 10  5  1  0
 22 18  1  0
 45 26  2  0
 66 59  1  0
 23  7  1  0
 44 28  2  0
 42 29  2  0
 34 30  2  0
 41 35  2  0
 51 36  1  0
  1 73  1  0
  6 74  1  0
  9 75  1  0
 17 76  1  0
 18 77  1  0
 19 78  1  0
 20 79  1  0
 21 80  1  0
 22 81  1  0
 22 82  1  0
 23 83  1  0
 25 84  1  0
 39 85  1  0
 39 86  1  0
 40 87  1  0
 40 88  1  0
 40 89  1  0
 47 90  1  0
 47 91  1  0
 48 92  1  0
 48 93  1  0
 48 94  1  0
 52 95  1  0
 55 96  1  0
 60 97  1  0
 61 98  1  0
 64 99  1  0
 64100  1  0
 64101  1  0
 65102  1  0
M  END

