
     RDKit          3D

135151  0  0  0  0  0  0  0  0999 V2000
   -3.9689   -1.0072    5.7402 C   0  0  0  0  0  0  0  0  0  0  0  0
   -4.1309    0.3094    5.4993 C   0  0  0  0  0  0  0  0  0  0  0  0
   -3.7758    0.9902    4.2444 C   0  0  0  0  0  0  0  0  0  0  0  0
   -3.1347    0.5005    3.2776 O   0  0  0  0  0  0  0  0  0  0  0  0
   -4.3709    2.3031    4.2402 C   0  0  0  0  0  0  0  0  0  0  0  0
   -4.3661    3.2290    3.1741 C   0  0  0  0  0  0  0  0  0  0  0  0
   -5.1219    4.3591    3.4101 C   0  0  0  0  0  0  0  0  0  0  0  0
   -5.8518    4.5735    4.6241 C   0  0  0  0  0  0  0  0  0  0  0  0
   -5.8658    3.6669    5.6716 C   0  0  0  0  0  0  0  0  0  0  0  0
   -5.0711    2.5016    5.4577 C   0  0  0  0  0  0  0  0  0  0  0  0
   -4.8690    1.3115    6.3366 C   0  0  0  0  0  0  0  0  0  0  0  0
   -5.0832    1.2518    7.6795 C   0  0  0  0  0  0  0  0  0  0  0  0
   -5.5960    2.3671    8.4303 C   0  0  0  0  0  0  0  0  0  0  0  0
   -5.9987    3.2579    9.0488 N   0  0  0  0  0  0  0  0  0  0  0  0
   -4.6607    0.1351    8.4824 C   0  0  0  0  0  0  0  0  0  0  0  0
   -4.3271   -0.7590    9.1392 N   0  0  0  0  0  0  0  0  0  0  0  0
   -6.3566    5.8863    4.1060 C   0  0  0  0  0  0  0  0  0  0  0  0
   -5.7011    7.1674    4.6979 C   0  0  0  0  0  0  0  0  0  0  0  0
   -6.0738    8.2925    3.7616 C   0  0  0  0  0  0  0  0  0  0  0  0
   -5.3899    8.0896    2.6288 C   0  0  0  0  0  0  0  0  0  0  0  0
   -4.5791    6.8352    2.8401 C   0  0  0  0  0  0  0  0  0  0  0  0
   -4.2394    7.0208    4.3096 C   0  0  0  0  0  0  0  0  0  0  0  0
   -5.6083    5.6659    2.8632 C   0  0  0  0  0  0  0  0  0  0  0  0
   -3.1961   -1.8732    4.8385 C   0  0  0  0  0  0  0  0  0  0  0  0
   -3.7277   -2.5719    3.7420 C   0  0  0  0  0  0  0  0  0  0  0  0
   -5.2002   -2.7060    3.4571 C   0  0  0  0  0  0  0  0  0  0  0  0
   -5.8271   -3.7684    4.3506 C   0  0  0  0  0  0  0  0  0  0  0  0
   -2.7121   -2.9692    2.8627 C   0  0  0  0  0  0  0  0  0  0  0  0
   -2.7567   -3.3917    1.2186 S   0  0  0  0  0  0  0  0  0  0  0  0
   -1.0883   -3.1352    1.0370 C   0  0  0  0  0  0  0  0  0  0  0  0
   -0.3474   -2.6369   -0.0042 C   0  0  0  0  0  0  0  0  0  0  0  0
   -0.7301   -2.4357   -1.3444 C   0  0  0  0  0  0  0  0  0  0  0  0
   -1.8103   -3.0531   -1.8890 N   0  0  0  0  0  0  0  0  0  0  0  0
   -2.2014   -2.8105   -3.1699 C   0  0  0  0  0  0  0  0  0  0  0  0
   -3.4196   -3.4757   -3.6612 C   0  0  0  0  0  0  0  0  0  0  0  0
   -3.7482   -5.1181   -3.4993 S   0  0  0  0  0  0  0  0  0  0  0  0
   -5.2346   -5.0789   -4.2869 C   0  0  0  0  0  0  0  0  0  0  0  0
   -6.0714   -6.2772   -4.6137 C   0  0  0  0  0  0  0  0  0  0  0  0
   -5.6647   -6.8654   -5.9599 C   0  0  0  0  0  0  0  0  0  0  0  0
   -5.4911   -3.7695   -4.6812 C   0  0  0  0  0  0  0  0  0  0  0  0
   -4.4878   -2.8682   -4.3184 C   0  0  0  0  0  0  0  0  0  0  0  0
   -6.6038   -3.4004   -5.3632 F   0  0  0  0  0  0  0  0  0  0  0  0
   -1.4566   -1.8933   -3.9555 C   0  0  0  0  0  0  0  0  0  0  0  0
   -1.7899   -1.5757   -5.3550 C   0  0  0  0  0  0  0  0  0  0  0  0
   -2.1286   -2.4796   -6.3599 C   0  0  0  0  0  0  0  0  0  0  0  0
   -2.4493   -1.8534   -7.5685 C   0  0  0  0  0  0  0  0  0  0  0  0
   -2.8688   -2.5385   -8.6620 F   0  0  0  0  0  0  0  0  0  0  0  0
   -2.3389   -0.4689   -7.5285 C   0  0  0  0  0  0  0  0  0  0  0  0
   -2.7609    0.4810   -8.6068 C   0  0  0  0  0  0  0  0  0  0  0  0
   -4.2456    0.8089   -8.4727 C   0  0  0  0  0  0  0  0  0  0  0  0
   -1.8587   -0.0162   -5.9819 S   0  0  0  0  0  0  0  0  0  0  0  0
   -0.3807   -1.2720   -3.4023 N   0  0  0  0  0  0  0  0  0  0  0  0
    0.0033   -1.5203   -2.1273 C   0  0  0  0  0  0  0  0  0  0  0  0
    1.1124   -0.8940   -1.5529 C   0  0  0  0  0  0  0  0  0  0  0  0
    2.0547   -0.0711   -2.0924 C   0  0  0  0  0  0  0  0  0  0  0  0
    2.4536    0.5757   -3.6104 S   0  0  0  0  0  0  0  0  0  0  0  0
    3.9553    1.1100   -2.9991 C   0  0  0  0  0  0  0  0  0  0  0  0
    5.0191    1.8092   -3.5705 C   0  0  0  0  0  0  0  0  0  0  0  0
    5.0614    2.2244   -5.0168 C   0  0  0  0  0  0  0  0  0  0  0  0
    5.6921    1.1305   -5.8690 C   0  0  0  0  0  0  0  0  0  0  0  0
    6.0699    1.9663   -2.6448 C   0  0  0  0  0  0  0  0  0  0  0  0
    5.6174    1.2904   -1.1407 S   0  0  0  0  0  0  0  0  0  0  0  0
    4.1280    0.7545   -1.6849 C   0  0  0  0  0  0  0  0  0  0  0  0
    3.0274    0.0913   -1.1634 C   0  0  0  0  0  0  0  0  0  0  0  0
    2.7863   -0.5955   -0.0161 N   0  0  0  0  0  0  0  0  0  0  0  0
    3.8395   -1.1561    0.8399 C   0  0  0  0  0  0  0  0  0  0  0  0
    4.4653   -0.0975    1.7521 C   0  0  0  0  0  0  0  0  0  0  0  0
    1.5476   -1.1479   -0.2473 C   0  0  0  0  0  0  0  0  0  0  0  0
    0.7368   -1.9625    0.5816 C   0  0  0  0  0  0  0  0  0  0  0  0
    0.6122   -1.9501    1.9459 N   0  0  0  0  0  0  0  0  0  0  0  0
   -0.5118   -2.6779    2.1876 C   0  0  0  0  0  0  0  0  0  0  0  0
   -1.4404   -2.5977    3.2300 C   0  0  0  0  0  0  0  0  0  0  0  0
   -1.5077   -1.7473    4.6757 S   0  0  0  0  0  0  0  0  0  0  0  0
    1.2185   -1.0055    2.8964 C   0  0  0  0  0  0  0  0  0  0  0  0
    1.9729   -1.7518    3.9949 C   0  0  0  0  0  0  0  0  0  0  0  0
    7.2881    2.7616   -2.8840 C   0  0  0  0  0  0  0  0  0  0  0  0
    8.5161    2.4340   -2.4595 C   0  0  0  0  0  0  0  0  0  0  0  0
    9.7145    3.2622   -2.6414 C   0  0  0  0  0  0  0  0  0  0  0  0
    9.7571    4.3942   -3.1922 O   0  0  0  0  0  0  0  0  0  0  0  0
   10.8543    2.5522   -2.0717 C   0  0  0  0  0  0  0  0  0  0  0  0
   12.1926    2.9373   -2.0009 C   0  0  0  0  0  0  0  0  0  0  0  0
   13.1050    2.0570   -1.3951 C   0  0  0  0  0  0  0  0  0  0  0  0
   12.6686    0.8205   -0.8793 C   0  0  0  0  0  0  0  0  0  0  0  0
   11.3162    0.4500   -0.9675 C   0  0  0  0  0  0  0  0  0  0  0  0
   10.4267    1.3395   -1.5693 C   0  0  0  0  0  0  0  0  0  0  0  0
    8.9914    1.2021   -1.8022 C   0  0  0  0  0  0  0  0  0  0  0  0
    8.3190    0.1647   -1.5663 O   0  0  0  0  0  0  0  0  0  0  0  0
   -4.4515   -1.4874    6.5735 H   0  0  0  0  0  0  0  0  0  0  0  0
   -3.8398    3.0605    2.2440 H   0  0  0  0  0  0  0  0  0  0  0  0
   -6.4763    3.8409    6.5407 H   0  0  0  0  0  0  0  0  0  0  0  0
   -7.4615    5.9235    3.9827 H   0  0  0  0  0  0  0  0  0  0  0  0
   -5.9028    7.3564    5.7740 H   0  0  0  0  0  0  0  0  0  0  0  0
   -6.6978    9.1529    3.9817 H   0  0  0  0  0  0  0  0  0  0  0  0
   -5.3617    8.7539    1.7717 H   0  0  0  0  0  0  0  0  0  0  0  0
   -3.7170    6.7039    2.1523 H   0  0  0  0  0  0  0  0  0  0  0  0
   -3.6336    7.9369    4.5092 H   0  0  0  0  0  0  0  0  0  0  0  0
   -3.7275    6.1476    4.7728 H   0  0  0  0  0  0  0  0  0  0  0  0
   -6.2382    5.5596    1.9531 H   0  0  0  0  0  0  0  0  0  0  0  0
   -5.7015   -1.7297    3.6311 H   0  0  0  0  0  0  0  0  0  0  0  0
   -5.3668   -2.9827    2.3961 H   0  0  0  0  0  0  0  0  0  0  0  0
   -6.9221   -3.8054    4.1760 H   0  0  0  0  0  0  0  0  0  0  0  0
   -5.3938   -4.7662    4.1159 H   0  0  0  0  0  0  0  0  0  0  0  0
   -5.6469   -3.5353    5.4215 H   0  0  0  0  0  0  0  0  0  0  0  0
   -7.1436   -5.9919   -4.6403 H   0  0  0  0  0  0  0  0  0  0  0  0
   -5.9331   -7.0475   -3.8228 H   0  0  0  0  0  0  0  0  0  0  0  0
   -6.2807   -7.7642   -6.1762 H   0  0  0  0  0  0  0  0  0  0  0  0
   -4.5944   -7.1632   -5.9453 H   0  0  0  0  0  0  0  0  0  0  0  0
   -5.8244   -6.1209   -6.7687 H   0  0  0  0  0  0  0  0  0  0  0  0
   -4.5363   -1.8079   -4.5356 H   0  0  0  0  0  0  0  0  0  0  0  0
   -2.1610   -3.5522   -6.2209 H   0  0  0  0  0  0  0  0  0  0  0  0
   -2.1702    1.4185   -8.5225 H   0  0  0  0  0  0  0  0  0  0  0  0
   -2.5665    0.0333   -9.6051 H   0  0  0  0  0  0  0  0  0  0  0  0
   -4.4602    1.2403   -7.4702 H   0  0  0  0  0  0  0  0  0  0  0  0
   -4.5335    1.5521   -9.2456 H   0  0  0  0  0  0  0  0  0  0  0  0
   -4.8568   -0.1091   -8.6126 H   0  0  0  0  0  0  0  0  0  0  0  0
    4.0292    2.4189   -5.3798 H   0  0  0  0  0  0  0  0  0  0  0  0
    5.6330    3.1675   -5.1378 H   0  0  0  0  0  0  0  0  0  0  0  0
    6.7473    0.9687   -5.5646 H   0  0  0  0  0  0  0  0  0  0  0  0
    5.1288    0.1807   -5.7574 H   0  0  0  0  0  0  0  0  0  0  0  0
    5.6721    1.4315   -6.9369 H   0  0  0  0  0  0  0  0  0  0  0  0
    3.4351   -1.9880    1.4470 H   0  0  0  0  0  0  0  0  0  0  0  0
    4.6295   -1.6079    0.2005 H   0  0  0  0  0  0  0  0  0  0  0  0
    4.5032   -0.4718    2.7977 H   0  0  0  0  0  0  0  0  0  0  0  0
    5.5087    0.1185    1.4418 H   0  0  0  0  0  0  0  0  0  0  0  0
    3.8853    0.8515    1.7373 H   0  0  0  0  0  0  0  0  0  0  0  0
    0.4338   -0.3644    3.3396 H   0  0  0  0  0  0  0  0  0  0  0  0
    1.8864   -0.2976    2.3849 H   0  0  0  0  0  0  0  0  0  0  0  0
    1.2819   -2.3810    4.5907 H   0  0  0  0  0  0  0  0  0  0  0  0
    2.7497   -2.4144    3.5646 H   0  0  0  0  0  0  0  0  0  0  0  0
    2.4705   -1.0276    4.6762 H   0  0  0  0  0  0  0  0  0  0  0  0
    7.1723    3.6816   -3.4436 H   0  0  0  0  0  0  0  0  0  0  0  0
   12.5199    3.8907   -2.3988 H   0  0  0  0  0  0  0  0  0  0  0  0
   14.1498    2.3321   -1.3246 H   0  0  0  0  0  0  0  0  0  0  0  0
   13.3797    0.1515   -0.4111 H   0  0  0  0  0  0  0  0  0  0  0  0
   10.9761   -0.4985   -0.5724 H   0  0  0  0  0  0  0  0  0  0  0  0
  1  2  2  3
  2  3  1  0
  3  4  2  0
  3  5  1  0
  5  6  2  0
  6  7  1  0
  7  8  2  0
  8  9  1  0
  9 10  2  0
 10 11  1  0
 11 12  2  3
 12 13  1  0
 13 14  3  0
 12 15  1  0
 15 16  3  0
  8 17  1  0
 17 18  1  0
 18 19  1  0
 19 20  2  0
 20 21  1  0
 21 22  1  0
 21 23  1  0
  1 24  1  0
 24 25  2  0
 25 26  1  0
 26 27  1  0
 25 28  1  0
 28 29  1  0
 29 30  1  0
 30 31  1  0
 31 32  2  0
 32 33  1  0
 33 34  2  0
 34 35  1  0
 35 36  1  0
 36 37  1  0
 37 38  1  0
 38 39  1  0
 37 40  2  0
 40 41  1  0
 40 42  1  0
 34 43  1  0
 43 44  1  0
 44 45  2  0
 45 46  1  0
 46 47  1  0
 46 48  2  0
 48 49  1  0
 49 50  1  0
 48 51  1  0
 43 52  2  0
 52 53  1  0
 53 54  2  0
 54 55  1  0
 55 56  1  0
 56 57  1  0
 57 58  1  0
 58 59  1  0
 59 60  1  0
 58 61  2  0
 61 62  1  0
 62 63  1  0
 63 64  1  0
 64 65  1  0
 65 66  1  0
 66 67  1  0
 65 68  1  0
 68 69  2  0
 69 70  1  0
 70 71  1  0
 71 72  1  0
 72 73  1  0
 70 74  1  0
 74 75  1  0
 61 76  1  0
 76 77  2  3
 77 78  1  0
 78 79  2  0
 78 80  1  0
 80 81  2  0
 81 82  1  0
 82 83  2  0
 83 84  1  0
 84 85  2  0
 85 86  1  0
 86 87  2  0
 11  2  1  0
 23 17  1  0
 73 24  1  0
 86 77  1  0
 10  5  1  0
 22 18  1  0
 72 28  2  0
 85 80  1  0
 23  7  1  0
 71 30  2  0
 69 31  1  0
 53 32  1  0
 68 54  1  0
 41 35  2  0
 51 44  1  0
 64 55  2  0
 63 57  2  0
  1 88  1  0
  6 89  1  0
  9 90  1  0
 17 91  1  0
 18 92  1  0
 19 93  1  0
 20 94  1  0
 21 95  1  0
 22 96  1  0
 22 97  1  0
 23 98  1  0
 26 99  1  0
 26100  1  0
 27101  1  0
 27102  1  0
 27103  1  0
 38104  1  0
 38105  1  0
 39106  1  0
 39107  1  0
 39108  1  0
 41109  1  0
 45110  1  0
 49111  1  0
 49112  1  0
 50113  1  0
 50114  1  0
 50115  1  0
 59116  1  0
 59117  1  0
 60118  1  0
 60119  1  0
 60120  1  0
 66121  1  0
 66122  1  0
 67123  1  0
 67124  1  0
 67125  1  0
 74126  1  0
 74127  1  0
 75128  1  0
 75129  1  0
 75130  1  0
 76131  1  0
 81132  1  0
 82133  1  0
 83134  1  0
 84135  1  0
M  END

