
     RDKit          3D

130146  0  0  0  0  0  0  0  0999 V2000
   -5.1883    4.8182   -3.5373 C   0  0  0  0  0  0  0  0  0  0  0  0
   -4.5625    5.8580   -2.9535 C   0  0  0  0  0  0  0  0  0  0  0  0
   -3.0980    5.9800   -2.9834 C   0  0  0  0  0  0  0  0  0  0  0  0
   -2.3661    5.7242   -3.9791 O   0  0  0  0  0  0  0  0  0  0  0  0
   -2.6195    6.3432   -1.6711 C   0  0  0  0  0  0  0  0  0  0  0  0
   -1.2796    6.3085   -1.2247 C   0  0  0  0  0  0  0  0  0  0  0  0
   -1.1441    6.4539    0.1432 C   0  0  0  0  0  0  0  0  0  0  0  0
   -2.2589    6.6195    1.0297 C   0  0  0  0  0  0  0  0  0  0  0  0
   -3.5760    6.6626    0.5944 C   0  0  0  0  0  0  0  0  0  0  0  0
   -3.7350    6.5358   -0.8172 C   0  0  0  0  0  0  0  0  0  0  0  0
   -4.9815    6.3921   -1.6216 C   0  0  0  0  0  0  0  0  0  0  0  0
   -6.2322    6.7755   -1.2677 C   0  0  0  0  0  0  0  0  0  0  0  0
   -6.5144    7.3951   -0.0001 C   0  0  0  0  0  0  0  0  0  0  0  0
   -6.7548    7.9000    1.0131 N   0  0  0  0  0  0  0  0  0  0  0  0
   -7.3372    6.6987   -2.1885 C   0  0  0  0  0  0  0  0  0  0  0  0
   -8.2397    6.6390   -2.9142 N   0  0  0  0  0  0  0  0  0  0  0  0
   -1.3340    6.6341    2.2150 C   0  0  0  0  0  0  0  0  0  0  0  0
   -1.0563    8.0005    2.9135 C   0  0  0  0  0  0  0  0  0  0  0  0
   -1.1685    9.1261    1.9089 C   0  0  0  0  0  0  0  0  0  0  0  0
   -0.1408    8.9862    1.0673 C   0  0  0  0  0  0  0  0  0  0  0  0
    0.6394    7.7732    1.5326 C   0  0  0  0  0  0  0  0  0  0  0  0
    0.4562    7.9348    3.0321 C   0  0  0  0  0  0  0  0  0  0  0  0
   -0.1953    6.4758    1.3021 C   0  0  0  0  0  0  0  0  0  0  0  0
   -4.5231    3.5051   -3.5388 C   0  0  0  0  0  0  0  0  0  0  0  0
   -4.4389    2.5707   -4.5882 C   0  0  0  0  0  0  0  0  0  0  0  0
   -4.9540    2.7929   -5.9533 C   0  0  0  0  0  0  0  0  0  0  0  0
   -4.3675    3.8034   -6.7360 C   0  0  0  0  0  0  0  0  0  0  0  0
   -4.8267    4.0509   -8.0311 C   0  0  0  0  0  0  0  0  0  0  0  0
   -5.8828    3.3032   -8.5526 C   0  0  0  0  0  0  0  0  0  0  0  0
   -6.4875    2.3094   -7.7832 C   0  0  0  0  0  0  0  0  0  0  0  0
   -6.0320    2.0348   -6.4802 C   0  0  0  0  0  0  0  0  0  0  0  0
   -6.7895    1.0258   -5.6451 C   0  0  0  0  0  0  0  0  0  0  0  0
   -7.8493    1.7156   -4.7901 C   0  0  0  0  0  0  0  0  0  0  0  0
   -3.7222    1.4354   -4.1769 C   0  0  0  0  0  0  0  0  0  0  0  0
   -3.0567    0.0887   -4.9915 S   0  0  0  0  0  0  0  0  0  0  0  0
   -2.3169   -0.4599   -3.5595 C   0  0  0  0  0  0  0  0  0  0  0  0
   -1.2564   -1.2544   -3.2221 C   0  0  0  0  0  0  0  0  0  0  0  0
   -0.4271   -2.0670   -4.0072 C   0  0  0  0  0  0  0  0  0  0  0  0
    0.7770   -2.5779   -3.4351 C   0  0  0  0  0  0  0  0  0  0  0  0
    1.5325   -3.3895   -4.2126 N   0  0  0  0  0  0  0  0  0  0  0  0
    0.6147   -3.3833   -5.5919 S   0  0  0  0  0  0  0  0  0  0  0  0
   -0.6976   -2.4209   -5.2864 N   0  0  0  0  0  0  0  0  0  0  0  0
    1.0850   -2.2545   -2.1083 C   0  0  0  0  0  0  0  0  0  0  0  0
    2.0248   -2.7617   -1.2528 C   0  0  0  0  0  0  0  0  0  0  0  0
    3.1833   -4.0065   -1.2654 S   0  0  0  0  0  0  0  0  0  0  0  0
    3.2099   -4.0394    0.4406 C   0  0  0  0  0  0  0  0  0  0  0  0
    3.8042   -4.8951    1.3715 C   0  0  0  0  0  0  0  0  0  0  0  0
    4.7935   -5.9323    1.0288 C   0  0  0  0  0  0  0  0  0  0  0  0
    6.1453   -5.8405    1.4521 C   0  0  0  0  0  0  0  0  0  0  0  0
    6.6728   -4.6398    2.2097 C   0  0  0  0  0  0  0  0  0  0  0  0
    7.1613   -3.5624    1.2452 C   0  0  0  0  0  0  0  0  0  0  0  0
    7.0524   -6.8444    1.0691 C   0  0  0  0  0  0  0  0  0  0  0  0
    6.6272   -7.9292    0.2987 C   0  0  0  0  0  0  0  0  0  0  0  0
    5.2974   -8.0204   -0.1107 C   0  0  0  0  0  0  0  0  0  0  0  0
    4.3849   -7.0265    0.2533 C   0  0  0  0  0  0  0  0  0  0  0  0
    3.3022   -4.6713    2.6673 C   0  0  0  0  0  0  0  0  0  0  0  0
    2.1186   -3.4417    2.6084 S   0  0  0  0  0  0  0  0  0  0  0  0
    2.3028   -3.1555    0.9671 C   0  0  0  0  0  0  0  0  0  0  0  0
    1.6506   -2.4009    0.0029 C   0  0  0  0  0  0  0  0  0  0  0  0
    0.5310   -1.6401    0.0236 N   0  0  0  0  0  0  0  0  0  0  0  0
    0.2156   -1.4974   -1.3036 C   0  0  0  0  0  0  0  0  0  0  0  0
   -0.9266   -0.9054   -1.9030 C   0  0  0  0  0  0  0  0  0  0  0  0
   -1.6840    0.1566   -1.4692 N   0  0  0  0  0  0  0  0  0  0  0  0
   -2.5363    0.3711   -2.5080 C   0  0  0  0  0  0  0  0  0  0  0  0
   -3.3180    1.4556   -2.8675 C   0  0  0  0  0  0  0  0  0  0  0  0
   -3.7669    2.8863   -2.1505 S   0  0  0  0  0  0  0  0  0  0  0  0
   -1.2428    1.2103   -0.5439 C   0  0  0  0  0  0  0  0  0  0  0  0
   -2.2345    1.4401    0.6018 C   0  0  0  0  0  0  0  0  0  0  0  0
   -0.3821   -1.5406    1.1681 C   0  0  0  0  0  0  0  0  0  0  0  0
    0.1282   -0.5453    2.2133 C   0  0  0  0  0  0  0  0  0  0  0  0
    3.5121   -5.5775    3.8138 C   0  0  0  0  0  0  0  0  0  0  0  0
    3.6100   -5.1754    5.0962 C   0  0  0  0  0  0  0  0  0  0  0  0
    3.6046   -3.7867    5.5705 C   0  0  0  0  0  0  0  0  0  0  0  0
    3.9262   -2.7668    4.9055 O   0  0  0  0  0  0  0  0  0  0  0  0
    3.2542   -3.7885    6.9752 C   0  0  0  0  0  0  0  0  0  0  0  0
    3.0404   -2.6955    7.8153 C   0  0  0  0  0  0  0  0  0  0  0  0
    2.6455   -2.9401    9.1390 C   0  0  0  0  0  0  0  0  0  0  0  0
    2.4400   -1.9074    9.9881 F   0  0  0  0  0  0  0  0  0  0  0  0
    2.4489   -4.2586    9.5855 C   0  0  0  0  0  0  0  0  0  0  0  0
    2.6798   -5.3422    8.7255 C   0  0  0  0  0  0  0  0  0  0  0  0
    3.1253   -5.0939    7.4170 C   0  0  0  0  0  0  0  0  0  0  0  0
    3.4758   -6.0340    6.3125 C   0  0  0  0  0  0  0  0  0  0  0  0
    3.8211   -7.3433    6.4373 C   0  0  0  0  0  0  0  0  0  0  0  0
    3.7099   -8.0567    7.6861 C   0  0  0  0  0  0  0  0  0  0  0  0
    3.6203   -8.6393    8.6846 N   0  0  0  0  0  0  0  0  0  0  0  0
    4.4450   -8.0848    5.3681 C   0  0  0  0  0  0  0  0  0  0  0  0
    4.9544   -8.6856    4.5184 N   0  0  0  0  0  0  0  0  0  0  0  0
   -6.2663    4.7647   -3.5355 H   0  0  0  0  0  0  0  0  0  0  0  0
   -0.4382    6.1189   -1.8750 H   0  0  0  0  0  0  0  0  0  0  0  0
   -4.3895    6.7158    1.3006 H   0  0  0  0  0  0  0  0  0  0  0  0
   -1.4662    5.7696    2.9056 H   0  0  0  0  0  0  0  0  0  0  0  0
   -1.6020    8.1683    3.8659 H   0  0  0  0  0  0  0  0  0  0  0  0
   -1.8898    9.9347    1.9022 H   0  0  0  0  0  0  0  0  0  0  0  0
    0.1166    9.6630    0.2574 H   0  0  0  0  0  0  0  0  0  0  0  0
    1.6930    7.7287    1.1819 H   0  0  0  0  0  0  0  0  0  0  0  0
    0.8198    7.0590    3.6243 H   0  0  0  0  0  0  0  0  0  0  0  0
    0.9120    8.8725    3.4355 H   0  0  0  0  0  0  0  0  0  0  0  0
    0.3646    5.5247    1.4449 H   0  0  0  0  0  0  0  0  0  0  0  0
   -3.5485    4.3918   -6.3421 H   0  0  0  0  0  0  0  0  0  0  0  0
   -4.3689    4.8276   -8.6313 H   0  0  0  0  0  0  0  0  0  0  0  0
   -6.2447    3.5052   -9.5513 H   0  0  0  0  0  0  0  0  0  0  0  0
   -7.3244    1.7637   -8.2030 H   0  0  0  0  0  0  0  0  0  0  0  0
   -7.2901    0.2842   -6.3025 H   0  0  0  0  0  0  0  0  0  0  0  0
   -6.1066    0.4499   -4.9892 H   0  0  0  0  0  0  0  0  0  0  0  0
   -7.3705    2.3771   -4.0376 H   0  0  0  0  0  0  0  0  0  0  0  0
   -8.4514    0.9507   -4.2565 H   0  0  0  0  0  0  0  0  0  0  0  0
   -8.5304    2.3199   -5.4247 H   0  0  0  0  0  0  0  0  0  0  0  0
    7.5133   -4.9442    2.8680 H   0  0  0  0  0  0  0  0  0  0  0  0
    5.9059   -4.2083    2.8757 H   0  0  0  0  0  0  0  0  0  0  0  0
    8.0112   -3.9477    0.6436 H   0  0  0  0  0  0  0  0  0  0  0  0
    7.5054   -2.6762    1.8212 H   0  0  0  0  0  0  0  0  0  0  0  0
    6.3430   -3.2453    0.5658 H   0  0  0  0  0  0  0  0  0  0  0  0
    8.0963   -6.7799    1.3564 H   0  0  0  0  0  0  0  0  0  0  0  0
    7.3349   -8.6948    0.0110 H   0  0  0  0  0  0  0  0  0  0  0  0
    4.9727   -8.8610   -0.7111 H   0  0  0  0  0  0  0  0  0  0  0  0
    3.3568   -7.1089   -0.0769 H   0  0  0  0  0  0  0  0  0  0  0  0
   -1.0985    2.1593   -1.1014 H   0  0  0  0  0  0  0  0  0  0  0  0
   -0.2452    0.9650   -0.1415 H   0  0  0  0  0  0  0  0  0  0  0  0
   -2.5693    0.4968    1.0684 H   0  0  0  0  0  0  0  0  0  0  0  0
   -3.1380    1.9680    0.2572 H   0  0  0  0  0  0  0  0  0  0  0  0
   -1.7499    2.0647    1.3809 H   0  0  0  0  0  0  0  0  0  0  0  0
   -1.3898   -1.2658    0.8212 H   0  0  0  0  0  0  0  0  0  0  0  0
   -0.5113   -2.5394    1.6379 H   0  0  0  0  0  0  0  0  0  0  0  0
    0.6493    0.3144    1.7489 H   0  0  0  0  0  0  0  0  0  0  0  0
    0.8449   -1.0287    2.9056 H   0  0  0  0  0  0  0  0  0  0  0  0
   -0.7204   -0.1650    2.8185 H   0  0  0  0  0  0  0  0  0  0  0  0
    3.4694   -6.6272    3.5787 H   0  0  0  0  0  0  0  0  0  0  0  0
    3.1631   -1.6819    7.4496 H   0  0  0  0  0  0  0  0  0  0  0  0
    2.1142   -4.4392   10.5987 H   0  0  0  0  0  0  0  0  0  0  0  0
    2.4782   -6.3350    9.0866 H   0  0  0  0  0  0  0  0  0  0  0  0
  1  2  2  3
  2  3  1  0
  3  4  2  0
  3  5  1  0
  5  6  2  0
  6  7  1  0
  7  8  2  0
  8  9  1  0
  9 10  2  0
 10 11  1  0
 11 12  2  3
 12 13  1  0
 13 14  3  0
 12 15  1  0
 15 16  3  0
  8 17  1  0
 17 18  1  0
 18 19  1  0
 19 20  2  0
 20 21  1  0
 21 22  1  0
 21 23  1  0
  1 24  1  0
 24 25  2  0
 25 26  1  0
 26 27  2  0
 27 28  1  0
 28 29  2  0
 29 30  1  0
 30 31  2  0
 31 32  1  0
 32 33  1  0
 25 34  1  0
 34 35  1  0
 35 36  1  0
 36 37  1  0
 37 38  1  0
 38 39  1  0
 39 40  2  0
 40 41  1  0
 41 42  1  0
 39 43  1  0
 43 44  1  0
 44 45  1  0
 45 46  1  0
 46 47  1  0
 47 48  1  0
 48 49  2  0
 49 50  1  0
 50 51  1  0
 49 52  1  0
 52 53  2  0
 53 54  1  0
 54 55  2  0
 47 56  2  0
 56 57  1  0
 57 58  1  0
 58 59  1  0
 59 60  1  0
 60 61  1  0
 61 62  1  0
 62 63  1  0
 63 64  1  0
 64 65  1  0
 65 66  1  0
 63 67  1  0
 67 68  1  0
 60 69  1  0
 69 70  1  0
 56 71  1  0
 71 72  2  3
 72 73  1  0
 73 74  2  0
 73 75  1  0
 75 76  2  0
 76 77  1  0
 77 78  1  0
 77 79  2  0
 79 80  1  0
 80 81  2  0
 81 82  1  0
 82 83  2  3
 83 84  1  0
 84 85  3  0
 83 86  1  0
 86 87  3  0
 11  2  1  0
 23 17  1  0
 66 24  1  0
 82 72  1  0
 10  5  1  0
 22 18  1  0
 31 26  1  0
 65 34  2  0
 81 75  1  0
 23  7  1  0
 64 36  2  0
 62 37  2  0
 42 38  2  0
 61 43  2  0
 59 44  2  0
 58 46  2  0
 55 48  1  0
  1 88  1  0
  6 89  1  0
  9 90  1  0
 17 91  1  0
 18 92  1  0
 19 93  1  0
 20 94  1  0
 21 95  1  0
 22 96  1  0
 22 97  1  0
 23 98  1  0
 27 99  1  0
 28100  1  0
 29101  1  0
 30102  1  0
 32103  1  0
 32104  1  0
 33105  1  0
 33106  1  0
 33107  1  0
 50108  1  0
 50109  1  0
 51110  1  0
 51111  1  0
 51112  1  0
 52113  1  0
 53114  1  0
 54115  1  0
 55116  1  0
 67117  1  0
 67118  1  0
 68119  1  0
 68120  1  0
 68121  1  0
 69122  1  0
 69123  1  0
 70124  1  0
 70125  1  0
 70126  1  0
 71127  1  0
 76128  1  0
 79129  1  0
 80130  1  0
M  END

