
     RDKit          3D

110124  0  0  0  0  0  0  0  0999 V2000
    2.3075   -6.3484    0.5579 C   0  0  0  0  0  0  0  0  0  0  0  0
    2.7860   -6.7932   -0.6227 C   0  0  0  0  0  0  0  0  0  0  0  0
    2.6714   -6.0759   -1.9002 C   0  0  0  0  0  0  0  0  0  0  0  0
    2.0342   -5.0088   -2.1052 O   0  0  0  0  0  0  0  0  0  0  0  0
    3.5186   -6.7177   -2.8746 C   0  0  0  0  0  0  0  0  0  0  0  0
    3.7624   -6.2826   -4.1977 C   0  0  0  0  0  0  0  0  0  0  0  0
    4.7051   -7.0360   -4.8686 C   0  0  0  0  0  0  0  0  0  0  0  0
    5.3887   -8.1431   -4.2737 C   0  0  0  0  0  0  0  0  0  0  0  0
    5.1665   -8.5624   -2.9732 C   0  0  0  0  0  0  0  0  0  0  0  0
    4.1695   -7.8242   -2.2705 C   0  0  0  0  0  0  0  0  0  0  0  0
    3.6849   -7.9717   -0.8635 C   0  0  0  0  0  0  0  0  0  0  0  0
    3.8772   -9.0480   -0.0506 C   0  0  0  0  0  0  0  0  0  0  0  0
    3.2963   -9.1585    1.2623 C   0  0  0  0  0  0  0  0  0  0  0  0
    2.8407   -9.2557    2.3255 N   0  0  0  0  0  0  0  0  0  0  0  0
    4.6159  -10.2119   -0.4660 C   0  0  0  0  0  0  0  0  0  0  0  0
    5.2022  -11.1571   -0.7833 N   0  0  0  0  0  0  0  0  0  0  0  0
    6.1785   -8.3520   -5.5324 C   0  0  0  0  0  0  0  0  0  0  0  0
    7.6721   -7.9076   -5.5403 C   0  0  0  0  0  0  0  0  0  0  0  0
    7.8719   -6.7373   -4.6052 C   0  0  0  0  0  0  0  0  0  0  0  0
    7.2335   -5.7031   -5.1530 C   0  0  0  0  0  0  0  0  0  0  0  0
    6.6248   -6.2009   -6.4419 C   0  0  0  0  0  0  0  0  0  0  0  0
    7.7158   -7.1636   -6.8641 C   0  0  0  0  0  0  0  0  0  0  0  0
    5.4816   -7.2168   -6.1389 C   0  0  0  0  0  0  0  0  0  0  0  0
    1.4153   -5.1851    0.6889 C   0  0  0  0  0  0  0  0  0  0  0  0
   -0.1414   -5.0990   -0.0122 S   0  0  0  0  0  0  0  0  0  0  0  0
   -0.3764   -3.5410    0.5400 C   0  0  0  0  0  0  0  0  0  0  0  0
   -1.3169   -2.5606    0.4736 C   0  0  0  0  0  0  0  0  0  0  0  0
   -2.6002   -2.5516   -0.0794 C   0  0  0  0  0  0  0  0  0  0  0  0
   -3.3926   -1.3788    0.0566 C   0  0  0  0  0  0  0  0  0  0  0  0
   -4.6339   -1.4041   -0.4906 N   0  0  0  0  0  0  0  0  0  0  0  0
   -4.6345   -2.9443   -1.1006 S   0  0  0  0  0  0  0  0  0  0  0  0
   -3.1579   -3.6010   -0.7315 N   0  0  0  0  0  0  0  0  0  0  0  0
   -2.8360   -0.2681    0.6986 C   0  0  0  0  0  0  0  0  0  0  0  0
   -3.2820    1.0168    0.7788 C   0  0  0  0  0  0  0  0  0  0  0  0
   -4.5933    1.9392    0.2236 S   0  0  0  0  0  0  0  0  0  0  0  0
   -3.7965    3.3793    0.6708 C   0  0  0  0  0  0  0  0  0  0  0  0
   -4.1303    4.7299    0.5644 C   0  0  0  0  0  0  0  0  0  0  0  0
   -5.4069    5.2400   -0.0438 C   0  0  0  0  0  0  0  0  0  0  0  0
   -5.2246    5.5149   -1.5320 C   0  0  0  0  0  0  0  0  0  0  0  0
   -3.0892    5.5413    1.0501 C   0  0  0  0  0  0  0  0  0  0  0  0
   -1.7798    4.5730    1.5614 S   0  0  0  0  0  0  0  0  0  0  0  0
   -2.5512    3.1282    1.1942 C   0  0  0  0  0  0  0  0  0  0  0  0
   -2.2597    1.7699    1.2498 C   0  0  0  0  0  0  0  0  0  0  0  0
   -1.1364    1.0447    1.4881 N   0  0  0  0  0  0  0  0  0  0  0  0
   -1.5210   -0.2514    1.2048 C   0  0  0  0  0  0  0  0  0  0  0  0
   -0.7745   -1.4701    1.1698 C   0  0  0  0  0  0  0  0  0  0  0  0
    0.4182   -1.8296    1.7602 N   0  0  0  0  0  0  0  0  0  0  0  0
    0.6523   -3.0863    1.2795 C   0  0  0  0  0  0  0  0  0  0  0  0
    1.7226   -3.9967    1.3876 C   0  0  0  0  0  0  0  0  0  0  0  0
    3.0812   -3.7124    1.9793 C   0  0  0  0  0  0  0  0  0  0  0  0
    3.2433   -4.3599    3.3543 C   0  0  0  0  0  0  0  0  0  0  0  0
    1.0096   -1.2998    2.9995 C   0  0  0  0  0  0  0  0  0  0  0  0
   -0.0468   -0.9929    4.0651 C   0  0  0  0  0  0  0  0  0  0  0  0
    0.2106    1.6225    1.5922 C   0  0  0  0  0  0  0  0  0  0  0  0
    1.0754    1.2630    0.3843 C   0  0  0  0  0  0  0  0  0  0  0  0
   -3.0551    7.0099    0.9950 C   0  0  0  0  0  0  0  0  0  0  0  0
   -2.8845    7.7904    2.0765 C   0  0  0  0  0  0  0  0  0  0  0  0
   -2.9644    7.3393    3.4857 C   0  0  0  0  0  0  0  0  0  0  0  0
   -3.0366    6.1530    3.8984 O   0  0  0  0  0  0  0  0  0  0  0  0
   -3.0426    8.5226    4.3152 C   0  0  0  0  0  0  0  0  0  0  0  0
   -2.9928    9.6305    3.5308 C   0  0  0  0  0  0  0  0  0  0  0  0
   -3.1644   11.0296    4.4625 S   0  0  0  0  0  0  0  0  0  0  0  0
   -3.3171   10.1556    5.9123 C   0  0  0  0  0  0  0  0  0  0  0  0
   -3.5252   10.6546    7.1961 C   0  0  0  0  0  0  0  0  0  0  0  0
   -3.6523    9.7380    8.2538 C   0  0  0  0  0  0  0  0  0  0  0  0
   -3.5708    8.3520    8.0134 C   0  0  0  0  0  0  0  0  0  0  0  0
   -3.3616    7.8650    6.7114 C   0  0  0  0  0  0  0  0  0  0  0  0
   -3.2337    8.7838    5.6686 C   0  0  0  0  0  0  0  0  0  0  0  0
   -2.8504    9.2949    2.1054 C   0  0  0  0  0  0  0  0  0  0  0  0
   -2.6154   10.1723    1.1050 C   0  0  0  0  0  0  0  0  0  0  0  0
   -2.2773    9.7547   -0.2298 C   0  0  0  0  0  0  0  0  0  0  0  0
   -1.9996    9.4302   -1.3063 N   0  0  0  0  0  0  0  0  0  0  0  0
   -2.6204   11.5941    1.3420 C   0  0  0  0  0  0  0  0  0  0  0  0
   -2.6278   12.7356    1.5277 N   0  0  0  0  0  0  0  0  0  0  0  0
    2.6307   -6.7871    1.4828 H   0  0  0  0  0  0  0  0  0  0  0  0
    3.2744   -5.4206   -4.6361 H   0  0  0  0  0  0  0  0  0  0  0  0
    5.7583   -9.3582   -2.5559 H   0  0  0  0  0  0  0  0  0  0  0  0
    5.9720   -9.3178   -6.0426 H   0  0  0  0  0  0  0  0  0  0  0  0
    8.4096   -8.7298   -5.4273 H   0  0  0  0  0  0  0  0  0  0  0  0
    8.4874   -6.7068   -3.7153 H   0  0  0  0  0  0  0  0  0  0  0  0
    7.2413   -4.6844   -4.7812 H   0  0  0  0  0  0  0  0  0  0  0  0
    6.3709   -5.4132   -7.1828 H   0  0  0  0  0  0  0  0  0  0  0  0
    7.4415   -7.7945   -7.7426 H   0  0  0  0  0  0  0  0  0  0  0  0
    8.6964   -6.6659   -7.0607 H   0  0  0  0  0  0  0  0  0  0  0  0
    4.8528   -7.4951   -7.0160 H   0  0  0  0  0  0  0  0  0  0  0  0
   -6.2140    4.4912    0.0937 H   0  0  0  0  0  0  0  0  0  0  0  0
   -5.7240    6.1719    0.4694 H   0  0  0  0  0  0  0  0  0  0  0  0
   -6.1791    5.8934   -1.9566 H   0  0  0  0  0  0  0  0  0  0  0  0
   -4.4394    6.2812   -1.6976 H   0  0  0  0  0  0  0  0  0  0  0  0
   -4.9450    4.5815   -2.0650 H   0  0  0  0  0  0  0  0  0  0  0  0
    3.8686   -4.1144    1.3035 H   0  0  0  0  0  0  0  0  0  0  0  0
    3.2630   -2.6200    2.0383 H   0  0  0  0  0  0  0  0  0  0  0  0
    3.3701   -5.4549    3.2491 H   0  0  0  0  0  0  0  0  0  0  0  0
    2.3591   -4.1679    3.9993 H   0  0  0  0  0  0  0  0  0  0  0  0
    4.1500   -3.9492    3.8517 H   0  0  0  0  0  0  0  0  0  0  0  0
    1.6831   -0.4548    2.7876 H   0  0  0  0  0  0  0  0  0  0  0  0
    1.6572   -2.0589    3.4656 H   0  0  0  0  0  0  0  0  0  0  0  0
   -0.7147   -1.8692    4.1931 H   0  0  0  0  0  0  0  0  0  0  0  0
    0.4500   -0.7808    5.0352 H   0  0  0  0  0  0  0  0  0  0  0  0
   -0.6614   -0.1137    3.7983 H   0  0  0  0  0  0  0  0  0  0  0  0
    0.6776    1.3655    2.5520 H   0  0  0  0  0  0  0  0  0  0  0  0
    0.1543    2.7241    1.6230 H   0  0  0  0  0  0  0  0  0  0  0  0
    2.0184    1.8463    0.4139 H   0  0  0  0  0  0  0  0  0  0  0  0
    1.3348    0.1888    0.3784 H   0  0  0  0  0  0  0  0  0  0  0  0
    0.5361    1.5097   -0.5535 H   0  0  0  0  0  0  0  0  0  0  0  0
   -3.2452    7.4517    0.0305 H   0  0  0  0  0  0  0  0  0  0  0  0
   -3.5945   11.7196    7.3760 H   0  0  0  0  0  0  0  0  0  0  0  0
   -3.8150   10.1011    9.2602 H   0  0  0  0  0  0  0  0  0  0  0  0
   -3.6682    7.6587    8.8366 H   0  0  0  0  0  0  0  0  0  0  0  0
   -3.3004    6.8000    6.5299 H   0  0  0  0  0  0  0  0  0  0  0  0
  1  2  2  3
  2  3  1  0
  3  4  2  0
  3  5  1  0
  5  6  2  0
  6  7  1  0
  7  8  2  0
  8  9  1  0
  9 10  2  0
 10 11  1  0
 11 12  2  3
 12 13  1  0
 13 14  3  0
 12 15  1  0
 15 16  3  0
  8 17  1  0
 17 18  1  0
 18 19  1  0
 19 20  2  0
 20 21  1  0
 21 22  1  0
 21 23  1  0
  1 24  1  0
 24 25  1  0
 25 26  1  0
 26 27  1  0
 27 28  1  0
 28 29  1  0
 29 30  2  0
 30 31  1  0
 31 32  1  0
 29 33  1  0
 33 34  1  0
 34 35  1  0
 35 36  1  0
 36 37  1  0
 37 38  1  0
 38 39  1  0
 37 40  2  0
 40 41  1  0
 41 42  1  0
 42 43  1  0
 43 44  1  0
 44 45  1  0
 45 46  1  0
 46 47  1  0
 47 48  1  0
 48 49  1  0
 49 50  1  0
 50 51  1  0
 47 52  1  0
 52 53  1  0
 44 54  1  0
 54 55  1  0
 40 56  1  0
 56 57  2  3
 57 58  1  0
 58 59  2  0
 58 60  1  0
 60 61  2  0
 61 62  1  0
 62 63  1  0
 63 64  2  0
 64 65  1  0
 65 66  2  0
 66 67  1  0
 67 68  2  0
 61 69  1  0
 69 70  2  3
 70 71  1  0
 71 72  3  0
 70 73  1  0
 73 74  3  0
 11  2  1  0
 23 17  1  0
 49 24  2  0
 69 57  1  0
 10  5  1  0
 22 18  1  0
 48 26  2  0
 68 60  1  0
 23  7  1  0
 46 27  2  0
 68 63  1  0
 32 28  2  0
 45 33  2  0
 43 34  2  0
 42 36  2  0
  1 75  1  0
  6 76  1  0
  9 77  1  0
 17 78  1  0
 18 79  1  0
 19 80  1  0
 20 81  1  0
 21 82  1  0
 22 83  1  0
 22 84  1  0
 23 85  1  0
 38 86  1  0
 38 87  1  0
 39 88  1  0
 39 89  1  0
 39 90  1  0
 50 91  1  0
 50 92  1  0
 51 93  1  0
 51 94  1  0
 51 95  1  0
 52 96  1  0
 52 97  1  0
 53 98  1  0
 53 99  1  0
 53100  1  0
 54101  1  0
 54102  1  0
 55103  1  0
 55104  1  0
 55105  1  0
 56106  1  0
 64107  1  0
 65108  1  0
 66109  1  0
 67110  1  0
M  END

