
     RDKit          3D

129143  0  0  0  0  0  0  0  0999 V2000
    5.8679    3.5158    1.7355 C   0  0  0  0  0  0  0  0  0  0  0  0
    6.0801    4.5437    0.8916 C   0  0  0  0  0  0  0  0  0  0  0  0
    5.1015    5.1873    0.0037 C   0  0  0  0  0  0  0  0  0  0  0  0
    3.8746    5.3598    0.2457 O   0  0  0  0  0  0  0  0  0  0  0  0
    5.7911    5.6543   -1.1852 C   0  0  0  0  0  0  0  0  0  0  0  0
    5.2142    6.1177   -2.3900 C   0  0  0  0  0  0  0  0  0  0  0  0
    6.1239    6.2671   -3.4220 C   0  0  0  0  0  0  0  0  0  0  0  0
    7.5219    5.9707   -3.2825 C   0  0  0  0  0  0  0  0  0  0  0  0
    8.0964    5.5457   -2.0939 C   0  0  0  0  0  0  0  0  0  0  0  0
    7.1807    5.4213   -1.0160 C   0  0  0  0  0  0  0  0  0  0  0  0
    7.4174    4.9044    0.3527 C   0  0  0  0  0  0  0  0  0  0  0  0
    8.5665    5.0057    1.0637 C   0  0  0  0  0  0  0  0  0  0  0  0
    8.5807    4.8375    2.4932 C   0  0  0  0  0  0  0  0  0  0  0  0
    8.5959    4.7124    3.6426 N   0  0  0  0  0  0  0  0  0  0  0  0
    9.8057    5.4194    0.4636 C   0  0  0  0  0  0  0  0  0  0  0  0
   10.8235    5.7208   -0.0120 N   0  0  0  0  0  0  0  0  0  0  0  0
    7.7446    6.2364   -4.7391 C   0  0  0  0  0  0  0  0  0  0  0  0
    7.9186    4.9823   -5.6498 C   0  0  0  0  0  0  0  0  0  0  0  0
    7.7530    5.4793   -7.0644 C   0  0  0  0  0  0  0  0  0  0  0  0
    6.4592    5.7967   -7.2050 C   0  0  0  0  0  0  0  0  0  0  0  0
    5.7952    5.4948   -5.8794 C   0  0  0  0  0  0  0  0  0  0  0  0
    6.5909    4.2582   -5.4980 C   0  0  0  0  0  0  0  0  0  0  0  0
    6.3208    6.5670   -4.8823 C   0  0  0  0  0  0  0  0  0  0  0  0
    4.5942    2.7723    1.9132 C   0  0  0  0  0  0  0  0  0  0  0  0
    4.3448    2.1594    3.1698 C   0  0  0  0  0  0  0  0  0  0  0  0
    3.2662    1.2827    3.3486 C   0  0  0  0  0  0  0  0  0  0  0  0
    2.4367    1.0380    2.2538 C   0  0  0  0  0  0  0  0  0  0  0  0
    1.3790    0.1694    2.0555 C   0  0  0  0  0  0  0  0  0  0  0  0
    0.9929    0.3186    0.7688 C   0  0  0  0  0  0  0  0  0  0  0  0
    1.7561    1.2111    0.0905 N   0  0  0  0  0  0  0  0  0  0  0  0
    2.6413    1.6511    1.0270 C   0  0  0  0  0  0  0  0  0  0  0  0
    3.7414    2.4873    0.8200 C   0  0  0  0  0  0  0  0  0  0  0  0
    1.7804    1.4933   -1.3454 C   0  0  0  0  0  0  0  0  0  0  0  0
    2.7347    0.5433   -2.0602 C   0  0  0  0  0  0  0  0  0  0  0  0
    0.3105   -0.8243    0.4208 C   0  0  0  0  0  0  0  0  0  0  0  0
   -0.1305   -1.3639   -0.7928 C   0  0  0  0  0  0  0  0  0  0  0  0
   -0.6664   -2.6220   -0.8429 C   0  0  0  0  0  0  0  0  0  0  0  0
   -0.9614   -2.9032   -2.1195 N   0  0  0  0  0  0  0  0  0  0  0  0
   -0.5915   -1.8215   -2.8058 N   0  0  0  0  0  0  0  0  0  0  0  0
   -0.7071   -1.7069   -4.2537 C   0  0  0  0  0  0  0  0  0  0  0  0
   -1.9746   -0.9524   -4.6321 C   0  0  0  0  0  0  0  0  0  0  0  0
   -0.0895   -0.8621   -2.0326 N   0  0  0  0  0  0  0  0  0  0  0  0
   -0.8102   -3.3968    0.3189 C   0  0  0  0  0  0  0  0  0  0  0  0
   -0.3746   -2.8817    1.5576 C   0  0  0  0  0  0  0  0  0  0  0  0
    0.2735   -1.6070    1.5879 C   0  0  0  0  0  0  0  0  0  0  0  0
    1.0577   -1.0510    2.5663 N   0  0  0  0  0  0  0  0  0  0  0  0
    1.9379   -1.8280    3.4495 C   0  0  0  0  0  0  0  0  0  0  0  0
    3.2483   -2.1910    2.7503 C   0  0  0  0  0  0  0  0  0  0  0  0
   -0.9532   -3.5728    2.5927 N   0  0  0  0  0  0  0  0  0  0  0  0
   -1.1743   -3.0998    3.9680 C   0  0  0  0  0  0  0  0  0  0  0  0
   -0.6842   -4.1357    4.9908 C   0  0  0  0  0  0  0  0  0  0  0  0
   -1.6891   -4.5418    1.9746 C   0  0  0  0  0  0  0  0  0  0  0  0
   -1.5952   -4.4964    0.6130 C   0  0  0  0  0  0  0  0  0  0  0  0
   -2.7128   -4.9721    0.0032 N   0  0  0  0  0  0  0  0  0  0  0  0
   -2.9859   -5.0863   -1.4366 C   0  0  0  0  0  0  0  0  0  0  0  0
   -1.8939   -5.9049   -2.1254 C   0  0  0  0  0  0  0  0  0  0  0  0
   -3.5581   -5.2687    1.0261 C   0  0  0  0  0  0  0  0  0  0  0  0
   -2.9575   -5.0418    2.2625 C   0  0  0  0  0  0  0  0  0  0  0  0
   -3.6920   -5.1136    3.4499 C   0  0  0  0  0  0  0  0  0  0  0  0
   -5.0675   -5.3565    3.3719 C   0  0  0  0  0  0  0  0  0  0  0  0
   -5.7055   -5.4656    2.1160 C   0  0  0  0  0  0  0  0  0  0  0  0
   -4.9411   -5.4860    0.9335 C   0  0  0  0  0  0  0  0  0  0  0  0
   -7.1661   -5.3004    2.0136 C   0  0  0  0  0  0  0  0  0  0  0  0
   -7.7777   -4.1376    2.3306 C   0  0  0  0  0  0  0  0  0  0  0  0
   -7.0832   -2.8737    2.6383 C   0  0  0  0  0  0  0  0  0  0  0  0
   -5.8409   -2.7079    2.7472 O   0  0  0  0  0  0  0  0  0  0  0  0
   -8.0510   -1.8009    2.6631 C   0  0  0  0  0  0  0  0  0  0  0  0
   -7.8141   -0.4406    2.8932 C   0  0  0  0  0  0  0  0  0  0  0  0
   -6.5119   -0.0110    3.1967 O   0  0  0  0  0  0  0  0  0  0  0  0
   -6.1719    1.3121    3.5845 C   0  0  0  0  0  0  0  0  0  0  0  0
   -8.9086    0.4393    2.8167 C   0  0  0  0  0  0  0  0  0  0  0  0
  -10.1884   -0.0490    2.4942 C   0  0  0  0  0  0  0  0  0  0  0  0
  -10.3970   -1.4189    2.2708 C   0  0  0  0  0  0  0  0  0  0  0  0
   -9.3095   -2.3076    2.3849 C   0  0  0  0  0  0  0  0  0  0  0  0
   -9.2347   -3.7937    2.2275 C   0  0  0  0  0  0  0  0  0  0  0  0
  -10.2810   -4.6616    2.1750 C   0  0  0  0  0  0  0  0  0  0  0  0
  -11.6524   -4.2327    2.1474 C   0  0  0  0  0  0  0  0  0  0  0  0
  -12.7693   -3.9170    2.1207 N   0  0  0  0  0  0  0  0  0  0  0  0
  -10.1129   -6.0898    2.2255 C   0  0  0  0  0  0  0  0  0  0  0  0
   -9.9931   -7.2387    2.2597 N   0  0  0  0  0  0  0  0  0  0  0  0
    6.7171    3.0869    2.2431 H   0  0  0  0  0  0  0  0  0  0  0  0
    4.1478    6.2618   -2.5278 H   0  0  0  0  0  0  0  0  0  0  0  0
    9.1377    5.2601   -2.0454 H   0  0  0  0  0  0  0  0  0  0  0  0
    8.4447    7.0775   -4.9370 H   0  0  0  0  0  0  0  0  0  0  0  0
    8.8279    4.3672   -5.4592 H   0  0  0  0  0  0  0  0  0  0  0  0
    8.4965    5.4916   -7.8485 H   0  0  0  0  0  0  0  0  0  0  0  0
    5.9820    6.1079   -8.1288 H   0  0  0  0  0  0  0  0  0  0  0  0
    4.6923    5.3723   -5.9202 H   0  0  0  0  0  0  0  0  0  0  0  0
    6.4611    3.4138   -6.2157 H   0  0  0  0  0  0  0  0  0  0  0  0
    6.3905    3.8791   -4.4719 H   0  0  0  0  0  0  0  0  0  0  0  0
    6.1178    7.6259   -5.1533 H   0  0  0  0  0  0  0  0  0  0  0  0
    5.0160    2.3376    4.0013 H   0  0  0  0  0  0  0  0  0  0  0  0
    3.1025    0.7998    4.3020 H   0  0  0  0  0  0  0  0  0  0  0  0
    3.9697    2.8349   -0.1741 H   0  0  0  0  0  0  0  0  0  0  0  0
    2.1099    2.5379   -1.5176 H   0  0  0  0  0  0  0  0  0  0  0  0
    0.7549    1.4257   -1.7640 H   0  0  0  0  0  0  0  0  0  0  0  0
    2.6281    0.6590   -3.1592 H   0  0  0  0  0  0  0  0  0  0  0  0
    3.7829    0.7687   -1.7760 H   0  0  0  0  0  0  0  0  0  0  0  0
    2.5175   -0.5098   -1.7892 H   0  0  0  0  0  0  0  0  0  0  0  0
    0.1731   -1.1561   -4.6546 H   0  0  0  0  0  0  0  0  0  0  0  0
   -0.7202   -2.7174   -4.7113 H   0  0  0  0  0  0  0  0  0  0  0  0
   -2.8728   -1.5015   -4.2648 H   0  0  0  0  0  0  0  0  0  0  0  0
   -2.0400   -0.8638   -5.7352 H   0  0  0  0  0  0  0  0  0  0  0  0
   -1.9650    0.0635   -4.1883 H   0  0  0  0  0  0  0  0  0  0  0  0
    2.1295   -1.2672    4.3898 H   0  0  0  0  0  0  0  0  0  0  0  0
    1.4657   -2.7785    3.7228 H   0  0  0  0  0  0  0  0  0  0  0  0
    3.8333   -2.8895    3.3805 H   0  0  0  0  0  0  0  0  0  0  0  0
    3.8641   -1.2893    2.5523 H   0  0  0  0  0  0  0  0  0  0  0  0
    3.0326   -2.7095    1.7912 H   0  0  0  0  0  0  0  0  0  0  0  0
   -2.2543   -2.8882    4.1229 H   0  0  0  0  0  0  0  0  0  0  0  0
   -0.6630   -2.1371    4.1520 H   0  0  0  0  0  0  0  0  0  0  0  0
   -1.0315   -3.8522    6.0085 H   0  0  0  0  0  0  0  0  0  0  0  0
   -1.0577   -5.1483    4.7452 H   0  0  0  0  0  0  0  0  0  0  0  0
    0.4238   -4.1938    5.0106 H   0  0  0  0  0  0  0  0  0  0  0  0
   -3.9388   -5.6244   -1.6122 H   0  0  0  0  0  0  0  0  0  0  0  0
   -3.0997   -4.0838   -1.8914 H   0  0  0  0  0  0  0  0  0  0  0  0
   -1.8952   -6.9408   -1.7276 H   0  0  0  0  0  0  0  0  0  0  0  0
   -0.8861   -5.4707   -1.9629 H   0  0  0  0  0  0  0  0  0  0  0  0
   -2.0868   -5.9440   -3.2184 H   0  0  0  0  0  0  0  0  0  0  0  0
   -3.2502   -4.9417    4.4172 H   0  0  0  0  0  0  0  0  0  0  0  0
   -5.6557   -5.3425    4.2819 H   0  0  0  0  0  0  0  0  0  0  0  0
   -5.4427   -5.5147   -0.0255 H   0  0  0  0  0  0  0  0  0  0  0  0
   -7.7085   -6.0972    1.5312 H   0  0  0  0  0  0  0  0  0  0  0  0
   -6.7744    1.6175    4.4626 H   0  0  0  0  0  0  0  0  0  0  0  0
   -6.3332    2.0132    2.7379 H   0  0  0  0  0  0  0  0  0  0  0  0
   -5.0966    1.3385    3.8693 H   0  0  0  0  0  0  0  0  0  0  0  0
   -8.7824    1.5022    2.9801 H   0  0  0  0  0  0  0  0  0  0  0  0
  -11.0170    0.6402    2.4124 H   0  0  0  0  0  0  0  0  0  0  0  0
  -11.3838   -1.7432    2.0001 H   0  0  0  0  0  0  0  0  0  0  0  0
  1  2  2  3
  2  3  1  0
  3  4  2  0
  3  5  1  0
  5  6  2  0
  6  7  1  0
  7  8  2  0
  8  9  1  0
  9 10  2  0
 10 11  1  0
 11 12  2  3
 12 13  1  0
 13 14  3  0
 12 15  1  0
 15 16  3  0
  8 17  1  0
 17 18  1  0
 18 19  1  0
 19 20  2  0
 20 21  1  0
 21 22  1  0
 21 23  1  0
  1 24  1  0
 24 25  2  0
 25 26  1  0
 26 27  2  0
 27 28  1  0
 28 29  2  0
 29 30  1  0
 30 31  1  0
 31 32  2  0
 30 33  1  0
 33 34  1  0
 29 35  1  0
 35 36  1  0
 36 37  1  0
 37 38  2  0
 38 39  1  0
 39 40  1  0
 40 41  1  0
 39 42  1  0
 37 43  1  0
 43 44  2  0
 44 45  1  0
 45 46  1  0
 46 47  1  0
 47 48  1  0
 44 49  1  0
 49 50  1  0
 50 51  1  0
 49 52  1  0
 52 53  2  0
 53 54  1  0
 54 55  1  0
 55 56  1  0
 54 57  1  0
 57 58  2  0
 58 59  1  0
 59 60  2  0
 60 61  1  0
 61 62  2  0
 61 63  1  0
 63 64  2  3
 64 65  1  0
 65 66  2  0
 65 67  1  0
 67 68  2  0
 68 69  1  0
 69 70  1  0
 68 71  1  0
 71 72  2  0
 72 73  1  0
 73 74  2  0
 74 75  1  0
 75 76  2  3
 76 77  1  0
 77 78  3  0
 76 79  1  0
 79 80  3  0
 11  2  1  0
 23 17  1  0
 32 24  1  0
 45 35  2  0
 58 52  1  0
 75 64  1  0
 10  5  1  0
 22 18  1  0
 31 27  1  0
 42 36  2  0
 53 43  1  0
 62 57  1  0
 74 67  1  0
 23  7  1  0
 46 28  1  0
  1 81  1  0
  6 82  1  0
  9 83  1  0
 17 84  1  0
 18 85  1  0
 19 86  1  0
 20 87  1  0
 21 88  1  0
 22 89  1  0
 22 90  1  0
 23 91  1  0
 25 92  1  0
 26 93  1  0
 32 94  1  0
 33 95  1  0
 33 96  1  0
 34 97  1  0
 34 98  1  0
 34 99  1  0
 40100  1  0
 40101  1  0
 41102  1  0
 41103  1  0
 41104  1  0
 47105  1  0
 47106  1  0
 48107  1  0
 48108  1  0
 48109  1  0
 50110  1  0
 50111  1  0
 51112  1  0
 51113  1  0
 51114  1  0
 55115  1  0
 55116  1  0
 56117  1  0
 56118  1  0
 56119  1  0
 59120  1  0
 60121  1  0
 62122  1  0
 63123  1  0
 70124  1  0
 70125  1  0
 70126  1  0
 71127  1  0
 72128  1  0
 73129  1  0
M  END

