
     RDKit          3D

110124  0  0  0  0  0  0  0  0999 V2000
   -3.5171    0.5638   -6.4690 C   0  0  0  0  0  0  0  0  0  0  0  0
   -2.7413    1.5589   -5.9571 C   0  0  0  0  0  0  0  0  0  0  0  0
   -1.9777    1.4173   -4.7389 C   0  0  0  0  0  0  0  0  0  0  0  0
   -1.7864    0.3873   -4.0702 O   0  0  0  0  0  0  0  0  0  0  0  0
   -1.3838    2.6852   -4.3392 C   0  0  0  0  0  0  0  0  0  0  0  0
   -0.6373    2.9985   -3.2362 C   0  0  0  0  0  0  0  0  0  0  0  0
   -0.2157    4.2900   -3.0536 C   0  0  0  0  0  0  0  0  0  0  0  0
   -0.5452    5.2296   -3.9931 C   0  0  0  0  0  0  0  0  0  0  0  0
   -1.3130    4.9034   -5.1128 C   0  0  0  0  0  0  0  0  0  0  0  0
   -1.7608    3.6329   -5.3142 C   0  0  0  0  0  0  0  0  0  0  0  0
   -2.6022    2.9586   -6.3327 C   0  0  0  0  0  0  0  0  0  0  0  0
   -3.0120    3.4781   -7.4310 C   0  0  0  0  0  0  0  0  0  0  0  0
   -3.6802    2.7858   -8.5304 C   0  0  0  0  0  0  0  0  0  0  0  0
   -4.2085    2.2580   -9.3660 N   0  0  0  0  0  0  0  0  0  0  0  0
   -2.8786    4.9748   -7.7129 C   0  0  0  0  0  0  0  0  0  0  0  0
   -2.7790    5.9922   -7.8908 N   0  0  0  0  0  0  0  0  0  0  0  0
    0.2646    6.2328   -3.2866 C   0  0  0  0  0  0  0  0  0  0  0  0
    1.6689    6.3921   -3.8308 C   0  0  0  0  0  0  0  0  0  0  0  0
    2.4285    7.1588   -2.8069 C   0  0  0  0  0  0  0  0  0  0  0  0
    2.4895    6.4053   -1.7375 C   0  0  0  0  0  0  0  0  0  0  0  0
    1.8845    5.0756   -2.0289 C   0  0  0  0  0  0  0  0  0  0  0  0
    2.2311    4.9935   -3.5412 C   0  0  0  0  0  0  0  0  0  0  0  0
    0.4320    5.2666   -2.1361 C   0  0  0  0  0  0  0  0  0  0  0  0
   -3.4893   -0.6667   -5.6156 C   0  0  0  0  0  0  0  0  0  0  0  0
   -3.0024   -1.8728   -5.8871 C   0  0  0  0  0  0  0  0  0  0  0  0
   -2.5317   -2.2770   -7.2792 C   0  0  0  0  0  0  0  0  0  0  0  0
   -1.1254   -1.7506   -7.4743 C   0  0  0  0  0  0  0  0  0  0  0  0
   -2.8511   -2.7208   -4.8121 C   0  0  0  0  0  0  0  0  0  0  0  0
   -1.9540   -4.4078   -4.5424 Se  0  0  0  0  0  2  0  0  0  0  0  0
   -2.1940   -4.2419   -2.6102 C   0  0  0  0  0  0  0  0  0  0  0  0
   -1.7144   -4.7846   -1.4495 C   0  0  0  0  0  0  0  0  0  0  0  0
   -0.7674   -5.8037   -1.2697 C   0  0  0  0  0  0  0  0  0  0  0  0
   -0.1488   -5.9259   -0.0758 C   0  0  0  0  0  0  0  0  0  0  0  0
    0.7537   -6.8880    0.0367 N   0  0  0  0  0  0  0  0  0  0  0  0
    0.7648   -7.6277   -1.4692 S   0  0  0  0  0  0  0  0  0  0  0  0
   -0.3895   -6.6919   -2.2266 N   0  0  0  0  0  0  0  0  0  0  0  0
   -0.5497   -5.0086    0.9012 C   0  0  0  0  0  0  0  0  0  0  0  0
   -0.0456   -4.7598    2.1240 C   0  0  0  0  0  0  0  0  0  0  0  0
    1.4690   -5.3563    3.2052 Se  0  0  0  0  0  2  0  0  0  0  0  0
    0.9722   -3.7804    4.5716 C   0  0  0  0  0  0  0  0  0  0  0  0
    1.7233   -3.3633    5.5379 C   0  0  0  0  0  0  0  0  0  0  0  0
    2.8725   -4.0840    6.1976 C   0  0  0  0  0  0  0  0  0  0  0  0
    4.0360   -3.9616    5.2811 C   0  0  0  0  0  0  0  0  0  0  0  0
    1.3124   -2.0958    5.9788 C   0  0  0  0  0  0  0  0  0  0  0  0
   -0.0478   -1.7999    4.9665 S   0  0  0  0  0  0  0  0  0  0  0  0
    0.0074   -3.3395    3.9822 C   0  0  0  0  0  0  0  0  0  0  0  0
   -0.5843   -3.7175    2.7948 C   0  0  0  0  0  0  0  0  0  0  0  0
   -1.5552   -3.2785    1.8694 N   0  0  0  0  0  0  0  0  0  0  0  0
   -1.5065   -4.0227    0.7721 C   0  0  0  0  0  0  0  0  0  0  0  0
   -2.1224   -3.8785   -0.4949 C   0  0  0  0  0  0  0  0  0  0  0  0
   -2.8105   -2.8727   -1.0758 N   0  0  0  0  0  0  0  0  0  0  0  0
   -2.8626   -3.0867   -2.4740 C   0  0  0  0  0  0  0  0  0  0  0  0
   -3.1716   -2.3707   -3.6058 C   0  0  0  0  0  0  0  0  0  0  0  0
   -3.7627   -0.7196   -3.9543 S   0  0  0  0  0  0  0  0  0  0  0  0
   -3.3848   -1.6987   -0.5131 C   0  0  0  0  0  0  0  0  0  0  0  0
   -2.4462   -0.4910   -0.5461 C   0  0  0  0  0  0  0  0  0  0  0  0
   -2.6489   -2.4444    2.2898 C   0  0  0  0  0  0  0  0  0  0  0  0
   -2.4485   -1.0267    2.5465 C   0  0  0  0  0  0  0  0  0  0  0  0
    2.1475   -1.2777    6.8275 C   0  0  0  0  0  0  0  0  0  0  0  0
    2.0822   -0.2305    7.5590 C   0  0  0  0  0  0  0  0  0  0  0  0
    0.9934    0.6327    7.8381 C   0  0  0  0  0  0  0  0  0  0  0  0
   -0.2292    0.4065    7.5481 O   0  0  0  0  0  0  0  0  0  0  0  0
    1.4688    1.8302    8.5055 C   0  0  0  0  0  0  0  0  0  0  0  0
    2.8231    1.7336    8.6377 C   0  0  0  0  0  0  0  0  0  0  0  0
    3.4637    2.7782    9.2527 C   0  0  0  0  0  0  0  0  0  0  0  0
    2.7860    3.8912    9.7286 C   0  0  0  0  0  0  0  0  0  0  0  0
    3.5009    4.8749   10.3194 F   0  0  0  0  0  0  0  0  0  0  0  0
    1.4402    3.9849    9.5980 C   0  0  0  0  0  0  0  0  0  0  0  0
    0.7381    5.0518   10.0657 F   0  0  0  0  0  0  0  0  0  0  0  0
    0.7494    2.9375    8.9700 C   0  0  0  0  0  0  0  0  0  0  0  0
   -0.5800    2.9976    8.8222 F   0  0  0  0  0  0  0  0  0  0  0  0
    3.3466    0.4384    8.0764 C   0  0  0  0  0  0  0  0  0  0  0  0
    4.4921    0.0090    8.2956 C   0  0  0  0  0  0  0  0  0  0  0  0
    4.8896   -1.5184    8.0880 C   0  0  0  0  0  0  0  0  0  0  0  0
    5.1159   -2.3790    7.9793 N   0  0  0  0  0  0  0  0  0  0  0  0
    5.7177    0.7712    8.5961 C   0  0  0  0  0  0  0  0  0  0  0  0
    6.6093    1.3288    8.8242 N   0  0  0  0  0  0  0  0  0  0  0  0
   -4.0424    0.6707   -7.3396 H   0  0  0  0  0  0  0  0  0  0  0  0
   -0.3747    2.2179   -2.4987 H   0  0  0  0  0  0  0  0  0  0  0  0
   -1.5319    5.6845   -5.7922 H   0  0  0  0  0  0  0  0  0  0  0  0
   -0.2319    7.1889   -3.0722 H   0  0  0  0  0  0  0  0  0  0  0  0
    1.8025    6.7005   -4.8369 H   0  0  0  0  0  0  0  0  0  0  0  0
    2.8184    8.1522   -3.0053 H   0  0  0  0  0  0  0  0  0  0  0  0
    2.9127    6.6634   -0.7705 H   0  0  0  0  0  0  0  0  0  0  0  0
    2.2656    4.2379   -1.4606 H   0  0  0  0  0  0  0  0  0  0  0  0
    1.6193    4.1945   -4.0120 H   0  0  0  0  0  0  0  0  0  0  0  0
    3.3062    4.9526   -3.6840 H   0  0  0  0  0  0  0  0  0  0  0  0
   -0.1424    5.5118   -1.2324 H   0  0  0  0  0  0  0  0  0  0  0  0
   -3.2459   -1.8547   -8.0029 H   0  0  0  0  0  0  0  0  0  0  0  0
   -2.5648   -3.3603   -7.3518 H   0  0  0  0  0  0  0  0  0  0  0  0
   -0.5403   -2.3858   -8.2074 H   0  0  0  0  0  0  0  0  0  0  0  0
   -0.5589   -1.8692   -6.4952 H   0  0  0  0  0  0  0  0  0  0  0  0
   -1.0839   -0.7012   -7.7539 H   0  0  0  0  0  0  0  0  0  0  0  0
    3.0029   -3.7955    7.2153 H   0  0  0  0  0  0  0  0  0  0  0  0
    2.6016   -5.2008    6.2319 H   0  0  0  0  0  0  0  0  0  0  0  0
    3.6743   -4.1316    4.2255 H   0  0  0  0  0  0  0  0  0  0  0  0
    4.6077   -3.0220    5.3616 H   0  0  0  0  0  0  0  0  0  0  0  0
    4.7860   -4.8036    5.4450 H   0  0  0  0  0  0  0  0  0  0  0  0
   -4.0250   -1.7394    0.3343 H   0  0  0  0  0  0  0  0  0  0  0  0
   -4.1552   -1.3431   -1.3440 H   0  0  0  0  0  0  0  0  0  0  0  0
   -1.4386   -0.7980   -0.1795 H   0  0  0  0  0  0  0  0  0  0  0  0
   -2.4039    0.0031   -1.5215 H   0  0  0  0  0  0  0  0  0  0  0  0
   -2.7997    0.3341    0.1398 H   0  0  0  0  0  0  0  0  0  0  0  0
   -3.6037   -2.8191    1.8817 H   0  0  0  0  0  0  0  0  0  0  0  0
   -2.8994   -2.8379    3.3983 H   0  0  0  0  0  0  0  0  0  0  0  0
   -1.5224   -0.5596    2.1480 H   0  0  0  0  0  0  0  0  0  0  0  0
   -2.3957   -0.7515    3.6608 H   0  0  0  0  0  0  0  0  0  0  0  0
   -3.3489   -0.4342    2.1724 H   0  0  0  0  0  0  0  0  0  0  0  0
    3.2342   -1.6532    6.7120 H   0  0  0  0  0  0  0  0  0  0  0  0
    4.5335    2.7446    9.3694 H   0  0  0  0  0  0  0  0  0  0  0  0
  1  2  2  3
  2  3  1  0
  3  4  2  0
  3  5  1  0
  5  6  2  0
  6  7  1  0
  7  8  2  0
  8  9  1  0
  9 10  2  0
 10 11  1  0
 11 12  2  3
 12 13  1  0
 13 14  3  0
 12 15  1  0
 15 16  3  0
  8 17  1  0
 17 18  1  0
 18 19  1  0
 19 20  2  0
 20 21  1  0
 21 22  1  0
 21 23  1  0
  1 24  1  0
 24 25  2  0
 25 26  1  0
 26 27  1  0
 25 28  1  0
 28 29  1  0
 29 30  1  0
 30 31  1  0
 31 32  1  0
 32 33  1  0
 33 34  2  0
 34 35  1  0
 35 36  1  0
 33 37  1  0
 37 38  1  0
 38 39  1  0
 39 40  1  0
 40 41  1  0
 41 42  1  0
 42 43  1  0
 41 44  2  0
 44 45  1  0
 45 46  1  0
 46 47  1  0
 47 48  1  0
 48 49  1  0
 49 50  1  0
 50 51  1  0
 51 52  1  0
 52 53  1  0
 53 54  1  0
 51 55  1  0
 55 56  1  0
 48 57  1  0
 57 58  1  0
 44 59  1  0
 59 60  2  3
 60 61  1  0
 61 62  2  0
 61 63  1  0
 63 64  2  0
 64 65  1  0
 65 66  2  0
 66 67  1  0
 66 68  1  0
 68 69  1  0
 68 70  2  0
 70 71  1  0
 64 72  1  0
 72 73  2  3
 73 74  1  0
 74 75  3  0
 73 76  1  0
 76 77  3  0
 11  2  1  0
 23 17  1  0
 54 24  1  0
 72 60  1  0
 10  5  1  0
 22 18  1  0
 53 28  2  0
 70 63  1  0
 23  7  1  0
 52 30  2  0
 50 31  2  0
 36 32  2  0
 49 37  2  0
 47 38  2  0
 46 40  2  0
  1 78  1  0
  6 79  1  0
  9 80  1  0
 17 81  1  0
 18 82  1  0
 19 83  1  0
 20 84  1  0
 21 85  1  0
 22 86  1  0
 22 87  1  0
 23 88  1  0
 26 89  1  0
 26 90  1  0
 27 91  1  0
 27 92  1  0
 27 93  1  0
 42 94  1  0
 42 95  1  0
 43 96  1  0
 43 97  1  0
 43 98  1  0
 55 99  1  0
 55100  1  0
 56101  1  0
 56102  1  0
 56103  1  0
 57104  1  0
 57105  1  0
 58106  1  0
 58107  1  0
 58108  1  0
 59109  1  0
 65110  1  0
M  END

