
     RDKit          3D

101115  0  0  0  0  0  0  0  0999 V2000
   -3.9537   -3.0567    3.9761 C   0  0  0  0  0  0  0  0  0  0  0  0
   -4.8111   -2.0951    3.5968 C   0  0  0  0  0  0  0  0  0  0  0  0
   -5.8302   -1.5414    4.4864 C   0  0  0  0  0  0  0  0  0  0  0  0
   -6.2280   -2.0509    5.5655 O   0  0  0  0  0  0  0  0  0  0  0  0
   -6.2466   -0.2582    3.9602 C   0  0  0  0  0  0  0  0  0  0  0  0
   -7.1563    0.6547    4.5403 C   0  0  0  0  0  0  0  0  0  0  0  0
   -7.3248    1.8149    3.8092 C   0  0  0  0  0  0  0  0  0  0  0  0
   -6.6310    2.0792    2.5847 C   0  0  0  0  0  0  0  0  0  0  0  0
   -5.7235    1.1998    2.0205 C   0  0  0  0  0  0  0  0  0  0  0  0
   -5.5632   -0.0159    2.7387 C   0  0  0  0  0  0  0  0  0  0  0  0
   -4.7637   -1.2209    2.3872 C   0  0  0  0  0  0  0  0  0  0  0  0
   -4.4642   -1.6283    1.1237 C   0  0  0  0  0  0  0  0  0  0  0  0
   -4.5832   -0.7650   -0.0193 C   0  0  0  0  0  0  0  0  0  0  0  0
   -4.6838   -0.0819   -0.9510 N   0  0  0  0  0  0  0  0  0  0  0  0
   -4.2161   -3.0149    0.8080 C   0  0  0  0  0  0  0  0  0  0  0  0
   -4.0305   -4.1311    0.5495 N   0  0  0  0  0  0  0  0  0  0  0  0
   -7.3152    3.4037    2.4599 C   0  0  0  0  0  0  0  0  0  0  0  0
   -6.4870    4.6867    2.7560 C   0  0  0  0  0  0  0  0  0  0  0  0
   -5.4192    4.3887    3.7816 C   0  0  0  0  0  0  0  0  0  0  0  0
   -6.0542    4.1470    4.9263 C   0  0  0  0  0  0  0  0  0  0  0  0
   -7.5331    4.2911    4.6453 C   0  0  0  0  0  0  0  0  0  0  0  0
   -7.4739    5.4268    3.6415 C   0  0  0  0  0  0  0  0  0  0  0  0
   -8.0202    3.1430    3.7168 C   0  0  0  0  0  0  0  0  0  0  0  0
   -2.6317   -3.2467    3.3634 C   0  0  0  0  0  0  0  0  0  0  0  0
   -2.0302   -4.4844    3.0583 C   0  0  0  0  0  0  0  0  0  0  0  0
   -2.6633   -5.8348    3.2671 C   0  0  0  0  0  0  0  0  0  0  0  0
   -2.2148   -6.4502    4.5870 C   0  0  0  0  0  0  0  0  0  0  0  0
   -0.7843   -4.2869    2.4547 C   0  0  0  0  0  0  0  0  0  0  0  0
   -0.4176   -2.9723    2.3117 C   0  0  0  0  0  0  0  0  0  0  0  0
   -1.6080   -1.9600    2.9061 S   0  0  0  0  0  0  0  0  0  0  0  0
    0.7470   -2.8173    1.5803 C   0  0  0  0  0  0  0  0  0  0  0  0
    1.2561   -3.9975    1.1781 C   0  0  0  0  0  0  0  0  0  0  0  0
    0.3293   -5.3353    1.6869 S   0  0  0  0  0  0  0  0  0  0  0  0
    2.3434   -3.7143    0.4034 C   0  0  0  0  0  0  0  0  0  0  0  0
    3.2615   -4.5636   -0.2115 C   0  0  0  0  0  0  0  0  0  0  0  0
    3.2177   -5.9151   -0.1357 N   0  0  0  0  0  0  0  0  0  0  0  0
    4.5241   -6.2858   -1.0824 S   0  0  0  0  0  0  0  0  0  0  0  0
    5.1563   -4.8469   -1.6037 N   0  0  0  0  0  0  0  0  0  0  0  0
    4.3038   -3.9906   -0.9884 C   0  0  0  0  0  0  0  0  0  0  0  0
    4.3478   -2.6008   -1.1345 C   0  0  0  0  0  0  0  0  0  0  0  0
    5.0445   -1.8560   -2.0414 C   0  0  0  0  0  0  0  0  0  0  0  0
    5.9792   -2.1844   -3.4239 S   0  0  0  0  0  0  0  0  0  0  0  0
    5.6521   -0.6321   -4.0491 C   0  0  0  0  0  0  0  0  0  0  0  0
    5.8996   -0.0575   -5.2934 C   0  0  0  0  0  0  0  0  0  0  0  0
    5.2056    1.1546   -5.4192 C   0  0  0  0  0  0  0  0  0  0  0  0
    4.2670    1.4486   -4.0299 S   0  0  0  0  0  0  0  0  0  0  0  0
    4.8080    0.0746   -3.2288 C   0  0  0  0  0  0  0  0  0  0  0  0
    4.4613   -0.6292   -2.0768 C   0  0  0  0  0  0  0  0  0  0  0  0
    3.4443   -0.5050   -1.1823 N   0  0  0  0  0  0  0  0  0  0  0  0
    2.4505    0.5743   -1.2316 C   0  0  0  0  0  0  0  0  0  0  0  0
    1.1366    0.1047   -1.8518 C   0  0  0  0  0  0  0  0  0  0  0  0
    3.3927   -1.7348   -0.5562 C   0  0  0  0  0  0  0  0  0  0  0  0
    2.4088   -2.3075    0.3175 C   0  0  0  0  0  0  0  0  0  0  0  0
    1.4388   -1.7475    1.1184 N   0  0  0  0  0  0  0  0  0  0  0  0
    1.3476   -0.4070    1.7304 C   0  0  0  0  0  0  0  0  0  0  0  0
    2.6978    0.0284    2.3167 C   0  0  0  0  0  0  0  0  0  0  0  0
    5.0813    1.9293   -6.6547 C   0  0  0  0  0  0  0  0  0  0  0  0
    6.1008    2.6023   -7.2120 C   0  0  0  0  0  0  0  0  0  0  0  0
    7.4555    2.7140   -6.6353 C   0  0  0  0  0  0  0  0  0  0  0  0
    7.8589    2.2463   -5.5386 O   0  0  0  0  0  0  0  0  0  0  0  0
    8.2258    3.5297   -7.5316 C   0  0  0  0  0  0  0  0  0  0  0  0
    9.7667    4.1727   -7.5513 S   0  0  0  0  0  0  0  0  0  0  0  0
    9.4872    5.0058   -9.0069 C   0  0  0  0  0  0  0  0  0  0  0  0
   10.7852    6.0893   -9.8906 Br  0  0  0  0  0  0  0  0  0  0  0  0
    8.1860    4.7874   -9.4631 C   0  0  0  0  0  0  0  0  0  0  0  0
    7.4847    3.9428   -8.5888 C   0  0  0  0  0  0  0  0  0  0  0  0
    6.0969    3.4270   -8.4801 C   0  0  0  0  0  0  0  0  0  0  0  0
    5.0647    3.7327   -9.3165 C   0  0  0  0  0  0  0  0  0  0  0  0
    5.2472    4.5517  -10.4906 C   0  0  0  0  0  0  0  0  0  0  0  0
    5.3721    5.2161  -11.4318 N   0  0  0  0  0  0  0  0  0  0  0  0
    3.7130    3.3099   -9.0978 C   0  0  0  0  0  0  0  0  0  0  0  0
    2.6188    2.9666   -8.9310 N   0  0  0  0  0  0  0  0  0  0  0  0
   -4.1592   -3.6266    4.8735 H   0  0  0  0  0  0  0  0  0  0  0  0
   -7.6825    0.4651    5.4658 H   0  0  0  0  0  0  0  0  0  0  0  0
   -5.1969    1.4538    1.1190 H   0  0  0  0  0  0  0  0  0  0  0  0
   -7.9942    3.4766    1.5854 H   0  0  0  0  0  0  0  0  0  0  0  0
   -6.1380    5.2390    1.8567 H   0  0  0  0  0  0  0  0  0  0  0  0
   -4.3479    4.4529    3.6515 H   0  0  0  0  0  0  0  0  0  0  0  0
   -5.5854    3.9689    5.8870 H   0  0  0  0  0  0  0  0  0  0  0  0
   -8.1629    4.4809    5.5378 H   0  0  0  0  0  0  0  0  0  0  0  0
   -7.0725    6.3777    4.0637 H   0  0  0  0  0  0  0  0  0  0  0  0
   -8.4537    5.6236    3.1503 H   0  0  0  0  0  0  0  0  0  0  0  0
   -9.1222    3.0688    3.5987 H   0  0  0  0  0  0  0  0  0  0  0  0
   -2.3925   -6.5172    2.4310 H   0  0  0  0  0  0  0  0  0  0  0  0
   -3.7723   -5.7399    3.2678 H   0  0  0  0  0  0  0  0  0  0  0  0
   -1.1070   -6.5800    4.6038 H   0  0  0  0  0  0  0  0  0  0  0  0
   -2.5188   -5.7966    5.4333 H   0  0  0  0  0  0  0  0  0  0  0  0
   -2.6884   -7.4541    4.7102 H   0  0  0  0  0  0  0  0  0  0  0  0
    6.4675   -0.5353   -6.0873 H   0  0  0  0  0  0  0  0  0  0  0  0
    2.8332    1.4240   -1.8240 H   0  0  0  0  0  0  0  0  0  0  0  0
    2.3296    1.0329   -0.2469 H   0  0  0  0  0  0  0  0  0  0  0  0
    0.6361   -0.6429   -1.2071 H   0  0  0  0  0  0  0  0  0  0  0  0
    1.3291   -0.3564   -2.8438 H   0  0  0  0  0  0  0  0  0  0  0  0
    0.4581    0.9774   -1.9768 H   0  0  0  0  0  0  0  0  0  0  0  0
    0.8932    0.3294    1.0413 H   0  0  0  0  0  0  0  0  0  0  0  0
    0.6332   -0.4238    2.5820 H   0  0  0  0  0  0  0  0  0  0  0  0
    2.5764    0.9809    2.8677 H   0  0  0  0  0  0  0  0  0  0  0  0
    3.4569    0.1888    1.5263 H   0  0  0  0  0  0  0  0  0  0  0  0
    3.0717   -0.7470    3.0157 H   0  0  0  0  0  0  0  0  0  0  0  0
    4.1015    1.9226   -7.0973 H   0  0  0  0  0  0  0  0  0  0  0  0
    7.7981    5.2270  -10.3694 H   0  0  0  0  0  0  0  0  0  0  0  0
  1  2  2  3
  2  3  1  0
  3  4  2  0
  3  5  1  0
  5  6  2  0
  6  7  1  0
  7  8  2  0
  8  9  1  0
  9 10  2  0
 10 11  1  0
 11 12  2  3
 12 13  1  0
 13 14  3  0
 12 15  1  0
 15 16  3  0
  8 17  1  0
 17 18  1  0
 18 19  1  0
 19 20  2  0
 20 21  1  0
 21 22  1  0
 21 23  1  0
  1 24  1  0
 24 25  2  0
 25 26  1  0
 26 27  1  0
 25 28  1  0
 28 29  2  0
 29 30  1  0
 29 31  1  0
 31 32  2  0
 32 33  1  0
 32 34  1  0
 34 35  1  0
 35 36  2  0
 36 37  1  0
 37 38  1  0
 38 39  2  0
 39 40  1  0
 40 41  1  0
 41 42  1  0
 42 43  1  0
 43 44  1  0
 44 45  2  0
 45 46  1  0
 46 47  1  0
 47 48  1  0
 48 49  1  0
 49 50  1  0
 50 51  1  0
 49 52  1  0
 52 53  1  0
 53 54  1  0
 54 55  1  0
 55 56  1  0
 45 57  1  0
 57 58  2  3
 58 59  1  0
 59 60  2  0
 59 61  1  0
 61 62  1  0
 62 63  1  0
 63 64  1  0
 63 65  2  0
 65 66  1  0
 66 67  1  0
 67 68  2  3
 68 69  1  0
 69 70  3  0
 68 71  1  0
 71 72  3  0
 11  2  1  0
 23 17  1  0
 30 24  1  0
 54 31  1  0
 67 58  1  0
 10  5  1  0
 22 18  1  0
 33 28  1  0
 53 34  2  0
 66 61  2  0
 23  7  1  0
 39 35  1  0
 52 40  2  0
 48 41  2  0
 47 43  2  0
  1 73  1  0
  6 74  1  0
  9 75  1  0
 17 76  1  0
 18 77  1  0
 19 78  1  0
 20 79  1  0
 21 80  1  0
 22 81  1  0
 22 82  1  0
 23 83  1  0
 26 84  1  0
 26 85  1  0
 27 86  1  0
 27 87  1  0
 27 88  1  0
 44 89  1  0
 50 90  1  0
 50 91  1  0
 51 92  1  0
 51 93  1  0
 51 94  1  0
 55 95  1  0
 55 96  1  0
 56 97  1  0
 56 98  1  0
 56 99  1  0
 57100  1  0
 65101  1  0
M  END

