
     RDKit          3D

 97110  0  0  0  0  0  0  0  0999 V2000
    1.9921   -1.1523   -5.1348 C   0  0  0  0  0  0  0  0  0  0  0  0
    1.3057   -0.8952   -6.2621 C   0  0  0  0  0  0  0  0  0  0  0  0
    1.6421    0.2177   -7.1506 C   0  0  0  0  0  0  0  0  0  0  0  0
    2.7343    0.8453   -7.1705 O   0  0  0  0  0  0  0  0  0  0  0  0
    0.4720    0.5418   -7.9408 C   0  0  0  0  0  0  0  0  0  0  0  0
    0.3041    1.6369   -8.8189 C   0  0  0  0  0  0  0  0  0  0  0  0
   -0.9732    1.7459   -9.3386 C   0  0  0  0  0  0  0  0  0  0  0  0
   -2.0338    0.8411   -9.0059 C   0  0  0  0  0  0  0  0  0  0  0  0
   -1.8756   -0.2334   -8.1463 C   0  0  0  0  0  0  0  0  0  0  0  0
   -0.5602   -0.3797   -7.6273 C   0  0  0  0  0  0  0  0  0  0  0  0
   -0.0270   -1.4070   -6.6952 C   0  0  0  0  0  0  0  0  0  0  0  0
   -0.4309   -2.7011   -6.6373 C   0  0  0  0  0  0  0  0  0  0  0  0
   -1.6384   -3.1614   -7.2722 C   0  0  0  0  0  0  0  0  0  0  0  0
   -2.6045   -3.5457   -7.7816 N   0  0  0  0  0  0  0  0  0  0  0  0
    0.4114   -3.7359   -6.0914 C   0  0  0  0  0  0  0  0  0  0  0  0
    1.0852   -4.5712   -5.6575 N   0  0  0  0  0  0  0  0  0  0  0  0
   -2.9810    1.6029   -9.8824 C   0  0  0  0  0  0  0  0  0  0  0  0
   -3.3471    0.9436  -11.2447 C   0  0  0  0  0  0  0  0  0  0  0  0
   -3.9629    2.0383  -12.0824 C   0  0  0  0  0  0  0  0  0  0  0  0
   -2.9708    2.8788  -12.3962 C   0  0  0  0  0  0  0  0  0  0  0  0
   -1.7191    2.3229  -11.7618 C   0  0  0  0  0  0  0  0  0  0  0  0
   -2.0046    0.8423  -11.9474 C   0  0  0  0  0  0  0  0  0  0  0  0
   -1.8936    2.5249  -10.2280 C   0  0  0  0  0  0  0  0  0  0  0  0
    1.4560   -1.8646   -3.9627 C   0  0  0  0  0  0  0  0  0  0  0  0
   -0.1709   -1.7882   -3.4107 S   0  0  0  0  0  0  0  0  0  0  0  0
    0.1665   -2.7034   -2.0540 C   0  0  0  0  0  0  0  0  0  0  0  0
   -0.3788   -2.9891   -0.8352 C   0  0  0  0  0  0  0  0  0  0  0  0
   -1.7472   -2.5641    0.0735 S   0  0  0  0  0  0  0  0  0  0  0  0
   -0.9756   -3.0987    1.5016 C   0  0  0  0  0  0  0  0  0  0  0  0
    0.3281   -3.5173    1.2741 C   0  0  0  0  0  0  0  0  0  0  0  0
    0.6563   -3.4529   -0.0690 C   0  0  0  0  0  0  0  0  0  0  0  0
    1.8381   -3.4709   -0.7409 N   0  0  0  0  0  0  0  0  0  0  0  0
    1.4915   -2.9963   -1.9665 C   0  0  0  0  0  0  0  0  0  0  0  0
    2.2653   -2.5232   -3.0214 C   0  0  0  0  0  0  0  0  0  0  0  0
    3.1853   -3.6514   -0.2018 C   0  0  0  0  0  0  0  0  0  0  0  0
    3.7402   -2.3249    0.3064 C   0  0  0  0  0  0  0  0  0  0  0  0
    1.2020   -3.7452    2.7224 S   0  0  0  0  0  0  0  0  0  0  0  0
   -0.1863   -3.3866    3.6288 C   0  0  0  0  0  0  0  0  0  0  0  0
   -0.4855   -2.9599    4.8905 C   0  0  0  0  0  0  0  0  0  0  0  0
   -1.7102   -2.3729    4.8246 C   0  0  0  0  0  0  0  0  0  0  0  0
   -2.2274   -2.3938    3.5680 N   0  0  0  0  0  0  0  0  0  0  0  0
   -3.3489   -1.6024    3.0597 C   0  0  0  0  0  0  0  0  0  0  0  0
   -2.9011   -0.1762    2.7525 C   0  0  0  0  0  0  0  0  0  0  0  0
   -1.2597   -3.0293    2.8555 C   0  0  0  0  0  0  0  0  0  0  0  0
   -2.0591   -1.6279    5.9465 C   0  0  0  0  0  0  0  0  0  0  0  0
   -1.0137   -1.6447    6.8811 C   0  0  0  0  0  0  0  0  0  0  0  0
    0.3137   -2.5647    6.3034 S   0  0  0  0  0  0  0  0  0  0  0  0
   -1.0701   -0.9827    8.1903 C   0  0  0  0  0  0  0  0  0  0  0  0
   -0.1780   -0.0639    8.6014 C   0  0  0  0  0  0  0  0  0  0  0  0
    0.7632    0.6622    7.7378 C   0  0  0  0  0  0  0  0  0  0  0  0
    1.0564    0.3863    6.5451 O   0  0  0  0  0  0  0  0  0  0  0  0
    1.2153    1.8397    8.4478 C   0  0  0  0  0  0  0  0  0  0  0  0
    2.0202    2.8721    7.9673 C   0  0  0  0  0  0  0  0  0  0  0  0
    2.2497    3.9860    8.7926 C   0  0  0  0  0  0  0  0  0  0  0  0
    3.0522    5.0485    8.3488 C   0  0  0  0  0  0  0  0  0  0  0  0
    3.2619    6.1611    9.1680 C   0  0  0  0  0  0  0  0  0  0  0  0
    2.6700    6.2256   10.4329 C   0  0  0  0  0  0  0  0  0  0  0  0
    2.8785    7.3086   11.2204 F   0  0  0  0  0  0  0  0  0  0  0  0
    1.8632    5.1780   10.8885 C   0  0  0  0  0  0  0  0  0  0  0  0
    1.6471    4.0501   10.0802 C   0  0  0  0  0  0  0  0  0  0  0  0
    0.8310    2.9937   10.5312 C   0  0  0  0  0  0  0  0  0  0  0  0
    0.6439    1.8720    9.7078 C   0  0  0  0  0  0  0  0  0  0  0  0
   -0.1724    0.6431    9.9176 C   0  0  0  0  0  0  0  0  0  0  0  0
   -0.5930    0.1369   11.1055 C   0  0  0  0  0  0  0  0  0  0  0  0
   -1.1448   -1.1890   11.2219 C   0  0  0  0  0  0  0  0  0  0  0  0
   -1.5848   -2.2551   11.3216 N   0  0  0  0  0  0  0  0  0  0  0  0
   -0.3932    0.8225   12.3556 C   0  0  0  0  0  0  0  0  0  0  0  0
   -0.2378    1.3582   13.3700 N   0  0  0  0  0  0  0  0  0  0  0  0
    2.9723   -0.7076   -5.0156 H   0  0  0  0  0  0  0  0  0  0  0  0
    1.0919    2.3422   -9.0472 H   0  0  0  0  0  0  0  0  0  0  0  0
   -2.7061   -0.8695   -7.8857 H   0  0  0  0  0  0  0  0  0  0  0  0
   -3.8252    2.0687   -9.3261 H   0  0  0  0  0  0  0  0  0  0  0  0
   -3.9380    0.0054  -11.1833 H   0  0  0  0  0  0  0  0  0  0  0  0
   -4.9842    2.0961  -12.4454 H   0  0  0  0  0  0  0  0  0  0  0  0
   -3.0479    3.7336  -13.0600 H   0  0  0  0  0  0  0  0  0  0  0  0
   -0.7643    2.6907  -12.1924 H   0  0  0  0  0  0  0  0  0  0  0  0
   -1.2759    0.1694  -11.4450 H   0  0  0  0  0  0  0  0  0  0  0  0
   -2.0894    0.5380  -13.0177 H   0  0  0  0  0  0  0  0  0  0  0  0
   -2.0528    3.5736   -9.8937 H   0  0  0  0  0  0  0  0  0  0  0  0
    3.3422   -2.6021   -3.0807 H   0  0  0  0  0  0  0  0  0  0  0  0
    3.1645   -4.3926    0.6258 H   0  0  0  0  0  0  0  0  0  0  0  0
    3.8539   -4.0512   -0.9948 H   0  0  0  0  0  0  0  0  0  0  0  0
    3.0772   -1.9045    1.0926 H   0  0  0  0  0  0  0  0  0  0  0  0
    3.8191   -1.5980   -0.5304 H   0  0  0  0  0  0  0  0  0  0  0  0
    4.7503   -2.4856    0.7382 H   0  0  0  0  0  0  0  0  0  0  0  0
   -4.1614   -1.5783    3.8168 H   0  0  0  0  0  0  0  0  0  0  0  0
   -3.7601   -2.0724    2.1416 H   0  0  0  0  0  0  0  0  0  0  0  0
   -3.7552    0.4040    2.3424 H   0  0  0  0  0  0  0  0  0  0  0  0
   -2.5421    0.3193    3.6791 H   0  0  0  0  0  0  0  0  0  0  0  0
   -2.0802   -0.1829    2.0051 H   0  0  0  0  0  0  0  0  0  0  0  0
   -2.9704   -1.0540    6.0503 H   0  0  0  0  0  0  0  0  0  0  0  0
   -1.9291   -1.2105    8.8027 H   0  0  0  0  0  0  0  0  0  0  0  0
    2.4397    2.8179    6.9688 H   0  0  0  0  0  0  0  0  0  0  0  0
    3.5164    5.0182    7.3707 H   0  0  0  0  0  0  0  0  0  0  0  0
    3.8842    6.9773    8.8196 H   0  0  0  0  0  0  0  0  0  0  0  0
    1.4122    5.2467   11.8722 H   0  0  0  0  0  0  0  0  0  0  0  0
    0.3364    3.0837   11.4832 H   0  0  0  0  0  0  0  0  0  0  0  0
  1  2  2  3
  2  3  1  0
  3  4  2  0
  3  5  1  0
  5  6  2  0
  6  7  1  0
  7  8  2  0
  8  9  1  0
  9 10  2  0
 10 11  1  0
 11 12  2  3
 12 13  1  0
 13 14  3  0
 12 15  1  0
 15 16  3  0
  8 17  1  0
 17 18  1  0
 18 19  1  0
 19 20  2  0
 20 21  1  0
 21 22  1  0
 21 23  1  0
  1 24  1  0
 24 25  1  0
 25 26  1  0
 26 27  1  0
 27 28  1  0
 28 29  1  0
 29 30  2  0
 30 31  1  0
 31 32  1  0
 32 33  1  0
 33 34  1  0
 32 35  1  0
 35 36  1  0
 30 37  1  0
 37 38  1  0
 38 39  1  0
 39 40  2  0
 40 41  1  0
 41 42  1  0
 42 43  1  0
 41 44  1  0
 40 45  1  0
 45 46  2  0
 46 47  1  0
 46 48  1  0
 48 49  2  3
 49 50  1  0
 50 51  2  0
 50 52  1  0
 52 53  2  0
 53 54  1  0
 54 55  2  0
 55 56  1  0
 56 57  2  0
 57 58  1  0
 57 59  1  0
 59 60  2  0
 60 61  1  0
 61 62  2  0
 62 63  1  0
 63 64  2  3
 64 65  1  0
 65 66  3  0
 64 67  1  0
 67 68  3  0
 11  2  1  0
 23 17  1  0
 34 24  2  0
 44 38  2  0
 63 49  1  0
 10  5  1  0
 22 18  1  0
 33 26  2  0
 47 39  1  0
 62 52  1  0
 23  7  1  0
 31 27  2  0
 60 54  1  0
 44 29  1  0
  1 69  1  0
  6 70  1  0
  9 71  1  0
 17 72  1  0
 18 73  1  0
 19 74  1  0
 20 75  1  0
 21 76  1  0
 22 77  1  0
 22 78  1  0
 23 79  1  0
 34 80  1  0
 35 81  1  0
 35 82  1  0
 36 83  1  0
 36 84  1  0
 36 85  1  0
 42 86  1  0
 42 87  1  0
 43 88  1  0
 43 89  1  0
 43 90  1  0
 45 91  1  0
 48 92  1  0
 53 93  1  0
 55 94  1  0
 56 95  1  0
 59 96  1  0
 61 97  1  0
M  END

