
     RDKit          3D

101115  0  0  0  0  0  0  0  0999 V2000
    0.5832    0.1949    6.1835 C   0  0  0  0  0  0  0  0  0  0  0  0
   -0.0926   -0.9638    6.1650 C   0  0  0  0  0  0  0  0  0  0  0  0
    0.1330   -2.0722    5.2192 C   0  0  0  0  0  0  0  0  0  0  0  0
    1.1924   -2.3238    4.5829 O   0  0  0  0  0  0  0  0  0  0  0  0
   -1.1135   -2.7859    5.0504 C   0  0  0  0  0  0  0  0  0  0  0  0
   -1.3819   -3.8122    4.1099 C   0  0  0  0  0  0  0  0  0  0  0  0
   -2.7296   -4.1135    3.9913 C   0  0  0  0  0  0  0  0  0  0  0  0
   -3.7594   -3.4382    4.7317 C   0  0  0  0  0  0  0  0  0  0  0  0
   -3.4936   -2.4671    5.6856 C   0  0  0  0  0  0  0  0  0  0  0  0
   -2.1074   -2.1874    5.8712 C   0  0  0  0  0  0  0  0  0  0  0  0
   -1.4663   -1.1540    6.7259 C   0  0  0  0  0  0  0  0  0  0  0  0
   -1.9470   -0.6513    7.8926 C   0  0  0  0  0  0  0  0  0  0  0  0
   -3.2507   -1.0190    8.3933 C   0  0  0  0  0  0  0  0  0  0  0  0
   -4.2935   -1.3163    8.8042 N   0  0  0  0  0  0  0  0  0  0  0  0
   -1.1477    0.1635    8.7614 C   0  0  0  0  0  0  0  0  0  0  0  0
   -0.5322    0.8365    9.4723 N   0  0  0  0  0  0  0  0  0  0  0  0
   -4.8238   -4.1705    3.9619 C   0  0  0  0  0  0  0  0  0  0  0  0
   -5.5672   -3.3964    2.8188 C   0  0  0  0  0  0  0  0  0  0  0  0
   -4.6374   -2.3738    2.1911 C   0  0  0  0  0  0  0  0  0  0  0  0
   -3.7012   -3.0616    1.5268 C   0  0  0  0  0  0  0  0  0  0  0  0
   -4.0154   -4.5253    1.7477 C   0  0  0  0  0  0  0  0  0  0  0  0
   -5.5306   -4.4494    1.7295 C   0  0  0  0  0  0  0  0  0  0  0  0
   -3.7682   -4.9005    3.2414 C   0  0  0  0  0  0  0  0  0  0  0  0
    1.5371    0.5670    5.1262 C   0  0  0  0  0  0  0  0  0  0  0  0
    2.8386    0.0704    4.9393 C   0  0  0  0  0  0  0  0  0  0  0  0
    3.5843   -0.8091    5.9094 C   0  0  0  0  0  0  0  0  0  0  0  0
    4.7327   -0.0406    6.5479 C   0  0  0  0  0  0  0  0  0  0  0  0
    3.3632    0.5111    3.7142 C   0  0  0  0  0  0  0  0  0  0  0  0
    2.5330    1.3222    2.9799 C   0  0  0  0  0  0  0  0  0  0  0  0
    1.0752    1.5167    3.7912 S   0  0  0  0  0  0  0  0  0  0  0  0
    3.0121    1.5969    1.6989 C   0  0  0  0  0  0  0  0  0  0  0  0
    4.1955    0.9668    1.4592 C   0  0  0  0  0  0  0  0  0  0  0  0
    4.7076    0.0312    2.7851 S   0  0  0  0  0  0  0  0  0  0  0  0
    4.3390    0.8754    0.1001 C   0  0  0  0  0  0  0  0  0  0  0  0
    5.1282    0.0119   -0.6709 C   0  0  0  0  0  0  0  0  0  0  0  0
    6.1393   -0.7359   -0.1674 N   0  0  0  0  0  0  0  0  0  0  0  0
    6.6020   -1.5379   -1.5399 S   0  0  0  0  0  0  0  0  0  0  0  0
    5.6037   -1.0146   -2.7542 N   0  0  0  0  0  0  0  0  0  0  0  0
    4.8330   -0.1430   -2.0563 C   0  0  0  0  0  0  0  0  0  0  0  0
    3.7819    0.6023   -2.6018 C   0  0  0  0  0  0  0  0  0  0  0  0
    3.3039    0.7243   -3.8765 C   0  0  0  0  0  0  0  0  0  0  0  0
    3.5118    0.0390   -5.4221 S   0  0  0  0  0  0  0  0  0  0  0  0
    2.3363    1.1015   -6.0724 C   0  0  0  0  0  0  0  0  0  0  0  0
    1.6962    1.2004   -7.3061 C   0  0  0  0  0  0  0  0  0  0  0  0
    0.6831    2.1663   -7.2634 C   0  0  0  0  0  0  0  0  0  0  0  0
    0.6107    2.8842   -5.7224 S   0  0  0  0  0  0  0  0  0  0  0  0
    1.8564    1.9572   -5.1103 C   0  0  0  0  0  0  0  0  0  0  0  0
    2.3791    1.7071   -3.8580 C   0  0  0  0  0  0  0  0  0  0  0  0
    2.2088    2.2662   -2.6318 N   0  0  0  0  0  0  0  0  0  0  0  0
    1.8027    3.6561   -2.4081 C   0  0  0  0  0  0  0  0  0  0  0  0
    0.2907    3.8535   -2.5566 C   0  0  0  0  0  0  0  0  0  0  0  0
    3.0351    1.5169   -1.8408 C   0  0  0  0  0  0  0  0  0  0  0  0
    3.2486    1.5786   -0.4390 C   0  0  0  0  0  0  0  0  0  0  0  0
    2.3817    1.9681    0.5512 N   0  0  0  0  0  0  0  0  0  0  0  0
    0.9306    2.1483    0.4422 C   0  0  0  0  0  0  0  0  0  0  0  0
    0.4953    3.5073    0.9893 C   0  0  0  0  0  0  0  0  0  0  0  0
   -0.3420    2.3838   -8.2962 C   0  0  0  0  0  0  0  0  0  0  0  0
   -1.6063    1.9415   -8.1377 C   0  0  0  0  0  0  0  0  0  0  0  0
   -2.0733    1.0977   -7.0076 C   0  0  0  0  0  0  0  0  0  0  0  0
   -1.3467    0.4403   -6.2219 O   0  0  0  0  0  0  0  0  0  0  0  0
   -3.5132    1.1967   -6.9434 C   0  0  0  0  0  0  0  0  0  0  0  0
   -4.4367    0.9670   -5.9256 C   0  0  0  0  0  0  0  0  0  0  0  0
   -5.6467    1.6050   -6.2061 C   0  0  0  0  0  0  0  0  0  0  0  0
   -7.0355    1.6368   -5.1404 Cl  0  0  0  0  0  0  0  0  0  0  0  0
   -5.5417    2.4605   -7.6753 S   0  0  0  0  0  0  0  0  0  0  0  0
   -3.9572    1.9644   -7.9732 C   0  0  0  0  0  0  0  0  0  0  0  0
   -2.8433    2.4616   -8.8223 C   0  0  0  0  0  0  0  0  0  0  0  0
   -2.9772    3.1902   -9.9535 C   0  0  0  0  0  0  0  0  0  0  0  0
   -4.2755    3.6177  -10.4025 C   0  0  0  0  0  0  0  0  0  0  0  0
   -5.3158    3.9936  -10.7394 N   0  0  0  0  0  0  0  0  0  0  0  0
   -1.8745    3.5698  -10.7994 C   0  0  0  0  0  0  0  0  0  0  0  0
   -0.9885    3.8869  -11.4811 N   0  0  0  0  0  0  0  0  0  0  0  0
    0.1736    1.0151    6.7499 H   0  0  0  0  0  0  0  0  0  0  0  0
   -0.6299   -4.2597    3.4608 H   0  0  0  0  0  0  0  0  0  0  0  0
   -4.2870   -1.9219    6.1791 H   0  0  0  0  0  0  0  0  0  0  0  0
   -5.4709   -4.8295    4.5868 H   0  0  0  0  0  0  0  0  0  0  0  0
   -6.5802   -3.0115    3.0779 H   0  0  0  0  0  0  0  0  0  0  0  0
   -4.7197   -1.2851    2.2416 H   0  0  0  0  0  0  0  0  0  0  0  0
   -2.8740   -2.6307    0.9654 H   0  0  0  0  0  0  0  0  0  0  0  0
   -3.5567   -5.2081    1.0036 H   0  0  0  0  0  0  0  0  0  0  0  0
   -6.0136   -5.4073    2.0268 H   0  0  0  0  0  0  0  0  0  0  0  0
   -5.9390   -4.0964    0.7540 H   0  0  0  0  0  0  0  0  0  0  0  0
   -3.7486   -5.9987    3.4399 H   0  0  0  0  0  0  0  0  0  0  0  0
    3.9624   -1.7093    5.3737 H   0  0  0  0  0  0  0  0  0  0  0  0
    2.9130   -1.1531    6.7191 H   0  0  0  0  0  0  0  0  0  0  0  0
    5.4631    0.2655    5.7763 H   0  0  0  0  0  0  0  0  0  0  0  0
    4.3568    0.8632    7.0778 H   0  0  0  0  0  0  0  0  0  0  0  0
    5.2561   -0.6892    7.2788 H   0  0  0  0  0  0  0  0  0  0  0  0
    1.9007    0.5494   -8.1457 H   0  0  0  0  0  0  0  0  0  0  0  0
    2.3209    4.3029   -3.1438 H   0  0  0  0  0  0  0  0  0  0  0  0
    2.1323    3.9972   -1.4025 H   0  0  0  0  0  0  0  0  0  0  0  0
   -0.2450    2.8861   -2.6876 H   0  0  0  0  0  0  0  0  0  0  0  0
    0.0862    4.5035   -3.4369 H   0  0  0  0  0  0  0  0  0  0  0  0
   -0.1398    4.3860   -1.6811 H   0  0  0  0  0  0  0  0  0  0  0  0
    0.5853    2.0296   -0.6029 H   0  0  0  0  0  0  0  0  0  0  0  0
    0.4199    1.3459    1.0078 H   0  0  0  0  0  0  0  0  0  0  0  0
    0.9769    4.3474    0.4669 H   0  0  0  0  0  0  0  0  0  0  0  0
   -0.6084    3.6074    0.8902 H   0  0  0  0  0  0  0  0  0  0  0  0
    0.7418    3.6207    2.0576 H   0  0  0  0  0  0  0  0  0  0  0  0
   -0.0859    3.0800   -9.0778 H   0  0  0  0  0  0  0  0  0  0  0  0
   -4.2136    0.4700   -4.9829 H   0  0  0  0  0  0  0  0  0  0  0  0
  1  2  2  3
  2  3  1  0
  3  4  2  0
  3  5  1  0
  5  6  2  0
  6  7  1  0
  7  8  2  0
  8  9  1  0
  9 10  2  0
 10 11  1  0
 11 12  2  3
 12 13  1  0
 13 14  3  0
 12 15  1  0
 15 16  3  0
  8 17  1  0
 17 18  1  0
 18 19  1  0
 19 20  2  0
 20 21  1  0
 21 22  1  0
 21 23  1  0
  1 24  1  0
 24 25  2  0
 25 26  1  0
 26 27  1  0
 25 28  1  0
 28 29  2  0
 29 30  1  0
 29 31  1  0
 31 32  2  0
 32 33  1  0
 32 34  1  0
 34 35  1  0
 35 36  2  0
 36 37  1  0
 37 38  1  0
 38 39  2  0
 39 40  1  0
 40 41  1  0
 41 42  1  0
 42 43  1  0
 43 44  1  0
 44 45  2  0
 45 46  1  0
 46 47  1  0
 47 48  1  0
 48 49  1  0
 49 50  1  0
 50 51  1  0
 49 52  1  0
 52 53  1  0
 53 54  1  0
 54 55  1  0
 55 56  1  0
 45 57  1  0
 57 58  2  3
 58 59  1  0
 59 60  2  0
 59 61  1  0
 61 62  1  0
 62 63  2  0
 63 64  1  0
 63 65  1  0
 65 66  1  0
 66 67  1  0
 67 68  2  3
 68 69  1  0
 69 70  3  0
 68 71  1  0
 71 72  3  0
 11  2  1  0
 23 17  1  0
 30 24  1  0
 54 31  1  0
 67 58  1  0
 10  5  1  0
 22 18  1  0
 33 28  1  0
 53 34  2  0
 66 61  2  0
 23  7  1  0
 39 35  1  0
 52 40  2  0
 48 41  2  0
 47 43  2  0
  1 73  1  0
  6 74  1  0
  9 75  1  0
 17 76  1  0
 18 77  1  0
 19 78  1  0
 20 79  1  0
 21 80  1  0
 22 81  1  0
 22 82  1  0
 23 83  1  0
 26 84  1  0
 26 85  1  0
 27 86  1  0
 27 87  1  0
 27 88  1  0
 44 89  1  0
 50 90  1  0
 50 91  1  0
 51 92  1  0
 51 93  1  0
 51 94  1  0
 55 95  1  0
 55 96  1  0
 56 97  1  0
 56 98  1  0
 56 99  1  0
 57100  1  0
 62101  1  0
M  END

