
     RDKit          3D

111125  0  0  0  0  0  0  0  0999 V2000
   -3.7979    4.3813   -4.4601 C   0  0  0  0  0  0  0  0  0  0  0  0
   -2.7163    4.1380   -5.1450 C   0  0  0  0  0  0  0  0  0  0  0  0
   -1.6525    3.1712   -4.9194 C   0  0  0  0  0  0  0  0  0  0  0  0
   -1.5647    2.2670   -3.9857 O   0  0  0  0  0  0  0  0  0  0  0  0
   -0.5975    3.2184   -5.8703 C   0  0  0  0  0  0  0  0  0  0  0  0
    0.5994    2.6237   -6.0764 C   0  0  0  0  0  0  0  0  0  0  0  0
    1.5489    2.8347   -7.0226 C   0  0  0  0  0  0  0  0  0  0  0  0
    1.2198    3.9020   -7.9645 C   0  0  0  0  0  0  0  0  0  0  0  0
    0.0345    4.4575   -7.7349 C   0  0  0  0  0  0  0  0  0  0  0  0
   -0.9241    4.2565   -6.8055 C   0  0  0  0  0  0  0  0  0  0  0  0
   -2.2119    4.8221   -6.3818 C   0  0  0  0  0  0  0  0  0  0  0  0
   -2.8458    5.6981   -7.0675 C   0  0  0  0  0  0  0  0  0  0  0  0
   -2.4153    6.3453   -8.2402 C   0  0  0  0  0  0  0  0  0  0  0  0
   -2.0114    6.9197   -9.2845 N   0  0  0  0  0  0  0  0  0  0  0  0
   -4.2970    6.0764   -6.7813 C   0  0  0  0  0  0  0  0  0  0  0  0
   -5.3940    6.3470   -6.5681 N   0  0  0  0  0  0  0  0  0  0  0  0
    2.5016    3.7033   -8.6350 C   0  0  0  0  0  0  0  0  0  0  0  0
    3.5943    4.7209   -8.3669 C   0  0  0  0  0  0  0  0  0  0  0  0
    4.8864    4.0962   -8.7974 C   0  0  0  0  0  0  0  0  0  0  0  0
    5.1666    3.1635   -7.9082 C   0  0  0  0  0  0  0  0  0  0  0  0
    4.0421    3.1045   -6.9158 C   0  0  0  0  0  0  0  0  0  0  0  0
    3.7439    4.6065   -6.8644 C   0  0  0  0  0  0  0  0  0  0  0  0
    2.8564    2.6024   -7.6522 C   0  0  0  0  0  0  0  0  0  0  0  0
   -4.1659    3.6492   -3.2435 C   0  0  0  0  0  0  0  0  0  0  0  0
   -5.1494    3.4492   -2.4784 C   0  0  0  0  0  0  0  0  0  0  0  0
   -6.4537    4.3404   -2.7145 C   0  0  0  0  0  0  0  0  0  0  0  0
   -6.0179    5.7375   -2.1620 C   0  0  0  0  0  0  0  0  0  0  0  0
   -5.1545    2.6495   -1.3885 C   0  0  0  0  0  0  0  0  0  0  0  0
   -5.9839    2.1143    0.0426 S   0  0  0  0  0  0  0  0  0  0  0  0
   -4.8517    1.1844    0.8313 C   0  0  0  0  0  0  0  0  0  0  0  0
   -4.3106    0.4170    1.8864 C   0  0  0  0  0  0  0  0  0  0  0  0
   -4.8727    0.1517    3.2088 C   0  0  0  0  0  0  0  0  0  0  0  0
   -3.9270   -0.4019    4.0799 C   0  0  0  0  0  0  0  0  0  0  0  0
   -4.5816   -0.7774    5.2870 N   0  0  0  0  0  0  0  0  0  0  0  0
   -6.5232   -0.2326    4.9349 Se  0  0  0  0  0  2  0  0  0  0  0  0
   -6.0613    0.2960    3.4388 N   0  0  0  0  0  0  0  0  0  0  0  0
   -2.6757   -0.6688    3.8033 C   0  0  0  0  0  0  0  0  0  0  0  0
   -1.5275   -1.0784    4.5484 C   0  0  0  0  0  0  0  0  0  0  0  0
   -1.0438   -1.4956    6.1469 S   0  0  0  0  0  0  0  0  0  0  0  0
    0.6592   -1.7613    5.7971 C   0  0  0  0  0  0  0  0  0  0  0  0
    1.7918   -2.3225    6.3632 C   0  0  0  0  0  0  0  0  0  0  0  0
    1.8174   -2.5242    7.9098 C   0  0  0  0  0  0  0  0  0  0  0  0
    0.9748   -3.6487    8.3774 C   0  0  0  0  0  0  0  0  0  0  0  0
    2.8446   -2.6025    5.6640 C   0  0  0  0  0  0  0  0  0  0  0  0
    2.2708   -2.0044    4.0517 S   0  0  0  0  0  0  0  0  0  0  0  0
    0.7132   -1.5081    4.5358 C   0  0  0  0  0  0  0  0  0  0  0  0
   -0.5256   -1.1304    3.8439 C   0  0  0  0  0  0  0  0  0  0  0  0
   -0.7731   -0.7332    2.5235 N   0  0  0  0  0  0  0  0  0  0  0  0
   -2.0959   -0.4600    2.5150 C   0  0  0  0  0  0  0  0  0  0  0  0
   -3.0094    0.0858    1.5972 C   0  0  0  0  0  0  0  0  0  0  0  0
   -2.7511    0.5864    0.4574 N   0  0  0  0  0  0  0  0  0  0  0  0
   -3.6348    1.2714   -0.1268 C   0  0  0  0  0  0  0  0  0  0  0  0
   -4.0145    2.0459   -1.1548 C   0  0  0  0  0  0  0  0  0  0  0  0
   -2.9711    2.6473   -2.4805 S   0  0  0  0  0  0  0  0  0  0  0  0
   -1.7856   -0.1790   -0.5064 C   0  0  0  0  0  0  0  0  0  0  0  0
   -2.7005   -0.7976   -1.6077 C   0  0  0  0  0  0  0  0  0  0  0  0
    0.2192   -0.4583    1.5698 C   0  0  0  0  0  0  0  0  0  0  0  0
    0.6601    1.0403    1.4910 C   0  0  0  0  0  0  0  0  0  0  0  0
    4.0204   -3.4711    5.6294 C   0  0  0  0  0  0  0  0  0  0  0  0
    4.8615   -4.1360    6.3046 C   0  0  0  0  0  0  0  0  0  0  0  0
    5.2305   -4.4696    7.5801 C   0  0  0  0  0  0  0  0  0  0  0  0
    4.9331   -3.7787    8.6281 O   0  0  0  0  0  0  0  0  0  0  0  0
    6.1033   -5.8163    7.5810 C   0  0  0  0  0  0  0  0  0  0  0  0
    6.4226   -6.1025    8.9050 C   0  0  0  0  0  0  0  0  0  0  0  0
    6.4817   -5.9661   10.0721 O   0  0  0  0  0  0  0  0  0  0  0  0
    7.2386   -7.5725    8.5631 C   0  0  0  0  0  0  0  0  0  0  0  0
    7.2660   -7.8605    7.3948 C   0  0  0  0  0  0  0  0  0  0  0  0
    6.8762   -7.4286    6.1632 C   0  0  0  0  0  0  0  0  0  0  0  0
    6.1364   -6.0903    6.4148 C   0  0  0  0  0  0  0  0  0  0  0  0
    5.5215   -5.3175    5.3306 C   0  0  0  0  0  0  0  0  0  0  0  0
    5.5734   -5.4044    4.2009 C   0  0  0  0  0  0  0  0  0  0  0  0
    6.2692   -6.6069    3.5497 C   0  0  0  0  0  0  0  0  0  0  0  0
    6.8186   -7.5432    3.0379 N   0  0  0  0  0  0  0  0  0  0  0  0
    5.0310   -4.6160    3.0039 C   0  0  0  0  0  0  0  0  0  0  0  0
    4.6525   -4.0438    2.1579 N   0  0  0  0  0  0  0  0  0  0  0  0
   -4.4850    5.1831   -4.6886 H   0  0  0  0  0  0  0  0  0  0  0  0
    0.8483    1.7802   -5.3194 H   0  0  0  0  0  0  0  0  0  0  0  0
   -0.2694    5.2701   -8.4852 H   0  0  0  0  0  0  0  0  0  0  0  0
    2.4236    3.3653   -9.6932 H   0  0  0  0  0  0  0  0  0  0  0  0
    3.4036    5.6967   -8.7631 H   0  0  0  0  0  0  0  0  0  0  0  0
    5.4495    4.3865   -9.6375 H   0  0  0  0  0  0  0  0  0  0  0  0
    6.0464    2.5271   -7.8083 H   0  0  0  0  0  0  0  0  0  0  0  0
    4.2402    2.6593   -5.9742 H   0  0  0  0  0  0  0  0  0  0  0  0
    2.8593    4.8196   -6.2927 H   0  0  0  0  0  0  0  0  0  0  0  0
    4.6539    5.1878   -6.4917 H   0  0  0  0  0  0  0  0  0  0  0  0
    2.9595    1.6005   -8.1171 H   0  0  0  0  0  0  0  0  0  0  0  0
   -6.6127    4.4435   -3.7869 H   0  0  0  0  0  0  0  0  0  0  0  0
   -7.2923    3.9250   -2.1900 H   0  0  0  0  0  0  0  0  0  0  0  0
   -6.8546    6.2368   -1.6598 H   0  0  0  0  0  0  0  0  0  0  0  0
   -5.2460    5.5543   -1.3430 H   0  0  0  0  0  0  0  0  0  0  0  0
   -5.4961    6.3195   -2.9285 H   0  0  0  0  0  0  0  0  0  0  0  0
    2.8266   -2.5169    8.2606 H   0  0  0  0  0  0  0  0  0  0  0  0
    1.3683   -1.5210    8.3161 H   0  0  0  0  0  0  0  0  0  0  0  0
    1.0466   -4.5094    7.7159 H   0  0  0  0  0  0  0  0  0  0  0  0
   -0.1179   -3.3132    8.4307 H   0  0  0  0  0  0  0  0  0  0  0  0
    1.3054   -3.9379    9.4044 H   0  0  0  0  0  0  0  0  0  0  0  0
   -1.0658    0.4529   -0.8569 H   0  0  0  0  0  0  0  0  0  0  0  0
   -1.5237   -1.1032   -0.0239 H   0  0  0  0  0  0  0  0  0  0  0  0
   -3.6929   -0.3176   -1.4774 H   0  0  0  0  0  0  0  0  0  0  0  0
   -2.3282   -0.5154   -2.6104 H   0  0  0  0  0  0  0  0  0  0  0  0
   -2.8365   -1.8767   -1.4953 H   0  0  0  0  0  0  0  0  0  0  0  0
    1.2216   -0.9908    1.9566 H   0  0  0  0  0  0  0  0  0  0  0  0
    0.2882   -0.8644    0.5288 H   0  0  0  0  0  0  0  0  0  0  0  0
    0.7498    1.4271    2.4957 H   0  0  0  0  0  0  0  0  0  0  0  0
    1.5640    0.9759    0.8575 H   0  0  0  0  0  0  0  0  0  0  0  0
   -0.0485    1.6436    0.9242 H   0  0  0  0  0  0  0  0  0  0  0  0
    4.4000   -3.4488    4.5109 H   0  0  0  0  0  0  0  0  0  0  0  0
    6.1298   -5.2007   10.6864 H   0  0  0  0  0  0  0  0  0  0  0  0
    7.5534   -7.9274    9.4871 H   0  0  0  0  0  0  0  0  0  0  0  0
    7.8637   -8.9296    7.1911 H   0  0  0  0  0  0  0  0  0  0  0  0
    6.9654   -7.7772    5.2895 H   0  0  0  0  0  0  0  0  0  0  0  0
  1  2  2  3
  2  3  1  0
  3  4  2  0
  3  5  1  0
  5  6  2  0
  6  7  1  0
  7  8  2  0
  8  9  1  0
  9 10  2  0
 10 11  1  0
 11 12  2  3
 12 13  1  0
 13 14  3  0
 12 15  1  0
 15 16  3  0
  8 17  1  0
 17 18  1  0
 18 19  1  0
 19 20  2  0
 20 21  1  0
 21 22  1  0
 21 23  1  0
  1 24  1  0
 24 25  2  0
 25 26  1  0
 26 27  1  0
 25 28  1  0
 28 29  1  0
 29 30  1  0
 30 31  1  0
 31 32  1  0
 32 33  1  0
 33 34  2  0
 34 35  1  0
 35 36  1  0
 33 37  1  0
 37 38  1  0
 38 39  1  0
 39 40  1  0
 40 41  1  0
 41 42  1  0
 42 43  1  0
 41 44  2  0
 44 45  1  0
 45 46  1  0
 46 47  1  0
 47 48  1  0
 48 49  1  0
 49 50  1  0
 50 51  1  0
 51 52  1  0
 52 53  1  0
 53 54  1  0
 51 55  1  0
 55 56  1  0
 48 57  1  0
 57 58  1  0
 44 59  1  0
 59 60  2  3
 60 61  1  0
 61 62  2  0
 61 63  1  0
 63 64  2  0
 64 65  1  0
 64 66  1  0
 66 67  2  0
 67 68  1  0
 68 69  2  0
 69 70  1  0
 70 71  2  3
 71 72  1  0
 72 73  3  0
 71 74  1  0
 74 75  3  0
 11  2  1  0
 23 17  1  0
 54 24  1  0
 70 60  1  0
 10  5  1  0
 22 18  1  0
 53 28  2  0
 69 63  1  0
 23  7  1  0
 52 30  2  0
 50 31  2  0
 36 32  2  0
 49 37  2  0
 47 38  2  0
 46 40  2  0
  1 76  1  0
  6 77  1  0
  9 78  1  0
 17 79  1  0
 18 80  1  0
 19 81  1  0
 20 82  1  0
 21 83  1  0
 22 84  1  0
 22 85  1  0
 23 86  1  0
 26 87  1  0
 26 88  1  0
 27 89  1  0
 27 90  1  0
 27 91  1  0
 42 92  1  0
 42 93  1  0
 43 94  1  0
 43 95  1  0
 43 96  1  0
 55 97  1  0
 55 98  1  0
 56 99  1  0
 56100  1  0
 56101  1  0
 57102  1  0
 57103  1  0
 58104  1  0
 58105  1  0
 58106  1  0
 59107  1  0
 65108  1  0
 66109  1  0
 67110  1  0
 68111  1  0
M  END

