
     RDKit          3D

108121  0  0  0  0  0  0  0  0999 V2000
   -1.1320   -1.5363   -6.2453 C   0  0  0  0  0  0  0  0  0  0  0  0
   -0.1203   -2.4001   -6.4430 C   0  0  0  0  0  0  0  0  0  0  0  0
    1.0101   -2.0344   -7.3049 C   0  0  0  0  0  0  0  0  0  0  0  0
    0.9389   -1.3609   -8.3673 O   0  0  0  0  0  0  0  0  0  0  0  0
    2.2443   -2.4210   -6.6331 C   0  0  0  0  0  0  0  0  0  0  0  0
    3.5615   -2.0118   -6.9503 C   0  0  0  0  0  0  0  0  0  0  0  0
    4.4948   -2.3296   -5.9776 C   0  0  0  0  0  0  0  0  0  0  0  0
    4.1592   -3.0166   -4.7646 C   0  0  0  0  0  0  0  0  0  0  0  0
    2.8785   -3.4324   -4.4541 C   0  0  0  0  0  0  0  0  0  0  0  0
    1.9117   -3.1222   -5.4445 C   0  0  0  0  0  0  0  0  0  0  0  0
    0.4439   -3.2676   -5.3804 C   0  0  0  0  0  0  0  0  0  0  0  0
   -0.2614   -4.1957   -4.6939 C   0  0  0  0  0  0  0  0  0  0  0  0
    0.3342   -5.0669   -3.7133 C   0  0  0  0  0  0  0  0  0  0  0  0
    0.7932   -5.7787   -2.9178 N   0  0  0  0  0  0  0  0  0  0  0  0
   -1.6310   -4.4806   -5.0449 C   0  0  0  0  0  0  0  0  0  0  0  0
   -2.7196   -4.7329   -5.3519 N   0  0  0  0  0  0  0  0  0  0  0  0
    5.5807   -2.9310   -4.3000 C   0  0  0  0  0  0  0  0  0  0  0  0
    6.4431   -4.2299   -4.3527 C   0  0  0  0  0  0  0  0  0  0  0  0
    5.9788   -5.1127   -5.4862 C   0  0  0  0  0  0  0  0  0  0  0  0
    6.2952   -4.4785   -6.6168 C   0  0  0  0  0  0  0  0  0  0  0  0
    6.9660   -3.1848   -6.2154 C   0  0  0  0  0  0  0  0  0  0  0  0
    7.7066   -3.6757   -4.9827 C   0  0  0  0  0  0  0  0  0  0  0  0
    5.9281   -2.2338   -5.5444 C   0  0  0  0  0  0  0  0  0  0  0  0
   -1.3792   -0.9344   -4.9100 C   0  0  0  0  0  0  0  0  0  0  0  0
   -0.3623   -0.6814   -3.9780 C   0  0  0  0  0  0  0  0  0  0  0  0
   -0.9945    0.0188   -2.9874 C   0  0  0  0  0  0  0  0  0  0  0  0
   -2.2773    0.1644   -3.3011 C   0  0  0  0  0  0  0  0  0  0  0  0
   -2.5780   -0.4238   -4.4832 N   0  0  0  0  0  0  0  0  0  0  0  0
   -3.8914   -0.7092   -5.0665 C   0  0  0  0  0  0  0  0  0  0  0  0
   -4.5407   -1.9068   -4.3652 C   0  0  0  0  0  0  0  0  0  0  0  0
   -2.9249    0.6105   -2.1643 C   0  0  0  0  0  0  0  0  0  0  0  0
   -4.2768    0.8403   -1.8572 C   0  0  0  0  0  0  0  0  0  0  0  0
   -4.6260    1.1791   -0.5198 C   0  0  0  0  0  0  0  0  0  0  0  0
   -5.9413    1.4020   -0.2590 N   0  0  0  0  0  0  0  0  0  0  0  0
   -6.5730    1.1575   -1.7679 S   0  0  0  0  0  0  0  0  0  0  0  0
   -5.2927    0.7920   -2.7519 N   0  0  0  0  0  0  0  0  0  0  0  0
   -3.6117    1.3279    0.4247 C   0  0  0  0  0  0  0  0  0  0  0  0
   -3.6690    1.8040    1.7004 C   0  0  0  0  0  0  0  0  0  0  0  0
   -4.8302    2.3786    2.7927 S   0  0  0  0  0  0  0  0  0  0  0  0
   -3.5995    2.8912    3.8550 C   0  0  0  0  0  0  0  0  0  0  0  0
   -3.6196    3.5428    5.0888 C   0  0  0  0  0  0  0  0  0  0  0  0
   -4.8865    3.8886    5.8269 C   0  0  0  0  0  0  0  0  0  0  0  0
   -5.2307    2.8116    6.8489 C   0  0  0  0  0  0  0  0  0  0  0  0
   -2.3114    3.7487    5.5731 C   0  0  0  0  0  0  0  0  0  0  0  0
   -1.1828    3.2081    4.4070 S   0  0  0  0  0  0  0  0  0  0  0  0
   -2.3517    2.6449    3.3440 C   0  0  0  0  0  0  0  0  0  0  0  0
   -2.3990    2.0099    2.1080 C   0  0  0  0  0  0  0  0  0  0  0  0
   -1.4799    1.6897    1.1575 N   0  0  0  0  0  0  0  0  0  0  0  0
   -2.2450    1.1976    0.1173 C   0  0  0  0  0  0  0  0  0  0  0  0
   -1.8960    0.7474   -1.1934 C   0  0  0  0  0  0  0  0  0  0  0  0
   -0.6927    0.3016   -1.7020 N   0  0  0  0  0  0  0  0  0  0  0  0
    0.4826   -0.2646   -1.0273 C   0  0  0  0  0  0  0  0  0  0  0  0
    0.0945   -1.3177    0.0089 C   0  0  0  0  0  0  0  0  0  0  0  0
   -0.0707    2.1016    1.2062 C   0  0  0  0  0  0  0  0  0  0  0  0
    0.2759    3.0787    0.0842 C   0  0  0  0  0  0  0  0  0  0  0  0
   -1.9913    4.4826    6.8132 C   0  0  0  0  0  0  0  0  0  0  0  0
   -1.0354    4.1468    7.7014 C   0  0  0  0  0  0  0  0  0  0  0  0
   -0.0217    3.0918    7.5656 C   0  0  0  0  0  0  0  0  0  0  0  0
   -0.1109    2.0474    6.8680 O   0  0  0  0  0  0  0  0  0  0  0  0
    1.0654    3.3956    8.4785 C   0  0  0  0  0  0  0  0  0  0  0  0
    0.7328    4.5015    9.2430 C   0  0  0  0  0  0  0  0  0  0  0  0
    1.6669    5.0349   10.1427 C   0  0  0  0  0  0  0  0  0  0  0  0
    2.9161    4.4055   10.2827 C   0  0  0  0  0  0  0  0  0  0  0  0
    3.8273    4.9066   11.1495 F   0  0  0  0  0  0  0  0  0  0  0  0
    3.2374    3.2770    9.5112 C   0  0  0  0  0  0  0  0  0  0  0  0
    4.4516    2.6898    9.6439 F   0  0  0  0  0  0  0  0  0  0  0  0
    2.3059    2.7650    8.5941 C   0  0  0  0  0  0  0  0  0  0  0  0
    2.6165    1.7005    7.8169 F   0  0  0  0  0  0  0  0  0  0  0  0
   -0.6477    4.9400    8.9064 C   0  0  0  0  0  0  0  0  0  0  0  0
   -1.4798    5.6691    9.6952 C   0  0  0  0  0  0  0  0  0  0  0  0
   -1.0376    6.2965   10.9102 C   0  0  0  0  0  0  0  0  0  0  0  0
   -0.6902    6.8117   11.8885 N   0  0  0  0  0  0  0  0  0  0  0  0
   -2.8967    5.7482    9.4502 C   0  0  0  0  0  0  0  0  0  0  0  0
   -4.0378    5.8110    9.2626 N   0  0  0  0  0  0  0  0  0  0  0  0
   -1.4911   -0.9613   -7.0893 H   0  0  0  0  0  0  0  0  0  0  0  0
    3.8078   -1.4352   -7.8317 H   0  0  0  0  0  0  0  0  0  0  0  0
    2.6531   -3.8753   -3.4978 H   0  0  0  0  0  0  0  0  0  0  0  0
    5.7192   -2.3051   -3.3892 H   0  0  0  0  0  0  0  0  0  0  0  0
    6.5830   -4.7418   -3.3786 H   0  0  0  0  0  0  0  0  0  0  0  0
    5.5342   -6.0988   -5.4106 H   0  0  0  0  0  0  0  0  0  0  0  0
    6.1609   -4.8637   -7.6226 H   0  0  0  0  0  0  0  0  0  0  0  0
    7.6033   -2.7214   -6.9998 H   0  0  0  0  0  0  0  0  0  0  0  0
    8.1746   -2.8537   -4.3909 H   0  0  0  0  0  0  0  0  0  0  0  0
    8.4694   -4.4616   -5.2036 H   0  0  0  0  0  0  0  0  0  0  0  0
    6.2827   -1.1895   -5.3882 H   0  0  0  0  0  0  0  0  0  0  0  0
    0.6833   -0.9533   -4.0294 H   0  0  0  0  0  0  0  0  0  0  0  0
   -4.5424    0.1850   -5.0155 H   0  0  0  0  0  0  0  0  0  0  0  0
   -3.7854   -0.9477   -6.1479 H   0  0  0  0  0  0  0  0  0  0  0  0
   -4.9420   -1.6292   -3.3703 H   0  0  0  0  0  0  0  0  0  0  0  0
   -5.3657   -2.3060   -4.9921 H   0  0  0  0  0  0  0  0  0  0  0  0
   -3.7889   -2.7026   -4.2035 H   0  0  0  0  0  0  0  0  0  0  0  0
   -5.7284    3.9893    5.1052 H   0  0  0  0  0  0  0  0  0  0  0  0
   -4.7782    4.8682    6.3423 H   0  0  0  0  0  0  0  0  0  0  0  0
   -5.3271    1.8269    6.3502 H   0  0  0  0  0  0  0  0  0  0  0  0
   -4.4378    2.7561    7.6250 H   0  0  0  0  0  0  0  0  0  0  0  0
   -6.1961    3.0582    7.3384 H   0  0  0  0  0  0  0  0  0  0  0  0
    1.1388   -0.7695   -1.7653 H   0  0  0  0  0  0  0  0  0  0  0  0
    1.1267    0.5289   -0.6190 H   0  0  0  0  0  0  0  0  0  0  0  0
   -0.5850   -0.8975    0.7746 H   0  0  0  0  0  0  0  0  0  0  0  0
   -0.4144   -2.1708   -0.4923 H   0  0  0  0  0  0  0  0  0  0  0  0
    1.0093   -1.6961    0.5148 H   0  0  0  0  0  0  0  0  0  0  0  0
    0.5858    1.2205    1.2578 H   0  0  0  0  0  0  0  0  0  0  0  0
    0.1430    2.6346    2.1485 H   0  0  0  0  0  0  0  0  0  0  0  0
   -0.3220    4.0080    0.2038 H   0  0  0  0  0  0  0  0  0  0  0  0
    0.0707    2.6584   -0.9180 H   0  0  0  0  0  0  0  0  0  0  0  0
    1.3549    3.3430    0.1443 H   0  0  0  0  0  0  0  0  0  0  0  0
   -2.5841    5.3669    6.9886 H   0  0  0  0  0  0  0  0  0  0  0  0
    1.4716    5.9294   10.7060 H   0  0  0  0  0  0  0  0  0  0  0  0
  1  2  2  3
  2  3  1  0
  3  4  2  0
  3  5  1  0
  5  6  2  0
  6  7  1  0
  7  8  2  0
  8  9  1  0
  9 10  2  0
 10 11  1  0
 11 12  2  3
 12 13  1  0
 13 14  3  0
 12 15  1  0
 15 16  3  0
  8 17  1  0
 17 18  1  0
 18 19  1  0
 19 20  2  0
 20 21  1  0
 21 22  1  0
 21 23  1  0
  1 24  1  0
 24 25  2  0
 25 26  1  0
 26 27  2  0
 27 28  1  0
 28 29  1  0
 29 30  1  0
 27 31  1  0
 31 32  1  0
 32 33  1  0
 33 34  2  0
 34 35  1  0
 35 36  1  0
 33 37  1  0
 37 38  1  0
 38 39  1  0
 39 40  1  0
 40 41  1  0
 41 42  1  0
 42 43  1  0
 41 44  2  0
 44 45  1  0
 45 46  1  0
 46 47  1  0
 47 48  1  0
 48 49  1  0
 49 50  1  0
 50 51  1  0
 51 52  1  0
 52 53  1  0
 48 54  1  0
 54 55  1  0
 44 56  1  0
 56 57  2  3
 57 58  1  0
 58 59  2  0
 58 60  1  0
 60 61  2  0
 61 62  1  0
 62 63  2  0
 63 64  1  0
 63 65  1  0
 65 66  1  0
 65 67  2  0
 67 68  1  0
 61 69  1  0
 69 70  2  3
 70 71  1  0
 71 72  3  0
 70 73  1  0
 73 74  3  0
 11  2  1  0
 23 17  1  0
 28 24  1  0
 50 31  2  0
 69 57  1  0
 10  5  1  0
 22 18  1  0
 51 26  1  0
 67 60  1  0
 23  7  1  0
 36 32  2  0
 49 37  2  0
 47 38  2  0
 46 40  2  0
  1 75  1  0
  6 76  1  0
  9 77  1  0
 17 78  1  0
 18 79  1  0
 19 80  1  0
 20 81  1  0
 21 82  1  0
 22 83  1  0
 22 84  1  0
 23 85  1  0
 25 86  1  0
 29 87  1  0
 29 88  1  0
 30 89  1  0
 30 90  1  0
 30 91  1  0
 42 92  1  0
 42 93  1  0
 43 94  1  0
 43 95  1  0
 43 96  1  0
 52 97  1  0
 52 98  1  0
 53 99  1  0
 53100  1  0
 53101  1  0
 54102  1  0
 54103  1  0
 55104  1  0
 55105  1  0
 55106  1  0
 56107  1  0
 62108  1  0
M  END

