
     RDKit          3D

 95109  0  0  0  0  0  0  0  0999 V2000
    4.1212   -3.7822    0.5264 C   0  0  0  0  0  0  0  0  0  0  0  0
    3.7109   -5.0124    0.3395 C   0  0  0  0  0  0  0  0  0  0  0  0
    2.3857   -5.6217    0.4716 C   0  0  0  0  0  0  0  0  0  0  0  0
    1.3160   -4.9510    0.6221 O   0  0  0  0  0  0  0  0  0  0  0  0
    2.4507   -7.0549    0.3981 C   0  0  0  0  0  0  0  0  0  0  0  0
    1.4955   -8.0779    0.4037 C   0  0  0  0  0  0  0  0  0  0  0  0
    1.8188   -9.4437    0.2379 C   0  0  0  0  0  0  0  0  0  0  0  0
    3.1406   -9.7027    0.0742 C   0  0  0  0  0  0  0  0  0  0  0  0
    4.1108   -8.7296    0.0554 C   0  0  0  0  0  0  0  0  0  0  0  0
    3.7605   -7.4046    0.2228 C   0  0  0  0  0  0  0  0  0  0  0  0
    4.6259   -6.1644    0.1772 C   0  0  0  0  0  0  0  0  0  0  0  0
    5.8521   -6.1861   -0.1282 C   0  0  0  0  0  0  0  0  0  0  0  0
    6.9902   -5.5224   -0.4848 C   0  0  0  0  0  0  0  0  0  0  0  0
    7.9184   -4.9692   -0.7680 N   0  0  0  0  0  0  0  0  0  0  0  0
    6.4251   -7.4745    0.6964 C   0  0  0  0  0  0  0  0  0  0  0  0
    6.8300   -8.4194    1.2854 N   0  0  0  0  0  0  0  0  0  0  0  0
    2.8567  -11.1563    0.0953 C   0  0  0  0  0  0  0  0  0  0  0  0
    3.0463  -11.9369   -1.1287 C   0  0  0  0  0  0  0  0  0  0  0  0
    2.9201  -11.0262   -2.3363 C   0  0  0  0  0  0  0  0  0  0  0  0
    1.7195  -10.4736   -2.2598 C   0  0  0  0  0  0  0  0  0  0  0  0
    0.9250  -11.2322   -1.2891 C   0  0  0  0  0  0  0  0  0  0  0  0
    1.6681  -12.5993   -1.3219 C   0  0  0  0  0  0  0  0  0  0  0  0
    1.3664  -10.8359    0.1118 C   0  0  0  0  0  0  0  0  0  0  0  0
    3.2602   -2.6862    0.9672 C   0  0  0  0  0  0  0  0  0  0  0  0
    2.5621   -2.6137    2.1426 C   0  0  0  0  0  0  0  0  0  0  0  0
    1.8709   -1.4163    2.4144 C   0  0  0  0  0  0  0  0  0  0  0  0
    0.6782   -1.1250    3.7586 S   0  0  0  0  0  0  0  0  0  0  0  0
    0.2129    0.4134    3.1779 C   0  0  0  0  0  0  0  0  0  0  0  0
   -0.6303    1.4572    3.4575 C   0  0  0  0  0  0  0  0  0  0  0  0
   -1.6278    1.5472    4.4341 C   0  0  0  0  0  0  0  0  0  0  0  0
   -2.4443    2.6303    4.4239 C   0  0  0  0  0  0  0  0  0  0  0  0
   -3.4054    2.6530    5.3597 N   0  0  0  0  0  0  0  0  0  0  0  0
   -3.1939    1.2466    6.2216 S   0  0  0  0  0  0  0  0  0  0  0  0
   -1.8802    0.6403    5.3754 N   0  0  0  0  0  0  0  0  0  0  0  0
   -2.2051    3.5997    3.4515 C   0  0  0  0  0  0  0  0  0  0  0  0
   -2.7969    4.8208    3.2478 C   0  0  0  0  0  0  0  0  0  0  0  0
   -2.1941    5.4880    2.2489 C   0  0  0  0  0  0  0  0  0  0  0  0
   -1.1714    4.6399    1.8014 N   0  0  0  0  0  0  0  0  0  0  0  0
   -0.0706    5.0925    0.9809 C   0  0  0  0  0  0  0  0  0  0  0  0
    1.2000    5.2649    1.8159 C   0  0  0  0  0  0  0  0  0  0  0  0
   -1.1858    3.5029    2.5011 C   0  0  0  0  0  0  0  0  0  0  0  0
   -0.3615    2.3787    2.4565 C   0  0  0  0  0  0  0  0  0  0  0  0
    0.5808    1.8718    1.6173 N   0  0  0  0  0  0  0  0  0  0  0  0
    0.9640    0.6313    2.0368 C   0  0  0  0  0  0  0  0  0  0  0  0
    1.7739   -0.4582    1.8108 C   0  0  0  0  0  0  0  0  0  0  0  0
    2.9255   -1.0039    0.2115 Se  0  0  0  0  0  2  0  0  0  0  0  0
    0.9571    2.3265    0.3269 C   0  0  0  0  0  0  0  0  0  0  0  0
    0.4954    1.3277   -0.7757 C   0  0  0  0  0  0  0  0  0  0  0  0
   -2.7423    6.6063    1.9323 C   0  0  0  0  0  0  0  0  0  0  0  0
   -3.8043    7.1227    2.4802 C   0  0  0  0  0  0  0  0  0  0  0  0
   -4.1094    5.8284    3.6824 S   0  0  0  0  0  0  0  0  0  0  0  0
   -4.4219    8.2510    2.1408 C   0  0  0  0  0  0  0  0  0  0  0  0
   -4.0859    9.0949    1.1771 C   0  0  0  0  0  0  0  0  0  0  0  0
   -2.4654    8.1314    0.5178 Se  0  0  0  0  0  2  0  0  0  0  0  0
   -4.5400   10.3069    0.6281 C   0  0  0  0  0  0  0  0  0  0  0  0
   -4.7985   10.5878   -0.6263 C   0  0  0  0  0  0  0  0  0  0  0  0
   -5.2452   11.8961   -1.0925 C   0  0  0  0  0  0  0  0  0  0  0  0
   -5.4994   12.8631   -0.3246 O   0  0  0  0  0  0  0  0  0  0  0  0
   -5.3410   11.8619   -2.5898 C   0  0  0  0  0  0  0  0  0  0  0  0
   -5.7310   12.8107   -3.5109 C   0  0  0  0  0  0  0  0  0  0  0  0
   -5.6035   11.9937   -4.9855 S   0  0  0  0  0  0  0  0  0  0  0  0
   -5.0601   10.4804   -4.4340 C   0  0  0  0  0  0  0  0  0  0  0  0
   -4.9950   10.6625   -3.0380 C   0  0  0  0  0  0  0  0  0  0  0  0
   -4.6363    9.7728   -1.8759 C   0  0  0  0  0  0  0  0  0  0  0  0
   -4.5935    8.4771   -1.8906 C   0  0  0  0  0  0  0  0  0  0  0  0
   -4.6165    7.2589   -1.5027 C   0  0  0  0  0  0  0  0  0  0  0  0
   -4.6318    6.1602   -1.1549 N   0  0  0  0  0  0  0  0  0  0  0  0
   -3.5025    8.3680   -3.2127 C   0  0  0  0  0  0  0  0  0  0  0  0
   -2.8180    8.2852   -4.0640 N   0  0  0  0  0  0  0  0  0  0  0  0
    5.1880   -3.5301    0.3597 H   0  0  0  0  0  0  0  0  0  0  0  0
    0.4835   -7.7450    0.5368 H   0  0  0  0  0  0  0  0  0  0  0  0
    5.1053   -9.0057   -0.1643 H   0  0  0  0  0  0  0  0  0  0  0  0
    3.2177  -11.6421    1.0495 H   0  0  0  0  0  0  0  0  0  0  0  0
    3.8622  -12.6369   -1.1854 H   0  0  0  0  0  0  0  0  0  0  0  0
    3.7076  -10.9207   -3.0586 H   0  0  0  0  0  0  0  0  0  0  0  0
    1.3780   -9.5896   -2.8294 H   0  0  0  0  0  0  0  0  0  0  0  0
   -0.1254  -11.3390   -1.4393 H   0  0  0  0  0  0  0  0  0  0  0  0
    1.5666  -13.0606   -2.2960 H   0  0  0  0  0  0  0  0  0  0  0  0
    1.4178  -13.2101   -0.4430 H   0  0  0  0  0  0  0  0  0  0  0  0
    0.8185  -11.2512    0.9619 H   0  0  0  0  0  0  0  0  0  0  0  0
    2.5740   -3.4886    2.8127 H   0  0  0  0  0  0  0  0  0  0  0  0
   -0.0390    4.9268   -0.0514 H   0  0  0  0  0  0  0  0  0  0  0  0
   -0.3079    6.2561    0.9035 H   0  0  0  0  0  0  0  0  0  0  0  0
    2.1113    5.3691    1.2504 H   0  0  0  0  0  0  0  0  0  0  0  0
    1.1281    6.1216    2.5306 H   0  0  0  0  0  0  0  0  0  0  0  0
    1.2330    4.3870    2.5158 H   0  0  0  0  0  0  0  0  0  0  0  0
    0.5548    3.2172   -0.0539 H   0  0  0  0  0  0  0  0  0  0  0  0
    2.0992    2.2494    0.2501 H   0  0  0  0  0  0  0  0  0  0  0  0
   -0.2370    1.8876   -1.3860 H   0  0  0  0  0  0  0  0  0  0  0  0
   -0.0677    0.5205   -0.3180 H   0  0  0  0  0  0  0  0  0  0  0  0
    1.3344    1.1345   -1.4115 H   0  0  0  0  0  0  0  0  0  0  0  0
   -5.4016    8.5943    2.7120 H   0  0  0  0  0  0  0  0  0  0  0  0
   -4.7173   11.1206    1.3615 H   0  0  0  0  0  0  0  0  0  0  0  0
   -6.0823   13.8596   -3.3774 H   0  0  0  0  0  0  0  0  0  0  0  0
   -4.8479    9.5866   -5.0336 H   0  0  0  0  0  0  0  0  0  0  0  0
  1  2  2  3
  2  3  1  0
  3  4  2  0
  3  5  1  0
  5  6  2  0
  6  7  1  0
  7  8  2  0
  8  9  1  0
  9 10  2  0
 10 11  1  0
 11 12  2  3
 12 13  1  0
 13 14  3  0
 12 15  1  0
 15 16  3  0
  8 17  1  0
 17 18  1  0
 18 19  1  0
 19 20  2  0
 20 21  1  0
 21 22  1  0
 21 23  1  0
  1 24  1  0
 24 25  2  0
 25 26  1  0
 26 27  1  0
 27 28  1  0
 28 29  1  0
 29 30  1  0
 30 31  1  0
 31 32  2  0
 32 33  1  0
 33 34  1  0
 31 35  1  0
 35 36  1  0
 36 37  2  0
 37 38  1  0
 38 39  1  0
 39 40  1  0
 38 41  1  0
 41 42  1  0
 42 43  1  0
 43 44  1  0
 44 45  1  0
 45 46  1  0
 43 47  1  0
 47 48  1  0
 37 49  1  0
 49 50  2  0
 50 51  1  0
 50 52  1  0
 52 53  2  0
 53 54  1  0
 53 55  1  0
 55 56  2  3
 56 57  1  0
 57 58  2  0
 57 59  1  0
 59 60  2  0
 60 61  1  0
 61 62  1  0
 62 63  2  0
 63 64  1  0
 64 65  2  3
 65 66  1  0
 66 67  3  0
 65 68  1  0
 68 69  3  0
 11  2  1  0
 23 17  1  0
 46 24  1  0
 54 49  1  0
 64 56  1  0
 10  5  1  0
 22 18  1  0
 45 26  2  0
 63 59  1  0
 23  7  1  0
 44 28  2  0
 42 29  2  0
 34 30  2  0
 41 35  2  0
 51 36  1  0
  1 70  1  0
  6 71  1  0
  9 72  1  0
 17 73  1  0
 18 74  1  0
 19 75  1  0
 20 76  1  0
 21 77  1  0
 22 78  1  0
 22 79  1  0
 23 80  1  0
 25 81  1  0
 39 82  1  0
 39 83  1  0
 40 84  1  0
 40 85  1  0
 40 86  1  0
 47 87  1  0
 47 88  1  0
 48 89  1  0
 48 90  1  0
 48 91  1  0
 52 92  1  0
 55 93  1  0
 60 94  1  0
 62 95  1  0
M  END

