
     RDKit          3D

127143  0  0  0  0  0  0  0  0999 V2000
    1.1953    5.5448   -4.4731 C   0  0  0  0  0  0  0  0  0  0  0  0
    1.0938    4.5764   -5.4221 C   0  0  0  0  0  0  0  0  0  0  0  0
    1.6298    4.7638   -6.7813 C   0  0  0  0  0  0  0  0  0  0  0  0
    2.3751    5.6841   -7.1749 O   0  0  0  0  0  0  0  0  0  0  0  0
    1.0528    3.7206   -7.6417 C   0  0  0  0  0  0  0  0  0  0  0  0
    1.4937    3.3910   -8.9432 C   0  0  0  0  0  0  0  0  0  0  0  0
    0.8972    2.2242   -9.4494 C   0  0  0  0  0  0  0  0  0  0  0  0
   -0.0567    1.4926   -8.6992 C   0  0  0  0  0  0  0  0  0  0  0  0
   -0.4757    1.8153   -7.4309 C   0  0  0  0  0  0  0  0  0  0  0  0
    0.1998    2.9170   -6.8736 C   0  0  0  0  0  0  0  0  0  0  0  0
    0.3074    3.2915   -5.4396 C   0  0  0  0  0  0  0  0  0  0  0  0
    0.3375    2.3343   -4.4626 C   0  0  0  0  0  0  0  0  0  0  0  0
   -0.6200    1.2878   -4.4419 C   0  0  0  0  0  0  0  0  0  0  0  0
   -1.4338    0.4200   -4.5114 N   0  0  0  0  0  0  0  0  0  0  0  0
    1.3316    2.3371   -3.4551 C   0  0  0  0  0  0  0  0  0  0  0  0
    2.1146    2.3101   -2.5896 N   0  0  0  0  0  0  0  0  0  0  0  0
   -0.0941    0.4244   -9.7628 C   0  0  0  0  0  0  0  0  0  0  0  0
    0.6515   -0.9059   -9.3726 C   0  0  0  0  0  0  0  0  0  0  0  0
    0.8216   -1.6729  -10.6547 C   0  0  0  0  0  0  0  0  0  0  0  0
    1.7211   -1.0052  -11.3863 C   0  0  0  0  0  0  0  0  0  0  0  0
    2.1226    0.1831  -10.5825 C   0  0  0  0  0  0  0  0  0  0  0  0
    2.0986   -0.4482   -9.1647 C   0  0  0  0  0  0  0  0  0  0  0  0
    0.9133    1.1650  -10.5246 C   0  0  0  0  0  0  0  0  0  0  0  0
    0.6530    5.4837   -3.0680 C   0  0  0  0  0  0  0  0  0  0  0  0
    1.2823    6.0543   -1.9499 C   0  0  0  0  0  0  0  0  0  0  0  0
    2.1960    7.1910   -2.0951 C   0  0  0  0  0  0  0  0  0  0  0  0
    3.4642    7.1903   -1.4937 C   0  0  0  0  0  0  0  0  0  0  0  0
    4.3146    8.2949   -1.6413 C   0  0  0  0  0  0  0  0  0  0  0  0
    3.8833    9.4136   -2.3697 C   0  0  0  0  0  0  0  0  0  0  0  0
    4.7496   10.6264   -2.5084 C   0  0  0  0  0  0  0  0  0  0  0  0
    4.2591   11.7564   -1.5971 C   0  0  0  0  0  0  0  0  0  0  0  0
    2.6075    9.4130   -2.9535 C   0  0  0  0  0  0  0  0  0  0  0  0
    1.7723    8.3187   -2.8042 C   0  0  0  0  0  0  0  0  0  0  0  0
    0.8236    5.5027   -0.7480 C   0  0  0  0  0  0  0  0  0  0  0  0
    1.4724    5.3860    0.8143 S   0  0  0  0  0  0  0  0  0  0  0  0
    0.3797    4.0890    1.2105 C   0  0  0  0  0  0  0  0  0  0  0  0
    0.2345    3.1109    2.1768 C   0  0  0  0  0  0  0  0  0  0  0  0
    0.8130    2.9300    3.4438 C   0  0  0  0  0  0  0  0  0  0  0  0
    0.4477    1.7236    4.1894 C   0  0  0  0  0  0  0  0  0  0  0  0
    1.0401    1.5878    5.4184 N   0  0  0  0  0  0  0  0  0  0  0  0
    1.9158    3.0026    5.4131 S   0  0  0  0  0  0  0  0  0  0  0  0
    1.6717    3.8179    4.0028 N   0  0  0  0  0  0  0  0  0  0  0  0
   -0.4169    0.7996    3.5709 C   0  0  0  0  0  0  0  0  0  0  0  0
   -0.7556   -0.4564    3.9801 C   0  0  0  0  0  0  0  0  0  0  0  0
   -0.3815   -1.6035    5.2065 S   0  0  0  0  0  0  0  0  0  0  0  0
   -1.1583   -2.8641    4.2946 C   0  0  0  0  0  0  0  0  0  0  0  0
   -1.2557   -4.2368    4.4829 C   0  0  0  0  0  0  0  0  0  0  0  0
   -0.9895   -4.9478    5.7306 C   0  0  0  0  0  0  0  0  0  0  0  0
   -1.6239   -4.5679    6.9101 C   0  0  0  0  0  0  0  0  0  0  0  0
   -1.4295   -5.3003    8.0828 C   0  0  0  0  0  0  0  0  0  0  0  0
   -0.5772   -6.4326    8.1028 C   0  0  0  0  0  0  0  0  0  0  0  0
   -0.3879   -7.2404    9.3416 C   0  0  0  0  0  0  0  0  0  0  0  0
   -1.5050   -8.2779    9.4352 C   0  0  0  0  0  0  0  0  0  0  0  0
    0.0762   -6.7977    6.9039 C   0  0  0  0  0  0  0  0  0  0  0  0
   -0.1331   -6.0671    5.7253 C   0  0  0  0  0  0  0  0  0  0  0  0
   -1.8715   -4.8549    3.4093 C   0  0  0  0  0  0  0  0  0  0  0  0
   -2.2647   -3.6744    2.1784 S   0  0  0  0  0  0  0  0  0  0  0  0
   -1.6048   -2.4229    3.0837 C   0  0  0  0  0  0  0  0  0  0  0  0
   -1.4048   -1.0290    2.9340 C   0  0  0  0  0  0  0  0  0  0  0  0
   -1.5214   -0.2304    1.8592 N   0  0  0  0  0  0  0  0  0  0  0  0
   -0.9607    0.9712    2.2876 C   0  0  0  0  0  0  0  0  0  0  0  0
   -0.6689    2.1758    1.5792 C   0  0  0  0  0  0  0  0  0  0  0  0
   -1.1449    2.6105    0.3513 N   0  0  0  0  0  0  0  0  0  0  0  0
   -0.4266    3.7688    0.1687 C   0  0  0  0  0  0  0  0  0  0  0  0
   -0.2293    4.5822   -0.9150 C   0  0  0  0  0  0  0  0  0  0  0  0
   -0.6330    4.4855   -2.5424 S   0  0  0  0  0  0  0  0  0  0  0  0
   -2.4782    2.4643   -0.1422 C   0  0  0  0  0  0  0  0  0  0  0  0
   -2.5180    1.9073   -1.5589 C   0  0  0  0  0  0  0  0  0  0  0  0
   -1.6500   -0.7124    0.5011 C   0  0  0  0  0  0  0  0  0  0  0  0
   -0.2812   -0.8414   -0.2022 C   0  0  0  0  0  0  0  0  0  0  0  0
   -2.2280   -6.2888    3.2321 C   0  0  0  0  0  0  0  0  0  0  0  0
   -3.4859   -6.7256    3.1816 C   0  0  0  0  0  0  0  0  0  0  0  0
   -4.6774   -6.0441    3.7771 C   0  0  0  0  0  0  0  0  0  0  0  0
   -4.6570   -5.1108    4.6532 O   0  0  0  0  0  0  0  0  0  0  0  0
   -5.8358   -6.8392    3.4240 C   0  0  0  0  0  0  0  0  0  0  0  0
   -7.5374   -6.7013    3.4687 S   0  0  0  0  0  0  0  0  0  0  0  0
   -7.7668   -8.0460    2.4443 C   0  0  0  0  0  0  0  0  0  0  0  0
   -6.5306   -8.5890    2.0787 C   0  0  0  0  0  0  0  0  0  0  0  0
   -5.4674   -7.9168    2.7092 C   0  0  0  0  0  0  0  0  0  0  0  0
   -4.0055   -7.9968    2.4958 C   0  0  0  0  0  0  0  0  0  0  0  0
   -3.2873   -9.1023    2.1608 C   0  0  0  0  0  0  0  0  0  0  0  0
   -3.9818  -10.3641    1.9948 C   0  0  0  0  0  0  0  0  0  0  0  0
   -4.5536  -11.3657    1.8545 N   0  0  0  0  0  0  0  0  0  0  0  0
   -1.8999   -9.0720    1.8056 C   0  0  0  0  0  0  0  0  0  0  0  0
   -0.7781   -9.0150    1.4707 N   0  0  0  0  0  0  0  0  0  0  0  0
    1.7938    6.4010   -4.7116 H   0  0  0  0  0  0  0  0  0  0  0  0
    2.2438    3.9450   -9.4906 H   0  0  0  0  0  0  0  0  0  0  0  0
   -1.1866    1.1523   -6.9249 H   0  0  0  0  0  0  0  0  0  0  0  0
   -1.0695    0.3062  -10.2501 H   0  0  0  0  0  0  0  0  0  0  0  0
    0.1982   -1.4706   -8.5355 H   0  0  0  0  0  0  0  0  0  0  0  0
    0.4139   -2.6564  -10.9054 H   0  0  0  0  0  0  0  0  0  0  0  0
    2.1315   -1.3294  -12.3317 H   0  0  0  0  0  0  0  0  0  0  0  0
    3.1034    0.6563  -10.8503 H   0  0  0  0  0  0  0  0  0  0  0  0
    2.8206   -1.2550   -9.0381 H   0  0  0  0  0  0  0  0  0  0  0  0
    2.2117    0.2667   -8.3330 H   0  0  0  0  0  0  0  0  0  0  0  0
    0.5779    1.5460  -11.5533 H   0  0  0  0  0  0  0  0  0  0  0  0
    3.8331    6.2927   -0.9517 H   0  0  0  0  0  0  0  0  0  0  0  0
    5.3109    8.2835   -1.1778 H   0  0  0  0  0  0  0  0  0  0  0  0
    5.8171   10.3913   -2.2800 H   0  0  0  0  0  0  0  0  0  0  0  0
    4.7354   10.9881   -3.5629 H   0  0  0  0  0  0  0  0  0  0  0  0
    3.9639   11.3550   -0.6007 H   0  0  0  0  0  0  0  0  0  0  0  0
    3.3589   12.2467   -2.0567 H   0  0  0  0  0  0  0  0  0  0  0  0
    5.0616   12.5179   -1.4530 H   0  0  0  0  0  0  0  0  0  0  0  0
    2.2715   10.2921   -3.5015 H   0  0  0  0  0  0  0  0  0  0  0  0
    0.8084    8.3461   -3.2763 H   0  0  0  0  0  0  0  0  0  0  0  0
   -2.3002   -3.7059    6.9262 H   0  0  0  0  0  0  0  0  0  0  0  0
   -1.9607   -5.0060    9.0016 H   0  0  0  0  0  0  0  0  0  0  0  0
   -0.4163   -6.5998   10.2318 H   0  0  0  0  0  0  0  0  0  0  0  0
    0.5513   -7.7777    9.2926 H   0  0  0  0  0  0  0  0  0  0  0  0
   -2.4725   -7.8048    9.7784 H   0  0  0  0  0  0  0  0  0  0  0  0
   -1.2258   -9.0531   10.1817 H   0  0  0  0  0  0  0  0  0  0  0  0
   -1.6966   -8.7821    8.4616 H   0  0  0  0  0  0  0  0  0  0  0  0
    0.7260   -7.6464    6.8963 H   0  0  0  0  0  0  0  0  0  0  0  0
    0.3888   -6.3851    4.8218 H   0  0  0  0  0  0  0  0  0  0  0  0
   -3.0912    1.8477    0.5691 H   0  0  0  0  0  0  0  0  0  0  0  0
   -2.9851    3.4549   -0.1319 H   0  0  0  0  0  0  0  0  0  0  0  0
   -2.6187    2.7049   -2.2899 H   0  0  0  0  0  0  0  0  0  0  0  0
   -1.5887    1.3278   -1.7951 H   0  0  0  0  0  0  0  0  0  0  0  0
   -3.4014    1.2275   -1.6823 H   0  0  0  0  0  0  0  0  0  0  0  0
   -2.3778   -0.1178   -0.0845 H   0  0  0  0  0  0  0  0  0  0  0  0
   -2.1036   -1.7008    0.4738 H   0  0  0  0  0  0  0  0  0  0  0  0
    0.1961    0.1679   -0.3009 H   0  0  0  0  0  0  0  0  0  0  0  0
    0.3574   -1.4653    0.4199 H   0  0  0  0  0  0  0  0  0  0  0  0
   -0.4245   -1.2838   -1.2175 H   0  0  0  0  0  0  0  0  0  0  0  0
   -1.4018   -6.8930    2.9449 H   0  0  0  0  0  0  0  0  0  0  0  0
   -8.7080   -8.4092    2.0501 H   0  0  0  0  0  0  0  0  0  0  0  0
   -6.4070   -9.3623    1.3229 H   0  0  0  0  0  0  0  0  0  0  0  0
  1  2  2  3
  2  3  1  0
  3  4  2  0
  3  5  1  0
  5  6  2  0
  6  7  1  0
  7  8  2  0
  8  9  1  0
  9 10  2  0
 10 11  1  0
 11 12  2  3
 12 13  1  0
 13 14  3  0
 12 15  1  0
 15 16  3  0
  8 17  1  0
 17 18  1  0
 18 19  1  0
 19 20  2  0
 20 21  1  0
 21 22  1  0
 21 23  1  0
  1 24  1  0
 24 25  2  0
 25 26  1  0
 26 27  2  0
 27 28  1  0
 28 29  2  0
 29 30  1  0
 30 31  1  0
 29 32  1  0
 32 33  2  0
 25 34  1  0
 34 35  1  0
 35 36  1  0
 36 37  1  0
 37 38  1  0
 38 39  1  0
 39 40  2  0
 40 41  1  0
 41 42  1  0
 39 43  1  0
 43 44  1  0
 44 45  1  0
 45 46  1  0
 46 47  1  0
 47 48  1  0
 48 49  2  0
 49 50  1  0
 50 51  2  0
 51 52  1  0
 52 53  1  0
 51 54  1  0
 54 55  2  0
 47 56  2  0
 56 57  1  0
 57 58  1  0
 58 59  1  0
 59 60  1  0
 60 61  1  0
 61 62  1  0
 62 63  1  0
 63 64  1  0
 64 65  1  0
 65 66  1  0
 63 67  1  0
 67 68  1  0
 60 69  1  0
 69 70  1  0
 56 71  1  0
 71 72  2  3
 72 73  1  0
 73 74  2  0
 73 75  1  0
 75 76  1  0
 76 77  1  0
 77 78  2  0
 78 79  1  0
 79 80  1  0
 80 81  2  3
 81 82  1  0
 82 83  3  0
 81 84  1  0
 84 85  3  0
 11  2  1  0
 23 17  1  0
 66 24  1  0
 80 72  1  0
 10  5  1  0
 22 18  1  0
 33 26  1  0
 65 34  2  0
 79 75  2  0
 23  7  1  0
 64 36  2  0
 62 37  2  0
 42 38  2  0
 61 43  2  0
 59 44  2  0
 58 46  2  0
 55 48  1  0
  1 86  1  0
  6 87  1  0
  9 88  1  0
 17 89  1  0
 18 90  1  0
 19 91  1  0
 20 92  1  0
 21 93  1  0
 22 94  1  0
 22 95  1  0
 23 96  1  0
 27 97  1  0
 28 98  1  0
 30 99  1  0
 30100  1  0
 31101  1  0
 31102  1  0
 31103  1  0
 32104  1  0
 33105  1  0
 49106  1  0
 50107  1  0
 52108  1  0
 52109  1  0
 53110  1  0
 53111  1  0
 53112  1  0
 54113  1  0
 55114  1  0
 67115  1  0
 67116  1  0
 68117  1  0
 68118  1  0
 68119  1  0
 69120  1  0
 69121  1  0
 70122  1  0
 70123  1  0
 70124  1  0
 71125  1  0
 77126  1  0
 78127  1  0
M  END

