
     RDKit          3D

127143  0  0  0  0  0  0  0  0999 V2000
    2.0392   -3.8452    5.3663 C   0  0  0  0  0  0  0  0  0  0  0  0
    1.2471   -3.2016    6.2460 C   0  0  0  0  0  0  0  0  0  0  0  0
    0.2891   -2.1363    5.9212 C   0  0  0  0  0  0  0  0  0  0  0  0
   -0.3983   -2.0403    4.8696 O   0  0  0  0  0  0  0  0  0  0  0  0
    0.0944   -1.3261    7.0999 C   0  0  0  0  0  0  0  0  0  0  0  0
   -0.4798   -0.0359    7.1463 C   0  0  0  0  0  0  0  0  0  0  0  0
   -0.3281    0.5869    8.3686 C   0  0  0  0  0  0  0  0  0  0  0  0
    0.3276   -0.0267    9.4899 C   0  0  0  0  0  0  0  0  0  0  0  0
    0.8861   -1.2936    9.4489 C   0  0  0  0  0  0  0  0  0  0  0  0
    0.7400   -1.9499    8.1977 C   0  0  0  0  0  0  0  0  0  0  0  0
    1.3563   -3.2181    7.7384 C   0  0  0  0  0  0  0  0  0  0  0  0
    1.6560   -4.2776    8.5280 C   0  0  0  0  0  0  0  0  0  0  0  0
    2.1226   -5.5307    7.9941 C   0  0  0  0  0  0  0  0  0  0  0  0
    2.4999   -6.5383    7.5702 N   0  0  0  0  0  0  0  0  0  0  0  0
    1.2715   -4.2987    9.9242 C   0  0  0  0  0  0  0  0  0  0  0  0
    0.8850   -4.3426   11.0039 N   0  0  0  0  0  0  0  0  0  0  0  0
    0.1605    1.2280   10.2921 C   0  0  0  0  0  0  0  0  0  0  0  0
    1.4310    2.1008   10.5239 C   0  0  0  0  0  0  0  0  0  0  0  0
    2.3874    1.9413    9.3635 C   0  0  0  0  0  0  0  0  0  0  0  0
    1.8071    2.5177    8.3108 C   0  0  0  0  0  0  0  0  0  0  0  0
    0.4712    3.0450    8.7894 C   0  0  0  0  0  0  0  0  0  0  0  0
    0.8699    3.4709   10.1908 C   0  0  0  0  0  0  0  0  0  0  0  0
   -0.4883    1.8624    9.1390 C   0  0  0  0  0  0  0  0  0  0  0  0
    2.0840   -3.5617    3.9131 C   0  0  0  0  0  0  0  0  0  0  0  0
    2.3636   -4.5139    2.9125 C   0  0  0  0  0  0  0  0  0  0  0  0
    2.5626   -5.9474    3.1749 C   0  0  0  0  0  0  0  0  0  0  0  0
    1.4471   -6.7336    3.5030 C   0  0  0  0  0  0  0  0  0  0  0  0
    1.5999   -8.0833    3.8184 C   0  0  0  0  0  0  0  0  0  0  0  0
    2.8718   -8.6619    3.8243 C   0  0  0  0  0  0  0  0  0  0  0  0
    3.9918   -7.8877    3.5090 C   0  0  0  0  0  0  0  0  0  0  0  0
    3.8529   -6.5298    3.1720 C   0  0  0  0  0  0  0  0  0  0  0  0
    5.1008   -5.7070    2.9278 C   0  0  0  0  0  0  0  0  0  0  0  0
    5.5392   -4.9884    4.2026 C   0  0  0  0  0  0  0  0  0  0  0  0
    2.3760   -3.9258    1.6438 C   0  0  0  0  0  0  0  0  0  0  0  0
    2.4775   -4.5278    0.0406 S   0  0  0  0  0  0  0  0  0  0  0  0
    2.2090   -2.9675   -0.5956 C   0  0  0  0  0  0  0  0  0  0  0  0
    1.7471   -2.4278   -1.7639 C   0  0  0  0  0  0  0  0  0  0  0  0
    1.4788   -3.0075   -3.0126 C   0  0  0  0  0  0  0  0  0  0  0  0
    0.7826   -2.2374   -3.9889 C   0  0  0  0  0  0  0  0  0  0  0  0
    0.4998   -2.8498   -5.1711 N   0  0  0  0  0  0  0  0  0  0  0  0
    1.1589   -4.3383   -4.8759 S   0  0  0  0  0  0  0  0  0  0  0  0
    1.7908   -4.2872   -3.3431 N   0  0  0  0  0  0  0  0  0  0  0  0
    0.4131   -0.9249   -3.6775 C   0  0  0  0  0  0  0  0  0  0  0  0
   -0.2444    0.0417   -4.3815 C   0  0  0  0  0  0  0  0  0  0  0  0
   -1.1492    0.1962   -5.8091 S   0  0  0  0  0  0  0  0  0  0  0  0
   -1.6612    1.7600   -5.3175 C   0  0  0  0  0  0  0  0  0  0  0  0
   -2.7142    2.5589   -5.7530 C   0  0  0  0  0  0  0  0  0  0  0  0
   -3.5300    2.3074   -6.9635 C   0  0  0  0  0  0  0  0  0  0  0  0
   -3.6516    3.3008   -7.9720 C   0  0  0  0  0  0  0  0  0  0  0  0
   -2.7920    4.5451   -7.9884 C   0  0  0  0  0  0  0  0  0  0  0  0
   -1.4220    4.2165   -8.5620 C   0  0  0  0  0  0  0  0  0  0  0  0
   -4.5204    3.0823   -9.0511 C   0  0  0  0  0  0  0  0  0  0  0  0
   -5.3004    1.9235   -9.1082 C   0  0  0  0  0  0  0  0  0  0  0  0
   -5.2162    0.9713   -8.0940 C   0  0  0  0  0  0  0  0  0  0  0  0
   -4.3395    1.1630   -7.0206 C   0  0  0  0  0  0  0  0  0  0  0  0
   -3.0546    3.5343   -4.8001 C   0  0  0  0  0  0  0  0  0  0  0  0
   -2.0320    3.3866   -3.4374 S   0  0  0  0  0  0  0  0  0  0  0  0
   -1.1319    2.1210   -4.0995 C   0  0  0  0  0  0  0  0  0  0  0  0
   -0.3143    1.1352   -3.5833 C   0  0  0  0  0  0  0  0  0  0  0  0
    0.3066    0.9668   -2.3856 N   0  0  0  0  0  0  0  0  0  0  0  0
    0.6905   -0.3371   -2.4262 C   0  0  0  0  0  0  0  0  0  0  0  0
    1.2984   -1.1371   -1.4206 C   0  0  0  0  0  0  0  0  0  0  0  0
    1.3433   -0.9327   -0.0693 N   0  0  0  0  0  0  0  0  0  0  0  0
    1.9994   -2.0437    0.3796 C   0  0  0  0  0  0  0  0  0  0  0  0
    2.1285   -2.5825    1.6426 C   0  0  0  0  0  0  0  0  0  0  0  0
    1.9378   -2.0193    3.2041 S   0  0  0  0  0  0  0  0  0  0  0  0
    0.3236   -0.2498    0.7511 C   0  0  0  0  0  0  0  0  0  0  0  0
   -0.8589   -1.1653    1.0619 C   0  0  0  0  0  0  0  0  0  0  0  0
    1.0033    2.0773   -1.7083 C   0  0  0  0  0  0  0  0  0  0  0  0
    2.3520    2.3521   -2.3615 C   0  0  0  0  0  0  0  0  0  0  0  0
   -4.4065    4.1264   -4.7814 C   0  0  0  0  0  0  0  0  0  0  0  0
   -4.6795    5.4337   -4.8765 C   0  0  0  0  0  0  0  0  0  0  0  0
   -3.6767    6.5139   -4.9572 C   0  0  0  0  0  0  0  0  0  0  0  0
   -2.9287    6.8046   -3.9892 O   0  0  0  0  0  0  0  0  0  0  0  0
   -4.3085    7.5342   -5.7828 C   0  0  0  0  0  0  0  0  0  0  0  0
   -3.8606    8.6964   -6.4229 C   0  0  0  0  0  0  0  0  0  0  0  0
   -4.9121    9.3039   -7.1152 C   0  0  0  0  0  0  0  0  0  0  0  0
   -4.7817   10.7733   -8.0558 Cl  0  0  0  0  0  0  0  0  0  0  0  0
   -6.3692    8.4229   -6.8894 S   0  0  0  0  0  0  0  0  0  0  0  0
   -5.6238    7.2500   -5.9524 C   0  0  0  0  0  0  0  0  0  0  0  0
   -6.0053    6.0074   -5.2811 C   0  0  0  0  0  0  0  0  0  0  0  0
   -7.2397    5.5362   -5.0164 C   0  0  0  0  0  0  0  0  0  0  0  0
   -8.4369    6.2363   -5.4039 C   0  0  0  0  0  0  0  0  0  0  0  0
   -9.3849    6.8109   -5.7244 N   0  0  0  0  0  0  0  0  0  0  0  0
   -7.4408    4.3765   -4.1516 C   0  0  0  0  0  0  0  0  0  0  0  0
   -7.6470    3.4725   -3.4634 N   0  0  0  0  0  0  0  0  0  0  0  0
    2.7500   -4.5744    5.7192 H   0  0  0  0  0  0  0  0  0  0  0  0
   -0.9060    0.4595    6.2842 H   0  0  0  0  0  0  0  0  0  0  0  0
    1.4710   -1.6774   10.2708 H   0  0  0  0  0  0  0  0  0  0  0  0
   -0.5077    1.1140   11.1747 H   0  0  0  0  0  0  0  0  0  0  0  0
    1.8932    2.0035   11.5284 H   0  0  0  0  0  0  0  0  0  0  0  0
    3.3758    1.4956    9.3736 H   0  0  0  0  0  0  0  0  0  0  0  0
    2.2513    2.6472    7.3284 H   0  0  0  0  0  0  0  0  0  0  0  0
    0.0283    3.8448    8.1584 H   0  0  0  0  0  0  0  0  0  0  0  0
    0.0084    3.7695   10.8322 H   0  0  0  0  0  0  0  0  0  0  0  0
    1.6381    4.2825   10.2049 H   0  0  0  0  0  0  0  0  0  0  0  0
   -1.5485    2.1477    9.3209 H   0  0  0  0  0  0  0  0  0  0  0  0
    0.4574   -6.2873    3.5255 H   0  0  0  0  0  0  0  0  0  0  0  0
    0.7277   -8.6791    4.0681 H   0  0  0  0  0  0  0  0  0  0  0  0
    2.9875   -9.7062    4.0880 H   0  0  0  0  0  0  0  0  0  0  0  0
    4.9714   -8.3507    3.5456 H   0  0  0  0  0  0  0  0  0  0  0  0
    4.9347   -4.9631    2.1198 H   0  0  0  0  0  0  0  0  0  0  0  0
    5.9240   -6.3643    2.5800 H   0  0  0  0  0  0  0  0  0  0  0  0
    5.4922   -5.6735    5.0791 H   0  0  0  0  0  0  0  0  0  0  0  0
    4.8903   -4.1096    4.3927 H   0  0  0  0  0  0  0  0  0  0  0  0
    6.5885   -4.6334    4.0914 H   0  0  0  0  0  0  0  0  0  0  0  0
   -2.6723    4.9757   -6.9782 H   0  0  0  0  0  0  0  0  0  0  0  0
   -3.2659    5.3482   -8.6016 H   0  0  0  0  0  0  0  0  0  0  0  0
   -0.9173    3.4658   -7.9084 H   0  0  0  0  0  0  0  0  0  0  0  0
   -0.8056    5.1396   -8.6123 H   0  0  0  0  0  0  0  0  0  0  0  0
   -1.5340    3.7935   -9.5796 H   0  0  0  0  0  0  0  0  0  0  0  0
   -4.6069    3.8049   -9.8506 H   0  0  0  0  0  0  0  0  0  0  0  0
   -5.9666    1.7633   -9.9464 H   0  0  0  0  0  0  0  0  0  0  0  0
   -5.8394    0.0843   -8.1285 H   0  0  0  0  0  0  0  0  0  0  0  0
   -4.3359    0.4452   -6.2055 H   0  0  0  0  0  0  0  0  0  0  0  0
    0.7883    0.1210    1.6923 H   0  0  0  0  0  0  0  0  0  0  0  0
   -0.1255    0.6135    0.2487 H   0  0  0  0  0  0  0  0  0  0  0  0
   -0.5404   -2.1232    1.5187 H   0  0  0  0  0  0  0  0  0  0  0  0
   -1.4069   -1.3907    0.1216 H   0  0  0  0  0  0  0  0  0  0  0  0
   -1.5441   -0.6550    1.7707 H   0  0  0  0  0  0  0  0  0  0  0  0
    1.2239    1.8509   -0.6637 H   0  0  0  0  0  0  0  0  0  0  0  0
    0.3732    2.9901   -1.7370 H   0  0  0  0  0  0  0  0  0  0  0  0
    2.2266    2.5870   -3.4390 H   0  0  0  0  0  0  0  0  0  0  0  0
    3.0180    1.4644   -2.2565 H   0  0  0  0  0  0  0  0  0  0  0  0
    2.8338    3.2189   -1.8545 H   0  0  0  0  0  0  0  0  0  0  0  0
   -5.2027    3.4439   -5.0192 H   0  0  0  0  0  0  0  0  0  0  0  0
   -2.8428    9.0867   -6.4018 H   0  0  0  0  0  0  0  0  0  0  0  0
  1  2  2  3
  2  3  1  0
  3  4  2  0
  3  5  1  0
  5  6  2  0
  6  7  1  0
  7  8  2  0
  8  9  1  0
  9 10  2  0
 10 11  1  0
 11 12  2  3
 12 13  1  0
 13 14  3  0
 12 15  1  0
 15 16  3  0
  8 17  1  0
 17 18  1  0
 18 19  1  0
 19 20  2  0
 20 21  1  0
 21 22  1  0
 21 23  1  0
  1 24  1  0
 24 25  2  0
 25 26  1  0
 26 27  2  0
 27 28  1  0
 28 29  2  0
 29 30  1  0
 30 31  2  0
 31 32  1  0
 32 33  1  0
 25 34  1  0
 34 35  1  0
 35 36  1  0
 36 37  1  0
 37 38  1  0
 38 39  1  0
 39 40  2  0
 40 41  1  0
 41 42  1  0
 39 43  1  0
 43 44  1  0
 44 45  1  0
 45 46  1  0
 46 47  1  0
 47 48  1  0
 48 49  2  0
 49 50  1  0
 50 51  1  0
 49 52  1  0
 52 53  2  0
 53 54  1  0
 54 55  2  0
 47 56  2  0
 56 57  1  0
 57 58  1  0
 58 59  1  0
 59 60  1  0
 60 61  1  0
 61 62  1  0
 62 63  1  0
 63 64  1  0
 64 65  1  0
 65 66  1  0
 63 67  1  0
 67 68  1  0
 60 69  1  0
 69 70  1  0
 56 71  1  0
 71 72  2  3
 72 73  1  0
 73 74  2  0
 73 75  1  0
 75 76  1  0
 76 77  2  0
 77 78  1  0
 77 79  1  0
 79 80  1  0
 80 81  1  0
 81 82  2  3
 82 83  1  0
 83 84  3  0
 82 85  1  0
 85 86  3  0
 11  2  1  0
 23 17  1  0
 66 24  1  0
 81 72  1  0
 10  5  1  0
 22 18  1  0
 31 26  1  0
 65 34  2  0
 80 75  2  0
 23  7  1  0
 64 36  2  0
 62 37  2  0
 42 38  2  0
 61 43  2  0
 59 44  2  0
 58 46  2  0
 55 48  1  0
  1 87  1  0
  6 88  1  0
  9 89  1  0
 17 90  1  0
 18 91  1  0
 19 92  1  0
 20 93  1  0
 21 94  1  0
 22 95  1  0
 22 96  1  0
 23 97  1  0
 27 98  1  0
 28 99  1  0
 29100  1  0
 30101  1  0
 32102  1  0
 32103  1  0
 33104  1  0
 33105  1  0
 33106  1  0
 50107  1  0
 50108  1  0
 51109  1  0
 51110  1  0
 51111  1  0
 52112  1  0
 53113  1  0
 54114  1  0
 55115  1  0
 67116  1  0
 67117  1  0
 68118  1  0
 68119  1  0
 68120  1  0
 69121  1  0
 69122  1  0
 70123  1  0
 70124  1  0
 70125  1  0
 71126  1  0
 76127  1  0
M  END

