
     RDKit          3D

104118  0  0  0  0  0  0  0  0999 V2000
    3.1605    5.5998   -3.8629 C   0  0  0  0  0  0  0  0  0  0  0  0
    1.9408    6.1084   -3.9798 C   0  0  0  0  0  0  0  0  0  0  0  0
    1.0454    6.6677   -2.9971 C   0  0  0  0  0  0  0  0  0  0  0  0
    1.4360    7.3143   -2.0282 O   0  0  0  0  0  0  0  0  0  0  0  0
   -0.3608    6.3404   -3.3689 C   0  0  0  0  0  0  0  0  0  0  0  0
   -1.4659    6.6851   -2.5956 C   0  0  0  0  0  0  0  0  0  0  0  0
   -2.6933    6.1877   -3.1046 C   0  0  0  0  0  0  0  0  0  0  0  0
   -2.7172    5.4855   -4.2051 C   0  0  0  0  0  0  0  0  0  0  0  0
   -1.6149    5.1502   -4.9702 C   0  0  0  0  0  0  0  0  0  0  0  0
   -0.3554    5.6291   -4.4800 C   0  0  0  0  0  0  0  0  0  0  0  0
    1.0212    5.4092   -4.9723 C   0  0  0  0  0  0  0  0  0  0  0  0
    1.3642    4.5622   -5.8821 C   0  0  0  0  0  0  0  0  0  0  0  0
    0.4318    3.9060   -6.8041 C   0  0  0  0  0  0  0  0  0  0  0  0
   -0.3410    3.3791   -7.5821 N   0  0  0  0  0  0  0  0  0  0  0  0
    2.6623    3.9478   -6.0334 C   0  0  0  0  0  0  0  0  0  0  0  0
    3.8176    3.4244   -6.1684 N   0  0  0  0  0  0  0  0  0  0  0  0
   -4.2367    5.3674   -4.1860 C   0  0  0  0  0  0  0  0  0  0  0  0
   -4.6680    3.9545   -3.8871 C   0  0  0  0  0  0  0  0  0  0  0  0
   -6.0002    4.0478   -3.2506 C   0  0  0  0  0  0  0  0  0  0  0  0
   -5.7967    4.4450   -1.9727 C   0  0  0  0  0  0  0  0  0  0  0  0
   -4.3814    4.8776   -1.8662 C   0  0  0  0  0  0  0  0  0  0  0  0
   -3.7698    3.7165   -2.6726 C   0  0  0  0  0  0  0  0  0  0  0  0
   -4.1497    6.0345   -2.8375 C   0  0  0  0  0  0  0  0  0  0  0  0
    3.7904    5.4550   -2.5656 C   0  0  0  0  0  0  0  0  0  0  0  0
    4.7462    5.4560   -1.7130 C   0  0  0  0  0  0  0  0  0  0  0  0
    4.7516    4.8955   -0.4740 C   0  0  0  0  0  0  0  0  0  0  0  0
    5.9999    4.5135    0.7455 S   0  0  0  0  0  0  0  0  0  0  0  0
    5.0499    3.5540    1.7902 C   0  0  0  0  0  0  0  0  0  0  0  0
    4.9543    2.6683    2.8886 C   0  0  0  0  0  0  0  0  0  0  0  0
    5.9291    2.2240    3.7418 C   0  0  0  0  0  0  0  0  0  0  0  0
    5.6424    1.2475    4.6390 C   0  0  0  0  0  0  0  0  0  0  0  0
    6.6479    0.8557    5.4338 N   0  0  0  0  0  0  0  0  0  0  0  0
    7.9547    1.7918    4.9782 S   0  0  0  0  0  0  0  0  0  0  0  0
    7.2037    2.6776    3.7725 N   0  0  0  0  0  0  0  0  0  0  0  0
    4.3454    0.6984    4.6634 C   0  0  0  0  0  0  0  0  0  0  0  0
    3.9001   -0.4782    5.2481 C   0  0  0  0  0  0  0  0  0  0  0  0
    2.6407   -0.7678    4.7492 C   0  0  0  0  0  0  0  0  0  0  0  0
    2.3114    0.2670    3.8455 N   0  0  0  0  0  0  0  0  0  0  0  0
    1.1515    0.0950    3.0550 C   0  0  0  0  0  0  0  0  0  0  0  0
   -0.1477    0.4314    3.6983 C   0  0  0  0  0  0  0  0  0  0  0  0
    3.3495    1.1367    3.8136 C   0  0  0  0  0  0  0  0  0  0  0  0
    3.6408    2.1678    2.9085 C   0  0  0  0  0  0  0  0  0  0  0  0
    2.9922    2.7311    1.9179 N   0  0  0  0  0  0  0  0  0  0  0  0
    3.8122    3.5545    1.2030 C   0  0  0  0  0  0  0  0  0  0  0  0
    3.7801    4.2640    0.0632 C   0  0  0  0  0  0  0  0  0  0  0  0
    2.3926    4.3890   -1.4013 Se  0  0  0  0  0  2  0  0  0  0  0  0
    1.5466    2.8377    1.8220 C   0  0  0  0  0  0  0  0  0  0  0  0
    1.2847    4.3854    2.1592 C   0  0  0  0  0  0  0  0  0  0  0  0
    2.2284   -1.9076    5.1871 C   0  0  0  0  0  0  0  0  0  0  0  0
    2.7427   -2.7540    5.9503 C   0  0  0  0  0  0  0  0  0  0  0  0
    4.2664   -1.8443    6.2483 S   0  0  0  0  0  0  0  0  0  0  0  0
    2.3278   -4.0158    6.2678 C   0  0  0  0  0  0  0  0  0  0  0  0
    1.2647   -4.5885    5.7805 C   0  0  0  0  0  0  0  0  0  0  0  0
    0.5842   -3.1754    4.6511 Se  0  0  0  0  0  2  0  0  0  0  0  0
    0.5802   -5.9687    5.7006 C   0  0  0  0  0  0  0  0  0  0  0  0
    0.0672   -5.9521    4.4786 C   0  0  0  0  0  0  0  0  0  0  0  0
   -0.4559   -5.9449    3.2429 C   0  0  0  0  0  0  0  0  0  0  0  0
   -0.5402   -4.6133    2.7514 O   0  0  0  0  0  0  0  0  0  0  0  0
   -0.8959   -6.8773    2.3992 C   0  0  0  0  0  0  0  0  0  0  0  0
   -1.3950   -7.0070    1.1315 C   0  0  0  0  0  0  0  0  0  0  0  0
   -1.7017   -8.1515    0.5124 C   0  0  0  0  0  0  0  0  0  0  0  0
   -2.1901   -8.1078   -0.8173 O   0  0  0  0  0  0  0  0  0  0  0  0
   -1.3501   -7.4989   -1.7490 C   0  0  0  0  0  0  0  0  0  0  0  0
   -0.2155   -7.1169   -1.2571 O   0  0  0  0  0  0  0  0  0  0  0  0
   -1.5282   -7.2179   -3.1688 C   0  0  0  0  0  0  0  0  0  0  0  0
   -1.5320   -9.3233    1.1889 C   0  0  0  0  0  0  0  0  0  0  0  0
   -1.0190   -9.2320    2.5064 C   0  0  0  0  0  0  0  0  0  0  0  0
   -0.6884   -8.0555    3.1454 C   0  0  0  0  0  0  0  0  0  0  0  0
   -0.1138   -7.6684    4.4144 C   0  0  0  0  0  0  0  0  0  0  0  0
    0.5061   -8.5927    5.1915 C   0  0  0  0  0  0  0  0  0  0  0  0
    1.3691   -8.3789    6.0943 C   0  0  0  0  0  0  0  0  0  0  0  0
    2.3622   -8.1378    7.1631 N   0  0  0  0  0  0  0  0  0  0  0  0
    0.0425   -9.8042    5.0324 C   0  0  0  0  0  0  0  0  0  0  0  0
   -0.5255  -11.2223    4.8332 N   0  0  0  0  0  0  0  0  0  0  0  0
    3.7241    5.3894   -4.7140 H   0  0  0  0  0  0  0  0  0  0  0  0
   -1.4187    7.2561   -1.7297 H   0  0  0  0  0  0  0  0  0  0  0  0
   -1.6497    4.6120   -5.8437 H   0  0  0  0  0  0  0  0  0  0  0  0
   -4.7400    5.8657   -4.9989 H   0  0  0  0  0  0  0  0  0  0  0  0
   -4.5651    3.2449   -4.6954 H   0  0  0  0  0  0  0  0  0  0  0  0
   -6.9273    3.8220   -3.7574 H   0  0  0  0  0  0  0  0  0  0  0  0
   -6.5554    4.4403   -1.2236 H   0  0  0  0  0  0  0  0  0  0  0  0
   -3.9569    5.0084   -0.9006 H   0  0  0  0  0  0  0  0  0  0  0  0
   -2.7234    3.9101   -2.8989 H   0  0  0  0  0  0  0  0  0  0  0  0
   -3.9616    2.7604   -2.1688 H   0  0  0  0  0  0  0  0  0  0  0  0
   -4.7260    6.9408   -2.6718 H   0  0  0  0  0  0  0  0  0  0  0  0
    5.6986    6.0332   -2.0751 H   0  0  0  0  0  0  0  0  0  0  0  0
    0.9500   -1.0643    2.9300 H   0  0  0  0  0  0  0  0  0  0  0  0
    1.0959    0.4501    2.0434 H   0  0  0  0  0  0  0  0  0  0  0  0
    0.0377    1.1811    4.5000 H   0  0  0  0  0  0  0  0  0  0  0  0
   -0.9265    0.7989    2.9657 H   0  0  0  0  0  0  0  0  0  0  0  0
   -0.6659   -0.4292    4.2004 H   0  0  0  0  0  0  0  0  0  0  0  0
    1.0410    2.5207    2.7358 H   0  0  0  0  0  0  0  0  0  0  0  0
    1.1105    2.7858    0.8638 H   0  0  0  0  0  0  0  0  0  0  0  0
    2.1406    4.9631    1.7733 H   0  0  0  0  0  0  0  0  0  0  0  0
    0.3628    4.7161    1.7020 H   0  0  0  0  0  0  0  0  0  0  0  0
    1.3470    4.4893    3.2581 H   0  0  0  0  0  0  0  0  0  0  0  0
    2.9153   -4.6496    7.0277 H   0  0  0  0  0  0  0  0  0  0  0  0
    0.5765   -6.5296    6.5116 H   0  0  0  0  0  0  0  0  0  0  0  0
   -1.5173   -6.0701    0.5699 H   0  0  0  0  0  0  0  0  0  0  0  0
   -0.6394   -6.7771   -3.6568 H   0  0  0  0  0  0  0  0  0  0  0  0
   -1.9576   -8.0345   -3.7344 H   0  0  0  0  0  0  0  0  0  0  0  0
   -2.2988   -6.3582   -3.2199 H   0  0  0  0  0  0  0  0  0  0  0  0
   -1.7559  -10.2771    0.7636 H   0  0  0  0  0  0  0  0  0  0  0  0
   -0.8946  -10.1796    2.9521 H   0  0  0  0  0  0  0  0  0  0  0  0
  1  2  2  3
  2  3  1  0
  3  4  2  0
  3  5  1  0
  5  6  2  0
  6  7  1  0
  7  8  2  0
  8  9  1  0
  9 10  2  0
 10 11  1  0
 11 12  2  3
 12 13  1  0
 13 14  3  0
 12 15  1  0
 15 16  3  0
  8 17  1  0
 17 18  1  0
 18 19  1  0
 19 20  2  0
 20 21  1  0
 21 22  1  0
 21 23  1  0
  1 24  1  0
 24 25  2  0
 25 26  1  0
 26 27  1  0
 27 28  1  0
 28 29  1  0
 29 30  1  0
 30 31  1  0
 31 32  2  0
 32 33  1  0
 33 34  1  0
 31 35  1  0
 35 36  1  0
 36 37  2  0
 37 38  1  0
 38 39  1  0
 39 40  1  0
 38 41  1  0
 41 42  1  0
 42 43  1  0
 43 44  1  0
 44 45  1  0
 45 46  1  0
 43 47  1  0
 47 48  1  0
 37 49  1  0
 49 50  2  0
 50 51  1  0
 50 52  1  0
 52 53  2  0
 53 54  1  0
 53 55  1  0
 55 56  2  3
 56 57  1  0
 57 58  2  0
 57 59  1  0
 59 60  2  0
 60 61  1  0
 61 62  1  0
 62 63  1  0
 63 64  2  0
 63 65  1  0
 61 66  2  0
 66 67  1  0
 67 68  2  0
 68 69  1  0
 69 70  2  3
 70 71  1  0
 71 72  3  0
 70 73  1  0
 73 74  3  0
 11  2  1  0
 23 17  1  0
 46 24  1  0
 54 49  1  0
 69 56  1  0
 10  5  1  0
 22 18  1  0
 45 26  2  0
 68 59  1  0
 23  7  1  0
 44 28  2  0
 42 29  2  0
 34 30  2  0
 41 35  2  0
 51 36  1  0
  1 75  1  0
  6 76  1  0
  9 77  1  0
 17 78  1  0
 18 79  1  0
 19 80  1  0
 20 81  1  0
 21 82  1  0
 22 83  1  0
 22 84  1  0
 23 85  1  0
 25 86  1  0
 39 87  1  0
 39 88  1  0
 40 89  1  0
 40 90  1  0
 40 91  1  0
 47 92  1  0
 47 93  1  0
 48 94  1  0
 48 95  1  0
 48 96  1  0
 52 97  1  0
 55 98  1  0
 60 99  1  0
 65100  1  0
 65101  1  0
 65102  1  0
 66103  1  0
 67104  1  0
M  END

