
     RDKit          3D

133150  0  0  0  0  0  0  0  0999 V2000
   -4.2842   -0.3990   -5.3354 C   0  0  0  0  0  0  0  0  0  0  0  0
   -5.2791   -0.1902   -4.4492 C   0  0  0  0  0  0  0  0  0  0  0  0
   -5.1843   -0.3977   -2.9981 C   0  0  0  0  0  0  0  0  0  0  0  0
   -4.4397   -1.2310   -2.4139 O   0  0  0  0  0  0  0  0  0  0  0  0
   -6.1381    0.4626   -2.3400 C   0  0  0  0  0  0  0  0  0  0  0  0
   -6.1933    0.7720   -0.9621 C   0  0  0  0  0  0  0  0  0  0  0  0
   -7.0504    1.8112   -0.6601 C   0  0  0  0  0  0  0  0  0  0  0  0
   -7.8151    2.5105   -1.6476 C   0  0  0  0  0  0  0  0  0  0  0  0
   -7.7764    2.2011   -2.9975 C   0  0  0  0  0  0  0  0  0  0  0  0
   -6.9170    1.1133   -3.3288 C   0  0  0  0  0  0  0  0  0  0  0  0
   -6.5191    0.6119   -4.6726 C   0  0  0  0  0  0  0  0  0  0  0  0
   -7.2449    0.6969   -5.8162 C   0  0  0  0  0  0  0  0  0  0  0  0
   -6.8649    0.0052   -7.0207 C   0  0  0  0  0  0  0  0  0  0  0  0
   -6.5671   -0.5485   -7.9938 N   0  0  0  0  0  0  0  0  0  0  0  0
   -8.5365    1.3317   -5.8553 C   0  0  0  0  0  0  0  0  0  0  0  0
   -9.5770    1.8371   -5.8959 N   0  0  0  0  0  0  0  0  0  0  0  0
   -8.3523    3.4387   -0.5988 C   0  0  0  0  0  0  0  0  0  0  0  0
   -9.8286    3.2181   -0.1593 C   0  0  0  0  0  0  0  0  0  0  0  0
   -9.9928    3.9731    1.1379 C   0  0  0  0  0  0  0  0  0  0  0  0
   -9.2894    3.3024    2.0595 C   0  0  0  0  0  0  0  0  0  0  0  0
   -8.6732    2.1197    1.3515 C   0  0  0  0  0  0  0  0  0  0  0  0
   -9.8117    1.8033    0.3947 C   0  0  0  0  0  0  0  0  0  0  0  0
   -7.5786    2.7125    0.4144 C   0  0  0  0  0  0  0  0  0  0  0  0
   -2.8874   -0.6282   -4.9220 C   0  0  0  0  0  0  0  0  0  0  0  0
   -1.9391   -1.4859   -5.5239 C   0  0  0  0  0  0  0  0  0  0  0  0
   -2.2199   -2.4517   -6.6060 C   0  0  0  0  0  0  0  0  0  0  0  0
   -1.9138   -3.8115   -6.4282 C   0  0  0  0  0  0  0  0  0  0  0  0
   -2.1503   -4.7322   -7.4526 C   0  0  0  0  0  0  0  0  0  0  0  0
   -2.6992   -4.3080   -8.6735 C   0  0  0  0  0  0  0  0  0  0  0  0
   -2.9712   -5.3079   -9.7684 C   0  0  0  0  0  0  0  0  0  0  0  0
   -4.2189   -6.1279   -9.4612 C   0  0  0  0  0  0  0  0  0  0  0  0
   -3.0136   -2.9486   -8.8502 C   0  0  0  0  0  0  0  0  0  0  0  0
   -2.7674   -2.0269   -7.8269 C   0  0  0  0  0  0  0  0  0  0  0  0
   -0.6957   -1.3795   -4.8837 C   0  0  0  0  0  0  0  0  0  0  0  0
    0.8030   -2.1860   -5.0513 S   0  0  0  0  0  0  0  0  0  0  0  0
    1.4635   -1.2967   -3.7611 C   0  0  0  0  0  0  0  0  0  0  0  0
    2.5204   -1.3954   -2.9045 C   0  0  0  0  0  0  0  0  0  0  0  0
    3.5795   -2.3065   -2.8878 C   0  0  0  0  0  0  0  0  0  0  0  0
    4.4252   -2.3539   -1.7449 C   0  0  0  0  0  0  0  0  0  0  0  0
    5.4228   -3.2706   -1.7528 N   0  0  0  0  0  0  0  0  0  0  0  0
    5.1502   -3.9652   -3.2318 S   0  0  0  0  0  0  0  0  0  0  0  0
    3.8408   -3.1887   -3.8831 N   0  0  0  0  0  0  0  0  0  0  0  0
    4.1733   -1.4738   -0.6909 C   0  0  0  0  0  0  0  0  0  0  0  0
    4.8284   -1.2870    0.4922 C   0  0  0  0  0  0  0  0  0  0  0  0
    6.1567   -1.9014    1.3557 S   0  0  0  0  0  0  0  0  0  0  0  0
    5.8792   -0.7803    2.6178 C   0  0  0  0  0  0  0  0  0  0  0  0
    6.4604   -0.5729    3.8718 C   0  0  0  0  0  0  0  0  0  0  0  0
    7.6752   -1.2727    4.3309 C   0  0  0  0  0  0  0  0  0  0  0  0
    8.8107   -1.3151    3.5055 C   0  0  0  0  0  0  0  0  0  0  0  0
    9.9497   -2.0124    3.9090 C   0  0  0  0  0  0  0  0  0  0  0  0
    9.9656   -2.6947    5.1364 C   0  0  0  0  0  0  0  0  0  0  0  0
   11.1658   -3.5186    5.5232 C   0  0  0  0  0  0  0  0  0  0  0  0
   11.1861   -4.8367    4.7514 C   0  0  0  0  0  0  0  0  0  0  0  0
    8.8350   -2.6439    5.9661 C   0  0  0  0  0  0  0  0  0  0  0  0
    7.7014   -1.9271    5.5720 C   0  0  0  0  0  0  0  0  0  0  0  0
    5.7419    0.3931    4.6093 C   0  0  0  0  0  0  0  0  0  0  0  0
    4.4680    1.0141    3.6513 S   0  0  0  0  0  0  0  0  0  0  0  0
    4.8042    0.0229    2.3456 C   0  0  0  0  0  0  0  0  0  0  0  0
    4.2173   -0.2633    1.1252 C   0  0  0  0  0  0  0  0  0  0  0  0
    3.2074    0.2834    0.4096 N   0  0  0  0  0  0  0  0  0  0  0  0
    3.1273   -0.5271   -0.7064 C   0  0  0  0  0  0  0  0  0  0  0  0
    2.2297   -0.5332   -1.8236 C   0  0  0  0  0  0  0  0  0  0  0  0
    0.9755    0.0185   -1.9867 N   0  0  0  0  0  0  0  0  0  0  0  0
    0.5719   -0.4517   -3.1961 C   0  0  0  0  0  0  0  0  0  0  0  0
   -0.6548   -0.4871   -3.8455 C   0  0  0  0  0  0  0  0  0  0  0  0
   -2.1375    0.2535   -3.6725 S   0  0  0  0  0  0  0  0  0  0  0  0
    0.0550    0.5670   -0.9825 C   0  0  0  0  0  0  0  0  0  0  0  0
   -0.2271   -0.4414    0.1301 C   0  0  0  0  0  0  0  0  0  0  0  0
    2.6855    1.6345    0.6605 C   0  0  0  0  0  0  0  0  0  0  0  0
    2.9242    2.5676   -0.5274 C   0  0  0  0  0  0  0  0  0  0  0  0
    6.1220    0.9281    5.9306 C   0  0  0  0  0  0  0  0  0  0  0  0
    5.2528    1.4482    6.8191 C   0  0  0  0  0  0  0  0  0  0  0  0
    5.6404    2.4612    7.8013 C   0  0  0  0  0  0  0  0  0  0  0  0
    6.8172    2.7275    8.1653 O   0  0  0  0  0  0  0  0  0  0  0  0
    4.4487    3.1816    8.2057 C   0  0  0  0  0  0  0  0  0  0  0  0
    4.3557    4.3311    9.0008 C   0  0  0  0  0  0  0  0  0  0  0  0
    3.0875    4.9072    9.1480 C   0  0  0  0  0  0  0  0  0  0  0  0
    2.7858    6.0579    9.8840 C   0  0  0  0  0  0  0  0  0  0  0  0
    1.4391    6.3999    9.8042 C   0  0  0  0  0  0  0  0  0  0  0  0
    0.6295    7.9109   10.6364 Br  0  0  0  0  0  0  0  0  0  0  0  0
    0.6198    5.2891    8.8289 S   0  0  0  0  0  0  0  0  0  0  0  0
    1.9778    4.3558    8.5020 C   0  0  0  0  0  0  0  0  0  0  0  0
    2.0680    3.2116    7.7043 C   0  0  0  0  0  0  0  0  0  0  0  0
    3.3373    2.6126    7.5831 C   0  0  0  0  0  0  0  0  0  0  0  0
    3.7598    1.4129    6.8114 C   0  0  0  0  0  0  0  0  0  0  0  0
    2.9956    0.3206    6.5684 C   0  0  0  0  0  0  0  0  0  0  0  0
    1.5671    0.3205    6.7597 C   0  0  0  0  0  0  0  0  0  0  0  0
    0.4190    0.3072    6.9107 N   0  0  0  0  0  0  0  0  0  0  0  0
    3.5764   -0.9589    6.2474 C   0  0  0  0  0  0  0  0  0  0  0  0
    4.0360   -1.9899    5.9950 N   0  0  0  0  0  0  0  0  0  0  0  0
   -4.4351   -0.1765   -6.3756 H   0  0  0  0  0  0  0  0  0  0  0  0
   -5.5703    0.2900   -0.2192 H   0  0  0  0  0  0  0  0  0  0  0  0
   -8.3082    2.7967   -3.7217 H   0  0  0  0  0  0  0  0  0  0  0  0
   -8.0402    4.4994   -0.7429 H   0  0  0  0  0  0  0  0  0  0  0  0
  -10.5974    3.4294   -0.9294 H   0  0  0  0  0  0  0  0  0  0  0  0
  -10.6335    4.8279    1.3293 H   0  0  0  0  0  0  0  0  0  0  0  0
   -9.2645    3.5170    3.1218 H   0  0  0  0  0  0  0  0  0  0  0  0
   -8.3452    1.2900    2.0110 H   0  0  0  0  0  0  0  0  0  0  0  0
  -10.7604    1.5185    0.9112 H   0  0  0  0  0  0  0  0  0  0  0  0
   -9.5686    1.0207   -0.3587 H   0  0  0  0  0  0  0  0  0  0  0  0
   -6.7906    3.3185    0.9177 H   0  0  0  0  0  0  0  0  0  0  0  0
   -1.4969   -4.1609   -5.4909 H   0  0  0  0  0  0  0  0  0  0  0  0
   -1.9080   -5.7758   -7.2953 H   0  0  0  0  0  0  0  0  0  0  0  0
   -2.0989   -5.9875   -9.8770 H   0  0  0  0  0  0  0  0  0  0  0  0
   -3.1115   -4.7882  -10.7402 H   0  0  0  0  0  0  0  0  0  0  0  0
   -4.3917   -6.8611  -10.2751 H   0  0  0  0  0  0  0  0  0  0  0  0
   -4.0943   -6.6817   -8.5061 H   0  0  0  0  0  0  0  0  0  0  0  0
   -5.1058   -5.4608   -9.3866 H   0  0  0  0  0  0  0  0  0  0  0  0
   -3.4417   -2.6019   -9.7827 H   0  0  0  0  0  0  0  0  0  0  0  0
   -2.9751   -0.9803   -8.0014 H   0  0  0  0  0  0  0  0  0  0  0  0
    8.8161   -0.8029    2.5503 H   0  0  0  0  0  0  0  0  0  0  0  0
   10.8142   -2.0410    3.2576 H   0  0  0  0  0  0  0  0  0  0  0  0
   11.1562   -3.7336    6.6142 H   0  0  0  0  0  0  0  0  0  0  0  0
   12.0945   -2.9497    5.3012 H   0  0  0  0  0  0  0  0  0  0  0  0
   11.2711   -4.6425    3.6575 H   0  0  0  0  0  0  0  0  0  0  0  0
   10.2551   -5.4160    4.9494 H   0  0  0  0  0  0  0  0  0  0  0  0
   12.0614   -5.4416    5.0723 H   0  0  0  0  0  0  0  0  0  0  0  0
    8.8250   -3.1720    6.9108 H   0  0  0  0  0  0  0  0  0  0  0  0
    6.8348   -1.9116    6.2186 H   0  0  0  0  0  0  0  0  0  0  0  0
    0.3933    1.5444   -0.6204 H   0  0  0  0  0  0  0  0  0  0  0  0
   -0.9169    0.8204   -1.4352 H   0  0  0  0  0  0  0  0  0  0  0  0
    0.6889   -0.6733    0.7079 H   0  0  0  0  0  0  0  0  0  0  0  0
   -0.9847   -0.0312    0.8262 H   0  0  0  0  0  0  0  0  0  0  0  0
   -0.6177   -1.3813   -0.3091 H   0  0  0  0  0  0  0  0  0  0  0  0
    1.6439    1.5956    1.0169 H   0  0  0  0  0  0  0  0  0  0  0  0
    3.2254    2.1008    1.5066 H   0  0  0  0  0  0  0  0  0  0  0  0
    2.4907    3.5668   -0.3065 H   0  0  0  0  0  0  0  0  0  0  0  0
    4.0152    2.6815   -0.7026 H   0  0  0  0  0  0  0  0  0  0  0  0
    2.4638    2.1862   -1.4591 H   0  0  0  0  0  0  0  0  0  0  0  0
    7.1809    1.0352    6.1227 H   0  0  0  0  0  0  0  0  0  0  0  0
    5.2280    4.7687    9.4652 H   0  0  0  0  0  0  0  0  0  0  0  0
    3.5167    6.6299   10.4378 H   0  0  0  0  0  0  0  0  0  0  0  0
    1.1979    2.8461    7.1812 H   0  0  0  0  0  0  0  0  0  0  0  0
  1  2  2  3
  2  3  1  0
  3  4  2  0
  3  5  1  0
  5  6  2  0
  6  7  1  0
  7  8  2  0
  8  9  1  0
  9 10  2  0
 10 11  1  0
 11 12  2  3
 12 13  1  0
 13 14  3  0
 12 15  1  0
 15 16  3  0
  8 17  1  0
 17 18  1  0
 18 19  1  0
 19 20  2  0
 20 21  1  0
 21 22  1  0
 21 23  1  0
  1 24  1  0
 24 25  2  0
 25 26  1  0
 26 27  2  0
 27 28  1  0
 28 29  2  0
 29 30  1  0
 30 31  1  0
 29 32  1  0
 32 33  2  0
 25 34  1  0
 34 35  1  0
 35 36  1  0
 36 37  1  0
 37 38  1  0
 38 39  1  0
 39 40  2  0
 40 41  1  0
 41 42  1  0
 39 43  1  0
 43 44  1  0
 44 45  1  0
 45 46  1  0
 46 47  1  0
 47 48  1  0
 48 49  2  0
 49 50  1  0
 50 51  2  0
 51 52  1  0
 52 53  1  0
 51 54  1  0
 54 55  2  0
 47 56  2  0
 56 57  1  0
 57 58  1  0
 58 59  1  0
 59 60  1  0
 60 61  1  0
 61 62  1  0
 62 63  1  0
 63 64  1  0
 64 65  1  0
 65 66  1  0
 63 67  1  0
 67 68  1  0
 60 69  1  0
 69 70  1  0
 56 71  1  0
 71 72  2  3
 72 73  1  0
 73 74  2  0
 73 75  1  0
 75 76  2  0
 76 77  1  0
 77 78  1  0
 78 79  2  0
 79 80  1  0
 79 81  1  0
 81 82  1  0
 82 83  1  0
 83 84  2  0
 84 85  1  0
 85 86  2  3
 86 87  1  0
 87 88  3  0
 86 89  1  0
 89 90  3  0
 11  2  1  0
 23 17  1  0
 66 24  1  0
 85 72  1  0
 10  5  1  0
 22 18  1  0
 33 26  1  0
 65 34  2  0
 84 75  1  0
 23  7  1  0
 64 36  2  0
 82 77  2  0
 62 37  2  0
 42 38  2  0
 61 43  2  0
 59 44  2  0
 58 46  2  0
 55 48  1  0
  1 91  1  0
  6 92  1  0
  9 93  1  0
 17 94  1  0
 18 95  1  0
 19 96  1  0
 20 97  1  0
 21 98  1  0
 22 99  1  0
 22100  1  0
 23101  1  0
 27102  1  0
 28103  1  0
 30104  1  0
 30105  1  0
 31106  1  0
 31107  1  0
 31108  1  0
 32109  1  0
 33110  1  0
 49111  1  0
 50112  1  0
 52113  1  0
 52114  1  0
 53115  1  0
 53116  1  0
 53117  1  0
 54118  1  0
 55119  1  0
 67120  1  0
 67121  1  0
 68122  1  0
 68123  1  0
 68124  1  0
 69125  1  0
 69126  1  0
 70127  1  0
 70128  1  0
 70129  1  0
 71130  1  0
 76131  1  0
 78132  1  0
 83133  1  0
M  END

