
     RDKit          3D

134149  0  0  0  0  0  0  0  0999 V2000
   -0.3667    6.5763    2.3399 C   0  0  0  0  0  0  0  0  0  0  0  0
   -0.2851    6.9691    1.0519 C   0  0  0  0  0  0  0  0  0  0  0  0
   -0.1848    6.0839   -0.1178 C   0  0  0  0  0  0  0  0  0  0  0  0
    0.1059    4.8578   -0.1079 O   0  0  0  0  0  0  0  0  0  0  0  0
   -0.4420    6.8581   -1.3097 C   0  0  0  0  0  0  0  0  0  0  0  0
   -0.5085    6.3789   -2.6378 C   0  0  0  0  0  0  0  0  0  0  0  0
   -0.8367    7.3469   -3.5663 C   0  0  0  0  0  0  0  0  0  0  0  0
   -1.1034    8.7089   -3.2136 C   0  0  0  0  0  0  0  0  0  0  0  0
   -1.0333    9.1850   -1.9142 C   0  0  0  0  0  0  0  0  0  0  0  0
   -0.6549    8.2120   -0.9466 C   0  0  0  0  0  0  0  0  0  0  0  0
   -0.4291    8.3618    0.5210 C   0  0  0  0  0  0  0  0  0  0  0  0
   -0.1367    9.5185    1.1767 C   0  0  0  0  0  0  0  0  0  0  0  0
   -0.1565   10.8033    0.5294 C   0  0  0  0  0  0  0  0  0  0  0  0
   -0.1636   11.8447    0.0229 N   0  0  0  0  0  0  0  0  0  0  0  0
    0.3805    9.5367    2.5208 C   0  0  0  0  0  0  0  0  0  0  0  0
    0.8029    9.5615    3.5992 N   0  0  0  0  0  0  0  0  0  0  0  0
   -1.3706    9.0467   -4.6518 C   0  0  0  0  0  0  0  0  0  0  0  0
   -0.2867    9.8585   -5.4222 C   0  0  0  0  0  0  0  0  0  0  0  0
    1.0821    9.5541   -4.8604 C   0  0  0  0  0  0  0  0  0  0  0  0
    1.3509    8.2888   -5.1808 C   0  0  0  0  0  0  0  0  0  0  0  0
    0.1576    7.7747   -5.9538 C   0  0  0  0  0  0  0  0  0  0  0  0
   -0.2076    9.0440   -6.7006 C   0  0  0  0  0  0  0  0  0  0  0  0
   -1.0804    7.6553   -5.0130 C   0  0  0  0  0  0  0  0  0  0  0  0
   -0.3009    5.1721    2.7710 C   0  0  0  0  0  0  0  0  0  0  0  0
    0.6419    4.6403    3.6717 C   0  0  0  0  0  0  0  0  0  0  0  0
    1.7274    5.4085    4.3172 C   0  0  0  0  0  0  0  0  0  0  0  0
    1.6909    5.5454    5.7146 C   0  0  0  0  0  0  0  0  0  0  0  0
    2.6401    6.3230    6.3777 C   0  0  0  0  0  0  0  0  0  0  0  0
    3.6329    6.9818    5.6558 C   0  0  0  0  0  0  0  0  0  0  0  0
    3.6943    6.8448    4.2687 C   0  0  0  0  0  0  0  0  0  0  0  0
    2.7635    6.0443    3.5800 C   0  0  0  0  0  0  0  0  0  0  0  0
    2.9504    5.8509    2.0906 C   0  0  0  0  0  0  0  0  0  0  0  0
    4.1771    4.9908    1.7912 C   0  0  0  0  0  0  0  0  0  0  0  0
    0.3767    3.2947    3.9269 C   0  0  0  0  0  0  0  0  0  0  0  0
    1.2047    2.0682    4.7860 S   0  0  0  0  0  0  0  0  0  0  0  0
    0.0796    0.9098    4.2532 C   0  0  0  0  0  0  0  0  0  0  0  0
   -0.1440   -0.4360    4.3008 C   0  0  0  0  0  0  0  0  0  0  0  0
    0.5174   -1.4548    4.9880 C   0  0  0  0  0  0  0  0  0  0  0  0
    0.0649   -2.7943    4.8191 C   0  0  0  0  0  0  0  0  0  0  0  0
    0.7547   -3.7598    5.4769 N   0  0  0  0  0  0  0  0  0  0  0  0
    1.8827   -2.8259    6.2483 S   0  0  0  0  0  0  0  0  0  0  0  0
    1.5836   -1.2580    5.8034 N   0  0  0  0  0  0  0  0  0  0  0  0
   -0.9897   -3.0456    3.9307 C   0  0  0  0  0  0  0  0  0  0  0  0
   -1.3600   -4.2240    3.3470 C   0  0  0  0  0  0  0  0  0  0  0  0
   -0.7128   -5.7939    3.2932 S   0  0  0  0  0  0  0  0  0  0  0  0
   -1.4304   -6.0824    1.7791 C   0  0  0  0  0  0  0  0  0  0  0  0
   -1.2929   -7.1073    0.8405 C   0  0  0  0  0  0  0  0  0  0  0  0
   -0.5944   -8.3875    1.0749 C   0  0  0  0  0  0  0  0  0  0  0  0
    0.8186   -8.4933    1.1648 C   0  0  0  0  0  0  0  0  0  0  0  0
    1.7419   -7.2986    1.0402 C   0  0  0  0  0  0  0  0  0  0  0  0
    2.5567   -7.0751    2.3151 C   0  0  0  0  0  0  0  0  0  0  0  0
    1.3953   -9.7699    1.3127 C   0  0  0  0  0  0  0  0  0  0  0  0
    0.5977  -10.9120    1.3931 C   0  0  0  0  0  0  0  0  0  0  0  0
   -0.7884  -10.8017    1.3078 C   0  0  0  0  0  0  0  0  0  0  0  0
   -1.3807   -9.5501    1.1418 C   0  0  0  0  0  0  0  0  0  0  0  0
   -1.9136   -6.7617   -0.3696 C   0  0  0  0  0  0  0  0  0  0  0  0
   -2.5864   -5.2044   -0.2587 S   0  0  0  0  0  0  0  0  0  0  0  0
   -2.1142   -4.9764    1.3354 C   0  0  0  0  0  0  0  0  0  0  0  0
   -2.0732   -3.9115    2.2341 C   0  0  0  0  0  0  0  0  0  0  0  0
   -2.2430   -2.5715    2.0801 N   0  0  0  0  0  0  0  0  0  0  0  0
   -1.6059   -2.0249    3.1753 C   0  0  0  0  0  0  0  0  0  0  0  0
   -1.2449   -0.6716    3.4539 C   0  0  0  0  0  0  0  0  0  0  0  0
   -1.7617    0.5222    2.9999 N   0  0  0  0  0  0  0  0  0  0  0  0
   -0.8822    1.4375    3.4671 C   0  0  0  0  0  0  0  0  0  0  0  0
   -0.7231    2.7981    3.2771 C   0  0  0  0  0  0  0  0  0  0  0  0
   -1.4413    3.9804    2.3358 S   0  0  0  0  0  0  0  0  0  0  0  0
   -3.1168    0.8743    2.5493 C   0  0  0  0  0  0  0  0  0  0  0  0
   -4.1992    0.1206    3.3266 C   0  0  0  0  0  0  0  0  0  0  0  0
   -2.6448   -1.9330    0.8209 C   0  0  0  0  0  0  0  0  0  0  0  0
   -1.4513   -1.3255    0.0883 C   0  0  0  0  0  0  0  0  0  0  0  0
   -1.8126   -7.5203   -1.6234 C   0  0  0  0  0  0  0  0  0  0  0  0
   -0.7506   -7.4489   -2.4575 C   0  0  0  0  0  0  0  0  0  0  0  0
    0.3760   -6.5103   -2.2567 C   0  0  0  0  0  0  0  0  0  0  0  0
    0.2207   -5.4704   -1.5609 O   0  0  0  0  0  0  0  0  0  0  0  0
    1.6423   -6.7493   -2.8965 N   0  0  0  0  0  0  0  0  0  0  0  0
    2.8008   -5.9256   -2.4952 C   0  0  0  0  0  0  0  0  0  0  0  0
    2.9112   -4.6841   -3.3753 C   0  0  0  0  0  0  0  0  0  0  0  0
    1.7315   -7.7186   -3.9736 C   0  0  0  0  0  0  0  0  0  0  0  0
    3.1692   -7.9491   -4.7554 S   0  0  0  0  0  0  0  0  0  0  0  0
    0.5579   -8.4744   -4.3738 N   0  0  0  0  0  0  0  0  0  0  0  0
    0.5666   -9.3175   -5.5857 C   0  0  0  0  0  0  0  0  0  0  0  0
    0.2632   -8.4779   -6.8220 C   0  0  0  0  0  0  0  0  0  0  0  0
   -0.6736   -8.3368   -3.6341 C   0  0  0  0  0  0  0  0  0  0  0  0
   -1.6994   -8.9761   -3.9977 O   0  0  0  0  0  0  0  0  0  0  0  0
   -0.5074    7.2945    3.1303 H   0  0  0  0  0  0  0  0  0  0  0  0
   -0.3298    5.3463   -2.9074 H   0  0  0  0  0  0  0  0  0  0  0  0
   -1.2730   10.2109   -1.6910 H   0  0  0  0  0  0  0  0  0  0  0  0
   -2.4212    9.3481   -4.8583 H   0  0  0  0  0  0  0  0  0  0  0  0
   -0.5106   10.9374   -5.5573 H   0  0  0  0  0  0  0  0  0  0  0  0
    1.7587   10.2442   -4.3715 H   0  0  0  0  0  0  0  0  0  0  0  0
    2.2859    7.7715   -4.9948 H   0  0  0  0  0  0  0  0  0  0  0  0
    0.3583    6.8879   -6.5900 H   0  0  0  0  0  0  0  0  0  0  0  0
   -1.1765    8.9774   -7.2478 H   0  0  0  0  0  0  0  0  0  0  0  0
    0.5891    9.3935   -7.4001 H   0  0  0  0  0  0  0  0  0  0  0  0
   -1.9502    7.1137   -5.4472 H   0  0  0  0  0  0  0  0  0  0  0  0
    0.9113    5.0616    6.2916 H   0  0  0  0  0  0  0  0  0  0  0  0
    2.5960    6.4280    7.4559 H   0  0  0  0  0  0  0  0  0  0  0  0
    4.3617    7.5934    6.1725 H   0  0  0  0  0  0  0  0  0  0  0  0
    4.4813    7.3548    3.7262 H   0  0  0  0  0  0  0  0  0  0  0  0
    3.0690    6.8432    1.6034 H   0  0  0  0  0  0  0  0  0  0  0  0
    2.0818    5.3569    1.6202 H   0  0  0  0  0  0  0  0  0  0  0  0
    4.0638    3.9872    2.2555 H   0  0  0  0  0  0  0  0  0  0  0  0
    5.1000    5.4752    2.1770 H   0  0  0  0  0  0  0  0  0  0  0  0
    4.2794    4.8653    0.6925 H   0  0  0  0  0  0  0  0  0  0  0  0
    1.1834   -6.3680    0.8107 H   0  0  0  0  0  0  0  0  0  0  0  0
    2.4395   -7.4724    0.1931 H   0  0  0  0  0  0  0  0  0  0  0  0
    3.2880   -7.8984    2.4579 H   0  0  0  0  0  0  0  0  0  0  0  0
    1.8929   -7.0247    3.2023 H   0  0  0  0  0  0  0  0  0  0  0  0
    3.1193   -6.1213    2.2331 H   0  0  0  0  0  0  0  0  0  0  0  0
    2.4717   -9.8832    1.3554 H   0  0  0  0  0  0  0  0  0  0  0  0
    1.0565  -11.8852    1.5130 H   0  0  0  0  0  0  0  0  0  0  0  0
   -1.4068  -11.6896    1.3607 H   0  0  0  0  0  0  0  0  0  0  0  0
   -2.4599   -9.4863    1.0594 H   0  0  0  0  0  0  0  0  0  0  0  0
   -3.2038    0.7850    1.4535 H   0  0  0  0  0  0  0  0  0  0  0  0
   -3.3074    1.9502    2.7450 H   0  0  0  0  0  0  0  0  0  0  0  0
   -4.1429   -0.9716    3.1610 H   0  0  0  0  0  0  0  0  0  0  0  0
   -4.0890    0.3228    4.4133 H   0  0  0  0  0  0  0  0  0  0  0  0
   -5.2014    0.4706    2.9985 H   0  0  0  0  0  0  0  0  0  0  0  0
   -3.4518   -1.2134    0.9906 H   0  0  0  0  0  0  0  0  0  0  0  0
   -3.1270   -2.6610    0.1489 H   0  0  0  0  0  0  0  0  0  0  0  0
   -0.9649   -0.5414    0.6984 H   0  0  0  0  0  0  0  0  0  0  0  0
   -0.7089   -2.1194   -0.1489 H   0  0  0  0  0  0  0  0  0  0  0  0
   -1.7987   -0.8633   -0.8611 H   0  0  0  0  0  0  0  0  0  0  0  0
   -2.6160   -8.2171   -1.8246 H   0  0  0  0  0  0  0  0  0  0  0  0
    3.7426   -6.5102   -2.5440 H   0  0  0  0  0  0  0  0  0  0  0  0
    2.7035   -5.6037   -1.4361 H   0  0  0  0  0  0  0  0  0  0  0  0
    3.7658   -4.0611   -3.0329 H   0  0  0  0  0  0  0  0  0  0  0  0
    1.9804   -4.0815   -3.3072 H   0  0  0  0  0  0  0  0  0  0  0  0
    3.0802   -4.9727   -4.4334 H   0  0  0  0  0  0  0  0  0  0  0  0
    1.5423   -9.8326   -5.7079 H   0  0  0  0  0  0  0  0  0  0  0  0
   -0.1849  -10.1330   -5.5095 H   0  0  0  0  0  0  0  0  0  0  0  0
   -0.7626   -8.0582   -6.7549 H   0  0  0  0  0  0  0  0  0  0  0  0
    0.3343   -9.1126   -7.7314 H   0  0  0  0  0  0  0  0  0  0  0  0
    0.9923   -7.6457   -6.9132 H   0  0  0  0  0  0  0  0  0  0  0  0
  1  2  2  3
  2  3  1  0
  3  4  2  0
  3  5  1  0
  5  6  2  0
  6  7  1  0
  7  8  2  0
  8  9  1  0
  9 10  2  0
 10 11  1  0
 11 12  2  3
 12 13  1  0
 13 14  3  0
 12 15  1  0
 15 16  3  0
  8 17  1  0
 17 18  1  0
 18 19  1  0
 19 20  2  0
 20 21  1  0
 21 22  1  0
 21 23  1  0
  1 24  1  0
 24 25  2  0
 25 26  1  0
 26 27  2  0
 27 28  1  0
 28 29  2  0
 29 30  1  0
 30 31  2  0
 31 32  1  0
 32 33  1  0
 25 34  1  0
 34 35  1  0
 35 36  1  0
 36 37  1  0
 37 38  1  0
 38 39  1  0
 39 40  2  0
 40 41  1  0
 41 42  1  0
 39 43  1  0
 43 44  1  0
 44 45  1  0
 45 46  1  0
 46 47  1  0
 47 48  1  0
 48 49  2  0
 49 50  1  0
 50 51  1  0
 49 52  1  0
 52 53  2  0
 53 54  1  0
 54 55  2  0
 47 56  2  0
 56 57  1  0
 57 58  1  0
 58 59  1  0
 59 60  1  0
 60 61  1  0
 61 62  1  0
 62 63  1  0
 63 64  1  0
 64 65  1  0
 65 66  1  0
 63 67  1  0
 67 68  1  0
 60 69  1  0
 69 70  1  0
 56 71  1  0
 71 72  2  3
 72 73  1  0
 73 74  2  0
 73 75  1  0
 75 76  1  0
 76 77  1  0
 75 78  1  0
 78 79  2  0
 78 80  1  0
 80 81  1  0
 81 82  1  0
 80 83  1  0
 83 84  2  0
 11  2  1  0
 23 17  1  0
 66 24  1  0
 83 72  1  0
 10  5  1  0
 22 18  1  0
 31 26  1  0
 65 34  2  0
 23  7  1  0
 64 36  2  0
 62 37  2  0
 42 38  2  0
 61 43  2  0
 59 44  2  0
 58 46  2  0
 55 48  1  0
  1 85  1  0
  6 86  1  0
  9 87  1  0
 17 88  1  0
 18 89  1  0
 19 90  1  0
 20 91  1  0
 21 92  1  0
 22 93  1  0
 22 94  1  0
 23 95  1  0
 27 96  1  0
 28 97  1  0
 29 98  1  0
 30 99  1  0
 32100  1  0
 32101  1  0
 33102  1  0
 33103  1  0
 33104  1  0
 50105  1  0
 50106  1  0
 51107  1  0
 51108  1  0
 51109  1  0
 52110  1  0
 53111  1  0
 54112  1  0
 55113  1  0
 67114  1  0
 67115  1  0
 68116  1  0
 68117  1  0
 68118  1  0
 69119  1  0
 69120  1  0
 70121  1  0
 70122  1  0
 70123  1  0
 71124  1  0
 76125  1  0
 76126  1  0
 77127  1  0
 77128  1  0
 77129  1  0
 81130  1  0
 81131  1  0
 82132  1  0
 82133  1  0
 82134  1  0
M  END

