
     RDKit          3D

130146  0  0  0  0  0  0  0  0999 V2000
   -5.9007    1.8932    3.1605 C   0  0  0  0  0  0  0  0  0  0  0  0
   -6.2786    0.9214    2.3094 C   0  0  0  0  0  0  0  0  0  0  0  0
   -5.3721   -0.0333    1.6567 C   0  0  0  0  0  0  0  0  0  0  0  0
   -4.2249   -0.3690    2.0565 O   0  0  0  0  0  0  0  0  0  0  0  0
   -6.0089   -0.5307    0.4602 C   0  0  0  0  0  0  0  0  0  0  0  0
   -5.4220   -1.3335   -0.5434 C   0  0  0  0  0  0  0  0  0  0  0  0
   -6.2206   -1.5065   -1.6571 C   0  0  0  0  0  0  0  0  0  0  0  0
   -7.5201   -0.9174   -1.7897 C   0  0  0  0  0  0  0  0  0  0  0  0
   -8.1043   -0.1378   -0.8038 C   0  0  0  0  0  0  0  0  0  0  0  0
   -7.3100    0.0245    0.3673 C   0  0  0  0  0  0  0  0  0  0  0  0
   -7.5816    0.8303    1.5909 C   0  0  0  0  0  0  0  0  0  0  0  0
   -8.7984    1.1892    2.0744 C   0  0  0  0  0  0  0  0  0  0  0  0
   -8.9636    1.7013    3.4120 C   0  0  0  0  0  0  0  0  0  0  0  0
   -9.1045    2.0940    4.4910 N   0  0  0  0  0  0  0  0  0  0  0  0
  -10.0209    0.9204    1.3622 C   0  0  0  0  0  0  0  0  0  0  0  0
  -11.0100    0.7026    0.7991 N   0  0  0  0  0  0  0  0  0  0  0  0
   -7.6435   -1.4677   -3.1797 C   0  0  0  0  0  0  0  0  0  0  0  0
   -7.4489   -0.4569   -4.3513 C   0  0  0  0  0  0  0  0  0  0  0  0
   -7.2272   -1.2951   -5.5878 C   0  0  0  0  0  0  0  0  0  0  0  0
   -6.0185   -1.8555   -5.4553 C   0  0  0  0  0  0  0  0  0  0  0  0
   -5.4673   -1.3781   -4.1338 C   0  0  0  0  0  0  0  0  0  0  0  0
   -6.0245    0.0356   -4.1483 C   0  0  0  0  0  0  0  0  0  0  0  0
   -6.3184   -2.0821   -3.0369 C   0  0  0  0  0  0  0  0  0  0  0  0
   -4.4911    2.1064    3.5067 C   0  0  0  0  0  0  0  0  0  0  0  0
   -3.8365    1.5718    4.6269 C   0  0  0  0  0  0  0  0  0  0  0  0
   -4.5014    0.8009    5.6906 C   0  0  0  0  0  0  0  0  0  0  0  0
   -4.4657   -0.6005    5.6303 C   0  0  0  0  0  0  0  0  0  0  0  0
   -5.0887   -1.3668    6.6163 C   0  0  0  0  0  0  0  0  0  0  0  0
   -5.7450   -0.7414    7.6768 C   0  0  0  0  0  0  0  0  0  0  0  0
   -5.7806    0.6539    7.7541 C   0  0  0  0  0  0  0  0  0  0  0  0
   -5.1735    1.4415    6.7597 C   0  0  0  0  0  0  0  0  0  0  0  0
   -5.1974    2.9463    6.8986 C   0  0  0  0  0  0  0  0  0  0  0  0
   -3.9292    3.4471    7.5830 C   0  0  0  0  0  0  0  0  0  0  0  0
   -2.4555    1.7382    4.5228 C   0  0  0  0  0  0  0  0  0  0  0  0
   -1.1317    1.1251    5.4139 S   0  0  0  0  0  0  0  0  0  0  0  0
   -0.0543    1.7282    4.2473 C   0  0  0  0  0  0  0  0  0  0  0  0
    1.2669    1.6559    3.9254 C   0  0  0  0  0  0  0  0  0  0  0  0
    2.3465    1.1358    4.6370 C   0  0  0  0  0  0  0  0  0  0  0  0
    3.6308    1.1541    4.0297 C   0  0  0  0  0  0  0  0  0  0  0  0
    4.6535    0.6201    4.7434 N   0  0  0  0  0  0  0  0  0  0  0  0
    3.8390    0.1777    6.1156 S   0  0  0  0  0  0  0  0  0  0  0  0
    2.2552    0.6014    5.8802 N   0  0  0  0  0  0  0  0  0  0  0  0
    3.7556    1.6474    2.7241 C   0  0  0  0  0  0  0  0  0  0  0  0
    4.7720    1.4530    1.8342 C   0  0  0  0  0  0  0  0  0  0  0  0
    6.1419    0.4484    1.8045 S   0  0  0  0  0  0  0  0  0  0  0  0
    6.1180    0.4130    0.1065 C   0  0  0  0  0  0  0  0  0  0  0  0
    6.8256   -0.3382   -0.8297 C   0  0  0  0  0  0  0  0  0  0  0  0
    7.9166   -1.2715   -0.4966 C   0  0  0  0  0  0  0  0  0  0  0  0
    9.2674   -0.9729   -0.8000 C   0  0  0  0  0  0  0  0  0  0  0  0
    9.6818    0.3648   -1.3727 C   0  0  0  0  0  0  0  0  0  0  0  0
    9.8648    1.3907   -0.2614 C   0  0  0  0  0  0  0  0  0  0  0  0
   10.2624   -1.9158   -0.4878 C   0  0  0  0  0  0  0  0  0  0  0  0
    9.9236   -3.1409    0.0920 C   0  0  0  0  0  0  0  0  0  0  0  0
    8.5911   -3.4334    0.3825 C   0  0  0  0  0  0  0  0  0  0  0  0
    7.5912   -2.5032    0.0919 C   0  0  0  0  0  0  0  0  0  0  0  0
    6.2676   -0.2071   -2.1074 C   0  0  0  0  0  0  0  0  0  0  0  0
    4.9156    0.8269   -2.0504 S   0  0  0  0  0  0  0  0  0  0  0  0
    5.0512    1.1152   -0.3981 C   0  0  0  0  0  0  0  0  0  0  0  0
    4.2745    1.7094    0.5973 C   0  0  0  0  0  0  0  0  0  0  0  0
    2.9757    2.1113    0.6290 N   0  0  0  0  0  0  0  0  0  0  0  0
    2.6547    2.1145    1.9732 C   0  0  0  0  0  0  0  0  0  0  0  0
    1.3865    2.2119    2.6346 C   0  0  0  0  0  0  0  0  0  0  0  0
    0.1696    2.7219    2.2316 N   0  0  0  0  0  0  0  0  0  0  0  0
   -0.6713    2.3574    3.2272 C   0  0  0  0  0  0  0  0  0  0  0  0
   -2.0446    2.3815    3.3828 C   0  0  0  0  0  0  0  0  0  0  0  0
   -3.3558    2.7564    2.4120 S   0  0  0  0  0  0  0  0  0  0  0  0
   -0.1679    3.7548    1.2408 C   0  0  0  0  0  0  0  0  0  0  0  0
    0.8290    4.9192    1.2647 C   0  0  0  0  0  0  0  0  0  0  0  0
    2.0959    2.1032   -0.5445 C   0  0  0  0  0  0  0  0  0  0  0  0
    1.2057    0.8648   -0.5688 C   0  0  0  0  0  0  0  0  0  0  0  0
    6.6909   -0.9668   -3.2876 C   0  0  0  0  0  0  0  0  0  0  0  0
    6.0913   -2.1059   -3.6746 C   0  0  0  0  0  0  0  0  0  0  0  0
    4.8280   -2.6372   -3.1435 C   0  0  0  0  0  0  0  0  0  0  0  0
    4.2454   -2.2782   -2.0843 O   0  0  0  0  0  0  0  0  0  0  0  0
    4.3267   -3.6243   -4.0743 C   0  0  0  0  0  0  0  0  0  0  0  0
    3.1011   -4.2910   -4.0475 C   0  0  0  0  0  0  0  0  0  0  0  0
    2.7805   -5.1412   -5.1147 C   0  0  0  0  0  0  0  0  0  0  0  0
    3.6707   -5.2893   -6.1936 C   0  0  0  0  0  0  0  0  0  0  0  0
    3.1955   -6.4003   -7.6711 Br  0  0  0  0  0  0  0  0  0  0  0  0
    4.9019   -4.6088   -6.1995 C   0  0  0  0  0  0  0  0  0  0  0  0
    5.2322   -3.7876   -5.1090 C   0  0  0  0  0  0  0  0  0  0  0  0
    6.4365   -2.9461   -4.8606 C   0  0  0  0  0  0  0  0  0  0  0  0
    7.6720   -3.1196   -5.3998 C   0  0  0  0  0  0  0  0  0  0  0  0
    8.8377   -2.4531   -4.8789 C   0  0  0  0  0  0  0  0  0  0  0  0
    9.7795   -1.9246   -4.4608 N   0  0  0  0  0  0  0  0  0  0  0  0
    7.9400   -4.0997   -6.4199 C   0  0  0  0  0  0  0  0  0  0  0  0
    8.1707   -4.8890   -7.2355 N   0  0  0  0  0  0  0  0  0  0  0  0
   -6.5947    2.6557    3.4755 H   0  0  0  0  0  0  0  0  0  0  0  0
   -4.4180   -1.7276   -0.4762 H   0  0  0  0  0  0  0  0  0  0  0  0
   -9.0558    0.3411   -0.9641 H   0  0  0  0  0  0  0  0  0  0  0  0
   -8.4797   -2.1914   -3.3008 H   0  0  0  0  0  0  0  0  0  0  0  0
   -8.2273    0.3284   -4.4446 H   0  0  0  0  0  0  0  0  0  0  0  0
   -7.8639   -1.3589   -6.4639 H   0  0  0  0  0  0  0  0  0  0  0  0
   -5.5089   -2.4520   -6.2057 H   0  0  0  0  0  0  0  0  0  0  0  0
   -4.3659   -1.4658   -4.0191 H   0  0  0  0  0  0  0  0  0  0  0  0
   -5.6444    0.6530   -4.9990 H   0  0  0  0  0  0  0  0  0  0  0  0
   -5.8691    0.5989   -3.2007 H   0  0  0  0  0  0  0  0  0  0  0  0
   -6.3178   -3.1949   -3.0594 H   0  0  0  0  0  0  0  0  0  0  0  0
   -3.9557   -1.1011    4.8152 H   0  0  0  0  0  0  0  0  0  0  0  0
   -5.0636   -2.4467    6.5598 H   0  0  0  0  0  0  0  0  0  0  0  0
   -6.2251   -1.3366    8.4427 H   0  0  0  0  0  0  0  0  0  0  0  0
   -6.2826    1.1214    8.5951 H   0  0  0  0  0  0  0  0  0  0  0  0
   -6.0791    3.2632    7.4968 H   0  0  0  0  0  0  0  0  0  0  0  0
   -5.2995    3.4290    5.9051 H   0  0  0  0  0  0  0  0  0  0  0  0
   -3.0264    3.1505    7.0060 H   0  0  0  0  0  0  0  0  0  0  0  0
   -3.8563    3.0326    8.6122 H   0  0  0  0  0  0  0  0  0  0  0  0
   -3.9542    4.5556    7.6454 H   0  0  0  0  0  0  0  0  0  0  0  0
    8.9283    0.7373   -2.0968 H   0  0  0  0  0  0  0  0  0  0  0  0
   10.6363    0.2603   -1.9314 H   0  0  0  0  0  0  0  0  0  0  0  0
    8.8987    1.5714    0.2601 H   0  0  0  0  0  0  0  0  0  0  0  0
   10.2190    2.3530   -0.6936 H   0  0  0  0  0  0  0  0  0  0  0  0
   10.6163    1.0320    0.4783 H   0  0  0  0  0  0  0  0  0  0  0  0
   11.3043   -1.7013   -0.6913 H   0  0  0  0  0  0  0  0  0  0  0  0
   10.6992   -3.8593    0.3224 H   0  0  0  0  0  0  0  0  0  0  0  0
    8.3320   -4.3849    0.8302 H   0  0  0  0  0  0  0  0  0  0  0  0
    6.5589   -2.7482    0.3173 H   0  0  0  0  0  0  0  0  0  0  0  0
   -0.3210    3.3102    0.2429 H   0  0  0  0  0  0  0  0  0  0  0  0
   -1.1517    4.2042    1.4882 H   0  0  0  0  0  0  0  0  0  0  0  0
    0.5153    5.6917    0.5316 H   0  0  0  0  0  0  0  0  0  0  0  0
    1.8532    4.5899    1.0070 H   0  0  0  0  0  0  0  0  0  0  0  0
    0.8520    5.3737    2.2755 H   0  0  0  0  0  0  0  0  0  0  0  0
    1.5320    3.0387   -0.6215 H   0  0  0  0  0  0  0  0  0  0  0  0
    2.6891    2.1224   -1.4776 H   0  0  0  0  0  0  0  0  0  0  0  0
    0.5368    0.8346    0.3140 H   0  0  0  0  0  0  0  0  0  0  0  0
    1.8373   -0.0500   -0.5798 H   0  0  0  0  0  0  0  0  0  0  0  0
    0.5789    0.8757   -1.4843 H   0  0  0  0  0  0  0  0  0  0  0  0
    7.5244   -0.5664   -3.8401 H   0  0  0  0  0  0  0  0  0  0  0  0
    2.4027   -4.1403   -3.2331 H   0  0  0  0  0  0  0  0  0  0  0  0
    1.8321   -5.6625   -5.1174 H   0  0  0  0  0  0  0  0  0  0  0  0
    5.5458   -4.7023   -7.0590 H   0  0  0  0  0  0  0  0  0  0  0  0
  1  2  2  3
  2  3  1  0
  3  4  2  0
  3  5  1  0
  5  6  2  0
  6  7  1  0
  7  8  2  0
  8  9  1  0
  9 10  2  0
 10 11  1  0
 11 12  2  3
 12 13  1  0
 13 14  3  0
 12 15  1  0
 15 16  3  0
  8 17  1  0
 17 18  1  0
 18 19  1  0
 19 20  2  0
 20 21  1  0
 21 22  1  0
 21 23  1  0
  1 24  1  0
 24 25  2  0
 25 26  1  0
 26 27  2  0
 27 28  1  0
 28 29  2  0
 29 30  1  0
 30 31  2  0
 31 32  1  0
 32 33  1  0
 25 34  1  0
 34 35  1  0
 35 36  1  0
 36 37  1  0
 37 38  1  0
 38 39  1  0
 39 40  2  0
 40 41  1  0
 41 42  1  0
 39 43  1  0
 43 44  1  0
 44 45  1  0
 45 46  1  0
 46 47  1  0
 47 48  1  0
 48 49  2  0
 49 50  1  0
 50 51  1  0
 49 52  1  0
 52 53  2  0
 53 54  1  0
 54 55  2  0
 47 56  2  0
 56 57  1  0
 57 58  1  0
 58 59  1  0
 59 60  1  0
 60 61  1  0
 61 62  1  0
 62 63  1  0
 63 64  1  0
 64 65  1  0
 65 66  1  0
 63 67  1  0
 67 68  1  0
 60 69  1  0
 69 70  1  0
 56 71  1  0
 71 72  2  3
 72 73  1  0
 73 74  2  0
 73 75  1  0
 75 76  2  0
 76 77  1  0
 77 78  2  0
 78 79  1  0
 78 80  1  0
 80 81  2  0
 81 82  1  0
 82 83  2  3
 83 84  1  0
 84 85  3  0
 83 86  1  0
 86 87  3  0
 11  2  1  0
 23 17  1  0
 66 24  1  0
 82 72  1  0
 10  5  1  0
 22 18  1  0
 31 26  1  0
 65 34  2  0
 81 75  1  0
 23  7  1  0
 64 36  2  0
 62 37  2  0
 42 38  2  0
 61 43  2  0
 59 44  2  0
 58 46  2  0
 55 48  1  0
  1 88  1  0
  6 89  1  0
  9 90  1  0
 17 91  1  0
 18 92  1  0
 19 93  1  0
 20 94  1  0
 21 95  1  0
 22 96  1  0
 22 97  1  0
 23 98  1  0
 27 99  1  0
 28100  1  0
 29101  1  0
 30102  1  0
 32103  1  0
 32104  1  0
 33105  1  0
 33106  1  0
 33107  1  0
 50108  1  0
 50109  1  0
 51110  1  0
 51111  1  0
 51112  1  0
 52113  1  0
 53114  1  0
 54115  1  0
 55116  1  0
 67117  1  0
 67118  1  0
 68119  1  0
 68120  1  0
 68121  1  0
 69122  1  0
 69123  1  0
 70124  1  0
 70125  1  0
 70126  1  0
 71127  1  0
 76128  1  0
 77129  1  0
 80130  1  0
M  END

