
     RDKit          3D

116130  0  0  0  0  0  0  0  0999 V2000
   -0.6641    6.5517   -4.4175 C   0  0  0  0  0  0  0  0  0  0  0  0
    0.3763    5.7812   -4.7915 C   0  0  0  0  0  0  0  0  0  0  0  0
    0.7110    4.4728   -4.3814 C   0  0  0  0  0  0  0  0  0  0  0  0
    0.0381    3.6611   -3.6623 O   0  0  0  0  0  0  0  0  0  0  0  0
    2.0461    4.0936   -4.9326 C   0  0  0  0  0  0  0  0  0  0  0  0
    2.7799    2.9433   -4.6702 C   0  0  0  0  0  0  0  0  0  0  0  0
    4.1220    2.9099   -5.2005 C   0  0  0  0  0  0  0  0  0  0  0  0
    4.5270    3.9306   -5.8636 C   0  0  0  0  0  0  0  0  0  0  0  0
    3.8377    5.0902   -6.1660 C   0  0  0  0  0  0  0  0  0  0  0  0
    2.5100    5.1045   -5.6416 C   0  0  0  0  0  0  0  0  0  0  0  0
    1.5029    6.2567   -5.6332 C   0  0  0  0  0  0  0  0  0  0  0  0
    1.7970    7.3649   -6.1368 C   0  0  0  0  0  0  0  0  0  0  0  0
    1.7322    8.7070   -6.4537 C   0  0  0  0  0  0  0  0  0  0  0  0
    1.6606    9.8203   -6.7263 N   0  0  0  0  0  0  0  0  0  0  0  0
    2.2744    6.8329   -7.6000 C   0  0  0  0  0  0  0  0  0  0  0  0
    2.6895    6.4053   -8.8277 N   0  0  0  0  0  0  0  0  0  0  0  0
    5.9688    3.4279   -5.8629 C   0  0  0  0  0  0  0  0  0  0  0  0
    6.6123    3.0832   -7.1130 C   0  0  0  0  0  0  0  0  0  0  0  0
    7.6394    2.0474   -6.7991 C   0  0  0  0  0  0  0  0  0  0  0  0
    6.9784    0.9243   -6.5920 C   0  0  0  0  0  0  0  0  0  0  0  0
    5.5035    1.2470   -6.5399 C   0  0  0  0  0  0  0  0  0  0  0  0
    5.5177    2.2000   -7.7079 C   0  0  0  0  0  0  0  0  0  0  0  0
    5.3272    2.1165   -5.3622 C   0  0  0  0  0  0  0  0  0  0  0  0
   -1.5498    5.9129   -3.4532 C   0  0  0  0  0  0  0  0  0  0  0  0
   -2.9191    5.6153   -3.3956 C   0  0  0  0  0  0  0  0  0  0  0  0
   -3.7375    6.1447   -4.5378 C   0  0  0  0  0  0  0  0  0  0  0  0
   -3.4992    5.3974   -5.8103 C   0  0  0  0  0  0  0  0  0  0  0  0
   -3.3381    4.9138   -2.3159 C   0  0  0  0  0  0  0  0  0  0  0  0
   -4.8245    4.1528   -1.8239 S   0  0  0  0  0  0  0  0  0  0  0  0
   -4.2624    3.3785   -0.3931 C   0  0  0  0  0  0  0  0  0  0  0  0
   -4.5690    2.4726    0.6339 C   0  0  0  0  0  0  0  0  0  0  0  0
   -5.7238    1.7624    0.9211 C   0  0  0  0  0  0  0  0  0  0  0  0
   -5.7105    0.8420    1.9017 C   0  0  0  0  0  0  0  0  0  0  0  0
   -6.8159    0.1777    2.2617 N   0  0  0  0  0  0  0  0  0  0  0  0
   -8.1253    1.1026    0.8240 Se  0  0  0  0  0  2  0  0  0  0  0  0
   -6.8826    1.9896    0.2894 N   0  0  0  0  0  0  0  0  0  0  0  0
   -4.4762    0.6414    2.5631 C   0  0  0  0  0  0  0  0  0  0  0  0
   -4.1197   -0.3823    3.4661 C   0  0  0  0  0  0  0  0  0  0  0  0
   -4.5857   -1.7866    4.3192 S   0  0  0  0  0  0  0  0  0  0  0  0
   -3.0044   -2.2438    5.0003 C   0  0  0  0  0  0  0  0  0  0  0  0
   -2.3936   -3.2170    5.7041 C   0  0  0  0  0  0  0  0  0  0  0  0
   -3.2710   -4.2327    6.5142 C   0  0  0  0  0  0  0  0  0  0  0  0
   -3.7808   -3.4716    7.7188 C   0  0  0  0  0  0  0  0  0  0  0  0
   -1.0924   -3.2197    5.8448 C   0  0  0  0  0  0  0  0  0  0  0  0
   -0.6807   -1.7525    4.9937 S   0  0  0  0  0  0  0  0  0  0  0  0
   -2.2913   -1.2537    4.4918 C   0  0  0  0  0  0  0  0  0  0  0  0
   -2.8057   -0.2745    3.7004 C   0  0  0  0  0  0  0  0  0  0  0  0
   -2.3055    0.8111    2.9637 N   0  0  0  0  0  0  0  0  0  0  0  0
   -3.3374    1.3213    2.3064 C   0  0  0  0  0  0  0  0  0  0  0  0
   -3.3523    2.3152    1.3027 C   0  0  0  0  0  0  0  0  0  0  0  0
   -2.4372    3.0577    0.7546 N   0  0  0  0  0  0  0  0  0  0  0  0
   -2.9513    3.7451   -0.3492 C   0  0  0  0  0  0  0  0  0  0  0  0
   -2.5658    4.5386   -1.3784 C   0  0  0  0  0  0  0  0  0  0  0  0
   -1.0306    5.1811   -1.9591 S   0  0  0  0  0  0  0  0  0  0  0  0
   -1.1384    3.5269    1.2580 C   0  0  0  0  0  0  0  0  0  0  0  0
   -1.4636    4.9581    1.8758 C   0  0  0  0  0  0  0  0  0  0  0  0
   -0.8987    1.1315    2.9569 C   0  0  0  0  0  0  0  0  0  0  0  0
   -0.1474    0.4465    1.8701 C   0  0  0  0  0  0  0  0  0  0  0  0
    0.0367   -4.1558    6.1828 C   0  0  0  0  0  0  0  0  0  0  0  0
    0.0129   -5.3452    5.5374 C   0  0  0  0  0  0  0  0  0  0  0  0
   -0.9293   -5.8310    4.6178 C   0  0  0  0  0  0  0  0  0  0  0  0
   -2.0466   -5.3547    4.2247 O   0  0  0  0  0  0  0  0  0  0  0  0
   -0.4943   -7.1116    4.0086 C   0  0  0  0  0  0  0  0  0  0  0  0
   -1.1136   -7.9687    3.1426 C   0  0  0  0  0  0  0  0  0  0  0  0
   -0.5226   -9.1835    2.7687 C   0  0  0  0  0  0  0  0  0  0  0  0
   -1.2641   -9.9682    1.8945 O   0  0  0  0  0  0  0  0  0  0  0  0
   -2.1184  -10.9215    2.1532 C   0  0  0  0  0  0  0  0  0  0  0  0
   -2.3768  -11.2902    3.3782 O   0  0  0  0  0  0  0  0  0  0  0  0
   -2.9047  -11.6983    1.1172 C   0  0  0  0  0  0  0  0  0  0  0  0
    0.6643   -9.4512    3.2875 C   0  0  0  0  0  0  0  0  0  0  0  0
    1.3738   -8.6138    4.1975 C   0  0  0  0  0  0  0  0  0  0  0  0
    0.6990   -7.4054    4.5351 C   0  0  0  0  0  0  0  0  0  0  0  0
    1.1394   -6.3521    5.5384 C   0  0  0  0  0  0  0  0  0  0  0  0
    2.1488   -6.3556    6.2307 C   0  0  0  0  0  0  0  0  0  0  0  0
    3.2480   -7.3635    6.1751 C   0  0  0  0  0  0  0  0  0  0  0  0
    4.1184   -8.1399    6.1407 N   0  0  0  0  0  0  0  0  0  0  0  0
    2.5217   -5.4128    7.3379 C   0  0  0  0  0  0  0  0  0  0  0  0
    2.7903   -4.7089    8.1829 N   0  0  0  0  0  0  0  0  0  0  0  0
   -0.8193    7.5031   -4.7457 H   0  0  0  0  0  0  0  0  0  0  0  0
    2.4158    2.1405   -4.1132 H   0  0  0  0  0  0  0  0  0  0  0  0
    4.2203    5.8855   -6.6946 H   0  0  0  0  0  0  0  0  0  0  0  0
    6.6160    3.9260   -5.0978 H   0  0  0  0  0  0  0  0  0  0  0  0
    6.9379    3.8768   -7.7430 H   0  0  0  0  0  0  0  0  0  0  0  0
    8.7399    2.2138   -6.7838 H   0  0  0  0  0  0  0  0  0  0  0  0
    7.4733   -0.0168   -6.4649 H   0  0  0  0  0  0  0  0  0  0  0  0
    4.8603    0.3874   -6.6521 H   0  0  0  0  0  0  0  0  0  0  0  0
    4.5644    2.6911   -7.8515 H   0  0  0  0  0  0  0  0  0  0  0  0
    5.9212    1.7034   -8.6422 H   0  0  0  0  0  0  0  0  0  0  0  0
    5.7914    1.7469   -4.4103 H   0  0  0  0  0  0  0  0  0  0  0  0
   -4.8076    6.0002   -4.2868 H   0  0  0  0  0  0  0  0  0  0  0  0
   -3.6471    7.2666   -4.6371 H   0  0  0  0  0  0  0  0  0  0  0  0
   -2.9939    4.4337   -5.5978 H   0  0  0  0  0  0  0  0  0  0  0  0
   -2.9449    6.0461   -6.5418 H   0  0  0  0  0  0  0  0  0  0  0  0
   -4.4279    5.1232   -6.3438 H   0  0  0  0  0  0  0  0  0  0  0  0
   -4.0966   -4.5481    5.8900 H   0  0  0  0  0  0  0  0  0  0  0  0
   -2.6236   -5.0948    6.7798 H   0  0  0  0  0  0  0  0  0  0  0  0
   -4.8582   -3.7319    7.9716 H   0  0  0  0  0  0  0  0  0  0  0  0
   -3.0984   -3.6584    8.5466 H   0  0  0  0  0  0  0  0  0  0  0  0
   -3.8250   -2.3864    7.5025 H   0  0  0  0  0  0  0  0  0  0  0  0
   -0.5094    3.8400    0.3492 H   0  0  0  0  0  0  0  0  0  0  0  0
   -0.5616    3.1292    1.9367 H   0  0  0  0  0  0  0  0  0  0  0  0
   -0.5729    5.2442    2.4017 H   0  0  0  0  0  0  0  0  0  0  0  0
   -1.7997    5.6168    1.0805 H   0  0  0  0  0  0  0  0  0  0  0  0
   -2.3607    4.7256    2.5005 H   0  0  0  0  0  0  0  0  0  0  0  0
   -0.4711    0.5580    3.9010 H   0  0  0  0  0  0  0  0  0  0  0  0
   -0.6071    2.1072    3.3469 H   0  0  0  0  0  0  0  0  0  0  0  0
   -0.6813   -0.4734    1.5106 H   0  0  0  0  0  0  0  0  0  0  0  0
    0.8337   -0.0091    2.2287 H   0  0  0  0  0  0  0  0  0  0  0  0
    0.1468    1.0847    1.0401 H   0  0  0  0  0  0  0  0  0  0  0  0
    0.7606   -3.8633    6.8215 H   0  0  0  0  0  0  0  0  0  0  0  0
   -2.0666   -7.7158    2.7614 H   0  0  0  0  0  0  0  0  0  0  0  0
   -2.5645  -11.3806    0.1091 H   0  0  0  0  0  0  0  0  0  0  0  0
   -2.7828  -12.7815    1.2040 H   0  0  0  0  0  0  0  0  0  0  0  0
   -3.9520  -11.3272    1.2253 H   0  0  0  0  0  0  0  0  0  0  0  0
    1.2329  -10.3985    3.0344 H   0  0  0  0  0  0  0  0  0  0  0  0
    2.2628   -8.8791    4.5408 H   0  0  0  0  0  0  0  0  0  0  0  0
  1  2  2  3
  2  3  1  0
  3  4  2  0
  3  5  1  0
  5  6  2  0
  6  7  1  0
  7  8  2  0
  8  9  1  0
  9 10  2  0
 10 11  1  0
 11 12  2  3
 12 13  1  0
 13 14  3  0
 12 15  1  0
 15 16  3  0
  8 17  1  0
 17 18  1  0
 18 19  1  0
 19 20  2  0
 20 21  1  0
 21 22  1  0
 21 23  1  0
  1 24  1  0
 24 25  2  0
 25 26  1  0
 26 27  1  0
 25 28  1  0
 28 29  1  0
 29 30  1  0
 30 31  1  0
 31 32  1  0
 32 33  1  0
 33 34  2  0
 34 35  1  0
 35 36  1  0
 33 37  1  0
 37 38  1  0
 38 39  1  0
 39 40  1  0
 40 41  1  0
 41 42  1  0
 42 43  1  0
 41 44  2  0
 44 45  1  0
 45 46  1  0
 46 47  1  0
 47 48  1  0
 48 49  1  0
 49 50  1  0
 50 51  1  0
 51 52  1  0
 52 53  1  0
 53 54  1  0
 51 55  1  0
 55 56  1  0
 48 57  1  0
 57 58  1  0
 44 59  1  0
 59 60  2  3
 60 61  1  0
 61 62  2  0
 61 63  1  0
 63 64  2  0
 64 65  1  0
 65 66  1  0
 66 67  1  0
 67 68  2  0
 67 69  1  0
 65 70  2  0
 70 71  1  0
 71 72  2  0
 72 73  1  0
 73 74  2  3
 74 75  1  0
 75 76  3  0
 74 77  1  0
 77 78  3  0
 11  2  1  0
 23 17  1  0
 54 24  1  0
 73 60  1  0
 10  5  1  0
 22 18  1  0
 53 28  2  0
 72 63  1  0
 23  7  1  0
 52 30  2  0
 50 31  2  0
 36 32  2  0
 49 37  2  0
 47 38  2  0
 46 40  2  0
  1 79  1  0
  6 80  1  0
  9 81  1  0
 17 82  1  0
 18 83  1  0
 19 84  1  0
 20 85  1  0
 21 86  1  0
 22 87  1  0
 22 88  1  0
 23 89  1  0
 26 90  1  0
 26 91  1  0
 27 92  1  0
 27 93  1  0
 27 94  1  0
 42 95  1  0
 42 96  1  0
 43 97  1  0
 43 98  1  0
 43 99  1  0
 55100  1  0
 55101  1  0
 56102  1  0
 56103  1  0
 56104  1  0
 57105  1  0
 57106  1  0
 58107  1  0
 58108  1  0
 58109  1  0
 59110  1  0
 64111  1  0
 69112  1  0
 69113  1  0
 69114  1  0
 70115  1  0
 71116  1  0
M  END

