
     RDKit          3D

139155  0  0  0  0  0  0  0  0999 V2000
   -6.2200    3.7281    2.0574 C   0  0  0  0  0  0  0  0  0  0  0  0
   -5.4814    4.5320    1.2650 C   0  0  0  0  0  0  0  0  0  0  0  0
   -4.1475    4.2105    0.7315 C   0  0  0  0  0  0  0  0  0  0  0  0
   -3.6746    3.0591    0.5383 O   0  0  0  0  0  0  0  0  0  0  0  0
   -3.4231    5.4439    0.5190 C   0  0  0  0  0  0  0  0  0  0  0  0
   -2.0389    5.5763    0.2667 C   0  0  0  0  0  0  0  0  0  0  0  0
   -1.5739    6.8733    0.3657 C   0  0  0  0  0  0  0  0  0  0  0  0
   -2.4168    7.9823    0.7000 C   0  0  0  0  0  0  0  0  0  0  0  0
   -3.7766    7.8608    0.9386 C   0  0  0  0  0  0  0  0  0  0  0  0
   -4.2780    6.5327    0.8183 C   0  0  0  0  0  0  0  0  0  0  0  0
   -5.6319    6.0092    1.1411 C   0  0  0  0  0  0  0  0  0  0  0  0
   -6.7968    6.6993    1.0949 C   0  0  0  0  0  0  0  0  0  0  0  0
   -8.0745    6.0477    1.2249 C   0  0  0  0  0  0  0  0  0  0  0  0
   -9.1043    5.5259    1.3184 N   0  0  0  0  0  0  0  0  0  0  0  0
   -6.8449    8.0956    0.7483 C   0  0  0  0  0  0  0  0  0  0  0  0
   -6.8973    9.2142    0.4559 N   0  0  0  0  0  0  0  0  0  0  0  0
   -1.2339    8.9040    0.6850 C   0  0  0  0  0  0  0  0  0  0  0  0
   -1.0730    9.8721   -0.5252 C   0  0  0  0  0  0  0  0  0  0  0  0
   -1.6767    9.2525   -1.7635 C   0  0  0  0  0  0  0  0  0  0  0  0
   -0.9038    8.2163   -2.0854 C   0  0  0  0  0  0  0  0  0  0  0  0
    0.2041    8.1677   -1.0592 C   0  0  0  0  0  0  0  0  0  0  0  0
    0.3958    9.6566   -0.8425 C   0  0  0  0  0  0  0  0  0  0  0  0
   -0.3731    7.7702    0.3318 C   0  0  0  0  0  0  0  0  0  0  0  0
   -5.7360    2.4052    2.4729 C   0  0  0  0  0  0  0  0  0  0  0  0
   -4.8229    2.2098    3.5261 C   0  0  0  0  0  0  0  0  0  0  0  0
   -4.4547    3.2381    4.5649 C   0  0  0  0  0  0  0  0  0  0  0  0
   -3.2700    4.0981    4.1341 C   0  0  0  0  0  0  0  0  0  0  0  0
   -4.1912    0.9749    3.4101 C   0  0  0  0  0  0  0  0  0  0  0  0
   -2.6711    0.4534    3.9871 S   0  0  0  0  0  0  0  0  0  0  0  0
   -2.6468   -0.8015    2.8525 C   0  0  0  0  0  0  0  0  0  0  0  0
   -1.7075   -1.5895    2.2530 C   0  0  0  0  0  0  0  0  0  0  0  0
   -0.3596   -1.7982    2.5533 C   0  0  0  0  0  0  0  0  0  0  0  0
    0.2472   -1.1538    3.5773 N   0  0  0  0  0  0  0  0  0  0  0  0
    1.5817   -1.2660    3.8051 C   0  0  0  0  0  0  0  0  0  0  0  0
    2.1344   -0.4948    4.9304 C   0  0  0  0  0  0  0  0  0  0  0  0
    1.6130    1.0485    5.3548 S   0  0  0  0  0  0  0  0  0  0  0  0
    2.6117    1.2158    6.6953 C   0  0  0  0  0  0  0  0  0  0  0  0
    2.6020    2.3830    7.6321 C   0  0  0  0  0  0  0  0  0  0  0  0
    1.4628    2.2554    8.6333 C   0  0  0  0  0  0  0  0  0  0  0  0
    3.3380    0.0390    6.8501 C   0  0  0  0  0  0  0  0  0  0  0  0
    3.0727   -0.9209    5.8644 C   0  0  0  0  0  0  0  0  0  0  0  0
    4.2017   -0.1756    7.8722 F   0  0  0  0  0  0  0  0  0  0  0  0
    2.3597   -2.0820    2.9397 C   0  0  0  0  0  0  0  0  0  0  0  0
    3.8329   -2.1619    3.0061 C   0  0  0  0  0  0  0  0  0  0  0  0
    4.7133   -1.1059    3.2291 C   0  0  0  0  0  0  0  0  0  0  0  0
    6.0591   -1.4806    3.1484 C   0  0  0  0  0  0  0  0  0  0  0  0
    7.0779   -0.6073    3.3351 F   0  0  0  0  0  0  0  0  0  0  0  0
    6.2451   -2.8228    2.8413 C   0  0  0  0  0  0  0  0  0  0  0  0
    7.5608   -3.4980    2.6097 C   0  0  0  0  0  0  0  0  0  0  0  0
    8.0157   -3.3113    1.1658 C   0  0  0  0  0  0  0  0  0  0  0  0
    4.7338   -3.5375    2.6392 S   0  0  0  0  0  0  0  0  0  0  0  0
    1.7363   -2.7437    1.9232 N   0  0  0  0  0  0  0  0  0  0  0  0
    0.4011   -2.6254    1.7045 C   0  0  0  0  0  0  0  0  0  0  0  0
   -0.2149   -3.1442    0.5511 C   0  0  0  0  0  0  0  0  0  0  0  0
    0.3516   -3.7027   -0.5571 C   0  0  0  0  0  0  0  0  0  0  0  0
    1.8982   -4.1770   -1.0676 S   0  0  0  0  0  0  0  0  0  0  0  0
    1.3691   -4.2382   -2.6861 C   0  0  0  0  0  0  0  0  0  0  0  0
    2.0077   -4.5438   -3.8886 C   0  0  0  0  0  0  0  0  0  0  0  0
    3.4409   -4.9812   -3.9964 C   0  0  0  0  0  0  0  0  0  0  0  0
    4.3688   -3.7793   -4.1269 C   0  0  0  0  0  0  0  0  0  0  0  0
    1.1321   -4.3666   -4.9727 C   0  0  0  0  0  0  0  0  0  0  0  0
   -0.3835   -3.8098   -4.4205 S   0  0  0  0  0  0  0  0  0  0  0  0
    0.0629   -3.8381   -2.8051 C   0  0  0  0  0  0  0  0  0  0  0  0
   -0.5253   -3.5529   -1.5793 C   0  0  0  0  0  0  0  0  0  0  0  0
   -1.6729   -2.9268   -1.2082 N   0  0  0  0  0  0  0  0  0  0  0  0
   -2.4415   -2.0579   -2.1164 C   0  0  0  0  0  0  0  0  0  0  0  0
   -1.9613   -0.6087   -2.0378 C   0  0  0  0  0  0  0  0  0  0  0  0
   -1.5127   -2.7706    0.1518 C   0  0  0  0  0  0  0  0  0  0  0  0
   -2.3117   -2.0631    1.0809 C   0  0  0  0  0  0  0  0  0  0  0  0
   -3.6094   -1.6351    0.9904 N   0  0  0  0  0  0  0  0  0  0  0  0
   -3.7483   -0.8265    2.0674 C   0  0  0  0  0  0  0  0  0  0  0  0
   -4.6306    0.1967    2.3634 C   0  0  0  0  0  0  0  0  0  0  0  0
   -5.7676    1.0333    1.4584 S   0  0  0  0  0  0  0  0  0  0  0  0
   -4.7194   -2.3015    0.2947 C   0  0  0  0  0  0  0  0  0  0  0  0
   -5.7473   -2.8661    1.2800 C   0  0  0  0  0  0  0  0  0  0  0  0
    1.5041   -4.4977   -6.3880 C   0  0  0  0  0  0  0  0  0  0  0  0
    0.8789   -5.3273   -7.2451 C   0  0  0  0  0  0  0  0  0  0  0  0
   -0.2783   -6.1758   -6.9349 C   0  0  0  0  0  0  0  0  0  0  0  0
   -0.6634   -6.5156   -5.7862 O   0  0  0  0  0  0  0  0  0  0  0  0
   -0.8865   -6.5990   -8.1844 C   0  0  0  0  0  0  0  0  0  0  0  0
   -2.0676   -7.3239   -8.3901 C   0  0  0  0  0  0  0  0  0  0  0  0
   -3.0290   -7.9350   -7.0515 Cl  0  0  0  0  0  0  0  0  0  0  0  0
   -2.4882   -7.5540   -9.7073 C   0  0  0  0  0  0  0  0  0  0  0  0
   -1.7483   -7.0440  -10.7866 C   0  0  0  0  0  0  0  0  0  0  0  0
   -0.5708   -6.3128  -10.5626 C   0  0  0  0  0  0  0  0  0  0  0  0
   -0.1277   -6.1202   -9.2437 C   0  0  0  0  0  0  0  0  0  0  0  0
    1.0783   -5.4097   -8.7237 C   0  0  0  0  0  0  0  0  0  0  0  0
    2.2245   -5.1502   -9.4064 C   0  0  0  0  0  0  0  0  0  0  0  0
    3.4418   -4.7510   -8.7459 C   0  0  0  0  0  0  0  0  0  0  0  0
    4.4274   -4.4381   -8.2258 N   0  0  0  0  0  0  0  0  0  0  0  0
    2.3525   -5.3692  -10.8212 C   0  0  0  0  0  0  0  0  0  0  0  0
    2.4774   -5.5365  -11.9599 N   0  0  0  0  0  0  0  0  0  0  0  0
   -7.0645    4.1241    2.6019 H   0  0  0  0  0  0  0  0  0  0  0  0
   -1.3844    4.7335    0.0869 H   0  0  0  0  0  0  0  0  0  0  0  0
   -4.3645    8.7009    1.2691 H   0  0  0  0  0  0  0  0  0  0  0  0
   -0.9933    9.3501    1.6773 H   0  0  0  0  0  0  0  0  0  0  0  0
   -1.3721   10.9242   -0.3319 H   0  0  0  0  0  0  0  0  0  0  0  0
   -2.5277    9.6121   -2.3332 H   0  0  0  0  0  0  0  0  0  0  0  0
   -1.0092    7.5939   -2.9672 H   0  0  0  0  0  0  0  0  0  0  0  0
    1.1126    7.6088   -1.3717 H   0  0  0  0  0  0  0  0  0  0  0  0
    1.0733    9.8995    0.0104 H   0  0  0  0  0  0  0  0  0  0  0  0
    0.7354   10.2012   -1.7538 H   0  0  0  0  0  0  0  0  0  0  0  0
    0.3884    7.5298    1.1067 H   0  0  0  0  0  0  0  0  0  0  0  0
   -4.1899    2.7164    5.5100 H   0  0  0  0  0  0  0  0  0  0  0  0
   -5.3256    3.8924    4.7824 H   0  0  0  0  0  0  0  0  0  0  0  0
   -3.5845    4.8332    3.3644 H   0  0  0  0  0  0  0  0  0  0  0  0
   -2.8890    4.6679    5.0094 H   0  0  0  0  0  0  0  0  0  0  0  0
   -2.4438    3.4718    3.7351 H   0  0  0  0  0  0  0  0  0  0  0  0
    2.4747    3.3198    7.0452 H   0  0  0  0  0  0  0  0  0  0  0  0
    3.5715    2.4446    8.1733 H   0  0  0  0  0  0  0  0  0  0  0  0
    0.4838    2.2337    8.1056 H   0  0  0  0  0  0  0  0  0  0  0  0
    1.4752    3.1280    9.3224 H   0  0  0  0  0  0  0  0  0  0  0  0
    1.5767    1.3256    9.2336 H   0  0  0  0  0  0  0  0  0  0  0  0
    3.5293   -1.9019    5.8545 H   0  0  0  0  0  0  0  0  0  0  0  0
    4.4016   -0.0879    3.4177 H   0  0  0  0  0  0  0  0  0  0  0  0
    8.3257   -3.0732    3.2945 H   0  0  0  0  0  0  0  0  0  0  0  0
    7.4658   -4.5826    2.8270 H   0  0  0  0  0  0  0  0  0  0  0  0
    8.9845   -3.8304    1.0103 H   0  0  0  0  0  0  0  0  0  0  0  0
    7.2664   -3.7392    0.4656 H   0  0  0  0  0  0  0  0  0  0  0  0
    8.1504   -2.2317    0.9412 H   0  0  0  0  0  0  0  0  0  0  0  0
    3.5662   -5.6452   -4.8776 H   0  0  0  0  0  0  0  0  0  0  0  0
    3.7209   -5.5659   -3.0934 H   0  0  0  0  0  0  0  0  0  0  0  0
    5.4188   -4.1304   -4.1742 H   0  0  0  0  0  0  0  0  0  0  0  0
    4.2585   -3.1081   -3.2482 H   0  0  0  0  0  0  0  0  0  0  0  0
    4.1392   -3.2107   -5.0517 H   0  0  0  0  0  0  0  0  0  0  0  0
   -2.3439   -2.4082   -3.1620 H   0  0  0  0  0  0  0  0  0  0  0  0
   -3.5198   -2.0944   -1.9197 H   0  0  0  0  0  0  0  0  0  0  0  0
   -0.8784   -0.5483   -2.2877 H   0  0  0  0  0  0  0  0  0  0  0  0
   -2.5323    0.0122   -2.7615 H   0  0  0  0  0  0  0  0  0  0  0  0
   -2.1234   -0.1953   -1.0205 H   0  0  0  0  0  0  0  0  0  0  0  0
   -5.2225   -1.5851   -0.3891 H   0  0  0  0  0  0  0  0  0  0  0  0
   -4.3418   -3.1749   -0.2784 H   0  0  0  0  0  0  0  0  0  0  0  0
   -5.2414   -3.5247    2.0207 H   0  0  0  0  0  0  0  0  0  0  0  0
   -6.5043   -3.4628    0.7284 H   0  0  0  0  0  0  0  0  0  0  0  0
   -6.2717   -2.0490    1.8163 H   0  0  0  0  0  0  0  0  0  0  0  0
    2.2952   -3.8498   -6.7228 H   0  0  0  0  0  0  0  0  0  0  0  0
   -3.3921   -8.1159   -9.8983 H   0  0  0  0  0  0  0  0  0  0  0  0
   -2.0964   -7.2075  -11.7984 H   0  0  0  0  0  0  0  0  0  0  0  0
   -0.0593   -5.8919  -11.4103 H   0  0  0  0  0  0  0  0  0  0  0  0
  1  2  2  3
  2  3  1  0
  3  4  2  0
  3  5  1  0
  5  6  2  0
  6  7  1  0
  7  8  2  0
  8  9  1  0
  9 10  2  0
 10 11  1  0
 11 12  2  3
 12 13  1  0
 13 14  3  0
 12 15  1  0
 15 16  3  0
  8 17  1  0
 17 18  1  0
 18 19  1  0
 19 20  2  0
 20 21  1  0
 21 22  1  0
 21 23  1  0
  1 24  1  0
 24 25  2  0
 25 26  1  0
 26 27  1  0
 25 28  1  0
 28 29  1  0
 29 30  1  0
 30 31  1  0
 31 32  2  0
 32 33  1  0
 33 34  2  0
 34 35  1  0
 35 36  1  0
 36 37  1  0
 37 38  1  0
 38 39  1  0
 37 40  2  0
 40 41  1  0
 40 42  1  0
 34 43  1  0
 43 44  1  0
 44 45  2  0
 45 46  1  0
 46 47  1  0
 46 48  2  0
 48 49  1  0
 49 50  1  0
 48 51  1  0
 43 52  2  0
 52 53  1  0
 53 54  2  0
 54 55  1  0
 55 56  1  0
 56 57  1  0
 57 58  1  0
 58 59  1  0
 59 60  1  0
 58 61  2  0
 61 62  1  0
 62 63  1  0
 63 64  1  0
 64 65  1  0
 65 66  1  0
 66 67  1  0
 65 68  1  0
 68 69  2  0
 69 70  1  0
 70 71  1  0
 71 72  1  0
 72 73  1  0
 70 74  1  0
 74 75  1  0
 61 76  1  0
 76 77  2  3
 77 78  1  0
 78 79  2  0
 78 80  1  0
 80 81  2  0
 81 82  1  0
 81 83  1  0
 83 84  2  0
 84 85  1  0
 85 86  2  0
 86 87  1  0
 87 88  2  3
 88 89  1  0
 89 90  3  0
 88 91  1  0
 91 92  3  0
 11  2  1  0
 23 17  1  0
 73 24  1  0
 87 77  1  0
 10  5  1  0
 22 18  1  0
 72 28  2  0
 86 80  1  0
 23  7  1  0
 71 30  2  0
 69 31  1  0
 53 32  1  0
 68 54  1  0
 41 35  2  0
 51 44  1  0
 64 55  2  0
 63 57  2  0
  1 93  1  0
  6 94  1  0
  9 95  1  0
 17 96  1  0
 18 97  1  0
 19 98  1  0
 20 99  1  0
 21100  1  0
 22101  1  0
 22102  1  0
 23103  1  0
 26104  1  0
 26105  1  0
 27106  1  0
 27107  1  0
 27108  1  0
 38109  1  0
 38110  1  0
 39111  1  0
 39112  1  0
 39113  1  0
 41114  1  0
 45115  1  0
 49116  1  0
 49117  1  0
 50118  1  0
 50119  1  0
 50120  1  0
 59121  1  0
 59122  1  0
 60123  1  0
 60124  1  0
 60125  1  0
 66126  1  0
 66127  1  0
 67128  1  0
 67129  1  0
 67130  1  0
 74131  1  0
 74132  1  0
 75133  1  0
 75134  1  0
 75135  1  0
 76136  1  0
 83137  1  0
 84138  1  0
 85139  1  0
M  END

