
     RDKit          3D

 86 99  0  0  0  0  0  0  0  0999 V2000
   -2.3851    3.9019    4.3064 C   0  0  0  0  0  0  0  0  0  0  0  0
   -3.2843    3.0373    3.5247 C   0  0  0  0  0  0  0  0  0  0  0  0
   -2.9525    1.7854    3.1083 C   0  0  0  0  0  0  0  0  0  0  0  0
   -2.1743    0.9077    3.6389 O   0  0  0  0  0  0  0  0  0  0  0  0
   -3.6507    1.5151    1.8781 C   0  0  0  0  0  0  0  0  0  0  0  0
   -3.6899    0.3524    1.1184 C   0  0  0  0  0  0  0  0  0  0  0  0
   -4.5172    0.2773    0.0162 C   0  0  0  0  0  0  0  0  0  0  0  0
   -5.2594    1.3494   -0.2744 C   0  0  0  0  0  0  0  0  0  0  0  0
   -5.2109    2.5481    0.5174 C   0  0  0  0  0  0  0  0  0  0  0  0
   -4.3861    2.5841    1.5743 C   0  0  0  0  0  0  0  0  0  0  0  0
   -4.2010    3.8311    2.7559 C   0  0  0  0  0  0  0  0  0  0  0  0
   -5.1788    4.5296    2.5221 C   0  0  0  0  0  0  0  0  0  0  0  0
   -5.1474    4.9997    0.9493 C   0  0  0  0  0  0  0  0  0  0  0  0
   -5.1260    5.3691   -0.2151 N   0  0  0  0  0  0  0  0  0  0  0  0
   -6.2851    5.1625    2.9456 C   0  0  0  0  0  0  0  0  0  0  0  0
   -7.2887    5.7483    3.3480 N   0  0  0  0  0  0  0  0  0  0  0  0
   -5.8848    0.6750   -1.4199 C   0  0  0  0  0  0  0  0  0  0  0  0
   -7.2836    0.1482   -1.1505 C   0  0  0  0  0  0  0  0  0  0  0  0
   -7.5369   -0.8751   -2.1991 C   0  0  0  0  0  0  0  0  0  0  0  0
   -6.7685   -1.9365   -1.8682 C   0  0  0  0  0  0  0  0  0  0  0  0
   -5.9193   -1.5692   -0.7058 C   0  0  0  0  0  0  0  0  0  0  0  0
   -6.9830   -0.7483    0.0511 C   0  0  0  0  0  0  0  0  0  0  0  0
   -4.9969   -0.5111   -1.1279 C   0  0  0  0  0  0  0  0  0  0  0  0
   -1.1289    3.1749    4.4533 C   0  0  0  0  0  0  0  0  0  0  0  0
   -0.5530    2.1525    5.0327 C   0  0  0  0  0  0  0  0  0  0  0  0
    0.5709    1.5379    4.5472 C   0  0  0  0  0  0  0  0  0  0  0  0
    1.2882   -0.0823    4.8913 S   0  0  0  0  0  0  0  0  0  0  0  0
    2.3825   -0.1009    3.5524 C   0  0  0  0  0  0  0  0  0  0  0  0
    3.2301   -0.8926    2.7964 C   0  0  0  0  0  0  0  0  0  0  0  0
    3.5356   -2.2514    2.9761 C   0  0  0  0  0  0  0  0  0  0  0  0
    4.1844   -2.8989    1.9689 C   0  0  0  0  0  0  0  0  0  0  0  0
    4.4516   -4.1991    2.1832 N   0  0  0  0  0  0  0  0  0  0  0  0
    3.8374   -4.5057    3.7074 S   0  0  0  0  0  0  0  0  0  0  0  0
    3.2480   -2.9876    4.0509 N   0  0  0  0  0  0  0  0  0  0  0  0
    4.4865   -2.1515    0.8417 C   0  0  0  0  0  0  0  0  0  0  0  0
    4.9785   -2.5789   -0.3616 C   0  0  0  0  0  0  0  0  0  0  0  0
    5.0256   -1.5688   -1.2685 C   0  0  0  0  0  0  0  0  0  0  0  0
    4.5353   -0.4608   -0.5734 N   0  0  0  0  0  0  0  0  0  0  0  0
    4.5244    0.8214   -1.2311 C   0  0  0  0  0  0  0  0  0  0  0  0
    3.3583    1.0156   -2.1505 C   0  0  0  0  0  0  0  0  0  0  0  0
    4.2101   -0.8020    0.6579 C   0  0  0  0  0  0  0  0  0  0  0  0
    3.5428   -0.1326    1.6890 C   0  0  0  0  0  0  0  0  0  0  0  0
    2.9344    1.0565    1.7640 N   0  0  0  0  0  0  0  0  0  0  0  0
    2.1764    1.1047    2.9258 C   0  0  0  0  0  0  0  0  0  0  0  0
    1.2587    1.7895    3.5363 C   0  0  0  0  0  0  0  0  0  0  0  0
    0.0322    3.4607    2.9444 Se  0  0  0  0  0  2  0  0  0  0  0  0
    3.0320    2.2010    0.9215 C   0  0  0  0  0  0  0  0  0  0  0  0
    4.2135    3.0143    1.4624 C   0  0  0  0  0  0  0  0  0  0  0  0
    5.3703   -1.9799   -2.4401 C   0  0  0  0  0  0  0  0  0  0  0  0
    5.6550   -3.1380   -2.8537 C   0  0  0  0  0  0  0  0  0  0  0  0
    5.4291   -3.9829   -1.2605 S   0  0  0  0  0  0  0  0  0  0  0  0
    5.9736   -3.6374   -4.0434 C   0  0  0  0  0  0  0  0  0  0  0  0
    6.0653   -2.8108   -5.1496 C   0  0  0  0  0  0  0  0  0  0  0  0
    5.6253   -1.1223   -4.3752 Se  0  0  0  0  0  2  0  0  0  0  0  0
    6.3120   -3.1131   -6.5281 C   0  0  0  0  0  0  0  0  0  0  0  0
    6.4199   -4.3795   -7.0392 C   0  0  0  0  0  0  0  0  0  0  0  0
    6.5917   -4.4950   -8.3576 C   0  0  0  0  0  0  0  0  0  0  0  0
    6.6509   -3.3496   -9.0950 C   0  0  0  0  0  0  0  0  0  0  0  0
    6.8400   -3.2466  -10.5636 C   0  0  0  0  0  0  0  0  0  0  0  0
    6.9832   -3.1757  -11.6692 N   0  0  0  0  0  0  0  0  0  0  0  0
    6.4649   -2.1344   -7.9156 S   0  0  0  0  0  0  0  0  0  0  0  0
   -2.6275    4.7740    4.6376 H   0  0  0  0  0  0  0  0  0  0  0  0
   -3.0645   -0.4686    1.4042 H   0  0  0  0  0  0  0  0  0  0  0  0
   -5.9191    3.2583    0.2276 H   0  0  0  0  0  0  0  0  0  0  0  0
   -5.7486    1.1525   -2.3972 H   0  0  0  0  0  0  0  0  0  0  0  0
   -8.0578    0.8651   -1.0315 H   0  0  0  0  0  0  0  0  0  0  0  0
   -8.1897   -0.8160   -3.0686 H   0  0  0  0  0  0  0  0  0  0  0  0
   -6.8228   -2.8726   -2.3955 H   0  0  0  0  0  0  0  0  0  0  0  0
   -5.5486   -2.4112   -0.1357 H   0  0  0  0  0  0  0  0  0  0  0  0
   -6.5806   -0.2240    0.9098 H   0  0  0  0  0  0  0  0  0  0  0  0
   -7.7981   -1.4498    0.2806 H   0  0  0  0  0  0  0  0  0  0  0  0
   -4.2243   -0.7696   -1.8810 H   0  0  0  0  0  0  0  0  0  0  0  0
   -1.0562    1.7946    5.9947 H   0  0  0  0  0  0  0  0  0  0  0  0
    5.4140    0.7933   -2.0119 H   0  0  0  0  0  0  0  0  0  0  0  0
    4.8814    1.6640   -0.6800 H   0  0  0  0  0  0  0  0  0  0  0  0
    3.2801    2.1480   -2.2815 H   0  0  0  0  0  0  0  0  0  0  0  0
    3.6207    0.7099   -3.2094 H   0  0  0  0  0  0  0  0  0  0  0  0
    2.4046    0.6533   -1.8477 H   0  0  0  0  0  0  0  0  0  0  0  0
    2.8050    2.1905   -0.0920 H   0  0  0  0  0  0  0  0  0  0  0  0
    2.1588    2.9420    1.2410 H   0  0  0  0  0  0  0  0  0  0  0  0
    3.8456    3.6636    2.2807 H   0  0  0  0  0  0  0  0  0  0  0  0
    4.6450    3.6653    0.7011 H   0  0  0  0  0  0  0  0  0  0  0  0
    4.9596    2.3373    1.9428 H   0  0  0  0  0  0  0  0  0  0  0  0
    6.2056   -4.7152   -4.2847 H   0  0  0  0  0  0  0  0  0  0  0  0
    6.3478   -5.2819   -6.3763 H   0  0  0  0  0  0  0  0  0  0  0  0
    6.6732   -5.4696   -8.8830 H   0  0  0  0  0  0  0  0  0  0  0  0
  1  2  2  3
  2  3  1  0
  3  4  2  0
  3  5  1  0
  5  6  2  0
  6  7  1  0
  7  8  2  0
  8  9  1  0
  9 10  2  0
 10 11  1  0
 11 12  2  3
 12 13  1  0
 13 14  3  0
 12 15  1  0
 15 16  3  0
  8 17  1  0
 17 18  1  0
 18 19  1  0
 19 20  2  0
 20 21  1  0
 21 22  1  0
 21 23  1  0
  1 24  1  0
 24 25  2  0
 25 26  1  0
 26 27  1  0
 27 28  1  0
 28 29  1  0
 29 30  1  0
 30 31  1  0
 31 32  2  0
 32 33  1  0
 33 34  1  0
 31 35  1  0
 35 36  1  0
 36 37  2  0
 37 38  1  0
 38 39  1  0
 39 40  1  0
 38 41  1  0
 41 42  1  0
 42 43  1  0
 43 44  1  0
 44 45  1  0
 45 46  1  0
 43 47  1  0
 47 48  1  0
 37 49  1  0
 49 50  2  0
 50 51  1  0
 50 52  1  0
 52 53  2  0
 53 54  1  0
 53 55  1  0
 55 56  2  0
 56 57  1  0
 57 58  2  0
 58 59  1  0
 59 60  3  0
 58 61  1  0
 11  2  1  0
 23 17  1  0
 46 24  1  0
 54 49  1  0
 61 55  1  0
 10  5  1  0
 22 18  1  0
 45 26  2  0
 23  7  1  0
 44 28  2  0
 42 29  2  0
 34 30  2  0
 41 35  2  0
 51 36  1  0
  1 62  1  0
  6 63  1  0
  9 64  1  0
 17 65  1  0
 18 66  1  0
 19 67  1  0
 20 68  1  0
 21 69  1  0
 22 70  1  0
 22 71  1  0
 23 72  1  0
 25 73  1  0
 39 74  1  0
 39 75  1  0
 40 76  1  0
 40 77  1  0
 40 78  1  0
 47 79  1  0
 47 80  1  0
 48 81  1  0
 48 82  1  0
 48 83  1  0
 52 84  1  0
 56 85  1  0
 57 86  1  0
M  END

