
     RDKit          3D

128142  0  0  0  0  0  0  0  0999 V2000
    3.2627   -0.4257    7.2773 C   0  0  0  0  0  0  0  0  0  0  0  0
    4.0315   -1.3120    6.6094 C   0  0  0  0  0  0  0  0  0  0  0  0
    3.8715   -1.6635    5.1907 C   0  0  0  0  0  0  0  0  0  0  0  0
    3.3051   -0.9675    4.3071 O   0  0  0  0  0  0  0  0  0  0  0  0
    4.5064   -2.9338    4.9555 C   0  0  0  0  0  0  0  0  0  0  0  0
    4.4458   -3.7040    3.7733 C   0  0  0  0  0  0  0  0  0  0  0  0
    5.0639   -4.9330    3.8759 C   0  0  0  0  0  0  0  0  0  0  0  0
    5.7071   -5.3912    5.0696 C   0  0  0  0  0  0  0  0  0  0  0  0
    5.7704   -4.6392    6.2346 C   0  0  0  0  0  0  0  0  0  0  0  0
    5.1530   -3.3566    6.1475 C   0  0  0  0  0  0  0  0  0  0  0  0
    4.9864   -2.3024    7.1916 C   0  0  0  0  0  0  0  0  0  0  0  0
    5.7075   -2.1628    8.3327 C   0  0  0  0  0  0  0  0  0  0  0  0
    6.6807   -3.1356    8.7605 C   0  0  0  0  0  0  0  0  0  0  0  0
    7.4631   -3.9063    9.1215 N   0  0  0  0  0  0  0  0  0  0  0  0
    5.6364   -0.9771    9.1470 C   0  0  0  0  0  0  0  0  0  0  0  0
    5.5869   -0.0306    9.8112 N   0  0  0  0  0  0  0  0  0  0  0  0
    6.0687   -6.6819    4.3953 C   0  0  0  0  0  0  0  0  0  0  0  0
    7.5528   -6.8518    3.9515 C   0  0  0  0  0  0  0  0  0  0  0  0
    7.5608   -8.0049    2.9773 C   0  0  0  0  0  0  0  0  0  0  0  0
    6.9562   -7.5694    1.8644 C   0  0  0  0  0  0  0  0  0  0  0  0
    6.5510   -6.1393    2.1301 C   0  0  0  0  0  0  0  0  0  0  0  0
    7.7491   -5.7112    2.9647 C   0  0  0  0  0  0  0  0  0  0  0  0
    5.4006   -6.2098    3.1759 C   0  0  0  0  0  0  0  0  0  0  0  0
    2.1470    0.2783    6.6248 C   0  0  0  0  0  0  0  0  0  0  0  0
    2.2400    1.6601    6.3542 C   0  0  0  0  0  0  0  0  0  0  0  0
    1.2783    2.2932    5.5485 C   0  0  0  0  0  0  0  0  0  0  0  0
    0.2152    1.5277    5.0496 C   0  0  0  0  0  0  0  0  0  0  0  0
   -0.7728    1.7675    4.0980 C   0  0  0  0  0  0  0  0  0  0  0  0
   -1.3688    0.5730    3.8467 C   0  0  0  0  0  0  0  0  0  0  0  0
   -0.8559   -0.4293    4.6010 N   0  0  0  0  0  0  0  0  0  0  0  0
    0.1045    0.1736    5.3480 C   0  0  0  0  0  0  0  0  0  0  0  0
    1.0467   -0.4647    6.1556 C   0  0  0  0  0  0  0  0  0  0  0  0
   -1.0998   -1.8762    4.5140 C   0  0  0  0  0  0  0  0  0  0  0  0
   -0.0710   -2.5479    3.6026 C   0  0  0  0  0  0  0  0  0  0  0  0
   -1.8406    0.6314    2.5498 C   0  0  0  0  0  0  0  0  0  0  0  0
   -2.1941   -0.3631    1.6276 C   0  0  0  0  0  0  0  0  0  0  0  0
   -2.2853   -0.0873    0.2937 C   0  0  0  0  0  0  0  0  0  0  0  0
   -2.6353   -1.2070   -0.3557 N   0  0  0  0  0  0  0  0  0  0  0  0
   -2.7430   -2.1292    0.5950 N   0  0  0  0  0  0  0  0  0  0  0  0
   -3.1571   -3.5030    0.3424 C   0  0  0  0  0  0  0  0  0  0  0  0
   -4.6424   -3.6629    0.6331 C   0  0  0  0  0  0  0  0  0  0  0  0
   -2.4931   -1.6555    1.8116 N   0  0  0  0  0  0  0  0  0  0  0  0
   -2.0843    1.2075   -0.1783 C   0  0  0  0  0  0  0  0  0  0  0  0
   -1.8105    2.2651    0.7222 C   0  0  0  0  0  0  0  0  0  0  0  0
   -1.5830    1.9503    2.1068 C   0  0  0  0  0  0  0  0  0  0  0  0
   -0.8609    2.6398    3.0550 N   0  0  0  0  0  0  0  0  0  0  0  0
    0.0676    3.7435    2.8215 C   0  0  0  0  0  0  0  0  0  0  0  0
   -0.3054    4.9635    3.6660 C   0  0  0  0  0  0  0  0  0  0  0  0
   -1.9572    3.4837    0.0910 N   0  0  0  0  0  0  0  0  0  0  0  0
   -2.2790    4.7876    0.6854 C   0  0  0  0  0  0  0  0  0  0  0  0
   -1.1980    5.8394    0.3901 C   0  0  0  0  0  0  0  0  0  0  0  0
   -2.2284    3.1352   -1.1908 C   0  0  0  0  0  0  0  0  0  0  0  0
   -2.2799    1.8110   -1.3939 C   0  0  0  0  0  0  0  0  0  0  0  0
   -2.7074    1.4763   -2.6332 N   0  0  0  0  0  0  0  0  0  0  0  0
   -2.9022    0.1477   -3.2213 C   0  0  0  0  0  0  0  0  0  0  0  0
   -1.5642   -0.4697   -3.6071 C   0  0  0  0  0  0  0  0  0  0  0  0
   -2.8920    2.6882   -3.2302 C   0  0  0  0  0  0  0  0  0  0  0  0
   -2.6677    3.7467   -2.3459 C   0  0  0  0  0  0  0  0  0  0  0  0
   -2.9033    5.0700   -2.7111 C   0  0  0  0  0  0  0  0  0  0  0  0
   -3.2565    5.3303   -4.0463 C   0  0  0  0  0  0  0  0  0  0  0  0
   -3.3624    4.2767   -4.9825 C   0  0  0  0  0  0  0  0  0  0  0  0
   -3.2361    2.9366   -4.5609 C   0  0  0  0  0  0  0  0  0  0  0  0
   -3.4993    4.5892   -6.4156 C   0  0  0  0  0  0  0  0  0  0  0  0
   -2.5500    4.2432   -7.3024 C   0  0  0  0  0  0  0  0  0  0  0  0
   -1.1121    3.4380   -6.9586 S   0  0  0  0  0  0  0  0  0  0  0  0
   -0.5327    3.4600   -8.5451 C   0  0  0  0  0  0  0  0  0  0  0  0
    0.6626    2.9362   -8.9053 C   0  0  0  0  0  0  0  0  0  0  0  0
    1.4854    2.2552   -7.9336 C   0  0  0  0  0  0  0  0  0  0  0  0
    2.1483    1.7041   -7.1543 N   0  0  0  0  0  0  0  0  0  0  0  0
    1.2111    3.0326  -10.2327 C   0  0  0  0  0  0  0  0  0  0  0  0
    1.6576    3.1079  -11.2979 N   0  0  0  0  0  0  0  0  0  0  0  0
   -1.4439    4.0867   -9.3540 N   0  0  0  0  0  0  0  0  0  0  0  0
   -1.3628    4.2037  -10.7828 C   0  0  0  0  0  0  0  0  0  0  0  0
   -0.9314    5.4009  -11.3713 C   0  0  0  0  0  0  0  0  0  0  0  0
   -0.8674    5.5112  -12.7645 C   0  0  0  0  0  0  0  0  0  0  0  0
   -1.2354    4.4306  -13.5701 C   0  0  0  0  0  0  0  0  0  0  0  0
   -1.6730    3.2378  -12.9865 C   0  0  0  0  0  0  0  0  0  0  0  0
   -1.7420    3.1276  -11.5948 C   0  0  0  0  0  0  0  0  0  0  0  0
   -2.5470    4.5216   -8.6672 C   0  0  0  0  0  0  0  0  0  0  0  0
   -3.5040    5.1158   -9.2380 O   0  0  0  0  0  0  0  0  0  0  0  0
    3.3550   -0.2927    8.3421 H   0  0  0  0  0  0  0  0  0  0  0  0
    3.9402   -3.3742    2.8735 H   0  0  0  0  0  0  0  0  0  0  0  0
    6.2204   -5.0515    7.1265 H   0  0  0  0  0  0  0  0  0  0  0  0
    5.5947   -7.5764    4.8634 H   0  0  0  0  0  0  0  0  0  0  0  0
    8.2995   -6.9163    4.7670 H   0  0  0  0  0  0  0  0  0  0  0  0
    8.0526   -8.9635    3.0975 H   0  0  0  0  0  0  0  0  0  0  0  0
    6.8647   -8.1188    0.9337 H   0  0  0  0  0  0  0  0  0  0  0  0
    6.3474   -5.5287    1.2242 H   0  0  0  0  0  0  0  0  0  0  0  0
    8.7156   -5.7681    2.4065 H   0  0  0  0  0  0  0  0  0  0  0  0
    7.6606   -4.6937    3.4127 H   0  0  0  0  0  0  0  0  0  0  0  0
    4.5079   -6.8045    2.8723 H   0  0  0  0  0  0  0  0  0  0  0  0
    3.0908    2.2279    6.7123 H   0  0  0  0  0  0  0  0  0  0  0  0
    1.4146    3.3292    5.3036 H   0  0  0  0  0  0  0  0  0  0  0  0
    0.9961   -1.5322    6.3372 H   0  0  0  0  0  0  0  0  0  0  0  0
   -2.1333   -2.0712    4.1768 H   0  0  0  0  0  0  0  0  0  0  0  0
   -1.0304   -2.3274    5.5269 H   0  0  0  0  0  0  0  0  0  0  0  0
   -0.3267   -3.6210    3.4789 H   0  0  0  0  0  0  0  0  0  0  0  0
    0.9450   -2.4778    4.0481 H   0  0  0  0  0  0  0  0  0  0  0  0
   -0.0403   -2.0630    2.6048 H   0  0  0  0  0  0  0  0  0  0  0  0
   -2.9580   -3.7648   -0.7199 H   0  0  0  0  0  0  0  0  0  0  0  0
   -2.5720   -4.1947    0.9856 H   0  0  0  0  0  0  0  0  0  0  0  0
   -4.9511   -4.7097    0.4297 H   0  0  0  0  0  0  0  0  0  0  0  0
   -4.8478   -3.4279    1.6991 H   0  0  0  0  0  0  0  0  0  0  0  0
   -5.2320   -2.9767   -0.0125 H   0  0  0  0  0  0  0  0  0  0  0  0
    0.0904    4.0029    1.7561 H   0  0  0  0  0  0  0  0  0  0  0  0
    1.1073    3.4295    3.0451 H   0  0  0  0  0  0  0  0  0  0  0  0
   -1.3856    5.1975    3.5992 H   0  0  0  0  0  0  0  0  0  0  0  0
    0.2850    5.8504    3.3422 H   0  0  0  0  0  0  0  0  0  0  0  0
   -0.0979    4.7881    4.7423 H   0  0  0  0  0  0  0  0  0  0  0  0
   -2.4330    4.6689    1.7708 H   0  0  0  0  0  0  0  0  0  0  0  0
   -3.2578    5.1478    0.2907 H   0  0  0  0  0  0  0  0  0  0  0  0
   -1.5150    6.5309   -0.4144 H   0  0  0  0  0  0  0  0  0  0  0  0
   -1.0196    6.4579    1.2945 H   0  0  0  0  0  0  0  0  0  0  0  0
   -0.2431    5.3727    0.0632 H   0  0  0  0  0  0  0  0  0  0  0  0
   -3.4533   -0.5048   -2.5227 H   0  0  0  0  0  0  0  0  0  0  0  0
   -3.5394    0.2139   -4.1273 H   0  0  0  0  0  0  0  0  0  0  0  0
   -1.7350   -1.4420   -4.1150 H   0  0  0  0  0  0  0  0  0  0  0  0
   -0.9406   -0.6372   -2.7048 H   0  0  0  0  0  0  0  0  0  0  0  0
   -1.0205    0.2046   -4.3079 H   0  0  0  0  0  0  0  0  0  0  0  0
   -2.8182    5.8840   -2.0151 H   0  0  0  0  0  0  0  0  0  0  0  0
   -3.3894    6.3566   -4.3687 H   0  0  0  0  0  0  0  0  0  0  0  0
   -3.3431    2.1286   -5.2712 H   0  0  0  0  0  0  0  0  0  0  0  0
   -4.3381    5.1990   -6.7326 H   0  0  0  0  0  0  0  0  0  0  0  0
   -0.6422    6.2390  -10.7486 H   0  0  0  0  0  0  0  0  0  0  0  0
   -0.5295    6.4344  -13.2183 H   0  0  0  0  0  0  0  0  0  0  0  0
   -1.1845    4.5128  -14.6420 H   0  0  0  0  0  0  0  0  0  0  0  0
   -1.9523    2.3950  -13.6076 H   0  0  0  0  0  0  0  0  0  0  0  0
   -2.0772    2.2005  -11.1474 H   0  0  0  0  0  0  0  0  0  0  0  0
  1  2  2  3
  2  3  1  0
  3  4  2  0
  3  5  1  0
  5  6  2  0
  6  7  1  0
  7  8  2  0
  8  9  1  0
  9 10  2  0
 10 11  1  0
 11 12  2  3
 12 13  1  0
 13 14  3  0
 12 15  1  0
 15 16  3  0
  8 17  1  0
 17 18  1  0
 18 19  1  0
 19 20  2  0
 20 21  1  0
 21 22  1  0
 21 23  1  0
  1 24  1  0
 24 25  2  0
 25 26  1  0
 26 27  2  0
 27 28  1  0
 28 29  2  0
 29 30  1  0
 30 31  1  0
 31 32  2  0
 30 33  1  0
 33 34  1  0
 29 35  1  0
 35 36  1  0
 36 37  1  0
 37 38  2  0
 38 39  1  0
 39 40  1  0
 40 41  1  0
 39 42  1  0
 37 43  1  0
 43 44  2  0
 44 45  1  0
 45 46  1  0
 46 47  1  0
 47 48  1  0
 44 49  1  0
 49 50  1  0
 50 51  1  0
 49 52  1  0
 52 53  2  0
 53 54  1  0
 54 55  1  0
 55 56  1  0
 54 57  1  0
 57 58  2  0
 58 59  1  0
 59 60  2  0
 60 61  1  0
 61 62  2  0
 61 63  1  0
 63 64  2  3
 64 65  1  0
 65 66  1  0
 66 67  2  3
 67 68  1  0
 68 69  3  0
 67 70  1  0
 70 71  3  0
 66 72  1  0
 72 73  1  0
 73 74  2  0
 74 75  1  0
 75 76  2  0
 76 77  1  0
 77 78  2  0
 72 79  1  0
 79 80  2  0
 11  2  1  0
 23 17  1  0
 32 24  1  0
 45 35  2  0
 58 52  1  0
 79 64  1  0
 10  5  1  0
 22 18  1  0
 31 27  1  0
 42 36  2  0
 53 43  1  0
 62 57  1  0
 78 73  1  0
 23  7  1  0
 46 28  1  0
  1 81  1  0
  6 82  1  0
  9 83  1  0
 17 84  1  0
 18 85  1  0
 19 86  1  0
 20 87  1  0
 21 88  1  0
 22 89  1  0
 22 90  1  0
 23 91  1  0
 25 92  1  0
 26 93  1  0
 32 94  1  0
 33 95  1  0
 33 96  1  0
 34 97  1  0
 34 98  1  0
 34 99  1  0
 40100  1  0
 40101  1  0
 41102  1  0
 41103  1  0
 41104  1  0
 47105  1  0
 47106  1  0
 48107  1  0
 48108  1  0
 48109  1  0
 50110  1  0
 50111  1  0
 51112  1  0
 51113  1  0
 51114  1  0
 55115  1  0
 55116  1  0
 56117  1  0
 56118  1  0
 56119  1  0
 59120  1  0
 60121  1  0
 62122  1  0
 63123  1  0
 74124  1  0
 75125  1  0
 76126  1  0
 77127  1  0
 78128  1  0
M  END

