
     RDKit          3D

 92104  0  0  0  0  0  0  0  0999 V2000
    1.5483   -2.4001   -4.4648 C   0  0  0  0  0  0  0  0  0  0  0  0
    0.6058   -3.3425   -4.6509 C   0  0  0  0  0  0  0  0  0  0  0  0
   -0.3939   -3.7635   -3.6607 C   0  0  0  0  0  0  0  0  0  0  0  0
   -0.3772   -3.5145   -2.4257 O   0  0  0  0  0  0  0  0  0  0  0  0
   -1.3991   -4.5595   -4.3298 C   0  0  0  0  0  0  0  0  0  0  0  0
   -2.5730   -5.1072   -3.7609 C   0  0  0  0  0  0  0  0  0  0  0  0
   -3.3791   -5.7694   -4.6680 C   0  0  0  0  0  0  0  0  0  0  0  0
   -3.0607   -5.8785   -6.0589 C   0  0  0  0  0  0  0  0  0  0  0  0
   -1.9128   -5.3472   -6.6219 C   0  0  0  0  0  0  0  0  0  0  0  0
   -1.0496   -4.6928   -5.6984 C   0  0  0  0  0  0  0  0  0  0  0  0
    0.2797   -4.0566   -5.9278 C   0  0  0  0  0  0  0  0  0  0  0  0
    1.1175   -4.2928   -6.9732 C   0  0  0  0  0  0  0  0  0  0  0  0
    2.4924   -3.8646   -6.9802 C   0  0  0  0  0  0  0  0  0  0  0  0
    3.6023   -3.5361   -6.9934 N   0  0  0  0  0  0  0  0  0  0  0  0
    0.7506   -5.1160   -8.0957 C   0  0  0  0  0  0  0  0  0  0  0  0
    0.4750   -5.7767   -9.0057 N   0  0  0  0  0  0  0  0  0  0  0  0
   -4.3210   -6.6538   -6.3056 C   0  0  0  0  0  0  0  0  0  0  0  0
   -4.1929   -8.1890   -6.5430 C   0  0  0  0  0  0  0  0  0  0  0  0
   -2.9959   -8.7298   -5.7955 C   0  0  0  0  0  0  0  0  0  0  0  0
   -3.2850   -8.6357   -4.4974 C   0  0  0  0  0  0  0  0  0  0  0  0
   -4.6698   -8.0366   -4.4053 C   0  0  0  0  0  0  0  0  0  0  0  0
   -5.2929   -8.6892   -5.6260 C   0  0  0  0  0  0  0  0  0  0  0  0
   -4.6425   -6.5519   -4.8784 C   0  0  0  0  0  0  0  0  0  0  0  0
    1.7600   -1.6812   -3.2013 C   0  0  0  0  0  0  0  0  0  0  0  0
    3.2554   -1.6568   -2.3752 S   0  0  0  0  0  0  0  0  0  0  0  0
    2.6882   -0.5595   -1.2466 C   0  0  0  0  0  0  0  0  0  0  0  0
    3.0521   -0.0491   -0.0372 C   0  0  0  0  0  0  0  0  0  0  0  0
    4.1599   -0.3025    0.7749 C   0  0  0  0  0  0  0  0  0  0  0  0
    4.1748    0.2420    2.0905 C   0  0  0  0  0  0  0  0  0  0  0  0
    5.2697   -0.0125    2.8482 N   0  0  0  0  0  0  0  0  0  0  0  0
    6.1383   -0.9350    1.7805 S   0  0  0  0  0  0  0  0  0  0  0  0
    5.2311   -1.0450    0.4008 N   0  0  0  0  0  0  0  0  0  0  0  0
    3.0938    1.0300    2.5078 C   0  0  0  0  0  0  0  0  0  0  0  0
    2.9903    1.8910    3.5624 C   0  0  0  0  0  0  0  0  0  0  0  0
    1.9678    2.7354    3.3021 C   0  0  0  0  0  0  0  0  0  0  0  0
    1.3424    2.4412    2.1315 N   0  0  0  0  0  0  0  0  0  0  0  0
    0.6166    3.4391    1.3366 C   0  0  0  0  0  0  0  0  0  0  0  0
   -0.7645    3.7262    1.9250 C   0  0  0  0  0  0  0  0  0  0  0  0
    2.0141    1.3356    1.6650 C   0  0  0  0  0  0  0  0  0  0  0  0
    1.9499    0.7019    0.3951 C   0  0  0  0  0  0  0  0  0  0  0  0
    0.8996    0.5639   -0.4809 N   0  0  0  0  0  0  0  0  0  0  0  0
    1.4104   -0.2046   -1.4768 C   0  0  0  0  0  0  0  0  0  0  0  0
    0.8244   -0.8387   -2.5731 C   0  0  0  0  0  0  0  0  0  0  0  0
   -0.5316    0.6778   -0.1807 C   0  0  0  0  0  0  0  0  0  0  0  0
   -1.2545    1.5592   -1.1982 C   0  0  0  0  0  0  0  0  0  0  0  0
    2.0216    3.9311    4.0262 C   0  0  0  0  0  0  0  0  0  0  0  0
    3.1190    3.9418    4.9017 C   0  0  0  0  0  0  0  0  0  0  0  0
    4.0655    2.5456    4.6675 S   0  0  0  0  0  0  0  0  0  0  0  0
    3.5975    5.1094    5.6587 C   0  0  0  0  0  0  0  0  0  0  0  0
    2.8168    5.9198    6.3953 C   0  0  0  0  0  0  0  0  0  0  0  0
    1.4560    5.6175    6.8646 C   0  0  0  0  0  0  0  0  0  0  0  0
    0.7119    4.6826    6.4706 O   0  0  0  0  0  0  0  0  0  0  0  0
    1.1599    6.4958    7.9780 C   0  0  0  0  0  0  0  0  0  0  0  0
    0.0411    6.4801    8.8095 C   0  0  0  0  0  0  0  0  0  0  0  0
    0.0064    7.3481    9.9099 C   0  0  0  0  0  0  0  0  0  0  0  0
   -1.4004    7.3235   10.9634 Cl  0  0  0  0  0  0  0  0  0  0  0  0
    1.1060    8.1956   10.1756 C   0  0  0  0  0  0  0  0  0  0  0  0
    1.1234    9.3617   11.6972 Br  0  0  0  0  0  0  0  0  0  0  0  0
    2.2263    8.1837    9.3259 C   0  0  0  0  0  0  0  0  0  0  0  0
    2.2292    7.3414    8.2042 C   0  0  0  0  0  0  0  0  0  0  0  0
    3.2739    7.1120    7.1696 C   0  0  0  0  0  0  0  0  0  0  0  0
    4.2865    7.9530    6.8317 C   0  0  0  0  0  0  0  0  0  0  0  0
    4.5666    9.1648    7.5587 C   0  0  0  0  0  0  0  0  0  0  0  0
    4.8042   10.1434    8.1308 N   0  0  0  0  0  0  0  0  0  0  0  0
    5.0610    7.7724    5.6293 C   0  0  0  0  0  0  0  0  0  0  0  0
    5.6782    7.6365    4.6602 N   0  0  0  0  0  0  0  0  0  0  0  0
    2.1941   -2.1002   -5.2709 H   0  0  0  0  0  0  0  0  0  0  0  0
   -2.8284   -5.0117   -2.7149 H   0  0  0  0  0  0  0  0  0  0  0  0
   -1.7386   -5.4215   -7.6808 H   0  0  0  0  0  0  0  0  0  0  0  0
   -5.0519   -6.1339   -6.9646 H   0  0  0  0  0  0  0  0  0  0  0  0
   -4.2752   -8.5142   -7.6009 H   0  0  0  0  0  0  0  0  0  0  0  0
   -2.1055   -9.1834   -6.2170 H   0  0  0  0  0  0  0  0  0  0  0  0
   -2.6719   -9.0017   -3.6819 H   0  0  0  0  0  0  0  0  0  0  0  0
   -5.1966   -8.2154   -3.4435 H   0  0  0  0  0  0  0  0  0  0  0  0
   -6.3024   -8.2877   -5.8827 H   0  0  0  0  0  0  0  0  0  0  0  0
   -5.3427   -9.8030   -5.5559 H   0  0  0  0  0  0  0  0  0  0  0  0
   -5.5716   -5.9767   -4.6716 H   0  0  0  0  0  0  0  0  0  0  0  0
    0.5223    3.1104    0.2904 H   0  0  0  0  0  0  0  0  0  0  0  0
    1.1998    4.3846    1.3027 H   0  0  0  0  0  0  0  0  0  0  0  0
   -0.6719    4.2721    2.8834 H   0  0  0  0  0  0  0  0  0  0  0  0
   -1.3448    4.3571    1.2174 H   0  0  0  0  0  0  0  0  0  0  0  0
   -1.3258    2.7904    2.1132 H   0  0  0  0  0  0  0  0  0  0  0  0
   -0.1966   -0.7078   -2.9022 H   0  0  0  0  0  0  0  0  0  0  0  0
   -0.6787    1.0723    0.8384 H   0  0  0  0  0  0  0  0  0  0  0  0
   -0.9919   -0.3348   -0.1827 H   0  0  0  0  0  0  0  0  0  0  0  0
   -0.6284    2.4192   -1.5096 H   0  0  0  0  0  0  0  0  0  0  0  0
   -1.5198    0.9766   -2.1013 H   0  0  0  0  0  0  0  0  0  0  0  0
   -2.1933    1.9443   -0.7520 H   0  0  0  0  0  0  0  0  0  0  0  0
    1.3881    4.7889    3.8512 H   0  0  0  0  0  0  0  0  0  0  0  0
    4.6645    5.2673    5.6533 H   0  0  0  0  0  0  0  0  0  0  0  0
   -0.7770    5.7985    8.6224 H   0  0  0  0  0  0  0  0  0  0  0  0
    3.0792    8.7909    9.5843 H   0  0  0  0  0  0  0  0  0  0  0  0
  1  2  2  3
  2  3  1  0
  3  4  2  0
  3  5  1  0
  5  6  2  0
  6  7  1  0
  7  8  2  0
  8  9  1  0
  9 10  2  0
 10 11  1  0
 11 12  2  3
 12 13  1  0
 13 14  3  0
 12 15  1  0
 15 16  3  0
  8 17  1  0
 17 18  1  0
 18 19  1  0
 19 20  2  0
 20 21  1  0
 21 22  1  0
 21 23  1  0
  1 24  1  0
 24 25  1  0
 25 26  1  0
 26 27  1  0
 27 28  1  0
 28 29  1  0
 29 30  2  0
 30 31  1  0
 31 32  1  0
 29 33  1  0
 33 34  1  0
 34 35  2  0
 35 36  1  0
 36 37  1  0
 37 38  1  0
 36 39  1  0
 39 40  1  0
 40 41  1  0
 41 42  1  0
 42 43  1  0
 41 44  1  0
 44 45  1  0
 35 46  1  0
 46 47  2  0
 47 48  1  0
 47 49  1  0
 49 50  2  3
 50 51  1  0
 51 52  2  0
 51 53  1  0
 53 54  2  0
 54 55  1  0
 55 56  1  0
 55 57  2  0
 57 58  1  0
 57 59  1  0
 59 60  2  0
 60 61  1  0
 61 62  2  3
 62 63  1  0
 63 64  3  0
 62 65  1  0
 65 66  3  0
 11  2  1  0
 23 17  1  0
 43 24  2  0
 61 50  1  0
 10  5  1  0
 22 18  1  0
 42 26  2  0
 60 53  1  0
 23  7  1  0
 40 27  2  0
 32 28  2  0
 39 33  2  0
 48 34  1  0
  1 67  1  0
  6 68  1  0
  9 69  1  0
 17 70  1  0
 18 71  1  0
 19 72  1  0
 20 73  1  0
 21 74  1  0
 22 75  1  0
 22 76  1  0
 23 77  1  0
 37 78  1  0
 37 79  1  0
 38 80  1  0
 38 81  1  0
 38 82  1  0
 43 83  1  0
 44 84  1  0
 44 85  1  0
 45 86  1  0
 45 87  1  0
 45 88  1  0
 46 89  1  0
 49 90  1  0
 54 91  1  0
 59 92  1  0
M  END

