
     RDKit          3D

114128  0  0  0  0  0  0  0  0999 V2000
    6.1557    2.2533    3.3734 C   0  0  0  0  0  0  0  0  0  0  0  0
    6.2561    2.5470    2.0574 C   0  0  0  0  0  0  0  0  0  0  0  0
    5.1870    2.3153    1.0668 C   0  0  0  0  0  0  0  0  0  0  0  0
    4.0089    1.9323    1.3074 O   0  0  0  0  0  0  0  0  0  0  0  0
    5.6921    2.6128   -0.2466 C   0  0  0  0  0  0  0  0  0  0  0  0
    5.0027    2.4354   -1.4684 C   0  0  0  0  0  0  0  0  0  0  0  0
    5.7702    2.6993   -2.5861 C   0  0  0  0  0  0  0  0  0  0  0  0
    7.1407    3.1077   -2.5133 C   0  0  0  0  0  0  0  0  0  0  0  0
    7.8193    3.2842   -1.3196 C   0  0  0  0  0  0  0  0  0  0  0  0
    7.0403    3.0449   -0.1468 C   0  0  0  0  0  0  0  0  0  0  0  0
    7.4372    3.0914    1.2997 C   0  0  0  0  0  0  0  0  0  0  0  0
    8.5930    3.6070    1.8033 C   0  0  0  0  0  0  0  0  0  0  0  0
    9.5888    4.2361    0.9778 C   0  0  0  0  0  0  0  0  0  0  0  0
   10.4008    4.7518    0.3312 N   0  0  0  0  0  0  0  0  0  0  0  0
    8.8999    3.6517    3.2097 C   0  0  0  0  0  0  0  0  0  0  0  0
    9.1643    3.6961    4.3357 N   0  0  0  0  0  0  0  0  0  0  0  0
    7.2330    3.1216   -4.0109 C   0  0  0  0  0  0  0  0  0  0  0  0
    7.9893    1.9509   -4.7070 C   0  0  0  0  0  0  0  0  0  0  0  0
    7.8569    0.6883   -3.8880 C   0  0  0  0  0  0  0  0  0  0  0  0
    6.5778    0.3171   -3.9618 C   0  0  0  0  0  0  0  0  0  0  0  0
    5.8801    1.3415   -4.8270 C   0  0  0  0  0  0  0  0  0  0  0  0
    7.0007    1.6209   -5.8135 C   0  0  0  0  0  0  0  0  0  0  0  0
    5.8240    2.7131   -4.0869 C   0  0  0  0  0  0  0  0  0  0  0  0
    4.9873    1.5483    3.9235 C   0  0  0  0  0  0  0  0  0  0  0  0
    4.7217    0.2130    3.6403 C   0  0  0  0  0  0  0  0  0  0  0  0
    3.4040    0.0348    4.0109 C   0  0  0  0  0  0  0  0  0  0  0  0
    2.9310    1.2137    4.4818 C   0  0  0  0  0  0  0  0  0  0  0  0
    3.8892    2.1712    4.4374 N   0  0  0  0  0  0  0  0  0  0  0  0
    3.8028    3.5850    4.8071 C   0  0  0  0  0  0  0  0  0  0  0  0
    3.5348    4.4663    3.5874 C   0  0  0  0  0  0  0  0  0  0  0  0
    1.5748    1.2396    4.1836 C   0  0  0  0  0  0  0  0  0  0  0  0
    0.6270    2.2896    4.1161 C   0  0  0  0  0  0  0  0  0  0  0  0
   -0.6080    2.0734    3.4262 C   0  0  0  0  0  0  0  0  0  0  0  0
   -1.4835    3.1122    3.3659 N   0  0  0  0  0  0  0  0  0  0  0  0
   -0.6250    4.2485    4.2032 S   0  0  0  0  0  0  0  0  0  0  0  0
    0.7922    3.5207    4.6562 N   0  0  0  0  0  0  0  0  0  0  0  0
   -0.8596    0.8130    2.8892 C   0  0  0  0  0  0  0  0  0  0  0  0
   -1.9805    0.2789    2.3244 C   0  0  0  0  0  0  0  0  0  0  0  0
   -3.5838    0.7368    2.0042 S   0  0  0  0  0  0  0  0  0  0  0  0
   -4.0033   -0.8834    1.6724 C   0  0  0  0  0  0  0  0  0  0  0  0
   -5.2039   -1.5093    1.3369 C   0  0  0  0  0  0  0  0  0  0  0  0
   -6.5192   -0.7822    1.2097 C   0  0  0  0  0  0  0  0  0  0  0  0
   -6.5334    0.1758    0.0173 C   0  0  0  0  0  0  0  0  0  0  0  0
   -5.0272   -2.9099    1.2690 C   0  0  0  0  0  0  0  0  0  0  0  0
   -3.4180   -3.3254    1.6676 S   0  0  0  0  0  0  0  0  0  0  0  0
   -2.9397   -1.7315    1.8707 C   0  0  0  0  0  0  0  0  0  0  0  0
   -1.7815   -1.0580    2.2294 C   0  0  0  0  0  0  0  0  0  0  0  0
   -0.5720   -1.4476    2.7137 N   0  0  0  0  0  0  0  0  0  0  0  0
    0.0253   -0.2594    3.0470 C   0  0  0  0  0  0  0  0  0  0  0  0
    1.3044   -0.0195    3.6080 C   0  0  0  0  0  0  0  0  0  0  0  0
    2.4536   -0.7431    3.4310 N   0  0  0  0  0  0  0  0  0  0  0  0
    2.7466   -1.6472    2.3039 C   0  0  0  0  0  0  0  0  0  0  0  0
    3.5216   -2.8822    2.7718 C   0  0  0  0  0  0  0  0  0  0  0  0
   -0.3074   -2.7573    3.3090 C   0  0  0  0  0  0  0  0  0  0  0  0
   -1.0696   -2.9190    4.6215 C   0  0  0  0  0  0  0  0  0  0  0  0
   -6.0900   -3.9083    1.0664 C   0  0  0  0  0  0  0  0  0  0  0  0
   -6.7465   -4.0549   -0.0967 C   0  0  0  0  0  0  0  0  0  0  0  0
   -6.5279   -3.2517   -1.3035 C   0  0  0  0  0  0  0  0  0  0  0  0
   -5.4719   -2.6328   -1.6067 O   0  0  0  0  0  0  0  0  0  0  0  0
   -7.7278   -3.3095   -2.1099 C   0  0  0  0  0  0  0  0  0  0  0  0
   -8.0542   -2.5296   -3.2190 C   0  0  0  0  0  0  0  0  0  0  0  0
   -9.3503   -2.6294   -3.7518 C   0  0  0  0  0  0  0  0  0  0  0  0
   -9.7358   -1.8371   -4.8477 C   0  0  0  0  0  0  0  0  0  0  0  0
  -11.0456   -1.9063   -5.3392 C   0  0  0  0  0  0  0  0  0  0  0  0
  -11.4190   -1.1231   -6.3835 F   0  0  0  0  0  0  0  0  0  0  0  0
  -11.9729   -2.7710   -4.7517 C   0  0  0  0  0  0  0  0  0  0  0  0
  -13.2423   -2.8261   -5.2272 F   0  0  0  0  0  0  0  0  0  0  0  0
  -11.6054   -3.5628   -3.6596 C   0  0  0  0  0  0  0  0  0  0  0  0
  -10.2993   -3.5035   -3.1500 C   0  0  0  0  0  0  0  0  0  0  0  0
   -9.9373   -4.2746   -2.0252 C   0  0  0  0  0  0  0  0  0  0  0  0
   -8.6294   -4.1802   -1.5223 C   0  0  0  0  0  0  0  0  0  0  0  0
   -8.0185   -4.7978   -0.3147 C   0  0  0  0  0  0  0  0  0  0  0  0
   -8.4024   -5.9514    0.2909 C   0  0  0  0  0  0  0  0  0  0  0  0
   -7.5686   -6.6132    1.2609 C   0  0  0  0  0  0  0  0  0  0  0  0
   -6.8861   -7.1557    2.0258 N   0  0  0  0  0  0  0  0  0  0  0  0
   -9.5667   -6.6893   -0.1224 C   0  0  0  0  0  0  0  0  0  0  0  0
  -10.4974   -7.2953   -0.4503 N   0  0  0  0  0  0  0  0  0  0  0  0
    6.9521    2.4319    4.0693 H   0  0  0  0  0  0  0  0  0  0  0  0
    3.9816    2.0838   -1.5279 H   0  0  0  0  0  0  0  0  0  0  0  0
    8.8630    3.5354   -1.3321 H   0  0  0  0  0  0  0  0  0  0  0  0
    7.4253    4.1296   -4.4445 H   0  0  0  0  0  0  0  0  0  0  0  0
    9.0224    2.1851   -5.0387 H   0  0  0  0  0  0  0  0  0  0  0  0
    8.6524    0.1368   -3.4020 H   0  0  0  0  0  0  0  0  0  0  0  0
    6.1580   -0.5902   -3.5383 H   0  0  0  0  0  0  0  0  0  0  0  0
    4.9216    1.0036   -5.2737 H   0  0  0  0  0  0  0  0  0  0  0  0
    7.2956    0.7307   -6.4233 H   0  0  0  0  0  0  0  0  0  0  0  0
    6.7923    2.4819   -6.4924 H   0  0  0  0  0  0  0  0  0  0  0  0
    5.1638    3.4729   -4.5583 H   0  0  0  0  0  0  0  0  0  0  0  0
    5.3227   -0.4391    3.0229 H   0  0  0  0  0  0  0  0  0  0  0  0
    3.0296    3.7299    5.5876 H   0  0  0  0  0  0  0  0  0  0  0  0
    4.7626    3.9017    5.2728 H   0  0  0  0  0  0  0  0  0  0  0  0
    3.2205    5.4775    3.9215 H   0  0  0  0  0  0  0  0  0  0  0  0
    2.7394    4.0310    2.9456 H   0  0  0  0  0  0  0  0  0  0  0  0
    4.4601    4.5766    2.9851 H   0  0  0  0  0  0  0  0  0  0  0  0
   -7.3524   -1.5063    1.0863 H   0  0  0  0  0  0  0  0  0  0  0  0
   -6.7050   -0.2094    2.1429 H   0  0  0  0  0  0  0  0  0  0  0  0
   -5.7128    0.9160    0.0924 H   0  0  0  0  0  0  0  0  0  0  0  0
   -7.4973    0.7230    0.0070 H   0  0  0  0  0  0  0  0  0  0  0  0
   -6.4296   -0.3767   -0.9391 H   0  0  0  0  0  0  0  0  0  0  0  0
    3.3615   -1.1043    1.5492 H   0  0  0  0  0  0  0  0  0  0  0  0
    1.8228   -1.9691    1.7810 H   0  0  0  0  0  0  0  0  0  0  0  0
    4.4314   -2.5953    3.3411 H   0  0  0  0  0  0  0  0  0  0  0  0
    2.8998   -3.5181    3.4316 H   0  0  0  0  0  0  0  0  0  0  0  0
    3.8333   -3.4766    1.8898 H   0  0  0  0  0  0  0  0  0  0  0  0
    0.7597   -2.8816    3.5407 H   0  0  0  0  0  0  0  0  0  0  0  0
   -0.6026   -3.5588    2.5977 H   0  0  0  0  0  0  0  0  0  0  0  0
   -0.8168   -2.0828    5.3118 H   0  0  0  0  0  0  0  0  0  0  0  0
   -2.1632   -2.9159    4.4424 H   0  0  0  0  0  0  0  0  0  0  0  0
   -0.7868   -3.8690    5.1061 H   0  0  0  0  0  0  0  0  0  0  0  0
   -6.4063   -4.4459    1.9438 H   0  0  0  0  0  0  0  0  0  0  0  0
   -7.3287   -1.8405   -3.6325 H   0  0  0  0  0  0  0  0  0  0  0  0
   -9.0282   -1.1627   -5.3162 H   0  0  0  0  0  0  0  0  0  0  0  0
  -12.3405   -4.2223   -3.2156 H   0  0  0  0  0  0  0  0  0  0  0  0
  -10.6851   -4.8778   -1.5330 H   0  0  0  0  0  0  0  0  0  0  0  0
  1  2  2  3
  2  3  1  0
  3  4  2  0
  3  5  1  0
  5  6  2  0
  6  7  1  0
  7  8  2  0
  8  9  1  0
  9 10  2  0
 10 11  1  0
 11 12  2  3
 12 13  1  0
 13 14  3  0
 12 15  1  0
 15 16  3  0
  8 17  1  0
 17 18  1  0
 18 19  1  0
 19 20  2  0
 20 21  1  0
 21 22  1  0
 21 23  1  0
  1 24  1  0
 24 25  2  0
 25 26  1  0
 26 27  2  0
 27 28  1  0
 28 29  1  0
 29 30  1  0
 27 31  1  0
 31 32  1  0
 32 33  1  0
 33 34  2  0
 34 35  1  0
 35 36  1  0
 33 37  1  0
 37 38  1  0
 38 39  1  0
 39 40  1  0
 40 41  1  0
 41 42  1  0
 42 43  1  0
 41 44  2  0
 44 45  1  0
 45 46  1  0
 46 47  1  0
 47 48  1  0
 48 49  1  0
 49 50  1  0
 50 51  1  0
 51 52  1  0
 52 53  1  0
 48 54  1  0
 54 55  1  0
 44 56  1  0
 56 57  2  3
 57 58  1  0
 58 59  2  0
 58 60  1  0
 60 61  2  0
 61 62  1  0
 62 63  2  0
 63 64  1  0
 64 65  1  0
 64 66  2  0
 66 67  1  0
 66 68  1  0
 68 69  2  0
 69 70  1  0
 70 71  2  0
 71 72  1  0
 72 73  2  3
 73 74  1  0
 74 75  3  0
 73 76  1  0
 76 77  3  0
 11  2  1  0
 23 17  1  0
 28 24  1  0
 50 31  2  0
 72 57  1  0
 10  5  1  0
 22 18  1  0
 51 26  1  0
 71 60  1  0
 23  7  1  0
 36 32  2  0
 49 37  2  0
 69 62  1  0
 47 38  2  0
 46 40  2  0
  1 78  1  0
  6 79  1  0
  9 80  1  0
 17 81  1  0
 18 82  1  0
 19 83  1  0
 20 84  1  0
 21 85  1  0
 22 86  1  0
 22 87  1  0
 23 88  1  0
 25 89  1  0
 29 90  1  0
 29 91  1  0
 30 92  1  0
 30 93  1  0
 30 94  1  0
 42 95  1  0
 42 96  1  0
 43 97  1  0
 43 98  1  0
 43 99  1  0
 52100  1  0
 52101  1  0
 53102  1  0
 53103  1  0
 53104  1  0
 54105  1  0
 54106  1  0
 55107  1  0
 55108  1  0
 55109  1  0
 56110  1  0
 61111  1  0
 63112  1  0
 68113  1  0
 70114  1  0
M  END

