
     RDKit          3D

111124  0  0  0  0  0  0  0  0999 V2000
    6.7968   -1.7702   -0.8417 C   0  0  0  0  0  0  0  0  0  0  0  0
    6.1316   -2.9114   -0.5726 C   0  0  0  0  0  0  0  0  0  0  0  0
    4.6782   -3.0795   -0.7275 C   0  0  0  0  0  0  0  0  0  0  0  0
    3.9454   -2.5035   -1.5738 O   0  0  0  0  0  0  0  0  0  0  0  0
    4.2096   -4.0092    0.2744 C   0  0  0  0  0  0  0  0  0  0  0  0
    2.8645   -4.2495    0.6357 C   0  0  0  0  0  0  0  0  0  0  0  0
    2.7250   -5.0065    1.7822 C   0  0  0  0  0  0  0  0  0  0  0  0
    3.8376   -5.5112    2.5332 C   0  0  0  0  0  0  0  0  0  0  0  0
    5.1595   -5.2888    2.1749 C   0  0  0  0  0  0  0  0  0  0  0  0
    5.3260   -4.5127    0.9910 C   0  0  0  0  0  0  0  0  0  0  0  0
    6.5742   -3.9672    0.3819 C   0  0  0  0  0  0  0  0  0  0  0  0
    7.8351   -4.4437    0.5269 C   0  0  0  0  0  0  0  0  0  0  0  0
    8.1516   -5.5179    1.4279 C   0  0  0  0  0  0  0  0  0  0  0  0
    8.4161   -6.3718    2.1690 N   0  0  0  0  0  0  0  0  0  0  0  0
    8.9219   -3.9695   -0.2943 C   0  0  0  0  0  0  0  0  0  0  0  0
    9.7922   -3.5845   -0.9529 N   0  0  0  0  0  0  0  0  0  0  0  0
    2.9037   -6.1030    3.5509 C   0  0  0  0  0  0  0  0  0  0  0  0
    2.6842   -7.6479    3.5421 C   0  0  0  0  0  0  0  0  0  0  0  0
    2.8501   -8.1817    2.1364 C   0  0  0  0  0  0  0  0  0  0  0  0
    1.8199   -7.7162    1.4279 C   0  0  0  0  0  0  0  0  0  0  0  0
    0.9872   -6.8782    2.3731 C   0  0  0  0  0  0  0  0  0  0  0  0
    1.1688   -7.6953    3.6418 C   0  0  0  0  0  0  0  0  0  0  0  0
    1.7658   -5.5901    2.7762 C   0  0  0  0  0  0  0  0  0  0  0  0
    6.0683   -0.5445   -1.2082 C   0  0  0  0  0  0  0  0  0  0  0  0
    5.7011   -0.1209   -2.8159 S   0  0  0  0  0  0  0  0  0  0  0  0
    4.5446    1.0000   -2.3519 C   0  0  0  0  0  0  0  0  0  0  0  0
    3.4259    1.5124   -2.9424 C   0  0  0  0  0  0  0  0  0  0  0  0
    2.9700    1.3973   -4.2625 C   0  0  0  0  0  0  0  0  0  0  0  0
    1.6078    1.7050   -4.5495 C   0  0  0  0  0  0  0  0  0  0  0  0
    1.1957    1.5567   -5.8322 N   0  0  0  0  0  0  0  0  0  0  0  0
    2.6079    1.0235   -6.5163 S   0  0  0  0  0  0  0  0  0  0  0  0
    3.7326    0.9667   -5.2991 N   0  0  0  0  0  0  0  0  0  0  0  0
    0.7901    2.1437   -3.5037 C   0  0  0  0  0  0  0  0  0  0  0  0
   -0.5251    2.4961   -3.4620 C   0  0  0  0  0  0  0  0  0  0  0  0
   -1.9047    2.3983   -4.4396 S   0  0  0  0  0  0  0  0  0  0  0  0
   -2.8874    2.8915   -3.1308 C   0  0  0  0  0  0  0  0  0  0  0  0
   -4.2718    2.8702   -2.9378 C   0  0  0  0  0  0  0  0  0  0  0  0
   -5.2572    2.5048   -4.0137 C   0  0  0  0  0  0  0  0  0  0  0  0
   -5.3976    0.9915   -4.1423 C   0  0  0  0  0  0  0  0  0  0  0  0
   -4.6022    3.0903   -1.5835 C   0  0  0  0  0  0  0  0  0  0  0  0
   -3.1658    3.2373   -0.6774 S   0  0  0  0  0  0  0  0  0  0  0  0
   -2.1476    3.1143   -1.9968 C   0  0  0  0  0  0  0  0  0  0  0  0
   -0.7934    2.8848   -2.1918 C   0  0  0  0  0  0  0  0  0  0  0  0
    0.2916    2.8341   -1.3754 N   0  0  0  0  0  0  0  0  0  0  0  0
    1.2573    2.2993   -2.1905 C   0  0  0  0  0  0  0  0  0  0  0  0
    2.5843    1.8896   -1.8861 C   0  0  0  0  0  0  0  0  0  0  0  0
    3.1193    1.5005   -0.6808 N   0  0  0  0  0  0  0  0  0  0  0  0
    4.3523    1.0063   -1.0085 C   0  0  0  0  0  0  0  0  0  0  0  0
    5.2436    0.1651   -0.3073 C   0  0  0  0  0  0  0  0  0  0  0  0
    5.3860    0.0615    1.1978 C   0  0  0  0  0  0  0  0  0  0  0  0
    5.8548    1.3878    1.7921 C   0  0  0  0  0  0  0  0  0  0  0  0
    2.3409    1.0719    0.4929 C   0  0  0  0  0  0  0  0  0  0  0  0
    1.9125   -0.3896    0.3731 C   0  0  0  0  0  0  0  0  0  0  0  0
    0.5516    3.8302   -0.3186 C   0  0  0  0  0  0  0  0  0  0  0  0
   -0.3043    3.6008    0.9331 C   0  0  0  0  0  0  0  0  0  0  0  0
   -5.9385    2.8525   -0.9992 C   0  0  0  0  0  0  0  0  0  0  0  0
   -6.4391    3.4639    0.0940 C   0  0  0  0  0  0  0  0  0  0  0  0
   -5.7816    4.5033    0.8933 C   0  0  0  0  0  0  0  0  0  0  0  0
   -4.9005    5.3102    0.4910 O   0  0  0  0  0  0  0  0  0  0  0  0
   -6.4147    4.5417    2.1993 C   0  0  0  0  0  0  0  0  0  0  0  0
   -6.0249    5.2629    3.3338 C   0  0  0  0  0  0  0  0  0  0  0  0
   -4.9274    6.1330    3.2569 O   0  0  0  0  0  0  0  0  0  0  0  0
   -4.4246    6.8844    4.3558 C   0  0  0  0  0  0  0  0  0  0  0  0
   -6.7569    5.0637    4.5234 C   0  0  0  0  0  0  0  0  0  0  0  0
   -7.8213    4.1474    4.5578 C   0  0  0  0  0  0  0  0  0  0  0  0
   -8.1835    3.4320    3.4076 C   0  0  0  0  0  0  0  0  0  0  0  0
   -7.4864    3.6625    2.2131 C   0  0  0  0  0  0  0  0  0  0  0  0
   -7.6525    3.0486    0.8664 C   0  0  0  0  0  0  0  0  0  0  0  0
   -8.7769    2.4597    0.3769 C   0  0  0  0  0  0  0  0  0  0  0  0
   -9.9507    2.2467    1.1808 C   0  0  0  0  0  0  0  0  0  0  0  0
  -10.9047    2.0728    1.8127 N   0  0  0  0  0  0  0  0  0  0  0  0
   -8.9400    2.1422   -1.0202 C   0  0  0  0  0  0  0  0  0  0  0  0
   -9.0816    1.8909   -2.1423 N   0  0  0  0  0  0  0  0  0  0  0  0
    7.8120   -1.6378   -0.4998 H   0  0  0  0  0  0  0  0  0  0  0  0
    2.0205   -3.8223    0.1122 H   0  0  0  0  0  0  0  0  0  0  0  0
    5.9663   -5.6180    2.8095 H   0  0  0  0  0  0  0  0  0  0  0  0
    2.9954   -5.6467    4.5631 H   0  0  0  0  0  0  0  0  0  0  0  0
    3.2327   -8.2077    4.3293 H   0  0  0  0  0  0  0  0  0  0  0  0
    3.6078   -8.8728    1.7838 H   0  0  0  0  0  0  0  0  0  0  0  0
    1.5950   -7.9613    0.3947 H   0  0  0  0  0  0  0  0  0  0  0  0
   -0.0629   -6.7146    2.0568 H   0  0  0  0  0  0  0  0  0  0  0  0
    0.7655   -7.1940    4.5554 H   0  0  0  0  0  0  0  0  0  0  0  0
    0.7517   -8.7268    3.5664 H   0  0  0  0  0  0  0  0  0  0  0  0
    1.1632   -4.8281    3.3223 H   0  0  0  0  0  0  0  0  0  0  0  0
   -6.2507    2.9486   -3.7860 H   0  0  0  0  0  0  0  0  0  0  0  0
   -4.9169    2.9264   -4.9846 H   0  0  0  0  0  0  0  0  0  0  0  0
   -4.4308    0.5409   -4.4434 H   0  0  0  0  0  0  0  0  0  0  0  0
   -6.1577    0.7525   -4.9137 H   0  0  0  0  0  0  0  0  0  0  0  0
   -5.7155    0.5429   -3.1809 H   0  0  0  0  0  0  0  0  0  0  0  0
    4.4470   -0.2709    1.6776 H   0  0  0  0  0  0  0  0  0  0  0  0
    6.1368   -0.7087    1.4656 H   0  0  0  0  0  0  0  0  0  0  0  0
    5.8780    1.3102    2.8992 H   0  0  0  0  0  0  0  0  0  0  0  0
    5.1763    2.2146    1.5010 H   0  0  0  0  0  0  0  0  0  0  0  0
    6.8797    1.6198    1.4315 H   0  0  0  0  0  0  0  0  0  0  0  0
    2.8971    1.2626    1.4243 H   0  0  0  0  0  0  0  0  0  0  0  0
    1.4218    1.6433    0.5859 H   0  0  0  0  0  0  0  0  0  0  0  0
    1.3238   -0.5398   -0.5541 H   0  0  0  0  0  0  0  0  0  0  0  0
    2.7833   -1.0683    0.3418 H   0  0  0  0  0  0  0  0  0  0  0  0
    1.2840   -0.6681    1.2419 H   0  0  0  0  0  0  0  0  0  0  0  0
    1.6288    3.8189   -0.0351 H   0  0  0  0  0  0  0  0  0  0  0  0
    0.3504    4.8502   -0.7173 H   0  0  0  0  0  0  0  0  0  0  0  0
    0.2946    3.8267    1.8403 H   0  0  0  0  0  0  0  0  0  0  0  0
   -1.1729    4.2925    0.9344 H   0  0  0  0  0  0  0  0  0  0  0  0
   -0.6678    2.5527    0.9942 H   0  0  0  0  0  0  0  0  0  0  0  0
   -6.4914    2.0523   -1.4538 H   0  0  0  0  0  0  0  0  0  0  0  0
   -3.5478    7.4731    4.0217 H   0  0  0  0  0  0  0  0  0  0  0  0
   -5.2045    7.5823    4.7316 H   0  0  0  0  0  0  0  0  0  0  0  0
   -4.1016    6.2014    5.1684 H   0  0  0  0  0  0  0  0  0  0  0  0
   -6.5005    5.5970    5.4288 H   0  0  0  0  0  0  0  0  0  0  0  0
   -8.3564    3.9803    5.4840 H   0  0  0  0  0  0  0  0  0  0  0  0
   -8.9655    2.6960    3.4846 H   0  0  0  0  0  0  0  0  0  0  0  0
  1  2  2  3
  2  3  1  0
  3  4  2  0
  3  5  1  0
  5  6  2  0
  6  7  1  0
  7  8  2  0
  8  9  1  0
  9 10  2  0
 10 11  1  0
 11 12  2  3
 12 13  1  0
 13 14  3  0
 12 15  1  0
 15 16  3  0
  8 17  1  0
 17 18  1  0
 18 19  1  0
 19 20  2  0
 20 21  1  0
 21 22  1  0
 21 23  1  0
  1 24  1  0
 24 25  1  0
 25 26  1  0
 26 27  1  0
 27 28  1  0
 28 29  1  0
 29 30  2  0
 30 31  1  0
 31 32  1  0
 29 33  1  0
 33 34  1  0
 34 35  1  0
 35 36  1  0
 36 37  1  0
 37 38  1  0
 38 39  1  0
 37 40  2  0
 40 41  1  0
 41 42  1  0
 42 43  1  0
 43 44  1  0
 44 45  1  0
 45 46  1  0
 46 47  1  0
 47 48  1  0
 48 49  1  0
 49 50  1  0
 50 51  1  0
 47 52  1  0
 52 53  1  0
 44 54  1  0
 54 55  1  0
 40 56  1  0
 56 57  2  3
 57 58  1  0
 58 59  2  0
 58 60  1  0
 60 61  2  0
 61 62  1  0
 62 63  1  0
 61 64  1  0
 64 65  2  0
 65 66  1  0
 66 67  2  0
 67 68  1  0
 68 69  2  3
 69 70  1  0
 70 71  3  0
 69 72  1  0
 72 73  3  0
 11  2  1  0
 23 17  1  0
 49 24  2  0
 68 57  1  0
 10  5  1  0
 22 18  1  0
 48 26  2  0
 67 60  1  0
 23  7  1  0
 46 27  2  0
 32 28  2  0
 45 33  2  0
 43 34  2  0
 42 36  2  0
  1 74  1  0
  6 75  1  0
  9 76  1  0
 17 77  1  0
 18 78  1  0
 19 79  1  0
 20 80  1  0
 21 81  1  0
 22 82  1  0
 22 83  1  0
 23 84  1  0
 38 85  1  0
 38 86  1  0
 39 87  1  0
 39 88  1  0
 39 89  1  0
 50 90  1  0
 50 91  1  0
 51 92  1  0
 51 93  1  0
 51 94  1  0
 52 95  1  0
 52 96  1  0
 53 97  1  0
 53 98  1  0
 53 99  1  0
 54100  1  0
 54101  1  0
 55102  1  0
 55103  1  0
 55104  1  0
 56105  1  0
 63106  1  0
 63107  1  0
 63108  1  0
 64109  1  0
 65110  1  0
 66111  1  0
M  END

