
     RDKit          3D

106120  0  0  0  0  0  0  0  0999 V2000
    3.5388   -2.5802    2.3306 C   0  0  0  0  0  0  0  0  0  0  0  0
    4.1925   -2.0918    3.4857 C   0  0  0  0  0  0  0  0  0  0  0  0
    4.3368   -0.8871    3.9455 C   0  0  0  0  0  0  0  0  0  0  0  0
    3.6910    0.2321    3.7718 O   0  0  0  0  0  0  0  0  0  0  0  0
    5.5335   -0.8866    4.8518 C   0  0  0  0  0  0  0  0  0  0  0  0
    6.0501    0.0829    5.6701 C   0  0  0  0  0  0  0  0  0  0  0  0
    7.1203   -0.1796    6.5287 C   0  0  0  0  0  0  0  0  0  0  0  0
    7.5947   -1.4272    6.5142 C   0  0  0  0  0  0  0  0  0  0  0  0
    7.0724   -2.4513    5.6932 C   0  0  0  0  0  0  0  0  0  0  0  0
    6.0505   -2.1382    4.8828 C   0  0  0  0  0  0  0  0  0  0  0  0
    5.1583   -3.1282    3.9339 C   0  0  0  0  0  0  0  0  0  0  0  0
    5.3084   -4.3688    4.2357 C   0  0  0  0  0  0  0  0  0  0  0  0
    6.4259   -4.7983    4.5813 C   0  0  0  0  0  0  0  0  0  0  0  0
    7.8091   -5.3024    5.0178 N   0  0  0  0  0  0  0  0  0  0  0  0
    4.0955   -5.2072    4.2733 C   0  0  0  0  0  0  0  0  0  0  0  0
    3.0926   -5.9123    4.2852 N   0  0  0  0  0  0  0  0  0  0  0  0
    8.5710   -1.0803    7.6049 C   0  0  0  0  0  0  0  0  0  0  0  0
    8.0683   -1.6714    8.8657 C   0  0  0  0  0  0  0  0  0  0  0  0
    8.6823   -0.9176   10.0105 C   0  0  0  0  0  0  0  0  0  0  0  0
    8.1121    0.2877   10.0466 C   0  0  0  0  0  0  0  0  0  0  0  0
    7.2133    0.3875    8.9109 C   0  0  0  0  0  0  0  0  0  0  0  0
    6.6481   -1.0376    8.8564 C   0  0  0  0  0  0  0  0  0  0  0  0
    8.0200    0.3262    7.6064 C   0  0  0  0  0  0  0  0  0  0  0  0
    2.9204   -1.7076    1.3848 C   0  0  0  0  0  0  0  0  0  0  0  0
    3.7459   -1.0127    0.3849 C   0  0  0  0  0  0  0  0  0  0  0  0
    5.1352   -1.0686    0.3027 C   0  0  0  0  0  0  0  0  0  0  0  0
    5.8765   -0.0027    1.1043 C   0  0  0  0  0  0  0  0  0  0  0  0
    2.6925   -0.4764   -0.3434 C   0  0  0  0  0  0  0  0  0  0  0  0
    3.4683    0.7861   -2.1843 Se  0  0  0  0  0  2  0  0  0  0  0  0
    1.5600    1.0300   -2.4784 C   0  0  0  0  0  0  0  0  0  0  0  0
    0.7034    1.6187   -3.3090 C   0  0  0  0  0  0  0  0  0  0  0  0
    0.9692    2.2621   -4.5369 C   0  0  0  0  0  0  0  0  0  0  0  0
   -0.0809    2.5958   -5.2878 C   0  0  0  0  0  0  0  0  0  0  0  0
    0.2227    3.2366   -6.4235 N   0  0  0  0  0  0  0  0  0  0  0  0
    1.9322    3.3625   -6.4295 S   0  0  0  0  0  0  0  0  0  0  0  0
    2.1430    2.5803   -4.9701 N   0  0  0  0  0  0  0  0  0  0  0  0
   -1.3446    2.3026   -4.8129 C   0  0  0  0  0  0  0  0  0  0  0  0
   -2.5578    2.4999   -5.4151 C   0  0  0  0  0  0  0  0  0  0  0  0
   -3.2601    3.0510   -7.0523 Se  0  0  0  0  0  2  0  0  0  0  0  0
   -5.1087    2.5562   -6.3799 C   0  0  0  0  0  0  0  0  0  0  0  0
   -6.3457    2.5350   -6.9239 C   0  0  0  0  0  0  0  0  0  0  0  0
   -6.6197    3.1264   -8.3052 C   0  0  0  0  0  0  0  0  0  0  0  0
   -5.6872    2.3568   -9.2891 C   0  0  0  0  0  0  0  0  0  0  0  0
   -7.3241    2.0451   -6.1655 C   0  0  0  0  0  0  0  0  0  0  0  0
   -6.4837    1.6496   -4.7135 S   0  0  0  0  0  0  0  0  0  0  0  0
   -4.8664    2.1490   -5.1988 C   0  0  0  0  0  0  0  0  0  0  0  0
   -3.5837    2.0749   -4.6330 C   0  0  0  0  0  0  0  0  0  0  0  0
   -2.9715    1.5689   -3.4809 N   0  0  0  0  0  0  0  0  0  0  0  0
   -1.6506    1.7022   -3.6108 C   0  0  0  0  0  0  0  0  0  0  0  0
   -0.5918    1.3229   -2.8246 C   0  0  0  0  0  0  0  0  0  0  0  0
   -0.4182    0.5787   -1.7250 N   0  0  0  0  0  0  0  0  0  0  0  0
    0.8255    0.3223   -1.4162 C   0  0  0  0  0  0  0  0  0  0  0  0
    2.0319   -0.1827   -0.7403 C   0  0  0  0  0  0  0  0  0  0  0  0
    1.3422   -1.3144    0.9065 S   0  0  0  0  0  0  0  0  0  0  0  0
   -1.4412    0.1084   -0.8013 C   0  0  0  0  0  0  0  0  0  0  0  0
   -1.2413    0.8844    0.5431 C   0  0  0  0  0  0  0  0  0  0  0  0
   -3.7079    1.0662   -2.3989 C   0  0  0  0  0  0  0  0  0  0  0  0
   -4.0316    2.0823   -1.3071 C   0  0  0  0  0  0  0  0  0  0  0  0
   -8.6900    1.5796   -6.5641 C   0  0  0  0  0  0  0  0  0  0  0  0
   -9.2058    0.6329   -5.7042 C   0  0  0  0  0  0  0  0  0  0  0  0
   -9.7545   -0.2297   -4.9908 C   0  0  0  0  0  0  0  0  0  0  0  0
  -10.0300   -1.4968   -5.6189 O   0  0  0  0  0  0  0  0  0  0  0  0
  -10.2002   -0.2478   -3.6422 C   0  0  0  0  0  0  0  0  0  0  0  0
  -10.7879   -1.0863   -2.7103 C   0  0  0  0  0  0  0  0  0  0  0  0
  -11.0171   -0.6675   -1.4377 C   0  0  0  0  0  0  0  0  0  0  0  0
  -11.7166   -1.8231   -0.2991 Cl  0  0  0  0  0  0  0  0  0  0  0  0
  -10.6864    0.5836   -1.0230 C   0  0  0  0  0  0  0  0  0  0  0  0
  -10.9854    1.1060    0.6160 Cl  0  0  0  0  0  0  0  0  0  0  0  0
  -10.0999    1.4153   -1.9508 C   0  0  0  0  0  0  0  0  0  0  0  0
   -9.8363    1.0544   -3.2615 C   0  0  0  0  0  0  0  0  0  0  0  0
   -9.2222    1.7481   -4.3551 C   0  0  0  0  0  0  0  0  0  0  0  0
   -8.7922    2.8272   -4.4492 O   0  0  0  0  0  0  0  0  0  0  0  0
    3.4986   -3.6209    2.1817 H   0  0  0  0  0  0  0  0  0  0  0  0
    5.6336    1.0660    5.6485 H   0  0  0  0  0  0  0  0  0  0  0  0
    7.5491   -3.3774    5.8038 H   0  0  0  0  0  0  0  0  0  0  0  0
    9.6266   -1.2139    7.3813 H   0  0  0  0  0  0  0  0  0  0  0  0
    8.0538   -2.7466    8.9425 H   0  0  0  0  0  0  0  0  0  0  0  0
    9.4762   -1.2550   10.6461 H   0  0  0  0  0  0  0  0  0  0  0  0
    8.2894    1.0723   10.7857 H   0  0  0  0  0  0  0  0  0  0  0  0
    6.4316    1.1345    8.9398 H   0  0  0  0  0  0  0  0  0  0  0  0
    6.0142   -1.3071    9.7381 H   0  0  0  0  0  0  0  0  0  0  0  0
    6.1615   -1.2661    7.8921 H   0  0  0  0  0  0  0  0  0  0  0  0
    8.6706    1.1358    7.3974 H   0  0  0  0  0  0  0  0  0  0  0  0
    5.6096   -1.0636   -0.7347 H   0  0  0  0  0  0  0  0  0  0  0  0
    5.5657   -2.0955    0.6657 H   0  0  0  0  0  0  0  0  0  0  0  0
    6.6611    0.4874    0.4347 H   0  0  0  0  0  0  0  0  0  0  0  0
    6.4047   -0.4164    1.9699 H   0  0  0  0  0  0  0  0  0  0  0  0
    5.1247    0.7388    1.4430 H   0  0  0  0  0  0  0  0  0  0  0  0
   -6.4002    4.2002   -8.2914 H   0  0  0  0  0  0  0  0  0  0  0  0
   -7.6252    2.8608   -8.6147 H   0  0  0  0  0  0  0  0  0  0  0  0
   -5.5713    1.3424   -8.9611 H   0  0  0  0  0  0  0  0  0  0  0  0
   -4.7092    2.9229   -9.3540 H   0  0  0  0  0  0  0  0  0  0  0  0
   -6.1460    2.3965  -10.2861 H   0  0  0  0  0  0  0  0  0  0  0  0
   -0.9998   -0.9221   -0.4657 H   0  0  0  0  0  0  0  0  0  0  0  0
   -2.4231    0.0726   -0.8704 H   0  0  0  0  0  0  0  0  0  0  0  0
   -2.0658    1.5988    0.7096 H   0  0  0  0  0  0  0  0  0  0  0  0
   -1.2864    0.1634    1.3877 H   0  0  0  0  0  0  0  0  0  0  0  0
   -0.2367    1.3063    0.5871 H   0  0  0  0  0  0  0  0  0  0  0  0
   -4.8041    0.9781   -2.7882 H   0  0  0  0  0  0  0  0  0  0  0  0
   -3.7458    0.0077   -2.1651 H   0  0  0  0  0  0  0  0  0  0  0  0
   -4.9462    2.7006   -1.5361 H   0  0  0  0  0  0  0  0  0  0  0  0
   -4.2698    1.4985   -0.3973 H   0  0  0  0  0  0  0  0  0  0  0  0
   -3.2317    2.8116   -1.1489 H   0  0  0  0  0  0  0  0  0  0  0  0
   -9.1959    1.8978   -7.3904 H   0  0  0  0  0  0  0  0  0  0  0  0
  -11.0489   -2.1035   -3.0412 H   0  0  0  0  0  0  0  0  0  0  0  0
   -9.8393    2.4327   -1.6447 H   0  0  0  0  0  0  0  0  0  0  0  0
  1  2  2  3
  2  3  1  0
  3  4  2  0
  3  5  1  0
  5  6  2  0
  6  7  1  0
  7  8  2  0
  8  9  1  0
  9 10  2  0
 10 11  1  0
 11 12  2  3
 12 13  1  0
 13 14  3  0
 12 15  1  0
 15 16  3  0
  8 17  1  0
 17 18  1  0
 18 19  1  0
 19 20  2  0
 20 21  1  0
 21 22  1  0
 21 23  1  0
  1 24  1  0
 24 25  2  0
 25 26  1  0
 26 27  1  0
 25 28  1  0
 28 29  1  0
 29 30  1  0
 30 31  1  0
 31 32  1  0
 32 33  1  0
 33 34  2  0
 34 35  1  0
 35 36  1  0
 33 37  1  0
 37 38  1  0
 38 39  1  0
 39 40  1  0
 40 41  1  0
 41 42  1  0
 42 43  1  0
 41 44  2  0
 44 45  1  0
 45 46  1  0
 46 47  1  0
 47 48  1  0
 48 49  1  0
 49 50  1  0
 50 51  1  0
 51 52  1  0
 52 53  1  0
 53 54  1  0
 51 55  1  0
 55 56  1  0
 48 57  1  0
 57 58  1  0
 44 59  1  0
 59 60  2  3
 60 61  1  0
 61 62  2  0
 61 63  1  0
 63 64  2  0
 64 65  1  0
 65 66  1  0
 65 67  2  0
 67 68  1  0
 67 69  1  0
 69 70  2  0
 70 71  1  0
 71 72  2  0
 11  2  1  0
 23 17  1  0
 54 24  1  0
 71 60  1  0
 10  5  1  0
 22 18  1  0
 53 28  2  0
 70 63  1  0
 23  7  1  0
 52 30  2  0
 50 31  2  0
 36 32  2  0
 49 37  2  0
 47 38  2  0
 46 40  2  0
  1 73  1  0
  6 74  1  0
  9 75  1  0
 17 76  1  0
 18 77  1  0
 19 78  1  0
 20 79  1  0
 21 80  1  0
 22 81  1  0
 22 82  1  0
 23 83  1  0
 26 84  1  0
 26 85  1  0
 27 86  1  0
 27 87  1  0
 27 88  1  0
 42 89  1  0
 42 90  1  0
 43 91  1  0
 43 92  1  0
 43 93  1  0
 55 94  1  0
 55 95  1  0
 56 96  1  0
 56 97  1  0
 56 98  1  0
 57 99  1  0
 57100  1  0
 58101  1  0
 58102  1  0
 58103  1  0
 59104  1  0
 64105  1  0
 69106  1  0
M  END

