
     RDKit          3D

 98112  0  0  0  0  0  0  0  0999 V2000
   -3.3120   -2.3235   -6.0477 C   0  0  0  0  0  0  0  0  0  0  0  0
   -2.5546   -1.1448   -6.0799 C   0  0  0  0  0  0  0  0  0  0  0  0
   -2.1196   -0.4596   -4.8613 C   0  0  0  0  0  0  0  0  0  0  0  0
   -2.2808   -0.8021   -3.6689 O   0  0  0  0  0  0  0  0  0  0  0  0
   -1.4303    0.7752   -5.2495 C   0  0  0  0  0  0  0  0  0  0  0  0
   -1.0177    1.8174   -4.4742 C   0  0  0  0  0  0  0  0  0  0  0  0
   -0.6153    3.0216   -4.9942 C   0  0  0  0  0  0  0  0  0  0  0  0
   -0.6510    3.1484   -6.3681 C   0  0  0  0  0  0  0  0  0  0  0  0
   -1.0557    2.0581   -7.1663 C   0  0  0  0  0  0  0  0  0  0  0  0
   -1.4369    0.8709   -6.6578 C   0  0  0  0  0  0  0  0  0  0  0  0
   -2.1341   -0.3471   -7.1443 C   0  0  0  0  0  0  0  0  0  0  0  0
   -2.4601   -0.5167   -8.4952 C   0  0  0  0  0  0  0  0  0  0  0  0
   -1.8003    0.4104   -9.4501 C   0  0  0  0  0  0  0  0  0  0  0  0
   -1.2114    1.2128  -10.2675 N   0  0  0  0  0  0  0  0  0  0  0  0
   -3.2818   -1.2462   -8.9850 C   0  0  0  0  0  0  0  0  0  0  0  0
   -4.3197   -2.1788   -9.6033 N   0  0  0  0  0  0  0  0  0  0  0  0
   -0.3995    4.5966   -6.2760 C   0  0  0  0  0  0  0  0  0  0  0  0
    0.9001    5.1112   -6.7157 C   0  0  0  0  0  0  0  0  0  0  0  0
    1.1301    6.4096   -5.9119 C   0  0  0  0  0  0  0  0  0  0  0  0
    1.5643    6.0776   -4.7016 C   0  0  0  0  0  0  0  0  0  0  0  0
    1.3265    4.5501   -4.5913 C   0  0  0  0  0  0  0  0  0  0  0  0
    1.9026    4.2352   -5.9812 C   0  0  0  0  0  0  0  0  0  0  0  0
   -0.1127    4.3938   -4.7369 C   0  0  0  0  0  0  0  0  0  0  0  0
   -3.5899   -2.7115   -4.6744 C   0  0  0  0  0  0  0  0  0  0  0  0
   -4.6515   -2.6482   -3.8649 C   0  0  0  0  0  0  0  0  0  0  0  0
   -4.5759   -2.8274   -2.5123 C   0  0  0  0  0  0  0  0  0  0  0  0
   -5.6169   -2.5435   -1.1200 S   0  0  0  0  0  0  0  0  0  0  0  0
   -4.5385   -2.7021    0.1170 C   0  0  0  0  0  0  0  0  0  0  0  0
   -4.1987   -2.4824    1.4587 C   0  0  0  0  0  0  0  0  0  0  0  0
   -4.9256   -2.0265    2.5564 C   0  0  0  0  0  0  0  0  0  0  0  0
   -4.3381   -1.8044    3.7304 C   0  0  0  0  0  0  0  0  0  0  0  0
   -5.1167   -1.3663    4.7277 N   0  0  0  0  0  0  0  0  0  0  0  0
   -6.6315   -1.2458    4.0537 S   0  0  0  0  0  0  0  0  0  0  0  0
   -6.2708   -1.7689    2.5113 N   0  0  0  0  0  0  0  0  0  0  0  0
   -2.9278   -2.0031    3.8333 C   0  0  0  0  0  0  0  0  0  0  0  0
   -2.0728   -1.6858    4.8596 C   0  0  0  0  0  0  0  0  0  0  0  0
   -0.7779   -1.9326    4.4225 C   0  0  0  0  0  0  0  0  0  0  0  0
   -0.8327   -2.3930    3.1408 N   0  0  0  0  0  0  0  0  0  0  0  0
    0.3646   -2.4512    2.3263 C   0  0  0  0  0  0  0  0  0  0  0  0
    1.1895   -3.6485    2.5284 C   0  0  0  0  0  0  0  0  0  0  0  0
   -2.1484   -2.4396    2.8021 C   0  0  0  0  0  0  0  0  0  0  0  0
   -2.8381   -2.6987    1.5960 C   0  0  0  0  0  0  0  0  0  0  0  0
   -2.3812   -3.0424    0.4210 N   0  0  0  0  0  0  0  0  0  0  0  0
   -3.3140   -3.0308   -0.5363 C   0  0  0  0  0  0  0  0  0  0  0  0
   -3.4835   -3.0808   -1.8806 C   0  0  0  0  0  0  0  0  0  0  0  0
   -2.2265   -3.1333   -3.3667 Se  0  0  0  0  0  2  0  0  0  0  0  0
   -1.1370   -3.8900    0.2271 C   0  0  0  0  0  0  0  0  0  0  0  0
   -1.7018   -5.2993   -0.2573 C   0  0  0  0  0  0  0  0  0  0  0  0
    0.1202   -1.6332    5.3234 C   0  0  0  0  0  0  0  0  0  0  0  0
   -0.0528   -1.1604    6.5137 C   0  0  0  0  0  0  0  0  0  0  0  0
   -1.8294   -1.0830    6.4600 S   0  0  0  0  0  0  0  0  0  0  0  0
    0.9361   -0.7953    7.3879 C   0  0  0  0  0  0  0  0  0  0  0  0
    2.2149   -0.8579    7.2044 C   0  0  0  0  0  0  0  0  0  0  0  0
    2.2294   -1.5904    5.3588 Se  0  0  0  0  0  2  0  0  0  0  0  0
    3.6358   -0.7717    7.6307 C   0  0  0  0  0  0  0  0  0  0  0  0
    4.3403    0.0484    6.7326 C   0  0  0  0  0  0  0  0  0  0  0  0
    3.8314    0.7668    5.5976 C   0  0  0  0  0  0  0  0  0  0  0  0
    2.6793    1.2555    5.4880 O   0  0  0  0  0  0  0  0  0  0  0  0
    4.8680    0.8129    4.5985 C   0  0  0  0  0  0  0  0  0  0  0  0
    5.2539    1.4502    3.0637 S   0  0  0  0  0  0  0  0  0  0  0  0
    6.8697    0.9401    2.9394 C   0  0  0  0  0  0  0  0  0  0  0  0
    7.9113    1.1208    1.8180 C   0  0  0  0  0  0  0  0  0  0  0  0
    7.0866    0.2311    4.1315 C   0  0  0  0  0  0  0  0  0  0  0  0
    6.0685    0.1674    5.0055 C   0  0  0  0  0  0  0  0  0  0  0  0
    5.7330   -0.3057    6.3003 C   0  0  0  0  0  0  0  0  0  0  0  0
    6.4934   -0.9715    7.3315 C   0  0  0  0  0  0  0  0  0  0  0  0
    7.8861   -1.3778    6.5790 C   0  0  0  0  0  0  0  0  0  0  0  0
    8.9372   -1.6952    6.0097 N   0  0  0  0  0  0  0  0  0  0  0  0
    6.5765   -1.0534    8.3566 C   0  0  0  0  0  0  0  0  0  0  0  0
    6.7227   -1.1616    9.8626 N   0  0  0  0  0  0  0  0  0  0  0  0
   -3.5679   -2.8744   -6.8656 H   0  0  0  0  0  0  0  0  0  0  0  0
   -0.9792    1.6829   -3.4252 H   0  0  0  0  0  0  0  0  0  0  0  0
   -1.0357    2.2757   -8.2544 H   0  0  0  0  0  0  0  0  0  0  0  0
   -1.2923    5.2418   -6.3897 H   0  0  0  0  0  0  0  0  0  0  0  0
    1.0854    5.3238   -7.7647 H   0  0  0  0  0  0  0  0  0  0  0  0
    0.9145    7.3841   -6.2486 H   0  0  0  0  0  0  0  0  0  0  0  0
    1.9567    6.5766   -3.8630 H   0  0  0  0  0  0  0  0  0  0  0  0
    1.9009    4.0935   -3.8171 H   0  0  0  0  0  0  0  0  0  0  0  0
    1.8016    3.1810   -6.3155 H   0  0  0  0  0  0  0  0  0  0  0  0
    2.9300    4.6681   -6.0987 H   0  0  0  0  0  0  0  0  0  0  0  0
   -0.7566    5.0069   -4.0949 H   0  0  0  0  0  0  0  0  0  0  0  0
   -5.6153   -2.4036   -4.3930 H   0  0  0  0  0  0  0  0  0  0  0  0
    1.0894   -1.5972    2.7445 H   0  0  0  0  0  0  0  0  0  0  0  0
    0.2596   -2.0522    1.3144 H   0  0  0  0  0  0  0  0  0  0  0  0
    0.7073   -4.5261    2.9977 H   0  0  0  0  0  0  0  0  0  0  0  0
    1.5141   -4.0926    1.5186 H   0  0  0  0  0  0  0  0  0  0  0  0
    2.1270   -3.5017    3.1142 H   0  0  0  0  0  0  0  0  0  0  0  0
   -0.5465   -3.4867   -0.5387 H   0  0  0  0  0  0  0  0  0  0  0  0
   -0.8167   -4.1877    1.1626 H   0  0  0  0  0  0  0  0  0  0  0  0
   -2.1447   -5.1711   -1.2345 H   0  0  0  0  0  0  0  0  0  0  0  0
   -2.5275   -5.5538    0.4534 H   0  0  0  0  0  0  0  0  0  0  0  0
   -0.8588   -5.9937   -0.1610 H   0  0  0  0  0  0  0  0  0  0  0  0
    0.6751   -0.3820    8.4632 H   0  0  0  0  0  0  0  0  0  0  0  0
    4.0131   -1.1464    8.4392 H   0  0  0  0  0  0  0  0  0  0  0  0
    8.3639    2.1042    1.8736 H   0  0  0  0  0  0  0  0  0  0  0  0
    7.2554    1.1554    0.8868 H   0  0  0  0  0  0  0  0  0  0  0  0
    8.4836    0.2005    1.7689 H   0  0  0  0  0  0  0  0  0  0  0  0
    8.1046   -0.1169    4.2648 H   0  0  0  0  0  0  0  0  0  0  0  0
  1  2  2  3
  2  3  1  0
  3  4  2  0
  3  5  1  0
  5  6  2  0
  6  7  1  0
  7  8  2  0
  8  9  1  0
  9 10  2  0
 10 11  1  0
 11 12  2  3
 12 13  1  0
 13 14  3  0
 12 15  1  0
 15 16  3  0
  8 17  1  0
 17 18  1  0
 18 19  1  0
 19 20  2  0
 20 21  1  0
 21 22  1  0
 21 23  1  0
  1 24  1  0
 24 25  2  0
 25 26  1  0
 26 27  1  0
 27 28  1  0
 28 29  1  0
 29 30  1  0
 30 31  1  0
 31 32  2  0
 32 33  1  0
 33 34  1  0
 31 35  1  0
 35 36  1  0
 36 37  2  0
 37 38  1  0
 38 39  1  0
 39 40  1  0
 38 41  1  0
 41 42  1  0
 42 43  1  0
 43 44  1  0
 44 45  1  0
 45 46  1  0
 43 47  1  0
 47 48  1  0
 37 49  1  0
 49 50  2  0
 50 51  1  0
 50 52  1  0
 52 53  2  0
 53 54  1  0
 53 55  1  0
 55 56  2  3
 56 57  1  0
 57 58  2  0
 57 59  1  0
 59 60  1  0
 60 61  1  0
 61 62  1  0
 61 63  2  0
 63 64  1  0
 64 65  1  0
 65 66  2  3
 66 67  1  0
 67 68  3  0
 66 69  1  0
 69 70  3  0
 11  2  1  0
 23 17  1  0
 46 24  1  0
 54 49  1  0
 65 56  1  0
 10  5  1  0
 22 18  1  0
 45 26  2  0
 64 59  2  0
 23  7  1  0
 44 28  2  0
 42 29  2  0
 34 30  2  0
 41 35  2  0
 51 36  1  0
  1 71  1  0
  6 72  1  0
  9 73  1  0
 17 74  1  0
 18 75  1  0
 19 76  1  0
 20 77  1  0
 21 78  1  0
 22 79  1  0
 22 80  1  0
 23 81  1  0
 25 82  1  0
 39 83  1  0
 39 84  1  0
 40 85  1  0
 40 86  1  0
 40 87  1  0
 47 88  1  0
 47 89  1  0
 48 90  1  0
 48 91  1  0
 48 92  1  0
 52 93  1  0
 55 94  1  0
 62 95  1  0
 62 96  1  0
 62 97  1  0
 63 98  1  0
M  END

