
     RDKit          3D

 92104  0  0  0  0  0  0  0  0999 V2000
    2.3790    5.6347    0.7821 C   0  0  0  0  0  0  0  0  0  0  0  0
    2.5974    5.2986   -0.5054 C   0  0  0  0  0  0  0  0  0  0  0  0
    2.2168    4.0209   -1.1256 C   0  0  0  0  0  0  0  0  0  0  0  0
    1.9279    2.9515   -0.5258 O   0  0  0  0  0  0  0  0  0  0  0  0
    2.2372    4.1781   -2.5608 C   0  0  0  0  0  0  0  0  0  0  0  0
    1.8286    3.2268   -3.5238 C   0  0  0  0  0  0  0  0  0  0  0  0
    1.8827    3.6882   -4.8238 C   0  0  0  0  0  0  0  0  0  0  0  0
    2.3149    5.0089   -5.1669 C   0  0  0  0  0  0  0  0  0  0  0  0
    2.7182    5.9455   -4.2285 C   0  0  0  0  0  0  0  0  0  0  0  0
    2.6858    5.4859   -2.8802 C   0  0  0  0  0  0  0  0  0  0  0  0
    3.0408    6.1994   -1.6166 C   0  0  0  0  0  0  0  0  0  0  0  0
    3.8122    7.3127   -1.5024 C   0  0  0  0  0  0  0  0  0  0  0  0
    4.3301    7.7649   -0.2373 C   0  0  0  0  0  0  0  0  0  0  0  0
    4.7557    8.1342    0.7742 N   0  0  0  0  0  0  0  0  0  0  0  0
    4.2840    8.0523   -2.6430 C   0  0  0  0  0  0  0  0  0  0  0  0
    4.6728    8.6600   -3.5488 N   0  0  0  0  0  0  0  0  0  0  0  0
    2.0917    4.7215   -6.6210 C   0  0  0  0  0  0  0  0  0  0  0  0
    3.3646    4.4728   -7.4831 C   0  0  0  0  0  0  0  0  0  0  0  0
    2.8794    3.8337   -8.7615 C   0  0  0  0  0  0  0  0  0  0  0  0
    2.4720    2.6004   -8.4395 C   0  0  0  0  0  0  0  0  0  0  0  0
    2.6985    2.4492   -6.9552 C   0  0  0  0  0  0  0  0  0  0  0  0
    3.9861    3.2470   -6.8348 C   0  0  0  0  0  0  0  0  0  0  0  0
    1.6478    3.3695   -6.2684 C   0  0  0  0  0  0  0  0  0  0  0  0
    1.7951    4.7021    1.7528 C   0  0  0  0  0  0  0  0  0  0  0  0
    2.7204    3.7193    2.7901 S   0  0  0  0  0  0  0  0  0  0  0  0
    1.3949    2.7958    3.2452 C   0  0  0  0  0  0  0  0  0  0  0  0
    1.2332    1.4847    3.5968 C   0  0  0  0  0  0  0  0  0  0  0  0
    2.1952    0.5169    3.9213 C   0  0  0  0  0  0  0  0  0  0  0  0
    1.8251   -0.8581    3.8921 C   0  0  0  0  0  0  0  0  0  0  0  0
    2.7883   -1.7638    4.1931 N   0  0  0  0  0  0  0  0  0  0  0  0
    4.0614   -0.7390    4.4604 S   0  0  0  0  0  0  0  0  0  0  0  0
    3.4863    0.7967    4.2260 N   0  0  0  0  0  0  0  0  0  0  0  0
    0.5116   -1.1885    3.5504 C   0  0  0  0  0  0  0  0  0  0  0  0
   -0.1475   -2.3801    3.5183 C   0  0  0  0  0  0  0  0  0  0  0  0
   -1.4523   -2.1216    3.3071 C   0  0  0  0  0  0  0  0  0  0  0  0
   -1.7063   -0.7949    3.1734 N   0  0  0  0  0  0  0  0  0  0  0  0
   -2.9915   -0.1646    3.4957 C   0  0  0  0  0  0  0  0  0  0  0  0
   -4.0578   -0.4600    2.4376 C   0  0  0  0  0  0  0  0  0  0  0  0
   -0.4612   -0.2223    3.2633 C   0  0  0  0  0  0  0  0  0  0  0  0
   -0.0699    1.1415    3.1997 C   0  0  0  0  0  0  0  0  0  0  0  0
   -0.6484    2.1809    2.5142 N   0  0  0  0  0  0  0  0  0  0  0  0
    0.2773    3.1738    2.5771 C   0  0  0  0  0  0  0  0  0  0  0  0
    0.4677    4.2580    1.7149 C   0  0  0  0  0  0  0  0  0  0  0  0
   -1.6457    2.0900    1.4399 C   0  0  0  0  0  0  0  0  0  0  0  0
   -2.8080    3.0540    1.6756 C   0  0  0  0  0  0  0  0  0  0  0  0
   -2.2845   -3.2345    3.4076 C   0  0  0  0  0  0  0  0  0  0  0  0
   -1.5188   -4.3906    3.6354 C   0  0  0  0  0  0  0  0  0  0  0  0
    0.1329   -3.9988    3.8321 S   0  0  0  0  0  0  0  0  0  0  0  0
   -2.0470   -5.7552    3.7679 C   0  0  0  0  0  0  0  0  0  0  0  0
   -2.8648   -6.3367    2.8699 C   0  0  0  0  0  0  0  0  0  0  0  0
   -3.1355   -5.8472    1.5095 C   0  0  0  0  0  0  0  0  0  0  0  0
   -2.8564   -4.7092    1.0474 O   0  0  0  0  0  0  0  0  0  0  0  0
   -3.6729   -6.9409    0.7297 C   0  0  0  0  0  0  0  0  0  0  0  0
   -3.9742   -6.9544   -0.6327 C   0  0  0  0  0  0  0  0  0  0  0  0
   -4.3930   -8.1589   -1.2132 C   0  0  0  0  0  0  0  0  0  0  0  0
   -4.8167   -8.2233   -3.0745 Br  0  0  0  0  0  0  0  0  0  0  0  0
   -4.4799   -9.3245   -0.4315 C   0  0  0  0  0  0  0  0  0  0  0  0
   -4.1637   -9.2916    0.9372 C   0  0  0  0  0  0  0  0  0  0  0  0
   -3.7795   -8.0722    1.5207 C   0  0  0  0  0  0  0  0  0  0  0  0
   -3.3795   -7.7411    2.9190 C   0  0  0  0  0  0  0  0  0  0  0  0
   -3.6392   -8.4676    4.0367 C   0  0  0  0  0  0  0  0  0  0  0  0
   -3.4594   -7.9280    5.3598 C   0  0  0  0  0  0  0  0  0  0  0  0
   -3.3230   -7.5027    6.4273 N   0  0  0  0  0  0  0  0  0  0  0  0
   -4.2328   -9.7792    3.9919 C   0  0  0  0  0  0  0  0  0  0  0  0
   -4.7105  -10.8345    3.9742 N   0  0  0  0  0  0  0  0  0  0  0  0
    2.5522    6.6370    1.1345 H   0  0  0  0  0  0  0  0  0  0  0  0
    1.4824    2.2344   -3.2689 H   0  0  0  0  0  0  0  0  0  0  0  0
    2.9938    6.9403   -4.5338 H   0  0  0  0  0  0  0  0  0  0  0  0
    1.3071    5.3587   -7.0866 H   0  0  0  0  0  0  0  0  0  0  0  0
    4.0370    5.3474   -7.6115 H   0  0  0  0  0  0  0  0  0  0  0  0
    2.9392    4.2419   -9.7647 H   0  0  0  0  0  0  0  0  0  0  0  0
    2.1403    1.8391   -9.1374 H   0  0  0  0  0  0  0  0  0  0  0  0
    2.7384    1.4034   -6.5871 H   0  0  0  0  0  0  0  0  0  0  0  0
    4.8319    2.8154   -7.4225 H   0  0  0  0  0  0  0  0  0  0  0  0
    4.3274    3.4057   -5.7883 H   0  0  0  0  0  0  0  0  0  0  0  0
    0.5829    3.1534   -6.5078 H   0  0  0  0  0  0  0  0  0  0  0  0
   -3.3471   -0.5319    4.4837 H   0  0  0  0  0  0  0  0  0  0  0  0
   -2.8619    0.9259    3.6101 H   0  0  0  0  0  0  0  0  0  0  0  0
   -4.5619   -1.4235    2.6518 H   0  0  0  0  0  0  0  0  0  0  0  0
   -3.6228   -0.5098    1.4186 H   0  0  0  0  0  0  0  0  0  0  0  0
   -4.8322    0.3347    2.4585 H   0  0  0  0  0  0  0  0  0  0  0  0
   -0.2567    4.6084    0.9909 H   0  0  0  0  0  0  0  0  0  0  0  0
   -2.0176    1.0609    1.3315 H   0  0  0  0  0  0  0  0  0  0  0  0
   -1.1656    2.3303    0.4668 H   0  0  0  0  0  0  0  0  0  0  0  0
   -3.5865    2.8865    0.9034 H   0  0  0  0  0  0  0  0  0  0  0  0
   -3.2606    2.9049    2.6751 H   0  0  0  0  0  0  0  0  0  0  0  0
   -2.4646    4.1055    1.6072 H   0  0  0  0  0  0  0  0  0  0  0  0
   -3.3623   -3.2246    3.3308 H   0  0  0  0  0  0  0  0  0  0  0  0
   -1.6451   -6.3381    4.5819 H   0  0  0  0  0  0  0  0  0  0  0  0
   -3.8692   -6.0583   -1.2304 H   0  0  0  0  0  0  0  0  0  0  0  0
   -4.7776  -10.2593   -0.8888 H   0  0  0  0  0  0  0  0  0  0  0  0
   -4.1946  -10.2126    1.4932 H   0  0  0  0  0  0  0  0  0  0  0  0
  1  2  2  3
  2  3  1  0
  3  4  2  0
  3  5  1  0
  5  6  2  0
  6  7  1  0
  7  8  2  0
  8  9  1  0
  9 10  2  0
 10 11  1  0
 11 12  2  3
 12 13  1  0
 13 14  3  0
 12 15  1  0
 15 16  3  0
  8 17  1  0
 17 18  1  0
 18 19  1  0
 19 20  2  0
 20 21  1  0
 21 22  1  0
 21 23  1  0
  1 24  1  0
 24 25  1  0
 25 26  1  0
 26 27  1  0
 27 28  1  0
 28 29  1  0
 29 30  2  0
 30 31  1  0
 31 32  1  0
 29 33  1  0
 33 34  1  0
 34 35  2  0
 35 36  1  0
 36 37  1  0
 37 38  1  0
 36 39  1  0
 39 40  1  0
 40 41  1  0
 41 42  1  0
 42 43  1  0
 41 44  1  0
 44 45  1  0
 35 46  1  0
 46 47  2  0
 47 48  1  0
 47 49  1  0
 49 50  2  3
 50 51  1  0
 51 52  2  0
 51 53  1  0
 53 54  2  0
 54 55  1  0
 55 56  1  0
 55 57  2  0
 57 58  1  0
 58 59  2  0
 59 60  1  0
 60 61  2  3
 61 62  1  0
 62 63  3  0
 61 64  1  0
 64 65  3  0
 11  2  1  0
 23 17  1  0
 43 24  2  0
 60 50  1  0
 10  5  1  0
 22 18  1  0
 42 26  2  0
 59 53  1  0
 23  7  1  0
 40 27  2  0
 32 28  2  0
 39 33  2  0
 48 34  1  0
  1 66  1  0
  6 67  1  0
  9 68  1  0
 17 69  1  0
 18 70  1  0
 19 71  1  0
 20 72  1  0
 21 73  1  0
 22 74  1  0
 22 75  1  0
 23 76  1  0
 37 77  1  0
 37 78  1  0
 38 79  1  0
 38 80  1  0
 38 81  1  0
 43 82  1  0
 44 83  1  0
 44 84  1  0
 45 85  1  0
 45 86  1  0
 45 87  1  0
 46 88  1  0
 49 89  1  0
 54 90  1  0
 57 91  1  0
 58 92  1  0
M  END

