
     RDKit          3D

103115  0  0  0  0  0  0  0  0999 V2000
   -2.5947   -4.1907    2.6696 C   0  0  0  0  0  0  0  0  0  0  0  0
   -3.4709   -3.1731    2.6566 C   0  0  0  0  0  0  0  0  0  0  0  0
   -4.5172   -2.9983    3.6613 C   0  0  0  0  0  0  0  0  0  0  0  0
   -5.0078   -3.9122    4.3683 O   0  0  0  0  0  0  0  0  0  0  0  0
   -4.7860   -1.5786    3.8161 C   0  0  0  0  0  0  0  0  0  0  0  0
   -5.6520   -0.9539    4.7469 C   0  0  0  0  0  0  0  0  0  0  0  0
   -5.7046    0.4231    4.6254 C   0  0  0  0  0  0  0  0  0  0  0  0
   -4.9294    1.1562    3.6684 C   0  0  0  0  0  0  0  0  0  0  0  0
   -4.0478    0.5555    2.7856 C   0  0  0  0  0  0  0  0  0  0  0  0
   -4.0044   -0.8648    2.8732 C   0  0  0  0  0  0  0  0  0  0  0  0
   -3.2788   -1.8432    2.0225 C   0  0  0  0  0  0  0  0  0  0  0  0
   -2.9141   -1.6429    0.7292 C   0  0  0  0  0  0  0  0  0  0  0  0
   -2.6823   -0.3276    0.1715 C   0  0  0  0  0  0  0  0  0  0  0  0
   -2.4643    0.7137   -0.2865 N   0  0  0  0  0  0  0  0  0  0  0  0
   -2.9009   -2.7428   -0.2033 C   0  0  0  0  0  0  0  0  0  0  0  0
   -2.8947   -3.6171   -0.9585 N   0  0  0  0  0  0  0  0  0  0  0  0
   -5.5337    2.4445    4.1434 C   0  0  0  0  0  0  0  0  0  0  0  0
   -4.6574    3.3915    5.0126 C   0  0  0  0  0  0  0  0  0  0  0  0
   -3.6709    2.5784    5.8184 C   0  0  0  0  0  0  0  0  0  0  0  0
   -4.3858    1.8998    6.7167 C   0  0  0  0  0  0  0  0  0  0  0  0
   -5.8347    2.2656    6.4926 C   0  0  0  0  0  0  0  0  0  0  0  0
   -5.6569    3.7260    6.1093 C   0  0  0  0  0  0  0  0  0  0  0  0
   -6.3243    1.6963    5.1287 C   0  0  0  0  0  0  0  0  0  0  0  0
   -1.1738   -3.9735    2.3504 C   0  0  0  0  0  0  0  0  0  0  0  0
   -0.5691   -4.3538    1.1539 C   0  0  0  0  0  0  0  0  0  0  0  0
    0.6307   -3.6645    1.1481 C   0  0  0  0  0  0  0  0  0  0  0  0
    0.7192   -2.9525    2.2831 C   0  0  0  0  0  0  0  0  0  0  0  0
   -0.3652   -3.1362    3.0673 N   0  0  0  0  0  0  0  0  0  0  0  0
   -0.5689   -2.6297    4.4309 C   0  0  0  0  0  0  0  0  0  0  0  0
   -1.1509   -3.6827    5.3748 C   0  0  0  0  0  0  0  0  0  0  0  0
    1.4811   -1.8301    1.9892 C   0  0  0  0  0  0  0  0  0  0  0  0
    1.5816   -0.5798    2.6340 C   0  0  0  0  0  0  0  0  0  0  0  0
    2.2116    0.4990    1.9561 C   0  0  0  0  0  0  0  0  0  0  0  0
    2.2663    1.6925    2.5919 N   0  0  0  0  0  0  0  0  0  0  0  0
    1.4899    1.3047    3.9941 S   0  0  0  0  0  0  0  0  0  0  0  0
    1.0776   -0.2894    3.8567 N   0  0  0  0  0  0  0  0  0  0  0  0
    2.7304    0.2805    0.6906 C   0  0  0  0  0  0  0  0  0  0  0  0
    3.3712    1.1277   -0.1538 C   0  0  0  0  0  0  0  0  0  0  0  0
    3.7440    2.7695   -0.2744 S   0  0  0  0  0  0  0  0  0  0  0  0
    4.3788    2.5174   -1.8377 C   0  0  0  0  0  0  0  0  0  0  0  0
    4.8252    3.3939   -2.8211 C   0  0  0  0  0  0  0  0  0  0  0  0
    4.9747    4.8771   -2.6316 C   0  0  0  0  0  0  0  0  0  0  0  0
    6.3643    5.2183   -2.1031 C   0  0  0  0  0  0  0  0  0  0  0  0
    5.1223    2.6945   -4.0080 C   0  0  0  0  0  0  0  0  0  0  0  0
    4.7915    1.0322   -3.8231 S   0  0  0  0  0  0  0  0  0  0  0  0
    4.3053    1.2016   -2.2234 C   0  0  0  0  0  0  0  0  0  0  0  0
    3.7090    0.4174   -1.2484 C   0  0  0  0  0  0  0  0  0  0  0  0
    3.3602   -0.8947   -1.1644 N   0  0  0  0  0  0  0  0  0  0  0  0
    2.6706   -0.9611    0.0322 C   0  0  0  0  0  0  0  0  0  0  0  0
    1.9381   -2.0183    0.6601 C   0  0  0  0  0  0  0  0  0  0  0  0
    1.3369   -3.1339    0.1185 N   0  0  0  0  0  0  0  0  0  0  0  0
    1.0836   -3.4891   -1.2880 C   0  0  0  0  0  0  0  0  0  0  0  0
    0.3509   -2.3723   -2.0325 C   0  0  0  0  0  0  0  0  0  0  0  0
    3.9224   -1.9455   -2.0242 C   0  0  0  0  0  0  0  0  0  0  0  0
    4.6470   -3.0217   -1.2095 C   0  0  0  0  0  0  0  0  0  0  0  0
    5.5207    3.3096   -5.2801 C   0  0  0  0  0  0  0  0  0  0  0  0
    4.6625    3.9191   -6.1114 C   0  0  0  0  0  0  0  0  0  0  0  0
    5.2309    4.6826   -7.6382 S   0  0  0  0  0  0  0  0  0  0  0  0
    3.5082    4.9944   -8.0539 C   0  0  0  0  0  0  0  0  0  0  0  0
    3.0689    5.1689   -9.6204 S   0  0  0  0  0  0  0  0  0  0  0  0
    2.5607    4.6684   -7.0281 N   0  0  0  0  0  0  0  0  0  0  0  0
    1.1017    4.7906   -7.1428 C   0  0  0  0  0  0  0  0  0  0  0  0
    0.4840    3.4808   -7.6218 C   0  0  0  0  0  0  0  0  0  0  0  0
    3.2110    4.0384   -5.9380 C   0  0  0  0  0  0  0  0  0  0  0  0
    2.5818    3.6082   -4.9330 O   0  0  0  0  0  0  0  0  0  0  0  0
   -2.8382   -5.0790    3.2330 H   0  0  0  0  0  0  0  0  0  0  0  0
   -6.2314   -1.5039    5.4784 H   0  0  0  0  0  0  0  0  0  0  0  0
   -3.4746    1.1436    2.0923 H   0  0  0  0  0  0  0  0  0  0  0  0
   -6.1573    2.9521    3.3788 H   0  0  0  0  0  0  0  0  0  0  0  0
   -4.2248    4.2620    4.4681 H   0  0  0  0  0  0  0  0  0  0  0  0
   -2.5925    2.5986    5.7505 H   0  0  0  0  0  0  0  0  0  0  0  0
   -3.9819    1.2867    7.5048 H   0  0  0  0  0  0  0  0  0  0  0  0
   -6.5098    2.0791    7.3547 H   0  0  0  0  0  0  0  0  0  0  0  0
   -6.5924    4.2105    5.7297 H   0  0  0  0  0  0  0  0  0  0  0  0
   -5.2243    4.3595    6.9216 H   0  0  0  0  0  0  0  0  0  0  0  0
   -7.4259    1.7650    4.9648 H   0  0  0  0  0  0  0  0  0  0  0  0
   -1.0168   -4.9145    0.3377 H   0  0  0  0  0  0  0  0  0  0  0  0
   -1.2257   -1.7356    4.4083 H   0  0  0  0  0  0  0  0  0  0  0  0
    0.4140   -2.3652    4.8669 H   0  0  0  0  0  0  0  0  0  0  0  0
   -2.2506   -3.7225    5.2694 H   0  0  0  0  0  0  0  0  0  0  0  0
   -0.9172   -3.4258    6.4303 H   0  0  0  0  0  0  0  0  0  0  0  0
   -0.7156   -4.6799    5.1648 H   0  0  0  0  0  0  0  0  0  0  0  0
    4.2149    5.2377   -1.9092 H   0  0  0  0  0  0  0  0  0  0  0  0
    4.8044    5.4142   -3.5887 H   0  0  0  0  0  0  0  0  0  0  0  0
    6.5429    4.6866   -1.1499 H   0  0  0  0  0  0  0  0  0  0  0  0
    6.4378    6.3109   -1.9192 H   0  0  0  0  0  0  0  0  0  0  0  0
    7.1413    4.9156   -2.8336 H   0  0  0  0  0  0  0  0  0  0  0  0
    2.0060   -3.8017   -1.7945 H   0  0  0  0  0  0  0  0  0  0  0  0
    0.4534   -4.4005   -1.3478 H   0  0  0  0  0  0  0  0  0  0  0  0
   -0.5726   -2.0845   -1.4832 H   0  0  0  0  0  0  0  0  0  0  0  0
    0.9828   -1.4642   -2.1227 H   0  0  0  0  0  0  0  0  0  0  0  0
    0.0750   -2.7247   -3.0534 H   0  0  0  0  0  0  0  0  0  0  0  0
    4.6968   -1.5060   -2.6874 H   0  0  0  0  0  0  0  0  0  0  0  0
    3.1700   -2.3455   -2.7300 H   0  0  0  0  0  0  0  0  0  0  0  0
    5.1577   -3.7261   -1.8948 H   0  0  0  0  0  0  0  0  0  0  0  0
    3.9492   -3.5931   -0.5653 H   0  0  0  0  0  0  0  0  0  0  0  0
    5.4101   -2.5446   -0.5584 H   0  0  0  0  0  0  0  0  0  0  0  0
    6.5691    3.2936   -5.5453 H   0  0  0  0  0  0  0  0  0  0  0  0
    0.8377    5.6019   -7.8511 H   0  0  0  0  0  0  0  0  0  0  0  0
    0.6699    5.0620   -6.1548 H   0  0  0  0  0  0  0  0  0  0  0  0
    0.9027    3.1980   -8.6101 H   0  0  0  0  0  0  0  0  0  0  0  0
    0.6936    2.6759   -6.8890 H   0  0  0  0  0  0  0  0  0  0  0  0
   -0.6152    3.6089   -7.7145 H   0  0  0  0  0  0  0  0  0  0  0  0
  1  2  2  3
  2  3  1  0
  3  4  2  0
  3  5  1  0
  5  6  2  0
  6  7  1  0
  7  8  2  0
  8  9  1  0
  9 10  2  0
 10 11  1  0
 11 12  2  3
 12 13  1  0
 13 14  3  0
 12 15  1  0
 15 16  3  0
  8 17  1  0
 17 18  1  0
 18 19  1  0
 19 20  2  0
 20 21  1  0
 21 22  1  0
 21 23  1  0
  1 24  1  0
 24 25  2  0
 25 26  1  0
 26 27  2  0
 27 28  1  0
 28 29  1  0
 29 30  1  0
 27 31  1  0
 31 32  1  0
 32 33  1  0
 33 34  2  0
 34 35  1  0
 35 36  1  0
 33 37  1  0
 37 38  1  0
 38 39  1  0
 39 40  1  0
 40 41  1  0
 41 42  1  0
 42 43  1  0
 41 44  2  0
 44 45  1  0
 45 46  1  0
 46 47  1  0
 47 48  1  0
 48 49  1  0
 49 50  1  0
 50 51  1  0
 51 52  1  0
 52 53  1  0
 48 54  1  0
 54 55  1  0
 44 56  1  0
 56 57  2  3
 57 58  1  0
 58 59  1  0
 59 60  2  0
 59 61  1  0
 61 62  1  0
 62 63  1  0
 61 64  1  0
 64 65  2  0
 11  2  1  0
 23 17  1  0
 28 24  1  0
 50 31  2  0
 64 57  1  0
 10  5  1  0
 22 18  1  0
 51 26  1  0
 23  7  1  0
 36 32  2  0
 49 37  2  0
 47 38  2  0
 46 40  2  0
  1 66  1  0
  6 67  1  0
  9 68  1  0
 17 69  1  0
 18 70  1  0
 19 71  1  0
 20 72  1  0
 21 73  1  0
 22 74  1  0
 22 75  1  0
 23 76  1  0
 25 77  1  0
 29 78  1  0
 29 79  1  0
 30 80  1  0
 30 81  1  0
 30 82  1  0
 42 83  1  0
 42 84  1  0
 43 85  1  0
 43 86  1  0
 43 87  1  0
 52 88  1  0
 52 89  1  0
 53 90  1  0
 53 91  1  0
 53 92  1  0
 54 93  1  0
 54 94  1  0
 55 95  1  0
 55 96  1  0
 55 97  1  0
 56 98  1  0
 62 99  1  0
 62100  1  0
 63101  1  0
 63102  1  0
 63103  1  0
M  END

