
     RDKit          3D

114127  0  0  0  0  0  0  0  0999 V2000
    3.8935    3.0684   -4.8151 C   0  0  0  0  0  0  0  0  0  0  0  0
    3.8727    4.1341   -3.9890 C   0  0  0  0  0  0  0  0  0  0  0  0
    3.1888    4.1717   -2.6868 C   0  0  0  0  0  0  0  0  0  0  0  0
    2.9319    3.1839   -1.9475 O   0  0  0  0  0  0  0  0  0  0  0  0
    2.8620    5.5409   -2.3758 C   0  0  0  0  0  0  0  0  0  0  0  0
    2.0068    5.9910   -1.3442 C   0  0  0  0  0  0  0  0  0  0  0  0
    1.7263    7.3400   -1.4050 C   0  0  0  0  0  0  0  0  0  0  0  0
    2.2641    8.2093   -2.4075 C   0  0  0  0  0  0  0  0  0  0  0  0
    3.1096    7.7751   -3.4168 C   0  0  0  0  0  0  0  0  0  0  0  0
    3.4135    6.3846   -3.3745 C   0  0  0  0  0  0  0  0  0  0  0  0
    4.1794    5.5500   -4.3470 C   0  0  0  0  0  0  0  0  0  0  0  0
    5.1071    5.9777   -5.2408 C   0  0  0  0  0  0  0  0  0  0  0  0
    5.9473    5.0615   -5.9648 C   0  0  0  0  0  0  0  0  0  0  0  0
    6.6271    4.3300   -6.5506 N   0  0  0  0  0  0  0  0  0  0  0  0
    5.3997    7.3717   -5.4411 C   0  0  0  0  0  0  0  0  0  0  0  0
    5.6365    8.4934   -5.6181 N   0  0  0  0  0  0  0  0  0  0  0  0
    1.4992    9.3668   -1.8340 C   0  0  0  0  0  0  0  0  0  0  0  0
    2.3104   10.4088   -1.0062 C   0  0  0  0  0  0  0  0  0  0  0  0
    1.2857   11.2121   -0.2398 C   0  0  0  0  0  0  0  0  0  0  0  0
    0.7821   10.3967    0.6936 C   0  0  0  0  0  0  0  0  0  0  0  0
    1.4846    9.0684    0.5246 C   0  0  0  0  0  0  0  0  0  0  0  0
    2.8625    9.5811    0.1410 C   0  0  0  0  0  0  0  0  0  0  0  0
    0.9469    8.4729   -0.8108 C   0  0  0  0  0  0  0  0  0  0  0  0
    3.1591    1.8352   -4.4865 C   0  0  0  0  0  0  0  0  0  0  0  0
    3.7754    0.7004   -3.9669 C   0  0  0  0  0  0  0  0  0  0  0  0
    2.7401   -0.0293   -3.4075 C   0  0  0  0  0  0  0  0  0  0  0  0
    1.5906    0.6681   -3.5732 C   0  0  0  0  0  0  0  0  0  0  0  0
    1.8133    1.8099   -4.2655 N   0  0  0  0  0  0  0  0  0  0  0  0
    0.8553    2.8350   -4.6992 C   0  0  0  0  0  0  0  0  0  0  0  0
   -0.2647    2.2162   -5.5338 C   0  0  0  0  0  0  0  0  0  0  0  0
    0.8053    0.3941   -2.4613 C   0  0  0  0  0  0  0  0  0  0  0  0
   -0.2744    1.0787   -1.8623 C   0  0  0  0  0  0  0  0  0  0  0  0
   -0.6682    0.7297   -0.5336 C   0  0  0  0  0  0  0  0  0  0  0  0
   -1.7228    1.3995   -0.0022 N   0  0  0  0  0  0  0  0  0  0  0  0
   -2.0801    2.4137   -1.2600 S   0  0  0  0  0  0  0  0  0  0  0  0
   -0.9942    2.0619   -2.4562 N   0  0  0  0  0  0  0  0  0  0  0  0
    0.0052   -0.3036    0.1219 C   0  0  0  0  0  0  0  0  0  0  0  0
   -0.3477   -1.0170    1.2303 C   0  0  0  0  0  0  0  0  0  0  0  0
   -1.7228   -1.0849    2.2193 S   0  0  0  0  0  0  0  0  0  0  0  0
   -1.3910   -2.7068    2.6086 C   0  0  0  0  0  0  0  0  0  0  0  0
   -2.1213   -3.6719    3.3000 C   0  0  0  0  0  0  0  0  0  0  0  0
   -3.2413   -3.3429    4.2506 C   0  0  0  0  0  0  0  0  0  0  0  0
   -2.6895   -3.1141    5.6534 C   0  0  0  0  0  0  0  0  0  0  0  0
   -1.5546   -4.9495    3.1146 C   0  0  0  0  0  0  0  0  0  0  0  0
   -0.1673   -4.8363    2.1324 S   0  0  0  0  0  0  0  0  0  0  0  0
   -0.2848   -3.1728    1.9424 C   0  0  0  0  0  0  0  0  0  0  0  0
    0.3397   -2.1895    1.1820 C   0  0  0  0  0  0  0  0  0  0  0  0
    1.2102   -2.2401    0.1386 N   0  0  0  0  0  0  0  0  0  0  0  0
    1.0257   -1.0347   -0.4929 C   0  0  0  0  0  0  0  0  0  0  0  0
    1.5060   -0.6035   -1.7551 C   0  0  0  0  0  0  0  0  0  0  0  0
    2.7439   -0.8062   -2.2991 N   0  0  0  0  0  0  0  0  0  0  0  0
    3.9676   -1.1345   -1.5531 C   0  0  0  0  0  0  0  0  0  0  0  0
    4.7948   -2.1950   -2.2779 C   0  0  0  0  0  0  0  0  0  0  0  0
    1.7651   -3.4703   -0.4364 C   0  0  0  0  0  0  0  0  0  0  0  0
    2.8666   -4.0548    0.4501 C   0  0  0  0  0  0  0  0  0  0  0  0
   -2.0621   -6.2153    3.6689 C   0  0  0  0  0  0  0  0  0  0  0  0
   -3.3136   -6.6701    3.4537 C   0  0  0  0  0  0  0  0  0  0  0  0
   -4.2249   -6.1761    2.4120 C   0  0  0  0  0  0  0  0  0  0  0  0
   -4.0329   -5.1932    1.6464 O   0  0  0  0  0  0  0  0  0  0  0  0
   -5.3551   -7.0713    2.3310 C   0  0  0  0  0  0  0  0  0  0  0  0
   -6.4613   -6.9649    1.4925 C   0  0  0  0  0  0  0  0  0  0  0  0
   -7.4824   -7.9274    1.5837 C   0  0  0  0  0  0  0  0  0  0  0  0
   -8.6957   -7.7913    0.7017 C   0  0  0  0  0  0  0  0  0  0  0  0
   -7.3796   -8.9687    2.5498 C   0  0  0  0  0  0  0  0  0  0  0  0
   -8.4636  -10.0068    2.6947 C   0  0  0  0  0  0  0  0  0  0  0  0
   -6.2342   -9.0528    3.3720 C   0  0  0  0  0  0  0  0  0  0  0  0
   -5.2142   -8.0951    3.2484 C   0  0  0  0  0  0  0  0  0  0  0  0
   -3.9544   -7.8985    4.0286 C   0  0  0  0  0  0  0  0  0  0  0  0
   -3.5540   -8.5859    5.1309 C   0  0  0  0  0  0  0  0  0  0  0  0
   -4.1417   -9.8353    5.5297 C   0  0  0  0  0  0  0  0  0  0  0  0
   -4.5990  -10.8435    5.8608 N   0  0  0  0  0  0  0  0  0  0  0  0
   -2.5302   -8.0920    6.0155 C   0  0  0  0  0  0  0  0  0  0  0  0
   -1.7138   -7.6968    6.7348 N   0  0  0  0  0  0  0  0  0  0  0  0
    4.2926    3.1376   -5.8167 H   0  0  0  0  0  0  0  0  0  0  0  0
    1.5565    5.3300   -0.6173 H   0  0  0  0  0  0  0  0  0  0  0  0
    3.4285    8.4520   -4.1917 H   0  0  0  0  0  0  0  0  0  0  0  0
    0.7437    9.7922   -2.5315 H   0  0  0  0  0  0  0  0  0  0  0  0
    3.0518   11.0072   -1.5765 H   0  0  0  0  0  0  0  0  0  0  0  0
    1.0490   12.2659   -0.3557 H   0  0  0  0  0  0  0  0  0  0  0  0
    0.0692   10.6723    1.4663 H   0  0  0  0  0  0  0  0  0  0  0  0
    1.4428    8.3924    1.4051 H   0  0  0  0  0  0  0  0  0  0  0  0
    3.3420   10.1973    0.9399 H   0  0  0  0  0  0  0  0  0  0  0  0
    3.5750    8.7838   -0.1716 H   0  0  0  0  0  0  0  0  0  0  0  0
   -0.1565    8.3313   -0.8668 H   0  0  0  0  0  0  0  0  0  0  0  0
    4.8364    0.5602   -3.8080 H   0  0  0  0  0  0  0  0  0  0  0  0
    1.3604    3.5883   -5.3406 H   0  0  0  0  0  0  0  0  0  0  0  0
    0.4651    3.3967   -3.8276 H   0  0  0  0  0  0  0  0  0  0  0  0
   -0.9883    3.0054   -5.8279 H   0  0  0  0  0  0  0  0  0  0  0  0
    0.1612    1.7597   -6.4504 H   0  0  0  0  0  0  0  0  0  0  0  0
   -0.8012    1.4345   -4.9648 H   0  0  0  0  0  0  0  0  0  0  0  0
   -3.7705   -2.4291    3.9121 H   0  0  0  0  0  0  0  0  0  0  0  0
   -3.9862   -4.1634    4.2860 H   0  0  0  0  0  0  0  0  0  0  0  0
   -3.5225   -2.9190    6.3596 H   0  0  0  0  0  0  0  0  0  0  0  0
   -1.9998   -2.2437    5.6561 H   0  0  0  0  0  0  0  0  0  0  0  0
   -2.1402   -4.0174    5.9932 H   0  0  0  0  0  0  0  0  0  0  0  0
    4.5855   -0.2161   -1.4333 H   0  0  0  0  0  0  0  0  0  0  0  0
    3.7285   -1.4630   -0.5270 H   0  0  0  0  0  0  0  0  0  0  0  0
    5.7331   -2.3733   -1.7161 H   0  0  0  0  0  0  0  0  0  0  0  0
    4.2443   -3.1509   -2.3510 H   0  0  0  0  0  0  0  0  0  0  0  0
    5.0591   -1.8548   -3.3002 H   0  0  0  0  0  0  0  0  0  0  0  0
    2.1617   -3.2836   -1.4505 H   0  0  0  0  0  0  0  0  0  0  0  0
    0.9535   -4.2199   -0.5565 H   0  0  0  0  0  0  0  0  0  0  0  0
    3.2409   -4.9998   -0.0005 H   0  0  0  0  0  0  0  0  0  0  0  0
    2.4820   -4.2821    1.4681 H   0  0  0  0  0  0  0  0  0  0  0  0
    3.7212   -3.3592    0.5566 H   0  0  0  0  0  0  0  0  0  0  0  0
   -1.3504   -6.8096    4.2167 H   0  0  0  0  0  0  0  0  0  0  0  0
   -6.5312   -6.1431    0.7889 H   0  0  0  0  0  0  0  0  0  0  0  0
   -8.9743   -8.7728    0.2635 H   0  0  0  0  0  0  0  0  0  0  0  0
   -8.5048   -7.0902   -0.1405 H   0  0  0  0  0  0  0  0  0  0  0  0
   -9.5483   -7.3991    1.2987 H   0  0  0  0  0  0  0  0  0  0  0  0
   -8.4412  -10.6887    1.8191 H   0  0  0  0  0  0  0  0  0  0  0  0
   -9.4597   -9.5153    2.7550 H   0  0  0  0  0  0  0  0  0  0  0  0
   -8.3302  -10.6113    3.6187 H   0  0  0  0  0  0  0  0  0  0  0  0
   -6.1751   -9.8494    4.0910 H   0  0  0  0  0  0  0  0  0  0  0  0
  1  2  2  3
  2  3  1  0
  3  4  2  0
  3  5  1  0
  5  6  2  0
  6  7  1  0
  7  8  2  0
  8  9  1  0
  9 10  2  0
 10 11  1  0
 11 12  2  3
 12 13  1  0
 13 14  3  0
 12 15  1  0
 15 16  3  0
  8 17  1  0
 17 18  1  0
 18 19  1  0
 19 20  2  0
 20 21  1  0
 21 22  1  0
 21 23  1  0
  1 24  1  0
 24 25  2  0
 25 26  1  0
 26 27  2  0
 27 28  1  0
 28 29  1  0
 29 30  1  0
 27 31  1  0
 31 32  1  0
 32 33  1  0
 33 34  2  0
 34 35  1  0
 35 36  1  0
 33 37  1  0
 37 38  1  0
 38 39  1  0
 39 40  1  0
 40 41  1  0
 41 42  1  0
 42 43  1  0
 41 44  2  0
 44 45  1  0
 45 46  1  0
 46 47  1  0
 47 48  1  0
 48 49  1  0
 49 50  1  0
 50 51  1  0
 51 52  1  0
 52 53  1  0
 48 54  1  0
 54 55  1  0
 44 56  1  0
 56 57  2  3
 57 58  1  0
 58 59  2  0
 58 60  1  0
 60 61  2  0
 61 62  1  0
 62 63  1  0
 62 64  2  0
 64 65  1  0
 64 66  1  0
 66 67  2  0
 67 68  1  0
 68 69  2  3
 69 70  1  0
 70 71  3  0
 69 72  1  0
 72 73  3  0
 11  2  1  0
 23 17  1  0
 28 24  1  0
 50 31  2  0
 68 57  1  0
 10  5  1  0
 22 18  1  0
 51 26  1  0
 67 60  1  0
 23  7  1  0
 36 32  2  0
 49 37  2  0
 47 38  2  0
 46 40  2  0
  1 74  1  0
  6 75  1  0
  9 76  1  0
 17 77  1  0
 18 78  1  0
 19 79  1  0
 20 80  1  0
 21 81  1  0
 22 82  1  0
 22 83  1  0
 23 84  1  0
 25 85  1  0
 29 86  1  0
 29 87  1  0
 30 88  1  0
 30 89  1  0
 30 90  1  0
 42 91  1  0
 42 92  1  0
 43 93  1  0
 43 94  1  0
 43 95  1  0
 52 96  1  0
 52 97  1  0
 53 98  1  0
 53 99  1  0
 53100  1  0
 54101  1  0
 54102  1  0
 55103  1  0
 55104  1  0
 55105  1  0
 56106  1  0
 61107  1  0
 63108  1  0
 63109  1  0
 63110  1  0
 65111  1  0
 65112  1  0
 65113  1  0
 66114  1  0
M  END

