
     RDKit          3D

 93104  0  0  0  0  0  0  0  0999 V2000
   -3.7004   -1.1360   -0.0021 C   0  0  0  0  0  0  0  0  0  0  0  0
   -4.4919   -0.1277   -0.4182 C   0  0  0  0  0  0  0  0  0  0  0  0
   -4.0078    1.0918   -1.0668 C   0  0  0  0  0  0  0  0  0  0  0  0
   -2.8990    1.2268   -1.6510 O   0  0  0  0  0  0  0  0  0  0  0  0
   -5.0439    2.0908   -1.0314 C   0  0  0  0  0  0  0  0  0  0  0  0
   -4.9731    3.4092   -1.5358 C   0  0  0  0  0  0  0  0  0  0  0  0
   -6.1363    4.1334   -1.3685 C   0  0  0  0  0  0  0  0  0  0  0  0
   -7.3092    3.5949   -0.7537 C   0  0  0  0  0  0  0  0  0  0  0  0
   -7.3927    2.2996   -0.2773 C   0  0  0  0  0  0  0  0  0  0  0  0
   -6.1977    1.5380   -0.4162 C   0  0  0  0  0  0  0  0  0  0  0  0
   -5.9322    0.1070   -0.0701 C   0  0  0  0  0  0  0  0  0  0  0  0
   -6.8186   -0.7903    0.4414 C   0  0  0  0  0  0  0  0  0  0  0  0
   -6.5662   -2.2070    0.4647 C   0  0  0  0  0  0  0  0  0  0  0  0
   -6.3783   -3.3501    0.4803 N   0  0  0  0  0  0  0  0  0  0  0  0
   -8.0661   -0.3893    1.0370 C   0  0  0  0  0  0  0  0  0  0  0  0
   -9.0567   -0.0714    1.5492 N   0  0  0  0  0  0  0  0  0  0  0  0
   -8.0379    4.8855   -0.9623 C   0  0  0  0  0  0  0  0  0  0  0  0
   -9.0977    4.9144   -2.1033 C   0  0  0  0  0  0  0  0  0  0  0  0
   -9.3846    6.3723   -2.3799 C   0  0  0  0  0  0  0  0  0  0  0  0
   -8.2782    6.8771   -2.9456 C   0  0  0  0  0  0  0  0  0  0  0  0
   -7.2936    5.7380   -3.0505 C   0  0  0  0  0  0  0  0  0  0  0  0
   -8.2770    4.6085   -3.3423 C   0  0  0  0  0  0  0  0  0  0  0  0
   -6.8347    5.4385   -1.5943 C   0  0  0  0  0  0  0  0  0  0  0  0
   -2.2316   -1.0262    0.0757 C   0  0  0  0  0  0  0  0  0  0  0  0
   -1.4673    0.2352    0.9357 S   0  0  0  0  0  0  0  0  0  0  0  0
    0.0348   -0.4681    0.8054 C   0  0  0  0  0  0  0  0  0  0  0  0
    1.2555   -0.3180    1.3833 C   0  0  0  0  0  0  0  0  0  0  0  0
    1.7227    0.5915    2.3374 C   0  0  0  0  0  0  0  0  0  0  0  0
    3.0019    0.3642    2.9248 C   0  0  0  0  0  0  0  0  0  0  0  0
    3.4356    1.2755    3.8290 N   0  0  0  0  0  0  0  0  0  0  0  0
    2.1297    2.2960    3.8451 S   0  0  0  0  0  0  0  0  0  0  0  0
    1.0372    1.6868    2.7573 N   0  0  0  0  0  0  0  0  0  0  0  0
    3.7472   -0.7431    2.5106 C   0  0  0  0  0  0  0  0  0  0  0  0
    5.0730   -1.0135    2.6777 C   0  0  0  0  0  0  0  0  0  0  0  0
    6.4005   -0.1379    3.2654 S   0  0  0  0  0  0  0  0  0  0  0  0
    7.4663   -1.0364    2.2924 C   0  0  0  0  0  0  0  0  0  0  0  0
    8.8268   -0.8948    2.0159 C   0  0  0  0  0  0  0  0  0  0  0  0
    9.7111    0.1069    2.7094 C   0  0  0  0  0  0  0  0  0  0  0  0
    9.6719    1.4518    1.9963 C   0  0  0  0  0  0  0  0  0  0  0  0
    9.2237   -1.7452    0.9745 C   0  0  0  0  0  0  0  0  0  0  0  0
    7.8571   -2.5885    0.3926 S   0  0  0  0  0  0  0  0  0  0  0  0
    6.7916   -1.9404    1.5110 C   0  0  0  0  0  0  0  0  0  0  0  0
    5.4158   -1.9353    1.7340 C   0  0  0  0  0  0  0  0  0  0  0  0
    4.3540   -2.3287    0.9792 N   0  0  0  0  0  0  0  0  0  0  0  0
    3.2989   -1.6195    1.5079 C   0  0  0  0  0  0  0  0  0  0  0  0
    1.9754   -1.4607    1.0184 C   0  0  0  0  0  0  0  0  0  0  0  0
    1.1650   -2.3558    0.3633 N   0  0  0  0  0  0  0  0  0  0  0  0
   -0.0111   -1.6779    0.2055 C   0  0  0  0  0  0  0  0  0  0  0  0
   -1.3040   -2.0500   -0.2329 C   0  0  0  0  0  0  0  0  0  0  0  0
   -1.6637   -3.2803   -1.0352 C   0  0  0  0  0  0  0  0  0  0  0  0
   -1.0296   -3.2316   -2.4245 C   0  0  0  0  0  0  0  0  0  0  0  0
    1.2757   -3.8179    0.4698 C   0  0  0  0  0  0  0  0  0  0  0  0
    0.5758   -4.3311    1.7307 C   0  0  0  0  0  0  0  0  0  0  0  0
    4.4576   -2.9321   -0.3543 C   0  0  0  0  0  0  0  0  0  0  0  0
    4.8722   -4.4062   -0.2706 C   0  0  0  0  0  0  0  0  0  0  0  0
   10.5723   -1.7607    0.3599 C   0  0  0  0  0  0  0  0  0  0  0  0
   11.1432   -2.8303   -0.2219 C   0  0  0  0  0  0  0  0  0  0  0  0
   12.4778   -2.7105   -0.7498 C   0  0  0  0  0  0  0  0  0  0  0  0
   13.5505   -2.6002   -1.1677 N   0  0  0  0  0  0  0  0  0  0  0  0
   10.5310   -4.1368   -0.2247 C   0  0  0  0  0  0  0  0  0  0  0  0
   10.0460   -5.1870   -0.2189 N   0  0  0  0  0  0  0  0  0  0  0  0
   -4.1023   -2.0066    0.4794 H   0  0  0  0  0  0  0  0  0  0  0  0
   -4.0952    3.8099   -2.0160 H   0  0  0  0  0  0  0  0  0  0  0  0
   -8.3226    1.9408    0.1290 H   0  0  0  0  0  0  0  0  0  0  0  0
   -8.3458    5.3818   -0.0131 H   0  0  0  0  0  0  0  0  0  0  0  0
   -9.9973    4.2895   -1.9332 H   0  0  0  0  0  0  0  0  0  0  0  0
  -10.3176    6.9060   -2.2302 H   0  0  0  0  0  0  0  0  0  0  0  0
   -8.1727    7.8832   -3.3377 H   0  0  0  0  0  0  0  0  0  0  0  0
   -6.4719    5.8852   -3.7878 H   0  0  0  0  0  0  0  0  0  0  0  0
   -8.8479    4.7507   -4.2925 H   0  0  0  0  0  0  0  0  0  0  0  0
   -7.8349    3.5898   -3.3360 H   0  0  0  0  0  0  0  0  0  0  0  0
   -6.3693    6.2888   -1.0549 H   0  0  0  0  0  0  0  0  0  0  0  0
   10.7512   -0.2736    2.7482 H   0  0  0  0  0  0  0  0  0  0  0  0
    9.3709    0.2408    3.7561 H   0  0  0  0  0  0  0  0  0  0  0  0
   10.0200    1.3506    0.9530 H   0  0  0  0  0  0  0  0  0  0  0  0
    8.6433    1.8655    2.0039 H   0  0  0  0  0  0  0  0  0  0  0  0
   10.3399    2.1725    2.5177 H   0  0  0  0  0  0  0  0  0  0  0  0
   -2.7645   -3.3564   -1.1593 H   0  0  0  0  0  0  0  0  0  0  0  0
   -1.3556   -4.1940   -0.4941 H   0  0  0  0  0  0  0  0  0  0  0  0
   -1.2506   -4.1759   -2.9655 H   0  0  0  0  0  0  0  0  0  0  0  0
   -1.4385   -2.3846   -3.0143 H   0  0  0  0  0  0  0  0  0  0  0  0
    0.0724   -3.1140   -2.3538 H   0  0  0  0  0  0  0  0  0  0  0  0
    0.8756   -4.3074   -0.4387 H   0  0  0  0  0  0  0  0  0  0  0  0
    2.3241   -4.1228    0.5497 H   0  0  0  0  0  0  0  0  0  0  0  0
   -0.5000   -4.0505    1.7319 H   0  0  0  0  0  0  0  0  0  0  0  0
    1.0633   -3.9142    2.6381 H   0  0  0  0  0  0  0  0  0  0  0  0
    0.6528   -5.4368    1.7641 H   0  0  0  0  0  0  0  0  0  0  0  0
    3.5062   -2.8442   -0.9064 H   0  0  0  0  0  0  0  0  0  0  0  0
    5.1975   -2.3724   -0.9625 H   0  0  0  0  0  0  0  0  0  0  0  0
    5.9710   -4.5040   -0.1792 H   0  0  0  0  0  0  0  0  0  0  0  0
    4.4213   -4.9050    0.6169 H   0  0  0  0  0  0  0  0  0  0  0  0
    4.5535   -4.9445   -1.1883 H   0  0  0  0  0  0  0  0  0  0  0  0
   11.1412   -0.8400    0.4312 H   0  0  0  0  0  0  0  0  0  0  0  0
  1  2  2  3
  2  3  1  0
  3  4  2  0
  3  5  1  0
  5  6  2  0
  6  7  1  0
  7  8  2  0
  8  9  1  0
  9 10  2  0
 10 11  1  0
 11 12  2  3
 12 13  1  0
 13 14  3  0
 12 15  1  0
 15 16  3  0
  8 17  1  0
 17 18  1  0
 18 19  1  0
 19 20  2  0
 20 21  1  0
 21 22  1  0
 21 23  1  0
  1 24  1  0
 24 25  1  0
 25 26  1  0
 26 27  1  0
 27 28  1  0
 28 29  1  0
 29 30  2  0
 30 31  1  0
 31 32  1  0
 29 33  1  0
 33 34  1  0
 34 35  1  0
 35 36  1  0
 36 37  1  0
 37 38  1  0
 38 39  1  0
 37 40  2  0
 40 41  1  0
 41 42  1  0
 42 43  1  0
 43 44  1  0
 44 45  1  0
 45 46  1  0
 46 47  1  0
 47 48  1  0
 48 49  1  0
 49 50  1  0
 50 51  1  0
 47 52  1  0
 52 53  1  0
 44 54  1  0
 54 55  1  0
 40 56  1  0
 56 57  2  3
 57 58  1  0
 58 59  3  0
 57 60  1  0
 60 61  3  0
 11  2  1  0
 23 17  1  0
 49 24  2  0
 10  5  1  0
 22 18  1  0
 48 26  2  0
 23  7  1  0
 46 27  2  0
 32 28  2  0
 45 33  2  0
 43 34  2  0
 42 36  2  0
  1 62  1  0
  6 63  1  0
  9 64  1  0
 17 65  1  0
 18 66  1  0
 19 67  1  0
 20 68  1  0
 21 69  1  0
 22 70  1  0
 22 71  1  0
 23 72  1  0
 38 73  1  0
 38 74  1  0
 39 75  1  0
 39 76  1  0
 39 77  1  0
 50 78  1  0
 50 79  1  0
 51 80  1  0
 51 81  1  0
 51 82  1  0
 52 83  1  0
 52 84  1  0
 53 85  1  0
 53 86  1  0
 53 87  1  0
 54 88  1  0
 54 89  1  0
 55 90  1  0
 55 91  1  0
 55 92  1  0
 56 93  1  0
M  END

