
     RDKit          3D

111124  0  0  0  0  0  0  0  0999 V2000
    5.9434   -0.2404    4.3891 C   0  0  0  0  0  0  0  0  0  0  0  0
    5.4125   -1.4518    4.6390 C   0  0  0  0  0  0  0  0  0  0  0  0
    5.7597   -2.2276    5.8286 C   0  0  0  0  0  0  0  0  0  0  0  0
    6.8257   -2.1189    6.4976 O   0  0  0  0  0  0  0  0  0  0  0  0
    4.6277   -3.0689    6.1736 C   0  0  0  0  0  0  0  0  0  0  0  0
    4.4540   -3.8455    7.3455 C   0  0  0  0  0  0  0  0  0  0  0  0
    3.2004   -4.4244    7.4509 C   0  0  0  0  0  0  0  0  0  0  0  0
    2.1800   -4.2684    6.4571 C   0  0  0  0  0  0  0  0  0  0  0  0
    2.3444   -3.5166    5.3070 C   0  0  0  0  0  0  0  0  0  0  0  0
    3.6242   -2.9120    5.1805 C   0  0  0  0  0  0  0  0  0  0  0  0
    4.1287   -2.0070    4.1157 C   0  0  0  0  0  0  0  0  0  0  0  0
    3.7182   -1.9809    2.8243 C   0  0  0  0  0  0  0  0  0  0  0  0
    2.5032   -2.6122    2.3805 C   0  0  0  0  0  0  0  0  0  0  0  0
    1.5303   -3.1163    2.0095 N   0  0  0  0  0  0  0  0  0  0  0  0
    4.5634   -1.4696    1.7717 C   0  0  0  0  0  0  0  0  0  0  0  0
    5.2423   -1.0819    0.9130 N   0  0  0  0  0  0  0  0  0  0  0  0
    1.2190   -5.0680    7.2874 C   0  0  0  0  0  0  0  0  0  0  0  0
    0.0810   -4.2917    8.0145 C   0  0  0  0  0  0  0  0  0  0  0  0
    0.5456   -2.8975    8.3525 C   0  0  0  0  0  0  0  0  0  0  0  0
    1.4903   -3.0261    9.2895 C   0  0  0  0  0  0  0  0  0  0  0  0
    1.6346   -4.5055    9.5576 C   0  0  0  0  0  0  0  0  0  0  0  0
    0.1778   -4.9156    9.3923 C   0  0  0  0  0  0  0  0  0  0  0  0
    2.2581   -5.2137    8.3147 C   0  0  0  0  0  0  0  0  0  0  0  0
    5.1724    0.8237    3.7282 C   0  0  0  0  0  0  0  0  0  0  0  0
    5.5564    1.4934    2.5605 C   0  0  0  0  0  0  0  0  0  0  0  0
    4.4801    2.1988    2.0256 C   0  0  0  0  0  0  0  0  0  0  0  0
    4.1738    2.7291    0.4464 S   0  0  0  0  0  0  0  0  0  0  0  0
    2.5208    2.9426    0.7770 C   0  0  0  0  0  0  0  0  0  0  0  0
    1.3499    2.9084   -0.0576 C   0  0  0  0  0  0  0  0  0  0  0  0
    0.2704    2.5291    0.7495 C   0  0  0  0  0  0  0  0  0  0  0  0
    0.7036    2.2226    2.1794 C   0  0  0  0  0  0  0  0  0  0  0  0
    0.5144    0.7090    2.5063 C   0  0  0  0  0  0  0  0  0  0  0  0
   -0.9355    0.2228    2.5919 C   0  0  0  0  0  0  0  0  0  0  0  0
    0.0160    3.2107    3.1631 C   0  0  0  0  0  0  0  0  0  0  0  0
    0.4189    3.0289    4.6276 C   0  0  0  0  0  0  0  0  0  0  0  0
    2.1851    2.5433    2.0493 C   0  0  0  0  0  0  0  0  0  0  0  0
    3.3160    2.1325    2.7487 C   0  0  0  0  0  0  0  0  0  0  0  0
    3.5450    1.1718    4.0930 S   0  0  0  0  0  0  0  0  0  0  0  0
   -1.0183    2.4373    0.2035 C   0  0  0  0  0  0  0  0  0  0  0  0
   -1.1351    2.6120   -1.1759 C   0  0  0  0  0  0  0  0  0  0  0  0
   -2.2725    2.4078   -2.0225 C   0  0  0  0  0  0  0  0  0  0  0  0
   -1.8976    2.5075   -3.3361 C   0  0  0  0  0  0  0  0  0  0  0  0
   -0.4284    2.8385   -3.4867 C   0  0  0  0  0  0  0  0  0  0  0  0
   -0.0391    2.8734   -2.0044 C   0  0  0  0  0  0  0  0  0  0  0  0
    1.2387    3.0496   -1.4460 C   0  0  0  0  0  0  0  0  0  0  0  0
    0.3525    1.7299   -4.2463 C   0  0  0  0  0  0  0  0  0  0  0  0
    0.2774    0.3419   -3.5931 C   0  0  0  0  0  0  0  0  0  0  0  0
   -0.2112    4.2452   -4.1092 C   0  0  0  0  0  0  0  0  0  0  0  0
   -0.8361    4.4437   -5.4957 C   0  0  0  0  0  0  0  0  0  0  0  0
   -2.8755    1.9767   -4.1686 C   0  0  0  0  0  0  0  0  0  0  0  0
   -3.9714    1.5075   -3.4983 C   0  0  0  0  0  0  0  0  0  0  0  0
   -3.7767    1.6477   -1.8185 S   0  0  0  0  0  0  0  0  0  0  0  0
   -4.9348    0.8993   -4.2940 C   0  0  0  0  0  0  0  0  0  0  0  0
   -4.5339    0.8726   -5.6368 C   0  0  0  0  0  0  0  0  0  0  0  0
   -3.0218    1.6586   -5.8122 S   0  0  0  0  0  0  0  0  0  0  0  0
   -5.3990    0.3900   -6.7249 C   0  0  0  0  0  0  0  0  0  0  0  0
   -4.9759   -0.2912   -7.8078 C   0  0  0  0  0  0  0  0  0  0  0  0
   -3.6964   -0.9843   -7.9750 C   0  0  0  0  0  0  0  0  0  0  0  0
   -2.7085   -0.9233   -7.1970 O   0  0  0  0  0  0  0  0  0  0  0  0
   -3.8169   -1.9216   -9.0854 C   0  0  0  0  0  0  0  0  0  0  0  0
   -2.8873   -2.8677   -9.5369 C   0  0  0  0  0  0  0  0  0  0  0  0
   -1.2468   -2.9062   -8.8859 Cl  0  0  0  0  0  0  0  0  0  0  0  0
   -3.2967   -3.8057  -10.5080 C   0  0  0  0  0  0  0  0  0  0  0  0
   -2.1430   -4.9813  -11.1447 Cl  0  0  0  0  0  0  0  0  0  0  0  0
   -4.6443   -3.8409  -10.9259 C   0  0  0  0  0  0  0  0  0  0  0  0
   -5.1907   -5.0983  -12.0491 Cl  0  0  0  0  0  0  0  0  0  0  0  0
   -5.5683   -2.8937  -10.4300 C   0  0  0  0  0  0  0  0  0  0  0  0
   -7.2837   -3.1902  -10.6609 Cl  0  0  0  0  0  0  0  0  0  0  0  0
   -5.1018   -1.8561   -9.5936 C   0  0  0  0  0  0  0  0  0  0  0  0
   -5.8263   -0.7246   -8.9495 C   0  0  0  0  0  0  0  0  0  0  0  0
   -6.7431    0.0696   -9.5601 C   0  0  0  0  0  0  0  0  0  0  0  0
   -7.1818   -0.1433  -10.9117 C   0  0  0  0  0  0  0  0  0  0  0  0
   -7.5433   -0.3002  -12.0017 N   0  0  0  0  0  0  0  0  0  0  0  0
   -7.2103    1.2913   -8.9645 C   0  0  0  0  0  0  0  0  0  0  0  0
   -7.5918    2.2725   -8.4803 N   0  0  0  0  0  0  0  0  0  0  0  0
    6.8832    0.0433    4.8567 H   0  0  0  0  0  0  0  0  0  0  0  0
    5.2002   -3.9218    8.1267 H   0  0  0  0  0  0  0  0  0  0  0  0
    1.5204   -3.3538    4.6299 H   0  0  0  0  0  0  0  0  0  0  0  0
    0.9054   -6.0285    6.8151 H   0  0  0  0  0  0  0  0  0  0  0  0
   -0.9169   -4.3497    7.5375 H   0  0  0  0  0  0  0  0  0  0  0  0
    0.1620   -1.9614    7.9560 H   0  0  0  0  0  0  0  0  0  0  0  0
    2.0063   -2.2128    9.7907 H   0  0  0  0  0  0  0  0  0  0  0  0
    2.1005   -4.7635   10.5330 H   0  0  0  0  0  0  0  0  0  0  0  0
   -0.5068   -4.4508   10.1445 H   0  0  0  0  0  0  0  0  0  0  0  0
    0.0225   -6.0212    9.3941 H   0  0  0  0  0  0  0  0  0  0  0  0
    2.5803   -6.2648    8.4766 H   0  0  0  0  0  0  0  0  0  0  0  0
    6.4891    1.3318    2.0391 H   0  0  0  0  0  0  0  0  0  0  0  0
    0.9856    0.4583    3.4778 H   0  0  0  0  0  0  0  0  0  0  0  0
    1.0397    0.0943    1.7433 H   0  0  0  0  0  0  0  0  0  0  0  0
   -1.5690    0.8968    3.2067 H   0  0  0  0  0  0  0  0  0  0  0  0
   -1.3690    0.1065    1.5779 H   0  0  0  0  0  0  0  0  0  0  0  0
   -0.9513   -0.7873    3.0656 H   0  0  0  0  0  0  0  0  0  0  0  0
    0.2628    4.2551    2.8630 H   0  0  0  0  0  0  0  0  0  0  0  0
   -1.0905    3.1252    3.0831 H   0  0  0  0  0  0  0  0  0  0  0  0
    0.2048    1.9951    4.9718 H   0  0  0  0  0  0  0  0  0  0  0  0
    1.4958    3.2424    4.7603 H   0  0  0  0  0  0  0  0  0  0  0  0
   -0.1669    3.7282    5.2672 H   0  0  0  0  0  0  0  0  0  0  0  0
   -1.8836    2.2001    0.8058 H   0  0  0  0  0  0  0  0  0  0  0  0
    2.1043    3.2531   -2.0638 H   0  0  0  0  0  0  0  0  0  0  0  0
   -0.0428    1.6365   -5.2756 H   0  0  0  0  0  0  0  0  0  0  0  0
    1.4206    2.0169   -4.3317 H   0  0  0  0  0  0  0  0  0  0  0  0
    0.7498    0.3577   -2.5894 H   0  0  0  0  0  0  0  0  0  0  0  0
   -0.7754    0.0026   -3.5084 H   0  0  0  0  0  0  0  0  0  0  0  0
    0.8229   -0.3940   -4.2217 H   0  0  0  0  0  0  0  0  0  0  0  0
   -0.6269    5.0277   -3.4311 H   0  0  0  0  0  0  0  0  0  0  0  0
    0.8785    4.4476   -4.1828 H   0  0  0  0  0  0  0  0  0  0  0  0
   -1.9369    4.4807   -5.4169 H   0  0  0  0  0  0  0  0  0  0  0  0
   -0.4753    5.4096   -5.9163 H   0  0  0  0  0  0  0  0  0  0  0  0
   -0.5507    3.6368   -6.1884 H   0  0  0  0  0  0  0  0  0  0  0  0
   -5.8590    0.4809   -3.9160 H   0  0  0  0  0  0  0  0  0  0  0  0
   -6.4553    0.5812   -6.6056 H   0  0  0  0  0  0  0  0  0  0  0  0
  1  2  2  3
  2  3  1  0
  3  4  2  0
  3  5  1  0
  5  6  2  0
  6  7  1  0
  7  8  2  0
  8  9  1  0
  9 10  2  0
 10 11  1  0
 11 12  2  3
 12 13  1  0
 13 14  3  0
 12 15  1  0
 15 16  3  0
  8 17  1  0
 17 18  1  0
 18 19  1  0
 19 20  2  0
 20 21  1  0
 21 22  1  0
 21 23  1  0
  1 24  1  0
 24 25  2  0
 25 26  1  0
 26 27  1  0
 27 28  1  0
 28 29  1  0
 29 30  2  0
 30 31  1  0
 31 32  1  0
 32 33  1  0
 31 34  1  0
 34 35  1  0
 31 36  1  0
 36 37  1  0
 37 38  1  0
 30 39  1  0
 39 40  2  0
 40 41  1  0
 41 42  2  0
 42 43  1  0
 43 44  1  0
 44 45  2  0
 43 46  1  0
 46 47  1  0
 43 48  1  0
 48 49  1  0
 42 50  1  0
 50 51  2  0
 51 52  1  0
 51 53  1  0
 53 54  2  0
 54 55  1  0
 54 56  1  0
 56 57  2  3
 57 58  1  0
 58 59  2  0
 58 60  1  0
 60 61  2  0
 61 62  1  0
 61 63  1  0
 63 64  1  0
 63 65  2  0
 65 66  1  0
 65 67  1  0
 67 68  1  0
 67 69  2  0
 69 70  1  0
 70 71  2  3
 71 72  1  0
 72 73  3  0
 71 74  1  0
 74 75  3  0
 11  2  1  0
 23 17  1  0
 38 24  1  0
 44 40  1  0
 55 50  1  0
 70 57  1  0
 10  5  1  0
 22 18  1  0
 37 26  2  0
 52 41  1  0
 69 60  1  0
 23  7  1  0
 36 28  2  0
 45 29  1  0
  1 76  1  0
  6 77  1  0
  9 78  1  0
 17 79  1  0
 18 80  1  0
 19 81  1  0
 20 82  1  0
 21 83  1  0
 22 84  1  0
 22 85  1  0
 23 86  1  0
 25 87  1  0
 32 88  1  0
 32 89  1  0
 33 90  1  0
 33 91  1  0
 33 92  1  0
 34 93  1  0
 34 94  1  0
 35 95  1  0
 35 96  1  0
 35 97  1  0
 39 98  1  0
 45 99  1  0
 46100  1  0
 46101  1  0
 47102  1  0
 47103  1  0
 47104  1  0
 48105  1  0
 48106  1  0
 49107  1  0
 49108  1  0
 49109  1  0
 53110  1  0
 56111  1  0
M  END

