
     RDKit          3D

104118  0  0  0  0  0  0  0  0999 V2000
   -0.7636   -5.1411   -3.8533 C   0  0  0  0  0  0  0  0  0  0  0  0
   -2.0291   -4.6939   -3.7342 C   0  0  0  0  0  0  0  0  0  0  0  0
   -2.4137   -3.3621   -3.2467 C   0  0  0  0  0  0  0  0  0  0  0  0
   -1.6586   -2.3610   -3.1255 O   0  0  0  0  0  0  0  0  0  0  0  0
   -3.8169   -3.3774   -2.9096 C   0  0  0  0  0  0  0  0  0  0  0  0
   -4.5569   -2.3345   -2.3062 C   0  0  0  0  0  0  0  0  0  0  0  0
   -5.8652   -2.6707   -2.0192 C   0  0  0  0  0  0  0  0  0  0  0  0
   -6.4169   -3.9635   -2.2912 C   0  0  0  0  0  0  0  0  0  0  0  0
   -5.6938   -4.9930   -2.8714 C   0  0  0  0  0  0  0  0  0  0  0  0
   -4.3508   -4.6585   -3.2056 C   0  0  0  0  0  0  0  0  0  0  0  0
   -3.2877   -5.4951   -3.8375 C   0  0  0  0  0  0  0  0  0  0  0  0
   -3.4704   -6.6283   -4.5646 C   0  0  0  0  0  0  0  0  0  0  0  0
   -2.4242   -7.2065   -5.3680 C   0  0  0  0  0  0  0  0  0  0  0  0
   -1.5904   -7.6743   -6.0204 N   0  0  0  0  0  0  0  0  0  0  0  0
   -4.7518   -7.2661   -4.7002 C   0  0  0  0  0  0  0  0  0  0  0  0
   -5.7758   -7.7920   -4.8195 N   0  0  0  0  0  0  0  0  0  0  0  0
   -7.7300   -3.5481   -1.6941 C   0  0  0  0  0  0  0  0  0  0  0  0
   -8.0948   -4.0901   -0.2786 C   0  0  0  0  0  0  0  0  0  0  0  0
   -6.8363   -4.3177    0.5270 C   0  0  0  0  0  0  0  0  0  0  0  0
   -6.3202   -3.1141    0.7773 C   0  0  0  0  0  0  0  0  0  0  0  0
   -7.2452   -2.1060    0.1339 C   0  0  0  0  0  0  0  0  0  0  0  0
   -8.5701   -2.8066    0.3781 C   0  0  0  0  0  0  0  0  0  0  0  0
   -7.1649   -2.2223   -1.4188 C   0  0  0  0  0  0  0  0  0  0  0  0
    0.4000   -4.2814   -3.6039 C   0  0  0  0  0  0  0  0  0  0  0  0
    1.0895   -3.5350   -4.5803 C   0  0  0  0  0  0  0  0  0  0  0  0
    0.7921   -3.5553   -6.0528 C   0  0  0  0  0  0  0  0  0  0  0  0
   -0.2304   -2.4859   -6.4204 C   0  0  0  0  0  0  0  0  0  0  0  0
    2.0043   -2.6702   -3.9795 C   0  0  0  0  0  0  0  0  0  0  0  0
    2.0495   -2.7573   -2.6122 C   0  0  0  0  0  0  0  0  0  0  0  0
    0.9524   -3.8838   -2.0392 S   0  0  0  0  0  0  0  0  0  0  0  0
    2.8574   -1.7929   -2.0483 C   0  0  0  0  0  0  0  0  0  0  0  0
    3.4401   -0.9934   -2.9744 C   0  0  0  0  0  0  0  0  0  0  0  0
    2.9973   -1.4014   -4.5637 S   0  0  0  0  0  0  0  0  0  0  0  0
    4.2283   -0.1087   -2.2912 C   0  0  0  0  0  0  0  0  0  0  0  0
    5.1384    0.8697   -2.7066 C   0  0  0  0  0  0  0  0  0  0  0  0
    5.3916    1.1792   -4.0017 N   0  0  0  0  0  0  0  0  0  0  0  0
    6.5113    2.3819   -3.7856 S   0  0  0  0  0  0  0  0  0  0  0  0
    6.7155    2.5538   -2.1502 N   0  0  0  0  0  0  0  0  0  0  0  0
    5.8585    1.5996   -1.7103 C   0  0  0  0  0  0  0  0  0  0  0  0
    5.5954    1.3370   -0.3556 C   0  0  0  0  0  0  0  0  0  0  0  0
    5.8860    2.0639    0.7664 C   0  0  0  0  0  0  0  0  0  0  0  0
    6.5088    3.6168    1.0675 S   0  0  0  0  0  0  0  0  0  0  0  0
    5.6976    3.6911    2.5607 C   0  0  0  0  0  0  0  0  0  0  0  0
    5.4971    4.7230    3.4721 C   0  0  0  0  0  0  0  0  0  0  0  0
    4.5277    4.3623    4.4155 C   0  0  0  0  0  0  0  0  0  0  0  0
    3.9385    2.7935    4.1028 S   0  0  0  0  0  0  0  0  0  0  0  0
    4.9315    2.5740    2.7698 C   0  0  0  0  0  0  0  0  0  0  0  0
    5.0351    1.6413    1.7455 C   0  0  0  0  0  0  0  0  0  0  0  0
    4.1867    0.6679    1.3205 N   0  0  0  0  0  0  0  0  0  0  0  0
    2.8011    0.5314    1.8062 C   0  0  0  0  0  0  0  0  0  0  0  0
    1.9232    1.6624    1.2680 C   0  0  0  0  0  0  0  0  0  0  0  0
    4.6153    0.4144    0.0435 C   0  0  0  0  0  0  0  0  0  0  0  0
    4.0105   -0.3974   -0.9369 C   0  0  0  0  0  0  0  0  0  0  0  0
    3.2251   -1.5055   -0.7783 N   0  0  0  0  0  0  0  0  0  0  0  0
    3.3017   -2.4946    0.3088 C   0  0  0  0  0  0  0  0  0  0  0  0
    4.2537   -3.6345   -0.0555 C   0  0  0  0  0  0  0  0  0  0  0  0
    3.9756    5.2613    5.4335 C   0  0  0  0  0  0  0  0  0  0  0  0
    2.7597    5.8266    5.3159 C   0  0  0  0  0  0  0  0  0  0  0  0
    1.8162    5.6015    4.2123 C   0  0  0  0  0  0  0  0  0  0  0  0
    2.0839    5.1040    3.0858 O   0  0  0  0  0  0  0  0  0  0  0  0
    0.5124    6.0704    4.6245 C   0  0  0  0  0  0  0  0  0  0  0  0
   -0.7001    5.9468    3.9474 C   0  0  0  0  0  0  0  0  0  0  0  0
   -1.8705    6.3959    4.5766 C   0  0  0  0  0  0  0  0  0  0  0  0
   -3.5358    6.2168    3.6439 Br  0  0  0  0  0  0  0  0  0  0  0  0
   -1.8060    6.9353    5.8829 C   0  0  0  0  0  0  0  0  0  0  0  0
   -3.3851    7.5106    6.8038 Br  0  0  0  0  0  0  0  0  0  0  0  0
   -0.5690    7.0429    6.5445 C   0  0  0  0  0  0  0  0  0  0  0  0
    0.6001    6.6308    5.8860 C   0  0  0  0  0  0  0  0  0  0  0  0
    2.0215    6.6267    6.3418 C   0  0  0  0  0  0  0  0  0  0  0  0
    2.5600    7.3865    7.3287 C   0  0  0  0  0  0  0  0  0  0  0  0
    3.9820    7.5020    7.5302 C   0  0  0  0  0  0  0  0  0  0  0  0
    5.1226    7.6064    7.7010 N   0  0  0  0  0  0  0  0  0  0  0  0
    1.7639    8.2524    8.1583 C   0  0  0  0  0  0  0  0  0  0  0  0
    1.1387    8.9590    8.8286 N   0  0  0  0  0  0  0  0  0  0  0  0
   -0.5520   -6.1765   -4.0591 H   0  0  0  0  0  0  0  0  0  0  0  0
   -4.1375   -1.3657   -2.0717 H   0  0  0  0  0  0  0  0  0  0  0  0
   -6.1368   -5.9649   -3.0057 H   0  0  0  0  0  0  0  0  0  0  0  0
   -8.5709   -3.5327   -2.4221 H   0  0  0  0  0  0  0  0  0  0  0  0
   -8.8194   -4.9313   -0.2657 H   0  0  0  0  0  0  0  0  0  0  0  0
   -6.4576   -5.2620    0.9016 H   0  0  0  0  0  0  0  0  0  0  0  0
   -5.4516   -2.9093    1.3950 H   0  0  0  0  0  0  0  0  0  0  0  0
   -7.1679   -1.0742    0.5376 H   0  0  0  0  0  0  0  0  0  0  0  0
   -8.8143   -2.9289    1.4608 H   0  0  0  0  0  0  0  0  0  0  0  0
   -9.4327   -2.3309   -0.1476 H   0  0  0  0  0  0  0  0  0  0  0  0
   -7.6612   -1.3963   -1.9770 H   0  0  0  0  0  0  0  0  0  0  0  0
    0.4007   -4.5521   -6.3470 H   0  0  0  0  0  0  0  0  0  0  0  0
    1.7288   -3.3777   -6.6239 H   0  0  0  0  0  0  0  0  0  0  0  0
    0.1499   -1.4772   -6.1532 H   0  0  0  0  0  0  0  0  0  0  0  0
   -1.1894   -2.6690   -5.8926 H   0  0  0  0  0  0  0  0  0  0  0  0
   -0.4216   -2.5123   -7.5141 H   0  0  0  0  0  0  0  0  0  0  0  0
    5.9648    5.6966    3.4072 H   0  0  0  0  0  0  0  0  0  0  0  0
    2.3331   -0.4137    1.4826 H   0  0  0  0  0  0  0  0  0  0  0  0
    2.7867    0.5303    2.9167 H   0  0  0  0  0  0  0  0  0  0  0  0
    0.8915    1.5484    1.6597 H   0  0  0  0  0  0  0  0  0  0  0  0
    2.3161    2.6522    1.5849 H   0  0  0  0  0  0  0  0  0  0  0  0
    1.8897    1.6241    0.1570 H   0  0  0  0  0  0  0  0  0  0  0  0
    3.7054   -2.0397    1.2375 H   0  0  0  0  0  0  0  0  0  0  0  0
    2.2856   -2.8974    0.5146 H   0  0  0  0  0  0  0  0  0  0  0  0
    3.9036   -4.1669   -0.9640 H   0  0  0  0  0  0  0  0  0  0  0  0
    5.2710   -3.2288   -0.2412 H   0  0  0  0  0  0  0  0  0  0  0  0
    4.3003   -4.3578    0.7846 H   0  0  0  0  0  0  0  0  0  0  0  0
    4.5652    5.3824    6.3251 H   0  0  0  0  0  0  0  0  0  0  0  0
   -0.7356    5.4986    2.9618 H   0  0  0  0  0  0  0  0  0  0  0  0
   -0.5543    7.4027    7.5598 H   0  0  0  0  0  0  0  0  0  0  0  0
  1  2  2  3
  2  3  1  0
  3  4  2  0
  3  5  1  0
  5  6  2  0
  6  7  1  0
  7  8  2  0
  8  9  1  0
  9 10  2  0
 10 11  1  0
 11 12  2  3
 12 13  1  0
 13 14  3  0
 12 15  1  0
 15 16  3  0
  8 17  1  0
 17 18  1  0
 18 19  1  0
 19 20  2  0
 20 21  1  0
 21 22  1  0
 21 23  1  0
  1 24  1  0
 24 25  2  0
 25 26  1  0
 26 27  1  0
 25 28  1  0
 28 29  2  0
 29 30  1  0
 29 31  1  0
 31 32  2  0
 32 33  1  0
 32 34  1  0
 34 35  1  0
 35 36  2  0
 36 37  1  0
 37 38  1  0
 38 39  2  0
 39 40  1  0
 40 41  1  0
 41 42  1  0
 42 43  1  0
 43 44  1  0
 44 45  2  0
 45 46  1  0
 46 47  1  0
 47 48  1  0
 48 49  1  0
 49 50  1  0
 50 51  1  0
 49 52  1  0
 52 53  1  0
 53 54  1  0
 54 55  1  0
 55 56  1  0
 45 57  1  0
 57 58  2  3
 58 59  1  0
 59 60  2  0
 59 61  1  0
 61 62  2  0
 62 63  1  0
 63 64  1  0
 63 65  2  0
 65 66  1  0
 65 67  1  0
 67 68  2  0
 68 69  1  0
 69 70  2  3
 70 71  1  0
 71 72  3  0
 70 73  1  0
 73 74  3  0
 11  2  1  0
 23 17  1  0
 30 24  1  0
 54 31  1  0
 69 58  1  0
 10  5  1  0
 22 18  1  0
 33 28  1  0
 53 34  2  0
 68 61  1  0
 23  7  1  0
 39 35  1  0
 52 40  2  0
 48 41  2  0
 47 43  2  0
  1 75  1  0
  6 76  1  0
  9 77  1  0
 17 78  1  0
 18 79  1  0
 19 80  1  0
 20 81  1  0
 21 82  1  0
 22 83  1  0
 22 84  1  0
 23 85  1  0
 26 86  1  0
 26 87  1  0
 27 88  1  0
 27 89  1  0
 27 90  1  0
 44 91  1  0
 50 92  1  0
 50 93  1  0
 51 94  1  0
 51 95  1  0
 51 96  1  0
 55 97  1  0
 55 98  1  0
 56 99  1  0
 56100  1  0
 56101  1  0
 57102  1  0
 62103  1  0
 67104  1  0
M  END

