
     RDKit          3D

 72 82  0  0  0  0  0  0  0  0999 V2000
    2.6008   -3.8106   -0.5424 C   0  0  0  0  0  0  0  0  0  0  0  0
    3.6222   -3.0325   -0.1311 C   0  0  0  0  0  0  0  0  0  0  0  0
    3.6795   -1.5699   -0.2756 C   0  0  0  0  0  0  0  0  0  0  0  0
    2.7894   -0.8297   -0.7717 O   0  0  0  0  0  0  0  0  0  0  0  0
    4.9952   -1.1120    0.1024 C   0  0  0  0  0  0  0  0  0  0  0  0
    5.4363    0.2313    0.1601 C   0  0  0  0  0  0  0  0  0  0  0  0
    6.7203    0.3770    0.6454 C   0  0  0  0  0  0  0  0  0  0  0  0
    7.5294   -0.7285    1.0578 C   0  0  0  0  0  0  0  0  0  0  0  0
    7.1070   -2.0448    0.9949 C   0  0  0  0  0  0  0  0  0  0  0  0
    5.7933   -2.2260    0.4681 C   0  0  0  0  0  0  0  0  0  0  0  0
    4.9846   -3.4761    0.3220 C   0  0  0  0  0  0  0  0  0  0  0  0
    5.3905   -4.7430    0.6141 C   0  0  0  0  0  0  0  0  0  0  0  0
    6.7715   -5.0828    0.8393 C   0  0  0  0  0  0  0  0  0  0  0  0
    7.8768   -5.3790    1.0153 N   0  0  0  0  0  0  0  0  0  0  0  0
    4.4805   -5.8539    0.7285 C   0  0  0  0  0  0  0  0  0  0  0  0
    3.7615   -6.7566    0.8267 N   0  0  0  0  0  0  0  0  0  0  0  0
    8.6214    0.2070    1.4833 C   0  0  0  0  0  0  0  0  0  0  0  0
    8.7799    0.4363    3.0162 C   0  0  0  0  0  0  0  0  0  0  0  0
    9.6356    1.6720    3.1626 C   0  0  0  0  0  0  0  0  0  0  0  0
    8.8830    2.7062    2.7684 C   0  0  0  0  0  0  0  0  0  0  0  0
    7.5446    2.1325    2.3686 C   0  0  0  0  0  0  0  0  0  0  0  0
    7.4401    1.0350    3.4147 C   0  0  0  0  0  0  0  0  0  0  0  0
    7.7954    1.3392    1.0525 C   0  0  0  0  0  0  0  0  0  0  0  0
    1.2301   -3.3317   -0.8000 C   0  0  0  0  0  0  0  0  0  0  0  0
    0.3706   -3.8991   -1.7434 C   0  0  0  0  0  0  0  0  0  0  0  0
   -0.9251   -3.3723   -1.6760 C   0  0  0  0  0  0  0  0  0  0  0  0
   -2.0199   -3.7194   -2.4856 C   0  0  0  0  0  0  0  0  0  0  0  0
   -3.2860   -3.0814   -2.2753 C   0  0  0  0  0  0  0  0  0  0  0  0
   -4.3012   -3.4561   -3.0934 N   0  0  0  0  0  0  0  0  0  0  0  0
   -3.5186   -4.5768   -4.0272 S   0  0  0  0  0  0  0  0  0  0  0  0
   -1.9575   -4.6391   -3.4805 N   0  0  0  0  0  0  0  0  0  0  0  0
   -3.4143   -2.1122   -1.2657 C   0  0  0  0  0  0  0  0  0  0  0  0
   -4.5645   -1.3875   -0.9367 C   0  0  0  0  0  0  0  0  0  0  0  0
   -4.3394   -0.4710    0.0945 C   0  0  0  0  0  0  0  0  0  0  0  0
   -2.7443   -0.6135    0.6444 S   0  0  0  0  0  0  0  0  0  0  0  0
   -2.3145   -1.7929   -0.4718 C   0  0  0  0  0  0  0  0  0  0  0  0
   -1.0854   -2.4205   -0.6715 C   0  0  0  0  0  0  0  0  0  0  0  0
    0.3622   -2.2269    0.1558 S   0  0  0  0  0  0  0  0  0  0  0  0
   -5.3451    0.4116    0.7046 C   0  0  0  0  0  0  0  0  0  0  0  0
   -6.2130    1.1704    0.0099 C   0  0  0  0  0  0  0  0  0  0  0  0
   -6.1510    1.4979   -1.4215 C   0  0  0  0  0  0  0  0  0  0  0  0
   -5.3987    0.9636   -2.2771 O   0  0  0  0  0  0  0  0  0  0  0  0
   -6.9912    2.6621   -1.6628 C   0  0  0  0  0  0  0  0  0  0  0  0
   -7.1275    3.4137   -2.8363 C   0  0  0  0  0  0  0  0  0  0  0  0
   -6.4402    2.8460   -4.3570 Cl  0  0  0  0  0  0  0  0  0  0  0  0
   -7.8159    4.6401   -2.7693 C   0  0  0  0  0  0  0  0  0  0  0  0
   -8.0350    5.6049   -4.2305 Cl  0  0  0  0  0  0  0  0  0  0  0  0
   -8.2745    5.1271   -1.5224 C   0  0  0  0  0  0  0  0  0  0  0  0
   -9.0179    6.7246   -1.4237 Cl  0  0  0  0  0  0  0  0  0  0  0  0
   -8.1019    4.3592   -0.3495 C   0  0  0  0  0  0  0  0  0  0  0  0
   -8.3449    5.1139    1.2260 Cl  0  0  0  0  0  0  0  0  0  0  0  0
   -7.5498    3.0692   -0.4631 C   0  0  0  0  0  0  0  0  0  0  0  0
   -7.2524    2.0616    0.5902 C   0  0  0  0  0  0  0  0  0  0  0  0
   -8.0861    1.7088    1.6009 C   0  0  0  0  0  0  0  0  0  0  0  0
   -9.3898    2.3015    1.7560 C   0  0  0  0  0  0  0  0  0  0  0  0
  -10.4435    2.7634    1.8855 N   0  0  0  0  0  0  0  0  0  0  0  0
   -7.8355    0.5611    2.4353 C   0  0  0  0  0  0  0  0  0  0  0  0
   -7.6412   -0.3597    3.1068 N   0  0  0  0  0  0  0  0  0  0  0  0
    2.7521   -4.8598   -0.7181 H   0  0  0  0  0  0  0  0  0  0  0  0
    4.8123    1.0751   -0.1068 H   0  0  0  0  0  0  0  0  0  0  0  0
    7.7392   -2.8275    1.3714 H   0  0  0  0  0  0  0  0  0  0  0  0
    9.5675    0.0807    0.9110 H   0  0  0  0  0  0  0  0  0  0  0  0
    9.1137   -0.4444    3.6045 H   0  0  0  0  0  0  0  0  0  0  0  0
   10.6269    1.7386    3.5996 H   0  0  0  0  0  0  0  0  0  0  0  0
    9.1601    3.7549    2.8271 H   0  0  0  0  0  0  0  0  0  0  0  0
    6.7057    2.8579    2.3403 H   0  0  0  0  0  0  0  0  0  0  0  0
    6.5725    0.3515    3.2752 H   0  0  0  0  0  0  0  0  0  0  0  0
    7.4209    1.4222    4.4627 H   0  0  0  0  0  0  0  0  0  0  0  0
    8.2163    1.9262    0.2054 H   0  0  0  0  0  0  0  0  0  0  0  0
    0.6717   -4.6708   -2.4403 H   0  0  0  0  0  0  0  0  0  0  0  0
   -5.5228   -1.5290   -1.4207 H   0  0  0  0  0  0  0  0  0  0  0  0
   -5.3241    0.4878    1.7818 H   0  0  0  0  0  0  0  0  0  0  0  0
  1  2  2  3
  2  3  1  0
  3  4  2  0
  3  5  1  0
  5  6  2  0
  6  7  1  0
  7  8  2  0
  8  9  1  0
  9 10  2  0
 10 11  1  0
 11 12  2  3
 12 13  1  0
 13 14  3  0
 12 15  1  0
 15 16  3  0
  8 17  1  0
 17 18  1  0
 18 19  1  0
 19 20  2  0
 20 21  1  0
 21 22  1  0
 21 23  1  0
  1 24  1  0
 24 25  2  0
 25 26  1  0
 26 27  1  0
 27 28  1  0
 28 29  2  0
 29 30  1  0
 30 31  1  0
 28 32  1  0
 32 33  1  0
 33 34  2  0
 34 35  1  0
 35 36  1  0
 36 37  1  0
 37 38  1  0
 34 39  1  0
 39 40  2  3
 40 41  1  0
 41 42  2  0
 41 43  1  0
 43 44  2  0
 44 45  1  0
 44 46  1  0
 46 47  1  0
 46 48  2  0
 48 49  1  0
 48 50  1  0
 50 51  1  0
 50 52  2  0
 52 53  1  0
 53 54  2  3
 54 55  1  0
 55 56  3  0
 54 57  1  0
 57 58  3  0
 11  2  1  0
 23 17  1  0
 38 24  1  0
 53 40  1  0
 10  5  1  0
 22 18  1  0
 37 26  2  0
 52 43  1  0
 23  7  1  0
 31 27  2  0
 36 32  2  0
  1 59  1  0
  6 60  1  0
  9 61  1  0
 17 62  1  0
 18 63  1  0
 19 64  1  0
 20 65  1  0
 21 66  1  0
 22 67  1  0
 22 68  1  0
 23 69  1  0
 25 70  1  0
 33 71  1  0
 39 72  1  0
M  END

