
     RDKit          3D

 98111  0  0  0  0  0  0  0  0999 V2000
    6.3050    3.0458    0.1961 C   0  0  0  0  0  0  0  0  0  0  0  0
    5.3489    3.9850    0.0403 C   0  0  0  0  0  0  0  0  0  0  0  0
    5.5985    5.3348   -0.4473 C   0  0  0  0  0  0  0  0  0  0  0  0
    6.7247    5.8255   -0.6740 O   0  0  0  0  0  0  0  0  0  0  0  0
    4.3005    6.0107   -0.6336 C   0  0  0  0  0  0  0  0  0  0  0  0
    3.9530    7.2684   -1.1305 C   0  0  0  0  0  0  0  0  0  0  0  0
    2.6395    7.6706   -1.2685 C   0  0  0  0  0  0  0  0  0  0  0  0
    1.6537    6.8011   -0.9051 C   0  0  0  0  0  0  0  0  0  0  0  0
    2.0047    5.5316   -0.4005 C   0  0  0  0  0  0  0  0  0  0  0  0
    3.3040    5.1431   -0.2693 C   0  0  0  0  0  0  0  0  0  0  0  0
    3.9277    3.8272    0.1966 C   0  0  0  0  0  0  0  0  0  0  0  0
    3.2040    3.1848    1.1407 C   0  0  0  0  0  0  0  0  0  0  0  0
    3.6928    2.5657    2.2349 C   0  0  0  0  0  0  0  0  0  0  0  0
    4.1858    1.9780    3.2925 N   0  0  0  0  0  0  0  0  0  0  0  0
    1.7559    3.0203    0.9609 C   0  0  0  0  0  0  0  0  0  0  0  0
    0.5759    2.8718    0.8212 N   0  0  0  0  0  0  0  0  0  0  0  0
    0.5511    7.6843   -1.2974 C   0  0  0  0  0  0  0  0  0  0  0  0
   -0.1643    7.3340   -2.5754 C   0  0  0  0  0  0  0  0  0  0  0  0
    0.8044    6.6503   -3.4752 C   0  0  0  0  0  0  0  0  0  0  0  0
    1.7730    7.5119   -3.7368 C   0  0  0  0  0  0  0  0  0  0  0  0
    1.3903    8.8309   -3.1578 C   0  0  0  0  0  0  0  0  0  0  0  0
   -0.1139    8.7377   -3.2367 C   0  0  0  0  0  0  0  0  0  0  0  0
    1.6227    8.6876   -1.6617 C   0  0  0  0  0  0  0  0  0  0  0  0
    5.9608    1.7321    0.6155 C   0  0  0  0  0  0  0  0  0  0  0  0
    6.4218    0.4834    2.0814 Se  0  0  0  0  0  2  0  0  0  0  0  0
    5.1420   -0.7824    1.4277 C   0  0  0  0  0  0  0  0  0  0  0  0
    4.4303   -1.9541    1.7417 C   0  0  0  0  0  0  0  0  0  0  0  0
    4.4569   -2.7211    2.8965 C   0  0  0  0  0  0  0  0  0  0  0  0
    3.4517   -3.5893    3.0832 C   0  0  0  0  0  0  0  0  0  0  0  0
    3.5246   -4.3190    4.2152 N   0  0  0  0  0  0  0  0  0  0  0  0
    4.9220   -3.8195    4.9797 S   0  0  0  0  0  0  0  0  0  0  0  0
    5.3909   -2.6846    3.8384 N   0  0  0  0  0  0  0  0  0  0  0  0
    2.4317   -3.7138    2.1514 C   0  0  0  0  0  0  0  0  0  0  0  0
    1.1878   -4.3560    2.2346 C   0  0  0  0  0  0  0  0  0  0  0  0
    0.0951   -5.2123    3.2098 S   0  0  0  0  0  0  0  0  0  0  0  0
   -1.3114   -5.1215    2.2180 C   0  0  0  0  0  0  0  0  0  0  0  0
   -2.6207   -5.4670    2.3418 C   0  0  0  0  0  0  0  0  0  0  0  0
   -3.2405   -6.2029    3.4941 C   0  0  0  0  0  0  0  0  0  0  0  0
   -3.0171   -7.6762    3.4680 C   0  0  0  0  0  0  0  0  0  0  0  0
   -3.4591   -5.0512    1.2722 C   0  0  0  0  0  0  0  0  0  0  0  0
   -2.3059   -4.2873    0.3040 S   0  0  0  0  0  0  0  0  0  0  0  0
   -0.8704   -4.4549    1.1922 C   0  0  0  0  0  0  0  0  0  0  0  0
    0.4582   -4.0193    1.1431 C   0  0  0  0  0  0  0  0  0  0  0  0
    1.2276   -3.1661    0.3203 N   0  0  0  0  0  0  0  0  0  0  0  0
    2.3918   -2.9918    0.9669 C   0  0  0  0  0  0  0  0  0  0  0  0
    3.4372   -2.0666    0.7583 C   0  0  0  0  0  0  0  0  0  0  0  0
    3.5149   -1.0680   -0.1183 N   0  0  0  0  0  0  0  0  0  0  0  0
    4.5888   -0.2317    0.3139 C   0  0  0  0  0  0  0  0  0  0  0  0
    5.0171    0.9942   -0.0464 C   0  0  0  0  0  0  0  0  0  0  0  0
    2.8163   -0.7341   -1.2630 C   0  0  0  0  0  0  0  0  0  0  0  0
    1.8033    0.3585   -1.0219 C   0  0  0  0  0  0  0  0  0  0  0  0
    0.8422   -2.7947   -0.9564 C   0  0  0  0  0  0  0  0  0  0  0  0
    1.3825   -3.7517   -2.0487 C   0  0  0  0  0  0  0  0  0  0  0  0
   -4.8631   -5.2734    1.1736 C   0  0  0  0  0  0  0  0  0  0  0  0
   -5.6884   -5.1811    0.1680 C   0  0  0  0  0  0  0  0  0  0  0  0
   -7.1154   -5.5226    0.4257 C   0  0  0  0  0  0  0  0  0  0  0  0
   -7.6666   -5.7560    1.5241 O   0  0  0  0  0  0  0  0  0  0  0  0
   -7.8034   -5.5374   -0.8555 C   0  0  0  0  0  0  0  0  0  0  0  0
   -9.3214   -5.7948   -1.6121 S   0  0  0  0  0  0  0  0  0  0  0  0
   -8.8892   -5.5196   -3.2241 C   0  0  0  0  0  0  0  0  0  0  0  0
   -7.5330   -5.2267   -3.1187 C   0  0  0  0  0  0  0  0  0  0  0  0
   -6.9800   -5.2361   -1.8779 C   0  0  0  0  0  0  0  0  0  0  0  0
   -5.5691   -4.9737   -1.2599 C   0  0  0  0  0  0  0  0  0  0  0  0
   -4.7643   -4.2223   -1.9241 C   0  0  0  0  0  0  0  0  0  0  0  0
   -4.7675   -4.2068   -3.4257 C   0  0  0  0  0  0  0  0  0  0  0  0
   -4.7739   -4.2128   -4.4897 N   0  0  0  0  0  0  0  0  0  0  0  0
   -4.1166   -2.9589   -1.4823 C   0  0  0  0  0  0  0  0  0  0  0  0
   -3.5939   -1.9445   -1.1459 N   0  0  0  0  0  0  0  0  0  0  0  0
    7.3245    3.3018   -0.0202 H   0  0  0  0  0  0  0  0  0  0  0  0
    4.7644    7.9349   -1.4202 H   0  0  0  0  0  0  0  0  0  0  0  0
    1.1743    4.9095   -0.1308 H   0  0  0  0  0  0  0  0  0  0  0  0
   -0.1162    7.9710   -0.4673 H   0  0  0  0  0  0  0  0  0  0  0  0
   -1.1242    6.8926   -2.5263 H   0  0  0  0  0  0  0  0  0  0  0  0
    0.7419    5.6418   -3.8462 H   0  0  0  0  0  0  0  0  0  0  0  0
    2.6819    7.3361   -4.2613 H   0  0  0  0  0  0  0  0  0  0  0  0
    1.7937    9.7112   -3.6262 H   0  0  0  0  0  0  0  0  0  0  0  0
   -0.5177    8.6526   -4.2602 H   0  0  0  0  0  0  0  0  0  0  0  0
   -0.6275    9.4666   -2.5763 H   0  0  0  0  0  0  0  0  0  0  0  0
    1.6281    9.5887   -1.0731 H   0  0  0  0  0  0  0  0  0  0  0  0
   -4.2827   -5.9305    3.6110 H   0  0  0  0  0  0  0  0  0  0  0  0
   -2.6714   -5.8393    4.4343 H   0  0  0  0  0  0  0  0  0  0  0  0
   -3.2256   -8.2134    2.5520 H   0  0  0  0  0  0  0  0  0  0  0  0
   -3.6468   -8.1115    4.3002 H   0  0  0  0  0  0  0  0  0  0  0  0
   -1.9570   -7.9334    3.7477 H   0  0  0  0  0  0  0  0  0  0  0  0
    4.6202    1.5156   -1.0019 H   0  0  0  0  0  0  0  0  0  0  0  0
    2.6496   -1.4246   -2.0940 H   0  0  0  0  0  0  0  0  0  0  0  0
    3.5471   -0.1087   -1.9309 H   0  0  0  0  0  0  0  0  0  0  0  0
    1.3387    0.3279   -0.0440 H   0  0  0  0  0  0  0  0  0  0  0  0
    2.2591    1.3712   -1.1344 H   0  0  0  0  0  0  0  0  0  0  0  0
    1.0589    0.3120   -1.8757 H   0  0  0  0  0  0  0  0  0  0  0  0
   -0.2615   -3.2350   -1.0829 H   0  0  0  0  0  0  0  0  0  0  0  0
    0.4978   -1.8465   -1.2797 H   0  0  0  0  0  0  0  0  0  0  0  0
    2.4996   -3.7675   -1.8622 H   0  0  0  0  0  0  0  0  0  0  0  0
    1.0851   -4.7922   -1.9120 H   0  0  0  0  0  0  0  0  0  0  0  0
    1.1678   -3.2960   -3.0168 H   0  0  0  0  0  0  0  0  0  0  0  0
   -5.3702   -5.5774    2.1363 H   0  0  0  0  0  0  0  0  0  0  0  0
   -9.4552   -5.5477   -4.1589 H   0  0  0  0  0  0  0  0  0  0  0  0
   -7.0294   -5.0274   -4.0944 H   0  0  0  0  0  0  0  0  0  0  0  0
  1  2  2  3
  2  3  1  0
  3  4  2  0
  3  5  1  0
  5  6  2  0
  6  7  1  0
  7  8  2  0
  8  9  1  0
  9 10  2  0
 10 11  1  0
 11 12  2  3
 12 13  1  0
 13 14  3  0
 12 15  1  0
 15 16  3  0
  8 17  1  0
 17 18  1  0
 18 19  1  0
 19 20  2  0
 20 21  1  0
 21 22  1  0
 21 23  1  0
  1 24  1  0
 24 25  1  0
 25 26  1  0
 26 27  1  0
 27 28  1  0
 28 29  1  0
 29 30  2  0
 30 31  1  0
 31 32  1  0
 29 33  1  0
 33 34  1  0
 34 35  1  0
 35 36  1  0
 36 37  1  0
 37 38  1  0
 38 39  1  0
 37 40  2  0
 40 41  1  0
 41 42  1  0
 42 43  1  0
 43 44  1  0
 44 45  1  0
 45 46  1  0
 46 47  1  0
 47 48  1  0
 48 49  1  0
 47 50  1  0
 50 51  1  0
 44 52  1  0
 52 53  1  0
 40 54  1  0
 54 55  2  3
 55 56  1  0
 56 57  2  0
 56 58  1  0
 58 59  1  0
 59 60  1  0
 60 61  2  0
 61 62  1  0
 62 63  1  0
 63 64  2  3
 64 65  1  0
 65 66  3  0
 64 67  1  0
 67 68  3  0
 11  2  1  0
 23 17  1  0
 49 24  2  0
 63 55  1  0
 10  5  1  0
 22 18  1  0
 48 26  2  0
 62 58  2  0
 23  7  1  0
 46 27  2  0
 32 28  2  0
 45 33  2  0
 43 34  2  0
 42 36  2  0
  1 69  1  0
  6 70  1  0
  9 71  1  0
 17 72  1  0
 18 73  1  0
 19 74  1  0
 20 75  1  0
 21 76  1  0
 22 77  1  0
 22 78  1  0
 23 79  1  0
 38 80  1  0
 38 81  1  0
 39 82  1  0
 39 83  1  0
 39 84  1  0
 49 85  1  0
 50 86  1  0
 50 87  1  0
 51 88  1  0
 51 89  1  0
 51 90  1  0
 52 91  1  0
 52 92  1  0
 53 93  1  0
 53 94  1  0
 53 95  1  0
 54 96  1  0
 60 97  1  0
 61 98  1  0
M  END

