
     RDKit          3D

116131  0  0  0  0  0  0  0  0999 V2000
    4.7470    5.5891    1.5808 C   0  0  0  0  0  0  0  0  0  0  0  0
    5.6296    4.8980    0.6729 C   0  0  0  0  0  0  0  0  0  0  0  0
    5.2502    4.3716   -0.4859 C   0  0  0  0  0  0  0  0  0  0  0  0
    4.1161    4.5097   -1.1662 O   0  0  0  0  0  0  0  0  0  0  0  0
    6.2142    3.5400   -1.0258 C   0  0  0  0  0  0  0  0  0  0  0  0
    6.5591    2.8369   -2.1764 C   0  0  0  0  0  0  0  0  0  0  0  0
    7.6168    2.2536   -2.5358 C   0  0  0  0  0  0  0  0  0  0  0  0
    8.7255    2.3083   -1.5858 C   0  0  0  0  0  0  0  0  0  0  0  0
    8.4791    2.9843   -0.3657 C   0  0  0  0  0  0  0  0  0  0  0  0
    7.2763    3.5503   -0.1353 C   0  0  0  0  0  0  0  0  0  0  0  0
    6.8936    4.5983    1.2428 C   0  0  0  0  0  0  0  0  0  0  0  0
    8.0138    4.3900    1.7493 C   0  0  0  0  0  0  0  0  0  0  0  0
    9.1018    5.0300    2.2210 C   0  0  0  0  0  0  0  0  0  0  0  0
   10.1268    5.6452    2.6566 N   0  0  0  0  0  0  0  0  0  0  0  0
    7.8841    2.8550    2.2775 C   0  0  0  0  0  0  0  0  0  0  0  0
    7.7830    1.7895    2.6569 N   0  0  0  0  0  0  0  0  0  0  0  0
    9.5648    1.6497   -2.5225 C   0  0  0  0  0  0  0  0  0  0  0  0
   10.5332    2.5603   -3.2946 C   0  0  0  0  0  0  0  0  0  0  0  0
    9.8646    3.8592   -3.5173 C   0  0  0  0  0  0  0  0  0  0  0  0
    8.7861    3.6687   -4.2806 C   0  0  0  0  0  0  0  0  0  0  0  0
    8.8310    2.2419   -4.7263 C   0  0  0  0  0  0  0  0  0  0  0  0
   10.3244    1.9727   -4.7127 C   0  0  0  0  0  0  0  0  0  0  0  0
    8.4394    1.4232   -3.5068 C   0  0  0  0  0  0  0  0  0  0  0  0
    3.3462    5.6309    1.0560 C   0  0  0  0  0  0  0  0  0  0  0  0
    2.5665    6.1433    0.2709 C   0  0  0  0  0  0  0  0  0  0  0  0
    2.9158    7.3592   -0.6844 C   0  0  0  0  0  0  0  0  0  0  0  0
    2.8657    6.9055   -2.1389 C   0  0  0  0  0  0  0  0  0  0  0  0
    1.2465    5.7008    0.0517 C   0  0  0  0  0  0  0  0  0  0  0  0
   -0.0904    5.7303   -1.0640 S   0  0  0  0  0  0  0  0  0  0  0  0
   -0.9613    4.3739   -0.5280 C   0  0  0  0  0  0  0  0  0  0  0  0
   -2.0383    3.4853   -0.7432 C   0  0  0  0  0  0  0  0  0  0  0  0
   -2.9730    3.3781   -1.8351 C   0  0  0  0  0  0  0  0  0  0  0  0
   -3.7429    2.2884   -1.8671 C   0  0  0  0  0  0  0  0  0  0  0  0
   -4.6393    2.1699   -2.7908 N   0  0  0  0  0  0  0  0  0  0  0  0
   -4.3319    3.9077   -3.8318 Se  0  0  0  0  0  2  0  0  0  0  0  0
   -3.0830    4.3196   -2.7194 N   0  0  0  0  0  0  0  0  0  0  0  0
   -3.5968    1.2988   -0.8647 C   0  0  0  0  0  0  0  0  0  0  0  0
   -4.1885    0.0252   -0.6653 C   0  0  0  0  0  0  0  0  0  0  0  0
   -5.3370   -1.0000   -1.3901 S   0  0  0  0  0  0  0  0  0  0  0  0
   -5.2076   -2.3189   -0.2107 C   0  0  0  0  0  0  0  0  0  0  0  0
   -5.7249   -3.5068   -0.0073 C   0  0  0  0  0  0  0  0  0  0  0  0
   -6.6623   -4.1564   -1.0679 C   0  0  0  0  0  0  0  0  0  0  0  0
   -5.6261   -4.7124   -2.0874 C   0  0  0  0  0  0  0  0  0  0  0  0
   -5.3675   -4.2429    1.0910 C   0  0  0  0  0  0  0  0  0  0  0  0
   -4.2448   -3.1807    1.7809 S   0  0  0  0  0  0  0  0  0  0  0  0
   -4.2718   -1.8581    0.6855 C   0  0  0  0  0  0  0  0  0  0  0  0
   -3.7713   -0.5720    0.3233 C   0  0  0  0  0  0  0  0  0  0  0  0
   -2.7752    0.2226    0.9439 N   0  0  0  0  0  0  0  0  0  0  0  0
   -2.7156    1.3755    0.1805 C   0  0  0  0  0  0  0  0  0  0  0  0
   -1.9340    2.5388    0.2142 C   0  0  0  0  0  0  0  0  0  0  0  0
   -0.8972    2.7986    0.9970 N   0  0  0  0  0  0  0  0  0  0  0  0
   -0.2614    3.9361    0.4715 C   0  0  0  0  0  0  0  0  0  0  0  0
    0.9179    4.6096    0.8129 C   0  0  0  0  0  0  0  0  0  0  0  0
    2.3288    4.3034    1.7217 S   0  0  0  0  0  0  0  0  0  0  0  0
   -0.7055    2.4161    2.3904 C   0  0  0  0  0  0  0  0  0  0  0  0
   -0.8331    3.8235    3.1604 C   0  0  0  0  0  0  0  0  0  0  0  0
   -1.8113   -0.2854    1.8532 C   0  0  0  0  0  0  0  0  0  0  0  0
   -0.4397   -0.5345    1.1268 C   0  0  0  0  0  0  0  0  0  0  0  0
   -5.8966   -5.6323    1.3563 C   0  0  0  0  0  0  0  0  0  0  0  0
   -6.2707   -5.8485    2.5957 C   0  0  0  0  0  0  0  0  0  0  0  0
   -6.6547   -6.0820    3.8534 C   0  0  0  0  0  0  0  0  0  0  0  0
   -6.8696   -4.8752    4.5413 O   0  0  0  0  0  0  0  0  0  0  0  0
   -6.8574   -7.2488    4.5088 C   0  0  0  0  0  0  0  0  0  0  0  0
   -7.2952   -7.6597    5.7887 C   0  0  0  0  0  0  0  0  0  0  0  0
   -7.4347   -8.8662    6.0911 C   0  0  0  0  0  0  0  0  0  0  0  0
   -7.8779   -9.4085    7.3522 C   0  0  0  0  0  0  0  0  0  0  0  0
   -8.0313  -10.6162    7.6666 C   0  0  0  0  0  0  0  0  0  0  0  0
   -8.4912  -11.0306    8.9253 F   0  0  0  0  0  0  0  0  0  0  0  0
   -7.7695  -11.6598    6.7562 C   0  0  0  0  0  0  0  0  0  0  0  0
   -7.9441  -12.9115    7.0883 F   0  0  0  0  0  0  0  0  0  0  0  0
   -7.3248  -11.2341    5.4922 C   0  0  0  0  0  0  0  0  0  0  0  0
   -7.1724   -9.9748    5.1993 C   0  0  0  0  0  0  0  0  0  0  0  0
   -6.7377   -9.5359    3.9534 C   0  0  0  0  0  0  0  0  0  0  0  0
   -6.5620   -8.2192    3.5796 C   0  0  0  0  0  0  0  0  0  0  0  0
   -6.1460   -7.6612    2.3334 C   0  0  0  0  0  0  0  0  0  0  0  0
   -5.3448   -8.0829    1.4790 C   0  0  0  0  0  0  0  0  0  0  0  0
   -4.3977   -7.4938    0.5886 C   0  0  0  0  0  0  0  0  0  0  0  0
   -3.5970   -7.0126   -0.1760 N   0  0  0  0  0  0  0  0  0  0  0  0
   -5.3417   -9.5918    1.3046 C   0  0  0  0  0  0  0  0  0  0  0  0
   -5.3266  -10.7786    1.1510 N   0  0  0  0  0  0  0  0  0  0  0  0
    5.1109    5.9439    2.4482 H   0  0  0  0  0  0  0  0  0  0  0  0
    5.6097    2.8196   -2.8856 H   0  0  0  0  0  0  0  0  0  0  0  0
    9.3186    2.9724    0.3308 H   0  0  0  0  0  0  0  0  0  0  0  0
   10.0862    0.7136   -2.1656 H   0  0  0  0  0  0  0  0  0  0  0  0
   11.5325    2.5785   -2.9506 H   0  0  0  0  0  0  0  0  0  0  0  0
   10.1008    4.8745   -3.1742 H   0  0  0  0  0  0  0  0  0  0  0  0
    8.0316    4.3465   -4.5633 H   0  0  0  0  0  0  0  0  0  0  0  0
    8.3338    2.0212   -5.6271 H   0  0  0  0  0  0  0  0  0  0  0  0
   10.8780    2.6640   -5.4363 H   0  0  0  0  0  0  0  0  0  0  0  0
   10.6062    0.9364   -4.7654 H   0  0  0  0  0  0  0  0  0  0  0  0
    8.0512    0.4300   -3.6571 H   0  0  0  0  0  0  0  0  0  0  0  0
    3.8658    7.7530   -0.3889 H   0  0  0  0  0  0  0  0  0  0  0  0
    2.1207    8.1199   -0.5445 H   0  0  0  0  0  0  0  0  0  0  0  0
    3.8243    7.0016   -2.6570 H   0  0  0  0  0  0  0  0  0  0  0  0
    2.1570    7.6164   -2.7305 H   0  0  0  0  0  0  0  0  0  0  0  0
    2.3766    5.9278   -2.3019 H   0  0  0  0  0  0  0  0  0  0  0  0
   -7.3048   -3.3969   -1.5173 H   0  0  0  0  0  0  0  0  0  0  0  0
   -7.1772   -5.0093   -0.6818 H   0  0  0  0  0  0  0  0  0  0  0  0
   -4.7872   -4.0037   -2.1492 H   0  0  0  0  0  0  0  0  0  0  0  0
   -5.1932   -5.6284   -1.6043 H   0  0  0  0  0  0  0  0  0  0  0  0
   -6.0182   -4.9246   -3.0540 H   0  0  0  0  0  0  0  0  0  0  0  0
    0.2840    2.0676    2.6533 H   0  0  0  0  0  0  0  0  0  0  0  0
   -1.5855    1.9887    2.7906 H   0  0  0  0  0  0  0  0  0  0  0  0
   -1.0990    4.5928    2.4224 H   0  0  0  0  0  0  0  0  0  0  0  0
    0.0919    4.0006    3.7192 H   0  0  0  0  0  0  0  0  0  0  0  0
   -1.6635    3.7743    3.8639 H   0  0  0  0  0  0  0  0  0  0  0  0
   -2.0617   -1.4253    2.0389 H   0  0  0  0  0  0  0  0  0  0  0  0
   -1.5924    0.0975    2.8083 H   0  0  0  0  0  0  0  0  0  0  0  0
   -0.3196   -1.5359    0.7640 H   0  0  0  0  0  0  0  0  0  0  0  0
    0.3834   -0.3368    1.9050 H   0  0  0  0  0  0  0  0  0  0  0  0
   -0.2764    0.2584    0.3476 H   0  0  0  0  0  0  0  0  0  0  0  0
   -6.0397   -6.2167    0.4843 H   0  0  0  0  0  0  0  0  0  0  0  0
   -7.4976   -6.8233    6.5035 H   0  0  0  0  0  0  0  0  0  0  0  0
   -8.0654   -8.5665    8.0581 H   0  0  0  0  0  0  0  0  0  0  0  0
   -7.0986  -12.0157    4.7616 H   0  0  0  0  0  0  0  0  0  0  0  0
   -6.5688  -10.3241    3.2448 H   0  0  0  0  0  0  0  0  0  0  0  0
  1  2  2  3
  2  3  1  0
  3  4  2  0
  3  5  1  0
  5  6  2  0
  6  7  1  0
  7  8  2  0
  8  9  1  0
  9 10  2  0
 10 11  1  0
 11 12  2  3
 12 13  1  0
 13 14  3  0
 12 15  1  0
 15 16  3  0
  8 17  1  0
 17 18  1  0
 18 19  1  0
 19 20  2  0
 20 21  1  0
 21 22  1  0
 21 23  1  0
  1 24  1  0
 24 25  2  0
 25 26  1  0
 26 27  1  0
 25 28  1  0
 28 29  1  0
 29 30  1  0
 30 31  1  0
 31 32  1  0
 32 33  1  0
 33 34  2  0
 34 35  1  0
 35 36  1  0
 33 37  1  0
 37 38  1  0
 38 39  1  0
 39 40  1  0
 40 41  1  0
 41 42  1  0
 42 43  1  0
 41 44  2  0
 44 45  1  0
 45 46  1  0
 46 47  1  0
 47 48  1  0
 48 49  1  0
 49 50  1  0
 50 51  1  0
 51 52  1  0
 52 53  1  0
 53 54  1  0
 51 55  1  0
 55 56  1  0
 48 57  1  0
 57 58  1  0
 44 59  1  0
 59 60  2  3
 60 61  1  0
 61 62  2  0
 61 63  1  0
 63 64  2  0
 64 65  1  0
 65 66  2  0
 66 67  1  0
 67 68  1  0
 67 69  2  0
 69 70  1  0
 69 71  1  0
 71 72  2  0
 72 73  1  0
 73 74  2  0
 74 75  1  0
 75 76  2  3
 76 77  1  0
 77 78  3  0
 76 79  1  0
 79 80  3  0
 11  2  1  0
 23 17  1  0
 54 24  1  0
 75 60  1  0
 10  5  1  0
 22 18  1  0
 53 28  2  0
 74 63  1  0
 23  7  1  0
 52 30  2  0
 72 65  1  0
 50 31  2  0
 36 32  2  0
 49 37  2  0
 47 38  2  0
 46 40  2  0
  1 81  1  0
  6 82  1  0
  9 83  1  0
 17 84  1  0
 18 85  1  0
 19 86  1  0
 20 87  1  0
 21 88  1  0
 22 89  1  0
 22 90  1  0
 23 91  1  0
 26 92  1  0
 26 93  1  0
 27 94  1  0
 27 95  1  0
 27 96  1  0
 42 97  1  0
 42 98  1  0
 43 99  1  0
 43100  1  0
 43101  1  0
 55102  1  0
 55103  1  0
 56104  1  0
 56105  1  0
 56106  1  0
 57107  1  0
 57108  1  0
 58109  1  0
 58110  1  0
 58111  1  0
 59112  1  0
 64113  1  0
 66114  1  0
 71115  1  0
 73116  1  0
M  END

