
     RDKit          3D

140157  0  0  0  0  0  0  0  0999 V2000
   -6.6893    4.2367   -0.1425 C   0  0  0  0  0  0  0  0  0  0  0  0
   -6.1711    4.8566   -1.2267 C   0  0  0  0  0  0  0  0  0  0  0  0
   -5.2165    5.9702   -1.2222 C   0  0  0  0  0  0  0  0  0  0  0  0
   -5.2146    6.9437   -0.4219 O   0  0  0  0  0  0  0  0  0  0  0  0
   -4.3664    5.8552   -2.3856 C   0  0  0  0  0  0  0  0  0  0  0  0
   -3.1693    6.5618   -2.6426 C   0  0  0  0  0  0  0  0  0  0  0  0
   -2.4901    6.1215   -3.7620 C   0  0  0  0  0  0  0  0  0  0  0  0
   -2.9498    5.0371   -4.5802 C   0  0  0  0  0  0  0  0  0  0  0  0
   -4.1215    4.3394   -4.3314 C   0  0  0  0  0  0  0  0  0  0  0  0
   -4.8498    4.7994   -3.1990 C   0  0  0  0  0  0  0  0  0  0  0  0
   -6.0930    4.2532   -2.5887 C   0  0  0  0  0  0  0  0  0  0  0  0
   -7.0529    3.5238   -3.2118 C   0  0  0  0  0  0  0  0  0  0  0  0
   -6.9238    3.0860   -4.5764 C   0  0  0  0  0  0  0  0  0  0  0  0
   -6.8344    2.7255   -5.6739 N   0  0  0  0  0  0  0  0  0  0  0  0
   -8.3227    3.2411   -2.5921 C   0  0  0  0  0  0  0  0  0  0  0  0
   -9.3455    3.0119   -2.1004 N   0  0  0  0  0  0  0  0  0  0  0  0
   -1.7276    5.1469   -5.4423 C   0  0  0  0  0  0  0  0  0  0  0  0
   -0.6364    4.0544   -5.2427 C   0  0  0  0  0  0  0  0  0  0  0  0
    0.6107    4.5874   -5.9040 C   0  0  0  0  0  0  0  0  0  0  0  0
    1.0402    5.5983   -5.1405 C   0  0  0  0  0  0  0  0  0  0  0  0
    0.0672    5.7123   -3.9903 C   0  0  0  0  0  0  0  0  0  0  0  0
   -0.2282    4.2366   -3.7914 C   0  0  0  0  0  0  0  0  0  0  0  0
   -1.2573    6.2566   -4.6038 C   0  0  0  0  0  0  0  0  0  0  0  0
   -6.2615    4.4415    1.2614 C   0  0  0  0  0  0  0  0  0  0  0  0
   -4.7597    5.0555    1.7476 S   0  0  0  0  0  0  0  0  0  0  0  0
   -4.7920    4.4410    3.3006 C   0  0  0  0  0  0  0  0  0  0  0  0
   -3.7018    3.7881    3.9817 C   0  0  0  0  0  0  0  0  0  0  0  0
   -4.2026    2.6333    4.5822 C   0  0  0  0  0  0  0  0  0  0  0  0
   -5.6948    2.5281    4.3888 C   0  0  0  0  0  0  0  0  0  0  0  0
   -5.9253    3.6785    3.4462 C   0  0  0  0  0  0  0  0  0  0  0  0
   -6.7630    3.6728    2.3193 C   0  0  0  0  0  0  0  0  0  0  0  0
   -6.4477    2.7216    5.7026 C   0  0  0  0  0  0  0  0  0  0  0  0
   -3.3424    1.5932    4.9639 C   0  0  0  0  0  0  0  0  0  0  0  0
   -1.9787    1.7531    4.6756 C   0  0  0  0  0  0  0  0  0  0  0  0
   -0.9040    0.7738    4.6881 C   0  0  0  0  0  0  0  0  0  0  0  0
    0.1736    1.3201    4.1556 C   0  0  0  0  0  0  0  0  0  0  0  0
   -0.0429    2.7325    3.6489 C   0  0  0  0  0  0  0  0  0  0  0  0
    0.8845    3.7386    4.3898 C   0  0  0  0  0  0  0  0  0  0  0  0
    0.7371    3.7317    5.9180 C   0  0  0  0  0  0  0  0  0  0  0  0
    0.0446    2.7768    2.0753 C   0  0  0  0  0  0  0  0  0  0  0  0
    1.1213    3.6883    1.4789 C   0  0  0  0  0  0  0  0  0  0  0  0
   -1.4838    2.9096    4.0780 C   0  0  0  0  0  0  0  0  0  0  0  0
   -2.3384    3.9619    3.7297 C   0  0  0  0  0  0  0  0  0  0  0  0
    1.0841    0.2739    3.7440 C   0  0  0  0  0  0  0  0  0  0  0  0
    0.4921   -0.9517    4.0405 C   0  0  0  0  0  0  0  0  0  0  0  0
   -0.9030   -0.7448    4.6045 C   0  0  0  0  0  0  0  0  0  0  0  0
   -2.0036   -1.1925    3.5931 C   0  0  0  0  0  0  0  0  0  0  0  0
   -1.9639   -2.6613    3.1630 C   0  0  0  0  0  0  0  0  0  0  0  0
   -1.0800   -1.3967    5.9997 C   0  0  0  0  0  0  0  0  0  0  0  0
   -0.1231   -0.8536    7.0676 C   0  0  0  0  0  0  0  0  0  0  0  0
    1.1391   -2.1565    3.7176 C   0  0  0  0  0  0  0  0  0  0  0  0
    2.3486   -2.0574    3.0248 C   0  0  0  0  0  0  0  0  0  0  0  0
    3.0954   -3.0760    2.3338 C   0  0  0  0  0  0  0  0  0  0  0  0
    4.0370   -2.4959    1.5450 C   0  0  0  0  0  0  0  0  0  0  0  0
    4.0761   -1.0050    1.7250 C   0  0  0  0  0  0  0  0  0  0  0  0
    2.9130   -0.8286    2.6774 C   0  0  0  0  0  0  0  0  0  0  0  0
    2.2997    0.3714    3.0528 C   0  0  0  0  0  0  0  0  0  0  0  0
    5.3955   -0.5532    2.3488 C   0  0  0  0  0  0  0  0  0  0  0  0
    4.5094   -3.3160    0.5221 C   0  0  0  0  0  0  0  0  0  0  0  0
    3.8990   -4.5750    0.5668 C   0  0  0  0  0  0  0  0  0  0  0  0
    2.7500   -4.6330    1.8185 S   0  0  0  0  0  0  0  0  0  0  0  0
    4.1636   -5.6827   -0.3579 C   0  0  0  0  0  0  0  0  0  0  0  0
    3.8889   -5.6352   -1.6756 C   0  0  0  0  0  0  0  0  0  0  0  0
    3.0265   -4.6423   -2.3282 C   0  0  0  0  0  0  0  0  0  0  0  0
    2.6435   -3.5467   -1.8367 O   0  0  0  0  0  0  0  0  0  0  0  0
    2.6078   -5.1655   -3.6120 C   0  0  0  0  0  0  0  0  0  0  0  0
    1.6878   -4.5770   -4.5128 C   0  0  0  0  0  0  0  0  0  0  0  0
    1.4376   -5.3418   -5.6371 C   0  0  0  0  0  0  0  0  0  0  0  0
    2.0497   -6.6163   -5.8650 C   0  0  0  0  0  0  0  0  0  0  0  0
    2.9374   -7.2039   -4.9799 C   0  0  0  0  0  0  0  0  0  0  0  0
    3.2182   -6.4295   -3.8203 C   0  0  0  0  0  0  0  0  0  0  0  0
    4.1085   -6.7342   -2.6634 C   0  0  0  0  0  0  0  0  0  0  0  0
    5.0812   -7.6823   -2.6047 C   0  0  0  0  0  0  0  0  0  0  0  0
    6.0860   -7.6851   -1.5725 C   0  0  0  0  0  0  0  0  0  0  0  0
    6.8994   -7.6902   -0.7502 N   0  0  0  0  0  0  0  0  0  0  0  0
    5.2589   -8.6883   -3.6184 C   0  0  0  0  0  0  0  0  0  0  0  0
    5.4145   -9.5086   -4.4180 N   0  0  0  0  0  0  0  0  0  0  0  0
    1.3090   -6.7611   -7.1622 C   0  0  0  0  0  0  0  0  0  0  0  0
    0.1103   -7.7569   -7.2080 C   0  0  0  0  0  0  0  0  0  0  0  0
   -0.5384   -7.8465   -5.8454 C   0  0  0  0  0  0  0  0  0  0  0  0
   -1.1184   -6.6675   -5.6222 C   0  0  0  0  0  0  0  0  0  0  0  0
   -0.8469   -5.8147   -6.8403 C   0  0  0  0  0  0  0  0  0  0  0  0
   -0.9209   -6.8927   -7.9068 C   0  0  0  0  0  0  0  0  0  0  0  0
    0.6696   -5.4610   -6.9220 C   0  0  0  0  0  0  0  0  0  0  0  0
   -7.3010    3.3617   -0.2907 H   0  0  0  0  0  0  0  0  0  0  0  0
   -2.7909    7.3433   -1.9996 H   0  0  0  0  0  0  0  0  0  0  0  0
   -4.3952    3.4841   -4.9272 H   0  0  0  0  0  0  0  0  0  0  0  0
   -1.9468    5.4242   -6.4973 H   0  0  0  0  0  0  0  0  0  0  0  0
   -0.9262    3.0236   -5.5397 H   0  0  0  0  0  0  0  0  0  0  0  0
    1.1185    4.1877   -6.7753 H   0  0  0  0  0  0  0  0  0  0  0  0
    1.9584    6.1585   -5.2861 H   0  0  0  0  0  0  0  0  0  0  0  0
    0.4478    6.2584   -3.1018 H   0  0  0  0  0  0  0  0  0  0  0  0
    0.6717    3.6397   -3.5054 H   0  0  0  0  0  0  0  0  0  0  0  0
   -1.0370    4.0249   -3.0582 H   0  0  0  0  0  0  0  0  0  0  0  0
   -1.1800    7.2362   -5.1292 H   0  0  0  0  0  0  0  0  0  0  0  0
   -5.9603    1.5613    3.9089 H   0  0  0  0  0  0  0  0  0  0  0  0
   -7.5826    2.9747    2.2004 H   0  0  0  0  0  0  0  0  0  0  0  0
   -6.2008    1.8946    6.4022 H   0  0  0  0  0  0  0  0  0  0  0  0
   -7.5424    2.7074    5.5121 H   0  0  0  0  0  0  0  0  0  0  0  0
   -6.1734    3.6883    6.1778 H   0  0  0  0  0  0  0  0  0  0  0  0
   -3.7329    0.6707    5.3667 H   0  0  0  0  0  0  0  0  0  0  0  0
    1.9471    3.5076    4.1529 H   0  0  0  0  0  0  0  0  0  0  0  0
    0.6662    4.7704    4.0413 H   0  0  0  0  0  0  0  0  0  0  0  0
    0.9466    2.7256    6.3353 H   0  0  0  0  0  0  0  0  0  0  0  0
    1.4609    4.4481    6.3577 H   0  0  0  0  0  0  0  0  0  0  0  0
   -0.2846    4.0477    6.2155 H   0  0  0  0  0  0  0  0  0  0  0  0
    0.2013    1.7586    1.6562 H   0  0  0  0  0  0  0  0  0  0  0  0
   -0.9218    3.1009    1.6341 H   0  0  0  0  0  0  0  0  0  0  0  0
    0.9296    4.7487    1.7471 H   0  0  0  0  0  0  0  0  0  0  0  0
    2.1332    3.3849    1.8148 H   0  0  0  0  0  0  0  0  0  0  0  0
    1.0909    3.6123    0.3717 H   0  0  0  0  0  0  0  0  0  0  0  0
   -1.9771    4.8084    3.1597 H   0  0  0  0  0  0  0  0  0  0  0  0
   -3.0027   -1.0153    4.0338 H   0  0  0  0  0  0  0  0  0  0  0  0
   -1.9395   -0.5692    2.6737 H   0  0  0  0  0  0  0  0  0  0  0  0
   -2.9037   -2.9090    2.6269 H   0  0  0  0  0  0  0  0  0  0  0  0
   -1.1293   -2.8385    2.4547 H   0  0  0  0  0  0  0  0  0  0  0  0
   -1.8787   -3.3394    4.0340 H   0  0  0  0  0  0  0  0  0  0  0  0
   -2.1223   -1.2383    6.3531 H   0  0  0  0  0  0  0  0  0  0  0  0
   -0.9144   -2.4912    5.9254 H   0  0  0  0  0  0  0  0  0  0  0  0
    0.9314   -0.9368    6.7362 H   0  0  0  0  0  0  0  0  0  0  0  0
   -0.3586    0.2052    7.2971 H   0  0  0  0  0  0  0  0  0  0  0  0
   -0.2455   -1.4420    8.0005 H   0  0  0  0  0  0  0  0  0  0  0  0
    0.6937   -3.1177    3.9307 H   0  0  0  0  0  0  0  0  0  0  0  0
    3.8822   -0.4870    0.7622 H   0  0  0  0  0  0  0  0  0  0  0  0
    2.7202    1.3276    2.7751 H   0  0  0  0  0  0  0  0  0  0  0  0
    5.5365   -1.0126    3.3509 H   0  0  0  0  0  0  0  0  0  0  0  0
    5.3978    0.5540    2.4595 H   0  0  0  0  0  0  0  0  0  0  0  0
    6.2447   -0.8405    1.6893 H   0  0  0  0  0  0  0  0  0  0  0  0
    5.2069   -2.9977   -0.2414 H   0  0  0  0  0  0  0  0  0  0  0  0
    4.5191   -6.5971    0.0897 H   0  0  0  0  0  0  0  0  0  0  0  0
    1.2074   -3.6245   -4.3362 H   0  0  0  0  0  0  0  0  0  0  0  0
    3.3282   -8.1838   -5.1770 H   0  0  0  0  0  0  0  0  0  0  0  0
    1.9656   -6.7777   -8.0589 H   0  0  0  0  0  0  0  0  0  0  0  0
    0.3246   -8.7335   -7.6909 H   0  0  0  0  0  0  0  0  0  0  0  0
   -0.6044   -8.7186   -5.2047 H   0  0  0  0  0  0  0  0  0  0  0  0
   -1.7393   -6.4152   -4.7695 H   0  0  0  0  0  0  0  0  0  0  0  0
   -1.5412   -4.9599   -6.9796 H   0  0  0  0  0  0  0  0  0  0  0  0
   -1.9253   -7.3751   -7.9812 H   0  0  0  0  0  0  0  0  0  0  0  0
   -0.5994   -6.5443   -8.9175 H   0  0  0  0  0  0  0  0  0  0  0  0
    0.9333   -4.6913   -7.6796 H   0  0  0  0  0  0  0  0  0  0  0  0
  1  2  2  3
  2  3  1  0
  3  4  2  0
  3  5  1  0
  5  6  2  0
  6  7  1  0
  7  8  2  0
  8  9  1  0
  9 10  2  0
 10 11  1  0
 11 12  2  3
 12 13  1  0
 13 14  3  0
 12 15  1  0
 15 16  3  0
  8 17  1  0
 17 18  1  0
 18 19  1  0
 19 20  2  0
 20 21  1  0
 21 22  1  0
 21 23  1  0
  1 24  1  0
 24 25  1  0
 25 26  1  0
 26 27  1  0
 27 28  2  0
 28 29  1  0
 29 30  1  0
 30 31  1  0
 29 32  1  0
 28 33  1  0
 33 34  2  0
 34 35  1  0
 35 36  2  0
 36 37  1  0
 37 38  1  0
 38 39  1  0
 37 40  1  0
 40 41  1  0
 37 42  1  0
 42 43  2  0
 36 44  1  0
 44 45  2  0
 45 46  1  0
 46 47  1  0
 47 48  1  0
 46 49  1  0
 49 50  1  0
 45 51  1  0
 51 52  2  0
 52 53  1  0
 53 54  2  0
 54 55  1  0
 55 56  1  0
 56 57  2  0
 55 58  1  0
 54 59  1  0
 59 60  2  0
 60 61  1  0
 60 62  1  0
 62 63  2  3
 63 64  1  0
 64 65  2  0
 64 66  1  0
 66 67  2  0
 67 68  1  0
 68 69  2  0
 69 70  1  0
 70 71  2  0
 71 72  1  0
 72 73  2  3
 73 74  1  0
 74 75  3  0
 73 76  1  0
 76 77  3  0
 69 78  1  0
 78 79  1  0
 79 80  1  0
 80 81  2  0
 81 82  1  0
 82 83  1  0
 82 84  1  0
 11  2  1  0
 23 17  1  0
 31 24  2  0
 42 34  1  0
 57 44  1  0
 72 63  1  0
 84 78  1  0
 10  5  1  0
 22 18  1  0
 30 26  2  0
 46 35  1  0
 56 52  1  0
 71 66  1  0
 83 79  1  0
 23  7  1  0
 43 27  1  0
 61 53  1  0
 84 68  1  0
  1 85  1  0
  6 86  1  0
  9 87  1  0
 17 88  1  0
 18 89  1  0
 19 90  1  0
 20 91  1  0
 21 92  1  0
 22 93  1  0
 22 94  1  0
 23 95  1  0
 29 96  1  0
 31 97  1  0
 32 98  1  0
 32 99  1  0
 32100  1  0
 33101  1  0
 38102  1  0
 38103  1  0
 39104  1  0
 39105  1  0
 39106  1  0
 40107  1  0
 40108  1  0
 41109  1  0
 41110  1  0
 41111  1  0
 43112  1  0
 47113  1  0
 47114  1  0
 48115  1  0
 48116  1  0
 48117  1  0
 49118  1  0
 49119  1  0
 50120  1  0
 50121  1  0
 50122  1  0
 51123  1  0
 55124  1  0
 57125  1  0
 58126  1  0
 58127  1  0
 58128  1  0
 59129  1  0
 62130  1  0
 67131  1  0
 70132  1  0
 78133  1  0
 79134  1  0
 80135  1  0
 81136  1  0
 82137  1  0
 83138  1  0
 83139  1  0
 84140  1  0
M  END

