
     RDKit          3D

127143  0  0  0  0  0  0  0  0999 V2000
    5.5645   -3.3415    2.0074 C   0  0  0  0  0  0  0  0  0  0  0  0
    5.1794   -3.1235    3.2801 C   0  0  0  0  0  0  0  0  0  0  0  0
    6.1109   -3.3500    4.3877 C   0  0  0  0  0  0  0  0  0  0  0  0
    7.2525   -3.8780    4.2960 O   0  0  0  0  0  0  0  0  0  0  0  0
    5.5165   -2.8815    5.6166 C   0  0  0  0  0  0  0  0  0  0  0  0
    6.0384   -3.0508    6.9211 C   0  0  0  0  0  0  0  0  0  0  0  0
    5.1540   -2.7116    7.9253 C   0  0  0  0  0  0  0  0  0  0  0  0
    3.8277   -2.2387    7.6704 C   0  0  0  0  0  0  0  0  0  0  0  0
    3.3153   -2.0628    6.3967 C   0  0  0  0  0  0  0  0  0  0  0  0
    4.2209   -2.3745    5.3392 C   0  0  0  0  0  0  0  0  0  0  0  0
    3.9425   -2.5031    3.8753 C   0  0  0  0  0  0  0  0  0  0  0  0
    2.7356   -2.2704    3.3015 C   0  0  0  0  0  0  0  0  0  0  0  0
    1.8107   -1.3079    3.8441 C   0  0  0  0  0  0  0  0  0  0  0  0
    1.0652   -0.5285    4.2660 N   0  0  0  0  0  0  0  0  0  0  0  0
    2.2286   -3.0298    2.1925 C   0  0  0  0  0  0  0  0  0  0  0  0
    1.7771   -3.6296    1.3114 N   0  0  0  0  0  0  0  0  0  0  0  0
    3.5296   -2.2282    9.1393 C   0  0  0  0  0  0  0  0  0  0  0  0
    2.6329   -3.3865    9.6731 C   0  0  0  0  0  0  0  0  0  0  0  0
    2.8048   -3.3884   11.1734 C   0  0  0  0  0  0  0  0  0  0  0  0
    4.0504   -3.8181   11.4120 C   0  0  0  0  0  0  0  0  0  0  0  0
    4.6749   -4.0940   10.0646 C   0  0  0  0  0  0  0  0  0  0  0  0
    3.4467   -4.6293    9.3467 C   0  0  0  0  0  0  0  0  0  0  0  0
    4.8928   -2.7010    9.4005 C   0  0  0  0  0  0  0  0  0  0  0  0
    4.8432   -2.9640    0.7908 C   0  0  0  0  0  0  0  0  0  0  0  0
    4.5120   -3.8619   -0.2322 C   0  0  0  0  0  0  0  0  0  0  0  0
    4.7819   -5.3135   -0.1931 C   0  0  0  0  0  0  0  0  0  0  0  0
    4.1015   -6.1018    0.7501 C   0  0  0  0  0  0  0  0  0  0  0  0
    4.3191   -7.4766    0.8173 C   0  0  0  0  0  0  0  0  0  0  0  0
    5.2401   -8.0803   -0.0362 C   0  0  0  0  0  0  0  0  0  0  0  0
    5.9614   -7.3079   -0.9463 C   0  0  0  0  0  0  0  0  0  0  0  0
    5.7519   -5.9194   -1.0323 C   0  0  0  0  0  0  0  0  0  0  0  0
    6.5943   -5.1222   -2.0064 C   0  0  0  0  0  0  0  0  0  0  0  0
    6.1192   -5.3127   -3.4432 C   0  0  0  0  0  0  0  0  0  0  0  0
    3.7739   -3.2242   -1.2271 C   0  0  0  0  0  0  0  0  0  0  0  0
    2.7025   -3.8377   -2.3939 S   0  0  0  0  0  0  0  0  0  0  0  0
    2.1149   -2.2835   -2.7278 C   0  0  0  0  0  0  0  0  0  0  0  0
    0.9229   -1.7904   -3.1736 C   0  0  0  0  0  0  0  0  0  0  0  0
   -0.2072   -2.4926   -3.6151 C   0  0  0  0  0  0  0  0  0  0  0  0
   -1.4587   -1.8210   -3.6575 C   0  0  0  0  0  0  0  0  0  0  0  0
   -2.5382   -2.5469   -4.0453 N   0  0  0  0  0  0  0  0  0  0  0  0
   -1.8125   -4.0139   -4.2906 S   0  0  0  0  0  0  0  0  0  0  0  0
   -0.2070   -3.8102   -3.9416 N   0  0  0  0  0  0  0  0  0  0  0  0
   -1.5014   -0.4710   -3.3124 C   0  0  0  0  0  0  0  0  0  0  0  0
   -2.5267    0.4248   -3.3484 C   0  0  0  0  0  0  0  0  0  0  0  0
   -4.1931    0.4610   -3.6584 S   0  0  0  0  0  0  0  0  0  0  0  0
   -4.2070    2.1552   -3.4518 C   0  0  0  0  0  0  0  0  0  0  0  0
   -5.2113    3.1152   -3.5122 C   0  0  0  0  0  0  0  0  0  0  0  0
   -6.6352    2.7972   -3.7117 C   0  0  0  0  0  0  0  0  0  0  0  0
   -7.2566    2.8996   -4.9798 C   0  0  0  0  0  0  0  0  0  0  0  0
   -6.4962    3.3221   -6.2170 C   0  0  0  0  0  0  0  0  0  0  0  0
   -5.8884    2.1168   -6.9246 C   0  0  0  0  0  0  0  0  0  0  0  0
   -8.6155    2.5542   -5.1009 C   0  0  0  0  0  0  0  0  0  0  0  0
   -9.3510    2.1534   -3.9825 C   0  0  0  0  0  0  0  0  0  0  0  0
   -8.7387    2.0781   -2.7312 C   0  0  0  0  0  0  0  0  0  0  0  0
   -7.3863    2.3912   -2.5969 C   0  0  0  0  0  0  0  0  0  0  0  0
   -4.7087    4.4028   -3.2496 C   0  0  0  0  0  0  0  0  0  0  0  0
   -3.0172    4.3146   -3.0149 S   0  0  0  0  0  0  0  0  0  0  0  0
   -2.9539    2.6476   -3.1834 C   0  0  0  0  0  0  0  0  0  0  0  0
   -2.0003    1.6434   -3.1008 C   0  0  0  0  0  0  0  0  0  0  0  0
   -0.6626    1.6093   -2.8747 N   0  0  0  0  0  0  0  0  0  0  0  0
   -0.3609    0.2630   -2.9352 C   0  0  0  0  0  0  0  0  0  0  0  0
    0.8624   -0.4502   -2.7385 C   0  0  0  0  0  0  0  0  0  0  0  0
    1.9431   -0.1764   -1.9239 N   0  0  0  0  0  0  0  0  0  0  0  0
    2.6753   -1.3228   -1.9454 C   0  0  0  0  0  0  0  0  0  0  0  0
    3.6087   -1.8676   -1.0598 C   0  0  0  0  0  0  0  0  0  0  0  0
    4.3177   -1.3907    0.3925 S   0  0  0  0  0  0  0  0  0  0  0  0
    2.1464    0.9153   -0.9647 C   0  0  0  0  0  0  0  0  0  0  0  0
    1.0621    0.9373    0.1088 C   0  0  0  0  0  0  0  0  0  0  0  0
    0.2090    2.7911   -2.9306 C   0  0  0  0  0  0  0  0  0  0  0  0
    1.2889    2.6542   -4.0045 C   0  0  0  0  0  0  0  0  0  0  0  0
   -5.5043    5.6422   -3.3690 C   0  0  0  0  0  0  0  0  0  0  0  0
   -5.3520    6.7468   -2.6162 C   0  0  0  0  0  0  0  0  0  0  0  0
   -4.5578    6.8549   -1.3659 C   0  0  0  0  0  0  0  0  0  0  0  0
   -3.9435    5.9337   -0.7694 O   0  0  0  0  0  0  0  0  0  0  0  0
   -4.7561    8.1822   -0.8404 C   0  0  0  0  0  0  0  0  0  0  0  0
   -4.3156    8.8626    0.2909 C   0  0  0  0  0  0  0  0  0  0  0  0
   -4.8624   10.1487    0.3483 C   0  0  0  0  0  0  0  0  0  0  0  0
   -5.8824   10.3930   -0.9922 S   0  0  0  0  0  0  0  0  0  0  0  0
   -5.6106    8.8621   -1.6345 C   0  0  0  0  0  0  0  0  0  0  0  0
   -6.0631    8.0655   -2.7870 C   0  0  0  0  0  0  0  0  0  0  0  0
   -6.8999    8.4980   -3.7588 C   0  0  0  0  0  0  0  0  0  0  0  0
   -7.4761    9.8187   -3.7106 C   0  0  0  0  0  0  0  0  0  0  0  0
   -7.9418   10.8781   -3.6759 N   0  0  0  0  0  0  0  0  0  0  0  0
   -7.2523    7.7118   -4.9119 C   0  0  0  0  0  0  0  0  0  0  0  0
   -7.5444    7.0949   -5.8479 N   0  0  0  0  0  0  0  0  0  0  0  0
    6.5003   -3.8586    1.8352 H   0  0  0  0  0  0  0  0  0  0  0  0
    7.0086   -3.4821    7.1224 H   0  0  0  0  0  0  0  0  0  0  0  0
    2.2795   -1.7980    6.2662 H   0  0  0  0  0  0  0  0  0  0  0  0
    3.3045   -1.2160    9.5439 H   0  0  0  0  0  0  0  0  0  0  0  0
    1.5798   -3.3864    9.3175 H   0  0  0  0  0  0  0  0  0  0  0  0
    2.0454   -3.1933   11.9230 H   0  0  0  0  0  0  0  0  0  0  0  0
    4.4746   -4.0290   12.3888 H   0  0  0  0  0  0  0  0  0  0  0  0
    5.5595   -4.7655   10.0794 H   0  0  0  0  0  0  0  0  0  0  0  0
    3.5932   -4.8046    8.2572 H   0  0  0  0  0  0  0  0  0  0  0  0
    3.0340   -5.5615    9.8062 H   0  0  0  0  0  0  0  0  0  0  0  0
    5.5336   -1.9879    9.9653 H   0  0  0  0  0  0  0  0  0  0  0  0
    3.3928   -5.6552    1.4310 H   0  0  0  0  0  0  0  0  0  0  0  0
    3.7806   -8.0756    1.5417 H   0  0  0  0  0  0  0  0  0  0  0  0
    5.4157   -9.1484    0.0246 H   0  0  0  0  0  0  0  0  0  0  0  0
    6.6901   -7.7924   -1.5852 H   0  0  0  0  0  0  0  0  0  0  0  0
    6.6000   -4.0425   -1.7586 H   0  0  0  0  0  0  0  0  0  0  0  0
    7.6489   -5.4619   -1.9306 H   0  0  0  0  0  0  0  0  0  0  0  0
    6.7387   -4.6897   -4.1246 H   0  0  0  0  0  0  0  0  0  0  0  0
    6.2150   -6.3789   -3.7445 H   0  0  0  0  0  0  0  0  0  0  0  0
    5.0596   -5.0023   -3.5459 H   0  0  0  0  0  0  0  0  0  0  0  0
   -7.1822    3.8458   -6.9176 H   0  0  0  0  0  0  0  0  0  0  0  0
   -5.6901    4.0426   -5.9658 H   0  0  0  0  0  0  0  0  0  0  0  0
   -5.1244    1.6331   -6.2802 H   0  0  0  0  0  0  0  0  0  0  0  0
   -5.3962    2.4471   -7.8644 H   0  0  0  0  0  0  0  0  0  0  0  0
   -6.6786    1.3769   -7.1793 H   0  0  0  0  0  0  0  0  0  0  0  0
   -9.1077    2.6034   -6.0625 H   0  0  0  0  0  0  0  0  0  0  0  0
  -10.3982    1.8989   -4.0870 H   0  0  0  0  0  0  0  0  0  0  0  0
   -9.3150    1.7750   -1.8636 H   0  0  0  0  0  0  0  0  0  0  0  0
   -6.9219    2.3235   -1.6181 H   0  0  0  0  0  0  0  0  0  0  0  0
    2.2471    1.8727   -1.4897 H   0  0  0  0  0  0  0  0  0  0  0  0
    3.1296    0.8225   -0.4679 H   0  0  0  0  0  0  0  0  0  0  0  0
    1.1277    0.0250    0.7401 H   0  0  0  0  0  0  0  0  0  0  0  0
    0.0587    0.9951   -0.3490 H   0  0  0  0  0  0  0  0  0  0  0  0
    1.2078    1.8390    0.7450 H   0  0  0  0  0  0  0  0  0  0  0  0
    0.5969    3.0403   -1.9297 H   0  0  0  0  0  0  0  0  0  0  0  0
   -0.3805    3.6853   -3.2099 H   0  0  0  0  0  0  0  0  0  0  0  0
    1.9114    3.5730   -4.0223 H   0  0  0  0  0  0  0  0  0  0  0  0
    1.9550    1.7893   -3.8184 H   0  0  0  0  0  0  0  0  0  0  0  0
    0.8137    2.5265   -5.0027 H   0  0  0  0  0  0  0  0  0  0  0  0
   -6.2722    5.6088   -4.1168 H   0  0  0  0  0  0  0  0  0  0  0  0
   -3.6424    8.4490    1.0307 H   0  0  0  0  0  0  0  0  0  0  0  0
   -4.6724   10.8707    1.1316 H   0  0  0  0  0  0  0  0  0  0  0  0
  1  2  2  3
  2  3  1  0
  3  4  2  0
  3  5  1  0
  5  6  2  0
  6  7  1  0
  7  8  2  0
  8  9  1  0
  9 10  2  0
 10 11  1  0
 11 12  2  3
 12 13  1  0
 13 14  3  0
 12 15  1  0
 15 16  3  0
  8 17  1  0
 17 18  1  0
 18 19  1  0
 19 20  2  0
 20 21  1  0
 21 22  1  0
 21 23  1  0
  1 24  1  0
 24 25  2  0
 25 26  1  0
 26 27  2  0
 27 28  1  0
 28 29  2  0
 29 30  1  0
 30 31  2  0
 31 32  1  0
 32 33  1  0
 25 34  1  0
 34 35  1  0
 35 36  1  0
 36 37  1  0
 37 38  1  0
 38 39  1  0
 39 40  2  0
 40 41  1  0
 41 42  1  0
 39 43  1  0
 43 44  1  0
 44 45  1  0
 45 46  1  0
 46 47  1  0
 47 48  1  0
 48 49  2  0
 49 50  1  0
 50 51  1  0
 49 52  1  0
 52 53  2  0
 53 54  1  0
 54 55  2  0
 47 56  2  0
 56 57  1  0
 57 58  1  0
 58 59  1  0
 59 60  1  0
 60 61  1  0
 61 62  1  0
 62 63  1  0
 63 64  1  0
 64 65  1  0
 65 66  1  0
 63 67  1  0
 67 68  1  0
 60 69  1  0
 69 70  1  0
 56 71  1  0
 71 72  2  3
 72 73  1  0
 73 74  2  0
 73 75  1  0
 75 76  1  0
 76 77  2  0
 77 78  1  0
 78 79  1  0
 79 80  1  0
 80 81  2  3
 81 82  1  0
 82 83  3  0
 81 84  1  0
 84 85  3  0
 11  2  1  0
 23 17  1  0
 66 24  1  0
 80 72  1  0
 10  5  1  0
 22 18  1  0
 31 26  1  0
 65 34  2  0
 79 75  2  0
 23  7  1  0
 64 36  2  0
 62 37  2  0
 42 38  2  0
 61 43  2  0
 59 44  2  0
 58 46  2  0
 55 48  1  0
  1 86  1  0
  6 87  1  0
  9 88  1  0
 17 89  1  0
 18 90  1  0
 19 91  1  0
 20 92  1  0
 21 93  1  0
 22 94  1  0
 22 95  1  0
 23 96  1  0
 27 97  1  0
 28 98  1  0
 29 99  1  0
 30100  1  0
 32101  1  0
 32102  1  0
 33103  1  0
 33104  1  0
 33105  1  0
 50106  1  0
 50107  1  0
 51108  1  0
 51109  1  0
 51110  1  0
 52111  1  0
 53112  1  0
 54113  1  0
 55114  1  0
 67115  1  0
 67116  1  0
 68117  1  0
 68118  1  0
 68119  1  0
 69120  1  0
 69121  1  0
 70122  1  0
 70123  1  0
 70124  1  0
 71125  1  0
 76126  1  0
 77127  1  0
M  END

