
     RDKit          3D

128143  0  0  0  0  0  0  0  0999 V2000
   -0.7882    3.6703    6.1496 C   0  0  0  0  0  0  0  0  0  0  0  0
   -0.6940    4.9413    5.7080 C   0  0  0  0  0  0  0  0  0  0  0  0
   -0.7213    5.3473    4.2952 C   0  0  0  0  0  0  0  0  0  0  0  0
   -0.4907    4.6071    3.3014 O   0  0  0  0  0  0  0  0  0  0  0  0
   -1.0652    6.7459    4.2215 C   0  0  0  0  0  0  0  0  0  0  0  0
   -1.3720    7.4806    3.0537 C   0  0  0  0  0  0  0  0  0  0  0  0
   -1.8379    8.7561    3.3054 C   0  0  0  0  0  0  0  0  0  0  0  0
   -2.0062    9.2832    4.6259 C   0  0  0  0  0  0  0  0  0  0  0  0
   -1.7000    8.5682    5.7729 C   0  0  0  0  0  0  0  0  0  0  0  0
   -1.1904    7.2605    5.5375 C   0  0  0  0  0  0  0  0  0  0  0  0
   -0.8321    6.1914    6.5153 C   0  0  0  0  0  0  0  0  0  0  0  0
   -0.4874    6.3658    7.8158 C   0  0  0  0  0  0  0  0  0  0  0  0
    0.0604    5.3033    8.6164 C   0  0  0  0  0  0  0  0  0  0  0  0
    0.5039    4.4548    9.2676 N   0  0  0  0  0  0  0  0  0  0  0  0
   -0.5075    7.6575    8.4518 C   0  0  0  0  0  0  0  0  0  0  0  0
   -0.5114    8.6919    8.9722 N   0  0  0  0  0  0  0  0  0  0  0  0
   -2.5778   10.5526    4.0647 C   0  0  0  0  0  0  0  0  0  0  0  0
   -4.1199   10.7667    4.1692 C   0  0  0  0  0  0  0  0  0  0  0  0
   -4.8309    9.4326    4.1391 C   0  0  0  0  0  0  0  0  0  0  0  0
   -4.6690    8.9438    2.9094 C   0  0  0  0  0  0  0  0  0  0  0  0
   -3.8512    9.9590    2.1443 C   0  0  0  0  0  0  0  0  0  0  0  0
   -4.4159   11.2291    2.7535 C   0  0  0  0  0  0  0  0  0  0  0  0
   -2.3993   10.0137    2.7117 C   0  0  0  0  0  0  0  0  0  0  0  0
   -0.9435    2.5448    5.2180 C   0  0  0  0  0  0  0  0  0  0  0  0
   -2.1909    2.3541    4.5768 C   0  0  0  0  0  0  0  0  0  0  0  0
   -2.3271    1.4327    3.5279 C   0  0  0  0  0  0  0  0  0  0  0  0
   -1.1965    0.7250    3.1344 C   0  0  0  0  0  0  0  0  0  0  0  0
   -0.9415   -0.1607    2.1109 C   0  0  0  0  0  0  0  0  0  0  0  0
    0.3223   -0.5720    2.2522 C   0  0  0  0  0  0  0  0  0  0  0  0
    0.9699    0.0199    3.2814 N   0  0  0  0  0  0  0  0  0  0  0  0
    0.0201    0.8433    3.8101 C   0  0  0  0  0  0  0  0  0  0  0  0
    0.1680    1.7533    4.8639 C   0  0  0  0  0  0  0  0  0  0  0  0
    2.3445   -0.1782    3.7344 C   0  0  0  0  0  0  0  0  0  0  0  0
    2.3931   -1.2051    4.8590 C   0  0  0  0  0  0  0  0  0  0  0  0
    0.4962   -1.6505    1.4246 C   0  0  0  0  0  0  0  0  0  0  0  0
    1.4567   -2.6578    1.3413 C   0  0  0  0  0  0  0  0  0  0  0  0
    1.2614   -3.7402    0.5300 C   0  0  0  0  0  0  0  0  0  0  0  0
    2.2779   -4.5948    0.7129 N   0  0  0  0  0  0  0  0  0  0  0  0
    3.0577   -4.0119    1.6187 N   0  0  0  0  0  0  0  0  0  0  0  0
    4.2289   -4.6589    2.1955 C   0  0  0  0  0  0  0  0  0  0  0  0
    3.8001   -5.6190    3.3009 C   0  0  0  0  0  0  0  0  0  0  0  0
    2.5836   -2.8425    2.0429 N   0  0  0  0  0  0  0  0  0  0  0  0
    0.1173   -3.8433   -0.2722 C   0  0  0  0  0  0  0  0  0  0  0  0
   -0.8627   -2.8242   -0.2398 C   0  0  0  0  0  0  0  0  0  0  0  0
   -0.7192   -1.7617    0.7100 C   0  0  0  0  0  0  0  0  0  0  0  0
   -1.6496   -0.8684    1.1965 N   0  0  0  0  0  0  0  0  0  0  0  0
   -3.1107   -0.9973    1.1942 C   0  0  0  0  0  0  0  0  0  0  0  0
   -3.7904    0.1852    0.4872 C   0  0  0  0  0  0  0  0  0  0  0  0
   -1.6588   -2.8923   -1.3584 N   0  0  0  0  0  0  0  0  0  0  0  0
   -2.4120   -1.8057   -1.9871 C   0  0  0  0  0  0  0  0  0  0  0  0
   -3.8857   -2.1875   -2.1549 C   0  0  0  0  0  0  0  0  0  0  0  0
   -1.2093   -3.9985   -2.0089 C   0  0  0  0  0  0  0  0  0  0  0  0
   -0.1835   -4.6153   -1.3750 C   0  0  0  0  0  0  0  0  0  0  0  0
    0.5654   -5.3753   -2.2137 N   0  0  0  0  0  0  0  0  0  0  0  0
    1.7956   -6.1157   -1.9297 C   0  0  0  0  0  0  0  0  0  0  0  0
    3.0259   -5.2862   -2.2839 C   0  0  0  0  0  0  0  0  0  0  0  0
   -0.0249   -5.2065   -3.4276 C   0  0  0  0  0  0  0  0  0  0  0  0
   -1.1082   -4.3367   -3.3521 C   0  0  0  0  0  0  0  0  0  0  0  0
   -1.7599   -3.8870   -4.5036 C   0  0  0  0  0  0  0  0  0  0  0  0
   -1.3140   -4.3620   -5.7459 C   0  0  0  0  0  0  0  0  0  0  0  0
   -0.2079   -5.2360   -5.8360 C   0  0  0  0  0  0  0  0  0  0  0  0
    0.4334   -5.6823   -4.6625 C   0  0  0  0  0  0  0  0  0  0  0  0
    0.2151   -5.7178   -7.1630 C   0  0  0  0  0  0  0  0  0  0  0  0
    1.4694   -5.6166   -7.6451 C   0  0  0  0  0  0  0  0  0  0  0  0
    2.5464   -4.7883   -7.0819 C   0  0  0  0  0  0  0  0  0  0  0  0
    2.5570   -4.2308   -5.9543 O   0  0  0  0  0  0  0  0  0  0  0  0
    3.5684   -4.6193   -8.0940 C   0  0  0  0  0  0  0  0  0  0  0  0
    4.7464   -3.8629   -8.0126 C   0  0  0  0  0  0  0  0  0  0  0  0
    5.5477   -3.7966   -9.1580 C   0  0  0  0  0  0  0  0  0  0  0  0
    6.7566   -3.1046   -9.2816 C   0  0  0  0  0  0  0  0  0  0  0  0
    7.3132   -3.2158  -10.5552 C   0  0  0  0  0  0  0  0  0  0  0  0
    6.3045   -4.1690  -11.5209 S   0  0  0  0  0  0  0  0  0  0  0  0
    5.1596   -4.4480  -10.3260 C   0  0  0  0  0  0  0  0  0  0  0  0
    3.9854   -5.2017  -10.4145 C   0  0  0  0  0  0  0  0  0  0  0  0
    3.1924   -5.2979   -9.2531 C   0  0  0  0  0  0  0  0  0  0  0  0
    1.9242   -6.0402   -9.0042 C   0  0  0  0  0  0  0  0  0  0  0  0
    1.4231   -7.0706   -9.7337 C   0  0  0  0  0  0  0  0  0  0  0  0
    0.4211   -7.9579   -9.2008 C   0  0  0  0  0  0  0  0  0  0  0  0
   -0.3675   -8.6800   -8.7648 N   0  0  0  0  0  0  0  0  0  0  0  0
    1.9587   -7.4541  -11.0128 C   0  0  0  0  0  0  0  0  0  0  0  0
    2.3791   -7.7779  -12.0426 N   0  0  0  0  0  0  0  0  0  0  0  0
   -0.9005    3.4475    7.1968 H   0  0  0  0  0  0  0  0  0  0  0  0
   -1.3098    7.0698    2.0548 H   0  0  0  0  0  0  0  0  0  0  0  0
   -1.9072    8.9776    6.7452 H   0  0  0  0  0  0  0  0  0  0  0  0
   -1.9617   11.4564    4.2714 H   0  0  0  0  0  0  0  0  0  0  0  0
   -4.4469   11.4544    4.9761 H   0  0  0  0  0  0  0  0  0  0  0  0
   -5.4243    8.9850    4.9299 H   0  0  0  0  0  0  0  0  0  0  0  0
   -5.1167    8.0343    2.5242 H   0  0  0  0  0  0  0  0  0  0  0  0
   -3.9285    9.8850    1.0374 H   0  0  0  0  0  0  0  0  0  0  0  0
   -3.8575   12.1510    2.4600 H   0  0  0  0  0  0  0  0  0  0  0  0
   -5.5050   11.3735    2.5542 H   0  0  0  0  0  0  0  0  0  0  0  0
   -1.6744   10.5876    2.0908 H   0  0  0  0  0  0  0  0  0  0  0  0
   -3.0436    2.9620    4.8572 H   0  0  0  0  0  0  0  0  0  0  0  0
   -3.2754    1.3160    3.0400 H   0  0  0  0  0  0  0  0  0  0  0  0
    1.1189    1.8901    5.3575 H   0  0  0  0  0  0  0  0  0  0  0  0
    2.7685    0.7816    4.0985 H   0  0  0  0  0  0  0  0  0  0  0  0
    2.9814   -0.5006    2.8871 H   0  0  0  0  0  0  0  0  0  0  0  0
    1.8985   -2.1507    4.5466 H   0  0  0  0  0  0  0  0  0  0  0  0
    3.4500   -1.4227    5.1223 H   0  0  0  0  0  0  0  0  0  0  0  0
    1.8742   -0.8117    5.7564 H   0  0  0  0  0  0  0  0  0  0  0  0
    4.7695   -5.2202    1.4060 H   0  0  0  0  0  0  0  0  0  0  0  0
    4.9157   -3.8912    2.6180 H   0  0  0  0  0  0  0  0  0  0  0  0
    3.0997   -6.3799    2.8924 H   0  0  0  0  0  0  0  0  0  0  0  0
    3.2986   -5.0588    4.1183 H   0  0  0  0  0  0  0  0  0  0  0  0
    4.6907   -6.1359    3.7152 H   0  0  0  0  0  0  0  0  0  0  0  0
   -3.4770   -1.0587    2.2422 H   0  0  0  0  0  0  0  0  0  0  0  0
   -3.4022   -1.9568    0.7292 H   0  0  0  0  0  0  0  0  0  0  0  0
   -4.5428   -0.1827   -0.2410 H   0  0  0  0  0  0  0  0  0  0  0  0
   -4.3348    0.8279    1.2076 H   0  0  0  0  0  0  0  0  0  0  0  0
   -3.0488    0.8151   -0.0508 H   0  0  0  0  0  0  0  0  0  0  0  0
   -2.3171   -0.8775   -1.4058 H   0  0  0  0  0  0  0  0  0  0  0  0
   -1.9701   -1.5602   -2.9729 H   0  0  0  0  0  0  0  0  0  0  0  0
   -4.3490   -2.4374   -1.1815 H   0  0  0  0  0  0  0  0  0  0  0  0
   -4.0008   -3.0809   -2.8030 H   0  0  0  0  0  0  0  0  0  0  0  0
   -4.4454   -1.3405   -2.6072 H   0  0  0  0  0  0  0  0  0  0  0  0
    1.8104   -7.0601   -2.5164 H   0  0  0  0  0  0  0  0  0  0  0  0
    1.8159   -6.4259   -0.8647 H   0  0  0  0  0  0  0  0  0  0  0  0
    2.9561   -4.2690   -1.8470 H   0  0  0  0  0  0  0  0  0  0  0  0
    3.9350   -5.7849   -1.8913 H   0  0  0  0  0  0  0  0  0  0  0  0
    3.1210   -5.1948   -3.3846 H   0  0  0  0  0  0  0  0  0  0  0  0
   -2.5726   -3.1814   -4.4756 H   0  0  0  0  0  0  0  0  0  0  0  0
   -1.8176   -4.0285   -6.6453 H   0  0  0  0  0  0  0  0  0  0  0  0
    1.2757   -6.3563   -4.7219 H   0  0  0  0  0  0  0  0  0  0  0  0
   -0.5715   -6.0781   -7.8082 H   0  0  0  0  0  0  0  0  0  0  0  0
    5.0180   -3.3450   -7.1010 H   0  0  0  0  0  0  0  0  0  0  0  0
    7.2151   -2.5431   -8.4798 H   0  0  0  0  0  0  0  0  0  0  0  0
    8.2448   -2.7655  -10.8732 H   0  0  0  0  0  0  0  0  0  0  0  0
    3.7179   -5.6541  -11.3541 H   0  0  0  0  0  0  0  0  0  0  0  0
  1  2  2  3
  2  3  1  0
  3  4  2  0
  3  5  1  0
  5  6  2  0
  6  7  1  0
  7  8  2  0
  8  9  1  0
  9 10  2  0
 10 11  1  0
 11 12  2  3
 12 13  1  0
 13 14  3  0
 12 15  1  0
 15 16  3  0
  8 17  1  0
 17 18  1  0
 18 19  1  0
 19 20  2  0
 20 21  1  0
 21 22  1  0
 21 23  1  0
  1 24  1  0
 24 25  2  0
 25 26  1  0
 26 27  2  0
 27 28  1  0
 28 29  2  0
 29 30  1  0
 30 31  1  0
 31 32  2  0
 30 33  1  0
 33 34  1  0
 29 35  1  0
 35 36  1  0
 36 37  1  0
 37 38  2  0
 38 39  1  0
 39 40  1  0
 40 41  1  0
 39 42  1  0
 37 43  1  0
 43 44  2  0
 44 45  1  0
 45 46  1  0
 46 47  1  0
 47 48  1  0
 44 49  1  0
 49 50  1  0
 50 51  1  0
 49 52  1  0
 52 53  2  0
 53 54  1  0
 54 55  1  0
 55 56  1  0
 54 57  1  0
 57 58  2  0
 58 59  1  0
 59 60  2  0
 60 61  1  0
 61 62  2  0
 61 63  1  0
 63 64  2  3
 64 65  1  0
 65 66  2  0
 65 67  1  0
 67 68  2  0
 68 69  1  0
 69 70  1  0
 70 71  2  0
 71 72  1  0
 72 73  1  0
 73 74  1  0
 74 75  2  0
 75 76  1  0
 76 77  2  3
 77 78  1  0
 78 79  3  0
 77 80  1  0
 80 81  3  0
 11  2  1  0
 23 17  1  0
 32 24  1  0
 45 35  2  0
 58 52  1  0
 76 64  1  0
 10  5  1  0
 22 18  1  0
 31 27  1  0
 42 36  2  0
 53 43  1  0
 62 57  1  0
 75 67  1  0
 23  7  1  0
 46 28  1  0
 73 69  2  0
  1 82  1  0
  6 83  1  0
  9 84  1  0
 17 85  1  0
 18 86  1  0
 19 87  1  0
 20 88  1  0
 21 89  1  0
 22 90  1  0
 22 91  1  0
 23 92  1  0
 25 93  1  0
 26 94  1  0
 32 95  1  0
 33 96  1  0
 33 97  1  0
 34 98  1  0
 34 99  1  0
 34100  1  0
 40101  1  0
 40102  1  0
 41103  1  0
 41104  1  0
 41105  1  0
 47106  1  0
 47107  1  0
 48108  1  0
 48109  1  0
 48110  1  0
 50111  1  0
 50112  1  0
 51113  1  0
 51114  1  0
 51115  1  0
 55116  1  0
 55117  1  0
 56118  1  0
 56119  1  0
 56120  1  0
 59121  1  0
 60122  1  0
 62123  1  0
 63124  1  0
 68125  1  0
 70126  1  0
 71127  1  0
 74128  1  0
M  END

