
     RDKit          3D

164184  0  0  0  0  0  0  0  0999 V2000
   -7.9585   -0.7641   -3.6138 C   0  0  0  0  0  0  0  0  0  0  0  0
   -7.6351   -1.8552   -2.9554 C   0  0  0  0  0  0  0  0  0  0  0  0
   -6.5687   -2.0096   -2.0251 C   0  0  0  0  0  0  0  0  0  0  0  0
   -6.0950   -1.0787   -1.2750 O   0  0  0  0  0  0  0  0  0  0  0  0
   -6.0712   -3.3198   -1.9925 C   0  0  0  0  0  0  0  0  0  0  0  0
   -5.1174   -3.8776   -1.1170 C   0  0  0  0  0  0  0  0  0  0  0  0
   -4.9547   -5.2413   -1.0976 C   0  0  0  0  0  0  0  0  0  0  0  0
   -5.7410   -5.9378   -1.9283 C   0  0  0  0  0  0  0  0  0  0  0  0
   -6.6419   -5.4818   -2.8156 C   0  0  0  0  0  0  0  0  0  0  0  0
   -6.8411   -4.0839   -2.8941 C   0  0  0  0  0  0  0  0  0  0  0  0
   -7.7977   -3.3318   -3.5337 C   0  0  0  0  0  0  0  0  0  0  0  0
   -8.7741   -3.4134   -4.4145 C   0  0  0  0  0  0  0  0  0  0  0  0
   -9.0094   -4.7173   -5.1351 C   0  0  0  0  0  0  0  0  0  0  0  0
   -9.1490   -5.5516   -5.5890 N   0  0  0  0  0  0  0  0  0  0  0  0
   -9.7283   -2.4270   -4.4623 C   0  0  0  0  0  0  0  0  0  0  0  0
  -10.6282   -1.4831   -4.4891 N   0  0  0  0  0  0  0  0  0  0  0  0
   -5.4743   -7.1661   -1.0232 C   0  0  0  0  0  0  0  0  0  0  0  0
   -6.2854   -6.9860    0.3200 C   0  0  0  0  0  0  0  0  0  0  0  0
   -6.2729   -5.5646    0.7747 C   0  0  0  0  0  0  0  0  0  0  0  0
   -5.0781   -5.2840    1.3133 C   0  0  0  0  0  0  0  0  0  0  0  0
   -4.2141   -6.4537    0.9183 C   0  0  0  0  0  0  0  0  0  0  0  0
   -5.2415   -7.5290    1.3058 C   0  0  0  0  0  0  0  0  0  0  0  0
   -4.2310   -6.4643   -0.5560 C   0  0  0  0  0  0  0  0  0  0  0  0
   -6.9923    0.3052   -3.2476 C   0  0  0  0  0  0  0  0  0  0  0  0
   -5.3504   -0.1416   -3.8157 S   0  0  0  0  0  0  0  0  0  0  0  0
   -4.5260    1.1348   -3.0160 C   0  0  0  0  0  0  0  0  0  0  0  0
   -3.2262    1.6161   -2.7063 C   0  0  0  0  0  0  0  0  0  0  0  0
   -3.2397    2.6711   -1.8997 C   0  0  0  0  0  0  0  0  0  0  0  0
   -4.7001    2.9368   -1.6590 C   0  0  0  0  0  0  0  0  0  0  0  0
   -5.4757    1.8057   -2.4382 C   0  0  0  0  0  0  0  0  0  0  0  0
   -6.7802    1.3786   -2.5412 C   0  0  0  0  0  0  0  0  0  0  0  0
   -5.2625    4.1910   -2.1206 C   0  0  0  0  0  0  0  0  0  0  0  0
   -5.4441    4.3391   -3.5433 C   0  0  0  0  0  0  0  0  0  0  0  0
   -6.2820    5.2851   -4.0132 C   0  0  0  0  0  0  0  0  0  0  0  0
   -7.0323    6.1636   -3.1959 C   0  0  0  0  0  0  0  0  0  0  0  0
   -8.1149    6.9619   -3.7350 C   0  0  0  0  0  0  0  0  0  0  0  0
   -9.3714    6.0456   -3.8125 C   0  0  0  0  0  0  0  0  0  0  0  0
   -6.8389    6.0381   -1.7954 C   0  0  0  0  0  0  0  0  0  0  0  0
   -5.9779    5.0934   -1.3318 C   0  0  0  0  0  0  0  0  0  0  0  0
   -5.1514    2.7038   -0.2555 C   0  0  0  0  0  0  0  0  0  0  0  0
   -6.4542    2.9269    0.1033 C   0  0  0  0  0  0  0  0  0  0  0  0
   -6.9974    2.7124    1.3616 C   0  0  0  0  0  0  0  0  0  0  0  0
   -6.0873    2.2364    2.2828 C   0  0  0  0  0  0  0  0  0  0  0  0
   -6.6264    1.9081    3.5969 C   0  0  0  0  0  0  0  0  0  0  0  0
   -6.7841    0.4138    3.7663 C   0  0  0  0  0  0  0  0  0  0  0  0
   -4.7975    2.0013    1.9564 C   0  0  0  0  0  0  0  0  0  0  0  0
   -4.2676    2.2105    0.7026 C   0  0  0  0  0  0  0  0  0  0  0  0
   -1.9999    3.1482   -1.4516 C   0  0  0  0  0  0  0  0  0  0  0  0
   -1.7946    4.2510   -0.4587 C   0  0  0  0  0  0  0  0  0  0  0  0
   -0.4905    4.3836   -0.1316 C   0  0  0  0  0  0  0  0  0  0  0  0
    0.2137    5.3090    1.5578 Se  0  0  0  0  0  2  0  0  0  0  0  0
    1.9170    4.5293    1.2516 C   0  0  0  0  0  0  0  0  0  0  0  0
    3.1905    4.2356    1.9890 C   0  0  0  0  0  0  0  0  0  0  0  0
    3.8812    3.3497    1.2969 C   0  0  0  0  0  0  0  0  0  0  0  0
    3.1796    3.1194   -0.0910 C   0  0  0  0  0  0  0  0  0  0  0  0
    3.9257    3.3459   -1.2217 C   0  0  0  0  0  0  0  0  0  0  0  0
    5.0104    2.5112   -1.5943 C   0  0  0  0  0  0  0  0  0  0  0  0
    5.7238    2.7555   -2.7444 C   0  0  0  0  0  0  0  0  0  0  0  0
    5.4590    3.7980   -3.6120 C   0  0  0  0  0  0  0  0  0  0  0  0
    6.3398    3.9529   -4.7722 C   0  0  0  0  0  0  0  0  0  0  0  0
    7.5338    4.8950   -4.4724 C   0  0  0  0  0  0  0  0  0  0  0  0
    4.4300    4.5908   -3.2748 C   0  0  0  0  0  0  0  0  0  0  0  0
    3.6721    4.3958   -2.1212 C   0  0  0  0  0  0  0  0  0  0  0  0
    2.8172    1.6142   -0.0026 C   0  0  0  0  0  0  0  0  0  0  0  0
    2.2986    1.1680    1.2112 C   0  0  0  0  0  0  0  0  0  0  0  0
    1.8430   -0.0792    1.3965 C   0  0  0  0  0  0  0  0  0  0  0  0
    1.8709   -1.0473    0.3565 C   0  0  0  0  0  0  0  0  0  0  0  0
    1.3076   -2.3816    0.5723 C   0  0  0  0  0  0  0  0  0  0  0  0
   -0.2204   -2.3070    0.5137 C   0  0  0  0  0  0  0  0  0  0  0  0
    2.4117   -0.5668   -0.8310 C   0  0  0  0  0  0  0  0  0  0  0  0
    2.8604    0.7457   -0.9942 C   0  0  0  0  0  0  0  0  0  0  0  0
    1.8247    3.8301    0.1581 C   0  0  0  0  0  0  0  0  0  0  0  0
    0.5933    3.8341   -0.4292 C   0  0  0  0  0  0  0  0  0  0  0  0
    0.3922    2.7398   -1.4496 C   0  0  0  0  0  0  0  0  0  0  0  0
   -0.8755    2.6678   -1.6988 C   0  0  0  0  0  0  0  0  0  0  0  0
   -1.3321    1.0225   -3.0196 Se  0  0  0  0  0  2  0  0  0  0  0  0
    4.9205    2.7106    1.9001 C   0  0  0  0  0  0  0  0  0  0  0  0
    5.1578    3.0217    3.2168 C   0  0  0  0  0  0  0  0  0  0  0  0
    3.9154    4.2490    3.5076 S   0  0  0  0  0  0  0  0  0  0  0  0
    5.7953    2.2669    4.2720 C   0  0  0  0  0  0  0  0  0  0  0  0
    6.6467    1.2699    4.2020 C   0  0  0  0  0  0  0  0  0  0  0  0
    7.2656    0.6264    3.1034 C   0  0  0  0  0  0  0  0  0  0  0  0
    7.3712    0.9788    1.8751 O   0  0  0  0  0  0  0  0  0  0  0  0
    7.8485   -0.6386    3.5231 C   0  0  0  0  0  0  0  0  0  0  0  0
    8.4719   -1.6719    2.7650 C   0  0  0  0  0  0  0  0  0  0  0  0
    8.8713   -2.8268    3.4504 C   0  0  0  0  0  0  0  0  0  0  0  0
    8.6808   -2.9576    4.7715 C   0  0  0  0  0  0  0  0  0  0  0  0
    8.0727   -1.9363    5.5362 C   0  0  0  0  0  0  0  0  0  0  0  0
    7.6517   -0.7912    4.8096 C   0  0  0  0  0  0  0  0  0  0  0  0
    6.8047    0.4745    5.3949 C   0  0  0  0  0  0  0  0  0  0  0  0
    6.5712    0.2915    6.5543 C   0  0  0  0  0  0  0  0  0  0  0  0
    5.7638    1.1287    7.4763 C   0  0  0  0  0  0  0  0  0  0  0  0
    5.2318    1.6957    8.1056 N   0  0  0  0  0  0  0  0  0  0  0  0
    6.3847   -1.2229    7.1987 C   0  0  0  0  0  0  0  0  0  0  0  0
    6.2642   -2.1175    7.5655 N   0  0  0  0  0  0  0  0  0  0  0  0
    9.2128   -4.3354    4.7253 C   0  0  0  0  0  0  0  0  0  0  0  0
    8.1046   -5.3561    4.7980 C   0  0  0  0  0  0  0  0  0  0  0  0
    8.6131   -6.6413    4.3162 C   0  0  0  0  0  0  0  0  0  0  0  0
    8.9356   -6.5160    3.0046 C   0  0  0  0  0  0  0  0  0  0  0  0
    8.5248   -5.1576    2.6089 C   0  0  0  0  0  0  0  0  0  0  0  0
    7.3219   -4.9846    3.5730 C   0  0  0  0  0  0  0  0  0  0  0  0
    9.4615   -4.1896    3.3084 C   0  0  0  0  0  0  0  0  0  0  0  0
   -8.6557   -0.5043   -4.3027 H   0  0  0  0  0  0  0  0  0  0  0  0
   -4.5949   -3.2240   -0.4753 H   0  0  0  0  0  0  0  0  0  0  0  0
   -7.2307   -6.1010   -3.4301 H   0  0  0  0  0  0  0  0  0  0  0  0
   -5.5398   -8.0718   -1.4982 H   0  0  0  0  0  0  0  0  0  0  0  0
   -7.2140   -7.4825    0.3266 H   0  0  0  0  0  0  0  0  0  0  0  0
   -7.1474   -4.8938    0.6879 H   0  0  0  0  0  0  0  0  0  0  0  0
   -4.7209   -4.4358    1.8757 H   0  0  0  0  0  0  0  0  0  0  0  0
   -3.2721   -6.4739    1.3895 H   0  0  0  0  0  0  0  0  0  0  0  0
   -4.9477   -8.5554    1.1029 H   0  0  0  0  0  0  0  0  0  0  0  0
   -5.6533   -7.3707    2.3653 H   0  0  0  0  0  0  0  0  0  0  0  0
   -3.3252   -6.7394   -1.1127 H   0  0  0  0  0  0  0  0  0  0  0  0
   -7.6605    1.9203   -2.0692 H   0  0  0  0  0  0  0  0  0  0  0  0
   -4.8503    3.6683   -4.1007 H   0  0  0  0  0  0  0  0  0  0  0  0
   -6.3976    5.4297   -5.1249 H   0  0  0  0  0  0  0  0  0  0  0  0
   -7.9984    7.4768   -4.6677 H   0  0  0  0  0  0  0  0  0  0  0  0
   -8.4328    7.7448   -2.9921 H   0  0  0  0  0  0  0  0  0  0  0  0
   -9.8622    5.9054   -2.8389 H   0  0  0  0  0  0  0  0  0  0  0  0
   -8.9282    5.0123   -4.0206 H   0  0  0  0  0  0  0  0  0  0  0  0
  -10.0802    6.3780   -4.5777 H   0  0  0  0  0  0  0  0  0  0  0  0
   -7.4031    6.6309   -1.1380 H   0  0  0  0  0  0  0  0  0  0  0  0
   -5.8401    5.0757   -0.2716 H   0  0  0  0  0  0  0  0  0  0  0  0
   -7.1974    3.3572   -0.6070 H   0  0  0  0  0  0  0  0  0  0  0  0
   -8.0047    2.9290    1.5843 H   0  0  0  0  0  0  0  0  0  0  0  0
   -7.6148    2.4252    3.7668 H   0  0  0  0  0  0  0  0  0  0  0  0
   -6.0072    2.3810    4.4200 H   0  0  0  0  0  0  0  0  0  0  0  0
   -7.8381    0.0889    3.7510 H   0  0  0  0  0  0  0  0  0  0  0  0
   -6.3390   -0.1447    2.8383 H   0  0  0  0  0  0  0  0  0  0  0  0
   -6.2274    0.0894    4.6427 H   0  0  0  0  0  0  0  0  0  0  0  0
   -4.0932    1.6011    2.7013 H   0  0  0  0  0  0  0  0  0  0  0  0
   -3.2883    2.0423    0.4649 H   0  0  0  0  0  0  0  0  0  0  0  0
   -2.5557    4.8563   -0.1251 H   0  0  0  0  0  0  0  0  0  0  0  0
    5.2986    1.6604   -0.9580 H   0  0  0  0  0  0  0  0  0  0  0  0
    6.5282    2.0068   -2.9301 H   0  0  0  0  0  0  0  0  0  0  0  0
    6.7235    2.8886   -4.9670 H   0  0  0  0  0  0  0  0  0  0  0  0
    5.7794    4.2041   -5.6598 H   0  0  0  0  0  0  0  0  0  0  0  0
    8.3861    4.2368   -4.7632 H   0  0  0  0  0  0  0  0  0  0  0  0
    7.4362    5.7516   -5.0734 H   0  0  0  0  0  0  0  0  0  0  0  0
    7.5066    5.0689   -3.3961 H   0  0  0  0  0  0  0  0  0  0  0  0
    4.1965    5.4829   -3.8968 H   0  0  0  0  0  0  0  0  0  0  0  0
    2.8668    5.0639   -1.9632 H   0  0  0  0  0  0  0  0  0  0  0  0
    2.2733    1.9019    2.0009 H   0  0  0  0  0  0  0  0  0  0  0  0
    1.4111   -0.4325    2.3628 H   0  0  0  0  0  0  0  0  0  0  0  0
    1.6172   -2.9731   -0.3597 H   0  0  0  0  0  0  0  0  0  0  0  0
    1.5839   -2.8188    1.4924 H   0  0  0  0  0  0  0  0  0  0  0  0
   -0.6492   -2.5225   -0.4748 H   0  0  0  0  0  0  0  0  0  0  0  0
   -0.5667   -1.2448    0.7262 H   0  0  0  0  0  0  0  0  0  0  0  0
   -0.6700   -2.9426    1.2850 H   0  0  0  0  0  0  0  0  0  0  0  0
    2.4698   -1.2250   -1.6461 H   0  0  0  0  0  0  0  0  0  0  0  0
    3.2391    1.0358   -1.9272 H   0  0  0  0  0  0  0  0  0  0  0  0
    1.1225    2.1877   -1.8708 H   0  0  0  0  0  0  0  0  0  0  0  0
    5.5589    2.0080    1.3124 H   0  0  0  0  0  0  0  0  0  0  0  0
    5.5413    2.6458    5.2956 H   0  0  0  0  0  0  0  0  0  0  0  0
    8.5615   -1.5441    1.7016 H   0  0  0  0  0  0  0  0  0  0  0  0
    8.1727   -2.0296    6.5755 H   0  0  0  0  0  0  0  0  0  0  0  0
   10.0779   -4.5855    5.4069 H   0  0  0  0  0  0  0  0  0  0  0  0
    7.4582   -5.3832    5.7277 H   0  0  0  0  0  0  0  0  0  0  0  0
    8.6329   -7.5375    4.9087 H   0  0  0  0  0  0  0  0  0  0  0  0
    9.4061   -7.2637    2.4180 H   0  0  0  0  0  0  0  0  0  0  0  0
    8.1885   -5.0060    1.6254 H   0  0  0  0  0  0  0  0  0  0  0  0
    7.0181   -3.8958    3.6576 H   0  0  0  0  0  0  0  0  0  0  0  0
    6.5137   -5.6255    3.2729 H   0  0  0  0  0  0  0  0  0  0  0  0
   10.5541   -4.2061    2.9552 H   0  0  0  0  0  0  0  0  0  0  0  0
  1  2  2  3
  2  3  1  0
  3  4  2  0
  3  5  1  0
  5  6  2  0
  6  7  1  0
  7  8  2  0
  8  9  1  0
  9 10  2  0
 10 11  1  0
 11 12  2  3
 12 13  1  0
 13 14  3  0
 12 15  1  0
 15 16  3  0
  8 17  1  0
 17 18  1  0
 18 19  1  0
 19 20  2  0
 20 21  1  0
 21 22  1  0
 21 23  1  0
  1 24  1  0
 24 25  1  0
 25 26  1  0
 26 27  1  0
 27 28  2  0
 28 29  1  0
 29 30  1  0
 30 31  1  0
 29 32  1  0
 32 33  2  0
 33 34  1  0
 34 35  2  0
 35 36  1  0
 36 37  1  0
 35 38  1  0
 38 39  2  0
 29 40  1  0
 40 41  2  0
 41 42  1  0
 42 43  2  0
 43 44  1  0
 44 45  1  0
 43 46  1  0
 46 47  2  0
 28 48  1  0
 48 49  2  0
 49 50  1  0
 50 51  1  0
 51 52  1  0
 52 53  1  0
 53 54  2  0
 54 55  1  0
 55 56  1  0
 56 57  2  0
 57 58  1  0
 58 59  2  0
 59 60  1  0
 60 61  1  0
 59 62  1  0
 62 63  2  0
 55 64  1  0
 64 65  2  0
 65 66  1  0
 66 67  2  0
 67 68  1  0
 68 69  1  0
 67 70  1  0
 70 71  2  0
 55 72  1  0
 72 73  1  0
 73 74  1  0
 74 75  2  0
 75 76  1  0
 54 77  1  0
 77 78  2  0
 78 79  1  0
 78 80  1  0
 80 81  2  3
 81 82  1  0
 82 83  2  0
 82 84  1  0
 84 85  2  0
 85 86  1  0
 86 87  2  0
 87 88  1  0
 88 89  2  0
 89 90  1  0
 90 91  2  3
 91 92  1  0
 92 93  3  0
 91 94  1  0
 94 95  3  0
 87 96  1  0
 96 97  1  0
 97 98  1  0
 98 99  2  0
 99100  1  0
100101  1  0
100102  1  0
 11  2  1  0
 23 17  1  0
 31 24  2  0
 39 32  1  0
 47 40  1  0
 75 48  1  0
 90 81  1  0
102 96  1  0
 10  5  1  0
 22 18  1  0
 30 26  2  0
 73 50  2  0
 89 84  1  0
101 97  1  0
 23  7  1  0
 76 27  1  0
102 86  1  0
 72 52  2  0
 79 53  1  0
 63 56  1  0
 71 64  1  0
  1103  1  0
  6104  1  0
  9105  1  0
 17106  1  0
 18107  1  0
 19108  1  0
 20109  1  0
 21110  1  0
 22111  1  0
 22112  1  0
 23113  1  0
 31114  1  0
 33115  1  0
 34116  1  0
 36117  1  0
 36118  1  0
 37119  1  0
 37120  1  0
 37121  1  0
 38122  1  0
 39123  1  0
 41124  1  0
 42125  1  0
 44126  1  0
 44127  1  0
 45128  1  0
 45129  1  0
 45130  1  0
 46131  1  0
 47132  1  0
 49133  1  0
 57134  1  0
 58135  1  0
 60136  1  0
 60137  1  0
 61138  1  0
 61139  1  0
 61140  1  0
 62141  1  0
 63142  1  0
 65143  1  0
 66144  1  0
 68145  1  0
 68146  1  0
 69147  1  0
 69148  1  0
 69149  1  0
 70150  1  0
 71151  1  0
 74152  1  0
 77153  1  0
 80154  1  0
 85155  1  0
 88156  1  0
 96157  1  0
 97158  1  0
 98159  1  0
 99160  1  0
100161  1  0
101162  1  0
101163  1  0
102164  1  0
M  END

