
     RDKit          3D

110124  0  0  0  0  0  0  0  0999 V2000
    0.5808    3.0096   -5.0818 C   0  0  0  0  0  0  0  0  0  0  0  0
    0.4470    2.7894   -6.3383 C   0  0  0  0  0  0  0  0  0  0  0  0
    0.2266    1.5601   -7.0155 C   0  0  0  0  0  0  0  0  0  0  0  0
    0.2188    0.4047   -6.4590 O   0  0  0  0  0  0  0  0  0  0  0  0
    0.0020    1.7629   -8.4610 C   0  0  0  0  0  0  0  0  0  0  0  0
   -0.2410    0.8164   -9.4314 C   0  0  0  0  0  0  0  0  0  0  0  0
   -0.4329    1.2698  -10.7748 C   0  0  0  0  0  0  0  0  0  0  0  0
   -0.3474    2.5867  -10.9288 C   0  0  0  0  0  0  0  0  0  0  0  0
   -0.1176    3.5603  -10.0518 C   0  0  0  0  0  0  0  0  0  0  0  0
    0.0729    3.0611   -8.6618 C   0  0  0  0  0  0  0  0  0  0  0  0
    0.3414    3.8486   -7.4518 C   0  0  0  0  0  0  0  0  0  0  0  0
    0.4526    5.0805   -7.3498 C   0  0  0  0  0  0  0  0  0  0  0  0
    0.3367    6.0509   -8.3682 C   0  0  0  0  0  0  0  0  0  0  0  0
    0.2272    6.9143   -9.2713 N   0  0  0  0  0  0  0  0  0  0  0  0
    1.0688    5.8075   -6.1019 C   0  0  0  0  0  0  0  0  0  0  0  0
    1.4701    6.2980   -5.2800 N   0  0  0  0  0  0  0  0  0  0  0  0
   -0.7160    2.4066  -12.4243 C   0  0  0  0  0  0  0  0  0  0  0  0
    0.3684    2.6510  -13.3697 C   0  0  0  0  0  0  0  0  0  0  0  0
    1.6802    2.4127  -12.6660 C   0  0  0  0  0  0  0  0  0  0  0  0
    1.6952    1.0859  -12.4343 C   0  0  0  0  0  0  0  0  0  0  0  0
    0.4792    0.4599  -12.9919 C   0  0  0  0  0  0  0  0  0  0  0  0
    0.3154    1.3794  -14.2191 C   0  0  0  0  0  0  0  0  0  0  0  0
   -0.6617    0.8945  -12.1609 C   0  0  0  0  0  0  0  0  0  0  0  0
    0.5430    2.0349   -4.0056 C   0  0  0  0  0  0  0  0  0  0  0  0
    1.2167    0.8700   -3.6267 C   0  0  0  0  0  0  0  0  0  0  0  0
    2.3514    0.2238   -4.1369 C   0  0  0  0  0  0  0  0  0  0  0  0
    2.2797   -1.0376   -4.9496 C   0  0  0  0  0  0  0  0  0  0  0  0
    0.4339    0.6089   -2.3173 C   0  0  0  0  0  0  0  0  0  0  0  0
    0.6615   -1.3154   -1.8573 S   0  0  0  0  0  0  0  0  0  0  0  0
   -0.4644   -1.1673   -0.5864 C   0  0  0  0  0  0  0  0  0  0  0  0
   -0.9595   -1.8050    0.5329 C   0  0  0  0  0  0  0  0  0  0  0  0
   -0.8396   -3.1616    0.9198 C   0  0  0  0  0  0  0  0  0  0  0  0
   -1.4306   -3.4978    2.1118 C   0  0  0  0  0  0  0  0  0  0  0  0
   -1.3955   -4.7556    2.4590 N   0  0  0  0  0  0  0  0  0  0  0  0
   -0.5457   -5.6603    1.1576 Se  0  0  0  0  0  2  0  0  0  0  0  0
   -0.2796   -4.0711    0.1699 N   0  0  0  0  0  0  0  0  0  0  0  0
   -2.0151   -2.4502    2.8163 C   0  0  0  0  0  0  0  0  0  0  0  0
   -2.1037   -2.4464    4.2510 C   0  0  0  0  0  0  0  0  0  0  0  0
   -1.8624   -3.4654    5.5960 S   0  0  0  0  0  0  0  0  0  0  0  0
   -1.8603   -2.2187    6.8024 C   0  0  0  0  0  0  0  0  0  0  0  0
   -1.4066   -2.1356    8.1256 C   0  0  0  0  0  0  0  0  0  0  0  0
   -1.1548   -3.3450    8.9764 C   0  0  0  0  0  0  0  0  0  0  0  0
   -2.3833   -3.8377    9.6424 C   0  0  0  0  0  0  0  0  0  0  0  0
   -1.2086   -0.9012    8.6367 C   0  0  0  0  0  0  0  0  0  0  0  0
   -1.6855    0.1215    7.2732 S   0  0  0  0  0  0  0  0  0  0  0  0
   -2.0682   -1.1010    6.1201 C   0  0  0  0  0  0  0  0  0  0  0  0
   -2.2118   -1.2134    4.7021 C   0  0  0  0  0  0  0  0  0  0  0  0
   -2.2536   -0.3548    3.6088 N   0  0  0  0  0  0  0  0  0  0  0  0
   -2.1309   -1.1522    2.4729 C   0  0  0  0  0  0  0  0  0  0  0  0
   -1.6014   -0.8127    1.1913 C   0  0  0  0  0  0  0  0  0  0  0  0
   -1.5844    0.3448    0.5147 N   0  0  0  0  0  0  0  0  0  0  0  0
   -0.8350    0.1223   -0.6313 C   0  0  0  0  0  0  0  0  0  0  0  0
   -0.1581    0.7855   -1.7193 C   0  0  0  0  0  0  0  0  0  0  0  0
   -0.6881    2.3269   -2.6651 S   0  0  0  0  0  0  0  0  0  0  0  0
   -2.3985    1.4901    0.7128 C   0  0  0  0  0  0  0  0  0  0  0  0
   -3.6603    1.1937   -0.1810 C   0  0  0  0  0  0  0  0  0  0  0  0
   -2.2142    1.0464    3.7939 C   0  0  0  0  0  0  0  0  0  0  0  0
   -3.4783    1.7777    4.1440 C   0  0  0  0  0  0  0  0  0  0  0  0
   -0.5715   -0.3130    9.7879 C   0  0  0  0  0  0  0  0  0  0  0  0
    0.6177   -0.4768   10.2519 C   0  0  0  0  0  0  0  0  0  0  0  0
    1.0829    0.2695   11.4684 C   0  0  0  0  0  0  0  0  0  0  0  0
    0.3753    1.1360   12.1244 O   0  0  0  0  0  0  0  0  0  0  0  0
    2.4191   -0.1059   11.8037 C   0  0  0  0  0  0  0  0  0  0  0  0
    2.8670   -1.0433   10.9150 C   0  0  0  0  0  0  0  0  0  0  0  0
    4.1568   -1.4723   11.0040 C   0  0  0  0  0  0  0  0  0  0  0  0
    5.0634   -0.9993   11.9825 C   0  0  0  0  0  0  0  0  0  0  0  0
    4.5826   -0.0732   12.8685 C   0  0  0  0  0  0  0  0  0  0  0  0
    5.8354    0.5935   14.1695 Br  0  0  0  0  0  0  0  0  0  0  0  0
    3.3089    0.3554   12.7707 C   0  0  0  0  0  0  0  0  0  0  0  0
    2.7151    1.5987   13.9047 Cl  0  0  0  0  0  0  0  0  0  0  0  0
    1.7540   -1.3083    9.9021 C   0  0  0  0  0  0  0  0  0  0  0  0
    2.1203   -1.9792    8.8661 C   0  0  0  0  0  0  0  0  0  0  0  0
    1.6021   -2.1619    7.5817 C   0  0  0  0  0  0  0  0  0  0  0  0
    1.1508   -2.3007    6.4545 N   0  0  0  0  0  0  0  0  0  0  0  0
    3.0758   -3.1195    9.0738 C   0  0  0  0  0  0  0  0  0  0  0  0
    3.8434   -4.0458    9.2530 N   0  0  0  0  0  0  0  0  0  0  0  0
    0.7582    4.0350   -4.6585 H   0  0  0  0  0  0  0  0  0  0  0  0
   -0.2675   -0.2195   -9.1801 H   0  0  0  0  0  0  0  0  0  0  0  0
   -0.0557    4.5544  -10.2336 H   0  0  0  0  0  0  0  0  0  0  0  0
   -1.7008    2.8155  -12.5764 H   0  0  0  0  0  0  0  0  0  0  0  0
    0.3219    3.5703  -13.9503 H   0  0  0  0  0  0  0  0  0  0  0  0
    2.3833    3.1902  -12.4658 H   0  0  0  0  0  0  0  0  0  0  0  0
    2.5318    0.6201  -11.8971 H   0  0  0  0  0  0  0  0  0  0  0  0
    0.5673   -0.5907  -13.2632 H   0  0  0  0  0  0  0  0  0  0  0  0
   -0.6657    1.2499  -14.6350 H   0  0  0  0  0  0  0  0  0  0  0  0
    1.1532    1.3181  -14.8875 H   0  0  0  0  0  0  0  0  0  0  0  0
   -1.6412    0.3826  -12.3606 H   0  0  0  0  0  0  0  0  0  0  0  0
    3.1993    0.0909   -3.3569 H   0  0  0  0  0  0  0  0  0  0  0  0
    2.8528    1.0101   -4.8970 H   0  0  0  0  0  0  0  0  0  0  0  0
    2.5682   -0.9091   -5.9461 H   0  0  0  0  0  0  0  0  0  0  0  0
    3.0213   -1.7800   -4.4678 H   0  0  0  0  0  0  0  0  0  0  0  0
    1.3048   -1.5257   -4.8135 H   0  0  0  0  0  0  0  0  0  0  0  0
   -0.3378   -3.1804    9.7261 H   0  0  0  0  0  0  0  0  0  0  0  0
   -0.7336   -4.1796    8.3143 H   0  0  0  0  0  0  0  0  0  0  0  0
   -3.2875   -3.6030    9.0545 H   0  0  0  0  0  0  0  0  0  0  0  0
   -2.4429   -3.4219   10.7125 H   0  0  0  0  0  0  0  0  0  0  0  0
   -2.3331   -4.9383    9.8035 H   0  0  0  0  0  0  0  0  0  0  0  0
   -1.9033    2.3032    0.0987 H   0  0  0  0  0  0  0  0  0  0  0  0
   -2.8020    1.8152    1.5684 H   0  0  0  0  0  0  0  0  0  0  0  0
   -4.4432    0.6899    0.4258 H   0  0  0  0  0  0  0  0  0  0  0  0
   -4.0185    2.1137   -0.6022 H   0  0  0  0  0  0  0  0  0  0  0  0
   -3.3632    0.4405   -0.9413 H   0  0  0  0  0  0  0  0  0  0  0  0
   -1.5972    1.2621    4.8337 H   0  0  0  0  0  0  0  0  0  0  0  0
   -1.4671    1.6136    3.1711 H   0  0  0  0  0  0  0  0  0  0  0  0
   -3.1709    2.8526    4.3741 H   0  0  0  0  0  0  0  0  0  0  0  0
   -4.2337    1.8310    3.3641 H   0  0  0  0  0  0  0  0  0  0  0  0
   -3.9057    1.4256    5.1104 H   0  0  0  0  0  0  0  0  0  0  0  0
   -1.2120    0.3864   10.3298 H   0  0  0  0  0  0  0  0  0  0  0  0
    4.6155   -2.1790   10.3298 H   0  0  0  0  0  0  0  0  0  0  0  0
    6.0573   -1.3979   11.9925 H   0  0  0  0  0  0  0  0  0  0  0  0
  1  2  2  3
  2  3  1  0
  3  4  2  0
  3  5  1  0
  5  6  2  0
  6  7  1  0
  7  8  2  0
  8  9  1  0
  9 10  2  0
 10 11  1  0
 11 12  2  3
 12 13  1  0
 13 14  3  0
 12 15  1  0
 15 16  3  0
  8 17  1  0
 17 18  1  0
 18 19  1  0
 19 20  2  0
 20 21  1  0
 21 22  1  0
 21 23  1  0
  1 24  1  0
 24 25  2  0
 25 26  1  0
 26 27  1  0
 25 28  1  0
 28 29  1  0
 29 30  1  0
 30 31  1  0
 31 32  1  0
 32 33  1  0
 33 34  2  0
 34 35  1  0
 35 36  1  0
 33 37  1  0
 37 38  1  0
 38 39  1  0
 39 40  1  0
 40 41  1  0
 41 42  1  0
 42 43  1  0
 41 44  2  0
 44 45  1  0
 45 46  1  0
 46 47  1  0
 47 48  1  0
 48 49  1  0
 49 50  1  0
 50 51  1  0
 51 52  1  0
 52 53  1  0
 53 54  1  0
 51 55  1  0
 55 56  1  0
 48 57  1  0
 57 58  1  0
 44 59  1  0
 59 60  2  3
 60 61  1  0
 61 62  2  0
 61 63  1  0
 63 64  2  0
 64 65  1  0
 65 66  2  0
 66 67  1  0
 67 68  1  0
 67 69  2  0
 69 70  1  0
 64 71  1  0
 71 72  2  3
 72 73  1  0
 73 74  3  0
 72 75  1  0
 75 76  3  0
 11  2  1  0
 23 17  1  0
 54 24  1  0
 71 60  1  0
 10  5  1  0
 22 18  1  0
 53 28  2  0
 69 63  1  0
 23  7  1  0
 52 30  2  0
 50 31  2  0
 36 32  2  0
 49 37  2  0
 47 38  2  0
 46 40  2  0
  1 77  1  0
  6 78  1  0
  9 79  1  0
 17 80  1  0
 18 81  1  0
 19 82  1  0
 20 83  1  0
 21 84  1  0
 22 85  1  0
 22 86  1  0
 23 87  1  0
 26 88  1  0
 26 89  1  0
 27 90  1  0
 27 91  1  0
 27 92  1  0
 42 93  1  0
 42 94  1  0
 43 95  1  0
 43 96  1  0
 43 97  1  0
 55 98  1  0
 55 99  1  0
 56100  1  0
 56101  1  0
 56102  1  0
 57103  1  0
 57104  1  0
 58105  1  0
 58106  1  0
 58107  1  0
 59108  1  0
 65109  1  0
 66110  1  0
M  END

