
     RDKit          3D

107121  0  0  0  0  0  0  0  0999 V2000
    2.3667   -2.8583   -5.0899 C   0  0  0  0  0  0  0  0  0  0  0  0
    2.7932   -1.6596   -5.0076 C   0  0  0  0  0  0  0  0  0  0  0  0
    3.3357   -1.0344   -3.7406 C   0  0  0  0  0  0  0  0  0  0  0  0
    3.4382   -1.6004   -2.6635 O   0  0  0  0  0  0  0  0  0  0  0  0
    3.6956    0.3533   -4.1018 C   0  0  0  0  0  0  0  0  0  0  0  0
    4.2461    1.3191   -3.2332 C   0  0  0  0  0  0  0  0  0  0  0  0
    4.5195    2.5468   -3.7266 C   0  0  0  0  0  0  0  0  0  0  0  0
    4.2729    2.8412   -5.0462 C   0  0  0  0  0  0  0  0  0  0  0  0
    3.7284    1.9192   -5.9144 C   0  0  0  0  0  0  0  0  0  0  0  0
    3.4503    0.5891   -5.3134 C   0  0  0  0  0  0  0  0  0  0  0  0
    2.8759   -0.5806   -6.0371 C   0  0  0  0  0  0  0  0  0  0  0  0
    2.5487   -0.7376   -7.2569 C   0  0  0  0  0  0  0  0  0  0  0  0
    2.0413   -2.0187   -7.8197 C   0  0  0  0  0  0  0  0  0  0  0  0
    1.6400   -3.0442   -8.2716 N   0  0  0  0  0  0  0  0  0  0  0  0
    2.6405    0.2882   -8.2557 C   0  0  0  0  0  0  0  0  0  0  0  0
    2.7002    1.1456   -9.0730 N   0  0  0  0  0  0  0  0  0  0  0  0
    4.7973    4.2301   -4.9044 C   0  0  0  0  0  0  0  0  0  0  0  0
    3.7363    5.2737   -4.9623 C   0  0  0  0  0  0  0  0  0  0  0  0
    4.2603    6.4509   -4.2341 C   0  0  0  0  0  0  0  0  0  0  0  0
    4.1931    6.2053   -2.9134 C   0  0  0  0  0  0  0  0  0  0  0  0
    3.8659    4.7712   -2.7796 C   0  0  0  0  0  0  0  0  0  0  0  0
    2.7905    4.6852   -3.9112 C   0  0  0  0  0  0  0  0  0  0  0  0
    4.9698    3.9634   -3.4271 C   0  0  0  0  0  0  0  0  0  0  0  0
    2.3950   -3.6872   -3.7890 C   0  0  0  0  0  0  0  0  0  0  0  0
    2.5983   -4.4610   -3.0610 C   0  0  0  0  0  0  0  0  0  0  0  0
    3.9148   -5.4204   -3.4064 C   0  0  0  0  0  0  0  0  0  0  0  0
    3.3466   -6.3941   -4.4048 C   0  0  0  0  0  0  0  0  0  0  0  0
    2.0798   -5.0090   -1.8369 C   0  0  0  0  0  0  0  0  0  0  0  0
    2.1565   -6.0204   -0.3399 Se  0  0  0  0  0  2  0  0  0  0  0  0
    0.6582   -5.2918    0.5045 C   0  0  0  0  0  0  0  0  0  0  0  0
   -0.0584   -5.1834    1.7109 C   0  0  0  0  0  0  0  0  0  0  0  0
    0.1318   -5.7024    2.9476 C   0  0  0  0  0  0  0  0  0  0  0  0
   -0.4738   -5.2913    4.0630 C   0  0  0  0  0  0  0  0  0  0  0  0
   -0.2268   -5.8342    5.2020 N   0  0  0  0  0  0  0  0  0  0  0  0
    0.9051   -7.0077    4.8477 S   0  0  0  0  0  0  0  0  0  0  0  0
    1.0375   -6.7662    3.2056 N   0  0  0  0  0  0  0  0  0  0  0  0
   -1.3736   -4.2063    3.8731 C   0  0  0  0  0  0  0  0  0  0  0  0
   -1.9648   -3.2993    4.7637 C   0  0  0  0  0  0  0  0  0  0  0  0
   -1.9485   -2.8683    6.5300 Se  0  0  0  0  0  2  0  0  0  0  0  0
   -2.8624   -1.0650    6.1678 C   0  0  0  0  0  0  0  0  0  0  0  0
   -3.1326    0.0180    6.8472 C   0  0  0  0  0  0  0  0  0  0  0  0
   -3.0008    0.1616    8.3524 C   0  0  0  0  0  0  0  0  0  0  0  0
   -1.5598    0.4097    8.7768 C   0  0  0  0  0  0  0  0  0  0  0  0
   -3.5647    1.1048    6.1056 C   0  0  0  0  0  0  0  0  0  0  0  0
   -3.5838    0.4607    4.5516 S   0  0  0  0  0  0  0  0  0  0  0  0
   -2.9974   -1.1782    4.8619 C   0  0  0  0  0  0  0  0  0  0  0  0
   -2.5579   -2.2602    4.1657 C   0  0  0  0  0  0  0  0  0  0  0  0
   -2.3108   -2.5623    2.8069 N   0  0  0  0  0  0  0  0  0  0  0  0
   -1.6331   -3.6497    2.6121 C   0  0  0  0  0  0  0  0  0  0  0  0
   -0.9765   -4.1382    1.4605 C   0  0  0  0  0  0  0  0  0  0  0  0
   -0.8279   -3.6920    0.2022 N   0  0  0  0  0  0  0  0  0  0  0  0
    0.1927   -4.3568   -0.4052 C   0  0  0  0  0  0  0  0  0  0  0  0
    0.9442   -4.2314   -1.5765 C   0  0  0  0  0  0  0  0  0  0  0  0
    0.8773   -3.0881   -2.8978 S   0  0  0  0  0  0  0  0  0  0  0  0
   -1.7945   -2.9059   -0.5545 C   0  0  0  0  0  0  0  0  0  0  0  0
   -2.8804   -3.8532   -1.0867 C   0  0  0  0  0  0  0  0  0  0  0  0
   -2.8560   -1.6307    1.7969 C   0  0  0  0  0  0  0  0  0  0  0  0
   -1.9068   -0.4678    1.5766 C   0  0  0  0  0  0  0  0  0  0  0  0
   -3.6486    2.4975    6.5791 C   0  0  0  0  0  0  0  0  0  0  0  0
   -2.7480    3.3266    5.8768 C   0  0  0  0  0  0  0  0  0  0  0  0
   -1.9091    2.9033    4.8445 C   0  0  0  0  0  0  0  0  0  0  0  0
   -1.9706    1.8404    4.2196 O   0  0  0  0  0  0  0  0  0  0  0  0
   -0.8650    3.9714    4.5829 C   0  0  0  0  0  0  0  0  0  0  0  0
    0.1777    4.1491    3.7603 C   0  0  0  0  0  0  0  0  0  0  0  0
    0.8903    5.2867    3.8475 C   0  0  0  0  0  0  0  0  0  0  0  0
    0.0517    6.0980    5.1164 S   0  0  0  0  0  0  0  0  0  0  0  0
   -1.1609    4.9480    5.4701 C   0  0  0  0  0  0  0  0  0  0  0  0
   -2.3745    4.6273    6.3615 C   0  0  0  0  0  0  0  0  0  0  0  0
   -2.7772    5.5193    7.0925 C   0  0  0  0  0  0  0  0  0  0  0  0
   -3.9451    5.7811    7.9319 C   0  0  0  0  0  0  0  0  0  0  0  0
   -4.7824    5.9546    8.5217 N   0  0  0  0  0  0  0  0  0  0  0  0
   -1.7405    6.6068    7.4230 C   0  0  0  0  0  0  0  0  0  0  0  0
   -0.9523    7.4065    7.6672 N   0  0  0  0  0  0  0  0  0  0  0  0
    1.9760   -3.4058   -5.8568 H   0  0  0  0  0  0  0  0  0  0  0  0
    4.4502    1.0576   -2.2033 H   0  0  0  0  0  0  0  0  0  0  0  0
    3.5078    2.0618   -6.8787 H   0  0  0  0  0  0  0  0  0  0  0  0
    5.7304    4.4065   -5.4956 H   0  0  0  0  0  0  0  0  0  0  0  0
    3.2683    5.4741   -5.9287 H   0  0  0  0  0  0  0  0  0  0  0  0
    4.6190    7.3136   -4.7338 H   0  0  0  0  0  0  0  0  0  0  0  0
    4.3609    6.9176   -2.1140 H   0  0  0  0  0  0  0  0  0  0  0  0
    3.4733    4.4028   -1.8541 H   0  0  0  0  0  0  0  0  0  0  0  0
    2.5538    3.6216   -4.1326 H   0  0  0  0  0  0  0  0  0  0  0  0
    1.9706    5.3498   -3.6583 H   0  0  0  0  0  0  0  0  0  0  0  0
    5.9752    4.0613   -3.0278 H   0  0  0  0  0  0  0  0  0  0  0  0
    4.3111   -5.7590   -2.5181 H   0  0  0  0  0  0  0  0  0  0  0  0
    4.6093   -4.7610   -3.9021 H   0  0  0  0  0  0  0  0  0  0  0  0
    2.8108   -7.2433   -3.9178 H   0  0  0  0  0  0  0  0  0  0  0  0
    2.6539   -5.8638   -5.0875 H   0  0  0  0  0  0  0  0  0  0  0  0
    4.2339   -6.8644   -4.9079 H   0  0  0  0  0  0  0  0  0  0  0  0
   -3.4096   -0.7331    8.8767 H   0  0  0  0  0  0  0  0  0  0  0  0
   -3.6206    0.9924    8.6718 H   0  0  0  0  0  0  0  0  0  0  0  0
   -0.8164   -0.0021    8.0963 H   0  0  0  0  0  0  0  0  0  0  0  0
   -1.3801    1.5280    8.8358 H   0  0  0  0  0  0  0  0  0  0  0  0
   -1.3948    0.0587    9.8284 H   0  0  0  0  0  0  0  0  0  0  0  0
   -1.2357   -2.7817   -1.6012 H   0  0  0  0  0  0  0  0  0  0  0  0
   -2.0091   -1.9139   -0.4623 H   0  0  0  0  0  0  0  0  0  0  0  0
   -3.8870   -3.4541   -0.9516 H   0  0  0  0  0  0  0  0  0  0  0  0
   -2.7481   -4.1242   -2.1483 H   0  0  0  0  0  0  0  0  0  0  0  0
   -2.7242   -4.8595   -0.5626 H   0  0  0  0  0  0  0  0  0  0  0  0
   -3.7122   -1.0783    2.3488 H   0  0  0  0  0  0  0  0  0  0  0  0
   -3.4308   -2.0378    1.0155 H   0  0  0  0  0  0  0  0  0  0  0  0
   -1.5439   -0.1274    2.5953 H   0  0  0  0  0  0  0  0  0  0  0  0
   -0.9711   -0.8315    1.1075 H   0  0  0  0  0  0  0  0  0  0  0  0
   -2.3545    0.4305    1.1306 H   0  0  0  0  0  0  0  0  0  0  0  0
   -4.2500    2.8369    7.3133 H   0  0  0  0  0  0  0  0  0  0  0  0
    0.4979    3.3999    2.9779 H   0  0  0  0  0  0  0  0  0  0  0  0
    1.7673    5.6109    3.2604 H   0  0  0  0  0  0  0  0  0  0  0  0
  1  2  2  3
  2  3  1  0
  3  4  2  0
  3  5  1  0
  5  6  2  0
  6  7  1  0
  7  8  2  0
  8  9  1  0
  9 10  2  0
 10 11  1  0
 11 12  2  3
 12 13  1  0
 13 14  3  0
 12 15  1  0
 15 16  3  0
  8 17  1  0
 17 18  1  0
 18 19  1  0
 19 20  2  0
 20 21  1  0
 21 22  1  0
 21 23  1  0
  1 24  1  0
 24 25  2  0
 25 26  1  0
 26 27  1  0
 25 28  1  0
 28 29  1  0
 29 30  1  0
 30 31  1  0
 31 32  1  0
 32 33  1  0
 33 34  2  0
 34 35  1  0
 35 36  1  0
 33 37  1  0
 37 38  1  0
 38 39  1  0
 39 40  1  0
 40 41  1  0
 41 42  1  0
 42 43  1  0
 41 44  2  0
 44 45  1  0
 45 46  1  0
 46 47  1  0
 47 48  1  0
 48 49  1  0
 49 50  1  0
 50 51  1  0
 51 52  1  0
 52 53  1  0
 53 54  1  0
 51 55  1  0
 55 56  1  0
 48 57  1  0
 57 58  1  0
 44 59  1  0
 59 60  2  3
 60 61  1  0
 61 62  2  0
 61 63  1  0
 63 64  1  0
 64 65  2  0
 65 66  1  0
 66 67  1  0
 67 68  1  0
 68 69  2  3
 69 70  1  0
 70 71  3  0
 69 72  1  0
 72 73  3  0
 11  2  1  0
 23 17  1  0
 54 24  1  0
 68 60  1  0
 10  5  1  0
 22 18  1  0
 53 28  2  0
 67 63  2  0
 23  7  1  0
 52 30  2  0
 50 31  2  0
 36 32  2  0
 49 37  2  0
 47 38  2  0
 46 40  2  0
  1 74  1  0
  6 75  1  0
  9 76  1  0
 17 77  1  0
 18 78  1  0
 19 79  1  0
 20 80  1  0
 21 81  1  0
 22 82  1  0
 22 83  1  0
 23 84  1  0
 26 85  1  0
 26 86  1  0
 27 87  1  0
 27 88  1  0
 27 89  1  0
 42 90  1  0
 42 91  1  0
 43 92  1  0
 43 93  1  0
 43 94  1  0
 55 95  1  0
 55 96  1  0
 56 97  1  0
 56 98  1  0
 56 99  1  0
 57100  1  0
 57101  1  0
 58102  1  0
 58103  1  0
 58104  1  0
 59105  1  0
 64106  1  0
 65107  1  0
M  END

