
     RDKit          3D

114128  0  0  0  0  0  0  0  0999 V2000
    5.8119   -2.4140    0.3585 C   0  0  0  0  0  0  0  0  0  0  0  0
    5.3716   -1.8112    1.4820 C   0  0  0  0  0  0  0  0  0  0  0  0
    4.0144   -1.2785    1.6880 C   0  0  0  0  0  0  0  0  0  0  0  0
    3.0361   -1.3950    0.9048 O   0  0  0  0  0  0  0  0  0  0  0  0
    4.0128   -0.4505    2.8699 C   0  0  0  0  0  0  0  0  0  0  0  0
    2.9262    0.3001    3.3777 C   0  0  0  0  0  0  0  0  0  0  0  0
    3.2541    1.0848    4.4663 C   0  0  0  0  0  0  0  0  0  0  0  0
    4.5755    1.1510    5.0148 C   0  0  0  0  0  0  0  0  0  0  0  0
    5.6430    0.4209    4.5194 C   0  0  0  0  0  0  0  0  0  0  0  0
    5.3196   -0.4259    3.4234 C   0  0  0  0  0  0  0  0  0  0  0  0
    6.1947   -1.3501    2.6460 C   0  0  0  0  0  0  0  0  0  0  0  0
    7.3773   -1.8780    3.0587 C   0  0  0  0  0  0  0  0  0  0  0  0
    7.9952   -1.5227    4.3088 C   0  0  0  0  0  0  0  0  0  0  0  0
    8.5092   -1.2617    5.3119 N   0  0  0  0  0  0  0  0  0  0  0  0
    8.0335   -2.9529    2.3526 C   0  0  0  0  0  0  0  0  0  0  0  0
    8.5511   -3.8229    1.7913 N   0  0  0  0  0  0  0  0  0  0  0  0
    4.1266    2.1642    6.0234 C   0  0  0  0  0  0  0  0  0  0  0  0
    4.5433    3.6446    5.7692 C   0  0  0  0  0  0  0  0  0  0  0  0
    3.6567    4.4838    6.6579 C   0  0  0  0  0  0  0  0  0  0  0  0
    2.4224    4.4152    6.1468 C   0  0  0  0  0  0  0  0  0  0  0  0
    2.5176    3.5300    4.9276 C   0  0  0  0  0  0  0  0  0  0  0  0
    3.8899    3.9608    4.4344 C   0  0  0  0  0  0  0  0  0  0  0  0
    2.7724    2.0919    5.4646 C   0  0  0  0  0  0  0  0  0  0  0  0
    4.9178   -2.8788   -0.7211 C   0  0  0  0  0  0  0  0  0  0  0  0
    3.8573   -3.7612   -0.5248 C   0  0  0  0  0  0  0  0  0  0  0  0
    3.1922   -3.7532   -1.7305 C   0  0  0  0  0  0  0  0  0  0  0  0
    3.8392   -2.9406   -2.5812 C   0  0  0  0  0  0  0  0  0  0  0  0
    4.9177   -2.3712   -1.9870 N   0  0  0  0  0  0  0  0  0  0  0  0
    5.7775   -1.2733   -2.4454 C   0  0  0  0  0  0  0  0  0  0  0  0
    5.1774    0.0823   -2.0724 C   0  0  0  0  0  0  0  0  0  0  0  0
    2.8993   -2.5046   -3.5042 C   0  0  0  0  0  0  0  0  0  0  0  0
    2.9403   -1.4766   -4.4666 C   0  0  0  0  0  0  0  0  0  0  0  0
    1.7249   -1.0007   -5.0232 C   0  0  0  0  0  0  0  0  0  0  0  0
    1.7985    0.0286   -5.9068 N   0  0  0  0  0  0  0  0  0  0  0  0
    3.4364    0.2473   -5.9461 S   0  0  0  0  0  0  0  0  0  0  0  0
    4.0705   -0.8725   -4.9072 N   0  0  0  0  0  0  0  0  0  0  0  0
    0.5381   -1.6284   -4.6698 C   0  0  0  0  0  0  0  0  0  0  0  0
   -0.7472   -1.2962   -4.9760 C   0  0  0  0  0  0  0  0  0  0  0  0
   -1.5417    0.1458   -5.3732 S   0  0  0  0  0  0  0  0  0  0  0  0
   -2.9935   -0.4311   -4.6944 C   0  0  0  0  0  0  0  0  0  0  0  0
   -4.1568    0.2258   -4.3060 C   0  0  0  0  0  0  0  0  0  0  0  0
   -4.4991    1.6351   -4.7045 C   0  0  0  0  0  0  0  0  0  0  0  0
   -5.2442    1.6474   -6.0328 C   0  0  0  0  0  0  0  0  0  0  0  0
   -4.9157   -0.5705   -3.4311 C   0  0  0  0  0  0  0  0  0  0  0  0
   -4.1204   -2.0521   -3.1451 S   0  0  0  0  0  0  0  0  0  0  0  0
   -2.8321   -1.6838   -4.1577 C   0  0  0  0  0  0  0  0  0  0  0  0
   -1.5445   -2.1732   -4.3246 C   0  0  0  0  0  0  0  0  0  0  0  0
   -0.8472   -3.1055   -3.6344 N   0  0  0  0  0  0  0  0  0  0  0  0
    0.4709   -2.7255   -3.7946 C   0  0  0  0  0  0  0  0  0  0  0  0
    1.6798   -3.1416   -3.1387 C   0  0  0  0  0  0  0  0  0  0  0  0
    1.8751   -3.8924   -2.0006 N   0  0  0  0  0  0  0  0  0  0  0  0
    0.9234   -4.4284   -1.0190 C   0  0  0  0  0  0  0  0  0  0  0  0
    0.1271   -3.3126   -0.3427 C   0  0  0  0  0  0  0  0  0  0  0  0
   -1.4327   -4.4075   -3.2907 C   0  0  0  0  0  0  0  0  0  0  0  0
   -0.7124   -5.5585   -3.9975 C   0  0  0  0  0  0  0  0  0  0  0  0
   -6.1611   -0.1259   -2.7901 C   0  0  0  0  0  0  0  0  0  0  0  0
   -6.2121    0.3198   -1.5199 C   0  0  0  0  0  0  0  0  0  0  0  0
   -5.0872    0.3532   -0.5795 C   0  0  0  0  0  0  0  0  0  0  0  0
   -4.1123   -0.4512   -0.5558 O   0  0  0  0  0  0  0  0  0  0  0  0
   -5.3386    1.3801    0.4044 C   0  0  0  0  0  0  0  0  0  0  0  0
   -4.4753    1.8533    1.3895 C   0  0  0  0  0  0  0  0  0  0  0  0
   -4.8784    2.9603    2.1601 C   0  0  0  0  0  0  0  0  0  0  0  0
   -4.0319    3.4832    3.1484 C   0  0  0  0  0  0  0  0  0  0  0  0
   -4.4145    4.6166    3.8747 C   0  0  0  0  0  0  0  0  0  0  0  0
   -5.6421    5.2365    3.6214 C   0  0  0  0  0  0  0  0  0  0  0  0
   -5.9971    6.3456    4.3231 F   0  0  0  0  0  0  0  0  0  0  0  0
   -6.5025    4.7243    2.6442 C   0  0  0  0  0  0  0  0  0  0  0  0
   -6.1349    3.5821    1.9095 C   0  0  0  0  0  0  0  0  0  0  0  0
   -6.9886    3.0672    0.9133 C   0  0  0  0  0  0  0  0  0  0  0  0
   -6.5858    1.9405    0.1760 C   0  0  0  0  0  0  0  0  0  0  0  0
   -7.2512    1.2310   -0.9571 C   0  0  0  0  0  0  0  0  0  0  0  0
   -8.5655    1.2871   -1.3066 C   0  0  0  0  0  0  0  0  0  0  0  0
   -9.1452    0.3768   -2.2577 C   0  0  0  0  0  0  0  0  0  0  0  0
   -9.6176   -0.3554   -3.0190 N   0  0  0  0  0  0  0  0  0  0  0  0
   -9.5057    2.1753   -0.6725 C   0  0  0  0  0  0  0  0  0  0  0  0
  -10.2708    2.8891   -0.1748 N   0  0  0  0  0  0  0  0  0  0  0  0
    6.8693   -2.5092    0.1714 H   0  0  0  0  0  0  0  0  0  0  0  0
    1.9323    0.2791    2.9458 H   0  0  0  0  0  0  0  0  0  0  0  0
    6.6322    0.5474    4.9302 H   0  0  0  0  0  0  0  0  0  0  0  0
    4.2138    1.8148    7.0765 H   0  0  0  0  0  0  0  0  0  0  0  0
    5.6312    3.8604    5.8395 H   0  0  0  0  0  0  0  0  0  0  0  0
    3.9640    5.1000    7.4961 H   0  0  0  0  0  0  0  0  0  0  0  0
    1.5582    4.9747    6.4963 H   0  0  0  0  0  0  0  0  0  0  0  0
    1.6829    3.6343    4.2020 H   0  0  0  0  0  0  0  0  0  0  0  0
    3.9407    5.0422    4.1583 H   0  0  0  0  0  0  0  0  0  0  0  0
    4.2788    3.3599    3.5824 H   0  0  0  0  0  0  0  0  0  0  0  0
    2.0023    1.6982    6.1630 H   0  0  0  0  0  0  0  0  0  0  0  0
    3.5282   -4.1706    0.4198 H   0  0  0  0  0  0  0  0  0  0  0  0
    5.9737   -1.3553   -3.5278 H   0  0  0  0  0  0  0  0  0  0  0  0
    6.7761   -1.3547   -1.9657 H   0  0  0  0  0  0  0  0  0  0  0  0
    5.8635    0.8971   -2.3990 H   0  0  0  0  0  0  0  0  0  0  0  0
    5.0360    0.1514   -0.9710 H   0  0  0  0  0  0  0  0  0  0  0  0
    4.1918    0.2312   -2.5608 H   0  0  0  0  0  0  0  0  0  0  0  0
   -5.1314    2.1185   -3.9274 H   0  0  0  0  0  0  0  0  0  0  0  0
   -3.5757    2.2432   -4.7956 H   0  0  0  0  0  0  0  0  0  0  0  0
   -4.5870    1.2646   -6.8400 H   0  0  0  0  0  0  0  0  0  0  0  0
   -6.1539    1.0161   -5.9745 H   0  0  0  0  0  0  0  0  0  0  0  0
   -5.5477    2.6856   -6.2806 H   0  0  0  0  0  0  0  0  0  0  0  0
    0.3028   -5.2156   -1.4646 H   0  0  0  0  0  0  0  0  0  0  0  0
    1.4685   -4.9700   -0.2206 H   0  0  0  0  0  0  0  0  0  0  0  0
    0.8102   -2.6406    0.2156 H   0  0  0  0  0  0  0  0  0  0  0  0
   -0.4301   -2.7066   -1.0818 H   0  0  0  0  0  0  0  0  0  0  0  0
   -0.5992   -3.7567    0.3684 H   0  0  0  0  0  0  0  0  0  0  0  0
   -1.5236   -4.5367   -2.1994 H   0  0  0  0  0  0  0  0  0  0  0  0
   -2.4868   -4.4470   -3.6423 H   0  0  0  0  0  0  0  0  0  0  0  0
    0.3608   -5.5952   -3.7271 H   0  0  0  0  0  0  0  0  0  0  0  0
   -0.7924   -5.4330   -5.0977 H   0  0  0  0  0  0  0  0  0  0  0  0
   -1.1833   -6.5235   -3.7127 H   0  0  0  0  0  0  0  0  0  0  0  0
   -6.9586    0.1183   -3.4761 H   0  0  0  0  0  0  0  0  0  0  0  0
   -3.5011    1.3971    1.5296 H   0  0  0  0  0  0  0  0  0  0  0  0
   -3.0688    3.0314    3.3514 H   0  0  0  0  0  0  0  0  0  0  0  0
   -3.7507    5.0242    4.6264 H   0  0  0  0  0  0  0  0  0  0  0  0
   -7.4530    5.2167    2.4613 H   0  0  0  0  0  0  0  0  0  0  0  0
   -7.9135    3.5757    0.7075 H   0  0  0  0  0  0  0  0  0  0  0  0
  1  2  2  3
  2  3  1  0
  3  4  2  0
  3  5  1  0
  5  6  2  0
  6  7  1  0
  7  8  2  0
  8  9  1  0
  9 10  2  0
 10 11  1  0
 11 12  2  3
 12 13  1  0
 13 14  3  0
 12 15  1  0
 15 16  3  0
  8 17  1  0
 17 18  1  0
 18 19  1  0
 19 20  2  0
 20 21  1  0
 21 22  1  0
 21 23  1  0
  1 24  1  0
 24 25  2  0
 25 26  1  0
 26 27  2  0
 27 28  1  0
 28 29  1  0
 29 30  1  0
 27 31  1  0
 31 32  1  0
 32 33  1  0
 33 34  2  0
 34 35  1  0
 35 36  1  0
 33 37  1  0
 37 38  1  0
 38 39  1  0
 39 40  1  0
 40 41  1  0
 41 42  1  0
 42 43  1  0
 41 44  2  0
 44 45  1  0
 45 46  1  0
 46 47  1  0
 47 48  1  0
 48 49  1  0
 49 50  1  0
 50 51  1  0
 51 52  1  0
 52 53  1  0
 48 54  1  0
 54 55  1  0
 44 56  1  0
 56 57  2  3
 57 58  1  0
 58 59  2  0
 58 60  1  0
 60 61  2  0
 61 62  1  0
 62 63  2  0
 63 64  1  0
 64 65  2  0
 65 66  1  0
 65 67  1  0
 67 68  2  0
 68 69  1  0
 69 70  2  0
 70 71  1  0
 71 72  2  3
 72 73  1  0
 73 74  3  0
 72 75  1  0
 75 76  3  0
 11  2  1  0
 23 17  1  0
 28 24  1  0
 50 31  2  0
 71 57  1  0
 10  5  1  0
 22 18  1  0
 51 26  1  0
 70 60  1  0
 23  7  1  0
 36 32  2  0
 49 37  2  0
 68 62  1  0
 47 38  2  0
 46 40  2  0
  1 77  1  0
  6 78  1  0
  9 79  1  0
 17 80  1  0
 18 81  1  0
 19 82  1  0
 20 83  1  0
 21 84  1  0
 22 85  1  0
 22 86  1  0
 23 87  1  0
 25 88  1  0
 29 89  1  0
 29 90  1  0
 30 91  1  0
 30 92  1  0
 30 93  1  0
 42 94  1  0
 42 95  1  0
 43 96  1  0
 43 97  1  0
 43 98  1  0
 52 99  1  0
 52100  1  0
 53101  1  0
 53102  1  0
 53103  1  0
 54104  1  0
 54105  1  0
 55106  1  0
 55107  1  0
 55108  1  0
 56109  1  0
 61110  1  0
 63111  1  0
 64112  1  0
 67113  1  0
 69114  1  0
M  END

