
     RDKit          3D

 92105  0  0  0  0  0  0  0  0999 V2000
    1.4578   -3.9625    1.5717 C   0  0  0  0  0  0  0  0  0  0  0  0
    0.2709   -4.5030    1.2343 C   0  0  0  0  0  0  0  0  0  0  0  0
   -0.9636   -3.7441    0.9966 C   0  0  0  0  0  0  0  0  0  0  0  0
   -1.2212   -2.5830    1.4134 O   0  0  0  0  0  0  0  0  0  0  0  0
   -1.8579   -4.5526    0.1982 C   0  0  0  0  0  0  0  0  0  0  0  0
   -3.0697   -4.1362   -0.3981 C   0  0  0  0  0  0  0  0  0  0  0  0
   -3.6119   -5.0685   -1.2602 C   0  0  0  0  0  0  0  0  0  0  0  0
   -3.0074   -6.3396   -1.5246 C   0  0  0  0  0  0  0  0  0  0  0  0
   -1.8258   -6.7556   -0.9349 C   0  0  0  0  0  0  0  0  0  0  0  0
   -1.2576   -5.8177   -0.0283 C   0  0  0  0  0  0  0  0  0  0  0  0
    0.0269   -5.8862    0.7259 C   0  0  0  0  0  0  0  0  0  0  0  0
    0.7122   -7.0085    1.0605 C   0  0  0  0  0  0  0  0  0  0  0  0
    1.8079   -6.9902    2.0030 C   0  0  0  0  0  0  0  0  0  0  0  0
    2.6819   -6.9825    2.7645 N   0  0  0  0  0  0  0  0  0  0  0  0
    0.3223   -8.3146    0.5999 C   0  0  0  0  0  0  0  0  0  0  0  0
    0.0247   -9.3722    0.2362 N   0  0  0  0  0  0  0  0  0  0  0  0
   -4.0938   -6.6710   -2.5060 C   0  0  0  0  0  0  0  0  0  0  0  0
   -5.1874   -7.6939   -2.0746 C   0  0  0  0  0  0  0  0  0  0  0  0
   -5.3933   -7.6300   -0.5809 C   0  0  0  0  0  0  0  0  0  0  0  0
   -5.9533   -6.4479   -0.3233 C   0  0  0  0  0  0  0  0  0  0  0  0
   -6.1122   -5.7466   -1.6530 C   0  0  0  0  0  0  0  0  0  0  0  0
   -6.4331   -6.9485   -2.5214 C   0  0  0  0  0  0  0  0  0  0  0  0
   -4.7146   -5.3713   -2.2293 C   0  0  0  0  0  0  0  0  0  0  0  0
    1.6395   -2.5125    1.7219 C   0  0  0  0  0  0  0  0  0  0  0  0
    1.7264   -1.8124    2.9371 C   0  0  0  0  0  0  0  0  0  0  0  0
    1.7703   -2.4464    4.2975 C   0  0  0  0  0  0  0  0  0  0  0  0
    3.2068   -2.7531    4.7004 C   0  0  0  0  0  0  0  0  0  0  0  0
    1.7542   -0.4356    2.7084 C   0  0  0  0  0  0  0  0  0  0  0  0
    1.6840   -0.0694    1.3884 C   0  0  0  0  0  0  0  0  0  0  0  0
    1.5940   -1.4188    0.4124 S   0  0  0  0  0  0  0  0  0  0  0  0
    1.5647    1.2975    1.2172 C   0  0  0  0  0  0  0  0  0  0  0  0
    1.5909    1.9604    2.3948 C   0  0  0  0  0  0  0  0  0  0  0  0
    1.7345    0.9275    3.7352 S   0  0  0  0  0  0  0  0  0  0  0  0
    1.5090    3.2899    2.1046 C   0  0  0  0  0  0  0  0  0  0  0  0
    1.6042    4.4258    2.9136 C   0  0  0  0  0  0  0  0  0  0  0  0
    1.7424    4.3902    4.2643 N   0  0  0  0  0  0  0  0  0  0  0  0
    1.7652    6.0170    4.5778 S   0  0  0  0  0  0  0  0  0  0  0  0
    1.6008    6.7875    3.1207 N   0  0  0  0  0  0  0  0  0  0  0  0
    1.5378    5.7094    2.2980 C   0  0  0  0  0  0  0  0  0  0  0  0
    1.3547    5.7858    0.9090 C   0  0  0  0  0  0  0  0  0  0  0  0
    0.9587    6.8433    0.1390 C   0  0  0  0  0  0  0  0  0  0  0  0
    0.3305    8.3862    0.4720 S   0  0  0  0  0  0  0  0  0  0  0  0
   -0.5037    8.4076   -1.0082 C   0  0  0  0  0  0  0  0  0  0  0  0
   -1.4495    9.2748   -1.5434 C   0  0  0  0  0  0  0  0  0  0  0  0
   -2.0306    8.7293   -2.6948 C   0  0  0  0  0  0  0  0  0  0  0  0
   -1.3765    7.1846   -3.0045 S   0  0  0  0  0  0  0  0  0  0  0  0
   -0.3301    7.2332   -1.6971 C   0  0  0  0  0  0  0  0  0  0  0  0
    0.5041    6.3328   -1.0379 C   0  0  0  0  0  0  0  0  0  0  0  0
    0.6247    4.9796   -1.1014 N   0  0  0  0  0  0  0  0  0  0  0  0
   -0.1839    4.1309   -1.9841 C   0  0  0  0  0  0  0  0  0  0  0  0
    0.3524    4.1452   -3.4162 C   0  0  0  0  0  0  0  0  0  0  0  0
    1.2030    4.6410    0.1022 C   0  0  0  0  0  0  0  0  0  0  0  0
    1.3693    3.3627    0.7077 C   0  0  0  0  0  0  0  0  0  0  0  0
    1.4726    2.1145    0.1406 N   0  0  0  0  0  0  0  0  0  0  0  0
    2.0104    1.7812   -1.1832 C   0  0  0  0  0  0  0  0  0  0  0  0
    1.0694    0.8694   -1.9773 C   0  0  0  0  0  0  0  0  0  0  0  0
   -3.0950    9.3550   -3.4901 C   0  0  0  0  0  0  0  0  0  0  0  0
   -3.6501    8.8311   -4.6546 C   0  0  0  0  0  0  0  0  0  0  0  0
   -4.6513    9.6385   -5.2067 C   0  0  0  0  0  0  0  0  0  0  0  0
   -4.8857   10.7906   -4.4676 C   0  0  0  0  0  0  0  0  0  0  0  0
   -5.8537   11.7992   -4.7885 C   0  0  0  0  0  0  0  0  0  0  0  0
   -6.6315   12.6131   -5.0499 N   0  0  0  0  0  0  0  0  0  0  0  0
   -3.8491   10.8237   -3.1403 S   0  0  0  0  0  0  0  0  0  0  0  0
    2.3586   -4.5562    1.5850 H   0  0  0  0  0  0  0  0  0  0  0  0
   -3.5054   -3.1581   -0.2413 H   0  0  0  0  0  0  0  0  0  0  0  0
   -1.3726   -7.6899   -1.2150 H   0  0  0  0  0  0  0  0  0  0  0  0
   -3.7375   -6.7828   -3.5520 H   0  0  0  0  0  0  0  0  0  0  0  0
   -5.0701   -8.7167   -2.4857 H   0  0  0  0  0  0  0  0  0  0  0  0
   -5.2179   -8.4187    0.1416 H   0  0  0  0  0  0  0  0  0  0  0  0
   -6.3073   -6.1176    0.6458 H   0  0  0  0  0  0  0  0  0  0  0  0
   -6.8639   -4.9296   -1.6647 H   0  0  0  0  0  0  0  0  0  0  0  0
   -6.4497   -6.7132   -3.6136 H   0  0  0  0  0  0  0  0  0  0  0  0
   -7.3842   -7.4593   -2.2400 H   0  0  0  0  0  0  0  0  0  0  0  0
   -4.7360   -4.6926   -3.1096 H   0  0  0  0  0  0  0  0  0  0  0  0
    1.3079   -1.7673    5.0463 H   0  0  0  0  0  0  0  0  0  0  0  0
    1.1854   -3.3897    4.2926 H   0  0  0  0  0  0  0  0  0  0  0  0
    3.2251   -3.2264    5.7049 H   0  0  0  0  0  0  0  0  0  0  0  0
    3.8031   -1.8184    4.7379 H   0  0  0  0  0  0  0  0  0  0  0  0
    3.6659   -3.4497    3.9694 H   0  0  0  0  0  0  0  0  0  0  0  0
   -1.7427   10.2125   -1.0927 H   0  0  0  0  0  0  0  0  0  0  0  0
   -0.2491    3.1043   -1.5988 H   0  0  0  0  0  0  0  0  0  0  0  0
   -1.2296    4.4960   -1.9841 H   0  0  0  0  0  0  0  0  0  0  0  0
    0.3195    5.1632   -3.8467 H   0  0  0  0  0  0  0  0  0  0  0  0
    1.4021    3.7931   -3.4533 H   0  0  0  0  0  0  0  0  0  0  0  0
   -0.2735    3.4816   -4.0520 H   0  0  0  0  0  0  0  0  0  0  0  0
    2.9889    1.2717   -1.0611 H   0  0  0  0  0  0  0  0  0  0  0  0
    2.2367    2.7048   -1.7451 H   0  0  0  0  0  0  0  0  0  0  0  0
    1.5362   -0.1238   -2.1453 H   0  0  0  0  0  0  0  0  0  0  0  0
    0.1015    0.7260   -1.4527 H   0  0  0  0  0  0  0  0  0  0  0  0
    0.8671    1.3081   -2.9733 H   0  0  0  0  0  0  0  0  0  0  0  0
   -3.3463    7.8936   -5.0936 H   0  0  0  0  0  0  0  0  0  0  0  0
   -5.1871    9.3826   -6.1130 H   0  0  0  0  0  0  0  0  0  0  0  0
  1  2  2  3
  2  3  1  0
  3  4  2  0
  3  5  1  0
  5  6  2  0
  6  7  1  0
  7  8  2  0
  8  9  1  0
  9 10  2  0
 10 11  1  0
 11 12  2  3
 12 13  1  0
 13 14  3  0
 12 15  1  0
 15 16  3  0
  8 17  1  0
 17 18  1  0
 18 19  1  0
 19 20  2  0
 20 21  1  0
 21 22  1  0
 21 23  1  0
  1 24  1  0
 24 25  2  0
 25 26  1  0
 26 27  1  0
 25 28  1  0
 28 29  2  0
 29 30  1  0
 29 31  1  0
 31 32  2  0
 32 33  1  0
 32 34  1  0
 34 35  1  0
 35 36  2  0
 36 37  1  0
 37 38  1  0
 38 39  2  0
 39 40  1  0
 40 41  1  0
 41 42  1  0
 42 43  1  0
 43 44  1  0
 44 45  2  0
 45 46  1  0
 46 47  1  0
 47 48  1  0
 48 49  1  0
 49 50  1  0
 50 51  1  0
 49 52  1  0
 52 53  1  0
 53 54  1  0
 54 55  1  0
 55 56  1  0
 45 57  1  0
 57 58  2  0
 58 59  1  0
 59 60  2  0
 60 61  1  0
 61 62  3  0
 60 63  1  0
 11  2  1  0
 23 17  1  0
 30 24  1  0
 54 31  1  0
 63 57  1  0
 10  5  1  0
 22 18  1  0
 33 28  1  0
 53 34  2  0
 23  7  1  0
 39 35  1  0
 52 40  2  0
 48 41  2  0
 47 43  2  0
  1 64  1  0
  6 65  1  0
  9 66  1  0
 17 67  1  0
 18 68  1  0
 19 69  1  0
 20 70  1  0
 21 71  1  0
 22 72  1  0
 22 73  1  0
 23 74  1  0
 26 75  1  0
 26 76  1  0
 27 77  1  0
 27 78  1  0
 27 79  1  0
 44 80  1  0
 50 81  1  0
 50 82  1  0
 51 83  1  0
 51 84  1  0
 51 85  1  0
 55 86  1  0
 55 87  1  0
 56 88  1  0
 56 89  1  0
 56 90  1  0
 58 91  1  0
 59 92  1  0
M  END

