
     RDKit          3D

111125  0  0  0  0  0  0  0  0999 V2000
    3.3359   -0.7398    4.9694 C   0  0  0  0  0  0  0  0  0  0  0  0
    4.1514    0.3296    5.0021 C   0  0  0  0  0  0  0  0  0  0  0  0
    4.1608    1.4148    4.0111 C   0  0  0  0  0  0  0  0  0  0  0  0
    3.2174    1.7310    3.2386 O   0  0  0  0  0  0  0  0  0  0  0  0
    5.4612    2.0471    4.0307 C   0  0  0  0  0  0  0  0  0  0  0  0
    5.9187    3.0672    3.1672 C   0  0  0  0  0  0  0  0  0  0  0  0
    7.2500    3.3906    3.3489 C   0  0  0  0  0  0  0  0  0  0  0  0
    8.0930    2.7413    4.3100 C   0  0  0  0  0  0  0  0  0  0  0  0
    7.6456    1.7467    5.1669 C   0  0  0  0  0  0  0  0  0  0  0  0
    6.2658    1.4220    5.0209 C   0  0  0  0  0  0  0  0  0  0  0  0
    5.4362    0.4265    5.7581 C   0  0  0  0  0  0  0  0  0  0  0  0
    5.7002   -0.1218    6.9711 C   0  0  0  0  0  0  0  0  0  0  0  0
    4.6841   -0.8091    7.7264 C   0  0  0  0  0  0  0  0  0  0  0  0
    3.8649   -1.3501    8.3364 N   0  0  0  0  0  0  0  0  0  0  0  0
    6.9627    0.0446    7.6408 C   0  0  0  0  0  0  0  0  0  0  0  0
    7.9836    0.1605    8.1797 N   0  0  0  0  0  0  0  0  0  0  0  0
    9.2629    3.5771    3.8732 C   0  0  0  0  0  0  0  0  0  0  0  0
    9.7263    4.7306    4.8158 C   0  0  0  0  0  0  0  0  0  0  0  0
    8.5455    5.2561    5.6016 C   0  0  0  0  0  0  0  0  0  0  0  0
    7.7465    5.8679    4.7254 C   0  0  0  0  0  0  0  0  0  0  0  0
    8.4111    5.7423    3.3716 C   0  0  0  0  0  0  0  0  0  0  0  0
    9.8623    5.8573    3.8063 C   0  0  0  0  0  0  0  0  0  0  0  0
    8.3946    4.2549    2.9023 C   0  0  0  0  0  0  0  0  0  0  0  0
    2.3314   -0.9248    3.9111 C   0  0  0  0  0  0  0  0  0  0  0  0
    1.0637   -0.3274    3.9088 C   0  0  0  0  0  0  0  0  0  0  0  0
    0.5497   -0.6858    2.6806 C   0  0  0  0  0  0  0  0  0  0  0  0
    1.4210   -1.4801    2.0591 C   0  0  0  0  0  0  0  0  0  0  0  0
    2.5374   -1.6803    2.7904 N   0  0  0  0  0  0  0  0  0  0  0  0
    3.7580   -2.4060    2.4348 C   0  0  0  0  0  0  0  0  0  0  0  0
    4.5220   -1.6591    1.3454 C   0  0  0  0  0  0  0  0  0  0  0  0
    0.7648   -2.0675    0.9991 C   0  0  0  0  0  0  0  0  0  0  0  0
    1.0687   -3.1456    0.1462 C   0  0  0  0  0  0  0  0  0  0  0  0
    0.0465   -3.6553   -0.7110 C   0  0  0  0  0  0  0  0  0  0  0  0
    0.3786   -4.6895   -1.5268 N   0  0  0  0  0  0  0  0  0  0  0  0
    1.9614   -4.8956   -1.0904 S   0  0  0  0  0  0  0  0  0  0  0  0
    2.2745   -3.7566    0.0692 N   0  0  0  0  0  0  0  0  0  0  0  0
   -1.2114   -3.0445   -0.6999 C   0  0  0  0  0  0  0  0  0  0  0  0
   -2.2758   -3.1723   -1.5486 C   0  0  0  0  0  0  0  0  0  0  0  0
   -2.6164   -3.9799   -3.0031 S   0  0  0  0  0  0  0  0  0  0  0  0
   -3.9109   -2.9115   -3.3153 C   0  0  0  0  0  0  0  0  0  0  0  0
   -4.7879   -2.7567   -4.3897 C   0  0  0  0  0  0  0  0  0  0  0  0
   -4.8231   -3.6626   -5.5909 C   0  0  0  0  0  0  0  0  0  0  0  0
   -4.0923   -3.0333   -6.7704 C   0  0  0  0  0  0  0  0  0  0  0  0
   -5.5709   -1.5991   -4.2325 C   0  0  0  0  0  0  0  0  0  0  0  0
   -5.1926   -0.8229   -2.7612 S   0  0  0  0  0  0  0  0  0  0  0  0
   -4.0213   -1.9501   -2.3447 C   0  0  0  0  0  0  0  0  0  0  0  0
   -3.0906   -2.1096   -1.3270 C   0  0  0  0  0  0  0  0  0  0  0  0
   -2.6177   -1.2801   -0.3635 N   0  0  0  0  0  0  0  0  0  0  0  0
   -1.4877   -1.9167    0.0845 C   0  0  0  0  0  0  0  0  0  0  0  0
   -0.5201   -1.4822    1.0229 C   0  0  0  0  0  0  0  0  0  0  0  0
   -0.6841   -0.6728    2.1210 N   0  0  0  0  0  0  0  0  0  0  0  0
   -1.9202   -0.4737    2.8897 C   0  0  0  0  0  0  0  0  0  0  0  0
   -2.0865    0.9841    3.3219 C   0  0  0  0  0  0  0  0  0  0  0  0
   -2.8951    0.1610   -0.3338 C   0  0  0  0  0  0  0  0  0  0  0  0
   -2.1540    0.8838   -1.4585 C   0  0  0  0  0  0  0  0  0  0  0  0
   -6.6035   -1.1502   -5.1759 C   0  0  0  0  0  0  0  0  0  0  0  0
   -6.4712   -0.0602   -5.9547 C   0  0  0  0  0  0  0  0  0  0  0  0
   -5.3918    0.9335   -5.8673 C   0  0  0  0  0  0  0  0  0  0  0  0
   -4.3069    0.8133   -5.2353 O   0  0  0  0  0  0  0  0  0  0  0  0
   -5.7787    2.0979   -6.6302 C   0  0  0  0  0  0  0  0  0  0  0  0
   -5.0997    3.3203   -6.7383 C   0  0  0  0  0  0  0  0  0  0  0  0
   -5.7073    4.3253   -7.4987 C   0  0  0  0  0  0  0  0  0  0  0  0
   -5.1965    5.6049   -7.7312 C   0  0  0  0  0  0  0  0  0  0  0  0
   -6.0343    6.3860   -8.5261 C   0  0  0  0  0  0  0  0  0  0  0  0
   -7.4039    5.4856   -8.9356 S   0  0  0  0  0  0  0  0  0  0  0  0
   -6.9405    4.1012   -8.1078 C   0  0  0  0  0  0  0  0  0  0  0  0
   -7.6260    2.8885   -7.9933 C   0  0  0  0  0  0  0  0  0  0  0  0
   -7.0072    1.8626   -7.2476 C   0  0  0  0  0  0  0  0  0  0  0  0
   -7.4551    0.4698   -6.9516 C   0  0  0  0  0  0  0  0  0  0  0  0
   -8.3906   -0.2424   -7.6365 C   0  0  0  0  0  0  0  0  0  0  0  0
   -8.5408   -1.6667   -7.4819 C   0  0  0  0  0  0  0  0  0  0  0  0
   -8.6597   -2.8134   -7.3673 N   0  0  0  0  0  0  0  0  0  0  0  0
   -9.2045    0.3320   -8.6750 C   0  0  0  0  0  0  0  0  0  0  0  0
   -9.8640    0.7751   -9.5187 N   0  0  0  0  0  0  0  0  0  0  0  0
    3.5550   -1.6042    5.5745 H   0  0  0  0  0  0  0  0  0  0  0  0
    5.2968    3.5432    2.4186 H   0  0  0  0  0  0  0  0  0  0  0  0
    8.3226    1.2642    5.8498 H   0  0  0  0  0  0  0  0  0  0  0  0
   10.0860    2.9936    3.4028 H   0  0  0  0  0  0  0  0  0  0  0  0
   10.6353    4.5154    5.4191 H   0  0  0  0  0  0  0  0  0  0  0  0
    8.4012    5.2202    6.6777 H   0  0  0  0  0  0  0  0  0  0  0  0
    6.8383    6.4101    4.9668 H   0  0  0  0  0  0  0  0  0  0  0  0
    8.0832    6.4810    2.6135 H   0  0  0  0  0  0  0  0  0  0  0  0
   10.1094    6.8417    4.2709 H   0  0  0  0  0  0  0  0  0  0  0  0
   10.5918    5.6355    2.9896 H   0  0  0  0  0  0  0  0  0  0  0  0
    8.6961    4.0953    1.8415 H   0  0  0  0  0  0  0  0  0  0  0  0
    0.6113    0.2630    4.6940 H   0  0  0  0  0  0  0  0  0  0  0  0
    3.5202   -3.4390    2.1253 H   0  0  0  0  0  0  0  0  0  0  0  0
    4.4192   -2.5022    3.3187 H   0  0  0  0  0  0  0  0  0  0  0  0
    3.9107   -1.5926    0.4215 H   0  0  0  0  0  0  0  0  0  0  0  0
    5.4646   -2.1912    1.1135 H   0  0  0  0  0  0  0  0  0  0  0  0
    4.7607   -0.6312    1.6897 H   0  0  0  0  0  0  0  0  0  0  0  0
   -4.3557   -4.6405   -5.3481 H   0  0  0  0  0  0  0  0  0  0  0  0
   -5.8795   -3.8572   -5.8744 H   0  0  0  0  0  0  0  0  0  0  0  0
   -4.0938   -3.7384   -7.6288 H   0  0  0  0  0  0  0  0  0  0  0  0
   -3.0410   -2.8005   -6.4976 H   0  0  0  0  0  0  0  0  0  0  0  0
   -4.6036   -2.0998   -7.0842 H   0  0  0  0  0  0  0  0  0  0  0  0
   -1.8987   -1.1148    3.7993 H   0  0  0  0  0  0  0  0  0  0  0  0
   -2.8070   -0.7952    2.3109 H   0  0  0  0  0  0  0  0  0  0  0  0
   -1.9499    1.6780    2.4697 H   0  0  0  0  0  0  0  0  0  0  0  0
   -1.3535    1.2519    4.1065 H   0  0  0  0  0  0  0  0  0  0  0  0
   -3.1045    1.1293    3.7404 H   0  0  0  0  0  0  0  0  0  0  0  0
   -2.5748    0.6148    0.6105 H   0  0  0  0  0  0  0  0  0  0  0  0
   -3.9882    0.3356   -0.4281 H   0  0  0  0  0  0  0  0  0  0  0  0
   -1.0587    0.8044   -1.3036 H   0  0  0  0  0  0  0  0  0  0  0  0
   -2.4149    0.4495   -2.4467 H   0  0  0  0  0  0  0  0  0  0  0  0
   -2.4443    1.9592   -1.4590 H   0  0  0  0  0  0  0  0  0  0  0  0
   -7.4817   -1.7671   -5.2314 H   0  0  0  0  0  0  0  0  0  0  0  0
   -4.1464    3.4810   -6.2507 H   0  0  0  0  0  0  0  0  0  0  0  0
   -4.2551    5.9583   -7.3328 H   0  0  0  0  0  0  0  0  0  0  0  0
   -5.8406    7.4052   -8.8312 H   0  0  0  0  0  0  0  0  0  0  0  0
   -8.5940    2.7827   -8.4587 H   0  0  0  0  0  0  0  0  0  0  0  0
  1  2  2  3
  2  3  1  0
  3  4  2  0
  3  5  1  0
  5  6  2  0
  6  7  1  0
  7  8  2  0
  8  9  1  0
  9 10  2  0
 10 11  1  0
 11 12  2  3
 12 13  1  0
 13 14  3  0
 12 15  1  0
 15 16  3  0
  8 17  1  0
 17 18  1  0
 18 19  1  0
 19 20  2  0
 20 21  1  0
 21 22  1  0
 21 23  1  0
  1 24  1  0
 24 25  2  0
 25 26  1  0
 26 27  2  0
 27 28  1  0
 28 29  1  0
 29 30  1  0
 27 31  1  0
 31 32  1  0
 32 33  1  0
 33 34  2  0
 34 35  1  0
 35 36  1  0
 33 37  1  0
 37 38  1  0
 38 39  1  0
 39 40  1  0
 40 41  1  0
 41 42  1  0
 42 43  1  0
 41 44  2  0
 44 45  1  0
 45 46  1  0
 46 47  1  0
 47 48  1  0
 48 49  1  0
 49 50  1  0
 50 51  1  0
 51 52  1  0
 52 53  1  0
 48 54  1  0
 54 55  1  0
 44 56  1  0
 56 57  2  3
 57 58  1  0
 58 59  2  0
 58 60  1  0
 60 61  2  0
 61 62  1  0
 62 63  1  0
 63 64  2  0
 64 65  1  0
 65 66  1  0
 66 67  1  0
 67 68  2  0
 68 69  1  0
 69 70  2  3
 70 71  1  0
 71 72  3  0
 70 73  1  0
 73 74  3  0
 11  2  1  0
 23 17  1  0
 28 24  1  0
 50 31  2  0
 69 57  1  0
 10  5  1  0
 22 18  1  0
 51 26  1  0
 68 60  1  0
 23  7  1  0
 36 32  2  0
 49 37  2  0
 66 62  2  0
 47 38  2  0
 46 40  2  0
  1 75  1  0
  6 76  1  0
  9 77  1  0
 17 78  1  0
 18 79  1  0
 19 80  1  0
 20 81  1  0
 21 82  1  0
 22 83  1  0
 22 84  1  0
 23 85  1  0
 25 86  1  0
 29 87  1  0
 29 88  1  0
 30 89  1  0
 30 90  1  0
 30 91  1  0
 42 92  1  0
 42 93  1  0
 43 94  1  0
 43 95  1  0
 43 96  1  0
 52 97  1  0
 52 98  1  0
 53 99  1  0
 53100  1  0
 53101  1  0
 54102  1  0
 54103  1  0
 55104  1  0
 55105  1  0
 55106  1  0
 56107  1  0
 61108  1  0
 63109  1  0
 64110  1  0
 67111  1  0
M  END

