
     RDKit          3D

136152  0  0  0  0  0  0  0  0999 V2000
   -3.8131    1.9457    6.1610 C   0  0  0  0  0  0  0  0  0  0  0  0
   -2.9825    2.8827    6.6530 C   0  0  0  0  0  0  0  0  0  0  0  0
   -1.9825    3.6230    5.8744 C   0  0  0  0  0  0  0  0  0  0  0  0
   -1.9792    3.7934    4.6273 O   0  0  0  0  0  0  0  0  0  0  0  0
   -1.0204    4.1964    6.7871 C   0  0  0  0  0  0  0  0  0  0  0  0
    0.1767    4.8691    6.4467 C   0  0  0  0  0  0  0  0  0  0  0  0
    0.9464    5.2222    7.5358 C   0  0  0  0  0  0  0  0  0  0  0  0
    0.5692    4.9331    8.8870 C   0  0  0  0  0  0  0  0  0  0  0  0
   -0.6002    4.2729    9.2263 C   0  0  0  0  0  0  0  0  0  0  0  0
   -1.4197    3.9165    8.1199 C   0  0  0  0  0  0  0  0  0  0  0  0
   -2.7249    3.1928    8.0938 C   0  0  0  0  0  0  0  0  0  0  0  0
   -3.5928    3.0450    9.1277 C   0  0  0  0  0  0  0  0  0  0  0  0
   -3.2819    3.4602   10.4693 C   0  0  0  0  0  0  0  0  0  0  0  0
   -3.0510    3.7878   11.5557 N   0  0  0  0  0  0  0  0  0  0  0  0
   -4.9431    2.5789    8.9439 C   0  0  0  0  0  0  0  0  0  0  0  0
   -6.0304    2.2067    8.8083 N   0  0  0  0  0  0  0  0  0  0  0  0
    1.8234    5.5794    9.3938 C   0  0  0  0  0  0  0  0  0  0  0  0
    1.7055    6.9935   10.0419 C   0  0  0  0  0  0  0  0  0  0  0  0
    0.5596    7.7575    9.4167 C   0  0  0  0  0  0  0  0  0  0  0  0
    0.9189    8.0210    8.1596 C   0  0  0  0  0  0  0  0  0  0  0  0
    2.2958    7.4261    7.9703 C   0  0  0  0  0  0  0  0  0  0  0  0
    2.8632    7.6942    9.3536 C   0  0  0  0  0  0  0  0  0  0  0  0
    2.2131    5.8698    8.0104 C   0  0  0  0  0  0  0  0  0  0  0  0
   -3.8443    1.5503    4.7455 C   0  0  0  0  0  0  0  0  0  0  0  0
   -4.9716    1.6099    3.9151 C   0  0  0  0  0  0  0  0  0  0  0  0
   -6.2690    2.1687    4.3272 C   0  0  0  0  0  0  0  0  0  0  0  0
   -7.1936    1.3087    4.9399 C   0  0  0  0  0  0  0  0  0  0  0  0
   -8.4062    1.8037    5.4235 C   0  0  0  0  0  0  0  0  0  0  0  0
   -8.7024    3.1615    5.3067 C   0  0  0  0  0  0  0  0  0  0  0  0
   -7.7931    4.0299    4.6963 C   0  0  0  0  0  0  0  0  0  0  0  0
   -6.5651    3.5494    4.2066 C   0  0  0  0  0  0  0  0  0  0  0  0
   -5.6201    4.5250    3.5421 C   0  0  0  0  0  0  0  0  0  0  0  0
   -6.0711    4.8345    2.1172 C   0  0  0  0  0  0  0  0  0  0  0  0
   -4.6816    1.1261    2.6401 C   0  0  0  0  0  0  0  0  0  0  0  0
   -5.5751    1.0338    1.1919 S   0  0  0  0  0  0  0  0  0  0  0  0
   -4.2283    0.3866    0.3846 C   0  0  0  0  0  0  0  0  0  0  0  0
   -3.8253    0.1773   -0.8989 C   0  0  0  0  0  0  0  0  0  0  0  0
   -4.4928    0.4206   -2.1026 C   0  0  0  0  0  0  0  0  0  0  0  0
   -3.7680    0.3137   -3.3204 C   0  0  0  0  0  0  0  0  0  0  0  0
   -4.4444    0.5727   -4.4671 N   0  0  0  0  0  0  0  0  0  0  0  0
   -5.9316    0.9387   -3.8351 S   0  0  0  0  0  0  0  0  0  0  0  0
   -5.7947    0.7896   -2.1915 N   0  0  0  0  0  0  0  0  0  0  0  0
   -2.4251   -0.0661   -3.2674 C   0  0  0  0  0  0  0  0  0  0  0  0
   -1.5588   -0.3805   -4.2692 C   0  0  0  0  0  0  0  0  0  0  0  0
   -1.5381   -0.4646   -5.9656 S   0  0  0  0  0  0  0  0  0  0  0  0
   -0.0073   -1.2182   -5.9246 C   0  0  0  0  0  0  0  0  0  0  0  0
    0.8509   -1.6985   -6.9130 C   0  0  0  0  0  0  0  0  0  0  0  0
    0.6310   -1.5190   -8.3603 C   0  0  0  0  0  0  0  0  0  0  0  0
   -0.3201   -2.2838   -9.0808 C   0  0  0  0  0  0  0  0  0  0  0  0
   -1.1110   -3.3970   -8.4326 C   0  0  0  0  0  0  0  0  0  0  0  0
   -0.3449   -4.7135   -8.5093 C   0  0  0  0  0  0  0  0  0  0  0  0
   -0.4619   -2.0694  -10.4652 C   0  0  0  0  0  0  0  0  0  0  0  0
    0.3105   -1.1071  -11.1197 C   0  0  0  0  0  0  0  0  0  0  0  0
    1.2437   -0.3554  -10.4060 C   0  0  0  0  0  0  0  0  0  0  0  0
    1.4047   -0.5609   -9.0347 C   0  0  0  0  0  0  0  0  0  0  0  0
    1.9838   -2.3053   -6.3460 C   0  0  0  0  0  0  0  0  0  0  0  0
    1.9178   -2.1796   -4.6431 S   0  0  0  0  0  0  0  0  0  0  0  0
    0.4312   -1.4052   -4.6369 C   0  0  0  0  0  0  0  0  0  0  0  0
   -0.4574   -0.9101   -3.6919 C   0  0  0  0  0  0  0  0  0  0  0  0
   -0.5341   -0.9509   -2.3367 N   0  0  0  0  0  0  0  0  0  0  0  0
   -1.7531   -0.3598   -2.0620 C   0  0  0  0  0  0  0  0  0  0  0  0
   -2.4531   -0.1396   -0.8320 C   0  0  0  0  0  0  0  0  0  0  0  0
   -2.0033   -0.0120    0.4684 N   0  0  0  0  0  0  0  0  0  0  0  0
   -3.1330    0.2666    1.1713 C   0  0  0  0  0  0  0  0  0  0  0  0
   -3.3896    0.6877    2.4709 C   0  0  0  0  0  0  0  0  0  0  0  0
   -2.5291    0.8744    3.8963 S   0  0  0  0  0  0  0  0  0  0  0  0
   -0.6484    0.2509    0.9677 C   0  0  0  0  0  0  0  0  0  0  0  0
    0.0171    1.4099    0.2237 C   0  0  0  0  0  0  0  0  0  0  0  0
    0.3610   -1.7402   -1.4835 C   0  0  0  0  0  0  0  0  0  0  0  0
   -0.3787   -2.8770   -0.7829 C   0  0  0  0  0  0  0  0  0  0  0  0
    3.1210   -2.8574   -7.1010 C   0  0  0  0  0  0  0  0  0  0  0  0
    3.6956   -4.0411   -6.8157 C   0  0  0  0  0  0  0  0  0  0  0  0
    3.2747   -4.9734   -5.7624 C   0  0  0  0  0  0  0  0  0  0  0  0
    2.1189   -5.0733   -5.2710 O   0  0  0  0  0  0  0  0  0  0  0  0
    4.3967   -5.8260   -5.4389 C   0  0  0  0  0  0  0  0  0  0  0  0
    4.5277   -6.7039   -4.3640 C   0  0  0  0  0  0  0  0  0  0  0  0
    5.7667   -7.3253   -4.1430 C   0  0  0  0  0  0  0  0  0  0  0  0
    5.8825   -8.1864   -3.0408 O   0  0  0  0  0  0  0  0  0  0  0  0
    6.8273   -9.2146   -2.8962 C   0  0  0  0  0  0  0  0  0  0  0  0
    7.4662   -9.6617   -3.8880 O   0  0  0  0  0  0  0  0  0  0  0  0
    6.9996   -9.8554   -1.5603 C   0  0  0  0  0  0  0  0  0  0  0  0
    6.8593   -7.0142   -4.9895 C   0  0  0  0  0  0  0  0  0  0  0  0
    6.7025   -6.1241   -6.0657 C   0  0  0  0  0  0  0  0  0  0  0  0
    5.4444   -5.5510   -6.3000 C   0  0  0  0  0  0  0  0  0  0  0  0
    5.0171   -4.5353   -7.3009 C   0  0  0  0  0  0  0  0  0  0  0  0
    5.5844   -4.3011   -8.5114 C   0  0  0  0  0  0  0  0  0  0  0  0
    4.9481   -3.4852   -9.5135 C   0  0  0  0  0  0  0  0  0  0  0  0
    4.4390   -2.8335  -10.3243 N   0  0  0  0  0  0  0  0  0  0  0  0
    6.7799   -4.9792   -8.9392 C   0  0  0  0  0  0  0  0  0  0  0  0
    7.7381   -5.5228   -9.2975 N   0  0  0  0  0  0  0  0  0  0  0  0
   -4.4625    1.3865    6.8099 H   0  0  0  0  0  0  0  0  0  0  0  0
    0.4754    5.0694    5.4257 H   0  0  0  0  0  0  0  0  0  0  0  0
   -0.8133    4.0343   10.2533 H   0  0  0  0  0  0  0  0  0  0  0  0
    2.5133    4.8787    9.9144 H   0  0  0  0  0  0  0  0  0  0  0  0
    1.7281    7.0091   11.1523 H   0  0  0  0  0  0  0  0  0  0  0  0
   -0.3421    8.1075    9.9071 H   0  0  0  0  0  0  0  0  0  0  0  0
    0.3577    8.6190    7.4518 H   0  0  0  0  0  0  0  0  0  0  0  0
    2.8791    7.8465    7.1232 H   0  0  0  0  0  0  0  0  0  0  0  0
    3.8482    7.2038    9.5319 H   0  0  0  0  0  0  0  0  0  0  0  0
    2.9336    8.7799    9.6006 H   0  0  0  0  0  0  0  0  0  0  0  0
    3.1382    5.3411    7.6874 H   0  0  0  0  0  0  0  0  0  0  0  0
   -6.9667    0.2554    5.0526 H   0  0  0  0  0  0  0  0  0  0  0  0
   -9.1127    1.1326    5.8976 H   0  0  0  0  0  0  0  0  0  0  0  0
   -9.6403    3.5414    5.6862 H   0  0  0  0  0  0  0  0  0  0  0  0
   -8.0448    5.0782    4.6107 H   0  0  0  0  0  0  0  0  0  0  0  0
   -5.5937    5.4705    4.1248 H   0  0  0  0  0  0  0  0  0  0  0  0
   -4.5808    4.1376    3.5168 H   0  0  0  0  0  0  0  0  0  0  0  0
   -6.1275    3.9025    1.5186 H   0  0  0  0  0  0  0  0  0  0  0  0
   -7.0698    5.3235    2.1233 H   0  0  0  0  0  0  0  0  0  0  0  0
   -5.3437    5.5200    1.6356 H   0  0  0  0  0  0  0  0  0  0  0  0
   -2.0895   -3.5155   -8.9447 H   0  0  0  0  0  0  0  0  0  0  0  0
   -1.3370   -3.1667   -7.3718 H   0  0  0  0  0  0  0  0  0  0  0  0
   -0.9389   -5.5183   -8.0293 H   0  0  0  0  0  0  0  0  0  0  0  0
   -0.1644   -4.9899   -9.5702 H   0  0  0  0  0  0  0  0  0  0  0  0
    0.6287   -4.6266   -7.9817 H   0  0  0  0  0  0  0  0  0  0  0  0
   -1.1653   -2.6584  -11.0418 H   0  0  0  0  0  0  0  0  0  0  0  0
    0.1935   -0.9512  -12.1850 H   0  0  0  0  0  0  0  0  0  0  0  0
    1.8469    0.3845  -10.9179 H   0  0  0  0  0  0  0  0  0  0  0  0
    2.1379    0.0282   -8.4976 H   0  0  0  0  0  0  0  0  0  0  0  0
   -0.0483   -0.6705    0.9813 H   0  0  0  0  0  0  0  0  0  0  0  0
   -0.6792    0.5454    2.0301 H   0  0  0  0  0  0  0  0  0  0  0  0
    0.9841    1.6593    0.7080 H   0  0  0  0  0  0  0  0  0  0  0  0
    0.2163    1.1543   -0.8349 H   0  0  0  0  0  0  0  0  0  0  0  0
   -0.6410    2.3041    0.2565 H   0  0  0  0  0  0  0  0  0  0  0  0
    0.9238   -1.0929   -0.7980 H   0  0  0  0  0  0  0  0  0  0  0  0
    1.1536   -2.2134   -2.0875 H   0  0  0  0  0  0  0  0  0  0  0  0
   -0.8257   -3.5561   -1.5370 H   0  0  0  0  0  0  0  0  0  0  0  0
   -1.1842   -2.4971   -0.1262 H   0  0  0  0  0  0  0  0  0  0  0  0
    0.3332   -3.4581   -0.1612 H   0  0  0  0  0  0  0  0  0  0  0  0
    3.5443   -2.2109   -7.8524 H   0  0  0  0  0  0  0  0  0  0  0  0
    3.6953   -6.8800   -3.6938 H   0  0  0  0  0  0  0  0  0  0  0  0
    8.0189  -10.2863   -1.4707 H   0  0  0  0  0  0  0  0  0  0  0  0
    6.8597   -9.1004   -0.7578 H   0  0  0  0  0  0  0  0  0  0  0  0
    6.2462  -10.6626   -1.4355 H   0  0  0  0  0  0  0  0  0  0  0  0
    7.8429   -7.4136   -4.7950 H   0  0  0  0  0  0  0  0  0  0  0  0
    7.5645   -5.8615   -6.6556 H   0  0  0  0  0  0  0  0  0  0  0  0
  1  2  2  3
  2  3  1  0
  3  4  2  0
  3  5  1  0
  5  6  2  0
  6  7  1  0
  7  8  2  0
  8  9  1  0
  9 10  2  0
 10 11  1  0
 11 12  2  3
 12 13  1  0
 13 14  3  0
 12 15  1  0
 15 16  3  0
  8 17  1  0
 17 18  1  0
 18 19  1  0
 19 20  2  0
 20 21  1  0
 21 22  1  0
 21 23  1  0
  1 24  1  0
 24 25  2  0
 25 26  1  0
 26 27  2  0
 27 28  1  0
 28 29  2  0
 29 30  1  0
 30 31  2  0
 31 32  1  0
 32 33  1  0
 25 34  1  0
 34 35  1  0
 35 36  1  0
 36 37  1  0
 37 38  1  0
 38 39  1  0
 39 40  2  0
 40 41  1  0
 41 42  1  0
 39 43  1  0
 43 44  1  0
 44 45  1  0
 45 46  1  0
 46 47  1  0
 47 48  1  0
 48 49  2  0
 49 50  1  0
 50 51  1  0
 49 52  1  0
 52 53  2  0
 53 54  1  0
 54 55  2  0
 47 56  2  0
 56 57  1  0
 57 58  1  0
 58 59  1  0
 59 60  1  0
 60 61  1  0
 61 62  1  0
 62 63  1  0
 63 64  1  0
 64 65  1  0
 65 66  1  0
 63 67  1  0
 67 68  1  0
 60 69  1  0
 69 70  1  0
 56 71  1  0
 71 72  2  3
 72 73  1  0
 73 74  2  0
 73 75  1  0
 75 76  2  0
 76 77  1  0
 77 78  1  0
 78 79  1  0
 79 80  2  0
 79 81  1  0
 77 82  2  0
 82 83  1  0
 83 84  2  0
 84 85  1  0
 85 86  2  3
 86 87  1  0
 87 88  3  0
 86 89  1  0
 89 90  3  0
 11  2  1  0
 23 17  1  0
 66 24  1  0
 85 72  1  0
 10  5  1  0
 22 18  1  0
 31 26  1  0
 65 34  2  0
 84 75  1  0
 23  7  1  0
 64 36  2  0
 62 37  2  0
 42 38  2  0
 61 43  2  0
 59 44  2  0
 58 46  2  0
 55 48  1  0
  1 91  1  0
  6 92  1  0
  9 93  1  0
 17 94  1  0
 18 95  1  0
 19 96  1  0
 20 97  1  0
 21 98  1  0
 22 99  1  0
 22100  1  0
 23101  1  0
 27102  1  0
 28103  1  0
 29104  1  0
 30105  1  0
 32106  1  0
 32107  1  0
 33108  1  0
 33109  1  0
 33110  1  0
 50111  1  0
 50112  1  0
 51113  1  0
 51114  1  0
 51115  1  0
 52116  1  0
 53117  1  0
 54118  1  0
 55119  1  0
 67120  1  0
 67121  1  0
 68122  1  0
 68123  1  0
 68124  1  0
 69125  1  0
 69126  1  0
 70127  1  0
 70128  1  0
 70129  1  0
 71130  1  0
 76131  1  0
 81132  1  0
 81133  1  0
 81134  1  0
 82135  1  0
 83136  1  0
M  END

