
     RDKit          3D

120136  0  0  0  0  0  0  0  0999 V2000
   -0.2617    3.5858    6.0550 C   0  0  0  0  0  0  0  0  0  0  0  0
    0.5663    4.1690    5.1663 C   0  0  0  0  0  0  0  0  0  0  0  0
    1.2761    3.4668    4.0830 C   0  0  0  0  0  0  0  0  0  0  0  0
    1.4580    2.2239    3.9830 O   0  0  0  0  0  0  0  0  0  0  0  0
    1.6946    4.4369    3.0988 C   0  0  0  0  0  0  0  0  0  0  0  0
    2.2939    4.1681    1.8467 C   0  0  0  0  0  0  0  0  0  0  0  0
    2.4453    5.2855    1.0483 C   0  0  0  0  0  0  0  0  0  0  0  0
    2.0196    6.5955    1.4444 C   0  0  0  0  0  0  0  0  0  0  0  0
    1.4378    6.8647    2.6737 C   0  0  0  0  0  0  0  0  0  0  0  0
    1.3100    5.7322    3.5295 C   0  0  0  0  0  0  0  0  0  0  0  0
    0.7041    5.6340    4.8888 C   0  0  0  0  0  0  0  0  0  0  0  0
    0.5267    6.6514    5.7708 C   0  0  0  0  0  0  0  0  0  0  0  0
    0.1017    6.4331    7.1285 C   0  0  0  0  0  0  0  0  0  0  0  0
   -0.2462    6.2719    8.2229 N   0  0  0  0  0  0  0  0  0  0  0  0
    0.8620    8.0148    5.4545 C   0  0  0  0  0  0  0  0  0  0  0  0
    1.1316    9.1149    5.2125 N   0  0  0  0  0  0  0  0  0  0  0  0
    2.4402    7.1508    0.1145 C   0  0  0  0  0  0  0  0  0  0  0  0
    1.3279    7.4889   -0.9247 C   0  0  0  0  0  0  0  0  0  0  0  0
    0.1434    6.5671   -0.7367 C   0  0  0  0  0  0  0  0  0  0  0  0
    0.5497    5.3482   -1.1022 C   0  0  0  0  0  0  0  0  0  0  0  0
    1.9974    5.4827   -1.5222 C   0  0  0  0  0  0  0  0  0  0  0  0
    1.9309    6.8558   -2.1665 C   0  0  0  0  0  0  0  0  0  0  0  0
    2.8858    5.8112   -0.2841 C   0  0  0  0  0  0  0  0  0  0  0  0
   -0.5277    2.1408    6.0457 C   0  0  0  0  0  0  0  0  0  0  0  0
    0.5540    0.9692    6.6628 S   0  0  0  0  0  0  0  0  0  0  0  0
   -0.3073   -0.2886    5.9741 C   0  0  0  0  0  0  0  0  0  0  0  0
   -0.1396   -1.6115    5.6934 C   0  0  0  0  0  0  0  0  0  0  0  0
    0.8524   -2.5197    6.0685 C   0  0  0  0  0  0  0  0  0  0  0  0
    0.8415   -3.8188    5.4864 C   0  0  0  0  0  0  0  0  0  0  0  0
    1.8403   -4.6608    5.8518 N   0  0  0  0  0  0  0  0  0  0  0  0
    2.6572   -3.6882    6.9133 S   0  0  0  0  0  0  0  0  0  0  0  0
    1.8494   -2.2431    6.9462 N   0  0  0  0  0  0  0  0  0  0  0  0
   -0.1269   -4.1191    4.5180 C   0  0  0  0  0  0  0  0  0  0  0  0
   -0.0955   -5.0889    3.5521 C   0  0  0  0  0  0  0  0  0  0  0  0
    1.1177   -6.1386    2.9876 S   0  0  0  0  0  0  0  0  0  0  0  0
    0.4755   -6.1192    1.4156 C   0  0  0  0  0  0  0  0  0  0  0  0
    0.9715   -6.5637    0.1855 C   0  0  0  0  0  0  0  0  0  0  0  0
    2.2367   -7.3572    0.0233 C   0  0  0  0  0  0  0  0  0  0  0  0
    3.4439   -6.4326   -0.0974 C   0  0  0  0  0  0  0  0  0  0  0  0
    0.2407   -6.0027   -0.8762 C   0  0  0  0  0  0  0  0  0  0  0  0
   -1.0098   -5.0210   -0.2651 S   0  0  0  0  0  0  0  0  0  0  0  0
   -0.6081   -5.2802    1.3405 C   0  0  0  0  0  0  0  0  0  0  0  0
   -0.9328   -4.6847    2.5572 C   0  0  0  0  0  0  0  0  0  0  0  0
   -1.5510   -3.5098    2.8420 N   0  0  0  0  0  0  0  0  0  0  0  0
   -1.0822   -3.1737    4.0912 C   0  0  0  0  0  0  0  0  0  0  0  0
   -1.1564   -1.9276    4.7803 C   0  0  0  0  0  0  0  0  0  0  0  0
   -2.0079   -0.8597    4.6150 N   0  0  0  0  0  0  0  0  0  0  0  0
   -1.3893    0.1396    5.2981 C   0  0  0  0  0  0  0  0  0  0  0  0
   -1.5559    1.5316    5.2966 C   0  0  0  0  0  0  0  0  0  0  0  0
   -2.5339    2.2995    4.4435 C   0  0  0  0  0  0  0  0  0  0  0  0
   -3.6657    2.8847    5.2830 C   0  0  0  0  0  0  0  0  0  0  0  0
   -3.4729   -0.8834    4.4246 C   0  0  0  0  0  0  0  0  0  0  0  0
   -4.1166   -2.2045    4.8555 C   0  0  0  0  0  0  0  0  0  0  0  0
   -2.1527   -2.6366    1.8267 C   0  0  0  0  0  0  0  0  0  0  0  0
   -1.1393   -1.6237    1.2954 C   0  0  0  0  0  0  0  0  0  0  0  0
    0.5054   -6.2089   -2.3099 C   0  0  0  0  0  0  0  0  0  0  0  0
    0.6515   -5.1969   -3.1889 C   0  0  0  0  0  0  0  0  0  0  0  0
    0.6598   -3.7656   -2.8571 C   0  0  0  0  0  0  0  0  0  0  0  0
    0.9459   -3.2598   -1.7384 O   0  0  0  0  0  0  0  0  0  0  0  0
    0.3600   -3.0124   -4.0538 C   0  0  0  0  0  0  0  0  0  0  0  0
    0.1068   -1.6251   -4.1512 C   0  0  0  0  0  0  0  0  0  0  0  0
   -0.3001   -1.2169   -5.4055 C   0  0  0  0  0  0  0  0  0  0  0  0
   -0.4536   -2.1157   -6.5085 C   0  0  0  0  0  0  0  0  0  0  0  0
   -0.1962   -3.4741   -6.4227 C   0  0  0  0  0  0  0  0  0  0  0  0
    0.2492   -3.9118   -5.1454 C   0  0  0  0  0  0  0  0  0  0  0  0
    0.5843   -5.2864   -4.6789 C   0  0  0  0  0  0  0  0  0  0  0  0
    0.9862   -6.3273   -5.4534 C   0  0  0  0  0  0  0  0  0  0  0  0
    1.5463   -7.5307   -4.8938 C   0  0  0  0  0  0  0  0  0  0  0  0
    2.0011   -8.4996   -4.4536 N   0  0  0  0  0  0  0  0  0  0  0  0
    1.0269   -6.2486   -6.8914 C   0  0  0  0  0  0  0  0  0  0  0  0
    1.0676   -6.1967   -8.0479 N   0  0  0  0  0  0  0  0  0  0  0  0
   -0.9115   -0.9883   -7.3846 C   0  0  0  0  0  0  0  0  0  0  0  0
    0.1108   -0.4673   -8.4355 C   0  0  0  0  0  0  0  0  0  0  0  0
   -0.4184    0.8712   -8.8933 C   0  0  0  0  0  0  0  0  0  0  0  0
   -0.2660    1.7146   -7.8629 C   0  0  0  0  0  0  0  0  0  0  0  0
    0.3597    0.9133   -6.7462 C   0  0  0  0  0  0  0  0  0  0  0  0
    1.2667    0.0210   -7.5774 C   0  0  0  0  0  0  0  0  0  0  0  0
   -0.7466   -0.0664   -6.2559 C   0  0  0  0  0  0  0  0  0  0  0  0
   -0.9134    4.1812    6.6713 H   0  0  0  0  0  0  0  0  0  0  0  0
    2.5623    3.1720    1.5173 H   0  0  0  0  0  0  0  0  0  0  0  0
    1.0714    7.8509    2.9057 H   0  0  0  0  0  0  0  0  0  0  0  0
    3.2663    7.8937    0.1807 H   0  0  0  0  0  0  0  0  0  0  0  0
    1.0760    8.5679   -1.0112 H   0  0  0  0  0  0  0  0  0  0  0  0
   -0.8666    6.8412   -0.4508 H   0  0  0  0  0  0  0  0  0  0  0  0
   -0.0729    4.4618   -1.1637 H   0  0  0  0  0  0  0  0  0  0  0  0
    2.3731    4.6672   -2.1757 H   0  0  0  0  0  0  0  0  0  0  0  0
    2.9327    7.2692   -2.4385 H   0  0  0  0  0  0  0  0  0  0  0  0
    1.2578    6.8937   -3.0577 H   0  0  0  0  0  0  0  0  0  0  0  0
    3.9829    5.7393   -0.4592 H   0  0  0  0  0  0  0  0  0  0  0  0
    2.3709   -8.0318    0.8958 H   0  0  0  0  0  0  0  0  0  0  0  0
    2.1683   -7.9954   -0.8850 H   0  0  0  0  0  0  0  0  0  0  0  0
    3.3253   -5.7531   -0.9680 H   0  0  0  0  0  0  0  0  0  0  0  0
    4.3629   -7.0367   -0.2422 H   0  0  0  0  0  0  0  0  0  0  0  0
    3.5573   -5.8293    0.8258 H   0  0  0  0  0  0  0  0  0  0  0  0
   -2.0039    3.1277    3.9246 H   0  0  0  0  0  0  0  0  0  0  0  0
   -2.9517    1.6559    3.6435 H   0  0  0  0  0  0  0  0  0  0  0  0
   -4.1576    2.0901    5.8867 H   0  0  0  0  0  0  0  0  0  0  0  0
   -4.4247    3.3458    4.6154 H   0  0  0  0  0  0  0  0  0  0  0  0
   -3.2744    3.6683    5.9656 H   0  0  0  0  0  0  0  0  0  0  0  0
   -3.7522   -0.5872    3.3957 H   0  0  0  0  0  0  0  0  0  0  0  0
   -3.9347   -0.1099    5.0713 H   0  0  0  0  0  0  0  0  0  0  0  0
   -5.2227   -2.1008    4.8286 H   0  0  0  0  0  0  0  0  0  0  0  0
   -3.8115   -2.4590    5.8926 H   0  0  0  0  0  0  0  0  0  0  0  0
   -3.8388   -3.0362    4.1826 H   0  0  0  0  0  0  0  0  0  0  0  0
   -3.0389   -2.1359    2.2115 H   0  0  0  0  0  0  0  0  0  0  0  0
   -2.5533   -3.2349    0.9870 H   0  0  0  0  0  0  0  0  0  0  0  0
   -0.2692   -2.1522    0.8547 H   0  0  0  0  0  0  0  0  0  0  0  0
   -0.7913   -0.9578    2.1088 H   0  0  0  0  0  0  0  0  0  0  0  0
   -1.6132   -0.9985    0.5090 H   0  0  0  0  0  0  0  0  0  0  0  0
    0.4482   -7.2293   -2.6493 H   0  0  0  0  0  0  0  0  0  0  0  0
    0.1822   -0.9477   -3.3122 H   0  0  0  0  0  0  0  0  0  0  0  0
   -0.3814   -4.1260   -7.2617 H   0  0  0  0  0  0  0  0  0  0  0  0
   -1.9597   -1.1012   -7.7406 H   0  0  0  0  0  0  0  0  0  0  0  0
    0.3722   -1.1779   -9.2486 H   0  0  0  0  0  0  0  0  0  0  0  0
   -0.7609    1.1375   -9.8878 H   0  0  0  0  0  0  0  0  0  0  0  0
   -0.4617    2.7823   -7.8782 H   0  0  0  0  0  0  0  0  0  0  0  0
    0.8604    1.5109   -5.9572 H   0  0  0  0  0  0  0  0  0  0  0  0
    1.7745   -0.7830   -6.9982 H   0  0  0  0  0  0  0  0  0  0  0  0
    2.0352    0.5881   -8.1556 H   0  0  0  0  0  0  0  0  0  0  0  0
   -1.6919    0.4045   -5.9055 H   0  0  0  0  0  0  0  0  0  0  0  0
  1  2  2  3
  2  3  1  0
  3  4  2  0
  3  5  1  0
  5  6  2  0
  6  7  1  0
  7  8  2  0
  8  9  1  0
  9 10  2  0
 10 11  1  0
 11 12  2  3
 12 13  1  0
 13 14  3  0
 12 15  1  0
 15 16  3  0
  8 17  1  0
 17 18  1  0
 18 19  1  0
 19 20  2  0
 20 21  1  0
 21 22  1  0
 21 23  1  0
  1 24  1  0
 24 25  1  0
 25 26  1  0
 26 27  1  0
 27 28  1  0
 28 29  1  0
 29 30  2  0
 30 31  1  0
 31 32  1  0
 29 33  1  0
 33 34  1  0
 34 35  1  0
 35 36  1  0
 36 37  1  0
 37 38  1  0
 38 39  1  0
 37 40  2  0
 40 41  1  0
 41 42  1  0
 42 43  1  0
 43 44  1  0
 44 45  1  0
 45 46  1  0
 46 47  1  0
 47 48  1  0
 48 49  1  0
 49 50  1  0
 50 51  1  0
 47 52  1  0
 52 53  1  0
 44 54  1  0
 54 55  1  0
 40 56  1  0
 56 57  2  3
 57 58  1  0
 58 59  2  0
 58 60  1  0
 60 61  2  0
 61 62  1  0
 62 63  2  0
 63 64  1  0
 64 65  2  0
 65 66  1  0
 66 67  2  3
 67 68  1  0
 68 69  3  0
 67 70  1  0
 70 71  3  0
 63 72  1  0
 72 73  1  0
 73 74  1  0
 74 75  2  0
 75 76  1  0
 76 77  1  0
 76 78  1  0
 11  2  1  0
 23 17  1  0
 49 24  2  0
 66 57  1  0
 78 72  1  0
 10  5  1  0
 22 18  1  0
 48 26  2  0
 65 60  1  0
 77 73  1  0
 23  7  1  0
 46 27  2  0
 78 62  1  0
 32 28  2  0
 45 33  2  0
 43 34  2  0
 42 36  2  0
  1 79  1  0
  6 80  1  0
  9 81  1  0
 17 82  1  0
 18 83  1  0
 19 84  1  0
 20 85  1  0
 21 86  1  0
 22 87  1  0
 22 88  1  0
 23 89  1  0
 38 90  1  0
 38 91  1  0
 39 92  1  0
 39 93  1  0
 39 94  1  0
 50 95  1  0
 50 96  1  0
 51 97  1  0
 51 98  1  0
 51 99  1  0
 52100  1  0
 52101  1  0
 53102  1  0
 53103  1  0
 53104  1  0
 54105  1  0
 54106  1  0
 55107  1  0
 55108  1  0
 55109  1  0
 56110  1  0
 61111  1  0
 64112  1  0
 72113  1  0
 73114  1  0
 74115  1  0
 75116  1  0
 76117  1  0
 77118  1  0
 77119  1  0
 78120  1  0
M  END

