
     RDKit          3D

110124  0  0  0  0  0  0  0  0999 V2000
    5.4671    3.3460    4.4748 C   0  0  0  0  0  0  0  0  0  0  0  0
    4.2499    2.7873    4.9563 C   0  0  0  0  0  0  0  0  0  0  0  0
    3.0138    2.8811    4.2608 C   0  0  0  0  0  0  0  0  0  0  0  0
    2.6365    3.7810    3.4033 O   0  0  0  0  0  0  0  0  0  0  0  0
    2.1035    1.8008    4.6137 C   0  0  0  0  0  0  0  0  0  0  0  0
    0.8205    1.4799    4.1926 C   0  0  0  0  0  0  0  0  0  0  0  0
    0.1656    0.3791    4.6959 C   0  0  0  0  0  0  0  0  0  0  0  0
    0.8624   -0.4237    5.6921 C   0  0  0  0  0  0  0  0  0  0  0  0
    2.1206   -0.0598    6.0541 C   0  0  0  0  0  0  0  0  0  0  0  0
    2.7417    1.0338    5.5176 C   0  0  0  0  0  0  0  0  0  0  0  0
    4.1560    1.6217    5.7912 C   0  0  0  0  0  0  0  0  0  0  0  0
    4.8514    1.1283    6.7575 C   0  0  0  0  0  0  0  0  0  0  0  0
    5.5074    0.6117    7.7059 C   0  0  0  0  0  0  0  0  0  0  0  0
    6.1485    0.1290    8.6368 N   0  0  0  0  0  0  0  0  0  0  0  0
    4.6330   -0.3691    5.8077 C   0  0  0  0  0  0  0  0  0  0  0  0
    4.4854   -1.4584    5.1411 N   0  0  0  0  0  0  0  0  0  0  0  0
   -0.3122   -1.3146    5.8436 C   0  0  0  0  0  0  0  0  0  0  0  0
   -0.0939   -2.6898    5.3322 C   0  0  0  0  0  0  0  0  0  0  0  0
    0.9073   -2.6506    4.2419 C   0  0  0  0  0  0  0  0  0  0  0  0
    0.4167   -1.8551    3.3091 C   0  0  0  0  0  0  0  0  0  0  0  0
   -1.0145   -1.5764    3.6264 C   0  0  0  0  0  0  0  0  0  0  0  0
   -1.3594   -2.8141    4.4461 C   0  0  0  0  0  0  0  0  0  0  0  0
   -0.9805   -0.5311    4.7343 C   0  0  0  0  0  0  0  0  0  0  0  0
    5.1798    3.9047    3.1192 C   0  0  0  0  0  0  0  0  0  0  0  0
    5.1425    4.9101    2.3202 C   0  0  0  0  0  0  0  0  0  0  0  0
    5.5918    6.2676    2.8193 C   0  0  0  0  0  0  0  0  0  0  0  0
    7.1018    6.2769    2.9319 C   0  0  0  0  0  0  0  0  0  0  0  0
    4.6507    4.7033    1.0602 C   0  0  0  0  0  0  0  0  0  0  0  0
    3.9764    5.8296   -0.4969 Se  0  0  0  0  0  2  0  0  0  0  0  0
    3.2171    4.3562   -1.3409 C   0  0  0  0  0  0  0  0  0  0  0  0
    2.3572    3.9321   -2.2878 C   0  0  0  0  0  0  0  0  0  0  0  0
    1.4237    4.7774   -3.4620 C   0  0  0  0  0  0  0  0  0  0  0  0
    0.7943    3.9034   -3.6212 C   0  0  0  0  0  0  0  0  0  0  0  0
    0.3924    4.6537   -5.0280 N   0  0  0  0  0  0  0  0  0  0  0  0
    1.3214    6.1233   -4.9445 S   0  0  0  0  0  0  0  0  0  0  0  0
    2.1794    5.8040   -3.2491 N   0  0  0  0  0  0  0  0  0  0  0  0
    0.2910    2.6704   -3.5289 C   0  0  0  0  0  0  0  0  0  0  0  0
   -0.7307    1.8797   -3.8744 C   0  0  0  0  0  0  0  0  0  0  0  0
   -2.3053    1.8666   -4.8772 Se  0  0  0  0  0  2  0  0  0  0  0  0
   -2.7183   -0.1139   -4.1917 C   0  0  0  0  0  0  0  0  0  0  0  0
   -3.7035   -0.9187   -4.4423 C   0  0  0  0  0  0  0  0  0  0  0  0
   -4.9089   -0.6548   -5.2853 C   0  0  0  0  0  0  0  0  0  0  0  0
   -5.8504    0.1829   -4.4643 C   0  0  0  0  0  0  0  0  0  0  0  0
   -3.5563   -2.1258   -3.7882 C   0  0  0  0  0  0  0  0  0  0  0  0
   -2.0632   -1.9030   -2.9401 S   0  0  0  0  0  0  0  0  0  0  0  0
   -1.7137   -0.2133   -3.5037 C   0  0  0  0  0  0  0  0  0  0  0  0
   -0.6865    0.6494   -3.2605 C   0  0  0  0  0  0  0  0  0  0  0  0
    0.4782    0.7024   -2.4610 N   0  0  0  0  0  0  0  0  0  0  0  0
    1.0522    1.8622   -2.6142 C   0  0  0  0  0  0  0  0  0  0  0  0
    2.0880    2.6457   -2.0658 C   0  0  0  0  0  0  0  0  0  0  0  0
    2.8286    2.3085   -1.0268 N   0  0  0  0  0  0  0  0  0  0  0  0
    3.5416    3.3721   -0.4972 C   0  0  0  0  0  0  0  0  0  0  0  0
    4.2332    3.5956    0.6586 C   0  0  0  0  0  0  0  0  0  0  0  0
    4.5152    2.5963    2.0615 S   0  0  0  0  0  0  0  0  0  0  0  0
    3.3700    0.9291   -0.8397 C   0  0  0  0  0  0  0  0  0  0  0  0
    4.9193    1.0917   -1.2490 C   0  0  0  0  0  0  0  0  0  0  0  0
    0.7680   -0.3654   -1.5255 C   0  0  0  0  0  0  0  0  0  0  0  0
    1.4596   -1.4828   -2.2345 C   0  0  0  0  0  0  0  0  0  0  0  0
   -4.3279   -3.3487   -3.7885 C   0  0  0  0  0  0  0  0  0  0  0  0
   -4.6121   -4.0207   -2.6606 C   0  0  0  0  0  0  0  0  0  0  0  0
   -4.1940   -3.6126   -1.3301 C   0  0  0  0  0  0  0  0  0  0  0  0
   -3.5249   -2.7344   -0.8641 O   0  0  0  0  0  0  0  0  0  0  0  0
   -4.8477   -4.6897   -0.4326 C   0  0  0  0  0  0  0  0  0  0  0  0
   -4.6685   -4.7163    0.9673 C   0  0  0  0  0  0  0  0  0  0  0  0
   -5.3202   -5.8423    1.6197 C   0  0  0  0  0  0  0  0  0  0  0  0
   -5.9802   -6.6724    0.8681 C   0  0  0  0  0  0  0  0  0  0  0  0
   -6.7936   -8.0680    1.7127 Cl  0  0  0  0  0  0  0  0  0  0  0  0
   -6.1559   -6.6460   -0.5025 C   0  0  0  0  0  0  0  0  0  0  0  0
   -5.4723   -5.4767   -1.1358 C   0  0  0  0  0  0  0  0  0  0  0  0
   -5.4737   -5.2656   -2.6109 C   0  0  0  0  0  0  0  0  0  0  0  0
   -5.9233   -5.9105   -3.5966 C   0  0  0  0  0  0  0  0  0  0  0  0
   -6.8150   -7.1669   -3.3012 C   0  0  0  0  0  0  0  0  0  0  0  0
   -7.4023   -7.9802   -3.0978 N   0  0  0  0  0  0  0  0  0  0  0  0
   -5.7078   -5.8261   -4.9579 C   0  0  0  0  0  0  0  0  0  0  0  0
   -5.5340   -5.7625   -6.1713 N   0  0  0  0  0  0  0  0  0  0  0  0
    6.3236    3.3621    4.9441 H   0  0  0  0  0  0  0  0  0  0  0  0
    0.3144    2.0807    3.4486 H   0  0  0  0  0  0  0  0  0  0  0  0
    2.6109   -0.6459    6.8287 H   0  0  0  0  0  0  0  0  0  0  0  0
   -0.8153   -1.2427    6.8389 H   0  0  0  0  0  0  0  0  0  0  0  0
    0.0159   -3.4689    6.0594 H   0  0  0  0  0  0  0  0  0  0  0  0
    1.8685   -3.2045    4.2452 H   0  0  0  0  0  0  0  0  0  0  0  0
    0.9311   -1.4699    2.4591 H   0  0  0  0  0  0  0  0  0  0  0  0
   -1.6628   -1.3858    2.8050 H   0  0  0  0  0  0  0  0  0  0  0  0
   -1.3760   -3.7266    3.8638 H   0  0  0  0  0  0  0  0  0  0  0  0
   -2.2580   -2.6626    5.0829 H   0  0  0  0  0  0  0  0  0  0  0  0
   -1.9633   -0.1116    5.0102 H   0  0  0  0  0  0  0  0  0  0  0  0
    5.2441    7.0485    2.1625 H   0  0  0  0  0  0  0  0  0  0  0  0
    5.1714    6.4353    3.8139 H   0  0  0  0  0  0  0  0  0  0  0  0
    7.4400    6.4769    3.9678 H   0  0  0  0  0  0  0  0  0  0  0  0
    7.4864    5.2604    2.6523 H   0  0  0  0  0  0  0  0  0  0  0  0
    7.4959    7.0262    2.2261 H   0  0  0  0  0  0  0  0  0  0  0  0
   -4.6197   -0.0013   -6.1608 H   0  0  0  0  0  0  0  0  0  0  0  0
   -5.3291   -1.5584   -5.7167 H   0  0  0  0  0  0  0  0  0  0  0  0
   -6.5017   -0.5112   -3.9203 H   0  0  0  0  0  0  0  0  0  0  0  0
   -6.4578    0.8230   -5.1141 H   0  0  0  0  0  0  0  0  0  0  0  0
   -5.2866    0.7456   -3.6743 H   0  0  0  0  0  0  0  0  0  0  0  0
    3.0966    0.2780   -1.6282 H   0  0  0  0  0  0  0  0  0  0  0  0
    3.3882    0.7132    0.1809 H   0  0  0  0  0  0  0  0  0  0  0  0
    5.4423    0.1792   -1.0762 H   0  0  0  0  0  0  0  0  0  0  0  0
    4.8522    1.2907   -2.3433 H   0  0  0  0  0  0  0  0  0  0  0  0
    5.3085    1.9926   -0.7896 H   0  0  0  0  0  0  0  0  0  0  0  0
   -0.2468   -0.8593   -1.2316 H   0  0  0  0  0  0  0  0  0  0  0  0
    1.0912   -0.0928   -0.5315 H   0  0  0  0  0  0  0  0  0  0  0  0
    2.3139   -1.9302   -1.6825 H   0  0  0  0  0  0  0  0  0  0  0  0
    0.8311   -2.3128   -2.5852 H   0  0  0  0  0  0  0  0  0  0  0  0
    1.9398   -1.0840   -3.1939 H   0  0  0  0  0  0  0  0  0  0  0  0
   -4.6728   -3.7183   -4.7034 H   0  0  0  0  0  0  0  0  0  0  0  0
   -4.1366   -4.0414    1.5498 H   0  0  0  0  0  0  0  0  0  0  0  0
   -5.1852   -5.8764    2.6861 H   0  0  0  0  0  0  0  0  0  0  0  0
   -6.6830   -7.3101   -1.0032 H   0  0  0  0  0  0  0  0  0  0  0  0
  1  2  2  3
  2  3  1  0
  3  4  2  0
  3  5  1  0
  5  6  2  0
  6  7  1  0
  7  8  2  0
  8  9  1  0
  9 10  2  0
 10 11  1  0
 11 12  2  3
 12 13  1  0
 13 14  3  0
 12 15  1  0
 15 16  3  0
  8 17  1  0
 17 18  1  0
 18 19  1  0
 19 20  2  0
 20 21  1  0
 21 22  1  0
 21 23  1  0
  1 24  1  0
 24 25  2  0
 25 26  1  0
 26 27  1  0
 25 28  1  0
 28 29  1  0
 29 30  1  0
 30 31  1  0
 31 32  1  0
 32 33  1  0
 33 34  2  0
 34 35  1  0
 35 36  1  0
 33 37  1  0
 37 38  1  0
 38 39  1  0
 39 40  1  0
 40 41  1  0
 41 42  1  0
 42 43  1  0
 41 44  2  0
 44 45  1  0
 45 46  1  0
 46 47  1  0
 47 48  1  0
 48 49  1  0
 49 50  1  0
 50 51  1  0
 51 52  1  0
 52 53  1  0
 53 54  1  0
 51 55  1  0
 55 56  1  0
 48 57  1  0
 57 58  1  0
 44 59  1  0
 59 60  2  3
 60 61  1  0
 61 62  2  0
 61 63  1  0
 63 64  2  0
 64 65  1  0
 65 66  2  0
 66 67  1  0
 66 68  1  0
 68 69  2  0
 69 70  1  0
 70 71  2  3
 71 72  1  0
 72 73  3  0
 71 74  1  0
 74 75  3  0
 11  2  1  0
 23 17  1  0
 54 24  1  0
 70 60  1  0
 10  5  1  0
 22 18  1  0
 53 28  2  0
 69 63  1  0
 23  7  1  0
 52 30  2  0
 50 31  2  0
 36 32  2  0
 49 37  2  0
 47 38  2  0
 46 40  2  0
  1 76  1  0
  6 77  1  0
  9 78  1  0
 17 79  1  0
 18 80  1  0
 19 81  1  0
 20 82  1  0
 21 83  1  0
 22 84  1  0
 22 85  1  0
 23 86  1  0
 26 87  1  0
 26 88  1  0
 27 89  1  0
 27 90  1  0
 27 91  1  0
 42 92  1  0
 42 93  1  0
 43 94  1  0
 43 95  1  0
 43 96  1  0
 55 97  1  0
 55 98  1  0
 56 99  1  0
 56100  1  0
 56101  1  0
 57102  1  0
 57103  1  0
 58104  1  0
 58105  1  0
 58106  1  0
 59107  1  0
 64108  1  0
 65109  1  0
 68110  1  0
M  END

