
     RDKit          3D

110124  0  0  0  0  0  0  0  0999 V2000
    0.7667    7.2935    2.5035 C   0  0  0  0  0  0  0  0  0  0  0  0
    0.3159    6.2297    3.2296 C   0  0  0  0  0  0  0  0  0  0  0  0
    0.7731    4.8485    2.9465 C   0  0  0  0  0  0  0  0  0  0  0  0
    1.7546    4.4856    2.2628 O   0  0  0  0  0  0  0  0  0  0  0  0
   -0.0778    3.8546    3.5957 C   0  0  0  0  0  0  0  0  0  0  0  0
   -0.0811    2.4853    3.5366 C   0  0  0  0  0  0  0  0  0  0  0  0
   -1.0665    1.7541    4.1729 C   0  0  0  0  0  0  0  0  0  0  0  0
   -2.0089    2.4417    4.8493 C   0  0  0  0  0  0  0  0  0  0  0  0
   -2.0365    3.8471    4.9337 C   0  0  0  0  0  0  0  0  0  0  0  0
   -1.0471    4.5650    4.2883 C   0  0  0  0  0  0  0  0  0  0  0  0
   -0.8240    6.0244    4.0861 C   0  0  0  0  0  0  0  0  0  0  0  0
   -1.5529    7.0173    4.6274 C   0  0  0  0  0  0  0  0  0  0  0  0
   -1.2036    8.3871    4.3527 C   0  0  0  0  0  0  0  0  0  0  0  0
   -0.8872    9.5475    4.1167 N   0  0  0  0  0  0  0  0  0  0  0  0
   -2.5630    6.8274    5.4559 C   0  0  0  0  0  0  0  0  0  0  0  0
   -3.5947    6.6519    6.2959 N   0  0  0  0  0  0  0  0  0  0  0  0
   -2.6110    1.1256    5.2282 C   0  0  0  0  0  0  0  0  0  0  0  0
   -2.1829    0.6289    6.5910 C   0  0  0  0  0  0  0  0  0  0  0  0
   -0.7734    1.0752    6.8603 C   0  0  0  0  0  0  0  0  0  0  0  0
    0.0522    0.3497    6.1042 C   0  0  0  0  0  0  0  0  0  0  0  0
   -0.7847   -0.4796    5.2302 C   0  0  0  0  0  0  0  0  0  0  0  0
   -1.8880   -0.8385    6.2692 C   0  0  0  0  0  0  0  0  0  0  0  0
   -1.6157    0.3965    4.3650 C   0  0  0  0  0  0  0  0  0  0  0  0
    1.7120    6.8488    1.4099 C   0  0  0  0  0  0  0  0  0  0  0  0
    2.9968    6.7615    1.1724 C   0  0  0  0  0  0  0  0  0  0  0  0
    3.9928    7.5297    2.0001 C   0  0  0  0  0  0  0  0  0  0  0  0
    3.8984    8.9957    1.5922 C   0  0  0  0  0  0  0  0  0  0  0  0
    3.3356    5.9356    0.1574 C   0  0  0  0  0  0  0  0  0  0  0  0
    5.0493    4.9625   -0.4125 Se  0  0  0  0  0  2  0  0  0  0  0  0
    4.1133    3.8403   -1.5167 C   0  0  0  0  0  0  0  0  0  0  0  0
    4.2361    2.6259   -2.1940 C   0  0  0  0  0  0  0  0  0  0  0  0
    5.3338    1.7894   -2.3557 C   0  0  0  0  0  0  0  0  0  0  0  0
    5.0985    0.5414   -2.8345 C   0  0  0  0  0  0  0  0  0  0  0  0
    6.1642   -0.2470   -2.9964 N   0  0  0  0  0  0  0  0  0  0  0  0
    7.4496    0.7072   -2.5038 S   0  0  0  0  0  0  0  0  0  0  0  0
    6.6064    2.0876   -2.1009 N   0  0  0  0  0  0  0  0  0  0  0  0
    3.7776    0.1550   -3.1397 C   0  0  0  0  0  0  0  0  0  0  0  0
    3.2245   -1.0521   -3.4133 C   0  0  0  0  0  0  0  0  0  0  0  0
    3.6579   -2.9500   -3.6574 Se  0  0  0  0  0  2  0  0  0  0  0  0
    1.7848   -3.3988   -3.7818 C   0  0  0  0  0  0  0  0  0  0  0  0
    1.0319   -4.5502   -3.9354 C   0  0  0  0  0  0  0  0  0  0  0  0
    1.7373   -5.9160   -4.0214 C   0  0  0  0  0  0  0  0  0  0  0  0
    2.0255   -6.2736   -2.5652 C   0  0  0  0  0  0  0  0  0  0  0  0
   -0.2513   -4.4006   -3.9305 C   0  0  0  0  0  0  0  0  0  0  0  0
   -0.4826   -2.7378   -3.7214 S   0  0  0  0  0  0  0  0  0  0  0  0
    1.2191   -2.2335   -3.6462 C   0  0  0  0  0  0  0  0  0  0  0  0
    1.8999   -1.0581   -3.4646 C   0  0  0  0  0  0  0  0  0  0  0  0
    1.5601    0.2830   -3.2019 N   0  0  0  0  0  0  0  0  0  0  0  0
    2.6776    0.9811   -3.0058 C   0  0  0  0  0  0  0  0  0  0  0  0
    2.9315    2.2776   -2.5172 C   0  0  0  0  0  0  0  0  0  0  0  0
    2.0992    3.2313   -2.0798 N   0  0  0  0  0  0  0  0  0  0  0  0
    2.8392    4.2290   -1.4089 C   0  0  0  0  0  0  0  0  0  0  0  0
    2.5308    5.2711   -0.5658 C   0  0  0  0  0  0  0  0  0  0  0  0
    1.0070    5.8120    0.1940 S   0  0  0  0  0  0  0  0  0  0  0  0
    0.7187    3.4144   -2.4396 C   0  0  0  0  0  0  0  0  0  0  0  0
    0.6297    4.1462   -3.8039 C   0  0  0  0  0  0  0  0  0  0  0  0
    0.1868    0.6583   -3.1952 C   0  0  0  0  0  0  0  0  0  0  0  0
   -0.4600    0.3670   -1.8438 C   0  0  0  0  0  0  0  0  0  0  0  0
   -1.4857   -5.3224   -4.1574 C   0  0  0  0  0  0  0  0  0  0  0  0
   -2.1136   -5.5376   -3.0478 C   0  0  0  0  0  0  0  0  0  0  0  0
   -2.7619   -5.7602   -1.9040 C   0  0  0  0  0  0  0  0  0  0  0  0
   -1.9778   -5.6012   -0.7618 O   0  0  0  0  0  0  0  0  0  0  0  0
   -4.0829   -6.1254   -1.6824 C   0  0  0  0  0  0  0  0  0  0  0  0
   -4.8236   -6.3680   -0.5154 C   0  0  0  0  0  0  0  0  0  0  0  0
   -6.1561   -6.7216   -0.6080 C   0  0  0  0  0  0  0  0  0  0  0  0
   -6.8773   -6.9433    0.5170 F   0  0  0  0  0  0  0  0  0  0  0  0
   -6.7233   -6.8233   -1.8323 C   0  0  0  0  0  0  0  0  0  0  0  0
   -5.9707   -6.5784   -2.9683 C   0  0  0  0  0  0  0  0  0  0  0  0
   -4.6249   -6.2217   -2.9082 C   0  0  0  0  0  0  0  0  0  0  0  0
   -3.6168   -5.9133   -3.8787 C   0  0  0  0  0  0  0  0  0  0  0  0
   -3.7494   -5.9899   -5.1375 C   0  0  0  0  0  0  0  0  0  0  0  0
   -2.8590   -5.8496   -6.2858 C   0  0  0  0  0  0  0  0  0  0  0  0
   -2.1464   -5.7400   -7.2291 N   0  0  0  0  0  0  0  0  0  0  0  0
   -5.0918   -6.1113   -5.6812 C   0  0  0  0  0  0  0  0  0  0  0  0
   -6.2841   -6.2054   -6.1706 N   0  0  0  0  0  0  0  0  0  0  0  0
    0.5435    8.2621    2.6157 H   0  0  0  0  0  0  0  0  0  0  0  0
    0.7190    1.9824    2.9717 H   0  0  0  0  0  0  0  0  0  0  0  0
   -2.8216    4.2933    5.4877 H   0  0  0  0  0  0  0  0  0  0  0  0
   -3.6662    1.0213    5.0119 H   0  0  0  0  0  0  0  0  0  0  0  0
   -2.8735    0.7586    7.3958 H   0  0  0  0  0  0  0  0  0  0  0  0
   -0.4439    1.8445    7.5315 H   0  0  0  0  0  0  0  0  0  0  0  0
    1.1392    0.3241    6.0635 H   0  0  0  0  0  0  0  0  0  0  0  0
   -0.3379   -1.3331    4.7770 H   0  0  0  0  0  0  0  0  0  0  0  0
   -1.4704   -1.3771    7.1308 H   0  0  0  0  0  0  0  0  0  0  0  0
   -2.6956   -1.3368    5.7267 H   0  0  0  0  0  0  0  0  0  0  0  0
   -2.0360   -0.0695    3.4476 H   0  0  0  0  0  0  0  0  0  0  0  0
    5.0139    7.1293    1.9217 H   0  0  0  0  0  0  0  0  0  0  0  0
    3.6598    7.4652    3.0623 H   0  0  0  0  0  0  0  0  0  0  0  0
    3.7755    9.6658    2.4639 H   0  0  0  0  0  0  0  0  0  0  0  0
    2.9672    9.1533    0.9708 H   0  0  0  0  0  0  0  0  0  0  0  0
    4.7380    9.3213    0.9780 H   0  0  0  0  0  0  0  0  0  0  0  0
    1.0872   -6.6043   -4.5367 H   0  0  0  0  0  0  0  0  0  0  0  0
    2.6948   -5.8176   -4.5639 H   0  0  0  0  0  0  0  0  0  0  0  0
    1.2932   -7.0557   -2.2163 H   0  0  0  0  0  0  0  0  0  0  0  0
    1.8375   -5.4151   -1.8804 H   0  0  0  0  0  0  0  0  0  0  0  0
    3.0701   -6.5953   -2.4020 H   0  0  0  0  0  0  0  0  0  0  0  0
   -0.0994    2.9024   -2.0922 H   0  0  0  0  0  0  0  0  0  0  0  0
    0.4422    4.4037   -1.8030 H   0  0  0  0  0  0  0  0  0  0  0  0
   -0.3658    4.5771   -3.9767 H   0  0  0  0  0  0  0  0  0  0  0  0
    0.8742    3.4934   -4.6476 H   0  0  0  0  0  0  0  0  0  0  0  0
    1.3120    5.0437   -3.7608 H   0  0  0  0  0  0  0  0  0  0  0  0
   -0.1602    1.5577   -3.6408 H   0  0  0  0  0  0  0  0  0  0  0  0
   -0.4093   -0.0901   -3.8693 H   0  0  0  0  0  0  0  0  0  0  0  0
   -0.2592   -0.7191   -1.6364 H   0  0  0  0  0  0  0  0  0  0  0  0
   -0.0472    0.9917   -1.0603 H   0  0  0  0  0  0  0  0  0  0  0  0
   -1.5451    0.5169   -1.9250 H   0  0  0  0  0  0  0  0  0  0  0  0
   -1.5451   -5.4240   -5.1262 H   0  0  0  0  0  0  0  0  0  0  0  0
   -4.3777   -6.2918    0.4749 H   0  0  0  0  0  0  0  0  0  0  0  0
   -7.7594   -7.0959   -1.9343 H   0  0  0  0  0  0  0  0  0  0  0  0
   -6.4849   -6.6956   -3.8822 H   0  0  0  0  0  0  0  0  0  0  0  0
  1  2  2  3
  2  3  1  0
  3  4  2  0
  3  5  1  0
  5  6  2  0
  6  7  1  0
  7  8  2  0
  8  9  1  0
  9 10  2  0
 10 11  1  0
 11 12  2  3
 12 13  1  0
 13 14  3  0
 12 15  1  0
 15 16  3  0
  8 17  1  0
 17 18  1  0
 18 19  1  0
 19 20  2  0
 20 21  1  0
 21 22  1  0
 21 23  1  0
  1 24  1  0
 24 25  2  0
 25 26  1  0
 26 27  1  0
 25 28  1  0
 28 29  1  0
 29 30  1  0
 30 31  1  0
 31 32  1  0
 32 33  1  0
 33 34  2  0
 34 35  1  0
 35 36  1  0
 33 37  1  0
 37 38  1  0
 38 39  1  0
 39 40  1  0
 40 41  1  0
 41 42  1  0
 42 43  1  0
 41 44  2  0
 44 45  1  0
 45 46  1  0
 46 47  1  0
 47 48  1  0
 48 49  1  0
 49 50  1  0
 50 51  1  0
 51 52  1  0
 52 53  1  0
 53 54  1  0
 51 55  1  0
 55 56  1  0
 48 57  1  0
 57 58  1  0
 44 59  1  0
 59 60  2  3
 60 61  1  0
 61 62  2  0
 61 63  1  0
 63 64  2  0
 64 65  1  0
 65 66  1  0
 65 67  2  0
 67 68  1  0
 68 69  2  0
 69 70  1  0
 70 71  2  3
 71 72  1  0
 72 73  3  0
 71 74  1  0
 74 75  3  0
 11  2  1  0
 23 17  1  0
 54 24  1  0
 70 60  1  0
 10  5  1  0
 22 18  1  0
 53 28  2  0
 69 63  1  0
 23  7  1  0
 52 30  2  0
 50 31  2  0
 36 32  2  0
 49 37  2  0
 47 38  2  0
 46 40  2  0
  1 76  1  0
  6 77  1  0
  9 78  1  0
 17 79  1  0
 18 80  1  0
 19 81  1  0
 20 82  1  0
 21 83  1  0
 22 84  1  0
 22 85  1  0
 23 86  1  0
 26 87  1  0
 26 88  1  0
 27 89  1  0
 27 90  1  0
 27 91  1  0
 42 92  1  0
 42 93  1  0
 43 94  1  0
 43 95  1  0
 43 96  1  0
 55 97  1  0
 55 98  1  0
 56 99  1  0
 56100  1  0
 56101  1  0
 57102  1  0
 57103  1  0
 58104  1  0
 58105  1  0
 58106  1  0
 59107  1  0
 64108  1  0
 67109  1  0
 68110  1  0
M  END

