
     RDKit          3D

101116  0  0  0  0  0  0  0  0999 V2000
    2.0731   -2.3184    6.6792 C   0  0  0  0  0  0  0  0  0  0  0  0
    3.1203   -1.4818    6.4262 C   0  0  0  0  0  0  0  0  0  0  0  0
    3.2513   -0.0695    6.2320 C   0  0  0  0  0  0  0  0  0  0  0  0
    2.7660    0.7916    7.0433 O   0  0  0  0  0  0  0  0  0  0  0  0
    3.9724    0.3280    5.0136 C   0  0  0  0  0  0  0  0  0  0  0  0
    4.3331    1.5522    4.5309 C   0  0  0  0  0  0  0  0  0  0  0  0
    5.0771    1.7007    3.3810 C   0  0  0  0  0  0  0  0  0  0  0  0
    5.4259    0.5359    2.7453 C   0  0  0  0  0  0  0  0  0  0  0  0
    5.0731   -0.7086    3.2029 C   0  0  0  0  0  0  0  0  0  0  0  0
    4.3153   -0.8354    4.3915 C   0  0  0  0  0  0  0  0  0  0  0  0
    3.8511   -1.9744    5.1620 C   0  0  0  0  0  0  0  0  0  0  0  0
    4.1944   -3.2067    4.7829 C   0  0  0  0  0  0  0  0  0  0  0  0
    4.6678   -3.6122    3.8226 C   0  0  0  0  0  0  0  0  0  0  0  0
    5.2941   -4.1637    2.4999 N   0  0  0  0  0  0  0  0  0  0  0  0
    4.2246   -4.2436    5.9227 C   0  0  0  0  0  0  0  0  0  0  0  0
    4.2415   -5.1217    6.8794 N   0  0  0  0  0  0  0  0  0  0  0  0
    6.2417    1.3073    1.7639 C   0  0  0  0  0  0  0  0  0  0  0  0
    7.7155    1.2574    2.2269 C   0  0  0  0  0  0  0  0  0  0  0  0
    7.6516    1.1512    3.7283 C   0  0  0  0  0  0  0  0  0  0  0  0
    7.3222    2.3301    4.2221 C   0  0  0  0  0  0  0  0  0  0  0  0
    7.0418    3.1940    3.0502 C   0  0  0  0  0  0  0  0  0  0  0  0
    8.1166    2.6815    2.0777 C   0  0  0  0  0  0  0  0  0  0  0  0
    5.7830    2.5950    2.4204 C   0  0  0  0  0  0  0  0  0  0  0  0
    0.8038   -1.6571    6.6696 C   0  0  0  0  0  0  0  0  0  0  0  0
   -0.1028   -0.7396    7.0138 C   0  0  0  0  0  0  0  0  0  0  0  0
   -1.1596   -0.3711    6.2314 C   0  0  0  0  0  0  0  0  0  0  0  0
   -2.2562    1.0693    6.2030 S   0  0  0  0  0  0  0  0  0  0  0  0
   -2.9377    0.8010    4.6067 C   0  0  0  0  0  0  0  0  0  0  0  0
   -3.6562    1.3638    3.5276 C   0  0  0  0  0  0  0  0  0  0  0  0
   -4.2245    2.5900    3.3814 C   0  0  0  0  0  0  0  0  0  0  0  0
   -4.6023    3.0884    2.1455 C   0  0  0  0  0  0  0  0  0  0  0  0
   -5.1740    4.2692    2.1130 N   0  0  0  0  0  0  0  0  0  0  0  0
   -5.2374    4.7784    3.6892 S   0  0  0  0  0  0  0  0  0  0  0  0
   -4.5243    3.4496    4.4041 N   0  0  0  0  0  0  0  0  0  0  0  0
   -4.3290    2.2259    1.0791 C   0  0  0  0  0  0  0  0  0  0  0  0
   -4.3266    2.5770   -0.2953 C   0  0  0  0  0  0  0  0  0  0  0  0
   -3.7602    1.4805   -0.9287 C   0  0  0  0  0  0  0  0  0  0  0  0
   -3.4696    0.5376   -0.0503 N   0  0  0  0  0  0  0  0  0  0  0  0
   -2.9336   -0.7599   -0.4204 C   0  0  0  0  0  0  0  0  0  0  0  0
   -4.0703   -1.7091   -0.4587 C   0  0  0  0  0  0  0  0  0  0  0  0
   -3.7832    0.9651    1.1839 C   0  0  0  0  0  0  0  0  0  0  0  0
   -3.4268    0.4869    2.4710 C   0  0  0  0  0  0  0  0  0  0  0  0
   -2.6808   -0.5368    2.8116 N   0  0  0  0  0  0  0  0  0  0  0  0
   -2.3393   -0.3342    4.1836 C   0  0  0  0  0  0  0  0  0  0  0  0
   -1.5067   -0.7689    5.1110 C   0  0  0  0  0  0  0  0  0  0  0  0
    0.0845   -2.2011    4.9111 Se  0  0  0  0  0  2  0  0  0  0  0  0
   -2.2992   -1.7901    2.3269 C   0  0  0  0  0  0  0  0  0  0  0  0
   -3.3382   -2.8309    2.9359 C   0  0  0  0  0  0  0  0  0  0  0  0
   -3.5883    1.7850   -2.3082 C   0  0  0  0  0  0  0  0  0  0  0  0
   -3.8513    2.7718   -2.8920 C   0  0  0  0  0  0  0  0  0  0  0  0
   -4.5492    3.7404   -1.5178 S   0  0  0  0  0  0  0  0  0  0  0  0
   -3.5753    3.0206   -4.1656 C   0  0  0  0  0  0  0  0  0  0  0  0
   -3.0767    2.5535   -5.1038 C   0  0  0  0  0  0  0  0  0  0  0  0
   -2.6860    0.7614   -3.7057 Se  0  0  0  0  0  2  0  0  0  0  0  0
   -2.3497    1.7991   -6.2107 C   0  0  0  0  0  0  0  0  0  0  0  0
   -2.8263    0.8226   -6.8888 C   0  0  0  0  0  0  0  0  0  0  0  0
   -4.2039    0.2486   -6.6824 C   0  0  0  0  0  0  0  0  0  0  0  0
   -5.0215    0.6532   -5.9214 O   0  0  0  0  0  0  0  0  0  0  0  0
   -4.1736   -0.9031   -7.6465 C   0  0  0  0  0  0  0  0  0  0  0  0
   -5.3317   -1.6934   -7.8852 C   0  0  0  0  0  0  0  0  0  0  0  0
   -5.2269   -2.6623   -8.9128 C   0  0  0  0  0  0  0  0  0  0  0  0
   -6.1788   -3.5134   -9.3239 C   0  0  0  0  0  0  0  0  0  0  0  0
   -6.0344   -4.3712  -10.2779 C   0  0  0  0  0  0  0  0  0  0  0  0
   -7.2655   -5.6528  -11.0649 Br  0  0  0  0  0  0  0  0  0  0  0  0
   -4.3685   -4.0436  -10.7420 S   0  0  0  0  0  0  0  0  0  0  0  0
   -4.0567   -2.7729   -9.5934 C   0  0  0  0  0  0  0  0  0  0  0  0
   -2.9462   -1.9603   -9.3069 C   0  0  0  0  0  0  0  0  0  0  0  0
   -3.0568   -0.9973   -8.2824 C   0  0  0  0  0  0  0  0  0  0  0  0
   -2.1043    0.0677   -7.8647 C   0  0  0  0  0  0  0  0  0  0  0  0
   -0.9128    0.2195   -8.3328 C   0  0  0  0  0  0  0  0  0  0  0  0
   -0.0904    1.4252   -7.7953 C   0  0  0  0  0  0  0  0  0  0  0  0
    0.5358    2.3573   -7.3782 N   0  0  0  0  0  0  0  0  0  0  0  0
   -0.1333   -0.4903   -9.0739 C   0  0  0  0  0  0  0  0  0  0  0  0
    0.7045   -1.2385   -9.8756 N   0  0  0  0  0  0  0  0  0  0  0  0
    2.2131   -3.3016    6.8681 H   0  0  0  0  0  0  0  0  0  0  0  0
    4.0058    2.4273    5.0811 H   0  0  0  0  0  0  0  0  0  0  0  0
    5.3156   -1.5853    2.6553 H   0  0  0  0  0  0  0  0  0  0  0  0
    6.0438    1.1194    0.7431 H   0  0  0  0  0  0  0  0  0  0  0  0
    8.3253    0.5154    1.7663 H   0  0  0  0  0  0  0  0  0  0  0  0
    7.8660    0.3056    4.3730 H   0  0  0  0  0  0  0  0  0  0  0  0
    7.2312    2.6157    5.2481 H   0  0  0  0  0  0  0  0  0  0  0  0
    7.0200    4.2396    3.2173 H   0  0  0  0  0  0  0  0  0  0  0  0
    9.1192    2.8385    2.5253 H   0  0  0  0  0  0  0  0  0  0  0  0
    7.9941    3.0968    1.0841 H   0  0  0  0  0  0  0  0  0  0  0  0
    5.1786    3.2498    1.8343 H   0  0  0  0  0  0  0  0  0  0  0  0
    0.0906   -0.2775    8.0424 H   0  0  0  0  0  0  0  0  0  0  0  0
   -2.7317   -0.6601   -1.5945 H   0  0  0  0  0  0  0  0  0  0  0  0
   -2.0501   -1.0379   -0.0071 H   0  0  0  0  0  0  0  0  0  0  0  0
   -4.4748   -1.8570    0.6014 H   0  0  0  0  0  0  0  0  0  0  0  0
   -3.8714   -2.7206   -0.8596 H   0  0  0  0  0  0  0  0  0  0  0  0
   -4.9939   -1.3363   -0.9944 H   0  0  0  0  0  0  0  0  0  0  0  0
   -2.2120   -2.1783    1.4052 H   0  0  0  0  0  0  0  0  0  0  0  0
   -1.3878   -2.1779    2.9282 H   0  0  0  0  0  0  0  0  0  0  0  0
   -2.9835   -3.8703    2.7244 H   0  0  0  0  0  0  0  0  0  0  0  0
   -3.2412   -2.7472    4.0261 H   0  0  0  0  0  0  0  0  0  0  0  0
   -4.3216   -2.7222    2.5185 H   0  0  0  0  0  0  0  0  0  0  0  0
   -3.8460    4.2294   -4.4987 H   0  0  0  0  0  0  0  0  0  0  0  0
   -1.3828    2.2172   -6.3190 H   0  0  0  0  0  0  0  0  0  0  0  0
   -6.1975   -1.5419   -7.3107 H   0  0  0  0  0  0  0  0  0  0  0  0
   -7.2564   -3.4824   -8.8352 H   0  0  0  0  0  0  0  0  0  0  0  0
   -2.0667   -2.1012   -9.8537 H   0  0  0  0  0  0  0  0  0  0  0  0
  1  2  2  3
  2  3  1  0
  3  4  2  0
  3  5  1  0
  5  6  2  0
  6  7  1  0
  7  8  2  0
  8  9  1  0
  9 10  2  0
 10 11  1  0
 11 12  2  3
 12 13  1  0
 13 14  3  0
 12 15  1  0
 15 16  3  0
  8 17  1  0
 17 18  1  0
 18 19  1  0
 19 20  2  0
 20 21  1  0
 21 22  1  0
 21 23  1  0
  1 24  1  0
 24 25  2  0
 25 26  1  0
 26 27  1  0
 27 28  1  0
 28 29  1  0
 29 30  1  0
 30 31  1  0
 31 32  2  0
 32 33  1  0
 33 34  1  0
 31 35  1  0
 35 36  1  0
 36 37  2  0
 37 38  1  0
 38 39  1  0
 39 40  1  0
 38 41  1  0
 41 42  1  0
 42 43  1  0
 43 44  1  0
 44 45  1  0
 45 46  1  0
 43 47  1  0
 47 48  1  0
 37 49  1  0
 49 50  2  0
 50 51  1  0
 50 52  1  0
 52 53  2  0
 53 54  1  0
 53 55  1  0
 55 56  2  3
 56 57  1  0
 57 58  2  0
 57 59  1  0
 59 60  2  0
 60 61  1  0
 61 62  1  0
 62 63  2  0
 63 64  1  0
 63 65  1  0
 65 66  1  0
 66 67  1  0
 67 68  2  0
 68 69  1  0
 69 70  2  3
 70 71  1  0
 71 72  3  0
 70 73  1  0
 73 74  3  0
 11  2  1  0
 23 17  1  0
 46 24  1  0
 54 49  1  0
 69 56  1  0
 10  5  1  0
 22 18  1  0
 45 26  2  0
 68 59  1  0
 23  7  1  0
 44 28  2  0
 66 61  2  0
 42 29  2  0
 34 30  2  0
 41 35  2  0
 51 36  1  0
  1 75  1  0
  6 76  1  0
  9 77  1  0
 17 78  1  0
 18 79  1  0
 19 80  1  0
 20 81  1  0
 21 82  1  0
 22 83  1  0
 22 84  1  0
 23 85  1  0
 25 86  1  0
 39 87  1  0
 39 88  1  0
 40 89  1  0
 40 90  1  0
 40 91  1  0
 47 92  1  0
 47 93  1  0
 48 94  1  0
 48 95  1  0
 48 96  1  0
 52 97  1  0
 55 98  1  0
 60 99  1  0
 62100  1  0
 67101  1  0
M  END

