
     RDKit          3D

 92104  0  0  0  0  0  0  0  0999 V2000
    4.6962    2.0548    2.1851 C   0  0  0  0  0  0  0  0  0  0  0  0
    3.9702    1.7923    3.2914 C   0  0  0  0  0  0  0  0  0  0  0  0
    2.5669    1.3477    3.2937 C   0  0  0  0  0  0  0  0  0  0  0  0
    1.7617    1.3970    2.3285 O   0  0  0  0  0  0  0  0  0  0  0  0
    2.2631    0.7786    4.5877 C   0  0  0  0  0  0  0  0  0  0  0  0
    1.0810    0.0946    4.9514 C   0  0  0  0  0  0  0  0  0  0  0  0
    1.1391   -0.4897    6.2020 C   0  0  0  0  0  0  0  0  0  0  0  0
    2.2938   -0.4259    7.0456 C   0  0  0  0  0  0  0  0  0  0  0  0
    3.4579    0.2329    6.6889 C   0  0  0  0  0  0  0  0  0  0  0  0
    3.4118    0.8686    5.4156 C   0  0  0  0  0  0  0  0  0  0  0  0
    4.4844    1.6017    4.6831 C   0  0  0  0  0  0  0  0  0  0  0  0
    5.5967    2.1653    5.2234 C   0  0  0  0  0  0  0  0  0  0  0  0
    6.4614    3.0369    4.4732 C   0  0  0  0  0  0  0  0  0  0  0  0
    7.1675    3.7440    3.8885 N   0  0  0  0  0  0  0  0  0  0  0  0
    5.9220    2.0576    6.6240 C   0  0  0  0  0  0  0  0  0  0  0  0
    6.1869    1.9839    7.7487 N   0  0  0  0  0  0  0  0  0  0  0  0
    1.6163   -1.2941    8.0661 C   0  0  0  0  0  0  0  0  0  0  0  0
    2.0670   -2.7825    8.1776 C   0  0  0  0  0  0  0  0  0  0  0  0
    2.5542   -3.2742    6.8340 C   0  0  0  0  0  0  0  0  0  0  0  0
    1.4868   -3.3310    6.0394 C   0  0  0  0  0  0  0  0  0  0  0  0
    0.3077   -2.8755    6.8685 C   0  0  0  0  0  0  0  0  0  0  0  0
    0.7125   -3.4667    8.2049 C   0  0  0  0  0  0  0  0  0  0  0  0
    0.4353   -1.3575    7.2006 C   0  0  0  0  0  0  0  0  0  0  0  0
    4.0983    2.0888    0.8476 C   0  0  0  0  0  0  0  0  0  0  0  0
    3.0417    3.3242    0.2962 S   0  0  0  0  0  0  0  0  0  0  0  0
    2.5790    2.4105   -1.0311 C   0  0  0  0  0  0  0  0  0  0  0  0
    1.6991    2.4382   -2.0770 C   0  0  0  0  0  0  0  0  0  0  0  0
    0.8292    3.4183   -2.5599 C   0  0  0  0  0  0  0  0  0  0  0  0
   -0.0027    3.0985   -3.6771 C   0  0  0  0  0  0  0  0  0  0  0  0
   -0.8497    4.0656   -4.1083 N   0  0  0  0  0  0  0  0  0  0  0  0
   -0.4648    5.2707   -3.0366 S   0  0  0  0  0  0  0  0  0  0  0  0
    0.7088    4.6625   -2.0345 N   0  0  0  0  0  0  0  0  0  0  0  0
    0.0475    1.8000   -4.2124 C   0  0  0  0  0  0  0  0  0  0  0  0
   -0.8722    1.1347   -4.9734 C   0  0  0  0  0  0  0  0  0  0  0  0
   -0.6961   -0.1904   -4.7549 C   0  0  0  0  0  0  0  0  0  0  0  0
    0.3458   -0.4470   -3.9214 N   0  0  0  0  0  0  0  0  0  0  0  0
    0.3706   -1.6156   -3.0230 C   0  0  0  0  0  0  0  0  0  0  0  0
   -0.6383   -1.4494   -1.8835 C   0  0  0  0  0  0  0  0  0  0  0  0
    0.8557    0.7981   -3.6516 C   0  0  0  0  0  0  0  0  0  0  0  0
    1.7830    1.1647   -2.6502 C   0  0  0  0  0  0  0  0  0  0  0  0
    2.7846    0.4300   -2.0807 N   0  0  0  0  0  0  0  0  0  0  0  0
    3.2033    1.2173   -1.0625 C   0  0  0  0  0  0  0  0  0  0  0  0
    4.0961    0.9919   -0.0255 C   0  0  0  0  0  0  0  0  0  0  0  0
    3.6222   -0.5847   -2.7357 C   0  0  0  0  0  0  0  0  0  0  0  0
    4.8870    0.0428   -3.3174 C   0  0  0  0  0  0  0  0  0  0  0  0
   -1.8111   -0.9788   -5.0561 C   0  0  0  0  0  0  0  0  0  0  0  0
   -2.8842   -0.1893   -5.4800 C   0  0  0  0  0  0  0  0  0  0  0  0
   -2.4298    1.4580   -5.4946 S   0  0  0  0  0  0  0  0  0  0  0  0
   -4.1997   -0.7253   -5.8637 C   0  0  0  0  0  0  0  0  0  0  0  0
   -5.3757   -0.2493   -5.4112 C   0  0  0  0  0  0  0  0  0  0  0  0
   -5.5668    0.8686   -4.4772 C   0  0  0  0  0  0  0  0  0  0  0  0
   -4.7356    1.2911   -3.6295 O   0  0  0  0  0  0  0  0  0  0  0  0
   -6.9222    1.3536   -4.6239 C   0  0  0  0  0  0  0  0  0  0  0  0
   -7.4945    2.4956   -4.0661 C   0  0  0  0  0  0  0  0  0  0  0  0
   -8.7995    2.8440   -4.4463 C   0  0  0  0  0  0  0  0  0  0  0  0
   -9.5450    4.2824   -3.7677 Cl  0  0  0  0  0  0  0  0  0  0  0  0
   -9.4943    2.0605   -5.3895 C   0  0  0  0  0  0  0  0  0  0  0  0
  -10.7336    2.4294   -5.8021 F   0  0  0  0  0  0  0  0  0  0  0  0
   -8.8963    0.9102   -5.9358 C   0  0  0  0  0  0  0  0  0  0  0  0
   -7.6073    0.5468   -5.5165 C   0  0  0  0  0  0  0  0  0  0  0  0
   -6.7329   -0.5838   -5.9380 C   0  0  0  0  0  0  0  0  0  0  0  0
   -7.1449   -1.7785   -6.4384 C   0  0  0  0  0  0  0  0  0  0  0  0
   -6.2697   -2.9204   -6.5222 C   0  0  0  0  0  0  0  0  0  0  0  0
   -5.5735   -3.8453   -6.5861 N   0  0  0  0  0  0  0  0  0  0  0  0
   -8.5199   -2.0392   -6.7805 C   0  0  0  0  0  0  0  0  0  0  0  0
   -9.6219   -2.2594   -7.0562 N   0  0  0  0  0  0  0  0  0  0  0  0
    5.7709    2.1088    2.2275 H   0  0  0  0  0  0  0  0  0  0  0  0
    0.2242   -0.0005    4.3000 H   0  0  0  0  0  0  0  0  0  0  0  0
    4.3271    0.1896    7.3219 H   0  0  0  0  0  0  0  0  0  0  0  0
    1.4345   -0.7852    9.0357 H   0  0  0  0  0  0  0  0  0  0  0  0
    2.7401   -3.0131    9.0324 H   0  0  0  0  0  0  0  0  0  0  0  0
    3.5556   -3.5926    6.5709 H   0  0  0  0  0  0  0  0  0  0  0  0
    1.4733   -3.7012    5.0202 H   0  0  0  0  0  0  0  0  0  0  0  0
   -0.6825   -3.1964    6.4855 H   0  0  0  0  0  0  0  0  0  0  0  0
    0.0640   -3.1427    9.0528 H   0  0  0  0  0  0  0  0  0  0  0  0
    0.7765   -4.5802    8.1960 H   0  0  0  0  0  0  0  0  0  0  0  0
   -0.4749   -0.8939    7.6465 H   0  0  0  0  0  0  0  0  0  0  0  0
    0.1351   -2.5375   -3.5997 H   0  0  0  0  0  0  0  0  0  0  0  0
    1.3571   -1.7822   -2.5684 H   0  0  0  0  0  0  0  0  0  0  0  0
   -1.6736   -1.4622   -2.2789 H   0  0  0  0  0  0  0  0  0  0  0  0
   -0.5303   -2.2844   -1.1623 H   0  0  0  0  0  0  0  0  0  0  0  0
   -0.4575   -0.4910   -1.3545 H   0  0  0  0  0  0  0  0  0  0  0  0
    4.6317    0.0668    0.1405 H   0  0  0  0  0  0  0  0  0  0  0  0
    3.9051   -1.3714   -2.0026 H   0  0  0  0  0  0  0  0  0  0  0  0
    3.0835   -1.0568   -3.5799 H   0  0  0  0  0  0  0  0  0  0  0  0
    4.6133    0.8251   -4.0556 H   0  0  0  0  0  0  0  0  0  0  0  0
    5.4965   -0.7355   -3.8186 H   0  0  0  0  0  0  0  0  0  0  0  0
    5.5044    0.4999   -2.5177 H   0  0  0  0  0  0  0  0  0  0  0  0
   -1.8777   -2.0420   -4.8753 H   0  0  0  0  0  0  0  0  0  0  0  0
   -4.1801   -1.5172   -6.5933 H   0  0  0  0  0  0  0  0  0  0  0  0
   -6.9307    3.1135   -3.3781 H   0  0  0  0  0  0  0  0  0  0  0  0
   -9.4280    0.3597   -6.6980 H   0  0  0  0  0  0  0  0  0  0  0  0
  1  2  2  3
  2  3  1  0
  3  4  2  0
  3  5  1  0
  5  6  2  0
  6  7  1  0
  7  8  2  0
  8  9  1  0
  9 10  2  0
 10 11  1  0
 11 12  2  3
 12 13  1  0
 13 14  3  0
 12 15  1  0
 15 16  3  0
  8 17  1  0
 17 18  1  0
 18 19  1  0
 19 20  2  0
 20 21  1  0
 21 22  1  0
 21 23  1  0
  1 24  1  0
 24 25  1  0
 25 26  1  0
 26 27  1  0
 27 28  1  0
 28 29  1  0
 29 30  2  0
 30 31  1  0
 31 32  1  0
 29 33  1  0
 33 34  1  0
 34 35  2  0
 35 36  1  0
 36 37  1  0
 37 38  1  0
 36 39  1  0
 39 40  1  0
 40 41  1  0
 41 42  1  0
 42 43  1  0
 41 44  1  0
 44 45  1  0
 35 46  1  0
 46 47  2  0
 47 48  1  0
 47 49  1  0
 49 50  2  3
 50 51  1  0
 51 52  2  0
 51 53  1  0
 53 54  2  0
 54 55  1  0
 55 56  1  0
 55 57  2  0
 57 58  1  0
 57 59  1  0
 59 60  2  0
 60 61  1  0
 61 62  2  3
 62 63  1  0
 63 64  3  0
 62 65  1  0
 65 66  3  0
 11  2  1  0
 23 17  1  0
 43 24  2  0
 61 50  1  0
 10  5  1  0
 22 18  1  0
 42 26  2  0
 60 53  1  0
 23  7  1  0
 40 27  2  0
 32 28  2  0
 39 33  2  0
 48 34  1  0
  1 67  1  0
  6 68  1  0
  9 69  1  0
 17 70  1  0
 18 71  1  0
 19 72  1  0
 20 73  1  0
 21 74  1  0
 22 75  1  0
 22 76  1  0
 23 77  1  0
 37 78  1  0
 37 79  1  0
 38 80  1  0
 38 81  1  0
 38 82  1  0
 43 83  1  0
 44 84  1  0
 44 85  1  0
 45 86  1  0
 45 87  1  0
 45 88  1  0
 46 89  1  0
 49 90  1  0
 54 91  1  0
 59 92  1  0
M  END

