
     RDKit          3D

145162  0  0  0  0  0  0  0  0999 V2000
    8.0222    0.2357    1.2247 C   0  0  0  0  0  0  0  0  0  0  0  0
    8.1026   -0.3781    2.4197 C   0  0  0  0  0  0  0  0  0  0  0  0
    7.2093   -1.4289    2.9110 C   0  0  0  0  0  0  0  0  0  0  0  0
    6.4780   -2.1358    2.1556 O   0  0  0  0  0  0  0  0  0  0  0  0
    7.3279   -1.5348    4.3689 C   0  0  0  0  0  0  0  0  0  0  0  0
    6.4760   -2.1750    5.3672 C   0  0  0  0  0  0  0  0  0  0  0  0
    6.8590   -1.9336    6.6664 C   0  0  0  0  0  0  0  0  0  0  0  0
    8.0179   -1.1691    6.9939 C   0  0  0  0  0  0  0  0  0  0  0  0
    8.8513   -0.6027    6.0768 C   0  0  0  0  0  0  0  0  0  0  0  0
    8.4203   -0.6900    4.7379 C   0  0  0  0  0  0  0  0  0  0  0  0
    8.9432    0.0404    3.6068 C   0  0  0  0  0  0  0  0  0  0  0  0
   10.1634    0.6888    3.6116 C   0  0  0  0  0  0  0  0  0  0  0  0
   10.6514    1.2718    2.3631 C   0  0  0  0  0  0  0  0  0  0  0  0
   10.9728    1.9852    1.4728 N   0  0  0  0  0  0  0  0  0  0  0  0
   10.0997    1.8156    4.5876 C   0  0  0  0  0  0  0  0  0  0  0  0
    9.8688    2.8164    5.1788 N   0  0  0  0  0  0  0  0  0  0  0  0
    7.4920   -0.9324    8.3827 C   0  0  0  0  0  0  0  0  0  0  0  0
    6.7977    0.4670    8.6183 C   0  0  0  0  0  0  0  0  0  0  0  0
    6.0776    0.3356    9.9257 C   0  0  0  0  0  0  0  0  0  0  0  0
    5.0499   -0.4823    9.7059 C   0  0  0  0  0  0  0  0  0  0  0  0
    5.1030   -0.8637    8.2460 C   0  0  0  0  0  0  0  0  0  0  0  0
    5.5838    0.4683    7.6685 C   0  0  0  0  0  0  0  0  0  0  0  0
    6.3466   -1.7991    8.0797 C   0  0  0  0  0  0  0  0  0  0  0  0
    6.7880    0.2645    0.4680 C   0  0  0  0  0  0  0  0  0  0  0  0
    6.5463   -0.2367   -0.8154 C   0  0  0  0  0  0  0  0  0  0  0  0
    7.5951   -0.9979   -1.6470 C   0  0  0  0  0  0  0  0  0  0  0  0
    7.1809   -1.3228   -3.1086 C   0  0  0  0  0  0  0  0  0  0  0  0
    5.1491   -0.1741   -1.0997 C   0  0  0  0  0  0  0  0  0  0  0  0
    4.0433   -0.6788   -2.3660 S   0  0  0  0  0  0  0  0  0  0  0  0
    2.6478   -0.2120   -1.4692 C   0  0  0  0  0  0  0  0  0  0  0  0
    1.3008   -0.0456   -1.5788 C   0  0  0  0  0  0  0  0  0  0  0  0
    0.4061   -0.2565   -2.6527 C   0  0  0  0  0  0  0  0  0  0  0  0
    0.7410   -1.0546   -3.7109 N   0  0  0  0  0  0  0  0  0  0  0  0
   -0.1935   -1.3433   -4.6731 C   0  0  0  0  0  0  0  0  0  0  0  0
    0.0687   -2.4543   -5.6240 C   0  0  0  0  0  0  0  0  0  0  0  0
   -0.7422   -3.5765   -5.7711 C   0  0  0  0  0  0  0  0  0  0  0  0
   -0.2862   -4.4564   -6.7683 C   0  0  0  0  0  0  0  0  0  0  0  0
    0.8972   -4.0317   -7.3548 C   0  0  0  0  0  0  0  0  0  0  0  0
    1.6935   -4.8038   -8.3686 C   0  0  0  0  0  0  0  0  0  0  0  0
    2.8785   -4.0104   -8.9407 C   0  0  0  0  0  0  0  0  0  0  0  0
    1.3946   -2.5878   -6.6416 S   0  0  0  0  0  0  0  0  0  0  0  0
   -1.4635   -0.7454   -4.6093 C   0  0  0  0  0  0  0  0  0  0  0  0
   -2.5164   -0.9368   -5.6295 C   0  0  0  0  0  0  0  0  0  0  0  0
   -3.8837   -0.9822   -5.3630 C   0  0  0  0  0  0  0  0  0  0  0  0
   -4.6744   -0.9470   -6.5283 C   0  0  0  0  0  0  0  0  0  0  0  0
   -3.9081   -0.8233   -7.6924 C   0  0  0  0  0  0  0  0  0  0  0  0
   -4.3951   -0.5779   -9.0862 C   0  0  0  0  0  0  0  0  0  0  0  0
   -4.1504   -1.8131   -9.9652 C   0  0  0  0  0  0  0  0  0  0  0  0
   -2.2862   -0.7885   -7.2839 S   0  0  0  0  0  0  0  0  0  0  0  0
   -1.7867    0.0289   -3.5428 N   0  0  0  0  0  0  0  0  0  0  0  0
   -0.8967    0.2531   -2.5570 C   0  0  0  0  0  0  0  0  0  0  0  0
   -1.2803    0.9736   -1.4139 C   0  0  0  0  0  0  0  0  0  0  0  0
   -2.4633    1.5490   -1.0505 C   0  0  0  0  0  0  0  0  0  0  0  0
   -4.0836    1.5987   -1.6154 S   0  0  0  0  0  0  0  0  0  0  0  0
   -4.6594    2.0263   -0.0499 C   0  0  0  0  0  0  0  0  0  0  0  0
   -5.9329    2.2483    0.5100 C   0  0  0  0  0  0  0  0  0  0  0  0
   -7.1431    2.5922   -0.3196 C   0  0  0  0  0  0  0  0  0  0  0  0
   -7.0227    4.0613   -0.7600 C   0  0  0  0  0  0  0  0  0  0  0  0
   -5.8553    2.3589    1.9117 C   0  0  0  0  0  0  0  0  0  0  0  0
   -4.2231    2.3671    2.4008 S   0  0  0  0  0  0  0  0  0  0  0  0
   -3.6358    2.1089    0.8311 C   0  0  0  0  0  0  0  0  0  0  0  0
   -2.3926    1.8659    0.2571 C   0  0  0  0  0  0  0  0  0  0  0  0
   -1.1955    1.5119    0.8046 N   0  0  0  0  0  0  0  0  0  0  0  0
   -1.0961    1.2111    2.2431 C   0  0  0  0  0  0  0  0  0  0  0  0
   -0.8693    2.4899    3.0579 C   0  0  0  0  0  0  0  0  0  0  0  0
   -0.4702    1.0367   -0.2538 C   0  0  0  0  0  0  0  0  0  0  0  0
    0.8958    0.5740   -0.3584 C   0  0  0  0  0  0  0  0  0  0  0  0
    1.9774    0.7989    0.4331 N   0  0  0  0  0  0  0  0  0  0  0  0
    3.0146    0.2916   -0.2691 C   0  0  0  0  0  0  0  0  0  0  0  0
    4.4065    0.3447   -0.0907 C   0  0  0  0  0  0  0  0  0  0  0  0
    5.4050    0.7937    1.1666 S   0  0  0  0  0  0  0  0  0  0  0  0
    2.1505    1.5929    1.6672 C   0  0  0  0  0  0  0  0  0  0  0  0
    1.9049    3.0728    1.3741 C   0  0  0  0  0  0  0  0  0  0  0  0
   -6.9437    2.3703    2.8675 C   0  0  0  0  0  0  0  0  0  0  0  0
   -7.9338    1.4361    2.9236 C   0  0  0  0  0  0  0  0  0  0  0  0
   -8.2075    0.3788    1.9427 C   0  0  0  0  0  0  0  0  0  0  0  0
   -7.4156   -0.0568    1.0737 O   0  0  0  0  0  0  0  0  0  0  0  0
   -9.4861   -0.2120    2.2567 C   0  0  0  0  0  0  0  0  0  0  0  0
  -10.2555   -1.1073    1.4944 C   0  0  0  0  0  0  0  0  0  0  0  0
  -11.4894   -1.5841    2.0414 C   0  0  0  0  0  0  0  0  0  0  0  0
  -12.3111   -2.4502    1.3091 C   0  0  0  0  0  0  0  0  0  0  0  0
  -13.5240   -2.8916    1.8625 C   0  0  0  0  0  0  0  0  0  0  0  0
  -14.3116   -3.7346    1.1558 F   0  0  0  0  0  0  0  0  0  0  0  0
  -13.9193   -2.4569    3.1310 C   0  0  0  0  0  0  0  0  0  0  0  0
  -15.0786   -2.8933    3.6771 F   0  0  0  0  0  0  0  0  0  0  0  0
  -13.1278   -1.5728    3.8579 C   0  0  0  0  0  0  0  0  0  0  0  0
  -11.9179   -1.0867    3.2957 C   0  0  0  0  0  0  0  0  0  0  0  0
  -11.1314   -0.1558    4.0172 C   0  0  0  0  0  0  0  0  0  0  0  0
   -9.9237    0.2756    3.4710 C   0  0  0  0  0  0  0  0  0  0  0  0
   -8.9299    1.2069    4.0373 C   0  0  0  0  0  0  0  0  0  0  0  0
   -8.6938    1.3619    5.3619 C   0  0  0  0  0  0  0  0  0  0  0  0
   -7.5406    2.0539    5.8772 C   0  0  0  0  0  0  0  0  0  0  0  0
   -6.6110    2.5802    6.3200 N   0  0  0  0  0  0  0  0  0  0  0  0
   -9.3484    0.4653    6.3357 C   0  0  0  0  0  0  0  0  0  0  0  0
   -9.8881   -0.1917    7.1119 N   0  0  0  0  0  0  0  0  0  0  0  0
    8.6627    1.0530    0.9470 H   0  0  0  0  0  0  0  0  0  0  0  0
    5.5117   -2.6634    5.1287 H   0  0  0  0  0  0  0  0  0  0  0  0
    9.5651    0.1653    6.3883 H   0  0  0  0  0  0  0  0  0  0  0  0
    8.1969   -1.2884    9.1719 H   0  0  0  0  0  0  0  0  0  0  0  0
    7.4642    1.3586    8.5345 H   0  0  0  0  0  0  0  0  0  0  0  0
    6.2439    0.8909   10.8485 H   0  0  0  0  0  0  0  0  0  0  0  0
    4.2352   -0.6529   10.4156 H   0  0  0  0  0  0  0  0  0  0  0  0
    4.1537   -1.2551    7.8166 H   0  0  0  0  0  0  0  0  0  0  0  0
    4.8517    1.3114    7.8347 H   0  0  0  0  0  0  0  0  0  0  0  0
    5.8166    0.4818    6.5782 H   0  0  0  0  0  0  0  0  0  0  0  0
    6.3341   -2.7708    8.5992 H   0  0  0  0  0  0  0  0  0  0  0  0
    8.5506   -0.4394   -1.6584 H   0  0  0  0  0  0  0  0  0  0  0  0
    7.7199   -1.9776   -1.1607 H   0  0  0  0  0  0  0  0  0  0  0  0
    7.0301   -0.4029   -3.7089 H   0  0  0  0  0  0  0  0  0  0  0  0
    6.2872   -1.9676   -3.1803 H   0  0  0  0  0  0  0  0  0  0  0  0
    7.9805   -1.9503   -3.5701 H   0  0  0  0  0  0  0  0  0  0  0  0
   -1.6679   -3.7559   -5.1978 H   0  0  0  0  0  0  0  0  0  0  0  0
   -0.7833   -5.3916   -7.0257 H   0  0  0  0  0  0  0  0  0  0  0  0
    2.0532   -5.7238   -7.8755 H   0  0  0  0  0  0  0  0  0  0  0  0
    1.0116   -5.1200   -9.1845 H   0  0  0  0  0  0  0  0  0  0  0  0
    3.7133   -4.0231   -8.2073 H   0  0  0  0  0  0  0  0  0  0  0  0
    3.2201   -4.4813   -9.8882 H   0  0  0  0  0  0  0  0  0  0  0  0
    2.6157   -2.9570   -9.2137 H   0  0  0  0  0  0  0  0  0  0  0  0
   -4.3026   -1.0240   -4.3486 H   0  0  0  0  0  0  0  0  0  0  0  0
   -5.7638   -0.9371   -6.5147 H   0  0  0  0  0  0  0  0  0  0  0  0
   -5.4663   -0.2650   -9.0675 H   0  0  0  0  0  0  0  0  0  0  0  0
   -3.8130    0.2617   -9.4978 H   0  0  0  0  0  0  0  0  0  0  0  0
   -4.6025   -2.7305   -9.5419 H   0  0  0  0  0  0  0  0  0  0  0  0
   -4.5274   -1.6514  -10.9899 H   0  0  0  0  0  0  0  0  0  0  0  0
   -3.0517   -1.9694  -10.0500 H   0  0  0  0  0  0  0  0  0  0  0  0
   -8.0744    2.4406    0.2368 H   0  0  0  0  0  0  0  0  0  0  0  0
   -7.2016    1.9319   -1.2165 H   0  0  0  0  0  0  0  0  0  0  0  0
   -7.9077    4.3845   -1.3742 H   0  0  0  0  0  0  0  0  0  0  0  0
   -7.0141    4.7295    0.1143 H   0  0  0  0  0  0  0  0  0  0  0  0
   -6.0979    4.2149   -1.3457 H   0  0  0  0  0  0  0  0  0  0  0  0
   -2.0143    0.7141    2.6101 H   0  0  0  0  0  0  0  0  0  0  0  0
   -0.3363    0.4160    2.3924 H   0  0  0  0  0  0  0  0  0  0  0  0
    0.1140    2.4727    3.5853 H   0  0  0  0  0  0  0  0  0  0  0  0
   -0.8678    3.4036    2.4227 H   0  0  0  0  0  0  0  0  0  0  0  0
   -1.6464    2.5763    3.8300 H   0  0  0  0  0  0  0  0  0  0  0  0
    3.1481    1.5012    2.1316 H   0  0  0  0  0  0  0  0  0  0  0  0
    1.5208    1.1970    2.4639 H   0  0  0  0  0  0  0  0  0  0  0  0
    0.9417    3.2625    0.8590 H   0  0  0  0  0  0  0  0  0  0  0  0
    2.7154    3.4677    0.7289 H   0  0  0  0  0  0  0  0  0  0  0  0
    1.8800    3.6466    2.3361 H   0  0  0  0  0  0  0  0  0  0  0  0
   -6.9387    3.1534    3.5863 H   0  0  0  0  0  0  0  0  0  0  0  0
   -9.9292   -1.4134    0.4989 H   0  0  0  0  0  0  0  0  0  0  0  0
  -12.0061   -2.8373    0.3517 H   0  0  0  0  0  0  0  0  0  0  0  0
  -13.4344   -1.2378    4.8448 H   0  0  0  0  0  0  0  0  0  0  0  0
  -11.4819    0.2450    4.9633 H   0  0  0  0  0  0  0  0  0  0  0  0
  1  2  2  3
  2  3  1  0
  3  4  2  0
  3  5  1  0
  5  6  2  0
  6  7  1  0
  7  8  2  0
  8  9  1  0
  9 10  2  0
 10 11  1  0
 11 12  2  3
 12 13  1  0
 13 14  3  0
 12 15  1  0
 15 16  3  0
  8 17  1  0
 17 18  1  0
 18 19  1  0
 19 20  2  0
 20 21  1  0
 21 22  1  0
 21 23  1  0
  1 24  1  0
 24 25  2  0
 25 26  1  0
 26 27  1  0
 25 28  1  0
 28 29  1  0
 29 30  1  0
 30 31  1  0
 31 32  2  0
 32 33  1  0
 33 34  2  0
 34 35  1  0
 35 36  2  0
 36 37  1  0
 37 38  2  0
 38 39  1  0
 39 40  1  0
 38 41  1  0
 34 42  1  0
 42 43  1  0
 43 44  2  0
 44 45  1  0
 45 46  2  0
 46 47  1  0
 47 48  1  0
 46 49  1  0
 42 50  2  0
 50 51  1  0
 51 52  2  0
 52 53  1  0
 53 54  1  0
 54 55  1  0
 55 56  1  0
 56 57  1  0
 57 58  1  0
 56 59  2  0
 59 60  1  0
 60 61  1  0
 61 62  1  0
 62 63  1  0
 63 64  1  0
 64 65  1  0
 63 66  1  0
 66 67  2  0
 67 68  1  0
 68 69  1  0
 69 70  1  0
 70 71  1  0
 68 72  1  0
 72 73  1  0
 59 74  1  0
 74 75  2  3
 75 76  1  0
 76 77  2  0
 76 78  1  0
 78 79  2  0
 79 80  1  0
 80 81  2  0
 81 82  1  0
 82 83  1  0
 82 84  2  0
 84 85  1  0
 84 86  1  0
 86 87  2  0
 87 88  1  0
 88 89  2  0
 89 90  1  0
 90 91  2  3
 91 92  1  0
 92 93  3  0
 91 94  1  0
 94 95  3  0
 11  2  1  0
 23 17  1  0
 71 24  1  0
 90 75  1  0
 10  5  1  0
 22 18  1  0
 70 28  2  0
 89 78  1  0
 23  7  1  0
 69 30  2  0
 87 80  1  0
 67 31  1  0
 51 32  1  0
 66 52  1  0
 41 35  1  0
 49 43  1  0
 62 53  2  0
 61 55  2  0
  1 96  1  0
  6 97  1  0
  9 98  1  0
 17 99  1  0
 18100  1  0
 19101  1  0
 20102  1  0
 21103  1  0
 22104  1  0
 22105  1  0
 23106  1  0
 26107  1  0
 26108  1  0
 27109  1  0
 27110  1  0
 27111  1  0
 36112  1  0
 37113  1  0
 39114  1  0
 39115  1  0
 40116  1  0
 40117  1  0
 40118  1  0
 44119  1  0
 45120  1  0
 47121  1  0
 47122  1  0
 48123  1  0
 48124  1  0
 48125  1  0
 57126  1  0
 57127  1  0
 58128  1  0
 58129  1  0
 58130  1  0
 64131  1  0
 64132  1  0
 65133  1  0
 65134  1  0
 65135  1  0
 72136  1  0
 72137  1  0
 73138  1  0
 73139  1  0
 73140  1  0
 74141  1  0
 79142  1  0
 81143  1  0
 86144  1  0
 88145  1  0
M  END

