
     RDKit          3D

104118  0  0  0  0  0  0  0  0999 V2000
    0.2541    7.3212   -3.2251 C   0  0  0  0  0  0  0  0  0  0  0  0
   -0.8900    7.4910   -3.8399 C   0  0  0  0  0  0  0  0  0  0  0  0
   -1.5362    6.6027   -4.6932 C   0  0  0  0  0  0  0  0  0  0  0  0
   -1.0239    5.4653   -5.0883 O   0  0  0  0  0  0  0  0  0  0  0  0
   -2.8416    7.0886   -5.0838 C   0  0  0  0  0  0  0  0  0  0  0  0
   -3.7521    6.4491   -5.9600 C   0  0  0  0  0  0  0  0  0  0  0  0
   -4.9456    7.1662   -6.1494 C   0  0  0  0  0  0  0  0  0  0  0  0
   -5.1209    8.2519   -5.5615 C   0  0  0  0  0  0  0  0  0  0  0  0
   -4.3273    9.0282   -4.6771 C   0  0  0  0  0  0  0  0  0  0  0  0
   -3.0571    8.2519   -4.5075 C   0  0  0  0  0  0  0  0  0  0  0  0
   -1.8847    8.7109   -3.6261 C   0  0  0  0  0  0  0  0  0  0  0  0
   -1.7383    9.5581   -2.9040 C   0  0  0  0  0  0  0  0  0  0  0  0
   -2.1938   10.8308   -2.3038 C   0  0  0  0  0  0  0  0  0  0  0  0
   -2.5867   11.8913   -1.8196 N   0  0  0  0  0  0  0  0  0  0  0  0
   -0.7381    9.1880   -1.6631 C   0  0  0  0  0  0  0  0  0  0  0  0
    0.0208    8.9177   -0.6960 N   0  0  0  0  0  0  0  0  0  0  0  0
   -6.6316    8.2476   -6.0270 C   0  0  0  0  0  0  0  0  0  0  0  0
   -7.5040    7.4338   -5.0848 C   0  0  0  0  0  0  0  0  0  0  0  0
   -8.7811    7.2492   -5.8534 C   0  0  0  0  0  0  0  0  0  0  0  0
   -8.5155    6.4522   -6.8808 C   0  0  0  0  0  0  0  0  0  0  0  0
   -7.1103    5.9960   -6.7646 C   0  0  0  0  0  0  0  0  0  0  0  0
   -6.9855    6.0296   -5.2146 C   0  0  0  0  0  0  0  0  0  0  0  0
   -6.1902    7.1339   -7.0105 C   0  0  0  0  0  0  0  0  0  0  0  0
    0.9718    6.0767   -3.4041 C   0  0  0  0  0  0  0  0  0  0  0  0
    1.9101    5.3415   -3.8310 C   0  0  0  0  0  0  0  0  0  0  0  0
    2.1265    4.0532   -3.4798 C   0  0  0  0  0  0  0  0  0  0  0  0
    3.3299    2.8186   -4.1725 S   0  0  0  0  0  0  0  0  0  0  0  0
    2.7587    1.4571   -3.1715 C   0  0  0  0  0  0  0  0  0  0  0  0
    2.9622    0.1609   -2.8022 C   0  0  0  0  0  0  0  0  0  0  0  0
    3.6540   -0.8637   -3.4267 C   0  0  0  0  0  0  0  0  0  0  0  0
    3.5122   -2.2161   -3.0039 C   0  0  0  0  0  0  0  0  0  0  0  0
    4.0928   -3.1290   -3.6287 N   0  0  0  0  0  0  0  0  0  0  0  0
    4.9057   -2.3464   -4.8762 S   0  0  0  0  0  0  0  0  0  0  0  0
    4.4303   -0.8188   -4.5055 N   0  0  0  0  0  0  0  0  0  0  0  0
    2.6616   -2.3777   -1.8811 C   0  0  0  0  0  0  0  0  0  0  0  0
    2.6286   -3.4004   -0.9467 C   0  0  0  0  0  0  0  0  0  0  0  0
    1.9971   -2.9198    0.2015 C   0  0  0  0  0  0  0  0  0  0  0  0
    1.6717   -1.7935   -0.0946 N   0  0  0  0  0  0  0  0  0  0  0  0
    0.5514   -1.0576    0.6443 C   0  0  0  0  0  0  0  0  0  0  0  0
   -0.6989   -2.0494    0.2846 C   0  0  0  0  0  0  0  0  0  0  0  0
    2.0225   -1.3206   -1.3096 C   0  0  0  0  0  0  0  0  0  0  0  0
    2.0724   -0.0148   -1.7156 C   0  0  0  0  0  0  0  0  0  0  0  0
    1.3649    1.0932   -1.4788 N   0  0  0  0  0  0  0  0  0  0  0  0
    1.7660    2.0468   -2.4257 C   0  0  0  0  0  0  0  0  0  0  0  0
    1.6729    3.2829   -2.8062 C   0  0  0  0  0  0  0  0  0  0  0  0
    0.0664    4.6571   -2.1164 Se  0  0  0  0  0  2  0  0  0  0  0  0
    0.5179    1.5409   -0.4433 C   0  0  0  0  0  0  0  0  0  0  0  0
    1.2588    2.5761    0.4981 C   0  0  0  0  0  0  0  0  0  0  0  0
    2.2493   -4.4090    0.9772 C   0  0  0  0  0  0  0  0  0  0  0  0
    1.9738   -4.1471    1.5798 C   0  0  0  0  0  0  0  0  0  0  0  0
    2.8869   -4.9690   -0.4603 S   0  0  0  0  0  0  0  0  0  0  0  0
    2.0465   -5.4815    2.5322 C   0  0  0  0  0  0  0  0  0  0  0  0
    1.5702   -5.0122    3.6931 C   0  0  0  0  0  0  0  0  0  0  0  0
    1.1715   -3.2097    3.1784 Se  0  0  0  0  0  2  0  0  0  0  0  0
    1.6699   -5.3941    5.0751 C   0  0  0  0  0  0  0  0  0  0  0  0
    1.4959   -6.4674    5.7476 C   0  0  0  0  0  0  0  0  0  0  0  0
    1.1253   -7.8019    5.7929 C   0  0  0  0  0  0  0  0  0  0  0  0
    0.8368   -8.4745    4.7563 O   0  0  0  0  0  0  0  0  0  0  0  0
    1.0907   -8.3283    7.1489 C   0  0  0  0  0  0  0  0  0  0  0  0
    0.8470   -9.7151    7.5955 C   0  0  0  0  0  0  0  0  0  0  0  0
    1.0117   -9.8822    8.9367 C   0  0  0  0  0  0  0  0  0  0  0  0
    0.9594  -11.2699    9.4865 C   0  0  0  0  0  0  0  0  0  0  0  0
    0.9374  -11.2406   10.8279 O   0  0  0  0  0  0  0  0  0  0  0  0
    0.9445  -12.4690    8.9662 O   0  0  0  0  0  0  0  0  0  0  0  0
    0.9435  -13.6849    9.7502 C   0  0  0  0  0  0  0  0  0  0  0  0
    1.3623   -8.9502    9.8401 C   0  0  0  0  0  0  0  0  0  0  0  0
    1.5769   -7.6643    9.3270 C   0  0  0  0  0  0  0  0  0  0  0  0
    1.4279   -7.4109    7.9916 C   0  0  0  0  0  0  0  0  0  0  0  0
    1.7384   -6.0986    7.2667 C   0  0  0  0  0  0  0  0  0  0  0  0
    2.1616   -5.1875    7.9000 C   0  0  0  0  0  0  0  0  0  0  0  0
    2.6840   -4.0572    8.5470 C   0  0  0  0  0  0  0  0  0  0  0  0
    3.1005   -3.1217    9.0703 N   0  0  0  0  0  0  0  0  0  0  0  0
    3.5170   -4.9312    6.7273 C   0  0  0  0  0  0  0  0  0  0  0  0
    4.5040   -4.7596    5.8904 N   0  0  0  0  0  0  0  0  0  0  0  0
    0.7382    8.1084   -2.6984 H   0  0  0  0  0  0  0  0  0  0  0  0
   -3.5395    5.5220   -6.4002 H   0  0  0  0  0  0  0  0  0  0  0  0
   -4.4599    9.8924   -4.2236 H   0  0  0  0  0  0  0  0  0  0  0  0
   -6.9245    9.1766   -6.3999 H   0  0  0  0  0  0  0  0  0  0  0  0
   -7.6406    7.8104   -4.1062 H   0  0  0  0  0  0  0  0  0  0  0  0
   -9.7401    7.6813   -5.6410 H   0  0  0  0  0  0  0  0  0  0  0  0
   -9.1286    6.0837   -7.7114 H   0  0  0  0  0  0  0  0  0  0  0  0
   -6.8677    5.0411   -7.1955 H   0  0  0  0  0  0  0  0  0  0  0  0
   -7.6502    5.2301   -4.7930 H   0  0  0  0  0  0  0  0  0  0  0  0
   -5.9343    5.8906   -4.8958 H   0  0  0  0  0  0  0  0  0  0  0  0
   -5.9799    7.4478   -8.0290 H   0  0  0  0  0  0  0  0  0  0  0  0
    2.6045    5.8801   -4.6194 H   0  0  0  0  0  0  0  0  0  0  0  0
    0.6297   -1.0514    1.6576 H   0  0  0  0  0  0  0  0  0  0  0  0
    0.2322   -0.3363   -0.0278 H   0  0  0  0  0  0  0  0  0  0  0  0
   -0.5190   -2.9165    0.9223 H   0  0  0  0  0  0  0  0  0  0  0  0
   -0.4827   -2.3385   -0.7755 H   0  0  0  0  0  0  0  0  0  0  0  0
   -1.5949   -1.5263    0.4345 H   0  0  0  0  0  0  0  0  0  0  0  0
   -0.2587    2.2557   -0.9545 H   0  0  0  0  0  0  0  0  0  0  0  0
   -0.0657    1.0551    0.2761 H   0  0  0  0  0  0  0  0  0  0  0  0
    0.5002    3.1554    1.0151 H   0  0  0  0  0  0  0  0  0  0  0  0
    1.8104    1.9999    1.2675 H   0  0  0  0  0  0  0  0  0  0  0  0
    1.9836    3.1690   -0.1029 H   0  0  0  0  0  0  0  0  0  0  0  0
    2.3573   -6.4207    2.3468 H   0  0  0  0  0  0  0  0  0  0  0  0
    1.8941   -4.4229    5.6210 H   0  0  0  0  0  0  0  0  0  0  0  0
    0.5759  -10.4056    6.8905 H   0  0  0  0  0  0  0  0  0  0  0  0
    1.8954  -14.2077    9.5203 H   0  0  0  0  0  0  0  0  0  0  0  0
    0.9713  -13.3732   10.8121 H   0  0  0  0  0  0  0  0  0  0  0  0
    0.0908  -14.3083    9.5090 H   0  0  0  0  0  0  0  0  0  0  0  0
    1.4872   -9.0597   10.9023 H   0  0  0  0  0  0  0  0  0  0  0  0
    1.8649   -6.8940   10.0206 H   0  0  0  0  0  0  0  0  0  0  0  0
  1  2  2  3
  2  3  1  0
  3  4  2  0
  3  5  1  0
  5  6  2  0
  6  7  1  0
  7  8  2  0
  8  9  1  0
  9 10  2  0
 10 11  1  0
 11 12  2  3
 12 13  1  0
 13 14  3  0
 12 15  1  0
 15 16  3  0
  8 17  1  0
 17 18  1  0
 18 19  1  0
 19 20  2  0
 20 21  1  0
 21 22  1  0
 21 23  1  0
  1 24  1  0
 24 25  2  0
 25 26  1  0
 26 27  1  0
 27 28  1  0
 28 29  1  0
 29 30  1  0
 30 31  1  0
 31 32  2  0
 32 33  1  0
 33 34  1  0
 31 35  1  0
 35 36  1  0
 36 37  2  0
 37 38  1  0
 38 39  1  0
 39 40  1  0
 38 41  1  0
 41 42  1  0
 42 43  1  0
 43 44  1  0
 44 45  1  0
 45 46  1  0
 43 47  1  0
 47 48  1  0
 37 49  1  0
 49 50  2  0
 50 51  1  0
 50 52  1  0
 52 53  2  0
 53 54  1  0
 53 55  1  0
 55 56  2  3
 56 57  1  0
 57 58  2  0
 57 59  1  0
 59 60  2  0
 60 61  1  0
 61 62  1  0
 62 63  2  0
 62 64  1  0
 64 65  1  0
 61 66  2  0
 66 67  1  0
 67 68  2  0
 68 69  1  0
 69 70  2  3
 70 71  1  0
 71 72  3  0
 70 73  1  0
 73 74  3  0
 11  2  1  0
 23 17  1  0
 46 24  1  0
 54 49  1  0
 69 56  1  0
 10  5  1  0
 22 18  1  0
 45 26  2  0
 68 59  1  0
 23  7  1  0
 44 28  2  0
 42 29  2  0
 34 30  2  0
 41 35  2  0
 51 36  1  0
  1 75  1  0
  6 76  1  0
  9 77  1  0
 17 78  1  0
 18 79  1  0
 19 80  1  0
 20 81  1  0
 21 82  1  0
 22 83  1  0
 22 84  1  0
 23 85  1  0
 25 86  1  0
 39 87  1  0
 39 88  1  0
 40 89  1  0
 40 90  1  0
 40 91  1  0
 47 92  1  0
 47 93  1  0
 48 94  1  0
 48 95  1  0
 48 96  1  0
 52 97  1  0
 55 98  1  0
 60 99  1  0
 65100  1  0
 65101  1  0
 65102  1  0
 66103  1  0
 67104  1  0
M  END

