
     RDKit          3D

107120  0  0  0  0  0  0  0  0999 V2000
   -3.4332   -4.9406    2.5002 C   0  0  0  0  0  0  0  0  0  0  0  0
   -3.7825   -5.9420    1.6667 C   0  0  0  0  0  0  0  0  0  0  0  0
   -2.8735   -6.8053    0.9031 C   0  0  0  0  0  0  0  0  0  0  0  0
   -1.8802   -7.4367    1.3600 O   0  0  0  0  0  0  0  0  0  0  0  0
   -3.4133   -6.9696   -0.4299 C   0  0  0  0  0  0  0  0  0  0  0  0
   -2.6884   -7.3767   -1.5744 C   0  0  0  0  0  0  0  0  0  0  0  0
   -3.3345   -7.0798   -2.7589 C   0  0  0  0  0  0  0  0  0  0  0  0
   -4.6092   -6.4226   -2.8185 C   0  0  0  0  0  0  0  0  0  0  0  0
   -5.3416   -6.0616   -1.6951 C   0  0  0  0  0  0  0  0  0  0  0  0
   -4.7042   -6.3885   -0.4720 C   0  0  0  0  0  0  0  0  0  0  0  0
   -5.0584   -5.9217    0.8867 C   0  0  0  0  0  0  0  0  0  0  0  0
   -6.3116   -5.7421    1.3676 C   0  0  0  0  0  0  0  0  0  0  0  0
   -6.5543   -5.4545    2.7523 C   0  0  0  0  0  0  0  0  0  0  0  0
   -6.7487   -5.2376    3.8774 N   0  0  0  0  0  0  0  0  0  0  0  0
   -7.4678   -6.0451    0.5638 C   0  0  0  0  0  0  0  0  0  0  0  0
   -8.3851   -6.3170   -0.0781 N   0  0  0  0  0  0  0  0  0  0  0  0
   -4.4760   -6.2716   -4.3057 C   0  0  0  0  0  0  0  0  0  0  0  0
   -4.0783   -4.8667   -4.8732 C   0  0  0  0  0  0  0  0  0  0  0  0
   -3.1938   -4.1254   -3.8914 C   0  0  0  0  0  0  0  0  0  0  0  0
   -2.0310   -4.7830   -3.8597 C   0  0  0  0  0  0  0  0  0  0  0  0
   -2.1681   -5.9570   -4.8086 C   0  0  0  0  0  0  0  0  0  0  0  0
   -3.0143   -5.2891   -5.8753 C   0  0  0  0  0  0  0  0  0  0  0  0
   -3.1954   -6.9899   -4.2479 C   0  0  0  0  0  0  0  0  0  0  0  0
   -2.0701   -4.3598    2.6639 C   0  0  0  0  0  0  0  0  0  0  0  0
   -0.7159   -4.7226    1.6716 S   0  0  0  0  0  0  0  0  0  0  0  0
    0.1347   -3.3629    2.1270 C   0  0  0  0  0  0  0  0  0  0  0  0
    1.2365   -2.6597    1.7307 C   0  0  0  0  0  0  0  0  0  0  0  0
    2.3192   -2.9652    0.8952 C   0  0  0  0  0  0  0  0  0  0  0  0
    3.3218   -1.9683    0.6862 C   0  0  0  0  0  0  0  0  0  0  0  0
    4.3449   -2.2925   -0.1396 N   0  0  0  0  0  0  0  0  0  0  0  0
    3.9119   -3.8475   -0.5172 S   0  0  0  0  0  0  0  0  0  0  0  0
    2.4910   -4.1645    0.2758 N   0  0  0  0  0  0  0  0  0  0  0  0
    3.1444   -0.7015    1.2755 C   0  0  0  0  0  0  0  0  0  0  0  0
    3.7399    0.5065    1.0124 C   0  0  0  0  0  0  0  0  0  0  0  0
    4.9175    1.1265   -0.0508 S   0  0  0  0  0  0  0  0  0  0  0  0
    4.3255    2.7126    0.1762 C   0  0  0  0  0  0  0  0  0  0  0  0
    4.6830    3.9627   -0.3394 C   0  0  0  0  0  0  0  0  0  0  0  0
    5.9671    4.2218   -1.0726 C   0  0  0  0  0  0  0  0  0  0  0  0
    7.0978    4.4873   -0.0798 C   0  0  0  0  0  0  0  0  0  0  0  0
    3.7842    4.9552    0.1030 C   0  0  0  0  0  0  0  0  0  0  0  0
    2.6146    4.2701    1.1316 S   0  0  0  0  0  0  0  0  0  0  0  0
    3.2287    2.7225    1.0006 C   0  0  0  0  0  0  0  0  0  0  0  0
    2.9129    1.4694    1.5001 C   0  0  0  0  0  0  0  0  0  0  0  0
    1.8069    0.9621    2.1012 N   0  0  0  0  0  0  0  0  0  0  0  0
    2.0079   -0.3924    2.0438 C   0  0  0  0  0  0  0  0  0  0  0  0
    1.1029   -1.4264    2.3688 C   0  0  0  0  0  0  0  0  0  0  0  0
    0.0438   -1.4235    3.2293 N   0  0  0  0  0  0  0  0  0  0  0  0
   -0.5643   -2.6191    3.0027 C   0  0  0  0  0  0  0  0  0  0  0  0
   -1.8081   -3.1615    3.3832 C   0  0  0  0  0  0  0  0  0  0  0  0
   -2.8270   -2.4629    4.2469 C   0  0  0  0  0  0  0  0  0  0  0  0
   -3.5977   -1.4162    3.4444 C   0  0  0  0  0  0  0  0  0  0  0  0
   -0.0683   -0.6088    4.4456 C   0  0  0  0  0  0  0  0  0  0  0  0
    0.3621   -1.3995    5.6782 C   0  0  0  0  0  0  0  0  0  0  0  0
    0.5150    1.6627    2.1595 C   0  0  0  0  0  0  0  0  0  0  0  0
    0.4634    2.6713    3.3155 C   0  0  0  0  0  0  0  0  0  0  0  0
    3.8416    6.4120   -0.1585 C   0  0  0  0  0  0  0  0  0  0  0  0
    3.4947    6.9613   -1.3308 C   0  0  0  0  0  0  0  0  0  0  0  0
    3.1803    6.2598   -2.5878 C   0  0  0  0  0  0  0  0  0  0  0  0
    3.4701    5.0728   -2.8867 O   0  0  0  0  0  0  0  0  0  0  0  0
    2.4937    7.1914   -3.4698 C   0  0  0  0  0  0  0  0  0  0  0  0
    2.1885    7.0333   -4.8251 C   0  0  0  0  0  0  0  0  0  0  0  0
    1.6979    8.1462   -5.5321 C   0  0  0  0  0  0  0  0  0  0  0  0
    1.4372    8.0490   -6.8610 F   0  0  0  0  0  0  0  0  0  0  0  0
    1.5315    9.3865   -4.8795 C   0  0  0  0  0  0  0  0  0  0  0  0
    1.8553    9.5256   -3.5186 C   0  0  0  0  0  0  0  0  0  0  0  0
    2.3230    8.4032   -2.8176 C   0  0  0  0  0  0  0  0  0  0  0  0
    2.9400    8.3258   -1.4673 C   0  0  0  0  0  0  0  0  0  0  0  0
    3.1299    9.3620   -0.6206 C   0  0  0  0  0  0  0  0  0  0  0  0
    4.4764    9.6872   -0.2256 C   0  0  0  0  0  0  0  0  0  0  0  0
    5.5708    9.9525    0.0249 N   0  0  0  0  0  0  0  0  0  0  0  0
    2.1041   10.3534   -0.4406 C   0  0  0  0  0  0  0  0  0  0  0  0
    1.2488   11.1177   -0.2806 N   0  0  0  0  0  0  0  0  0  0  0  0
   -4.2361   -4.3273    2.8591 H   0  0  0  0  0  0  0  0  0  0  0  0
   -1.6642   -7.7349   -1.5350 H   0  0  0  0  0  0  0  0  0  0  0  0
   -6.2542   -5.4849   -1.7646 H   0  0  0  0  0  0  0  0  0  0  0  0
   -5.2685   -6.8015   -4.8892 H   0  0  0  0  0  0  0  0  0  0  0  0
   -4.9131   -4.2641   -5.2934 H   0  0  0  0  0  0  0  0  0  0  0  0
   -3.4332   -3.2254   -3.3355 H   0  0  0  0  0  0  0  0  0  0  0  0
   -1.1532   -4.5120   -3.2765 H   0  0  0  0  0  0  0  0  0  0  0  0
   -1.2040   -6.3887   -5.1597 H   0  0  0  0  0  0  0  0  0  0  0  0
   -3.3823   -5.9915   -6.6615 H   0  0  0  0  0  0  0  0  0  0  0  0
   -2.5026   -4.4248   -6.3718 H   0  0  0  0  0  0  0  0  0  0  0  0
   -3.2079   -7.9780   -4.7681 H   0  0  0  0  0  0  0  0  0  0  0  0
    5.8689    5.1009   -1.7504 H   0  0  0  0  0  0  0  0  0  0  0  0
    6.2234    3.3398   -1.6996 H   0  0  0  0  0  0  0  0  0  0  0  0
    7.0327    5.5275    0.3170 H   0  0  0  0  0  0  0  0  0  0  0  0
    8.0824    4.3581   -0.5865 H   0  0  0  0  0  0  0  0  0  0  0  0
    7.0561    3.7743    0.7775 H   0  0  0  0  0  0  0  0  0  0  0  0
   -3.5352   -3.1945    4.6879 H   0  0  0  0  0  0  0  0  0  0  0  0
   -2.3412   -1.9873    5.1196 H   0  0  0  0  0  0  0  0  0  0  0  0
   -4.3016   -0.8848    4.1170 H   0  0  0  0  0  0  0  0  0  0  0  0
   -2.9027   -0.6794    2.9941 H   0  0  0  0  0  0  0  0  0  0  0  0
   -4.1828   -1.8930    2.6303 H   0  0  0  0  0  0  0  0  0  0  0  0
    0.6052    0.2685    4.3951 H   0  0  0  0  0  0  0  0  0  0  0  0
   -1.0985   -0.2284    4.5542 H   0  0  0  0  0  0  0  0  0  0  0  0
   -0.1033   -2.4088    5.7072 H   0  0  0  0  0  0  0  0  0  0  0  0
    1.4682   -1.5181    5.6799 H   0  0  0  0  0  0  0  0  0  0  0  0
    0.0523   -0.8525    6.5991 H   0  0  0  0  0  0  0  0  0  0  0  0
    0.3368    2.1868    1.1896 H   0  0  0  0  0  0  0  0  0  0  0  0
   -0.3146    0.9431    2.2565 H   0  0  0  0  0  0  0  0  0  0  0  0
    1.3691    2.6065    3.9577 H   0  0  0  0  0  0  0  0  0  0  0  0
   -0.4382    2.4905    3.9416 H   0  0  0  0  0  0  0  0  0  0  0  0
    0.3824    3.7031    2.9086 H   0  0  0  0  0  0  0  0  0  0  0  0
    3.8591    7.0410    0.7247 H   0  0  0  0  0  0  0  0  0  0  0  0
    2.3684    6.0927   -5.3357 H   0  0  0  0  0  0  0  0  0  0  0  0
    1.1847   10.2540   -5.4369 H   0  0  0  0  0  0  0  0  0  0  0  0
    1.7960   10.4989   -3.0570 H   0  0  0  0  0  0  0  0  0  0  0  0
  1  2  2  3
  2  3  1  0
  3  4  2  0
  3  5  1  0
  5  6  2  0
  6  7  1  0
  7  8  2  0
  8  9  1  0
  9 10  2  0
 10 11  1  0
 11 12  2  3
 12 13  1  0
 13 14  3  0
 12 15  1  0
 15 16  3  0
  8 17  1  0
 17 18  1  0
 18 19  1  0
 19 20  2  0
 20 21  1  0
 21 22  1  0
 21 23  1  0
  1 24  1  0
 24 25  1  0
 25 26  1  0
 26 27  1  0
 27 28  1  0
 28 29  1  0
 29 30  2  0
 30 31  1  0
 31 32  1  0
 29 33  1  0
 33 34  1  0
 34 35  1  0
 35 36  1  0
 36 37  1  0
 37 38  1  0
 38 39  1  0
 37 40  2  0
 40 41  1  0
 41 42  1  0
 42 43  1  0
 43 44  1  0
 44 45  1  0
 45 46  1  0
 46 47  1  0
 47 48  1  0
 48 49  1  0
 49 50  1  0
 50 51  1  0
 47 52  1  0
 52 53  1  0
 44 54  1  0
 54 55  1  0
 40 56  1  0
 56 57  2  3
 57 58  1  0
 58 59  2  0
 58 60  1  0
 60 61  2  0
 61 62  1  0
 62 63  1  0
 62 64  2  0
 64 65  1  0
 65 66  2  0
 66 67  1  0
 67 68  2  3
 68 69  1  0
 69 70  3  0
 68 71  1  0
 71 72  3  0
 11  2  1  0
 23 17  1  0
 49 24  2  0
 67 57  1  0
 10  5  1  0
 22 18  1  0
 48 26  2  0
 66 60  1  0
 23  7  1  0
 46 27  2  0
 32 28  2  0
 45 33  2  0
 43 34  2  0
 42 36  2  0
  1 73  1  0
  6 74  1  0
  9 75  1  0
 17 76  1  0
 18 77  1  0
 19 78  1  0
 20 79  1  0
 21 80  1  0
 22 81  1  0
 22 82  1  0
 23 83  1  0
 38 84  1  0
 38 85  1  0
 39 86  1  0
 39 87  1  0
 39 88  1  0
 50 89  1  0
 50 90  1  0
 51 91  1  0
 51 92  1  0
 51 93  1  0
 52 94  1  0
 52 95  1  0
 53 96  1  0
 53 97  1  0
 53 98  1  0
 54 99  1  0
 54100  1  0
 55101  1  0
 55102  1  0
 55103  1  0
 56104  1  0
 61105  1  0
 64106  1  0
 65107  1  0
M  END

