
     RDKit          3D

113127  0  0  0  0  0  0  0  0999 V2000
   -7.7128    0.5404    0.0636 C   0  0  0  0  0  0  0  0  0  0  0  0
   -7.1784   -0.6958    0.2404 C   0  0  0  0  0  0  0  0  0  0  0  0
   -6.0291   -1.1071    0.9935 C   0  0  0  0  0  0  0  0  0  0  0  0
   -5.6962   -0.6353    2.1518 O   0  0  0  0  0  0  0  0  0  0  0  0
   -5.2819   -2.1429    0.2953 C   0  0  0  0  0  0  0  0  0  0  0  0
   -4.0988   -2.7364    0.5993 C   0  0  0  0  0  0  0  0  0  0  0  0
   -3.4904   -3.6497   -0.2557 C   0  0  0  0  0  0  0  0  0  0  0  0
   -4.1177   -3.9342   -1.4259 C   0  0  0  0  0  0  0  0  0  0  0  0
   -5.3282   -3.3231   -1.7383 C   0  0  0  0  0  0  0  0  0  0  0  0
   -5.9259   -2.4165   -0.8793 C   0  0  0  0  0  0  0  0  0  0  0  0
   -7.1543   -1.5579   -1.0073 C   0  0  0  0  0  0  0  0  0  0  0  0
   -8.0729   -1.7021   -1.8915 C   0  0  0  0  0  0  0  0  0  0  0  0
   -8.1266   -2.4381   -3.0699 C   0  0  0  0  0  0  0  0  0  0  0  0
   -8.1535   -3.1103   -4.1330 N   0  0  0  0  0  0  0  0  0  0  0  0
   -9.4659   -1.1722   -1.5731 C   0  0  0  0  0  0  0  0  0  0  0  0
  -10.5621   -0.7577   -1.3426 N   0  0  0  0  0  0  0  0  0  0  0  0
   -3.0141   -4.8656   -1.8058 C   0  0  0  0  0  0  0  0  0  0  0  0
   -2.1122   -4.1877   -2.7889 C   0  0  0  0  0  0  0  0  0  0  0  0
   -0.7787   -4.9098   -2.7318 C   0  0  0  0  0  0  0  0  0  0  0  0
   -0.1785   -4.6818   -1.5864 C   0  0  0  0  0  0  0  0  0  0  0  0
   -1.0744   -3.7697   -0.8341 C   0  0  0  0  0  0  0  0  0  0  0  0
   -1.6367   -2.9492   -1.9988 C   0  0  0  0  0  0  0  0  0  0  0  0
   -2.3273   -4.5399   -0.4922 C   0  0  0  0  0  0  0  0  0  0  0  0
   -6.9965    1.6629    0.6797 C   0  0  0  0  0  0  0  0  0  0  0  0
   -7.0872    2.9424    0.9621 C   0  0  0  0  0  0  0  0  0  0  0  0
   -8.4325    3.6651    0.9185 C   0  0  0  0  0  0  0  0  0  0  0  0
   -8.8946    3.9241   -0.4411 C   0  0  0  0  0  0  0  0  0  0  0  0
   -5.9428    3.6119    1.2854 C   0  0  0  0  0  0  0  0  0  0  0  0
   -5.3280    5.4323    1.5866 Se  0  0  0  0  0  2  0  0  0  0  0  0
   -3.4992    4.8981    1.7096 C   0  0  0  0  0  0  0  0  0  0  0  0
   -2.1979    5.3568    1.8195 C   0  0  0  0  0  0  0  0  0  0  0  0
   -1.6527    6.6584    1.7893 C   0  0  0  0  0  0  0  0  0  0  0  0
   -0.3088    6.7743    1.6423 C   0  0  0  0  0  0  0  0  0  0  0  0
    0.1395    8.0582    1.6141 N   0  0  0  0  0  0  0  0  0  0  0  0
   -1.2399    8.9865    1.7732 S   0  0  0  0  0  0  0  0  0  0  0  0
   -2.3581    7.7864    1.8780 N   0  0  0  0  0  0  0  0  0  0  0  0
    0.4777    5.6400    1.5477 C   0  0  0  0  0  0  0  0  0  0  0  0
    1.7959    5.4314    1.3516 C   0  0  0  0  0  0  0  0  0  0  0  0
    3.5044    6.3114    0.9106 Se  0  0  0  0  0  2  0  0  0  0  0  0
    4.4160    4.4460    0.7347 C   0  0  0  0  0  0  0  0  0  0  0  0
    5.6231    4.0384    0.3747 C   0  0  0  0  0  0  0  0  0  0  0  0
    6.7817    4.9531    0.0145 C   0  0  0  0  0  0  0  0  0  0  0  0
    6.6302    5.5029   -1.4011 C   0  0  0  0  0  0  0  0  0  0  0  0
    5.7613    2.7313    0.2865 C   0  0  0  0  0  0  0  0  0  0  0  0
    4.1608    2.1717    0.7394 S   0  0  0  0  0  0  0  0  0  0  0  0
    3.3983    3.7603    1.0003 C   0  0  0  0  0  0  0  0  0  0  0  0
    2.1291    4.1326    1.3040 C   0  0  0  0  0  0  0  0  0  0  0  0
    0.9113    3.4514    1.4894 N   0  0  0  0  0  0  0  0  0  0  0  0
   -0.0547    4.3513    1.6032 C   0  0  0  0  0  0  0  0  0  0  0  0
   -1.4319    4.2062    1.7191 C   0  0  0  0  0  0  0  0  0  0  0  0
   -2.2335    3.1518    1.5500 N   0  0  0  0  0  0  0  0  0  0  0  0
   -3.5685    3.5947    1.5359 C   0  0  0  0  0  0  0  0  0  0  0  0
   -4.7991    3.0245    1.3274 C   0  0  0  0  0  0  0  0  0  0  0  0
   -5.3186    1.4114    0.8900 S   0  0  0  0  0  0  0  0  0  0  0  0
   -1.9423    1.7535    1.2805 C   0  0  0  0  0  0  0  0  0  0  0  0
   -1.8818    1.5062   -0.2265 C   0  0  0  0  0  0  0  0  0  0  0  0
    0.9064    2.0484    1.9032 C   0  0  0  0  0  0  0  0  0  0  0  0
    1.1333    1.0921    0.7915 C   0  0  0  0  0  0  0  0  0  0  0  0
    6.7390    1.6943   -0.1681 C   0  0  0  0  0  0  0  0  0  0  0  0
    6.0936    0.7405   -0.9077 C   0  0  0  0  0  0  0  0  0  0  0  0
    4.3899    0.7836   -1.2584 S   0  0  0  0  0  0  0  0  0  0  0  0
    4.2534   -0.7028   -2.0685 C   0  0  0  0  0  0  0  0  0  0  0  0
    3.1504   -1.2407   -2.5434 C   0  0  0  0  0  0  0  0  0  0  0  0
    1.8617   -0.6795   -2.4201 C   0  0  0  0  0  0  0  0  0  0  0  0
    0.6722   -0.1811   -2.3070 N   0  0  0  0  0  0  0  0  0  0  0  0
    3.1726   -2.2388   -3.5821 C   0  0  0  0  0  0  0  0  0  0  0  0
    3.2025   -3.1085   -4.5065 N   0  0  0  0  0  0  0  0  0  0  0  0
    5.4772   -1.1465   -2.0235 N   0  0  0  0  0  0  0  0  0  0  0  0
    5.6749   -2.5767   -2.3604 C   0  0  0  0  0  0  0  0  0  0  0  0
    6.2799   -3.0746   -3.4460 C   0  0  0  0  0  0  0  0  0  0  0  0
    6.3918   -4.4788   -3.6132 C   0  0  0  0  0  0  0  0  0  0  0  0
    5.8915   -5.3323   -2.6772 C   0  0  0  0  0  0  0  0  0  0  0  0
    5.2538   -4.8084   -1.5285 C   0  0  0  0  0  0  0  0  0  0  0  0
    5.1521   -3.4600   -1.3816 C   0  0  0  0  0  0  0  0  0  0  0  0
    6.4384   -0.4638   -1.4587 C   0  0  0  0  0  0  0  0  0  0  0  0
    7.6661   -0.8609   -1.3900 O   0  0  0  0  0  0  0  0  0  0  0  0
   -8.5838    0.7015   -0.4850 H   0  0  0  0  0  0  0  0  0  0  0  0
   -3.6223   -2.4874    1.5421 H   0  0  0  0  0  0  0  0  0  0  0  0
   -5.8308   -3.5944   -2.6801 H   0  0  0  0  0  0  0  0  0  0  0  0
   -3.3073   -5.9135   -1.9854 H   0  0  0  0  0  0  0  0  0  0  0  0
   -2.4887   -3.9914   -3.7375 H   0  0  0  0  0  0  0  0  0  0  0  0
   -0.3598   -5.5370   -3.5294 H   0  0  0  0  0  0  0  0  0  0  0  0
    0.7680   -5.0449   -1.2583 H   0  0  0  0  0  0  0  0  0  0  0  0
   -0.6033   -3.1976   -0.0853 H   0  0  0  0  0  0  0  0  0  0  0  0
   -2.4993   -2.3584   -1.6590 H   0  0  0  0  0  0  0  0  0  0  0  0
   -0.8696   -2.4445   -2.5632 H   0  0  0  0  0  0  0  0  0  0  0  0
   -2.2314   -5.3586    0.2139 H   0  0  0  0  0  0  0  0  0  0  0  0
   -8.3691    4.6335    1.4551 H   0  0  0  0  0  0  0  0  0  0  0  0
   -9.1647    3.0532    1.4418 H   0  0  0  0  0  0  0  0  0  0  0  0
   -8.1279    4.4396   -1.0812 H   0  0  0  0  0  0  0  0  0  0  0  0
   -9.2828    3.0272   -0.9408 H   0  0  0  0  0  0  0  0  0  0  0  0
   -9.7729    4.6374   -0.3878 H   0  0  0  0  0  0  0  0  0  0  0  0
    7.7168    4.4376    0.0583 H   0  0  0  0  0  0  0  0  0  0  0  0
    6.6921    5.7769    0.8115 H   0  0  0  0  0  0  0  0  0  0  0  0
    5.7791    4.9981   -1.9210 H   0  0  0  0  0  0  0  0  0  0  0  0
    6.4890    6.6222   -1.3269 H   0  0  0  0  0  0  0  0  0  0  0  0
    7.5114    5.3428   -2.0555 H   0  0  0  0  0  0  0  0  0  0  0  0
   -2.9536    1.1762    1.5021 H   0  0  0  0  0  0  0  0  0  0  0  0
   -1.3745    1.2146    1.9650 H   0  0  0  0  0  0  0  0  0  0  0  0
   -1.3889    0.5384   -0.4797 H   0  0  0  0  0  0  0  0  0  0  0  0
   -2.9002    1.4983   -0.7138 H   0  0  0  0  0  0  0  0  0  0  0  0
   -1.3375    2.3782   -0.6600 H   0  0  0  0  0  0  0  0  0  0  0  0
    0.2810    1.8471    2.7364 H   0  0  0  0  0  0  0  0  0  0  0  0
    1.9429    1.9211    2.5336 H   0  0  0  0  0  0  0  0  0  0  0  0
    2.0839    0.4549    0.9024 H   0  0  0  0  0  0  0  0  0  0  0  0
    0.3972    0.2130    0.8679 H   0  0  0  0  0  0  0  0  0  0  0  0
    1.1604    1.5125   -0.1957 H   0  0  0  0  0  0  0  0  0  0  0  0
    7.7371    1.7027    0.0289 H   0  0  0  0  0  0  0  0  0  0  0  0
    6.6723   -2.4214   -4.1883 H   0  0  0  0  0  0  0  0  0  0  0  0
    6.9024   -4.7936   -4.5281 H   0  0  0  0  0  0  0  0  0  0  0  0
    5.9943   -6.3930   -2.8718 H   0  0  0  0  0  0  0  0  0  0  0  0
    4.8675   -5.5497   -0.8288 H   0  0  0  0  0  0  0  0  0  0  0  0
    4.6672   -3.0231   -0.4870 H   0  0  0  0  0  0  0  0  0  0  0  0
  1  2  2  3
  2  3  1  0
  3  4  2  0
  3  5  1  0
  5  6  2  0
  6  7  1  0
  7  8  2  0
  8  9  1  0
  9 10  2  0
 10 11  1  0
 11 12  2  3
 12 13  1  0
 13 14  3  0
 12 15  1  0
 15 16  3  0
  8 17  1  0
 17 18  1  0
 18 19  1  0
 19 20  2  0
 20 21  1  0
 21 22  1  0
 21 23  1  0
  1 24  1  0
 24 25  2  0
 25 26  1  0
 26 27  1  0
 25 28  1  0
 28 29  1  0
 29 30  1  0
 30 31  1  0
 31 32  1  0
 32 33  1  0
 33 34  2  0
 34 35  1  0
 35 36  1  0
 33 37  1  0
 37 38  1  0
 38 39  1  0
 39 40  1  0
 40 41  1  0
 41 42  1  0
 42 43  1  0
 41 44  2  0
 44 45  1  0
 45 46  1  0
 46 47  1  0
 47 48  1  0
 48 49  1  0
 49 50  1  0
 50 51  1  0
 51 52  1  0
 52 53  1  0
 53 54  1  0
 51 55  1  0
 55 56  1  0
 48 57  1  0
 57 58  1  0
 44 59  1  0
 59 60  2  3
 60 61  1  0
 61 62  1  0
 62 63  2  3
 63 64  1  0
 64 65  3  0
 63 66  1  0
 66 67  3  0
 62 68  1  0
 68 69  1  0
 69 70  2  0
 70 71  1  0
 71 72  2  0
 72 73  1  0
 73 74  2  0
 68 75  1  0
 75 76  2  0
 11  2  1  0
 23 17  1  0
 54 24  1  0
 75 60  1  0
 10  5  1  0
 22 18  1  0
 53 28  2  0
 74 69  1  0
 23  7  1  0
 52 30  2  0
 50 31  2  0
 36 32  2  0
 49 37  2  0
 47 38  2  0
 46 40  2  0
  1 77  1  0
  6 78  1  0
  9 79  1  0
 17 80  1  0
 18 81  1  0
 19 82  1  0
 20 83  1  0
 21 84  1  0
 22 85  1  0
 22 86  1  0
 23 87  1  0
 26 88  1  0
 26 89  1  0
 27 90  1  0
 27 91  1  0
 27 92  1  0
 42 93  1  0
 42 94  1  0
 43 95  1  0
 43 96  1  0
 43 97  1  0
 55 98  1  0
 55 99  1  0
 56100  1  0
 56101  1  0
 56102  1  0
 57103  1  0
 57104  1  0
 58105  1  0
 58106  1  0
 58107  1  0
 59108  1  0
 70109  1  0
 71110  1  0
 72111  1  0
 73112  1  0
 74113  1  0
M  END

