
     RDKit          3D

107121  0  0  0  0  0  0  0  0999 V2000
    5.7282   -1.4074   -3.1982 C   0  0  0  0  0  0  0  0  0  0  0  0
    4.7530   -1.6731   -4.1396 C   0  0  0  0  0  0  0  0  0  0  0  0
    3.5865   -0.9371   -4.3945 C   0  0  0  0  0  0  0  0  0  0  0  0
    3.2589    0.1697   -3.8502 O   0  0  0  0  0  0  0  0  0  0  0  0
    2.7418   -1.6146   -5.3873 C   0  0  0  0  0  0  0  0  0  0  0  0
    1.5214   -1.2718   -5.8826 C   0  0  0  0  0  0  0  0  0  0  0  0
    0.8731   -2.0716   -6.7644 C   0  0  0  0  0  0  0  0  0  0  0  0
    1.5072   -3.2547   -7.1311 C   0  0  0  0  0  0  0  0  0  0  0  0
    2.7700   -3.5951   -6.6183 C   0  0  0  0  0  0  0  0  0  0  0  0
    3.4295   -2.7879   -5.7295 C   0  0  0  0  0  0  0  0  0  0  0  0
    4.7142   -2.8753   -4.9628 C   0  0  0  0  0  0  0  0  0  0  0  0
    5.5015   -3.9216   -5.0158 C   0  0  0  0  0  0  0  0  0  0  0  0
    6.6310   -4.0558   -4.1895 C   0  0  0  0  0  0  0  0  0  0  0  0
    7.6468   -4.1705   -3.4718 N   0  0  0  0  0  0  0  0  0  0  0  0
    5.3889   -5.0579   -5.8943 C   0  0  0  0  0  0  0  0  0  0  0  0
    5.2889   -5.9958   -6.5975 N   0  0  0  0  0  0  0  0  0  0  0  0
    0.3058   -3.6457   -7.8979 C   0  0  0  0  0  0  0  0  0  0  0  0
   -0.6480   -4.4552   -6.9838 C   0  0  0  0  0  0  0  0  0  0  0  0
   -0.5606   -3.8125   -5.6526 C   0  0  0  0  0  0  0  0  0  0  0  0
   -1.3834   -2.7521   -5.6069 C   0  0  0  0  0  0  0  0  0  0  0  0
   -1.6067   -2.4300   -7.0433 C   0  0  0  0  0  0  0  0  0  0  0  0
   -1.9816   -3.8661   -7.4723 C   0  0  0  0  0  0  0  0  0  0  0  0
   -0.2934   -2.2767   -7.6963 C   0  0  0  0  0  0  0  0  0  0  0  0
    5.4472   -0.1797   -2.4014 C   0  0  0  0  0  0  0  0  0  0  0  0
    5.3401    1.1109   -2.6556 C   0  0  0  0  0  0  0  0  0  0  0  0
    5.9566    1.7180   -3.9276 C   0  0  0  0  0  0  0  0  0  0  0  0
    7.4709    1.7946   -3.7117 C   0  0  0  0  0  0  0  0  0  0  0  0
    4.7602    1.9249   -1.7120 C   0  0  0  0  0  0  0  0  0  0  0  0
    4.1955    3.5785   -1.5843 S   0  0  0  0  0  0  0  0  0  0  0  0
    3.4419    3.4522   -0.0422 C   0  0  0  0  0  0  0  0  0  0  0  0
    2.6015    4.1093    0.8582 C   0  0  0  0  0  0  0  0  0  0  0  0
    1.8764    5.3458    0.6221 C   0  0  0  0  0  0  0  0  0  0  0  0
    0.8488    5.5764    1.3586 C   0  0  0  0  0  0  0  0  0  0  0  0
    0.2074    6.7896    1.2688 N   0  0  0  0  0  0  0  0  0  0  0  0
    1.3297    7.6531   -0.1070 Se  0  0  0  0  0  2  0  0  0  0  0  0
    2.3414    6.2414   -0.2322 N   0  0  0  0  0  0  0  0  0  0  0  0
    0.4770    4.6858    2.3229 C   0  0  0  0  0  0  0  0  0  0  0  0
   -0.7347    4.5102    3.0571 C   0  0  0  0  0  0  0  0  0  0  0  0
   -2.4223    4.9226    3.0019 S   0  0  0  0  0  0  0  0  0  0  0  0
   -3.1200    3.6335    3.8146 C   0  0  0  0  0  0  0  0  0  0  0  0
   -4.0181    2.7760    4.3218 C   0  0  0  0  0  0  0  0  0  0  0  0
   -5.5188    3.7590    3.9482 C   0  0  0  0  0  0  0  0  0  0  0  0
   -5.3390    3.9884    2.5077 C   0  0  0  0  0  0  0  0  0  0  0  0
   -4.4148    1.9348    4.8270 C   0  0  0  0  0  0  0  0  0  0  0  0
   -2.5015    1.4695    5.0306 S   0  0  0  0  0  0  0  0  0  0  0  0
   -1.9218    2.8717    4.1625 C   0  0  0  0  0  0  0  0  0  0  0  0
   -0.7137    3.3584    3.7422 C   0  0  0  0  0  0  0  0  0  0  0  0
    0.5111    2.7571    3.4643 N   0  0  0  0  0  0  0  0  0  0  0  0
    1.2012    3.4842    2.6309 C   0  0  0  0  0  0  0  0  0  0  0  0
    2.3245    3.2099    1.8083 C   0  0  0  0  0  0  0  0  0  0  0  0
    2.9369    2.0295    1.5432 N   0  0  0  0  0  0  0  0  0  0  0  0
    3.6461    2.1758    0.3291 C   0  0  0  0  0  0  0  0  0  0  0  0
    4.3431    1.3811   -0.5811 C   0  0  0  0  0  0  0  0  0  0  0  0
    4.7639   -0.2971   -0.8210 S   0  0  0  0  0  0  0  0  0  0  0  0
    3.1305    0.8021    2.2053 C   0  0  0  0  0  0  0  0  0  0  0  0
    4.5930    0.7091    2.7532 C   0  0  0  0  0  0  0  0  0  0  0  0
    1.1002    1.6707    4.2189 C   0  0  0  0  0  0  0  0  0  0  0  0
    2.2421    2.0968    5.1202 C   0  0  0  0  0  0  0  0  0  0  0  0
   -5.1875    0.9003    5.4177 C   0  0  0  0  0  0  0  0  0  0  0  0
   -5.8824    0.0009    5.7481 C   0  0  0  0  0  0  0  0  0  0  0  0
   -6.0505   -0.4650    7.2387 C   0  0  0  0  0  0  0  0  0  0  0  0
   -5.6440    0.2408    8.1554 O   0  0  0  0  0  0  0  0  0  0  0  0
   -6.7277   -1.7467    7.1860 C   0  0  0  0  0  0  0  0  0  0  0  0
   -7.0001   -2.1182    5.9759 C   0  0  0  0  0  0  0  0  0  0  0  0
   -7.5602   -3.4049    5.8267 C   0  0  0  0  0  0  0  0  0  0  0  0
   -7.6550   -3.9579    7.4342 S   0  0  0  0  0  0  0  0  0  0  0  0
   -7.0168   -2.6308    8.2407 C   0  0  0  0  0  0  0  0  0  0  0  0
   -6.7702   -2.4719    9.9645 Cl  0  0  0  0  0  0  0  0  0  0  0  0
   -6.5466   -1.1262    5.0240 C   0  0  0  0  0  0  0  0  0  0  0  0
   -6.7056   -1.0736    3.7551 C   0  0  0  0  0  0  0  0  0  0  0  0
   -6.3948   -0.2011    2.7778 C   0  0  0  0  0  0  0  0  0  0  0  0
   -6.1107    0.6181    1.8904 N   0  0  0  0  0  0  0  0  0  0  0  0
   -7.6847   -2.1763    3.2532 C   0  0  0  0  0  0  0  0  0  0  0  0
   -8.3713   -2.9356    2.9219 N   0  0  0  0  0  0  0  0  0  0  0  0
    6.5574   -1.9745   -3.0550 H   0  0  0  0  0  0  0  0  0  0  0  0
    1.0579   -0.3240   -5.5717 H   0  0  0  0  0  0  0  0  0  0  0  0
    3.2184   -4.5198   -6.9521 H   0  0  0  0  0  0  0  0  0  0  0  0
    0.4323   -4.0105   -8.9099 H   0  0  0  0  0  0  0  0  0  0  0  0
   -0.5180   -5.4901   -7.0173 H   0  0  0  0  0  0  0  0  0  0  0  0
    0.0670   -4.0620   -4.8012 H   0  0  0  0  0  0  0  0  0  0  0  0
   -1.7893   -2.2453   -4.7783 H   0  0  0  0  0  0  0  0  0  0  0  0
   -2.3705   -1.7268   -7.2412 H   0  0  0  0  0  0  0  0  0  0  0  0
   -2.1965   -3.9848   -8.4873 H   0  0  0  0  0  0  0  0  0  0  0  0
   -2.8107   -4.2219   -6.7650 H   0  0  0  0  0  0  0  0  0  0  0  0
   -0.2337   -1.6090   -8.5764 H   0  0  0  0  0  0  0  0  0  0  0  0
    5.7325    1.1080   -4.7911 H   0  0  0  0  0  0  0  0  0  0  0  0
    5.6202    2.7499   -4.0860 H   0  0  0  0  0  0  0  0  0  0  0  0
    8.0327    1.0262   -4.2289 H   0  0  0  0  0  0  0  0  0  0  0  0
    7.6100    1.6456   -2.6181 H   0  0  0  0  0  0  0  0  0  0  0  0
    7.8656    2.8092   -3.9028 H   0  0  0  0  0  0  0  0  0  0  0  0
   -6.2305    3.0700    4.2880 H   0  0  0  0  0  0  0  0  0  0  0  0
   -5.2844    4.5594    4.5742 H   0  0  0  0  0  0  0  0  0  0  0  0
   -4.4882    3.4698    2.0459 H   0  0  0  0  0  0  0  0  0  0  0  0
   -5.1140    5.0917    2.3026 H   0  0  0  0  0  0  0  0  0  0  0  0
   -6.2699    3.8290    1.8929 H   0  0  0  0  0  0  0  0  0  0  0  0
    3.1991   -0.0165    1.3828 H   0  0  0  0  0  0  0  0  0  0  0  0
    2.6034    0.4076    2.9661 H   0  0  0  0  0  0  0  0  0  0  0  0
    5.2672    1.3489    2.2172 H   0  0  0  0  0  0  0  0  0  0  0  0
    4.6597    0.9627    3.8146 H   0  0  0  0  0  0  0  0  0  0  0  0
    4.9275   -0.3704    2.7531 H   0  0  0  0  0  0  0  0  0  0  0  0
    0.9121    0.6683    3.9567 H   0  0  0  0  0  0  0  0  0  0  0  0
    0.3205    1.6494    5.1200 H   0  0  0  0  0  0  0  0  0  0  0  0
    2.3898    1.3305    5.8768 H   0  0  0  0  0  0  0  0  0  0  0  0
    3.1693    2.3155    4.6232 H   0  0  0  0  0  0  0  0  0  0  0  0
    1.9614    3.0880    5.6301 H   0  0  0  0  0  0  0  0  0  0  0  0
   -4.9115    1.3788    6.6579 H   0  0  0  0  0  0  0  0  0  0  0  0
   -7.8410   -3.9635    4.9808 H   0  0  0  0  0  0  0  0  0  0  0  0
  1  2  2  3
  2  3  1  0
  3  4  2  0
  3  5  1  0
  5  6  2  0
  6  7  1  0
  7  8  2  0
  8  9  1  0
  9 10  2  0
 10 11  1  0
 11 12  2  3
 12 13  1  0
 13 14  3  0
 12 15  1  0
 15 16  3  0
  8 17  1  0
 17 18  1  0
 18 19  1  0
 19 20  2  0
 20 21  1  0
 21 22  1  0
 21 23  1  0
  1 24  1  0
 24 25  2  0
 25 26  1  0
 26 27  1  0
 25 28  1  0
 28 29  1  0
 29 30  1  0
 30 31  1  0
 31 32  1  0
 32 33  1  0
 33 34  2  0
 34 35  1  0
 35 36  1  0
 33 37  1  0
 37 38  1  0
 38 39  1  0
 39 40  1  0
 40 41  1  0
 41 42  1  0
 42 43  1  0
 41 44  2  0
 44 45  1  0
 45 46  1  0
 46 47  1  0
 47 48  1  0
 48 49  1  0
 49 50  1  0
 50 51  1  0
 51 52  1  0
 52 53  1  0
 53 54  1  0
 51 55  1  0
 55 56  1  0
 48 57  1  0
 57 58  1  0
 44 59  1  0
 59 60  2  3
 60 61  1  0
 61 62  2  0
 61 63  1  0
 63 64  1  0
 64 65  2  0
 65 66  1  0
 66 67  1  0
 67 68  1  0
 64 69  1  0
 69 70  2  3
 70 71  1  0
 71 72  3  0
 70 73  1  0
 73 74  3  0
 11  2  1  0
 23 17  1  0
 54 24  1  0
 69 60  1  0
 10  5  1  0
 22 18  1  0
 53 28  2  0
 67 63  2  0
 23  7  1  0
 52 30  2  0
 50 31  2  0
 36 32  2  0
 49 37  2  0
 47 38  2  0
 46 40  2  0
  1 75  1  0
  6 76  1  0
  9 77  1  0
 17 78  1  0
 18 79  1  0
 19 80  1  0
 20 81  1  0
 21 82  1  0
 22 83  1  0
 22 84  1  0
 23 85  1  0
 26 86  1  0
 26 87  1  0
 27 88  1  0
 27 89  1  0
 27 90  1  0
 42 91  1  0
 42 92  1  0
 43 93  1  0
 43 94  1  0
 43 95  1  0
 55 96  1  0
 55 97  1  0
 56 98  1  0
 56 99  1  0
 56100  1  0
 57101  1  0
 57102  1  0
 58103  1  0
 58104  1  0
 58105  1  0
 59106  1  0
 65107  1  0
M  END

