
     RDKit          3D

113127  0  0  0  0  0  0  0  0999 V2000
    0.3354    2.2475    6.8099 C   0  0  0  0  0  0  0  0  0  0  0  0
   -0.8463    2.7744    6.2520 C   0  0  0  0  0  0  0  0  0  0  0  0
   -0.9376    3.2036    4.8760 C   0  0  0  0  0  0  0  0  0  0  0  0
    0.0664    3.7043    4.1926 O   0  0  0  0  0  0  0  0  0  0  0  0
   -2.2716    3.0370    4.3565 C   0  0  0  0  0  0  0  0  0  0  0  0
   -2.7361    3.2105    3.0828 C   0  0  0  0  0  0  0  0  0  0  0  0
   -4.0288    2.8824    2.7589 C   0  0  0  0  0  0  0  0  0  0  0  0
   -4.8557    2.3879    3.7326 C   0  0  0  0  0  0  0  0  0  0  0  0
   -4.3663    2.2132    5.0480 C   0  0  0  0  0  0  0  0  0  0  0  0
   -3.0550    2.5384    5.3414 C   0  0  0  0  0  0  0  0  0  0  0  0
   -2.1887    2.3609    6.5775 C   0  0  0  0  0  0  0  0  0  0  0  0
   -2.6676    1.9879    7.7459 C   0  0  0  0  0  0  0  0  0  0  0  0
   -3.8607    1.6123    7.9761 C   0  0  0  0  0  0  0  0  0  0  0  0
   -5.1227    1.2135    8.2292 N   0  0  0  0  0  0  0  0  0  0  0  0
   -1.7307    2.0935    8.9129 C   0  0  0  0  0  0  0  0  0  0  0  0
   -1.0168    2.1865    9.7802 N   0  0  0  0  0  0  0  0  0  0  0  0
   -5.9451    2.2918    2.7257 C   0  0  0  0  0  0  0  0  0  0  0  0
   -6.9234    3.3954    2.7067 C   0  0  0  0  0  0  0  0  0  0  0  0
   -7.6772    3.2972    1.4074 C   0  0  0  0  0  0  0  0  0  0  0  0
   -6.8434    3.6106    0.4165 C   0  0  0  0  0  0  0  0  0  0  0  0
   -5.5463    3.9918    1.0742 C   0  0  0  0  0  0  0  0  0  0  0  0
   -6.0707    4.6288    2.3595 C   0  0  0  0  0  0  0  0  0  0  0  0
   -4.9615    2.7430    1.6209 C   0  0  0  0  0  0  0  0  0  0  0  0
    1.3464    2.1761    5.6847 C   0  0  0  0  0  0  0  0  0  0  0  0
    2.4870    2.5563    5.2293 C   0  0  0  0  0  0  0  0  0  0  0  0
    3.3606    3.3818    6.1805 C   0  0  0  0  0  0  0  0  0  0  0  0
    2.8906    4.7809    6.1857 C   0  0  0  0  0  0  0  0  0  0  0  0
    2.8749    2.2277    3.9353 C   0  0  0  0  0  0  0  0  0  0  0  0
    4.1265    2.5703    2.7877 S   0  0  0  0  0  0  0  0  0  0  0  0
    3.4354    1.7407    1.4008 C   0  0  0  0  0  0  0  0  0  0  0  0
    3.5487    1.4474    0.0602 C   0  0  0  0  0  0  0  0  0  0  0  0
    4.5622    1.7145   -0.8742 C   0  0  0  0  0  0  0  0  0  0  0  0
    4.4103    1.2612   -2.1229 C   0  0  0  0  0  0  0  0  0  0  0  0
    5.3240    1.4970   -3.0477 N   0  0  0  0  0  0  0  0  0  0  0  0
    6.6300    2.5375   -2.0116 Se  0  0  0  0  0  2  0  0  0  0  0  0
    5.6594    2.4125   -0.5854 N   0  0  0  0  0  0  0  0  0  0  0  0
    3.2360    0.5348   -2.4401 C   0  0  0  0  0  0  0  0  0  0  0  0
    2.8525   -0.0521   -3.6434 C   0  0  0  0  0  0  0  0  0  0  0  0
    3.2656   -0.4755   -5.2380 S   0  0  0  0  0  0  0  0  0  0  0  0
    1.8668   -1.4323   -5.6527 C   0  0  0  0  0  0  0  0  0  0  0  0
    1.3956   -2.2428   -6.6586 C   0  0  0  0  0  0  0  0  0  0  0  0
    2.1242   -2.3659   -7.9850 C   0  0  0  0  0  0  0  0  0  0  0  0
    1.8486   -1.1574   -8.8354 C   0  0  0  0  0  0  0  0  0  0  0  0
    0.2438   -2.9134   -6.4610 C   0  0  0  0  0  0  0  0  0  0  0  0
   -0.2104   -2.4116   -4.8630 S   0  0  0  0  0  0  0  0  0  0  0  0
    1.1628   -1.3605   -4.5328 C   0  0  0  0  0  0  0  0  0  0  0  0
    1.6524   -0.6423   -3.4648 C   0  0  0  0  0  0  0  0  0  0  0  0
    1.2517   -0.4239   -2.1379 N   0  0  0  0  0  0  0  0  0  0  0  0
    2.2233    0.2697   -1.5561 C   0  0  0  0  0  0  0  0  0  0  0  0
    2.4000    0.7390   -0.2523 C   0  0  0  0  0  0  0  0  0  0  0  0
    1.6472    0.6064    0.8487 N   0  0  0  0  0  0  0  0  0  0  0  0
    2.2991    1.2499    1.9067 C   0  0  0  0  0  0  0  0  0  0  0  0
    2.0398    1.5123    3.2062 C   0  0  0  0  0  0  0  0  0  0  0  0
    0.7106    1.2756    4.2830 S   0  0  0  0  0  0  0  0  0  0  0  0
    0.4822   -0.1732    1.0677 C   0  0  0  0  0  0  0  0  0  0  0  0
    0.8941   -1.5784    1.5946 C   0  0  0  0  0  0  0  0  0  0  0  0
   -0.1001   -0.7531   -1.7381 C   0  0  0  0  0  0  0  0  0  0  0  0
   -0.3349   -2.1213   -1.3475 C   0  0  0  0  0  0  0  0  0  0  0  0
   -0.4245   -3.9797   -7.1986 C   0  0  0  0  0  0  0  0  0  0  0  0
   -0.8720   -5.1083   -6.3762 C   0  0  0  0  0  0  0  0  0  0  0  0
   -1.5680   -6.4682   -6.3397 S   0  0  0  0  0  0  0  0  0  0  0  0
   -1.0519   -7.5853   -5.3299 C   0  0  0  0  0  0  0  0  0  0  0  0
   -0.8385   -8.5548   -4.3710 C   0  0  0  0  0  0  0  0  0  0  0  0
    0.4886   -9.0964   -4.3535 C   0  0  0  0  0  0  0  0  0  0  0  0
    1.6312   -9.5541   -4.3234 N   0  0  0  0  0  0  0  0  0  0  0  0
   -1.8094   -8.9292   -3.4864 C   0  0  0  0  0  0  0  0  0  0  0  0
   -2.6965   -9.2735   -2.6958 N   0  0  0  0  0  0  0  0  0  0  0  0
    0.0373   -6.5971   -4.8218 N   0  0  0  0  0  0  0  0  0  0  0  0
    0.9655   -6.8562   -3.7776 C   0  0  0  0  0  0  0  0  0  0  0  0
    2.3491   -6.8829   -4.1124 C   0  0  0  0  0  0  0  0  0  0  0  0
    3.2968   -6.9910   -3.1299 C   0  0  0  0  0  0  0  0  0  0  0  0
    2.9194   -7.0903   -1.7856 C   0  0  0  0  0  0  0  0  0  0  0  0
    1.6008   -7.0670   -1.4554 C   0  0  0  0  0  0  0  0  0  0  0  0
    0.6483   -6.9514   -2.4605 C   0  0  0  0  0  0  0  0  0  0  0  0
    0.0697   -5.4066   -5.3720 C   0  0  0  0  0  0  0  0  0  0  0  0
    1.0022   -4.5725   -4.9521 O   0  0  0  0  0  0  0  0  0  0  0  0
    0.5089    1.9651    7.7143 H   0  0  0  0  0  0  0  0  0  0  0  0
   -2.0357    3.6443    2.3259 H   0  0  0  0  0  0  0  0  0  0  0  0
   -5.0300    1.8203    5.7802 H   0  0  0  0  0  0  0  0  0  0  0  0
   -6.3576    1.2628    2.5637 H   0  0  0  0  0  0  0  0  0  0  0  0
   -7.5906    3.5457    3.5680 H   0  0  0  0  0  0  0  0  0  0  0  0
   -8.7162    3.0163    1.2556 H   0  0  0  0  0  0  0  0  0  0  0  0
   -7.1004    3.5944   -0.6438 H   0  0  0  0  0  0  0  0  0  0  0  0
   -4.8894    4.6360    0.4904 H   0  0  0  0  0  0  0  0  0  0  0  0
   -5.2706    4.7490    3.0851 H   0  0  0  0  0  0  0  0  0  0  0  0
   -6.6903    5.5191    2.1521 H   0  0  0  0  0  0  0  0  0  0  0  0
   -4.7266    1.9557    0.8730 H   0  0  0  0  0  0  0  0  0  0  0  0
    3.3855    2.8716    7.1744 H   0  0  0  0  0  0  0  0  0  0  0  0
    4.3858    3.3700    5.8197 H   0  0  0  0  0  0  0  0  0  0  0  0
    2.4670    5.0544    5.1687 H   0  0  0  0  0  0  0  0  0  0  0  0
    1.9702    4.9343    6.8481 H   0  0  0  0  0  0  0  0  0  0  0  0
    3.6414    5.5266    6.4528 H   0  0  0  0  0  0  0  0  0  0  0  0
    1.8329   -3.3049   -8.5010 H   0  0  0  0  0  0  0  0  0  0  0  0
    3.2168   -2.4507   -7.8417 H   0  0  0  0  0  0  0  0  0  0  0  0
    0.9395   -1.2897   -9.5079 H   0  0  0  0  0  0  0  0  0  0  0  0
    1.6918   -0.2675   -8.1527 H   0  0  0  0  0  0  0  0  0  0  0  0
    2.6970   -0.8834   -9.4753 H   0  0  0  0  0  0  0  0  0  0  0  0
    0.0340    0.2168    2.0925 H   0  0  0  0  0  0  0  0  0  0  0  0
   -0.4170   -0.1061    0.5484 H   0  0  0  0  0  0  0  0  0  0  0  0
    0.0259   -2.1634    1.9045 H   0  0  0  0  0  0  0  0  0  0  0  0
    1.5169   -1.3497    2.4883 H   0  0  0  0  0  0  0  0  0  0  0  0
    1.4819   -2.1549    0.8944 H   0  0  0  0  0  0  0  0  0  0  0  0
   -0.7706   -0.6859   -2.7352 H   0  0  0  0  0  0  0  0  0  0  0  0
   -0.6604    0.1037   -1.2915 H   0  0  0  0  0  0  0  0  0  0  0  0
   -0.9489   -2.7453   -2.0878 H   0  0  0  0  0  0  0  0  0  0  0  0
   -0.9658   -2.2084   -0.4175 H   0  0  0  0  0  0  0  0  0  0  0  0
    0.5522   -2.7696   -1.1920 H   0  0  0  0  0  0  0  0  0  0  0  0
   -0.6212   -4.0564   -8.1656 H   0  0  0  0  0  0  0  0  0  0  0  0
    2.5766   -6.8169   -5.1645 H   0  0  0  0  0  0  0  0  0  0  0  0
    4.3537   -7.0253   -3.3845 H   0  0  0  0  0  0  0  0  0  0  0  0
    3.7213   -7.1648   -1.0839 H   0  0  0  0  0  0  0  0  0  0  0  0
    1.3009   -7.1172   -0.3999 H   0  0  0  0  0  0  0  0  0  0  0  0
   -0.3693   -6.9000   -2.0893 H   0  0  0  0  0  0  0  0  0  0  0  0
  1  2  2  3
  2  3  1  0
  3  4  2  0
  3  5  1  0
  5  6  2  0
  6  7  1  0
  7  8  2  0
  8  9  1  0
  9 10  2  0
 10 11  1  0
 11 12  2  3
 12 13  1  0
 13 14  3  0
 12 15  1  0
 15 16  3  0
  8 17  1  0
 17 18  1  0
 18 19  1  0
 19 20  2  0
 20 21  1  0
 21 22  1  0
 21 23  1  0
  1 24  1  0
 24 25  2  0
 25 26  1  0
 26 27  1  0
 25 28  1  0
 28 29  1  0
 29 30  1  0
 30 31  1  0
 31 32  1  0
 32 33  1  0
 33 34  2  0
 34 35  1  0
 35 36  1  0
 33 37  1  0
 37 38  1  0
 38 39  1  0
 39 40  1  0
 40 41  1  0
 41 42  1  0
 42 43  1  0
 41 44  2  0
 44 45  1  0
 45 46  1  0
 46 47  1  0
 47 48  1  0
 48 49  1  0
 49 50  1  0
 50 51  1  0
 51 52  1  0
 52 53  1  0
 53 54  1  0
 51 55  1  0
 55 56  1  0
 48 57  1  0
 57 58  1  0
 44 59  1  0
 59 60  2  3
 60 61  1  0
 61 62  1  0
 62 63  2  3
 63 64  1  0
 64 65  3  0
 63 66  1  0
 66 67  3  0
 62 68  1  0
 68 69  1  0
 69 70  2  0
 70 71  1  0
 71 72  2  0
 72 73  1  0
 73 74  2  0
 68 75  1  0
 75 76  2  0
 11  2  1  0
 23 17  1  0
 54 24  1  0
 75 60  1  0
 10  5  1  0
 22 18  1  0
 53 28  2  0
 74 69  1  0
 23  7  1  0
 52 30  2  0
 50 31  2  0
 36 32  2  0
 49 37  2  0
 47 38  2  0
 46 40  2  0
  1 77  1  0
  6 78  1  0
  9 79  1  0
 17 80  1  0
 18 81  1  0
 19 82  1  0
 20 83  1  0
 21 84  1  0
 22 85  1  0
 22 86  1  0
 23 87  1  0
 26 88  1  0
 26 89  1  0
 27 90  1  0
 27 91  1  0
 27 92  1  0
 42 93  1  0
 42 94  1  0
 43 95  1  0
 43 96  1  0
 43 97  1  0
 55 98  1  0
 55 99  1  0
 56100  1  0
 56101  1  0
 56102  1  0
 57103  1  0
 57104  1  0
 58105  1  0
 58106  1  0
 58107  1  0
 59108  1  0
 70109  1  0
 71110  1  0
 72111  1  0
 73112  1  0
 74113  1  0
M  END

