
     RDKit          3D

125139  0  0  0  0  0  0  0  0999 V2000
    4.5291   -0.0593    5.3209 C   0  0  0  0  0  0  0  0  0  0  0  0
    5.5990   -0.8435    5.0728 C   0  0  0  0  0  0  0  0  0  0  0  0
    5.7676   -1.7404    3.9222 C   0  0  0  0  0  0  0  0  0  0  0  0
    4.8469   -2.2402    3.2229 O   0  0  0  0  0  0  0  0  0  0  0  0
    7.1814   -2.0015    3.7439 C   0  0  0  0  0  0  0  0  0  0  0  0
    7.7979   -2.6726    2.6620 C   0  0  0  0  0  0  0  0  0  0  0  0
    9.1800   -2.6151    2.6842 C   0  0  0  0  0  0  0  0  0  0  0  0
    9.9189   -1.9268    3.7027 C   0  0  0  0  0  0  0  0  0  0  0  0
    9.3206   -1.2810    4.7706 C   0  0  0  0  0  0  0  0  0  0  0  0
    7.8991   -1.3628    4.7889 C   0  0  0  0  0  0  0  0  0  0  0  0
    6.9320   -0.7546    5.7440 C   0  0  0  0  0  0  0  0  0  0  0  0
    7.1851   -0.4026    7.0300 C   0  0  0  0  0  0  0  0  0  0  0  0
    8.5043   -0.4691    7.6046 C   0  0  0  0  0  0  0  0  0  0  0  0
    9.5600   -0.5195    8.0791 N   0  0  0  0  0  0  0  0  0  0  0  0
    6.1419   -0.0249    7.9488 C   0  0  0  0  0  0  0  0  0  0  0  0
    5.3166    0.2943    8.6931 N   0  0  0  0  0  0  0  0  0  0  0  0
   11.2080   -2.2402    3.0062 C   0  0  0  0  0  0  0  0  0  0  0  0
   11.8786   -1.0684    2.2269 C   0  0  0  0  0  0  0  0  0  0  0  0
   12.9074   -1.7074    1.3264 C   0  0  0  0  0  0  0  0  0  0  0  0
   12.2268   -2.3686    0.3808 C   0  0  0  0  0  0  0  0  0  0  0  0
   10.7610   -2.1476    0.6748 C   0  0  0  0  0  0  0  0  0  0  0  0
   10.8408   -0.7133    1.1753 C   0  0  0  0  0  0  0  0  0  0  0  0
   10.4548   -2.9558    1.9701 C   0  0  0  0  0  0  0  0  0  0  0  0
    3.3603    0.0895    4.4305 C   0  0  0  0  0  0  0  0  0  0  0  0
    2.0694    0.1626    5.0094 C   0  0  0  0  0  0  0  0  0  0  0  0
    0.9448    0.4854    4.2337 C   0  0  0  0  0  0  0  0  0  0  0  0
    1.1462    0.7446    2.8816 C   0  0  0  0  0  0  0  0  0  0  0  0
    0.3089    1.1590    1.8702 C   0  0  0  0  0  0  0  0  0  0  0  0
    1.0473    1.2599    0.7559 C   0  0  0  0  0  0  0  0  0  0  0  0
    2.3468    0.9424    0.9509 N   0  0  0  0  0  0  0  0  0  0  0  0
    2.4034    0.6641    2.2870 C   0  0  0  0  0  0  0  0  0  0  0  0
    3.5314    0.3550    3.0522 C   0  0  0  0  0  0  0  0  0  0  0  0
    3.4311    0.9041   -0.0303 C   0  0  0  0  0  0  0  0  0  0  0  0
    3.8556    2.3189   -0.4084 C   0  0  0  0  0  0  0  0  0  0  0  0
    0.1808    1.3972   -0.2982 C   0  0  0  0  0  0  0  0  0  0  0  0
    0.2954    1.3079   -1.6895 C   0  0  0  0  0  0  0  0  0  0  0  0
   -0.8206    1.3081   -2.4831 C   0  0  0  0  0  0  0  0  0  0  0  0
   -0.4319    1.2653   -3.7658 N   0  0  0  0  0  0  0  0  0  0  0  0
    0.8985    1.2132   -3.7149 N   0  0  0  0  0  0  0  0  0  0  0  0
    1.7441    1.1258   -4.8985 C   0  0  0  0  0  0  0  0  0  0  0  0
    1.7188   -0.2872   -5.4636 C   0  0  0  0  0  0  0  0  0  0  0  0
    1.3796    1.2375   -2.4733 N   0  0  0  0  0  0  0  0  0  0  0  0
   -2.0919    1.4659   -1.9210 C   0  0  0  0  0  0  0  0  0  0  0  0
   -2.2351    1.6139   -0.5282 C   0  0  0  0  0  0  0  0  0  0  0  0
   -1.0947    1.4582    0.3054 C   0  0  0  0  0  0  0  0  0  0  0  0
   -1.0285    1.1994    1.6521 N   0  0  0  0  0  0  0  0  0  0  0  0
   -2.0175    0.4561    2.4489 C   0  0  0  0  0  0  0  0  0  0  0  0
   -1.8020   -1.0512    2.3213 C   0  0  0  0  0  0  0  0  0  0  0  0
   -3.5145    1.9637   -0.1966 N   0  0  0  0  0  0  0  0  0  0  0  0
   -3.9491    2.7427    0.9737 C   0  0  0  0  0  0  0  0  0  0  0  0
   -4.3444    4.1651    0.5800 C   0  0  0  0  0  0  0  0  0  0  0  0
   -4.1554    1.9582   -1.3901 C   0  0  0  0  0  0  0  0  0  0  0  0
   -3.3530    1.6605   -2.4370 C   0  0  0  0  0  0  0  0  0  0  0  0
   -4.0344    1.1113   -3.4740 N   0  0  0  0  0  0  0  0  0  0  0  0
   -3.4934    0.4303   -4.6497 C   0  0  0  0  0  0  0  0  0  0  0  0
   -3.2013   -1.0365   -4.3438 C   0  0  0  0  0  0  0  0  0  0  0  0
   -5.3222    1.0639   -3.0206 C   0  0  0  0  0  0  0  0  0  0  0  0
   -5.4312    1.5764   -1.7324 C   0  0  0  0  0  0  0  0  0  0  0  0
   -6.5905    1.4491   -0.9750 C   0  0  0  0  0  0  0  0  0  0  0  0
   -7.6892    0.8046   -1.5631 C   0  0  0  0  0  0  0  0  0  0  0  0
   -7.5901    0.2499   -2.8604 C   0  0  0  0  0  0  0  0  0  0  0  0
   -6.4008    0.3944   -3.6082 C   0  0  0  0  0  0  0  0  0  0  0  0
   -8.7206   -0.5191   -3.4045 C   0  0  0  0  0  0  0  0  0  0  0  0
   -8.6533   -1.8367   -3.6717 C   0  0  0  0  0  0  0  0  0  0  0  0
   -7.5524   -2.7398   -3.2658 C   0  0  0  0  0  0  0  0  0  0  0  0
   -6.4289   -2.4229   -2.7984 O   0  0  0  0  0  0  0  0  0  0  0  0
   -8.0388   -4.0839   -3.4267 C   0  0  0  0  0  0  0  0  0  0  0  0
   -7.4484   -5.6266   -3.1473 S   0  0  0  0  0  0  0  0  0  0  0  0
   -8.8978   -6.3599   -3.6580 C   0  0  0  0  0  0  0  0  0  0  0  0
   -9.1034   -7.8352   -3.7551 C   0  0  0  0  0  0  0  0  0  0  0  0
   -9.8233   -5.3881   -4.0633 C   0  0  0  0  0  0  0  0  0  0  0  0
   -9.3053   -4.0996   -3.9028 C   0  0  0  0  0  0  0  0  0  0  0  0
   -9.7755   -2.7174   -4.1539 C   0  0  0  0  0  0  0  0  0  0  0  0
  -10.8960   -2.3563   -4.8233 C   0  0  0  0  0  0  0  0  0  0  0  0
  -11.8816   -3.3231   -5.2289 C   0  0  0  0  0  0  0  0  0  0  0  0
  -12.6837   -4.0892   -5.5607 N   0  0  0  0  0  0  0  0  0  0  0  0
  -11.1218   -1.0059   -5.2689 C   0  0  0  0  0  0  0  0  0  0  0  0
  -11.2976    0.0768   -5.6362 N   0  0  0  0  0  0  0  0  0  0  0  0
    4.5339    0.6078    6.1663 H   0  0  0  0  0  0  0  0  0  0  0  0
    7.2472   -3.1390    1.8571 H   0  0  0  0  0  0  0  0  0  0  0  0
    9.9110   -0.7210    5.4775 H   0  0  0  0  0  0  0  0  0  0  0  0
   11.8948   -2.8773    3.6063 H   0  0  0  0  0  0  0  0  0  0  0  0
   12.2467   -0.2226    2.8458 H   0  0  0  0  0  0  0  0  0  0  0  0
   13.9860   -1.5828    1.3646 H   0  0  0  0  0  0  0  0  0  0  0  0
   12.6576   -2.8717   -0.4774 H   0  0  0  0  0  0  0  0  0  0  0  0
   10.0742   -2.3266   -0.1786 H   0  0  0  0  0  0  0  0  0  0  0  0
    9.8864   -0.3221    1.5909 H   0  0  0  0  0  0  0  0  0  0  0  0
   11.2110    0.0056    0.4067 H   0  0  0  0  0  0  0  0  0  0  0  0
   10.6595   -4.0477    1.9189 H   0  0  0  0  0  0  0  0  0  0  0  0
    1.9445   -0.0035    6.0724 H   0  0  0  0  0  0  0  0  0  0  0  0
   -0.0281    0.5729    4.6930 H   0  0  0  0  0  0  0  0  0  0  0  0
    4.5202    0.3786    2.6147 H   0  0  0  0  0  0  0  0  0  0  0  0
    4.3089    0.3578    0.3737 H   0  0  0  0  0  0  0  0  0  0  0  0
    3.1106    0.3420   -0.9292 H   0  0  0  0  0  0  0  0  0  0  0  0
    4.6750    2.2768   -1.1559 H   0  0  0  0  0  0  0  0  0  0  0  0
    4.2168    2.8586    0.4945 H   0  0  0  0  0  0  0  0  0  0  0  0
    3.0010    2.8759   -0.8440 H   0  0  0  0  0  0  0  0  0  0  0  0
    1.3865    1.8422   -5.6654 H   0  0  0  0  0  0  0  0  0  0  0  0
    2.7876    1.3966   -4.6336 H   0  0  0  0  0  0  0  0  0  0  0  0
    2.0652   -1.0115   -4.6935 H   0  0  0  0  0  0  0  0  0  0  0  0
    0.6883   -0.5556   -5.7844 H   0  0  0  0  0  0  0  0  0  0  0  0
    2.3977   -0.3504   -6.3417 H   0  0  0  0  0  0  0  0  0  0  0  0
   -1.9599    0.7681    3.5113 H   0  0  0  0  0  0  0  0  0  0  0  0
   -3.0465    0.6499    2.1067 H   0  0  0  0  0  0  0  0  0  0  0  0
   -0.7750   -1.3346    2.6273 H   0  0  0  0  0  0  0  0  0  0  0  0
   -1.9750   -1.3641    1.2695 H   0  0  0  0  0  0  0  0  0  0  0  0
   -2.5251   -1.5830    2.9751 H   0  0  0  0  0  0  0  0  0  0  0  0
   -4.8098    2.2422    1.4630 H   0  0  0  0  0  0  0  0  0  0  0  0
   -3.1276    2.8361    1.7151 H   0  0  0  0  0  0  0  0  0  0  0  0
   -5.2474    4.1540   -0.0645 H   0  0  0  0  0  0  0  0  0  0  0  0
   -3.5099    4.6574    0.0363 H   0  0  0  0  0  0  0  0  0  0  0  0
   -4.5728    4.7551    1.4933 H   0  0  0  0  0  0  0  0  0  0  0  0
   -2.5751    0.9404   -4.9992 H   0  0  0  0  0  0  0  0  0  0  0  0
   -4.2207    0.4938   -5.4877 H   0  0  0  0  0  0  0  0  0  0  0  0
   -2.8064   -1.5353   -5.2532 H   0  0  0  0  0  0  0  0  0  0  0  0
   -4.1327   -1.5528   -4.0330 H   0  0  0  0  0  0  0  0  0  0  0  0
   -2.4516   -1.1188   -3.5285 H   0  0  0  0  0  0  0  0  0  0  0  0
   -6.6421    1.8069    0.0446 H   0  0  0  0  0  0  0  0  0  0  0  0
   -8.6001    0.6850   -0.9907 H   0  0  0  0  0  0  0  0  0  0  0  0
   -6.3122   -0.0540   -4.5901 H   0  0  0  0  0  0  0  0  0  0  0  0
   -9.6654   -0.0041   -3.4569 H   0  0  0  0  0  0  0  0  0  0  0  0
   -8.6026   -8.3423   -2.9046 H   0  0  0  0  0  0  0  0  0  0  0  0
   -8.6749   -8.2062   -4.7064 H   0  0  0  0  0  0  0  0  0  0  0  0
  -10.1882   -8.0774   -3.7227 H   0  0  0  0  0  0  0  0  0  0  0  0
  -10.8055   -5.6263   -4.4426 H   0  0  0  0  0  0  0  0  0  0  0  0
  1  2  2  3
  2  3  1  0
  3  4  2  0
  3  5  1  0
  5  6  2  0
  6  7  1  0
  7  8  2  0
  8  9  1  0
  9 10  2  0
 10 11  1  0
 11 12  2  3
 12 13  1  0
 13 14  3  0
 12 15  1  0
 15 16  3  0
  8 17  1  0
 17 18  1  0
 18 19  1  0
 19 20  2  0
 20 21  1  0
 21 22  1  0
 21 23  1  0
  1 24  1  0
 24 25  2  0
 25 26  1  0
 26 27  2  0
 27 28  1  0
 28 29  2  0
 29 30  1  0
 30 31  1  0
 31 32  2  0
 30 33  1  0
 33 34  1  0
 29 35  1  0
 35 36  1  0
 36 37  1  0
 37 38  2  0
 38 39  1  0
 39 40  1  0
 40 41  1  0
 39 42  1  0
 37 43  1  0
 43 44  2  0
 44 45  1  0
 45 46  1  0
 46 47  1  0
 47 48  1  0
 44 49  1  0
 49 50  1  0
 50 51  1  0
 49 52  1  0
 52 53  2  0
 53 54  1  0
 54 55  1  0
 55 56  1  0
 54 57  1  0
 57 58  2  0
 58 59  1  0
 59 60  2  0
 60 61  1  0
 61 62  2  0
 61 63  1  0
 63 64  2  3
 64 65  1  0
 65 66  2  0
 65 67  1  0
 67 68  1  0
 68 69  1  0
 69 70  1  0
 69 71  2  0
 71 72  1  0
 72 73  1  0
 73 74  2  3
 74 75  1  0
 75 76  3  0
 74 77  1  0
 77 78  3  0
 11  2  1  0
 23 17  1  0
 32 24  1  0
 45 35  2  0
 58 52  1  0
 73 64  1  0
 10  5  1  0
 22 18  1  0
 31 27  1  0
 42 36  2  0
 53 43  1  0
 62 57  1  0
 72 67  2  0
 23  7  1  0
 46 28  1  0
  1 79  1  0
  6 80  1  0
  9 81  1  0
 17 82  1  0
 18 83  1  0
 19 84  1  0
 20 85  1  0
 21 86  1  0
 22 87  1  0
 22 88  1  0
 23 89  1  0
 25 90  1  0
 26 91  1  0
 32 92  1  0
 33 93  1  0
 33 94  1  0
 34 95  1  0
 34 96  1  0
 34 97  1  0
 40 98  1  0
 40 99  1  0
 41100  1  0
 41101  1  0
 41102  1  0
 47103  1  0
 47104  1  0
 48105  1  0
 48106  1  0
 48107  1  0
 50108  1  0
 50109  1  0
 51110  1  0
 51111  1  0
 51112  1  0
 55113  1  0
 55114  1  0
 56115  1  0
 56116  1  0
 56117  1  0
 59118  1  0
 60119  1  0
 62120  1  0
 63121  1  0
 70122  1  0
 70123  1  0
 70124  1  0
 71125  1  0
M  END

