
     RDKit          3D

106120  0  0  0  0  0  0  0  0999 V2000
   -0.2661   -1.5133    5.1010 C   0  0  0  0  0  0  0  0  0  0  0  0
   -0.0191   -0.1582    5.2308 C   0  0  0  0  0  0  0  0  0  0  0  0
    0.9607    0.5728    4.5608 C   0  0  0  0  0  0  0  0  0  0  0  0
    1.3509    0.3617    3.2863 O   0  0  0  0  0  0  0  0  0  0  0  0
    1.6018    1.6251    5.2375 C   0  0  0  0  0  0  0  0  0  0  0  0
    2.8267    2.2658    4.9899 C   0  0  0  0  0  0  0  0  0  0  0  0
    3.4473    2.9119    6.0033 C   0  0  0  0  0  0  0  0  0  0  0  0
    2.8900    2.9449    7.1748 C   0  0  0  0  0  0  0  0  0  0  0  0
    1.6379    2.3785    7.5873 C   0  0  0  0  0  0  0  0  0  0  0  0
    1.0294    1.6922    6.4975 C   0  0  0  0  0  0  0  0  0  0  0  0
   -0.0529    0.5756    6.5922 C   0  0  0  0  0  0  0  0  0  0  0  0
   -0.6760    0.2685    7.6359 C   0  0  0  0  0  0  0  0  0  0  0  0
   -1.5780   -0.9840    7.7658 C   0  0  0  0  0  0  0  0  0  0  0  0
   -2.2213   -1.8489    7.8670 N   0  0  0  0  0  0  0  0  0  0  0  0
   -0.6189    0.8799    8.9437 C   0  0  0  0  0  0  0  0  0  0  0  0
   -0.5528    1.3800   10.0347 N   0  0  0  0  0  0  0  0  0  0  0  0
    4.1188    3.6269    7.7810 C   0  0  0  0  0  0  0  0  0  0  0  0
    4.9755    2.5891    8.4976 C   0  0  0  0  0  0  0  0  0  0  0  0
    6.3714    3.0801    8.5776 C   0  0  0  0  0  0  0  0  0  0  0  0
    6.8990    3.0946    7.3561 C   0  0  0  0  0  0  0  0  0  0  0  0
    5.8712    2.6059    6.4257 C   0  0  0  0  0  0  0  0  0  0  0  0
    5.1573    1.5836    7.3515 C   0  0  0  0  0  0  0  0  0  0  0  0
    4.7220    3.6344    6.4068 C   0  0  0  0  0  0  0  0  0  0  0  0
    0.7873   -1.9088    4.0128 C   0  0  0  0  0  0  0  0  0  0  0  0
    1.7628   -2.4174    3.4684 C   0  0  0  0  0  0  0  0  0  0  0  0
    2.7841   -3.0656    4.4803 C   0  0  0  0  0  0  0  0  0  0  0  0
    3.5759   -1.9942    5.1445 C   0  0  0  0  0  0  0  0  0  0  0  0
    2.0310   -2.4522    2.1123 C   0  0  0  0  0  0  0  0  0  0  0  0
    3.1658   -2.9719    0.9793 S   0  0  0  0  0  0  0  0  0  0  0  0
    2.4122   -2.4853   -0.5170 C   0  0  0  0  0  0  0  0  0  0  0  0
    2.3688   -2.3059   -1.8063 C   0  0  0  0  0  0  0  0  0  0  0  0
    3.5629   -2.8727   -3.0066 C   0  0  0  0  0  0  0  0  0  0  0  0
    2.8519   -2.3925   -3.6941 C   0  0  0  0  0  0  0  0  0  0  0  0
    4.1204   -2.5170   -4.8393 N   0  0  0  0  0  0  0  0  0  0  0  0
    5.4443   -3.1900   -4.2634 Se  0  0  0  0  0  2  0  0  0  0  0  0
    4.1999   -3.3883   -2.1209 N   0  0  0  0  0  0  0  0  0  0  0  0
    1.9502   -1.7818   -4.5783 C   0  0  0  0  0  0  0  0  0  0  0  0
    1.4560   -1.3603   -5.6924 C   0  0  0  0  0  0  0  0  0  0  0  0
    1.5922   -1.4658   -7.4381 S   0  0  0  0  0  0  0  0  0  0  0  0
    0.1525   -0.5904   -7.8772 C   0  0  0  0  0  0  0  0  0  0  0  0
   -0.6124   -0.1693   -8.9441 C   0  0  0  0  0  0  0  0  0  0  0  0
   -0.0727   -0.5597  -10.3528 C   0  0  0  0  0  0  0  0  0  0  0  0
   -0.3769   -2.0045  -10.6166 C   0  0  0  0  0  0  0  0  0  0  0  0
   -1.6785    0.4984   -8.8042 C   0  0  0  0  0  0  0  0  0  0  0  0
   -1.7691    0.6146   -7.0674 S   0  0  0  0  0  0  0  0  0  0  0  0
   -0.3036   -0.2828   -6.6871 C   0  0  0  0  0  0  0  0  0  0  0  0
    0.3047   -0.6512   -5.5381 C   0  0  0  0  0  0  0  0  0  0  0  0
    0.0541   -0.6415   -4.1680 N   0  0  0  0  0  0  0  0  0  0  0  0
    0.9454   -1.2991   -3.5392 C   0  0  0  0  0  0  0  0  0  0  0  0
    1.3123   -1.6684   -2.2498 C   0  0  0  0  0  0  0  0  0  0  0  0
    0.5382   -1.4169   -1.1037 N   0  0  0  0  0  0  0  0  0  0  0  0
    1.2177   -1.9005   -0.0007 C   0  0  0  0  0  0  0  0  0  0  0  0
    1.1321   -1.9337    1.3357 C   0  0  0  0  0  0  0  0  0  0  0  0
   -0.0671   -1.3529    2.4292 S   0  0  0  0  0  0  0  0  0  0  0  0
   -0.8965   -1.2464   -1.1177 C   0  0  0  0  0  0  0  0  0  0  0  0
   -1.5716   -2.4439   -0.3889 C   0  0  0  0  0  0  0  0  0  0  0  0
   -0.9192    0.3388   -3.6267 C   0  0  0  0  0  0  0  0  0  0  0  0
   -2.3481   -0.0250   -3.8061 C   0  0  0  0  0  0  0  0  0  0  0  0
   -2.7960    1.0696   -9.5903 C   0  0  0  0  0  0  0  0  0  0  0  0
   -4.0360    0.9466   -9.0886 C   0  0  0  0  0  0  0  0  0  0  0  0
   -5.2487    1.4813   -9.7449 C   0  0  0  0  0  0  0  0  0  0  0  0
   -5.3019    2.1167  -10.8465 O   0  0  0  0  0  0  0  0  0  0  0  0
   -6.4323    1.1901   -8.9640 C   0  0  0  0  0  0  0  0  0  0  0  0
   -7.8363    1.4845   -9.0654 C   0  0  0  0  0  0  0  0  0  0  0  0
   -8.5967    1.0282   -8.0180 C   0  0  0  0  0  0  0  0  0  0  0  0
   -8.2072    0.3551   -6.9366 C   0  0  0  0  0  0  0  0  0  0  0  0
   -6.7884    0.0392   -6.8121 C   0  0  0  0  0  0  0  0  0  0  0  0
   -6.0543    0.4963   -7.8507 C   0  0  0  0  0  0  0  0  0  0  0  0
   -4.5334    0.3260   -7.9026 C   0  0  0  0  0  0  0  0  0  0  0  0
   -3.9123   -0.2810   -7.0113 O   0  0  0  0  0  0  0  0  0  0  0  0
   -0.8759   -2.1206    5.5312 H   0  0  0  0  0  0  0  0  0  0  0  0
    3.2354    2.2152    3.9929 H   0  0  0  0  0  0  0  0  0  0  0  0
    1.2557    2.4548    8.5276 H   0  0  0  0  0  0  0  0  0  0  0  0
    3.9021    4.5563    8.2719 H   0  0  0  0  0  0  0  0  0  0  0  0
    4.5505    2.1916    9.3861 H   0  0  0  0  0  0  0  0  0  0  0  0
    6.9021    3.3820    9.4994 H   0  0  0  0  0  0  0  0  0  0  0  0
    7.9174    3.4034    7.0686 H   0  0  0  0  0  0  0  0  0  0  0  0
    6.1563    2.2121    5.4781 H   0  0  0  0  0  0  0  0  0  0  0  0
    4.1999    1.2930    6.9375 H   0  0  0  0  0  0  0  0  0  0  0  0
    5.8495    0.7483    7.6150 H   0  0  0  0  0  0  0  0  0  0  0  0
    4.8760    4.5161    5.8401 H   0  0  0  0  0  0  0  0  0  0  0  0
    2.1939   -3.6942    5.2050 H   0  0  0  0  0  0  0  0  0  0  0  0
    3.4013   -3.7548    3.9170 H   0  0  0  0  0  0  0  0  0  0  0  0
    4.3560   -1.5200    4.5338 H   0  0  0  0  0  0  0  0  0  0  0  0
    4.0907   -2.4273    6.0603 H   0  0  0  0  0  0  0  0  0  0  0  0
    2.9365   -1.1688    5.5242 H   0  0  0  0  0  0  0  0  0  0  0  0
   -0.5747    0.0680  -11.0787 H   0  0  0  0  0  0  0  0  0  0  0  0
    1.0236   -0.4495  -10.3294 H   0  0  0  0  0  0  0  0  0  0  0  0
    0.5505   -2.5590  -10.8463 H   0  0  0  0  0  0  0  0  0  0  0  0
   -1.0065   -2.0811  -11.5195 H   0  0  0  0  0  0  0  0  0  0  0  0
   -0.8812   -2.4914   -9.7448 H   0  0  0  0  0  0  0  0  0  0  0  0
   -1.2666   -1.5199   -2.1643 H   0  0  0  0  0  0  0  0  0  0  0  0
   -1.2196   -0.3138   -0.8023 H   0  0  0  0  0  0  0  0  0  0  0  0
   -2.3353   -2.0277    0.3007 H   0  0  0  0  0  0  0  0  0  0  0  0
   -0.7830   -3.0248    0.0627 H   0  0  0  0  0  0  0  0  0  0  0  0
   -2.1243   -3.0958   -1.1068 H   0  0  0  0  0  0  0  0  0  0  0  0
   -0.5892    0.8359   -2.7462 H   0  0  0  0  0  0  0  0  0  0  0  0
   -0.8289    1.2550   -4.3848 H   0  0  0  0  0  0  0  0  0  0  0  0
   -2.8606    0.0256   -2.8069 H   0  0  0  0  0  0  0  0  0  0  0  0
   -2.4276   -1.0031   -4.2970 H   0  0  0  0  0  0  0  0  0  0  0  0
   -2.9549    0.6831   -4.4295 H   0  0  0  0  0  0  0  0  0  0  0  0
   -2.6333    1.5678  -10.5155 H   0  0  0  0  0  0  0  0  0  0  0  0
   -8.1890    2.0030   -9.8729 H   0  0  0  0  0  0  0  0  0  0  0  0
   -9.7201    1.2551   -8.0458 H   0  0  0  0  0  0  0  0  0  0  0  0
   -8.8624    0.0337   -6.1476 H   0  0  0  0  0  0  0  0  0  0  0  0
   -6.5050   -0.5119   -5.9658 H   0  0  0  0  0  0  0  0  0  0  0  0
  1  2  2  3
  2  3  1  0
  3  4  2  0
  3  5  1  0
  5  6  2  0
  6  7  1  0
  7  8  2  0
  8  9  1  0
  9 10  2  0
 10 11  1  0
 11 12  2  3
 12 13  1  0
 13 14  3  0
 12 15  1  0
 15 16  3  0
  8 17  1  0
 17 18  1  0
 18 19  1  0
 19 20  2  0
 20 21  1  0
 21 22  1  0
 21 23  1  0
  1 24  1  0
 24 25  2  0
 25 26  1  0
 26 27  1  0
 25 28  1  0
 28 29  1  0
 29 30  1  0
 30 31  1  0
 31 32  1  0
 32 33  1  0
 33 34  2  0
 34 35  1  0
 35 36  1  0
 33 37  1  0
 37 38  1  0
 38 39  1  0
 39 40  1  0
 40 41  1  0
 41 42  1  0
 42 43  1  0
 41 44  2  0
 44 45  1  0
 45 46  1  0
 46 47  1  0
 47 48  1  0
 48 49  1  0
 49 50  1  0
 50 51  1  0
 51 52  1  0
 52 53  1  0
 53 54  1  0
 51 55  1  0
 55 56  1  0
 48 57  1  0
 57 58  1  0
 44 59  1  0
 59 60  2  3
 60 61  1  0
 61 62  2  0
 61 63  1  0
 63 64  2  0
 64 65  1  0
 65 66  2  0
 66 67  1  0
 67 68  2  0
 68 69  1  0
 69 70  2  0
 11  2  1  0
 23 17  1  0
 54 24  1  0
 69 60  1  0
 10  5  1  0
 22 18  1  0
 53 28  2  0
 68 63  1  0
 23  7  1  0
 52 30  2  0
 50 31  2  0
 36 32  2  0
 49 37  2  0
 47 38  2  0
 46 40  2  0
  1 71  1  0
  6 72  1  0
  9 73  1  0
 17 74  1  0
 18 75  1  0
 19 76  1  0
 20 77  1  0
 21 78  1  0
 22 79  1  0
 22 80  1  0
 23 81  1  0
 26 82  1  0
 26 83  1  0
 27 84  1  0
 27 85  1  0
 27 86  1  0
 42 87  1  0
 42 88  1  0
 43 89  1  0
 43 90  1  0
 43 91  1  0
 55 92  1  0
 55 93  1  0
 56 94  1  0
 56 95  1  0
 56 96  1  0
 57 97  1  0
 57 98  1  0
 58 99  1  0
 58100  1  0
 58101  1  0
 59102  1  0
 64103  1  0
 65104  1  0
 66105  1  0
 67106  1  0
M  END

