
     RDKit          3D

130146  0  0  0  0  0  0  0  0999 V2000
    4.0575    4.8868   -3.1713 C   0  0  0  0  0  0  0  0  0  0  0  0
    4.9661    3.9471   -3.4887 C   0  0  0  0  0  0  0  0  0  0  0  0
    4.6734    2.5178   -3.6444 C   0  0  0  0  0  0  0  0  0  0  0  0
    3.5742    2.0209   -4.0118 O   0  0  0  0  0  0  0  0  0  0  0  0
    5.8590    1.7616   -3.3208 C   0  0  0  0  0  0  0  0  0  0  0  0
    5.9368    0.3696   -3.1064 C   0  0  0  0  0  0  0  0  0  0  0  0
    7.1359   -0.0431   -2.5680 C   0  0  0  0  0  0  0  0  0  0  0  0
    8.2026    0.8555   -2.2390 C   0  0  0  0  0  0  0  0  0  0  0  0
    8.1376    2.2239   -2.4685 C   0  0  0  0  0  0  0  0  0  0  0  0
    6.9202    2.6638   -3.0601 C   0  0  0  0  0  0  0  0  0  0  0  0
    6.4441    4.0529   -3.3205 C   0  0  0  0  0  0  0  0  0  0  0  0
    7.2144    5.1461   -3.5481 C   0  0  0  0  0  0  0  0  0  0  0  0
    6.6555    6.4019   -3.9701 C   0  0  0  0  0  0  0  0  0  0  0  0
    6.2032    7.4110   -4.3089 N   0  0  0  0  0  0  0  0  0  0  0  0
    8.6504    5.0809   -3.5315 C   0  0  0  0  0  0  0  0  0  0  0  0
    9.8071    5.0286   -3.5178 N   0  0  0  0  0  0  0  0  0  0  0  0
    8.9930   -0.2781   -1.6409 C   0  0  0  0  0  0  0  0  0  0  0  0
    9.0297   -0.3604   -0.0795 C   0  0  0  0  0  0  0  0  0  0  0  0
    9.5180   -1.7543    0.2483 C   0  0  0  0  0  0  0  0  0  0  0  0
    8.5281   -2.5918   -0.0848 C   0  0  0  0  0  0  0  0  0  0  0  0
    7.4037   -1.7301   -0.6235 C   0  0  0  0  0  0  0  0  0  0  0  0
    7.5663   -0.5337    0.2967 C   0  0  0  0  0  0  0  0  0  0  0  0
    7.9066   -1.1955   -1.9985 C   0  0  0  0  0  0  0  0  0  0  0  0
    2.7172    4.5219   -2.6786 C   0  0  0  0  0  0  0  0  0  0  0  0
    1.4805    5.0337   -3.1114 C   0  0  0  0  0  0  0  0  0  0  0  0
    1.3180    6.0289   -4.1732 C   0  0  0  0  0  0  0  0  0  0  0  0
    1.0571    5.6286   -5.4907 C   0  0  0  0  0  0  0  0  0  0  0  0
    0.9182    6.5880   -6.4988 C   0  0  0  0  0  0  0  0  0  0  0  0
    1.0203    7.9572   -6.1966 C   0  0  0  0  0  0  0  0  0  0  0  0
    0.9002    8.9880   -7.2869 C   0  0  0  0  0  0  0  0  0  0  0  0
    2.2610    9.2637   -7.9159 C   0  0  0  0  0  0  0  0  0  0  0  0
    1.2888    8.3506   -4.8757 C   0  0  0  0  0  0  0  0  0  0  0  0
    1.4338    7.3915   -3.8697 C   0  0  0  0  0  0  0  0  0  0  0  0
    0.4272    4.4436   -2.4114 C   0  0  0  0  0  0  0  0  0  0  0  0
   -1.2785    4.5008   -2.5394 S   0  0  0  0  0  0  0  0  0  0  0  0
   -1.4304    3.3278   -1.3138 C   0  0  0  0  0  0  0  0  0  0  0  0
   -2.3848    2.6054   -0.6459 C   0  0  0  0  0  0  0  0  0  0  0  0
   -3.7818    2.6594   -0.6584 C   0  0  0  0  0  0  0  0  0  0  0  0
   -4.5112    1.7928    0.2076 C   0  0  0  0  0  0  0  0  0  0  0  0
   -5.8658    1.8755    0.1670 N   0  0  0  0  0  0  0  0  0  0  0  0
   -6.0329    3.0712   -0.9663 S   0  0  0  0  0  0  0  0  0  0  0  0
   -4.5051    3.5039   -1.4320 N   0  0  0  0  0  0  0  0  0  0  0  0
   -3.8023    0.8882    1.0075 C   0  0  0  0  0  0  0  0  0  0  0  0
   -4.2263   -0.1773    1.7509 C   0  0  0  0  0  0  0  0  0  0  0  0
   -5.6754   -1.0065    2.0808 S   0  0  0  0  0  0  0  0  0  0  0  0
   -4.8124   -2.3352    2.7242 C   0  0  0  0  0  0  0  0  0  0  0  0
   -5.1847   -3.5973    3.2183 C   0  0  0  0  0  0  0  0  0  0  0  0
   -6.5870   -4.0349    3.3638 C   0  0  0  0  0  0  0  0  0  0  0  0
   -7.5524   -3.1497    3.8721 C   0  0  0  0  0  0  0  0  0  0  0  0
   -8.8984   -3.5179    3.9205 C   0  0  0  0  0  0  0  0  0  0  0  0
   -9.3026   -4.7789    3.4612 C   0  0  0  0  0  0  0  0  0  0  0  0
  -10.7538   -5.1710    3.5086 C   0  0  0  0  0  0  0  0  0  0  0  0
  -11.0978   -5.7956    4.8574 C   0  0  0  0  0  0  0  0  0  0  0  0
   -8.3351   -5.6846    2.9938 C   0  0  0  0  0  0  0  0  0  0  0  0
   -6.9871   -5.3119    2.9368 C   0  0  0  0  0  0  0  0  0  0  0  0
   -4.0397   -4.3850    3.4775 C   0  0  0  0  0  0  0  0  0  0  0  0
   -2.6355   -3.4753    3.1535 S   0  0  0  0  0  0  0  0  0  0  0  0
   -3.4625   -2.1311    2.6194 C   0  0  0  0  0  0  0  0  0  0  0  0
   -3.1281   -0.9055    2.0670 C   0  0  0  0  0  0  0  0  0  0  0  0
   -1.9835   -0.3919    1.5546 N   0  0  0  0  0  0  0  0  0  0  0  0
   -2.4000    0.7823    0.9670 C   0  0  0  0  0  0  0  0  0  0  0  0
   -1.6724    1.7356    0.2031 C   0  0  0  0  0  0  0  0  0  0  0  0
   -0.3278    2.0131    0.1579 N   0  0  0  0  0  0  0  0  0  0  0  0
   -0.2355    2.9378   -0.8227 C   0  0  0  0  0  0  0  0  0  0  0  0
    0.8225    3.5668   -1.4387 C   0  0  0  0  0  0  0  0  0  0  0  0
    2.4816    3.4099   -1.4085 S   0  0  0  0  0  0  0  0  0  0  0  0
    0.7343    1.7675    1.1429 C   0  0  0  0  0  0  0  0  0  0  0  0
    0.2587    1.9847    2.5794 C   0  0  0  0  0  0  0  0  0  0  0  0
   -0.7750   -1.1852    1.2784 C   0  0  0  0  0  0  0  0  0  0  0  0
   -0.5488   -1.3776   -0.2188 C   0  0  0  0  0  0  0  0  0  0  0  0
   -3.9768   -5.7320    4.0843 C   0  0  0  0  0  0  0  0  0  0  0  0
   -3.0874   -6.6472    3.6456 C   0  0  0  0  0  0  0  0  0  0  0  0
   -2.3735   -6.5700    2.3577 C   0  0  0  0  0  0  0  0  0  0  0  0
   -2.7893   -6.0262    1.2991 O   0  0  0  0  0  0  0  0  0  0  0  0
   -1.0930   -7.2206    2.5185 C   0  0  0  0  0  0  0  0  0  0  0  0
    0.4069   -6.9494    1.8246 S   0  0  0  0  0  0  0  0  0  0  0  0
    1.2486   -7.5804    3.1627 C   0  0  0  0  0  0  0  0  0  0  0  0
    2.7326   -7.5267    3.3151 C   0  0  0  0  0  0  0  0  0  0  0  0
    0.3503   -7.9229    4.1808 C   0  0  0  0  0  0  0  0  0  0  0  0
   -0.9759   -7.7188    3.7778 C   0  0  0  0  0  0  0  0  0  0  0  0
   -2.2463   -7.5356    4.5200 C   0  0  0  0  0  0  0  0  0  0  0  0
   -2.5884   -8.1455    5.6726 C   0  0  0  0  0  0  0  0  0  0  0  0
   -3.9118   -8.0459    6.2334 C   0  0  0  0  0  0  0  0  0  0  0  0
   -4.9749   -7.9533    6.6894 N   0  0  0  0  0  0  0  0  0  0  0  0
   -1.6737   -9.0321    6.3493 C   0  0  0  0  0  0  0  0  0  0  0  0
   -0.9343   -9.7442    6.8906 N   0  0  0  0  0  0  0  0  0  0  0  0
    4.3400    5.9127   -3.0231 H   0  0  0  0  0  0  0  0  0  0  0  0
    5.1044   -0.3079   -3.2612 H   0  0  0  0  0  0  0  0  0  0  0  0
    8.9310    2.8851   -2.1465 H   0  0  0  0  0  0  0  0  0  0  0  0
    9.9574   -0.4793   -2.1551 H   0  0  0  0  0  0  0  0  0  0  0  0
    9.5675    0.4637    0.4316 H   0  0  0  0  0  0  0  0  0  0  0  0
   10.4357   -2.0292    0.7618 H   0  0  0  0  0  0  0  0  0  0  0  0
    8.5000   -3.6625    0.1123 H   0  0  0  0  0  0  0  0  0  0  0  0
    6.4045   -2.2099   -0.6330 H   0  0  0  0  0  0  0  0  0  0  0  0
    6.9247    0.3406    0.0286 H   0  0  0  0  0  0  0  0  0  0  0  0
    7.4057   -0.7733    1.3816 H   0  0  0  0  0  0  0  0  0  0  0  0
    8.1729   -1.9696   -2.7534 H   0  0  0  0  0  0  0  0  0  0  0  0
    0.9763    4.5750   -5.7371 H   0  0  0  0  0  0  0  0  0  0  0  0
    0.7265    6.2651   -7.5138 H   0  0  0  0  0  0  0  0  0  0  0  0
    0.4845    9.9360   -6.8766 H   0  0  0  0  0  0  0  0  0  0  0  0
    0.2000    8.6322   -8.0737 H   0  0  0  0  0  0  0  0  0  0  0  0
    2.9712    9.6395   -7.1488 H   0  0  0  0  0  0  0  0  0  0  0  0
    2.1575   10.0319   -8.7110 H   0  0  0  0  0  0  0  0  0  0  0  0
    2.6686    8.3362   -8.3749 H   0  0  0  0  0  0  0  0  0  0  0  0
    1.3830    9.4011   -4.6288 H   0  0  0  0  0  0  0  0  0  0  0  0
    1.6394    7.7116   -2.8542 H   0  0  0  0  0  0  0  0  0  0  0  0
   -7.2669   -2.1632    4.2198 H   0  0  0  0  0  0  0  0  0  0  0  0
   -9.6259   -2.8066    4.2887 H   0  0  0  0  0  0  0  0  0  0  0  0
  -10.9784   -5.8953    2.6962 H   0  0  0  0  0  0  0  0  0  0  0  0
  -11.3947   -4.2762    3.3468 H   0  0  0  0  0  0  0  0  0  0  0  0
  -12.1586   -6.1096    4.8574 H   0  0  0  0  0  0  0  0  0  0  0  0
  -10.4624   -6.6916    5.0373 H   0  0  0  0  0  0  0  0  0  0  0  0
  -10.9330   -5.0594    5.6714 H   0  0  0  0  0  0  0  0  0  0  0  0
   -8.6261   -6.6679    2.6430 H   0  0  0  0  0  0  0  0  0  0  0  0
   -6.2659   -6.0084    2.5296 H   0  0  0  0  0  0  0  0  0  0  0  0
    1.2137    0.7882    0.9719 H   0  0  0  0  0  0  0  0  0  0  0  0
    1.5491    2.5007    1.0024 H   0  0  0  0  0  0  0  0  0  0  0  0
   -0.5400    1.2765    2.8790 H   0  0  0  0  0  0  0  0  0  0  0  0
   -0.1292    3.0207    2.6948 H   0  0  0  0  0  0  0  0  0  0  0  0
    1.1143    1.8482    3.2802 H   0  0  0  0  0  0  0  0  0  0  0  0
   -0.8653   -2.1949    1.7021 H   0  0  0  0  0  0  0  0  0  0  0  0
    0.1015   -0.7634    1.7935 H   0  0  0  0  0  0  0  0  0  0  0  0
   -0.2899   -0.4320   -0.7340 H   0  0  0  0  0  0  0  0  0  0  0  0
   -1.4626   -1.8096   -0.6859 H   0  0  0  0  0  0  0  0  0  0  0  0
    0.2852   -2.0926   -0.3792 H   0  0  0  0  0  0  0  0  0  0  0  0
   -4.4176   -5.8164    5.0678 H   0  0  0  0  0  0  0  0  0  0  0  0
    3.0037   -6.7597    4.0744 H   0  0  0  0  0  0  0  0  0  0  0  0
    3.2169   -7.2569    2.3506 H   0  0  0  0  0  0  0  0  0  0  0  0
    3.1109   -8.5181    3.6434 H   0  0  0  0  0  0  0  0  0  0  0  0
    0.6584   -8.1852    5.1818 H   0  0  0  0  0  0  0  0  0  0  0  0
  1  2  2  3
  2  3  1  0
  3  4  2  0
  3  5  1  0
  5  6  2  0
  6  7  1  0
  7  8  2  0
  8  9  1  0
  9 10  2  0
 10 11  1  0
 11 12  2  3
 12 13  1  0
 13 14  3  0
 12 15  1  0
 15 16  3  0
  8 17  1  0
 17 18  1  0
 18 19  1  0
 19 20  2  0
 20 21  1  0
 21 22  1  0
 21 23  1  0
  1 24  1  0
 24 25  2  0
 25 26  1  0
 26 27  2  0
 27 28  1  0
 28 29  2  0
 29 30  1  0
 30 31  1  0
 29 32  1  0
 32 33  2  0
 25 34  1  0
 34 35  1  0
 35 36  1  0
 36 37  1  0
 37 38  1  0
 38 39  1  0
 39 40  2  0
 40 41  1  0
 41 42  1  0
 39 43  1  0
 43 44  1  0
 44 45  1  0
 45 46  1  0
 46 47  1  0
 47 48  1  0
 48 49  2  0
 49 50  1  0
 50 51  2  0
 51 52  1  0
 52 53  1  0
 51 54  1  0
 54 55  2  0
 47 56  2  0
 56 57  1  0
 57 58  1  0
 58 59  1  0
 59 60  1  0
 60 61  1  0
 61 62  1  0
 62 63  1  0
 63 64  1  0
 64 65  1  0
 65 66  1  0
 63 67  1  0
 67 68  1  0
 60 69  1  0
 69 70  1  0
 56 71  1  0
 71 72  2  3
 72 73  1  0
 73 74  2  0
 73 75  1  0
 75 76  1  0
 76 77  1  0
 77 78  1  0
 77 79  2  0
 79 80  1  0
 80 81  1  0
 81 82  2  3
 82 83  1  0
 83 84  3  0
 82 85  1  0
 85 86  3  0
 11  2  1  0
 23 17  1  0
 66 24  1  0
 81 72  1  0
 10  5  1  0
 22 18  1  0
 33 26  1  0
 65 34  2  0
 80 75  2  0
 23  7  1  0
 64 36  2  0
 62 37  2  0
 42 38  2  0
 61 43  2  0
 59 44  2  0
 58 46  2  0
 55 48  1  0
  1 87  1  0
  6 88  1  0
  9 89  1  0
 17 90  1  0
 18 91  1  0
 19 92  1  0
 20 93  1  0
 21 94  1  0
 22 95  1  0
 22 96  1  0
 23 97  1  0
 27 98  1  0
 28 99  1  0
 30100  1  0
 30101  1  0
 31102  1  0
 31103  1  0
 31104  1  0
 32105  1  0
 33106  1  0
 49107  1  0
 50108  1  0
 52109  1  0
 52110  1  0
 53111  1  0
 53112  1  0
 53113  1  0
 54114  1  0
 55115  1  0
 67116  1  0
 67117  1  0
 68118  1  0
 68119  1  0
 68120  1  0
 69121  1  0
 69122  1  0
 70123  1  0
 70124  1  0
 70125  1  0
 71126  1  0
 78127  1  0
 78128  1  0
 78129  1  0
 79130  1  0
M  END

