
     RDKit          3D

 93106  0  0  0  0  0  0  0  0999 V2000
    2.7110    4.5261    1.5315 C   0  0  0  0  0  0  0  0  0  0  0  0
    3.9764    4.5728    1.2497 C   0  0  0  0  0  0  0  0  0  0  0  0
    4.6267    4.0713    0.0186 C   0  0  0  0  0  0  0  0  0  0  0  0
    3.9385    3.6039   -0.9470 O   0  0  0  0  0  0  0  0  0  0  0  0
    6.0509    4.1809    0.0714 C   0  0  0  0  0  0  0  0  0  0  0  0
    7.0527    3.7759   -0.8506 C   0  0  0  0  0  0  0  0  0  0  0  0
    8.3577    3.9575   -0.4988 C   0  0  0  0  0  0  0  0  0  0  0  0
    8.7316    4.4933    0.6387 C   0  0  0  0  0  0  0  0  0  0  0  0
    7.7050    4.8859    1.5489 C   0  0  0  0  0  0  0  0  0  0  0  0
    6.3735    4.7344    1.2887 C   0  0  0  0  0  0  0  0  0  0  0  0
    5.1331    5.0001    2.0779 C   0  0  0  0  0  0  0  0  0  0  0  0
    5.0502    5.4002    3.3184 C   0  0  0  0  0  0  0  0  0  0  0  0
    3.9253    5.5154    4.0992 C   0  0  0  0  0  0  0  0  0  0  0  0
    2.9263    5.6335    4.7976 N   0  0  0  0  0  0  0  0  0  0  0  0
    6.4043    5.4693    4.0965 C   0  0  0  0  0  0  0  0  0  0  0  0
    7.3769    5.5249    4.6344 N   0  0  0  0  0  0  0  0  0  0  0  0
   10.1499    4.3967    0.2633 C   0  0  0  0  0  0  0  0  0  0  0  0
   10.9222    3.3710    1.0285 C   0  0  0  0  0  0  0  0  0  0  0  0
    9.9278    2.3522    1.5095 C   0  0  0  0  0  0  0  0  0  0  0  0
    9.4232    1.7472    0.4089 C   0  0  0  0  0  0  0  0  0  0  0  0
   10.1977    2.2305   -0.7538 C   0  0  0  0  0  0  0  0  0  0  0  0
   11.5432    2.5455   -0.0825 C   0  0  0  0  0  0  0  0  0  0  0  0
    9.7481    3.6642   -1.0226 C   0  0  0  0  0  0  0  0  0  0  0  0
    1.7021    3.9637    0.6710 C   0  0  0  0  0  0  0  0  0  0  0  0
    1.2486    4.2327   -0.6014 C   0  0  0  0  0  0  0  0  0  0  0  0
    0.3032    3.4404   -1.0942 C   0  0  0  0  0  0  0  0  0  0  0  0
   -0.2673    3.3634   -2.8964 S   0  0  0  0  0  0  0  0  0  0  0  0
   -1.2789    2.0008   -2.6855 C   0  0  0  0  0  0  0  0  0  0  0  0
   -2.1661    1.1676   -3.3000 C   0  0  0  0  0  0  0  0  0  0  0  0
   -2.6141    1.1779   -4.6032 C   0  0  0  0  0  0  0  0  0  0  0  0
   -3.5741    0.2666   -5.0120 C   0  0  0  0  0  0  0  0  0  0  0  0
   -4.0003    0.3358   -6.2437 N   0  0  0  0  0  0  0  0  0  0  0  0
   -3.1425    1.6178   -6.9267 S   0  0  0  0  0  0  0  0  0  0  0  0
   -2.2535    2.0366   -5.6151 N   0  0  0  0  0  0  0  0  0  0  0  0
   -4.0178   -0.6412   -4.0409 C   0  0  0  0  0  0  0  0  0  0  0  0
   -4.8017   -1.7590   -4.1660 C   0  0  0  0  0  0  0  0  0  0  0  0
   -4.8126   -2.4406   -2.9662 C   0  0  0  0  0  0  0  0  0  0  0  0
   -4.0293   -1.7315   -2.0999 N   0  0  0  0  0  0  0  0  0  0  0  0
   -3.6871   -2.2797   -0.7939 C   0  0  0  0  0  0  0  0  0  0  0  0
   -4.6688   -2.0352    0.2650 C   0  0  0  0  0  0  0  0  0  0  0  0
   -3.5519   -0.6554   -2.7175 C   0  0  0  0  0  0  0  0  0  0  0  0
   -2.6021    0.2916   -2.3030 C   0  0  0  0  0  0  0  0  0  0  0  0
   -2.0251    0.6044   -1.1838 N   0  0  0  0  0  0  0  0  0  0  0  0
   -1.1401    1.6565   -1.2467 C   0  0  0  0  0  0  0  0  0  0  0  0
   -0.3670    2.5177   -0.8569 C   0  0  0  0  0  0  0  0  0  0  0  0
    0.6572    2.4456    1.1793 Se  0  0  0  0  0  2  0  0  0  0  0  0
   -2.2943    0.1175    0.1768 C   0  0  0  0  0  0  0  0  0  0  0  0
   -3.4209    0.9810    0.7394 C   0  0  0  0  0  0  0  0  0  0  0  0
   -5.5527   -3.6120   -3.0065 C   0  0  0  0  0  0  0  0  0  0  0  0
   -6.1672   -4.0189   -4.0268 C   0  0  0  0  0  0  0  0  0  0  0  0
   -5.7650   -2.7229   -5.1667 S   0  0  0  0  0  0  0  0  0  0  0  0
   -6.8187   -5.1590   -3.9768 C   0  0  0  0  0  0  0  0  0  0  0  0
   -7.1449   -6.1279   -3.3165 C   0  0  0  0  0  0  0  0  0  0  0  0
   -5.9231   -5.0240   -1.7333 Se  0  0  0  0  0  2  0  0  0  0  0  0
   -7.4819   -7.2236   -2.4433 C   0  0  0  0  0  0  0  0  0  0  0  0
   -7.7695   -7.4384   -1.2476 C   0  0  0  0  0  0  0  0  0  0  0  0
   -8.1127   -9.2031   -0.7606 S   0  0  0  0  0  0  0  0  0  0  0  0
   -9.1867   -8.7229    0.6234 C   0  0  0  0  0  0  0  0  0  0  0  0
  -10.4340   -9.6101    1.1712 S   0  0  0  0  0  0  0  0  0  0  0  0
   -8.6607   -7.4688    0.9822 N   0  0  0  0  0  0  0  0  0  0  0  0
   -8.8875   -6.9345    2.3719 C   0  0  0  0  0  0  0  0  0  0  0  0
   -7.8063   -7.4122    3.2736 C   0  0  0  0  0  0  0  0  0  0  0  0
   -7.9261   -6.7819    0.0342 C   0  0  0  0  0  0  0  0  0  0  0  0
   -7.4294   -5.6181    0.3086 O   0  0  0  0  0  0  0  0  0  0  0  0
    2.3297    4.9495    2.4469 H   0  0  0  0  0  0  0  0  0  0  0  0
    6.6952    3.3315   -1.7677 H   0  0  0  0  0  0  0  0  0  0  0  0
    8.0697    5.3568    2.4222 H   0  0  0  0  0  0  0  0  0  0  0  0
   10.6494    5.3740    0.1119 H   0  0  0  0  0  0  0  0  0  0  0  0
   11.5964    3.6955    1.8122 H   0  0  0  0  0  0  0  0  0  0  0  0
    9.5966    2.0852    2.4779 H   0  0  0  0  0  0  0  0  0  0  0  0
    8.5782    1.0189    0.4133 H   0  0  0  0  0  0  0  0  0  0  0  0
   10.2435    1.5759   -1.6122 H   0  0  0  0  0  0  0  0  0  0  0  0
   11.9764    1.5716    0.2755 H   0  0  0  0  0  0  0  0  0  0  0  0
   12.2319    3.1034   -0.7244 H   0  0  0  0  0  0  0  0  0  0  0  0
    9.9821    4.1073   -1.9573 H   0  0  0  0  0  0  0  0  0  0  0  0
    1.7559    5.1199   -1.0863 H   0  0  0  0  0  0  0  0  0  0  0  0
   -2.6589   -2.2322   -0.5821 H   0  0  0  0  0  0  0  0  0  0  0  0
   -3.8199   -3.4678   -0.9470 H   0  0  0  0  0  0  0  0  0  0  0  0
   -4.2464   -1.8329    1.2572 H   0  0  0  0  0  0  0  0  0  0  0  0
   -5.3585   -1.1718    0.0327 H   0  0  0  0  0  0  0  0  0  0  0  0
   -5.4572   -2.8704    0.3668 H   0  0  0  0  0  0  0  0  0  0  0  0
   -1.4291    0.5941    0.8469 H   0  0  0  0  0  0  0  0  0  0  0  0
   -2.1443   -0.8508    0.4905 H   0  0  0  0  0  0  0  0  0  0  0  0
   -3.1633    2.0585    0.6581 H   0  0  0  0  0  0  0  0  0  0  0  0
   -3.6278    0.7580    1.8025 H   0  0  0  0  0  0  0  0  0  0  0  0
   -4.3202    0.8472    0.1250 H   0  0  0  0  0  0  0  0  0  0  0  0
   -7.3792   -5.4110   -5.1139 H   0  0  0  0  0  0  0  0  0  0  0  0
   -7.4247   -8.2023   -3.0725 H   0  0  0  0  0  0  0  0  0  0  0  0
   -8.8608   -5.8316    2.3368 H   0  0  0  0  0  0  0  0  0  0  0  0
   -9.8798   -7.2168    2.7004 H   0  0  0  0  0  0  0  0  0  0  0  0
   -8.1891   -7.3202    4.3360 H   0  0  0  0  0  0  0  0  0  0  0  0
   -6.8984   -6.7786    3.2550 H   0  0  0  0  0  0  0  0  0  0  0  0
   -7.5788   -8.4865    3.1666 H   0  0  0  0  0  0  0  0  0  0  0  0
  1  2  2  3
  2  3  1  0
  3  4  2  0
  3  5  1  0
  5  6  2  0
  6  7  1  0
  7  8  2  0
  8  9  1  0
  9 10  2  0
 10 11  1  0
 11 12  2  3
 12 13  1  0
 13 14  3  0
 12 15  1  0
 15 16  3  0
  8 17  1  0
 17 18  1  0
 18 19  1  0
 19 20  2  0
 20 21  1  0
 21 22  1  0
 21 23  1  0
  1 24  1  0
 24 25  2  0
 25 26  1  0
 26 27  1  0
 27 28  1  0
 28 29  1  0
 29 30  1  0
 30 31  1  0
 31 32  2  0
 32 33  1  0
 33 34  1  0
 31 35  1  0
 35 36  1  0
 36 37  2  0
 37 38  1  0
 38 39  1  0
 39 40  1  0
 38 41  1  0
 41 42  1  0
 42 43  1  0
 43 44  1  0
 44 45  1  0
 45 46  1  0
 43 47  1  0
 47 48  1  0
 37 49  1  0
 49 50  2  0
 50 51  1  0
 50 52  1  0
 52 53  2  0
 53 54  1  0
 53 55  1  0
 55 56  2  3
 56 57  1  0
 57 58  1  0
 58 59  2  0
 58 60  1  0
 60 61  1  0
 61 62  1  0
 60 63  1  0
 63 64  2  0
 11  2  1  0
 23 17  1  0
 46 24  1  0
 54 49  1  0
 63 56  1  0
 10  5  1  0
 22 18  1  0
 45 26  2  0
 23  7  1  0
 44 28  2  0
 42 29  2  0
 34 30  2  0
 41 35  2  0
 51 36  1  0
  1 65  1  0
  6 66  1  0
  9 67  1  0
 17 68  1  0
 18 69  1  0
 19 70  1  0
 20 71  1  0
 21 72  1  0
 22 73  1  0
 22 74  1  0
 23 75  1  0
 25 76  1  0
 39 77  1  0
 39 78  1  0
 40 79  1  0
 40 80  1  0
 40 81  1  0
 47 82  1  0
 47 83  1  0
 48 84  1  0
 48 85  1  0
 48 86  1  0
 52 87  1  0
 55 88  1  0
 61 89  1  0
 61 90  1  0
 62 91  1  0
 62 92  1  0
 62 93  1  0
M  END

