
     RDKit          3D

111128  0  0  0  0  0  0  0  0999 V2000
    6.7611    1.9092   -2.6125 C   0  0  0  0  0  0  0  0  0  0  0  0
    5.6188    1.8257   -3.3234 C   0  0  0  0  0  0  0  0  0  0  0  0
    4.8323    0.5867   -3.3985 C   0  0  0  0  0  0  0  0  0  0  0  0
    5.3065   -0.5781   -3.4783 O   0  0  0  0  0  0  0  0  0  0  0  0
    3.4324    0.9032   -3.2669 C   0  0  0  0  0  0  0  0  0  0  0  0
    2.3905   -0.0076   -2.9817 C   0  0  0  0  0  0  0  0  0  0  0  0
    1.2095    0.5974   -2.6038 C   0  0  0  0  0  0  0  0  0  0  0  0
    1.0476    2.0185   -2.5149 C   0  0  0  0  0  0  0  0  0  0  0  0
    2.0652    2.9179   -2.8055 C   0  0  0  0  0  0  0  0  0  0  0  0
    3.2894    2.3130   -3.2104 C   0  0  0  0  0  0  0  0  0  0  0  0
    4.6272    2.9368   -3.4098 C   0  0  0  0  0  0  0  0  0  0  0  0
    4.8895    4.2208   -3.7470 C   0  0  0  0  0  0  0  0  0  0  0  0
    6.2255    4.6636   -4.0531 C   0  0  0  0  0  0  0  0  0  0  0  0
    7.2980    5.0304   -4.2977 N   0  0  0  0  0  0  0  0  0  0  0  0
    3.8422    5.1919   -3.9313 C   0  0  0  0  0  0  0  0  0  0  0  0
    3.0071    5.9799   -4.0823 N   0  0  0  0  0  0  0  0  0  0  0  0
   -0.3600    1.8403   -2.0248 C   0  0  0  0  0  0  0  0  0  0  0  0
   -1.4957    2.1341   -3.0472 C   0  0  0  0  0  0  0  0  0  0  0  0
   -2.7433    1.5103   -2.4688 C   0  0  0  0  0  0  0  0  0  0  0  0
   -2.5857    0.1834   -2.5547 C   0  0  0  0  0  0  0  0  0  0  0  0
   -1.2345   -0.0433   -3.1864 C   0  0  0  0  0  0  0  0  0  0  0  0
   -1.2313    1.1279   -4.1575 C   0  0  0  0  0  0  0  0  0  0  0  0
   -0.1888    0.3850   -2.1161 C   0  0  0  0  0  0  0  0  0  0  0  0
    6.9376    0.9666   -1.5037 C   0  0  0  0  0  0  0  0  0  0  0  0
    6.0479    0.9178   -0.5288 O   0  0  0  0  0  0  0  0  0  0  0  0
    6.3277   -0.1425    0.1681 C   0  0  0  0  0  0  0  0  0  0  0  0
    5.5966   -0.8535    1.1008 C   0  0  0  0  0  0  0  0  0  0  0  0
    4.2606   -0.8224    1.3467 N   0  0  0  0  0  0  0  0  0  0  0  0
    3.3340    0.0222    0.5793 C   0  0  0  0  0  0  0  0  0  0  0  0
    3.2862    1.4456    1.1311 C   0  0  0  0  0  0  0  0  0  0  0  0
    3.9903   -2.0776    1.8214 C   0  0  0  0  0  0  0  0  0  0  0  0
    5.1235   -2.9035    1.7222 C   0  0  0  0  0  0  0  0  0  0  0  0
    6.1471   -2.0926    1.2996 C   0  0  0  0  0  0  0  0  0  0  0  0
    7.5144   -2.3638    0.3000 S   0  0  0  0  0  0  0  0  0  0  0  0
    7.4195   -0.7777   -0.3031 C   0  0  0  0  0  0  0  0  0  0  0  0
    7.8546   -0.0963   -1.4208 C   0  0  0  0  0  0  0  0  0  0  0  0
    5.0236   -4.3042    1.7348 C   0  0  0  0  0  0  0  0  0  0  0  0
    6.0724   -5.1431    1.5486 N   0  0  0  0  0  0  0  0  0  0  0  0
    5.2864   -6.5998    1.6539 S   0  0  0  0  0  0  0  0  0  0  0  0
    3.6838   -6.2604    1.9066 N   0  0  0  0  0  0  0  0  0  0  0  0
    3.7401   -4.9054    1.9155 C   0  0  0  0  0  0  0  0  0  0  0  0
    2.6294   -4.0743    2.0830 C   0  0  0  0  0  0  0  0  0  0  0  0
    1.3110   -4.3474    2.3241 C   0  0  0  0  0  0  0  0  0  0  0  0
    0.2379   -5.6720    2.4668 S   0  0  0  0  0  0  0  0  0  0  0  0
   -1.0421   -4.5825    2.7775 C   0  0  0  0  0  0  0  0  0  0  0  0
   -2.4020   -4.5890    2.9692 C   0  0  0  0  0  0  0  0  0  0  0  0
   -2.7189   -3.2192    3.0561 C   0  0  0  0  0  0  0  0  0  0  0  0
   -1.6291   -2.4678    2.9531 O   0  0  0  0  0  0  0  0  0  0  0  0
   -0.6407   -3.2956    2.7747 C   0  0  0  0  0  0  0  0  0  0  0  0
    0.7048   -3.1532    2.5240 C   0  0  0  0  0  0  0  0  0  0  0  0
    1.5362   -2.0905    2.4364 N   0  0  0  0  0  0  0  0  0  0  0  0
    1.2667   -0.7923    3.0768 C   0  0  0  0  0  0  0  0  0  0  0  0
    2.1992   -0.5514    4.2611 C   0  0  0  0  0  0  0  0  0  0  0  0
    2.7330   -2.6707    2.0934 C   0  0  0  0  0  0  0  0  0  0  0  0
   -4.0747   -2.6804    3.2651 C   0  0  0  0  0  0  0  0  0  0  0  0
   -4.4560   -1.4212    2.9627 C   0  0  0  0  0  0  0  0  0  0  0  0
   -3.7782   -0.5032    2.0285 C   0  0  0  0  0  0  0  0  0  0  0  0
   -2.6780   -0.6902    1.4481 O   0  0  0  0  0  0  0  0  0  0  0  0
   -4.6685    0.5953    1.7316 C   0  0  0  0  0  0  0  0  0  0  0  0
   -4.4386    1.6488    0.8161 C   0  0  0  0  0  0  0  0  0  0  0  0
   -5.5281    2.4790    0.6277 C   0  0  0  0  0  0  0  0  0  0  0  0
   -6.7778    2.2869    1.3004 C   0  0  0  0  0  0  0  0  0  0  0  0
   -7.0070    1.2611    2.2033 C   0  0  0  0  0  0  0  0  0  0  0  0
   -5.8868    0.4111    2.4302 C   0  0  0  0  0  0  0  0  0  0  0  0
   -5.7649   -0.7826    3.3121 C   0  0  0  0  0  0  0  0  0  0  0  0
   -6.5243   -1.0495    4.4074 C   0  0  0  0  0  0  0  0  0  0  0  0
   -7.6426   -0.2288    4.7932 C   0  0  0  0  0  0  0  0  0  0  0  0
   -8.5370    0.4251    5.1251 N   0  0  0  0  0  0  0  0  0  0  0  0
   -6.1564   -2.0581    5.3713 C   0  0  0  0  0  0  0  0  0  0  0  0
   -5.8602   -2.8646    6.1449 N   0  0  0  0  0  0  0  0  0  0  0  0
   -7.3672    3.4588    0.5739 C   0  0  0  0  0  0  0  0  0  0  0  0
   -8.3523    3.1309   -0.5865 C   0  0  0  0  0  0  0  0  0  0  0  0
   -8.4938    4.4068   -1.3805 C   0  0  0  0  0  0  0  0  0  0  0  0
   -7.3255    4.5975   -2.0040 C   0  0  0  0  0  0  0  0  0  0  0  0
   -6.4386    3.4414   -1.6122 C   0  0  0  0  0  0  0  0  0  0  0  0
   -7.4903    2.3454   -1.5614 C   0  0  0  0  0  0  0  0  0  0  0  0
   -6.0860    3.6613   -0.1099 C   0  0  0  0  0  0  0  0  0  0  0  0
    7.2327    2.8687   -2.4666 H   0  0  0  0  0  0  0  0  0  0  0  0
    2.5247   -1.0806   -2.9701 H   0  0  0  0  0  0  0  0  0  0  0  0
    1.9304    3.9778   -2.6481 H   0  0  0  0  0  0  0  0  0  0  0  0
   -0.5257    2.2203   -0.9918 H   0  0  0  0  0  0  0  0  0  0  0  0
   -1.5979    3.1933   -3.3637 H   0  0  0  0  0  0  0  0  0  0  0  0
   -3.6387    2.0206   -2.1415 H   0  0  0  0  0  0  0  0  0  0  0  0
   -3.3322   -0.5633   -2.3033 H   0  0  0  0  0  0  0  0  0  0  0  0
   -1.0813   -1.0482   -3.6338 H   0  0  0  0  0  0  0  0  0  0  0  0
   -0.2646    1.2779   -4.6864 H   0  0  0  0  0  0  0  0  0  0  0  0
   -2.0522    1.0775   -4.9146 H   0  0  0  0  0  0  0  0  0  0  0  0
   -0.2443   -0.1496   -1.1394 H   0  0  0  0  0  0  0  0  0  0  0  0
    2.3238   -0.4246    0.5338 H   0  0  0  0  0  0  0  0  0  0  0  0
    3.6540    0.0583   -0.4802 H   0  0  0  0  0  0  0  0  0  0  0  0
    4.2166    1.9934    0.8827 H   0  0  0  0  0  0  0  0  0  0  0  0
    3.1709    1.4410    2.2365 H   0  0  0  0  0  0  0  0  0  0  0  0
    2.4297    1.9876    0.6780 H   0  0  0  0  0  0  0  0  0  0  0  0
    8.5826   -0.4098   -2.1560 H   0  0  0  0  0  0  0  0  0  0  0  0
   -3.0675   -5.4414    3.0052 H   0  0  0  0  0  0  0  0  0  0  0  0
    0.2249   -0.7685    3.4640 H   0  0  0  0  0  0  0  0  0  0  0  0
    1.3132    0.0402    2.3603 H   0  0  0  0  0  0  0  0  0  0  0  0
    1.8766    0.3547    4.8111 H   0  0  0  0  0  0  0  0  0  0  0  0
    3.2416   -0.3999    3.9175 H   0  0  0  0  0  0  0  0  0  0  0  0
    2.1666   -1.4183    4.9543 H   0  0  0  0  0  0  0  0  0  0  0  0
   -4.7868   -3.3648    3.7015 H   0  0  0  0  0  0  0  0  0  0  0  0
   -3.5051    1.7806    0.2874 H   0  0  0  0  0  0  0  0  0  0  0  0
   -7.9832    1.1199    2.6395 H   0  0  0  0  0  0  0  0  0  0  0  0
   -7.6708    4.2953    1.2448 H   0  0  0  0  0  0  0  0  0  0  0  0
   -9.3085    2.6516   -0.2894 H   0  0  0  0  0  0  0  0  0  0  0  0
   -9.3876    5.0086   -1.5092 H   0  0  0  0  0  0  0  0  0  0  0  0
   -7.1097    5.3780   -2.7262 H   0  0  0  0  0  0  0  0  0  0  0  0
   -5.5824    3.2639   -2.2927 H   0  0  0  0  0  0  0  0  0  0  0  0
   -7.9859    2.1632   -2.5469 H   0  0  0  0  0  0  0  0  0  0  0  0
   -7.1176    1.3745   -1.1627 H   0  0  0  0  0  0  0  0  0  0  0  0
   -5.5764    4.6217    0.1307 H   0  0  0  0  0  0  0  0  0  0  0  0
  1  2  2  3
  2  3  1  0
  3  4  2  0
  3  5  1  0
  5  6  2  0
  6  7  1  0
  7  8  2  0
  8  9  1  0
  9 10  2  0
 10 11  1  0
 11 12  2  3
 12 13  1  0
 13 14  3  0
 12 15  1  0
 15 16  3  0
  8 17  1  0
 17 18  1  0
 18 19  1  0
 19 20  2  0
 20 21  1  0
 21 22  1  0
 21 23  1  0
  1 24  1  0
 24 25  1  0
 25 26  1  0
 26 27  1  0
 27 28  1  0
 28 29  1  0
 29 30  1  0
 28 31  1  0
 31 32  2  0
 32 33  1  0
 33 34  1  0
 34 35  1  0
 35 36  1  0
 32 37  1  0
 37 38  2  0
 38 39  1  0
 39 40  1  0
 40 41  2  0
 41 42  1  0
 42 43  1  0
 43 44  1  0
 44 45  1  0
 45 46  1  0
 46 47  2  0
 47 48  1  0
 48 49  1  0
 49 50  1  0
 50 51  1  0
 51 52  1  0
 52 53  1  0
 51 54  1  0
 47 55  1  0
 55 56  2  3
 56 57  1  0
 57 58  2  0
 57 59  1  0
 59 60  2  0
 60 61  1  0
 61 62  2  0
 62 63  1  0
 63 64  2  0
 64 65  1  0
 65 66  2  3
 66 67  1  0
 67 68  3  0
 66 69  1  0
 69 70  3  0
 62 71  1  0
 71 72  1  0
 72 73  1  0
 73 74  2  0
 74 75  1  0
 75 76  1  0
 75 77  1  0
 11  2  1  0
 23 17  1  0
 36 24  2  0
 41 37  1  0
 54 42  2  0
 65 56  1  0
 77 71  1  0
 10  5  1  0
 22 18  1  0
 35 26  2  0
 50 43  2  0
 64 59  1  0
 76 72  1  0
 23  7  1  0
 33 27  2  0
 49 45  2  0
 77 61  1  0
 54 31  1  0
  1 78  1  0
  6 79  1  0
  9 80  1  0
 17 81  1  0
 18 82  1  0
 19 83  1  0
 20 84  1  0
 21 85  1  0
 22 86  1  0
 22 87  1  0
 23 88  1  0
 29 89  1  0
 29 90  1  0
 30 91  1  0
 30 92  1  0
 30 93  1  0
 36 94  1  0
 46 95  1  0
 52 96  1  0
 52 97  1  0
 53 98  1  0
 53 99  1  0
 53100  1  0
 55101  1  0
 60102  1  0
 63103  1  0
 71104  1  0
 72105  1  0
 73106  1  0
 74107  1  0
 75108  1  0
 76109  1  0
 76110  1  0
 77111  1  0
M  END

