
     RDKit          3D

116130  0  0  0  0  0  0  0  0999 V2000
   -2.0914    4.0486   -4.9209 C   0  0  0  0  0  0  0  0  0  0  0  0
   -0.9732    3.5959   -5.5546 C   0  0  0  0  0  0  0  0  0  0  0  0
   -0.8955    4.0072   -7.2791 C   0  0  0  0  0  0  0  0  0  0  0  0
   -1.8328    4.8393   -7.0249 O   0  0  0  0  0  0  0  0  0  0  0  0
    0.1038    3.0836   -7.3545 C   0  0  0  0  0  0  0  0  0  0  0  0
    0.6745    3.0520   -8.8970 C   0  0  0  0  0  0  0  0  0  0  0  0
    1.7134    2.1120   -8.8639 C   0  0  0  0  0  0  0  0  0  0  0  0
    2.1581    1.4663   -8.0325 C   0  0  0  0  0  0  0  0  0  0  0  0
    1.7232    1.4414   -6.6244 C   0  0  0  0  0  0  0  0  0  0  0  0
    0.6565    2.3683   -6.5275 C   0  0  0  0  0  0  0  0  0  0  0  0
   -0.0578    2.7226   -5.1559 C   0  0  0  0  0  0  0  0  0  0  0  0
    0.7284    2.3216   -4.2690 C   0  0  0  0  0  0  0  0  0  0  0  0
    0.8313    3.2615   -2.7877 C   0  0  0  0  0  0  0  0  0  0  0  0
    0.9140    3.8404   -1.8726 N   0  0  0  0  0  0  0  0  0  0  0  0
    1.2589    1.3020   -3.8604 C   0  0  0  0  0  0  0  0  0  0  0  0
    1.9035    0.0262   -3.3373 N   0  0  0  0  0  0  0  0  0  0  0  0
    3.2625    0.7356   -8.7510 C   0  0  0  0  0  0  0  0  0  0  0  0
    2.8449   -0.6663   -9.0626 C   0  0  0  0  0  0  0  0  0  0  0  0
    1.3697   -0.7716   -9.0870 C   0  0  0  0  0  0  0  0  0  0  0  0
    0.9761   -0.2061  -10.1822 C   0  0  0  0  0  0  0  0  0  0  0  0
    2.1704    0.4465  -10.8558 C   0  0  0  0  0  0  0  0  0  0  0  0
    3.1725   -0.6964  -10.4981 C   0  0  0  0  0  0  0  0  0  0  0  0
    2.6411    1.5696   -9.9723 C   0  0  0  0  0  0  0  0  0  0  0  0
   -2.4453    3.8302   -3.5997 C   0  0  0  0  0  0  0  0  0  0  0  0
   -3.8263    4.1077   -3.0094 C   0  0  0  0  0  0  0  0  0  0  0  0
   -4.8604    4.5885   -3.8587 C   0  0  0  0  0  0  0  0  0  0  0  0
   -5.3268    3.4032   -4.8434 C   0  0  0  0  0  0  0  0  0  0  0  0
   -3.6704    3.6890   -1.7729 C   0  0  0  0  0  0  0  0  0  0  0  0
   -5.2168    4.0187   -0.2143 Se  0  0  0  0  0  2  0  0  0  0  0  0
   -4.0929    3.2619    1.0406 C   0  0  0  0  0  0  0  0  0  0  0  0
   -3.8098    2.8364    2.3232 C   0  0  0  0  0  0  0  0  0  0  0  0
   -4.7370    2.7247    3.3817 C   0  0  0  0  0  0  0  0  0  0  0  0
   -4.4702    1.9609    4.5216 C   0  0  0  0  0  0  0  0  0  0  0  0
   -5.1254    1.9604    5.3176 N   0  0  0  0  0  0  0  0  0  0  0  0
   -6.5524    2.9471    5.1435 S   0  0  0  0  0  0  0  0  0  0  0  0
   -5.9103    3.3602    3.4437 N   0  0  0  0  0  0  0  0  0  0  0  0
   -3.0938    1.3737    4.4652 C   0  0  0  0  0  0  0  0  0  0  0  0
   -2.5105    0.6462    5.2254 C   0  0  0  0  0  0  0  0  0  0  0  0
   -2.8938   -0.6343    6.9447 Se  0  0  0  0  0  2  0  0  0  0  0  0
   -1.0540   -1.3639    6.8171 C   0  0  0  0  0  0  0  0  0  0  0  0
   -0.2209   -2.1444    7.2980 C   0  0  0  0  0  0  0  0  0  0  0  0
   -0.8192   -3.0708    8.5168 C   0  0  0  0  0  0  0  0  0  0  0  0
   -1.5759   -4.1177    7.7836 C   0  0  0  0  0  0  0  0  0  0  0  0
    1.0171   -2.4436    6.9910 C   0  0  0  0  0  0  0  0  0  0  0  0
    1.1687   -1.3085    5.6583 S   0  0  0  0  0  0  0  0  0  0  0  0
   -0.6151   -0.6150    5.7080 C   0  0  0  0  0  0  0  0  0  0  0  0
   -1.2596    0.0877    5.2172 C   0  0  0  0  0  0  0  0  0  0  0  0
   -1.0697    0.8873    3.8085 N   0  0  0  0  0  0  0  0  0  0  0  0
   -2.2305    1.5698    3.4764 C   0  0  0  0  0  0  0  0  0  0  0  0
   -2.5394    2.2903    2.3447 C   0  0  0  0  0  0  0  0  0  0  0  0
   -2.1017    2.4047    1.1980 N   0  0  0  0  0  0  0  0  0  0  0  0
   -2.7487    2.8897    0.2527 C   0  0  0  0  0  0  0  0  0  0  0  0
   -3.0153    3.2722   -1.0699 C   0  0  0  0  0  0  0  0  0  0  0  0
   -1.6468    3.1869   -2.3203 S   0  0  0  0  0  0  0  0  0  0  0  0
   -0.6405    2.0488    0.8708 C   0  0  0  0  0  0  0  0  0  0  0  0
    0.0776    3.4250    1.0240 C   0  0  0  0  0  0  0  0  0  0  0  0
    0.1887    0.9604    3.3884 C   0  0  0  0  0  0  0  0  0  0  0  0
    0.9922    1.8163    4.5314 C   0  0  0  0  0  0  0  0  0  0  0  0
    1.8222   -3.5414    7.6462 C   0  0  0  0  0  0  0  0  0  0  0  0
    2.1042   -4.4839    6.6502 C   0  0  0  0  0  0  0  0  0  0  0  0
    3.0568   -6.0238    7.0475 S   0  0  0  0  0  0  0  0  0  0  0  0
    2.8358   -6.7114    5.4328 C   0  0  0  0  0  0  0  0  0  0  0  0
    3.0751   -7.8717    5.1153 C   0  0  0  0  0  0  0  0  0  0  0  0
    3.6291   -8.7901    6.2675 C   0  0  0  0  0  0  0  0  0  0  0  0
    4.0026   -9.3792    7.0186 N   0  0  0  0  0  0  0  0  0  0  0  0
    2.5540   -8.8992    4.0897 C   0  0  0  0  0  0  0  0  0  0  0  0
    2.2068   -9.5585    3.4137 N   0  0  0  0  0  0  0  0  0  0  0  0
    2.0022   -5.6885    4.6151 N   0  0  0  0  0  0  0  0  0  0  0  0
    1.5658   -5.9205    3.3323 C   0  0  0  0  0  0  0  0  0  0  0  0
    2.3771   -5.4563    2.1762 C   0  0  0  0  0  0  0  0  0  0  0  0
    2.4956   -4.0113    1.9684 C   0  0  0  0  0  0  0  0  0  0  0  0
    3.2298   -3.7270    0.8838 C   0  0  0  0  0  0  0  0  0  0  0  0
    3.8268   -4.4036    0.0165 C   0  0  0  0  0  0  0  0  0  0  0  0
    3.7589   -5.8806    0.1771 C   0  0  0  0  0  0  0  0  0  0  0  0
    3.0356   -6.3178    1.2443 C   0  0  0  0  0  0  0  0  0  0  0  0
    1.9044   -4.8317    5.6131 C   0  0  0  0  0  0  0  0  0  0  0  0
    1.0165   -3.7624    4.9412 O   0  0  0  0  0  0  0  0  0  0  0  0
   -2.7895    4.6614   -5.4789 H   0  0  0  0  0  0  0  0  0  0  0  0
    0.1760    3.5931   -9.4913 H   0  0  0  0  0  0  0  0  0  0  0  0
    2.1567    0.8411   -5.9559 H   0  0  0  0  0  0  0  0  0  0  0  0
    4.2849    1.0069   -8.5894 H   0  0  0  0  0  0  0  0  0  0  0  0
    3.3605   -1.4361   -8.4388 H   0  0  0  0  0  0  0  0  0  0  0  0
    0.7798   -1.2932   -8.3569 H   0  0  0  0  0  0  0  0  0  0  0  0
   -0.0131   -0.1842  -10.6198 H   0  0  0  0  0  0  0  0  0  0  0  0
    2.0696    0.6365  -11.8946 H   0  0  0  0  0  0  0  0  0  0  0  0
    4.1907   -0.3487  -10.7666 H   0  0  0  0  0  0  0  0  0  0  0  0
    2.8448   -1.6198  -11.0219 H   0  0  0  0  0  0  0  0  0  0  0  0
    3.3510    2.2850  -10.3237 H   0  0  0  0  0  0  0  0  0  0  0  0
   -4.5319    5.3405   -4.5666 H   0  0  0  0  0  0  0  0  0  0  0  0
   -5.7945    4.7899   -3.3192 H   0  0  0  0  0  0  0  0  0  0  0  0
   -4.7077    2.5069   -4.4368 H   0  0  0  0  0  0  0  0  0  0  0  0
   -6.3266    3.1700   -4.7125 H   0  0  0  0  0  0  0  0  0  0  0  0
   -4.9381    3.5954   -5.8451 H   0  0  0  0  0  0  0  0  0  0  0  0
   -1.4377   -2.4255    9.1332 H   0  0  0  0  0  0  0  0  0  0  0  0
   -0.0258   -3.5259    9.0724 H   0  0  0  0  0  0  0  0  0  0  0  0
   -2.1306   -3.5727    7.0351 H   0  0  0  0  0  0  0  0  0  0  0  0
   -0.7624   -4.7295    7.2782 H   0  0  0  0  0  0  0  0  0  0  0  0
   -2.2643   -4.6280    8.3779 H   0  0  0  0  0  0  0  0  0  0  0  0
   -0.6737    2.0111   -0.3032 H   0  0  0  0  0  0  0  0  0  0  0  0
   -0.3114    1.1069    0.9605 H   0  0  0  0  0  0  0  0  0  0  0  0
    1.0921    3.3823    0.8234 H   0  0  0  0  0  0  0  0  0  0  0  0
   -0.2034    3.7752    2.0567 H   0  0  0  0  0  0  0  0  0  0  0  0
   -0.4975    4.1860    0.4040 H   0  0  0  0  0  0  0  0  0  0  0  0
    0.7723   -0.0023    3.4588 H   0  0  0  0  0  0  0  0  0  0  0  0
    0.6353    1.5794    2.6284 H   0  0  0  0  0  0  0  0  0  0  0  0
    0.8615    2.8864    4.3300 H   0  0  0  0  0  0  0  0  0  0  0  0
    1.9888    1.5073    4.5753 H   0  0  0  0  0  0  0  0  0  0  0  0
    0.3565    1.5588    5.4237 H   0  0  0  0  0  0  0  0  0  0  0  0
    2.1413   -3.5606    8.5545 H   0  0  0  0  0  0  0  0  0  0  0  0
    1.3441   -7.0350    3.1312 H   0  0  0  0  0  0  0  0  0  0  0  0
    0.5392   -5.4082    3.1634 H   0  0  0  0  0  0  0  0  0  0  0  0
    2.0184   -3.3522    2.6302 H   0  0  0  0  0  0  0  0  0  0  0  0
    3.3054   -2.5456    0.7474 H   0  0  0  0  0  0  0  0  0  0  0  0
    4.4309   -4.1450   -0.8538 H   0  0  0  0  0  0  0  0  0  0  0  0
    4.2478   -6.4610   -0.4947 H   0  0  0  0  0  0  0  0  0  0  0  0
    2.9002   -7.3796    1.4636 H   0  0  0  0  0  0  0  0  0  0  0  0
  1  2  2  3
  2  3  1  0
  3  4  2  0
  3  5  1  0
  5  6  2  0
  6  7  1  0
  7  8  2  0
  8  9  1  0
  9 10  2  0
 10 11  1  0
 11 12  2  3
 12 13  1  0
 13 14  3  0
 12 15  1  0
 15 16  3  0
  8 17  1  0
 17 18  1  0
 18 19  1  0
 19 20  2  0
 20 21  1  0
 21 22  1  0
 21 23  1  0
  1 24  1  0
 24 25  2  0
 25 26  1  0
 26 27  1  0
 25 28  1  0
 28 29  1  0
 29 30  1  0
 30 31  1  0
 31 32  1  0
 32 33  1  0
 33 34  2  0
 34 35  1  0
 35 36  1  0
 33 37  1  0
 37 38  1  0
 38 39  1  0
 39 40  1  0
 40 41  1  0
 41 42  1  0
 42 43  1  0
 41 44  2  0
 44 45  1  0
 45 46  1  0
 46 47  1  0
 47 48  1  0
 48 49  1  0
 49 50  1  0
 50 51  1  0
 51 52  1  0
 52 53  1  0
 53 54  1  0
 51 55  1  0
 55 56  1  0
 48 57  1  0
 57 58  1  0
 44 59  1  0
 59 60  2  3
 60 61  1  0
 61 62  1  0
 62 63  2  3
 63 64  1  0
 64 65  3  0
 63 66  1  0
 66 67  3  0
 62 68  1  0
 68 69  1  0
 69 70  1  0
 70 71  2  0
 71 72  1  0
 72 73  2  0
 73 74  1  0
 74 75  2  0
 68 76  1  0
 76 77  2  0
 11  2  1  0
 23 17  1  0
 54 24  1  0
 76 60  1  0
 10  5  1  0
 22 18  1  0
 53 28  2  0
 75 70  1  0
 23  7  1  0
 52 30  2  0
 50 31  2  0
 36 32  2  0
 49 37  2  0
 47 38  2  0
 46 40  2  0
  1 78  1  0
  6 79  1  0
  9 80  1  0
 17 81  1  0
 18 82  1  0
 19 83  1  0
 20 84  1  0
 21 85  1  0
 22 86  1  0
 22 87  1  0
 23 88  1  0
 26 89  1  0
 26 90  1  0
 27 91  1  0
 27 92  1  0
 27 93  1  0
 42 94  1  0
 42 95  1  0
 43 96  1  0
 43 97  1  0
 43 98  1  0
 55 99  1  0
 55100  1  0
 56101  1  0
 56102  1  0
 56103  1  0
 57104  1  0
 57105  1  0
 58106  1  0
 58107  1  0
 58108  1  0
 59109  1  0
 69110  1  0
 69111  1  0
 71112  1  0
 72113  1  0
 73114  1  0
 74115  1  0
 75116  1  0
M  END

