
     RDKit          3D

167186  0  0  0  0  0  0  0  0999 V2000
    2.8097    3.5878    4.0985 C   0  0  0  0  0  0  0  0  0  0  0  0
    2.5428    2.3346    4.5188 C   0  0  0  0  0  0  0  0  0  0  0  0
    1.6103    1.3913    3.8824 C   0  0  0  0  0  0  0  0  0  0  0  0
    0.6358    1.6941    3.1439 O   0  0  0  0  0  0  0  0  0  0  0  0
    2.0240    0.0379    4.2175 C   0  0  0  0  0  0  0  0  0  0  0  0
    1.5436   -1.1759    3.6653 C   0  0  0  0  0  0  0  0  0  0  0  0
    2.2962   -2.2893    4.0007 C   0  0  0  0  0  0  0  0  0  0  0  0
    3.4522   -2.2199    4.8499 C   0  0  0  0  0  0  0  0  0  0  0  0
    3.9093   -1.0393    5.4133 C   0  0  0  0  0  0  0  0  0  0  0  0
    3.1378    0.1050    5.0925 C   0  0  0  0  0  0  0  0  0  0  0  0
    3.4008    1.5256    5.4335 C   0  0  0  0  0  0  0  0  0  0  0  0
    4.0687    1.9772    6.5252 C   0  0  0  0  0  0  0  0  0  0  0  0
    4.0732    3.3746    6.8884 C   0  0  0  0  0  0  0  0  0  0  0  0
    4.0722    4.4908    7.1880 N   0  0  0  0  0  0  0  0  0  0  0  0
    4.6042    1.0820    7.5186 C   0  0  0  0  0  0  0  0  0  0  0  0
    4.9969    0.3716    8.3344 N   0  0  0  0  0  0  0  0  0  0  0  0
    3.7028   -3.6831    4.6703 C   0  0  0  0  0  0  0  0  0  0  0  0
    3.3404   -4.5943    5.8788 C   0  0  0  0  0  0  0  0  0  0  0  0
    3.3184   -5.9984    5.3335 C   0  0  0  0  0  0  0  0  0  0  0  0
    2.2435   -6.0869    4.5429 C   0  0  0  0  0  0  0  0  0  0  0  0
    1.5700   -4.7332    4.5809 C   0  0  0  0  0  0  0  0  0  0  0  0
    1.8394   -4.3827    6.0349 C   0  0  0  0  0  0  0  0  0  0  0  0
    2.5164   -3.7666    3.8058 C   0  0  0  0  0  0  0  0  0  0  0  0
    2.1212    4.2178    2.9682 C   0  0  0  0  0  0  0  0  0  0  0  0
    0.8405    4.7765    2.9917 C   0  0  0  0  0  0  0  0  0  0  0  0
    0.4209    5.1184    1.7045 C   0  0  0  0  0  0  0  0  0  0  0  0
   -1.1104    5.4296    1.0729 S   0  0  0  0  0  0  0  0  0  0  0  0
   -0.6010    5.1971   -0.5342 C   0  0  0  0  0  0  0  0  0  0  0  0
   -1.3086    4.5106   -1.5856 C   0  0  0  0  0  0  0  0  0  0  0  0
   -0.4022    3.6826   -2.2582 C   0  0  0  0  0  0  0  0  0  0  0  0
    1.0334    3.9343   -1.7920 C   0  0  0  0  0  0  0  0  0  0  0  0
    1.8277    4.7748   -2.8096 C   0  0  0  0  0  0  0  0  0  0  0  0
    2.8616    5.6298   -2.3664 C   0  0  0  0  0  0  0  0  0  0  0  0
    3.5873    6.4083   -3.2717 C   0  0  0  0  0  0  0  0  0  0  0  0
    3.3176    6.3469   -4.6453 C   0  0  0  0  0  0  0  0  0  0  0  0
    4.0662    7.2503   -5.6009 C   0  0  0  0  0  0  0  0  0  0  0  0
    3.5418    8.6831   -5.5139 C   0  0  0  0  0  0  0  0  0  0  0  0
    2.3264    5.4704   -5.1030 C   0  0  0  0  0  0  0  0  0  0  0  0
    1.6022    4.6741   -4.2016 C   0  0  0  0  0  0  0  0  0  0  0  0
    1.7365    2.6385   -1.3667 C   0  0  0  0  0  0  0  0  0  0  0  0
    1.1038    1.7717   -0.4435 C   0  0  0  0  0  0  0  0  0  0  0  0
    1.8363    0.7943    0.2338 C   0  0  0  0  0  0  0  0  0  0  0  0
    3.2086    0.6409   -0.0052 C   0  0  0  0  0  0  0  0  0  0  0  0
    4.0526   -0.2234    0.8872 C   0  0  0  0  0  0  0  0  0  0  0  0
    4.8531    0.6355    1.8607 C   0  0  0  0  0  0  0  0  0  0  0  0
    3.8129    1.4015   -1.0159 C   0  0  0  0  0  0  0  0  0  0  0  0
    3.0866    2.3855   -1.6899 C   0  0  0  0  0  0  0  0  0  0  0  0
    0.7234    4.8074   -0.5791 C   0  0  0  0  0  0  0  0  0  0  0  0
    1.2967    4.8132    0.7007 C   0  0  0  0  0  0  0  0  0  0  0  0
    2.6784    4.1197    1.3620 S   0  0  0  0  0  0  0  0  0  0  0  0
   -0.8723    2.5898   -3.0188 C   0  0  0  0  0  0  0  0  0  0  0  0
   -2.2662    2.4199   -3.0997 C   0  0  0  0  0  0  0  0  0  0  0  0
   -3.0091    1.3127   -3.4694 C   0  0  0  0  0  0  0  0  0  0  0  0
   -2.5810    0.0155   -3.7896 C   0  0  0  0  0  0  0  0  0  0  0  0
   -3.5181   -1.0322   -3.6350 C   0  0  0  0  0  0  0  0  0  0  0  0
   -4.8418   -0.7480   -3.2654 C   0  0  0  0  0  0  0  0  0  0  0  0
   -5.2727    0.5582   -3.0046 C   0  0  0  0  0  0  0  0  0  0  0  0
   -4.3201    1.5807   -3.0952 C   0  0  0  0  0  0  0  0  0  0  0  0
   -4.4225    2.8112   -2.5388 N   0  0  0  0  0  0  0  0  0  0  0  0
   -5.6480    3.4186   -1.9850 C   0  0  0  0  0  0  0  0  0  0  0  0
   -6.6338    3.7434   -3.1017 C   0  0  0  0  0  0  0  0  0  0  0  0
   -3.1573    3.2977   -2.4921 C   0  0  0  0  0  0  0  0  0  0  0  0
   -2.6915    4.3618   -1.7029 C   0  0  0  0  0  0  0  0  0  0  0  0
   -5.4073   -1.9485   -2.6889 C   0  0  0  0  0  0  0  0  0  0  0  0
   -6.4713   -2.0687   -1.3733 S   0  0  0  0  0  0  0  0  0  0  0  0
   -5.6957   -3.4267   -0.7398 C   0  0  0  0  0  0  0  0  0  0  0  0
   -5.6645   -3.8825    0.5725 C   0  0  0  0  0  0  0  0  0  0  0  0
   -4.4717   -4.5641    0.8485 C   0  0  0  0  0  0  0  0  0  0  0  0
   -3.4990   -4.5807   -0.5408 S   0  0  0  0  0  0  0  0  0  0  0  0
   -4.5938   -3.7364   -1.4990 C   0  0  0  0  0  0  0  0  0  0  0  0
   -4.4219   -2.9038   -2.6141 C   0  0  0  0  0  0  0  0  0  0  0  0
   -3.1806   -2.5073   -3.3973 C   0  0  0  0  0  0  0  0  0  0  0  0
   -1.9058   -2.6734   -2.5606 C   0  0  0  0  0  0  0  0  0  0  0  0
   -1.6685   -1.8223   -1.4581 C   0  0  0  0  0  0  0  0  0  0  0  0
   -0.5256   -1.9771   -0.6687 C   0  0  0  0  0  0  0  0  0  0  0  0
    0.3865   -3.0071   -0.9303 C   0  0  0  0  0  0  0  0  0  0  0  0
    1.6436   -3.1485   -0.1112 C   0  0  0  0  0  0  0  0  0  0  0  0
    2.8839   -2.8749   -0.9582 C   0  0  0  0  0  0  0  0  0  0  0  0
    0.1247   -3.9012   -1.9783 C   0  0  0  0  0  0  0  0  0  0  0  0
   -1.0072   -3.7396   -2.7827 C   0  0  0  0  0  0  0  0  0  0  0  0
   -3.1443   -3.2705   -4.7364 C   0  0  0  0  0  0  0  0  0  0  0  0
   -3.6769   -4.5778   -4.8389 C   0  0  0  0  0  0  0  0  0  0  0  0
   -3.7058   -5.2429   -6.0671 C   0  0  0  0  0  0  0  0  0  0  0  0
   -3.1749   -4.6394   -7.2137 C   0  0  0  0  0  0  0  0  0  0  0  0
   -3.2221   -5.3493   -8.5396 C   0  0  0  0  0  0  0  0  0  0  0  0
   -1.9724   -6.2007   -8.7350 C   0  0  0  0  0  0  0  0  0  0  0  0
   -2.5579   -3.3824   -7.1011 C   0  0  0  0  0  0  0  0  0  0  0  0
   -2.5334   -2.7112   -5.8768 C   0  0  0  0  0  0  0  0  0  0  0  0
   -3.9071   -4.6749    2.2032 C   0  0  0  0  0  0  0  0  0  0  0  0
   -3.5342   -3.5859    2.9224 C   0  0  0  0  0  0  0  0  0  0  0  0
   -3.6729   -2.1885    2.4861 C   0  0  0  0  0  0  0  0  0  0  0  0
   -3.8144   -1.7755    1.3038 O   0  0  0  0  0  0  0  0  0  0  0  0
   -3.5787   -1.3436    3.6522 C   0  0  0  0  0  0  0  0  0  0  0  0
   -3.8213    0.0244    3.7327 C   0  0  0  0  0  0  0  0  0  0  0  0
   -3.7944    0.6409    4.9915 C   0  0  0  0  0  0  0  0  0  0  0  0
   -4.0274    1.9748    5.0955 F   0  0  0  0  0  0  0  0  0  0  0  0
   -3.5361   -0.1262    6.1464 C   0  0  0  0  0  0  0  0  0  0  0  0
   -3.5408    0.4719    7.3664 F   0  0  0  0  0  0  0  0  0  0  0  0
   -3.2998   -1.5041    6.0441 C   0  0  0  0  0  0  0  0  0  0  0  0
   -3.3049   -2.1095    4.7728 C   0  0  0  0  0  0  0  0  0  0  0  0
   -3.1344   -3.5333    4.3676 C   0  0  0  0  0  0  0  0  0  0  0  0
   -2.5357   -4.5169    5.0882 C   0  0  0  0  0  0  0  0  0  0  0  0
   -2.0631   -4.3041    6.4264 C   0  0  0  0  0  0  0  0  0  0  0  0
   -1.6942   -4.1489    7.5197 N   0  0  0  0  0  0  0  0  0  0  0  0
   -2.1971   -5.7886    4.5204 C   0  0  0  0  0  0  0  0  0  0  0  0
   -1.9167   -6.8225    4.0759 N   0  0  0  0  0  0  0  0  0  0  0  0
    3.6994    4.0879    4.4464 H   0  0  0  0  0  0  0  0  0  0  0  0
    0.7116   -1.2343    2.9772 H   0  0  0  0  0  0  0  0  0  0  0  0
    4.8173   -1.0167    5.9976 H   0  0  0  0  0  0  0  0  0  0  0  0
    4.6536   -3.9201    4.1530 H   0  0  0  0  0  0  0  0  0  0  0  0
    3.9544   -4.4438    6.7886 H   0  0  0  0  0  0  0  0  0  0  0  0
    3.9874   -6.8134    5.5953 H   0  0  0  0  0  0  0  0  0  0  0  0
    1.8827   -6.9897    4.0616 H   0  0  0  0  0  0  0  0  0  0  0  0
    0.5035   -4.7205    4.2665 H   0  0  0  0  0  0  0  0  0  0  0  0
    1.5563   -3.3481    6.3161 H   0  0  0  0  0  0  0  0  0  0  0  0
    1.3695   -5.0889    6.7596 H   0  0  0  0  0  0  0  0  0  0  0  0
    2.7276   -4.0524    2.7557 H   0  0  0  0  0  0  0  0  0  0  0  0
    0.2114    4.8373    3.8656 H   0  0  0  0  0  0  0  0  0  0  0  0
    3.1168    5.6988   -1.3171 H   0  0  0  0  0  0  0  0  0  0  0  0
    4.3615    7.0662   -2.8964 H   0  0  0  0  0  0  0  0  0  0  0  0
    3.9510    6.8914   -6.6520 H   0  0  0  0  0  0  0  0  0  0  0  0
    5.1507    7.2273   -5.3623 H   0  0  0  0  0  0  0  0  0  0  0  0
    2.4561    8.7149   -5.7576 H   0  0  0  0  0  0  0  0  0  0  0  0
    4.0902    9.3233   -6.2407 H   0  0  0  0  0  0  0  0  0  0  0  0
    3.7038    9.0935   -4.4896 H   0  0  0  0  0  0  0  0  0  0  0  0
    2.1264    5.3872   -6.1643 H   0  0  0  0  0  0  0  0  0  0  0  0
    0.8484    4.0082   -4.6006 H   0  0  0  0  0  0  0  0  0  0  0  0
    0.0710    1.9279   -0.1616 H   0  0  0  0  0  0  0  0  0  0  0  0
    1.3496    0.1968    0.9948 H   0  0  0  0  0  0  0  0  0  0  0  0
    4.7563   -0.8266    0.2754 H   0  0  0  0  0  0  0  0  0  0  0  0
    3.4165   -0.9171    1.4688 H   0  0  0  0  0  0  0  0  0  0  0  0
    5.4095   -0.0134    2.5751 H   0  0  0  0  0  0  0  0  0  0  0  0
    4.1908    1.3293    2.4117 H   0  0  0  0  0  0  0  0  0  0  0  0
    5.5915    1.2526    1.3133 H   0  0  0  0  0  0  0  0  0  0  0  0
    4.8683    1.2793   -1.2344 H   0  0  0  0  0  0  0  0  0  0  0  0
    3.6185    2.9873   -2.4138 H   0  0  0  0  0  0  0  0  0  0  0  0
   -0.1868    1.8568   -3.4227 H   0  0  0  0  0  0  0  0  0  0  0  0
   -1.5334   -0.2023   -3.9479 H   0  0  0  0  0  0  0  0  0  0  0  0
   -6.2499    0.7325   -2.5743 H   0  0  0  0  0  0  0  0  0  0  0  0
   -6.1138    2.7288   -1.2465 H   0  0  0  0  0  0  0  0  0  0  0  0
   -5.4279    4.3630   -1.4443 H   0  0  0  0  0  0  0  0  0  0  0  0
   -6.9569    2.8183   -3.6221 H   0  0  0  0  0  0  0  0  0  0  0  0
   -7.5343    4.2421   -2.6783 H   0  0  0  0  0  0  0  0  0  0  0  0
   -6.1602    4.4241   -3.8446 H   0  0  0  0  0  0  0  0  0  0  0  0
   -3.3540    4.9712   -1.1009 H   0  0  0  0  0  0  0  0  0  0  0  0
   -6.3562   -3.5425    1.3330 H   0  0  0  0  0  0  0  0  0  0  0  0
   -2.3695   -1.0359   -1.2050 H   0  0  0  0  0  0  0  0  0  0  0  0
   -0.3663   -1.2937    0.1538 H   0  0  0  0  0  0  0  0  0  0  0  0
    1.6271   -2.4390    0.7474 H   0  0  0  0  0  0  0  0  0  0  0  0
    1.6894   -4.1745    0.3062 H   0  0  0  0  0  0  0  0  0  0  0  0
    3.7879   -2.9494   -0.3121 H   0  0  0  0  0  0  0  0  0  0  0  0
    2.8285   -1.8630   -1.4066 H   0  0  0  0  0  0  0  0  0  0  0  0
    2.9705   -3.6230   -1.7744 H   0  0  0  0  0  0  0  0  0  0  0  0
    0.8016   -4.7198   -2.1782 H   0  0  0  0  0  0  0  0  0  0  0  0
   -1.1590   -4.4531   -3.5763 H   0  0  0  0  0  0  0  0  0  0  0  0
   -4.0864   -5.0876   -3.9759 H   0  0  0  0  0  0  0  0  0  0  0  0
   -4.1430   -6.2331   -6.1232 H   0  0  0  0  0  0  0  0  0  0  0  0
   -4.1221   -6.0029   -8.5853 H   0  0  0  0  0  0  0  0  0  0  0  0
   -3.2992   -4.6104   -9.3689 H   0  0  0  0  0  0  0  0  0  0  0  0
   -2.0335   -6.7156   -9.7203 H   0  0  0  0  0  0  0  0  0  0  0  0
   -1.0635   -5.5595   -8.7229 H   0  0  0  0  0  0  0  0  0  0  0  0
   -1.9020   -6.9683   -7.9359 H   0  0  0  0  0  0  0  0  0  0  0  0
   -2.0986   -2.9173   -7.9611 H   0  0  0  0  0  0  0  0  0  0  0  0
   -2.0465   -1.7462   -5.8283 H   0  0  0  0  0  0  0  0  0  0  0  0
   -3.8864   -5.6619    2.6406 H   0  0  0  0  0  0  0  0  0  0  0  0
   -4.0650    0.6008    2.8444 H   0  0  0  0  0  0  0  0  0  0  0  0
   -3.1491   -2.0658    6.9496 H   0  0  0  0  0  0  0  0  0  0  0  0
  1  2  2  3
  2  3  1  0
  3  4  2  0
  3  5  1  0
  5  6  2  0
  6  7  1  0
  7  8  2  0
  8  9  1  0
  9 10  2  0
 10 11  1  0
 11 12  2  3
 12 13  1  0
 13 14  3  0
 12 15  1  0
 15 16  3  0
  8 17  1  0
 17 18  1  0
 18 19  1  0
 19 20  2  0
 20 21  1  0
 21 22  1  0
 21 23  1  0
  1 24  1  0
 24 25  2  0
 25 26  1  0
 26 27  1  0
 27 28  1  0
 28 29  1  0
 29 30  2  0
 30 31  1  0
 31 32  1  0
 32 33  2  0
 33 34  1  0
 34 35  2  0
 35 36  1  0
 36 37  1  0
 35 38  1  0
 38 39  2  0
 31 40  1  0
 40 41  2  0
 41 42  1  0
 42 43  2  0
 43 44  1  0
 44 45  1  0
 43 46  1  0
 46 47  2  0
 31 48  1  0
 48 49  1  0
 49 50  1  0
 30 51  1  0
 51 52  2  0
 52 53  1  0
 53 54  2  0
 54 55  1  0
 55 56  2  0
 56 57  1  0
 57 58  2  0
 58 59  1  0
 59 60  1  0
 60 61  1  0
 59 62  1  0
 62 63  2  0
 56 64  1  0
 64 65  1  0
 65 66  1  0
 66 67  1  0
 67 68  2  0
 68 69  1  0
 69 70  1  0
 70 71  1  0
 71 72  1  0
 72 73  1  0
 73 74  2  0
 74 75  1  0
 75 76  2  0
 76 77  1  0
 77 78  1  0
 76 79  1  0
 79 80  2  0
 72 81  1  0
 81 82  2  0
 82 83  1  0
 83 84  2  0
 84 85  1  0
 85 86  1  0
 84 87  1  0
 87 88  2  0
 68 89  1  0
 89 90  2  3
 90 91  1  0
 91 92  2  0
 91 93  1  0
 93 94  2  0
 94 95  1  0
 95 96  1  0
 95 97  2  0
 97 98  1  0
 97 99  1  0
 99100  2  0
100101  1  0
101102  2  3
102103  1  0
103104  3  0
102105  1  0
105106  3  0
 11  2  1  0
 23 17  1  0
 50 24  1  0
 62 52  1  0
 71 64  2  0
 80 73  1  0
 88 81  1  0
101 90  1  0
 10  5  1  0
 22 18  1  0
 49 26  2  0
 58 53  1  0
 70 66  2  0
100 93  1  0
 23  7  1  0
 48 28  2  0
 72 55  1  0
 63 29  1  0
 39 32  1  0
 47 40  1  0
  1107  1  0
  6108  1  0
  9109  1  0
 17110  1  0
 18111  1  0
 19112  1  0
 20113  1  0
 21114  1  0
 22115  1  0
 22116  1  0
 23117  1  0
 25118  1  0
 33119  1  0
 34120  1  0
 36121  1  0
 36122  1  0
 37123  1  0
 37124  1  0
 37125  1  0
 38126  1  0
 39127  1  0
 41128  1  0
 42129  1  0
 44130  1  0
 44131  1  0
 45132  1  0
 45133  1  0
 45134  1  0
 46135  1  0
 47136  1  0
 51137  1  0
 54138  1  0
 57139  1  0
 60140  1  0
 60141  1  0
 61142  1  0
 61143  1  0
 61144  1  0
 63145  1  0
 67146  1  0
 74147  1  0
 75148  1  0
 77149  1  0
 77150  1  0
 78151  1  0
 78152  1  0
 78153  1  0
 79154  1  0
 80155  1  0
 82156  1  0
 83157  1  0
 85158  1  0
 85159  1  0
 86160  1  0
 86161  1  0
 86162  1  0
 87163  1  0
 88164  1  0
 89165  1  0
 94166  1  0
 99167  1  0
M  END

