
     RDKit          3D

161178  0  0  0  0  0  0  0  0999 V2000
   -6.7852   -3.7342   -1.0426 C   0  0  0  0  0  0  0  0  0  0  0  0
   -6.1129   -4.6794   -0.3552 C   0  0  0  0  0  0  0  0  0  0  0  0
   -4.7072   -4.5182    0.0232 C   0  0  0  0  0  0  0  0  0  0  0  0
   -3.7969   -4.0775   -0.7288 O   0  0  0  0  0  0  0  0  0  0  0  0
   -4.5510   -4.8471    1.4184 C   0  0  0  0  0  0  0  0  0  0  0  0
   -3.4282   -4.5655    2.2296 C   0  0  0  0  0  0  0  0  0  0  0  0
   -3.6599   -4.7729    3.5797 C   0  0  0  0  0  0  0  0  0  0  0  0
   -4.9159   -5.2251    4.1131 C   0  0  0  0  0  0  0  0  0  0  0  0
   -6.0104   -5.5179    3.3161 C   0  0  0  0  0  0  0  0  0  0  0  0
   -5.7943   -5.3217    1.9185 C   0  0  0  0  0  0  0  0  0  0  0  0
   -6.7555   -5.3971    0.7845 C   0  0  0  0  0  0  0  0  0  0  0  0
   -7.9027   -6.1088    0.7157 C   0  0  0  0  0  0  0  0  0  0  0  0
   -8.4670   -6.4403   -0.5718 C   0  0  0  0  0  0  0  0  0  0  0  0
   -8.8521   -6.7531   -1.6123 N   0  0  0  0  0  0  0  0  0  0  0  0
   -8.5232   -6.7089    1.8689 C   0  0  0  0  0  0  0  0  0  0  0  0
   -9.0524   -7.1730    2.7824 N   0  0  0  0  0  0  0  0  0  0  0  0
   -4.3830   -5.1113    5.5112 C   0  0  0  0  0  0  0  0  0  0  0  0
   -4.0209   -6.4364    6.2423 C   0  0  0  0  0  0  0  0  0  0  0  0
   -3.1433   -6.0364    7.4085 C   0  0  0  0  0  0  0  0  0  0  0  0
   -1.9690   -5.6441    6.8877 C   0  0  0  0  0  0  0  0  0  0  0  0
   -2.1028   -5.7782    5.3958 C   0  0  0  0  0  0  0  0  0  0  0  0
   -2.9534   -7.0425    5.3446 C   0  0  0  0  0  0  0  0  0  0  0  0
   -3.0971   -4.6599    4.9610 C   0  0  0  0  0  0  0  0  0  0  0  0
   -6.3524   -2.3293   -0.9572 C   0  0  0  0  0  0  0  0  0  0  0  0
   -5.9848   -1.5764    0.5164 S   0  0  0  0  0  0  0  0  0  0  0  0
   -5.3623   -0.1973   -0.1840 C   0  0  0  0  0  0  0  0  0  0  0  0
   -4.2228    0.5848    0.2114 C   0  0  0  0  0  0  0  0  0  0  0  0
   -3.5338    0.9708   -0.9301 C   0  0  0  0  0  0  0  0  0  0  0  0
   -4.3414    0.5971   -2.1900 C   0  0  0  0  0  0  0  0  0  0  0  0
   -5.3672   -0.3189   -1.5443 C   0  0  0  0  0  0  0  0  0  0  0  0
   -5.9483   -1.5153   -2.0085 C   0  0  0  0  0  0  0  0  0  0  0  0
   -3.4857   -0.1789   -3.2046 C   0  0  0  0  0  0  0  0  0  0  0  0
   -2.8154   -1.3539   -2.7953 C   0  0  0  0  0  0  0  0  0  0  0  0
   -2.0366   -2.0850   -3.6923 C   0  0  0  0  0  0  0  0  0  0  0  0
   -1.8798   -1.6509   -5.0130 C   0  0  0  0  0  0  0  0  0  0  0  0
   -1.0850   -2.4214   -5.8698 O   0  0  0  0  0  0  0  0  0  0  0  0
   -0.9459   -2.2012   -7.2690 C   0  0  0  0  0  0  0  0  0  0  0  0
   -0.0510   -3.2731   -7.8724 C   0  0  0  0  0  0  0  0  0  0  0  0
   -2.5153   -0.4693   -5.4275 C   0  0  0  0  0  0  0  0  0  0  0  0
   -3.3019    0.2632   -4.5328 C   0  0  0  0  0  0  0  0  0  0  0  0
   -5.1100    1.8113   -2.7486 C   0  0  0  0  0  0  0  0  0  0  0  0
   -4.9720    3.1065   -2.2039 C   0  0  0  0  0  0  0  0  0  0  0  0
   -5.8762    4.1230   -2.5262 C   0  0  0  0  0  0  0  0  0  0  0  0
   -6.9189    3.8859   -3.4365 C   0  0  0  0  0  0  0  0  0  0  0  0
   -7.8989    4.8516   -3.7303 O   0  0  0  0  0  0  0  0  0  0  0  0
   -8.1565    6.0186   -2.9413 C   0  0  0  0  0  0  0  0  0  0  0  0
   -7.3027    7.1938   -3.4108 C   0  0  0  0  0  0  0  0  0  0  0  0
   -7.0043    2.6353   -4.0629 C   0  0  0  0  0  0  0  0  0  0  0  0
   -6.1213    1.6081   -3.7123 C   0  0  0  0  0  0  0  0  0  0  0  0
   -2.2411    1.5317   -0.8126 C   0  0  0  0  0  0  0  0  0  0  0  0
   -1.4557    1.8707   -1.9251 C   0  0  0  0  0  0  0  0  0  0  0  0
   -0.0931    2.1541   -1.7708 C   0  0  0  0  0  0  0  0  0  0  0  0
    0.7334    2.2504   -2.9138 C   0  0  0  0  0  0  0  0  0  0  0  0
    2.1183    2.3723   -2.7744 C   0  0  0  0  0  0  0  0  0  0  0  0
    2.6558    2.4414   -1.4918 C   0  0  0  0  0  0  0  0  0  0  0  0
    4.0367    2.3639   -1.1016 C   0  0  0  0  0  0  0  0  0  0  0  0
    4.1186    2.2579    0.2549 C   0  0  0  0  0  0  0  0  0  0  0  0
    2.7571    2.3606    0.9145 C   0  0  0  0  0  0  0  0  0  0  0  0
    2.7595    3.6690    1.7162 C   0  0  0  0  0  0  0  0  0  0  0  0
    3.6580    3.8172    2.7966 C   0  0  0  0  0  0  0  0  0  0  0  0
    3.7457    5.0161    3.5070 C   0  0  0  0  0  0  0  0  0  0  0  0
    2.9477    6.1127    3.1375 C   0  0  0  0  0  0  0  0  0  0  0  0
    3.0184    7.3562    3.7897 O   0  0  0  0  0  0  0  0  0  0  0  0
    4.0353    7.7457    4.7143 C   0  0  0  0  0  0  0  0  0  0  0  0
    5.3802    7.9403    4.0129 C   0  0  0  0  0  0  0  0  0  0  0  0
    2.0396    5.9703    2.0837 C   0  0  0  0  0  0  0  0  0  0  0  0
    1.9444    4.7711    1.3803 C   0  0  0  0  0  0  0  0  0  0  0  0
    2.4657    1.1044    1.7527 C   0  0  0  0  0  0  0  0  0  0  0  0
    2.7172   -0.1732    1.2129 C   0  0  0  0  0  0  0  0  0  0  0  0
    2.5389   -1.3258    1.9857 C   0  0  0  0  0  0  0  0  0  0  0  0
    2.0589   -1.2319    3.3006 C   0  0  0  0  0  0  0  0  0  0  0  0
    1.8952   -2.3531    4.1292 O   0  0  0  0  0  0  0  0  0  0  0  0
    2.2962   -3.6754    3.7816 C   0  0  0  0  0  0  0  0  0  0  0  0
    1.9596   -4.6241    4.9171 C   0  0  0  0  0  0  0  0  0  0  0  0
    1.7320    0.0228    3.8144 C   0  0  0  0  0  0  0  0  0  0  0  0
    1.9352    1.1763    3.0597 C   0  0  0  0  0  0  0  0  0  0  0  0
    1.8733    2.4003   -0.3475 C   0  0  0  0  0  0  0  0  0  0  0  0
    0.4732    2.2518   -0.4669 C   0  0  0  0  0  0  0  0  0  0  0  0
   -0.3732    2.1263    0.6498 C   0  0  0  0  0  0  0  0  0  0  0  0
   -1.6980    1.7000    0.4922 C   0  0  0  0  0  0  0  0  0  0  0  0
   -2.4596    1.3586    1.6329 C   0  0  0  0  0  0  0  0  0  0  0  0
   -3.7126    0.7641    1.4909 C   0  0  0  0  0  0  0  0  0  0  0  0
    5.2903    1.6462    0.7091 C   0  0  0  0  0  0  0  0  0  0  0  0
    6.1248    1.2585   -0.3422 C   0  0  0  0  0  0  0  0  0  0  0  0
    5.3410    1.5842   -1.8137 S   0  0  0  0  0  0  0  0  0  0  0  0
    7.2245    0.2954   -0.1590 C   0  0  0  0  0  0  0  0  0  0  0  0
    8.3111    0.1888   -0.9476 C   0  0  0  0  0  0  0  0  0  0  0  0
    8.8114    1.2176   -1.8693 C   0  0  0  0  0  0  0  0  0  0  0  0
    8.2039    2.2583   -2.2403 O   0  0  0  0  0  0  0  0  0  0  0  0
   10.1897    0.9073   -2.1949 C   0  0  0  0  0  0  0  0  0  0  0  0
   11.1014    1.6730   -2.9211 C   0  0  0  0  0  0  0  0  0  0  0  0
   10.7227    2.8285   -3.5339 F   0  0  0  0  0  0  0  0  0  0  0  0
   12.4330    1.2369   -2.9986 C   0  0  0  0  0  0  0  0  0  0  0  0
   12.8344    0.0650   -2.3283 C   0  0  0  0  0  0  0  0  0  0  0  0
   11.9071   -0.6880   -1.5903 C   0  0  0  0  0  0  0  0  0  0  0  0
   10.5669   -0.2613   -1.5475 C   0  0  0  0  0  0  0  0  0  0  0  0
    9.4005   -0.8264   -0.8136 C   0  0  0  0  0  0  0  0  0  0  0  0
    9.2726   -2.0983   -0.3455 C   0  0  0  0  0  0  0  0  0  0  0  0
    8.0203   -2.6122    0.1551 C   0  0  0  0  0  0  0  0  0  0  0  0
    7.0205   -3.0312    0.5721 N   0  0  0  0  0  0  0  0  0  0  0  0
   10.3221   -3.0735   -0.4489 C   0  0  0  0  0  0  0  0  0  0  0  0
   11.1518   -3.8778   -0.5338 N   0  0  0  0  0  0  0  0  0  0  0  0
   -7.8445   -3.8672   -1.2314 H   0  0  0  0  0  0  0  0  0  0  0  0
   -2.4961   -4.1695    1.8446 H   0  0  0  0  0  0  0  0  0  0  0  0
   -6.9553   -5.7985    3.7507 H   0  0  0  0  0  0  0  0  0  0  0  0
   -4.9064   -4.3405    6.1297 H   0  0  0  0  0  0  0  0  0  0  0  0
   -4.8764   -7.0988    6.4955 H   0  0  0  0  0  0  0  0  0  0  0  0
   -3.3628   -6.1434    8.4605 H   0  0  0  0  0  0  0  0  0  0  0  0
   -1.0847   -5.3672    7.4516 H   0  0  0  0  0  0  0  0  0  0  0  0
   -1.1482   -5.8188    4.8290 H   0  0  0  0  0  0  0  0  0  0  0  0
   -3.3092   -7.3073    4.3229 H   0  0  0  0  0  0  0  0  0  0  0  0
   -2.4467   -7.9323    5.8007 H   0  0  0  0  0  0  0  0  0  0  0  0
   -2.8075   -3.6172    5.2341 H   0  0  0  0  0  0  0  0  0  0  0  0
   -5.9485   -1.8193   -3.0478 H   0  0  0  0  0  0  0  0  0  0  0  0
   -2.9116   -1.7089   -1.7772 H   0  0  0  0  0  0  0  0  0  0  0  0
   -1.5372   -2.9812   -3.3527 H   0  0  0  0  0  0  0  0  0  0  0  0
   -0.4957   -1.2033   -7.4534 H   0  0  0  0  0  0  0  0  0  0  0  0
   -1.9491   -2.2396   -7.7555 H   0  0  0  0  0  0  0  0  0  0  0  0
   -0.4358   -4.2752   -7.6028 H   0  0  0  0  0  0  0  0  0  0  0  0
   -0.0309   -3.1791   -8.9764 H   0  0  0  0  0  0  0  0  0  0  0  0
    0.9779   -3.1673   -7.4710 H   0  0  0  0  0  0  0  0  0  0  0  0
   -2.4006   -0.0926   -6.4348 H   0  0  0  0  0  0  0  0  0  0  0  0
   -3.7489    1.1848   -4.8813 H   0  0  0  0  0  0  0  0  0  0  0  0
   -4.2162    3.3381   -1.4679 H   0  0  0  0  0  0  0  0  0  0  0  0
   -5.7536    5.0833   -2.0438 H   0  0  0  0  0  0  0  0  0  0  0  0
   -9.2230    6.2972   -3.0574 H   0  0  0  0  0  0  0  0  0  0  0  0
   -7.9945    5.8108   -1.8641 H   0  0  0  0  0  0  0  0  0  0  0  0
   -6.2331    6.9046   -3.4616 H   0  0  0  0  0  0  0  0  0  0  0  0
   -7.6278    7.5318   -4.4174 H   0  0  0  0  0  0  0  0  0  0  0  0
   -7.4134    8.0353   -2.6902 H   0  0  0  0  0  0  0  0  0  0  0  0
   -7.7833    2.4480   -4.7896 H   0  0  0  0  0  0  0  0  0  0  0  0
   -6.2618    0.6272   -4.1528 H   0  0  0  0  0  0  0  0  0  0  0  0
   -1.8693    1.8288   -2.9230 H   0  0  0  0  0  0  0  0  0  0  0  0
    0.3058    2.1830   -3.9084 H   0  0  0  0  0  0  0  0  0  0  0  0
    2.7562    2.3633   -3.6478 H   0  0  0  0  0  0  0  0  0  0  0  0
    4.2898    2.9880    3.0961 H   0  0  0  0  0  0  0  0  0  0  0  0
    4.4389    5.0680    4.3358 H   0  0  0  0  0  0  0  0  0  0  0  0
    3.7385    8.7122    5.1720 H   0  0  0  0  0  0  0  0  0  0  0  0
    4.1294    7.0068    5.5420 H   0  0  0  0  0  0  0  0  0  0  0  0
    5.2565    8.6078    3.1381 H   0  0  0  0  0  0  0  0  0  0  0  0
    6.1122    8.3915    4.7126 H   0  0  0  0  0  0  0  0  0  0  0  0
    5.7868    6.9650    3.6626 H   0  0  0  0  0  0  0  0  0  0  0  0
    1.4133    6.8071    1.8005 H   0  0  0  0  0  0  0  0  0  0  0  0
    1.2472    4.7261    0.5570 H   0  0  0  0  0  0  0  0  0  0  0  0
    3.0755   -0.2802    0.1931 H   0  0  0  0  0  0  0  0  0  0  0  0
    2.7817   -2.2819    1.5493 H   0  0  0  0  0  0  0  0  0  0  0  0
    3.3912   -3.6988    3.5999 H   0  0  0  0  0  0  0  0  0  0  0  0
    1.7582   -4.0070    2.8646 H   0  0  0  0  0  0  0  0  0  0  0  0
    0.8727   -4.5734    5.1441 H   0  0  0  0  0  0  0  0  0  0  0  0
    2.2210   -5.6640    4.6240 H   0  0  0  0  0  0  0  0  0  0  0  0
    2.5335   -4.3504    5.8275 H   0  0  0  0  0  0  0  0  0  0  0  0
    1.3379    0.1059    4.8255 H   0  0  0  0  0  0  0  0  0  0  0  0
    1.6633    2.1215    3.5056 H   0  0  0  0  0  0  0  0  0  0  0  0
    0.0148    2.2928    1.6448 H   0  0  0  0  0  0  0  0  0  0  0  0
   -2.0432    1.4790    2.6273 H   0  0  0  0  0  0  0  0  0  0  0  0
   -4.2610    0.4234    2.3611 H   0  0  0  0  0  0  0  0  0  0  0  0
    5.4485    1.3605    1.7396 H   0  0  0  0  0  0  0  0  0  0  0  0
    7.1439   -0.3182    0.7140 H   0  0  0  0  0  0  0  0  0  0  0  0
   13.1577    1.8095   -3.5614 H   0  0  0  0  0  0  0  0  0  0  0  0
   13.8677   -0.2471   -2.3742 H   0  0  0  0  0  0  0  0  0  0  0  0
   12.2599   -1.5448   -1.0342 H   0  0  0  0  0  0  0  0  0  0  0  0
  1  2  2  3
  2  3  1  0
  3  4  2  0
  3  5  1  0
  5  6  2  0
  6  7  1  0
  7  8  2  0
  8  9  1  0
  9 10  2  0
 10 11  1  0
 11 12  2  3
 12 13  1  0
 13 14  3  0
 12 15  1  0
 15 16  3  0
  8 17  1  0
 17 18  1  0
 18 19  1  0
 19 20  2  0
 20 21  1  0
 21 22  1  0
 21 23  1  0
  1 24  1  0
 24 25  1  0
 25 26  1  0
 26 27  1  0
 27 28  2  0
 28 29  1  0
 29 30  1  0
 30 31  1  0
 29 32  1  0
 32 33  2  0
 33 34  1  0
 34 35  2  0
 35 36  1  0
 36 37  1  0
 37 38  1  0
 35 39  1  0
 39 40  2  0
 29 41  1  0
 41 42  2  0
 42 43  1  0
 43 44  2  0
 44 45  1  0
 45 46  1  0
 46 47  1  0
 44 48  1  0
 48 49  2  0
 28 50  1  0
 50 51  2  0
 51 52  1  0
 52 53  2  0
 53 54  1  0
 54 55  2  0
 55 56  1  0
 56 57  2  0
 57 58  1  0
 58 59  1  0
 59 60  2  0
 60 61  1  0
 61 62  2  0
 62 63  1  0
 63 64  1  0
 64 65  1  0
 62 66  1  0
 66 67  2  0
 58 68  1  0
 68 69  2  0
 69 70  1  0
 70 71  2  0
 71 72  1  0
 72 73  1  0
 73 74  1  0
 71 75  1  0
 75 76  2  0
 58 77  1  0
 77 78  2  0
 78 79  1  0
 79 80  2  0
 80 81  1  0
 81 82  2  0
 57 83  1  0
 83 84  2  0
 84 85  1  0
 84 86  1  0
 86 87  2  3
 87 88  1  0
 88 89  2  0
 88 90  1  0
 90 91  2  0
 91 92  1  0
 91 93  1  0
 93 94  2  0
 94 95  1  0
 95 96  2  0
 96 97  1  0
 97 98  2  3
 98 99  1  0
 99100  3  0
 98101  1  0
101102  3  0
 11  2  1  0
 23 17  1  0
 31 24  2  0
 40 32  1  0
 49 41  1  0
 80 50  1  0
 97 87  1  0
 10  5  1  0
 22 18  1  0
 30 26  2  0
 78 52  1  0
 96 90  1  0
 23  7  1  0
 82 27  1  0
 77 55  1  0
 85 56  1  0
 67 59  1  0
 76 68  1  0
  1103  1  0
  6104  1  0
  9105  1  0
 17106  1  0
 18107  1  0
 19108  1  0
 20109  1  0
 21110  1  0
 22111  1  0
 22112  1  0
 23113  1  0
 31114  1  0
 33115  1  0
 34116  1  0
 37117  1  0
 37118  1  0
 38119  1  0
 38120  1  0
 38121  1  0
 39122  1  0
 40123  1  0
 42124  1  0
 43125  1  0
 46126  1  0
 46127  1  0
 47128  1  0
 47129  1  0
 47130  1  0
 48131  1  0
 49132  1  0
 51133  1  0
 53134  1  0
 54135  1  0
 60136  1  0
 61137  1  0
 64138  1  0
 64139  1  0
 65140  1  0
 65141  1  0
 65142  1  0
 66143  1  0
 67144  1  0
 69145  1  0
 70146  1  0
 73147  1  0
 73148  1  0
 74149  1  0
 74150  1  0
 74151  1  0
 75152  1  0
 76153  1  0
 79154  1  0
 81155  1  0
 82156  1  0
 83157  1  0
 86158  1  0
 93159  1  0
 94160  1  0
 95161  1  0
M  END

