
     RDKit          3D

104117  0  0  0  0  0  0  0  0999 V2000
   -1.6364    5.2958   -1.9330 C   0  0  0  0  0  0  0  0  0  0  0  0
   -2.6363    4.5896   -2.4936 C   0  0  0  0  0  0  0  0  0  0  0  0
   -2.9404    3.1808   -2.2023 C   0  0  0  0  0  0  0  0  0  0  0  0
   -2.1540    2.3342   -1.7006 O   0  0  0  0  0  0  0  0  0  0  0  0
   -4.3047    2.9136   -2.5868 C   0  0  0  0  0  0  0  0  0  0  0  0
   -5.0434    1.7405   -2.3190 C   0  0  0  0  0  0  0  0  0  0  0  0
   -6.3761    1.8330   -2.6643 C   0  0  0  0  0  0  0  0  0  0  0  0
   -6.9603    3.0057   -3.2458 C   0  0  0  0  0  0  0  0  0  0  0  0
   -6.2370    4.1591   -3.5168 C   0  0  0  0  0  0  0  0  0  0  0  0
   -4.8543    4.0815   -3.1801 C   0  0  0  0  0  0  0  0  0  0  0  0
   -3.7939    5.1270   -3.2700 C   0  0  0  0  0  0  0  0  0  0  0  0
   -3.7865    6.2064   -4.0919 C   0  0  0  0  0  0  0  0  0  0  0  0
   -4.9080    6.5439   -4.9337 C   0  0  0  0  0  0  0  0  0  0  0  0
   -5.7978    6.8259   -5.6172 N   0  0  0  0  0  0  0  0  0  0  0  0
   -2.6030    7.0002   -4.3043 C   0  0  0  0  0  0  0  0  0  0  0  0
   -1.6579    7.6436   -4.4852 N   0  0  0  0  0  0  0  0  0  0  0  0
   -8.3131    2.3517   -3.2455 C   0  0  0  0  0  0  0  0  0  0  0  0
   -9.3160    2.8341   -2.1541 C   0  0  0  0  0  0  0  0  0  0  0  0
  -10.3999    1.7819   -2.0960 C   0  0  0  0  0  0  0  0  0  0  0  0
   -9.8425    0.6928   -1.5504 C   0  0  0  0  0  0  0  0  0  0  0  0
   -8.4032    1.0487   -1.2602 C   0  0  0  0  0  0  0  0  0  0  0  0
   -8.5966    2.5013   -0.8552 C   0  0  0  0  0  0  0  0  0  0  0  0
   -7.7084    1.1538   -2.6486 C   0  0  0  0  0  0  0  0  0  0  0  0
   -0.6718    4.6724   -1.0132 C   0  0  0  0  0  0  0  0  0  0  0  0
   -1.0723    4.2805    0.5937 S   0  0  0  0  0  0  0  0  0  0  0  0
    0.2727    3.3102    0.7503 C   0  0  0  0  0  0  0  0  0  0  0  0
    0.8534    2.5548    1.7114 C   0  0  0  0  0  0  0  0  0  0  0  0
    0.5369    2.4029    3.0607 C   0  0  0  0  0  0  0  0  0  0  0  0
    1.3846    1.6027    3.8698 C   0  0  0  0  0  0  0  0  0  0  0  0
    1.0420    1.4709    5.1738 N   0  0  0  0  0  0  0  0  0  0  0  0
   -0.3195    2.4113    5.2064 S   0  0  0  0  0  0  0  0  0  0  0  0
   -0.5317    2.9811    3.6669 N   0  0  0  0  0  0  0  0  0  0  0  0
    2.4795    0.9633    3.2770 C   0  0  0  0  0  0  0  0  0  0  0  0
    3.1898   -0.1086    3.7420 C   0  0  0  0  0  0  0  0  0  0  0  0
    2.9132   -1.2308    4.9882 S   0  0  0  0  0  0  0  0  0  0  0  0
    3.6815   -2.4692    4.1208 C   0  0  0  0  0  0  0  0  0  0  0  0
    3.7219   -3.8547    4.2961 C   0  0  0  0  0  0  0  0  0  0  0  0
    3.2617   -4.5623    5.5398 C   0  0  0  0  0  0  0  0  0  0  0  0
    4.4054   -4.7031    6.5381 C   0  0  0  0  0  0  0  0  0  0  0  0
    4.1815   -4.4920    3.1311 C   0  0  0  0  0  0  0  0  0  0  0  0
    4.5468   -3.3248    1.9466 S   0  0  0  0  0  0  0  0  0  0  0  0
    4.0899   -2.0197    2.8903 C   0  0  0  0  0  0  0  0  0  0  0  0
    3.8028   -0.6712    2.6653 C   0  0  0  0  0  0  0  0  0  0  0  0
    3.5678    0.0156    1.5151 N   0  0  0  0  0  0  0  0  0  0  0  0
    2.7689    1.0718    1.8990 C   0  0  0  0  0  0  0  0  0  0  0  0
    1.9795    1.9753    1.1111 C   0  0  0  0  0  0  0  0  0  0  0  0
    2.1429    2.4687   -0.1727 N   0  0  0  0  0  0  0  0  0  0  0  0
    1.0431    3.2665   -0.3552 C   0  0  0  0  0  0  0  0  0  0  0  0
    0.5513    4.0831   -1.3985 C   0  0  0  0  0  0  0  0  0  0  0  0
    1.1181    4.2559   -2.7809 C   0  0  0  0  0  0  0  0  0  0  0  0
    0.6584    3.1353   -3.7128 C   0  0  0  0  0  0  0  0  0  0  0  0
    3.4221    2.6334   -0.8810 C   0  0  0  0  0  0  0  0  0  0  0  0
    3.4718    1.8560   -2.2067 C   0  0  0  0  0  0  0  0  0  0  0  0
    3.7265   -0.5745    0.1812 C   0  0  0  0  0  0  0  0  0  0  0  0
    2.4258   -1.2136   -0.3005 C   0  0  0  0  0  0  0  0  0  0  0  0
    4.3217   -5.9459    2.9416 C   0  0  0  0  0  0  0  0  0  0  0  0
    3.8174   -6.6118    1.8846 C   0  0  0  0  0  0  0  0  0  0  0  0
    3.0367   -6.0240    0.7777 C   0  0  0  0  0  0  0  0  0  0  0  0
    2.3550   -4.9670    0.8091 O   0  0  0  0  0  0  0  0  0  0  0  0
    3.0745   -6.9538   -0.3225 C   0  0  0  0  0  0  0  0  0  0  0  0
    3.7284   -8.0980    0.0529 C   0  0  0  0  0  0  0  0  0  0  0  0
    3.8679   -9.0394   -0.9639 C   0  0  0  0  0  0  0  0  0  0  0  0
    3.1367   -8.3619   -2.3372 S   0  0  0  0  0  0  0  0  0  0  0  0
    2.6500   -6.9043   -1.6381 C   0  0  0  0  0  0  0  0  0  0  0  0
    1.8438   -5.5795   -2.4572 Cl  0  0  0  0  0  0  0  0  0  0  0  0
    4.1381   -8.0185    1.4754 C   0  0  0  0  0  0  0  0  0  0  0  0
    4.4941   -9.0602    2.2655 C   0  0  0  0  0  0  0  0  0  0  0  0
    4.6778  -10.3871    1.7344 C   0  0  0  0  0  0  0  0  0  0  0  0
    4.8299  -11.4562    1.3145 N   0  0  0  0  0  0  0  0  0  0  0  0
    4.5459   -8.9443    3.6990 C   0  0  0  0  0  0  0  0  0  0  0  0
    4.5773   -8.8583    4.8571 N   0  0  0  0  0  0  0  0  0  0  0  0
   -1.5737    6.3664   -2.0545 H   0  0  0  0  0  0  0  0  0  0  0  0
   -4.6251    0.8725   -1.8300 H   0  0  0  0  0  0  0  0  0  0  0  0
   -6.7275    5.0444   -3.8885 H   0  0  0  0  0  0  0  0  0  0  0  0
   -8.7388    2.2001   -4.2659 H   0  0  0  0  0  0  0  0  0  0  0  0
   -9.6718    3.8802   -2.2610 H   0  0  0  0  0  0  0  0  0  0  0  0
  -11.4513    1.9077   -2.3440 H   0  0  0  0  0  0  0  0  0  0  0  0
  -10.3655   -0.2183   -1.2769 H   0  0  0  0  0  0  0  0  0  0  0  0
   -7.8961    0.3996   -0.5174 H   0  0  0  0  0  0  0  0  0  0  0  0
   -7.6494    3.0618   -0.7011 H   0  0  0  0  0  0  0  0  0  0  0  0
   -9.2425    2.6267    0.0477 H   0  0  0  0  0  0  0  0  0  0  0  0
   -7.7484    0.2396   -3.2827 H   0  0  0  0  0  0  0  0  0  0  0  0
    2.4287   -3.9960    6.0086 H   0  0  0  0  0  0  0  0  0  0  0  0
    2.8701   -5.5707    5.2839 H   0  0  0  0  0  0  0  0  0  0  0  0
    4.0377   -5.2178    7.4517 H   0  0  0  0  0  0  0  0  0  0  0  0
    4.7850   -3.6975    6.8246 H   0  0  0  0  0  0  0  0  0  0  0  0
    5.2302   -5.3023    6.0932 H   0  0  0  0  0  0  0  0  0  0  0  0
    0.7739    5.2227   -3.2091 H   0  0  0  0  0  0  0  0  0  0  0  0
    2.2166    4.3421   -2.7455 H   0  0  0  0  0  0  0  0  0  0  0  0
   -0.4265    3.2447   -3.9361 H   0  0  0  0  0  0  0  0  0  0  0  0
    1.2274    3.1897   -4.6688 H   0  0  0  0  0  0  0  0  0  0  0  0
    0.8277    2.1375   -3.2524 H   0  0  0  0  0  0  0  0  0  0  0  0
    3.6114    3.7124   -1.0655 H   0  0  0  0  0  0  0  0  0  0  0  0
    4.2597    2.3215   -0.2247 H   0  0  0  0  0  0  0  0  0  0  0  0
    2.7428    1.0197   -2.2140 H   0  0  0  0  0  0  0  0  0  0  0  0
    3.2873    2.5071   -3.0791 H   0  0  0  0  0  0  0  0  0  0  0  0
    4.4917    1.4458   -2.3555 H   0  0  0  0  0  0  0  0  0  0  0  0
    4.1025    0.1565   -0.5214 H   0  0  0  0  0  0  0  0  0  0  0  0
    4.5332   -1.3319    0.1830 H   0  0  0  0  0  0  0  0  0  0  0  0
    2.1306   -2.0316    0.3882 H   0  0  0  0  0  0  0  0  0  0  0  0
    2.5726   -1.6441   -1.3124 H   0  0  0  0  0  0  0  0  0  0  0  0
    1.6129   -0.4625   -0.3412 H   0  0  0  0  0  0  0  0  0  0  0  0
    4.9173   -6.4553    3.6776 H   0  0  0  0  0  0  0  0  0  0  0  0
    4.3634   -9.9958   -0.9220 H   0  0  0  0  0  0  0  0  0  0  0  0
  1  2  2  3
  2  3  1  0
  3  4  2  0
  3  5  1  0
  5  6  2  0
  6  7  1  0
  7  8  2  0
  8  9  1  0
  9 10  2  0
 10 11  1  0
 11 12  2  3
 12 13  1  0
 13 14  3  0
 12 15  1  0
 15 16  3  0
  8 17  1  0
 17 18  1  0
 18 19  1  0
 19 20  2  0
 20 21  1  0
 21 22  1  0
 21 23  1  0
  1 24  1  0
 24 25  1  0
 25 26  1  0
 26 27  1  0
 27 28  1  0
 28 29  1  0
 29 30  2  0
 30 31  1  0
 31 32  1  0
 29 33  1  0
 33 34  1  0
 34 35  1  0
 35 36  1  0
 36 37  1  0
 37 38  1  0
 38 39  1  0
 37 40  2  0
 40 41  1  0
 41 42  1  0
 42 43  1  0
 43 44  1  0
 44 45  1  0
 45 46  1  0
 46 47  1  0
 47 48  1  0
 48 49  1  0
 49 50  1  0
 50 51  1  0
 47 52  1  0
 52 53  1  0
 44 54  1  0
 54 55  1  0
 40 56  1  0
 56 57  2  3
 57 58  1  0
 58 59  2  0
 58 60  1  0
 60 61  1  0
 61 62  2  0
 62 63  1  0
 63 64  1  0
 64 65  1  0
 61 66  1  0
 66 67  2  3
 67 68  1  0
 68 69  3  0
 67 70  1  0
 70 71  3  0
 11  2  1  0
 23 17  1  0
 49 24  2  0
 66 57  1  0
 10  5  1  0
 22 18  1  0
 48 26  2  0
 64 60  2  0
 23  7  1  0
 46 27  2  0
 32 28  2  0
 45 33  2  0
 43 34  2  0
 42 36  2  0
  1 72  1  0
  6 73  1  0
  9 74  1  0
 17 75  1  0
 18 76  1  0
 19 77  1  0
 20 78  1  0
 21 79  1  0
 22 80  1  0
 22 81  1  0
 23 82  1  0
 38 83  1  0
 38 84  1  0
 39 85  1  0
 39 86  1  0
 39 87  1  0
 50 88  1  0
 50 89  1  0
 51 90  1  0
 51 91  1  0
 51 92  1  0
 52 93  1  0
 52 94  1  0
 53 95  1  0
 53 96  1  0
 53 97  1  0
 54 98  1  0
 54 99  1  0
 55100  1  0
 55101  1  0
 55102  1  0
 56103  1  0
 62104  1  0
M  END

