
     RDKit          3D

127143  0  0  0  0  0  0  0  0999 V2000
   -5.0001    5.1573    3.6112 C   0  0  0  0  0  0  0  0  0  0  0  0
   -5.7692    5.5468    2.5790 C   0  0  0  0  0  0  0  0  0  0  0  0
   -5.8143    6.9354    2.1156 C   0  0  0  0  0  0  0  0  0  0  0  0
   -5.5555    7.9540    2.8105 O   0  0  0  0  0  0  0  0  0  0  0  0
   -6.0434    6.9321    0.6789 C   0  0  0  0  0  0  0  0  0  0  0  0
   -5.8634    8.0084   -0.2219 C   0  0  0  0  0  0  0  0  0  0  0  0
   -5.8688    7.6293   -1.5547 C   0  0  0  0  0  0  0  0  0  0  0  0
   -6.0380    6.2719   -1.9823 C   0  0  0  0  0  0  0  0  0  0  0  0
   -6.2315    5.2162   -1.1087 C   0  0  0  0  0  0  0  0  0  0  0  0
   -6.2535    5.5920    0.2608 C   0  0  0  0  0  0  0  0  0  0  0  0
   -6.2671    4.7141    1.4496 C   0  0  0  0  0  0  0  0  0  0  0  0
   -6.9314    3.5400    1.5641 C   0  0  0  0  0  0  0  0  0  0  0  0
   -7.6193    2.9393    0.4500 C   0  0  0  0  0  0  0  0  0  0  0  0
   -8.1838    2.4592   -0.4381 N   0  0  0  0  0  0  0  0  0  0  0  0
   -7.1142    2.9037    2.8450 C   0  0  0  0  0  0  0  0  0  0  0  0
   -7.2598    2.3895    3.8712 N   0  0  0  0  0  0  0  0  0  0  0  0
   -5.8111    6.6715   -3.4083 C   0  0  0  0  0  0  0  0  0  0  0  0
   -4.4278    6.3321   -4.0443 C   0  0  0  0  0  0  0  0  0  0  0  0
   -3.3451    6.3507   -2.9863 C   0  0  0  0  0  0  0  0  0  0  0  0
   -3.2089    7.6210   -2.6033 C   0  0  0  0  0  0  0  0  0  0  0  0
   -4.2035    8.4238   -3.4083 C   0  0  0  0  0  0  0  0  0  0  0  0
   -4.1216    7.6584   -4.7170 C   0  0  0  0  0  0  0  0  0  0  0  0
   -5.6577    8.0658   -2.9748 C   0  0  0  0  0  0  0  0  0  0  0  0
   -4.2876    3.8600    3.6602 C   0  0  0  0  0  0  0  0  0  0  0  0
   -3.7128    3.2749    4.8138 C   0  0  0  0  0  0  0  0  0  0  0  0
   -3.9018    3.7822    6.1917 C   0  0  0  0  0  0  0  0  0  0  0  0
   -5.1837    4.1371    6.6449 C   0  0  0  0  0  0  0  0  0  0  0  0
   -5.3629    4.6545    7.9306 C   0  0  0  0  0  0  0  0  0  0  0  0
   -4.2618    4.8382    8.7795 C   0  0  0  0  0  0  0  0  0  0  0  0
   -4.4487    5.4102   10.1588 C   0  0  0  0  0  0  0  0  0  0  0  0
   -4.4871    4.3040   11.2097 C   0  0  0  0  0  0  0  0  0  0  0  0
   -2.9834    4.4620    8.3388 C   0  0  0  0  0  0  0  0  0  0  0  0
   -2.8041    3.9403    7.0538 C   0  0  0  0  0  0  0  0  0  0  0  0
   -2.9069    2.1779    4.4657 C   0  0  0  0  0  0  0  0  0  0  0  0
   -1.8713    1.1146    5.3230 S   0  0  0  0  0  0  0  0  0  0  0  0
   -1.4008    0.3423    3.8800 C   0  0  0  0  0  0  0  0  0  0  0  0
   -0.3940   -0.4653    3.4173 C   0  0  0  0  0  0  0  0  0  0  0  0
    0.6985   -1.0729    4.0553 C   0  0  0  0  0  0  0  0  0  0  0  0
    1.7236   -1.6659    3.2490 C   0  0  0  0  0  0  0  0  0  0  0  0
    2.7707   -2.2288    3.8999 N   0  0  0  0  0  0  0  0  0  0  0  0
    2.3241   -1.9123    5.4647 S   0  0  0  0  0  0  0  0  0  0  0  0
    0.8764   -1.1062    5.3979 N   0  0  0  0  0  0  0  0  0  0  0  0
    1.5814   -1.6424    1.8542 C   0  0  0  0  0  0  0  0  0  0  0  0
    2.3086   -2.1926    0.8319 C   0  0  0  0  0  0  0  0  0  0  0  0
    3.7236   -3.0970    0.5633 S   0  0  0  0  0  0  0  0  0  0  0  0
    3.3505   -3.2392   -1.1037 C   0  0  0  0  0  0  0  0  0  0  0  0
    4.0142   -3.7745   -2.2113 C   0  0  0  0  0  0  0  0  0  0  0  0
    5.3538   -4.3980   -2.1519 C   0  0  0  0  0  0  0  0  0  0  0  0
    5.6244   -5.4031   -1.2113 C   0  0  0  0  0  0  0  0  0  0  0  0
    6.8658   -6.0443   -1.1988 C   0  0  0  0  0  0  0  0  0  0  0  0
    7.8548   -5.6912   -2.1301 C   0  0  0  0  0  0  0  0  0  0  0  0
    9.1959   -6.3741   -2.1088 C   0  0  0  0  0  0  0  0  0  0  0  0
   10.1738   -5.6175   -1.2172 C   0  0  0  0  0  0  0  0  0  0  0  0
    7.5981   -4.6608   -3.0473 C   0  0  0  0  0  0  0  0  0  0  0  0
    6.3559   -4.0218   -3.0609 C   0  0  0  0  0  0  0  0  0  0  0  0
    3.2593   -3.5643   -3.3910 C   0  0  0  0  0  0  0  0  0  0  0  0
    1.8420   -2.6882   -3.0396 S   0  0  0  0  0  0  0  0  0  0  0  0
    2.1650   -2.6198   -1.4000 C   0  0  0  0  0  0  0  0  0  0  0  0
    1.5868   -2.0184   -0.3017 C   0  0  0  0  0  0  0  0  0  0  0  0
    0.4050   -1.3947   -0.0970 N   0  0  0  0  0  0  0  0  0  0  0  0
    0.4561   -1.0854    1.2342 C   0  0  0  0  0  0  0  0  0  0  0  0
   -0.4847   -0.3945    2.0186 C   0  0  0  0  0  0  0  0  0  0  0  0
   -1.3995    0.5394    1.6223 N   0  0  0  0  0  0  0  0  0  0  0  0
   -1.9855    0.8996    2.7884 C   0  0  0  0  0  0  0  0  0  0  0  0
   -2.8354    1.9348    3.1210 C   0  0  0  0  0  0  0  0  0  0  0  0
   -3.7269    3.0468    2.2678 S   0  0  0  0  0  0  0  0  0  0  0  0
   -1.2839    1.4295    0.4500 C   0  0  0  0  0  0  0  0  0  0  0  0
   -0.4604    2.6734    0.7829 C   0  0  0  0  0  0  0  0  0  0  0  0
   -0.8037   -1.6205   -0.9069 C   0  0  0  0  0  0  0  0  0  0  0  0
   -1.2389   -3.0848   -0.8427 C   0  0  0  0  0  0  0  0  0  0  0  0
    3.6423   -3.9308   -4.7657 C   0  0  0  0  0  0  0  0  0  0  0  0
    4.0499   -5.1582   -5.1317 C   0  0  0  0  0  0  0  0  0  0  0  0
    3.8771   -6.3894   -4.3309 C   0  0  0  0  0  0  0  0  0  0  0  0
    3.3320   -6.4967   -3.2014 O   0  0  0  0  0  0  0  0  0  0  0  0
    4.2872   -7.4860   -5.1629 C   0  0  0  0  0  0  0  0  0  0  0  0
    4.2633   -9.1568   -5.0486 S   0  0  0  0  0  0  0  0  0  0  0  0
    4.7864   -9.3513   -6.6544 C   0  0  0  0  0  0  0  0  0  0  0  0
    5.0577  -11.0373   -7.4981 Br  0  0  0  0  0  0  0  0  0  0  0  0
    4.9511   -8.1080   -7.2741 C   0  0  0  0  0  0  0  0  0  0  0  0
    4.6581   -7.0627   -6.3929 C   0  0  0  0  0  0  0  0  0  0  0  0
    4.5845   -5.5867   -6.4749 C   0  0  0  0  0  0  0  0  0  0  0  0
    5.0424   -4.8179   -7.4960 C   0  0  0  0  0  0  0  0  0  0  0  0
    5.0956   -3.3814   -7.4267 C   0  0  0  0  0  0  0  0  0  0  0  0
    5.1429   -2.2241   -7.3793 N   0  0  0  0  0  0  0  0  0  0  0  0
    5.5867   -5.3985   -8.6967 C   0  0  0  0  0  0  0  0  0  0  0  0
    6.0318   -5.8551   -9.6607 N   0  0  0  0  0  0  0  0  0  0  0  0
   -4.6870    5.9030    4.3296 H   0  0  0  0  0  0  0  0  0  0  0  0
   -5.6526    9.0213    0.0972 H   0  0  0  0  0  0  0  0  0  0  0  0
   -6.2682    4.1934   -1.4538 H   0  0  0  0  0  0  0  0  0  0  0  0
   -6.6886    6.5049   -4.0713 H   0  0  0  0  0  0  0  0  0  0  0  0
   -4.4154    5.4442   -4.7141 H   0  0  0  0  0  0  0  0  0  0  0  0
   -2.7398    5.5153   -2.6507 H   0  0  0  0  0  0  0  0  0  0  0  0
   -2.4761    7.9995   -1.8976 H   0  0  0  0  0  0  0  0  0  0  0  0
   -3.9843    9.5103   -3.4784 H   0  0  0  0  0  0  0  0  0  0  0  0
   -3.1074    7.6961   -5.1863 H   0  0  0  0  0  0  0  0  0  0  0  0
   -4.8917    7.9661   -5.4648 H   0  0  0  0  0  0  0  0  0  0  0  0
   -6.4483    8.7453   -3.3644 H   0  0  0  0  0  0  0  0  0  0  0  0
   -6.0505    4.0078    6.0072 H   0  0  0  0  0  0  0  0  0  0  0  0
   -6.3599    4.9242    8.2576 H   0  0  0  0  0  0  0  0  0  0  0  0
   -3.6158    6.1093   10.3922 H   0  0  0  0  0  0  0  0  0  0  0  0
   -5.3932    5.9942   10.2126 H   0  0  0  0  0  0  0  0  0  0  0  0
   -3.5252    3.7485   11.2236 H   0  0  0  0  0  0  0  0  0  0  0  0
   -4.6494    4.7520   12.2118 H   0  0  0  0  0  0  0  0  0  0  0  0
   -5.3180    3.5971   10.9956 H   0  0  0  0  0  0  0  0  0  0  0  0
   -2.1244    4.5824    8.9859 H   0  0  0  0  0  0  0  0  0  0  0  0
   -1.8042    3.6894    6.7219 H   0  0  0  0  0  0  0  0  0  0  0  0
    4.8632   -5.7141   -0.5069 H   0  0  0  0  0  0  0  0  0  0  0  0
    7.0496   -6.8267   -0.4728 H   0  0  0  0  0  0  0  0  0  0  0  0
    9.6101   -6.4328   -3.1402 H   0  0  0  0  0  0  0  0  0  0  0  0
    9.0884   -7.4180   -1.7367 H   0  0  0  0  0  0  0  0  0  0  0  0
   10.3413   -4.5934   -1.6136 H   0  0  0  0  0  0  0  0  0  0  0  0
   11.1467   -6.1533   -1.1930 H   0  0  0  0  0  0  0  0  0  0  0  0
    9.7781   -5.5504   -0.1811 H   0  0  0  0  0  0  0  0  0  0  0  0
    8.3579   -4.3579   -3.7583 H   0  0  0  0  0  0  0  0  0  0  0  0
    6.1790   -3.2308   -3.7797 H   0  0  0  0  0  0  0  0  0  0  0  0
   -2.2961    1.7188    0.0986 H   0  0  0  0  0  0  0  0  0  0  0  0
   -0.7672    0.9362   -0.3883 H   0  0  0  0  0  0  0  0  0  0  0  0
    0.5608    2.3868    1.1064 H   0  0  0  0  0  0  0  0  0  0  0  0
   -0.3821    3.3138   -0.1218 H   0  0  0  0  0  0  0  0  0  0  0  0
   -0.9320    3.2720    1.5899 H   0  0  0  0  0  0  0  0  0  0  0  0
   -1.6582   -1.0290   -0.5314 H   0  0  0  0  0  0  0  0  0  0  0  0
   -0.6108   -1.3311   -1.9602 H   0  0  0  0  0  0  0  0  0  0  0  0
   -2.1764   -3.2173   -1.4215 H   0  0  0  0  0  0  0  0  0  0  0  0
   -0.4637   -3.7486   -1.2738 H   0  0  0  0  0  0  0  0  0  0  0  0
   -1.4253   -3.3807    0.2126 H   0  0  0  0  0  0  0  0  0  0  0  0
    3.5317   -3.1519   -5.4993 H   0  0  0  0  0  0  0  0  0  0  0  0
    5.2402   -7.9979   -8.3082 H   0  0  0  0  0  0  0  0  0  0  0  0
  1  2  2  3
  2  3  1  0
  3  4  2  0
  3  5  1  0
  5  6  2  0
  6  7  1  0
  7  8  2  0
  8  9  1  0
  9 10  2  0
 10 11  1  0
 11 12  2  3
 12 13  1  0
 13 14  3  0
 12 15  1  0
 15 16  3  0
  8 17  1  0
 17 18  1  0
 18 19  1  0
 19 20  2  0
 20 21  1  0
 21 22  1  0
 21 23  1  0
  1 24  1  0
 24 25  2  0
 25 26  1  0
 26 27  2  0
 27 28  1  0
 28 29  2  0
 29 30  1  0
 30 31  1  0
 29 32  1  0
 32 33  2  0
 25 34  1  0
 34 35  1  0
 35 36  1  0
 36 37  1  0
 37 38  1  0
 38 39  1  0
 39 40  2  0
 40 41  1  0
 41 42  1  0
 39 43  1  0
 43 44  1  0
 44 45  1  0
 45 46  1  0
 46 47  1  0
 47 48  1  0
 48 49  2  0
 49 50  1  0
 50 51  2  0
 51 52  1  0
 52 53  1  0
 51 54  1  0
 54 55  2  0
 47 56  2  0
 56 57  1  0
 57 58  1  0
 58 59  1  0
 59 60  1  0
 60 61  1  0
 61 62  1  0
 62 63  1  0
 63 64  1  0
 64 65  1  0
 65 66  1  0
 63 67  1  0
 67 68  1  0
 60 69  1  0
 69 70  1  0
 56 71  1  0
 71 72  2  3
 72 73  1  0
 73 74  2  0
 73 75  1  0
 75 76  1  0
 76 77  1  0
 77 78  1  0
 77 79  2  0
 79 80  1  0
 80 81  1  0
 81 82  2  3
 82 83  1  0
 83 84  3  0
 82 85  1  0
 85 86  3  0
 11  2  1  0
 23 17  1  0
 66 24  1  0
 81 72  1  0
 10  5  1  0
 22 18  1  0
 33 26  1  0
 65 34  2  0
 80 75  2  0
 23  7  1  0
 64 36  2  0
 62 37  2  0
 42 38  2  0
 61 43  2  0
 59 44  2  0
 58 46  2  0
 55 48  1  0
  1 87  1  0
  6 88  1  0
  9 89  1  0
 17 90  1  0
 18 91  1  0
 19 92  1  0
 20 93  1  0
 21 94  1  0
 22 95  1  0
 22 96  1  0
 23 97  1  0
 27 98  1  0
 28 99  1  0
 30100  1  0
 30101  1  0
 31102  1  0
 31103  1  0
 31104  1  0
 32105  1  0
 33106  1  0
 49107  1  0
 50108  1  0
 52109  1  0
 52110  1  0
 53111  1  0
 53112  1  0
 53113  1  0
 54114  1  0
 55115  1  0
 67116  1  0
 67117  1  0
 68118  1  0
 68119  1  0
 68120  1  0
 69121  1  0
 69122  1  0
 70123  1  0
 70124  1  0
 70125  1  0
 71126  1  0
 79127  1  0
M  END

