
     RDKit          3D

134150  0  0  0  0  0  0  0  0999 V2000
    2.7612   -5.2413    4.2039 C   0  0  0  0  0  0  0  0  0  0  0  0
    3.7287   -5.9644    3.6119 C   0  0  0  0  0  0  0  0  0  0  0  0
    3.9230   -6.1178    2.1652 C   0  0  0  0  0  0  0  0  0  0  0  0
    3.0620   -5.9101    1.2691 O   0  0  0  0  0  0  0  0  0  0  0  0
    5.2742   -6.5803    1.9289 C   0  0  0  0  0  0  0  0  0  0  0  0
    5.9218   -6.7325    0.6810 C   0  0  0  0  0  0  0  0  0  0  0  0
    7.2604   -7.0595    0.7815 C   0  0  0  0  0  0  0  0  0  0  0  0
    7.9336   -7.2213    2.0344 C   0  0  0  0  0  0  0  0  0  0  0  0
    7.3033   -7.0874    3.2607 C   0  0  0  0  0  0  0  0  0  0  0  0
    5.9149   -6.7853    3.1785 C   0  0  0  0  0  0  0  0  0  0  0  0
    4.9317   -6.5540    4.2721 C   0  0  0  0  0  0  0  0  0  0  0  0
    5.0124   -7.0286    5.5427 C   0  0  0  0  0  0  0  0  0  0  0  0
    3.8922   -6.9970    6.4488 C   0  0  0  0  0  0  0  0  0  0  0  0
    2.9949   -6.9812    7.1799 N   0  0  0  0  0  0  0  0  0  0  0  0
    6.1583   -7.7542    6.0246 C   0  0  0  0  0  0  0  0  0  0  0  0
    7.0727   -8.3404    6.4236 N   0  0  0  0  0  0  0  0  0  0  0  0
    9.2274   -7.4922    1.3230 C   0  0  0  0  0  0  0  0  0  0  0  0
    9.7488   -8.9589    1.2898 C   0  0  0  0  0  0  0  0  0  0  0  0
    8.5841   -9.9216    1.3321 C   0  0  0  0  0  0  0  0  0  0  0  0
    7.9414   -9.7894    0.1717 C   0  0  0  0  0  0  0  0  0  0  0  0
    8.6944   -8.7464   -0.6239 C   0  0  0  0  0  0  0  0  0  0  0  0
   10.1064   -9.0797   -0.1800 C   0  0  0  0  0  0  0  0  0  0  0  0
    8.5326   -7.3459    0.0407 C   0  0  0  0  0  0  0  0  0  0  0  0
    1.7444   -4.4871    3.4596 C   0  0  0  0  0  0  0  0  0  0  0  0
    0.3480   -4.6403    3.5787 C   0  0  0  0  0  0  0  0  0  0  0  0
   -0.3379   -5.6132    4.4511 C   0  0  0  0  0  0  0  0  0  0  0  0
   -1.3134   -6.4678    3.9197 C   0  0  0  0  0  0  0  0  0  0  0  0
   -1.9638   -7.3940    4.7409 C   0  0  0  0  0  0  0  0  0  0  0  0
   -1.6395   -7.4829    6.1036 C   0  0  0  0  0  0  0  0  0  0  0  0
   -2.3479   -8.4713    6.9893 C   0  0  0  0  0  0  0  0  0  0  0  0
   -3.6594   -7.8902    7.5071 C   0  0  0  0  0  0  0  0  0  0  0  0
   -0.6860   -6.6053    6.6426 C   0  0  0  0  0  0  0  0  0  0  0  0
   -0.0383   -5.6796    5.8210 C   0  0  0  0  0  0  0  0  0  0  0  0
   -0.3174   -3.7108    2.7759 C   0  0  0  0  0  0  0  0  0  0  0  0
   -1.9560   -3.2586    2.6163 S   0  0  0  0  0  0  0  0  0  0  0  0
   -1.5351   -1.9682    1.5915 C   0  0  0  0  0  0  0  0  0  0  0  0
   -2.0903   -0.7757    1.2163 C   0  0  0  0  0  0  0  0  0  0  0  0
   -3.3538   -0.2203    1.4690 C   0  0  0  0  0  0  0  0  0  0  0  0
   -3.5605    1.1694    1.2011 C   0  0  0  0  0  0  0  0  0  0  0  0
   -4.7932    1.6698    1.4601 N   0  0  0  0  0  0  0  0  0  0  0  0
   -5.5321    0.3046    2.0382 S   0  0  0  0  0  0  0  0  0  0  0  0
   -4.4028   -0.9090    1.9829 N   0  0  0  0  0  0  0  0  0  0  0  0
   -2.4969    1.9174    0.6810 C   0  0  0  0  0  0  0  0  0  0  0  0
   -2.4131    3.1974    0.2111 C   0  0  0  0  0  0  0  0  0  0  0  0
   -3.4296    4.5236   -0.0842 S   0  0  0  0  0  0  0  0  0  0  0  0
   -2.2086    5.2823   -1.0143 C   0  0  0  0  0  0  0  0  0  0  0  0
   -2.1280    6.4862   -1.7173 C   0  0  0  0  0  0  0  0  0  0  0  0
   -3.2194    7.4776   -1.8059 C   0  0  0  0  0  0  0  0  0  0  0  0
   -4.5302    7.0658   -2.0935 C   0  0  0  0  0  0  0  0  0  0  0  0
   -5.5700    7.9982   -2.1332 C   0  0  0  0  0  0  0  0  0  0  0  0
   -5.3129    9.3580   -1.8988 C   0  0  0  0  0  0  0  0  0  0  0  0
   -6.4456   10.3494   -1.8811 C   0  0  0  0  0  0  0  0  0  0  0  0
   -7.0839   10.4109   -0.4972 C   0  0  0  0  0  0  0  0  0  0  0  0
   -4.0014    9.7716   -1.6171 C   0  0  0  0  0  0  0  0  0  0  0  0
   -2.9615    8.8392   -1.5759 C   0  0  0  0  0  0  0  0  0  0  0  0
   -0.8711    6.6030   -2.3454 C   0  0  0  0  0  0  0  0  0  0  0  0
    0.0906    5.2337   -2.0319 S   0  0  0  0  0  0  0  0  0  0  0  0
   -1.0849    4.5015   -1.0937 C   0  0  0  0  0  0  0  0  0  0  0  0
   -1.2040    3.3179   -0.3922 C   0  0  0  0  0  0  0  0  0  0  0  0
   -0.4821    2.1717   -0.3784 N   0  0  0  0  0  0  0  0  0  0  0  0
   -1.2584    1.3358    0.3783 C   0  0  0  0  0  0  0  0  0  0  0  0
   -1.0190   -0.0017    0.7496 C   0  0  0  0  0  0  0  0  0  0  0  0
    0.1804   -0.6267    0.9682 N   0  0  0  0  0  0  0  0  0  0  0  0
   -0.1894   -1.8513    1.4229 C   0  0  0  0  0  0  0  0  0  0  0  0
    0.5028   -2.8441    2.0996 C   0  0  0  0  0  0  0  0  0  0  0  0
    2.1091   -3.1760    2.4324 S   0  0  0  0  0  0  0  0  0  0  0  0
    1.4449    0.0334    1.3373 C   0  0  0  0  0  0  0  0  0  0  0  0
    1.4529    0.4076    2.8209 C   0  0  0  0  0  0  0  0  0  0  0  0
    0.4433    1.7699   -1.4510 C   0  0  0  0  0  0  0  0  0  0  0  0
   -0.2986    1.5978   -2.7763 C   0  0  0  0  0  0  0  0  0  0  0  0
   -0.4482    7.6798   -3.2464 C   0  0  0  0  0  0  0  0  0  0  0  0
   -0.8423    7.7481   -4.5336 C   0  0  0  0  0  0  0  0  0  0  0  0
   -1.8458    6.8813   -5.1620 C   0  0  0  0  0  0  0  0  0  0  0  0
   -2.3185    5.8150   -4.6832 O   0  0  0  0  0  0  0  0  0  0  0  0
   -2.2238    7.4637   -6.4329 C   0  0  0  0  0  0  0  0  0  0  0  0
   -3.1960    7.0168   -7.3328 C   0  0  0  0  0  0  0  0  0  0  0  0
   -3.9057    5.8388   -7.0547 O   0  0  0  0  0  0  0  0  0  0  0  0
   -4.8908    5.2738   -7.9122 C   0  0  0  0  0  0  0  0  0  0  0  0
   -3.4203    7.7854   -8.4929 C   0  0  0  0  0  0  0  0  0  0  0  0
   -2.6954    8.9692   -8.7134 C   0  0  0  0  0  0  0  0  0  0  0  0
   -1.7274    9.3946   -7.7927 C   0  0  0  0  0  0  0  0  0  0  0  0
   -1.4797    8.6142   -6.6509 C   0  0  0  0  0  0  0  0  0  0  0  0
   -0.5029    8.8045   -5.5354 C   0  0  0  0  0  0  0  0  0  0  0  0
    0.5936    9.6075   -5.5362 C   0  0  0  0  0  0  0  0  0  0  0  0
    1.6406    9.4853   -4.5559 C   0  0  0  0  0  0  0  0  0  0  0  0
    2.4887    9.3904   -3.7740 N   0  0  0  0  0  0  0  0  0  0  0  0
    0.8783   10.5401   -6.5945 C   0  0  0  0  0  0  0  0  0  0  0  0
    1.1255   11.2932   -7.4385 N   0  0  0  0  0  0  0  0  0  0  0  0
    2.7757   -5.0878    5.2698 H   0  0  0  0  0  0  0  0  0  0  0  0
    5.4315   -6.5699   -0.2689 H   0  0  0  0  0  0  0  0  0  0  0  0
    7.8565   -7.1660    4.1805 H   0  0  0  0  0  0  0  0  0  0  0  0
   10.0102   -6.7184    1.4966 H   0  0  0  0  0  0  0  0  0  0  0  0
   10.5731   -9.1884    1.9997 H   0  0  0  0  0  0  0  0  0  0  0  0
    8.3492  -10.6383    2.1122 H   0  0  0  0  0  0  0  0  0  0  0  0
    7.0948  -10.3836   -0.1567 H   0  0  0  0  0  0  0  0  0  0  0  0
    8.5189   -8.7754   -1.7200 H   0  0  0  0  0  0  0  0  0  0  0  0
   10.8666   -8.3367   -0.5155 H   0  0  0  0  0  0  0  0  0  0  0  0
   10.4335  -10.1059   -0.4754 H   0  0  0  0  0  0  0  0  0  0  0  0
    8.9006   -6.4908   -0.5698 H   0  0  0  0  0  0  0  0  0  0  0  0
   -1.5690   -6.4207    2.8687 H   0  0  0  0  0  0  0  0  0  0  0  0
   -2.7124   -8.0484    4.3125 H   0  0  0  0  0  0  0  0  0  0  0  0
   -1.7025   -8.7467    7.8522 H   0  0  0  0  0  0  0  0  0  0  0  0
   -2.5576   -9.4055    6.4230 H   0  0  0  0  0  0  0  0  0  0  0  0
   -4.3281   -7.6334    6.6560 H   0  0  0  0  0  0  0  0  0  0  0  0
   -4.1732   -8.6367    8.1484 H   0  0  0  0  0  0  0  0  0  0  0  0
   -3.4648   -6.9770    8.1095 H   0  0  0  0  0  0  0  0  0  0  0  0
   -0.4432   -6.6379    7.6971 H   0  0  0  0  0  0  0  0  0  0  0  0
    0.6770   -4.9970    6.2616 H   0  0  0  0  0  0  0  0  0  0  0  0
   -4.7500    6.0226   -2.2887 H   0  0  0  0  0  0  0  0  0  0  0  0
   -6.5773    7.6605   -2.3404 H   0  0  0  0  0  0  0  0  0  0  0  0
   -6.0746   11.3615   -2.1582 H   0  0  0  0  0  0  0  0  0  0  0  0
   -7.2145   10.0603   -2.6290 H   0  0  0  0  0  0  0  0  0  0  0  0
   -6.3413   10.7535    0.2543 H   0  0  0  0  0  0  0  0  0  0  0  0
   -7.4686    9.4109   -0.2041 H   0  0  0  0  0  0  0  0  0  0  0  0
   -7.9310   11.1269   -0.5114 H   0  0  0  0  0  0  0  0  0  0  0  0
   -3.7876   10.8138   -1.4132 H   0  0  0  0  0  0  0  0  0  0  0  0
   -1.9593    9.1762   -1.3349 H   0  0  0  0  0  0  0  0  0  0  0  0
    1.6012    0.9709    0.7782 H   0  0  0  0  0  0  0  0  0  0  0  0
    2.3010   -0.6357    1.1094 H   0  0  0  0  0  0  0  0  0  0  0  0
    2.4148    0.8984    3.0737 H   0  0  0  0  0  0  0  0  0  0  0  0
    0.6193    1.1072    3.0429 H   0  0  0  0  0  0  0  0  0  0  0  0
    1.3477   -0.4953    3.4585 H   0  0  0  0  0  0  0  0  0  0  0  0
    1.2430    2.5304   -1.5602 H   0  0  0  0  0  0  0  0  0  0  0  0
    0.9167    0.7951   -1.2325 H   0  0  0  0  0  0  0  0  0  0  0  0
   -0.8265    2.5271   -3.0666 H   0  0  0  0  0  0  0  0  0  0  0  0
   -1.0391    0.7726   -2.6926 H   0  0  0  0  0  0  0  0  0  0  0  0
    0.4282    1.3459   -3.5773 H   0  0  0  0  0  0  0  0  0  0  0  0
    0.1939    8.4304   -2.8154 H   0  0  0  0  0  0  0  0  0  0  0  0
   -4.4456    5.0377   -8.9015 H   0  0  0  0  0  0  0  0  0  0  0  0
   -5.2710    4.3362   -7.4577 H   0  0  0  0  0  0  0  0  0  0  0  0
   -5.7400    5.9773   -8.0328 H   0  0  0  0  0  0  0  0  0  0  0  0
   -4.1609    7.4902   -9.2209 H   0  0  0  0  0  0  0  0  0  0  0  0
   -2.8895    9.5612   -9.5994 H   0  0  0  0  0  0  0  0  0  0  0  0
   -1.2186   10.3239   -7.9805 H   0  0  0  0  0  0  0  0  0  0  0  0
  1  2  2  3
  2  3  1  0
  3  4  2  0
  3  5  1  0
  5  6  2  0
  6  7  1  0
  7  8  2  0
  8  9  1  0
  9 10  2  0
 10 11  1  0
 11 12  2  3
 12 13  1  0
 13 14  3  0
 12 15  1  0
 15 16  3  0
  8 17  1  0
 17 18  1  0
 18 19  1  0
 19 20  2  0
 20 21  1  0
 21 22  1  0
 21 23  1  0
  1 24  1  0
 24 25  2  0
 25 26  1  0
 26 27  2  0
 27 28  1  0
 28 29  2  0
 29 30  1  0
 30 31  1  0
 29 32  1  0
 32 33  2  0
 25 34  1  0
 34 35  1  0
 35 36  1  0
 36 37  1  0
 37 38  1  0
 38 39  1  0
 39 40  2  0
 40 41  1  0
 41 42  1  0
 39 43  1  0
 43 44  1  0
 44 45  1  0
 45 46  1  0
 46 47  1  0
 47 48  1  0
 48 49  2  0
 49 50  1  0
 50 51  2  0
 51 52  1  0
 52 53  1  0
 51 54  1  0
 54 55  2  0
 47 56  2  0
 56 57  1  0
 57 58  1  0
 58 59  1  0
 59 60  1  0
 60 61  1  0
 61 62  1  0
 62 63  1  0
 63 64  1  0
 64 65  1  0
 65 66  1  0
 63 67  1  0
 67 68  1  0
 60 69  1  0
 69 70  1  0
 56 71  1  0
 71 72  2  3
 72 73  1  0
 73 74  2  0
 73 75  1  0
 75 76  2  0
 76 77  1  0
 77 78  1  0
 76 79  1  0
 79 80  2  0
 80 81  1  0
 81 82  2  0
 82 83  1  0
 83 84  2  3
 84 85  1  0
 85 86  3  0
 84 87  1  0
 87 88  3  0
 11  2  1  0
 23 17  1  0
 66 24  1  0
 83 72  1  0
 10  5  1  0
 22 18  1  0
 33 26  1  0
 65 34  2  0
 82 75  1  0
 23  7  1  0
 64 36  2  0
 62 37  2  0
 42 38  2  0
 61 43  2  0
 59 44  2  0
 58 46  2  0
 55 48  1  0
  1 89  1  0
  6 90  1  0
  9 91  1  0
 17 92  1  0
 18 93  1  0
 19 94  1  0
 20 95  1  0
 21 96  1  0
 22 97  1  0
 22 98  1  0
 23 99  1  0
 27100  1  0
 28101  1  0
 30102  1  0
 30103  1  0
 31104  1  0
 31105  1  0
 31106  1  0
 32107  1  0
 33108  1  0
 49109  1  0
 50110  1  0
 52111  1  0
 52112  1  0
 53113  1  0
 53114  1  0
 53115  1  0
 54116  1  0
 55117  1  0
 67118  1  0
 67119  1  0
 68120  1  0
 68121  1  0
 68122  1  0
 69123  1  0
 69124  1  0
 70125  1  0
 70126  1  0
 70127  1  0
 71128  1  0
 78129  1  0
 78130  1  0
 78131  1  0
 79132  1  0
 80133  1  0
 81134  1  0
M  END

