
     RDKit          3D

108121  0  0  0  0  0  0  0  0999 V2000
    5.3023    2.4805   -2.2748 C   0  0  0  0  0  0  0  0  0  0  0  0
    5.2455    1.7967   -3.4351 C   0  0  0  0  0  0  0  0  0  0  0  0
    6.4131    1.6477   -4.3072 C   0  0  0  0  0  0  0  0  0  0  0  0
    7.4203    2.4040   -4.3310 O   0  0  0  0  0  0  0  0  0  0  0  0
    6.2790    0.4032   -5.0424 C   0  0  0  0  0  0  0  0  0  0  0  0
    7.2688   -0.2530   -5.8117 C   0  0  0  0  0  0  0  0  0  0  0  0
    6.9079   -1.5263   -6.2190 C   0  0  0  0  0  0  0  0  0  0  0  0
    5.6511   -2.1277   -5.8861 C   0  0  0  0  0  0  0  0  0  0  0  0
    4.6763   -1.4889   -5.1393 C   0  0  0  0  0  0  0  0  0  0  0  0
    5.0185   -0.1705   -4.7339 C   0  0  0  0  0  0  0  0  0  0  0  0
    4.2610    0.7620   -3.8671 C   0  0  0  0  0  0  0  0  0  0  0  0
    2.9101    0.8708   -3.8085 C   0  0  0  0  0  0  0  0  0  0  0  0
    2.2626    2.0193   -3.2269 C   0  0  0  0  0  0  0  0  0  0  0  0
    1.7307    2.9341   -2.7586 N   0  0  0  0  0  0  0  0  0  0  0  0
    2.0343   -0.0798   -4.4436 C   0  0  0  0  0  0  0  0  0  0  0  0
    1.3261   -0.8362   -4.9588 N   0  0  0  0  0  0  0  0  0  0  0  0
    6.0436   -3.3869   -6.6006 C   0  0  0  0  0  0  0  0  0  0  0  0
    5.3858   -3.6720   -7.9843 C   0  0  0  0  0  0  0  0  0  0  0  0
    5.0624   -2.3689   -8.6815 C   0  0  0  0  0  0  0  0  0  0  0  0
    6.2286   -1.8061   -8.9967 C   0  0  0  0  0  0  0  0  0  0  0  0
    7.3084   -2.7450   -8.5076 C   0  0  0  0  0  0  0  0  0  0  0  0
    6.6155   -4.0685   -8.7804 C   0  0  0  0  0  0  0  0  0  0  0  0
    7.3282   -2.7698   -6.9485 C   0  0  0  0  0  0  0  0  0  0  0  0
    4.4689    2.1903   -1.0846 C   0  0  0  0  0  0  0  0  0  0  0  0
    3.9271    0.9347   -0.7816 C   0  0  0  0  0  0  0  0  0  0  0  0
    3.1683    1.1618    0.3378 C   0  0  0  0  0  0  0  0  0  0  0  0
    3.2889    2.4410    0.6947 C   0  0  0  0  0  0  0  0  0  0  0  0
    4.0964    3.1224   -0.1539 N   0  0  0  0  0  0  0  0  0  0  0  0
    4.3911    4.5570   -0.1907 C   0  0  0  0  0  0  0  0  0  0  0  0
    3.3539    5.3058   -1.0213 C   0  0  0  0  0  0  0  0  0  0  0  0
    2.2195    2.7327    1.5240 C   0  0  0  0  0  0  0  0  0  0  0  0
    1.7247    3.9352    2.0652 C   0  0  0  0  0  0  0  0  0  0  0  0
    0.4771    3.9183    2.7545 C   0  0  0  0  0  0  0  0  0  0  0  0
    0.0343    5.0934    3.2706 N   0  0  0  0  0  0  0  0  0  0  0  0
    1.2692    6.0890    2.8037 S   0  0  0  0  0  0  0  0  0  0  0  0
    2.3472    5.1349    1.9890 N   0  0  0  0  0  0  0  0  0  0  0  0
   -0.1944    2.7070    2.9009 C   0  0  0  0  0  0  0  0  0  0  0  0
   -1.3348    2.4045    3.5828 C   0  0  0  0  0  0  0  0  0  0  0  0
   -2.5250    3.1808    4.5148 S   0  0  0  0  0  0  0  0  0  0  0  0
   -3.2672    1.6786    4.8436 C   0  0  0  0  0  0  0  0  0  0  0  0
   -4.4174    1.3092    5.5410 C   0  0  0  0  0  0  0  0  0  0  0  0
   -5.3482    2.2825    6.2062 C   0  0  0  0  0  0  0  0  0  0  0  0
   -6.4253    2.7497    5.2332 C   0  0  0  0  0  0  0  0  0  0  0  0
   -4.6460   -0.0733    5.4235 C   0  0  0  0  0  0  0  0  0  0  0  0
   -3.3945   -0.8094    4.5242 S   0  0  0  0  0  0  0  0  0  0  0  0
   -2.5882    0.6380    4.2584 C   0  0  0  0  0  0  0  0  0  0  0  0
   -1.4786    1.0637    3.5415 C   0  0  0  0  0  0  0  0  0  0  0  0
   -0.4695    0.4405    2.8847 N   0  0  0  0  0  0  0  0  0  0  0  0
    0.3088    1.4835    2.4220 C   0  0  0  0  0  0  0  0  0  0  0  0
    1.5125    1.5067    1.6494 C   0  0  0  0  0  0  0  0  0  0  0  0
    2.0714    0.5498    0.8324 N   0  0  0  0  0  0  0  0  0  0  0  0
    1.4659   -0.6297    0.1944 C   0  0  0  0  0  0  0  0  0  0  0  0
    0.1470   -0.2865   -0.4976 C   0  0  0  0  0  0  0  0  0  0  0  0
   -0.1661   -0.9884    3.0369 C   0  0  0  0  0  0  0  0  0  0  0  0
    1.2010   -1.2147    3.6821 C   0  0  0  0  0  0  0  0  0  0  0  0
   -5.7723   -0.8015    6.0276 C   0  0  0  0  0  0  0  0  0  0  0  0
   -6.6903   -1.4733    5.3097 C   0  0  0  0  0  0  0  0  0  0  0  0
   -6.8705   -1.3738    3.8446 C   0  0  0  0  0  0  0  0  0  0  0  0
   -6.1081   -0.8016    3.0211 O   0  0  0  0  0  0  0  0  0  0  0  0
   -8.1491   -1.9660    3.5256 C   0  0  0  0  0  0  0  0  0  0  0  0
   -8.7520   -2.4339    4.6673 C   0  0  0  0  0  0  0  0  0  0  0  0
  -10.0245   -2.9626    4.4690 C   0  0  0  0  0  0  0  0  0  0  0  0
  -10.3505   -2.8025    2.8132 S   0  0  0  0  0  0  0  0  0  0  0  0
   -8.8869   -2.0882    2.3615 C   0  0  0  0  0  0  0  0  0  0  0  0
   -8.5208   -1.5982    1.0020 C   0  0  0  0  0  0  0  0  0  0  0  0
   -7.8782   -2.2227    5.8429 C   0  0  0  0  0  0  0  0  0  0  0  0
   -8.0569   -2.7467    7.0795 C   0  0  0  0  0  0  0  0  0  0  0  0
   -9.2432   -3.4839    7.4262 C   0  0  0  0  0  0  0  0  0  0  0  0
  -10.1923   -4.0792    7.7189 N   0  0  0  0  0  0  0  0  0  0  0  0
   -7.0388   -2.6925    8.0976 C   0  0  0  0  0  0  0  0  0  0  0  0
   -6.2255   -2.6524    8.9191 N   0  0  0  0  0  0  0  0  0  0  0  0
    6.1114    3.1851   -2.1427 H   0  0  0  0  0  0  0  0  0  0  0  0
    8.2385    0.1768   -6.0223 H   0  0  0  0  0  0  0  0  0  0  0  0
    3.7670   -1.9941   -4.8534 H   0  0  0  0  0  0  0  0  0  0  0  0
    6.1374   -4.2723   -5.9336 H   0  0  0  0  0  0  0  0  0  0  0  0
    4.5616   -4.4186   -7.9757 H   0  0  0  0  0  0  0  0  0  0  0  0
    4.0800   -1.9849   -8.9383 H   0  0  0  0  0  0  0  0  0  0  0  0
    6.3608   -0.8851   -9.5560 H   0  0  0  0  0  0  0  0  0  0  0  0
    8.2984   -2.6135   -8.9919 H   0  0  0  0  0  0  0  0  0  0  0  0
    6.4062   -4.2462   -9.8639 H   0  0  0  0  0  0  0  0  0  0  0  0
    7.1541   -4.9488   -8.3552 H   0  0  0  0  0  0  0  0  0  0  0  0
    8.2064   -3.2817   -6.4974 H   0  0  0  0  0  0  0  0  0  0  0  0
    4.0039    0.0208   -1.3497 H   0  0  0  0  0  0  0  0  0  0  0  0
    5.3953    4.7313   -0.6291 H   0  0  0  0  0  0  0  0  0  0  0  0
    4.4556    4.9613    0.8360 H   0  0  0  0  0  0  0  0  0  0  0  0
    3.4870    5.0634   -2.0992 H   0  0  0  0  0  0  0  0  0  0  0  0
    3.4850    6.3988   -0.8840 H   0  0  0  0  0  0  0  0  0  0  0  0
    2.3248    5.0233   -0.7125 H   0  0  0  0  0  0  0  0  0  0  0  0
   -4.7732    3.1604    6.5758 H   0  0  0  0  0  0  0  0  0  0  0  0
   -5.8294    1.8060    7.0869 H   0  0  0  0  0  0  0  0  0  0  0  0
   -5.9610    3.2513    4.3567 H   0  0  0  0  0  0  0  0  0  0  0  0
   -7.0971    3.4725    5.7450 H   0  0  0  0  0  0  0  0  0  0  0  0
   -7.0296    1.8846    4.8871 H   0  0  0  0  0  0  0  0  0  0  0  0
    2.1380   -1.0312   -0.5903 H   0  0  0  0  0  0  0  0  0  0  0  0
    1.3905   -1.4683    0.8979 H   0  0  0  0  0  0  0  0  0  0  0  0
   -0.2419   -1.1859   -1.0222 H   0  0  0  0  0  0  0  0  0  0  0  0
   -0.6189    0.0494    0.2300 H   0  0  0  0  0  0  0  0  0  0  0  0
    0.3133    0.5201   -1.2448 H   0  0  0  0  0  0  0  0  0  0  0  0
   -0.3083   -1.5230    2.0843 H   0  0  0  0  0  0  0  0  0  0  0  0
   -0.8980   -1.4644    3.7152 H   0  0  0  0  0  0  0  0  0  0  0  0
    1.3807   -2.3056    3.7932 H   0  0  0  0  0  0  0  0  0  0  0  0
    2.0241   -0.7911    3.0764 H   0  0  0  0  0  0  0  0  0  0  0  0
    1.2231   -0.7440    4.6880 H   0  0  0  0  0  0  0  0  0  0  0  0
   -5.8807   -0.7014    7.0949 H   0  0  0  0  0  0  0  0  0  0  0  0
  -10.7006   -3.3639    5.2062 H   0  0  0  0  0  0  0  0  0  0  0  0
   -8.5243   -0.4871    0.9940 H   0  0  0  0  0  0  0  0  0  0  0  0
   -7.5086   -1.9669    0.7313 H   0  0  0  0  0  0  0  0  0  0  0  0
   -9.2511   -1.9684    0.2523 H   0  0  0  0  0  0  0  0  0  0  0  0
  1  2  2  3
  2  3  1  0
  3  4  2  0
  3  5  1  0
  5  6  2  0
  6  7  1  0
  7  8  2  0
  8  9  1  0
  9 10  2  0
 10 11  1  0
 11 12  2  3
 12 13  1  0
 13 14  3  0
 12 15  1  0
 15 16  3  0
  8 17  1  0
 17 18  1  0
 18 19  1  0
 19 20  2  0
 20 21  1  0
 21 22  1  0
 21 23  1  0
  1 24  1  0
 24 25  2  0
 25 26  1  0
 26 27  2  0
 27 28  1  0
 28 29  1  0
 29 30  1  0
 27 31  1  0
 31 32  1  0
 32 33  1  0
 33 34  2  0
 34 35  1  0
 35 36  1  0
 33 37  1  0
 37 38  1  0
 38 39  1  0
 39 40  1  0
 40 41  1  0
 41 42  1  0
 42 43  1  0
 41 44  2  0
 44 45  1  0
 45 46  1  0
 46 47  1  0
 47 48  1  0
 48 49  1  0
 49 50  1  0
 50 51  1  0
 51 52  1  0
 52 53  1  0
 48 54  1  0
 54 55  1  0
 44 56  1  0
 56 57  2  3
 57 58  1  0
 58 59  2  0
 58 60  1  0
 60 61  1  0
 61 62  2  0
 62 63  1  0
 63 64  1  0
 64 65  1  0
 61 66  1  0
 66 67  2  3
 67 68  1  0
 68 69  3  0
 67 70  1  0
 70 71  3  0
 11  2  1  0
 23 17  1  0
 28 24  1  0
 50 31  2  0
 66 57  1  0
 10  5  1  0
 22 18  1  0
 51 26  1  0
 64 60  2  0
 23  7  1  0
 36 32  2  0
 49 37  2  0
 47 38  2  0
 46 40  2  0
  1 72  1  0
  6 73  1  0
  9 74  1  0
 17 75  1  0
 18 76  1  0
 19 77  1  0
 20 78  1  0
 21 79  1  0
 22 80  1  0
 22 81  1  0
 23 82  1  0
 25 83  1  0
 29 84  1  0
 29 85  1  0
 30 86  1  0
 30 87  1  0
 30 88  1  0
 42 89  1  0
 42 90  1  0
 43 91  1  0
 43 92  1  0
 43 93  1  0
 52 94  1  0
 52 95  1  0
 53 96  1  0
 53 97  1  0
 53 98  1  0
 54 99  1  0
 54100  1  0
 55101  1  0
 55102  1  0
 55103  1  0
 56104  1  0
 62105  1  0
 65106  1  0
 65107  1  0
 65108  1  0
M  END

