
     RDKit          3D

125139  0  0  0  0  0  0  0  0999 V2000
   -4.9354   -5.5941    1.9691 C   0  0  0  0  0  0  0  0  0  0  0  0
   -4.2515   -5.2603    3.0885 C   0  0  0  0  0  0  0  0  0  0  0  0
   -3.0580   -4.4028    3.0940 C   0  0  0  0  0  0  0  0  0  0  0  0
   -2.2665   -4.2169    2.1334 O   0  0  0  0  0  0  0  0  0  0  0  0
   -2.9118   -3.8084    4.3935 C   0  0  0  0  0  0  0  0  0  0  0  0
   -1.9559   -2.8403    4.7687 C   0  0  0  0  0  0  0  0  0  0  0  0
   -2.0582   -2.4389    6.0816 C   0  0  0  0  0  0  0  0  0  0  0  0
   -3.0364   -2.9630    6.9879 C   0  0  0  0  0  0  0  0  0  0  0  0
   -3.9785   -3.9113    6.6223 C   0  0  0  0  0  0  0  0  0  0  0  0
   -3.9156   -4.3179    5.2572 C   0  0  0  0  0  0  0  0  0  0  0  0
   -4.7547   -5.3015    4.5012 C   0  0  0  0  0  0  0  0  0  0  0  0
   -5.7542   -6.0824    4.9873 C   0  0  0  0  0  0  0  0  0  0  0  0
   -6.2967   -7.1806    4.2333 C   0  0  0  0  0  0  0  0  0  0  0  0
   -6.7299   -8.0518    3.6115 N   0  0  0  0  0  0  0  0  0  0  0  0
   -6.3686   -5.8395    6.2680 C   0  0  0  0  0  0  0  0  0  0  0  0
   -6.8828   -5.6276    7.2897 N   0  0  0  0  0  0  0  0  0  0  0  0
   -2.4774   -2.1207    8.1013 C   0  0  0  0  0  0  0  0  0  0  0  0
   -1.6089   -2.8241    9.1880 C   0  0  0  0  0  0  0  0  0  0  0  0
   -0.8940   -4.0101    8.5898 C   0  0  0  0  0  0  0  0  0  0  0  0
    0.0122   -3.5226    7.7393 C   0  0  0  0  0  0  0  0  0  0  0  0
   -0.1215   -2.0152    7.7868 C   0  0  0  0  0  0  0  0  0  0  0  0
   -0.4460   -1.8538    9.2607 C   0  0  0  0  0  0  0  0  0  0  0  0
   -1.4803   -1.5797    7.1664 C   0  0  0  0  0  0  0  0  0  0  0  0
   -4.5892   -4.9801    0.6810 C   0  0  0  0  0  0  0  0  0  0  0  0
   -3.6002   -5.5525   -0.1503 C   0  0  0  0  0  0  0  0  0  0  0  0
   -2.9595   -4.7730   -1.1308 C   0  0  0  0  0  0  0  0  0  0  0  0
   -3.3346   -3.4309   -1.2726 C   0  0  0  0  0  0  0  0  0  0  0  0
   -2.7253   -2.3381   -1.8923 C   0  0  0  0  0  0  0  0  0  0  0  0
   -3.3908   -1.2306   -1.4587 C   0  0  0  0  0  0  0  0  0  0  0  0
   -4.4348   -1.5410   -0.6461 N   0  0  0  0  0  0  0  0  0  0  0  0
   -4.3779   -2.8931   -0.5218 C   0  0  0  0  0  0  0  0  0  0  0  0
   -5.0238   -3.6624    0.4547 C   0  0  0  0  0  0  0  0  0  0  0  0
   -5.3594   -0.6270    0.0531 C   0  0  0  0  0  0  0  0  0  0  0  0
   -6.0391    0.3126   -0.9375 C   0  0  0  0  0  0  0  0  0  0  0  0
   -2.4577   -0.2164   -1.4025 C   0  0  0  0  0  0  0  0  0  0  0  0
   -2.4034    0.9756   -0.6709 C   0  0  0  0  0  0  0  0  0  0  0  0
   -1.2297    1.6590   -0.5218 C   0  0  0  0  0  0  0  0  0  0  0  0
   -1.4536    2.7301    0.2515 N   0  0  0  0  0  0  0  0  0  0  0  0
   -2.7493    2.6836    0.5346 N   0  0  0  0  0  0  0  0  0  0  0  0
   -3.4426    3.7036    1.3169 C   0  0  0  0  0  0  0  0  0  0  0  0
   -2.7857    3.8714    2.6817 C   0  0  0  0  0  0  0  0  0  0  0  0
   -3.3618    1.6426   -0.0151 N   0  0  0  0  0  0  0  0  0  0  0  0
   -0.0589    1.2274   -1.1522 C   0  0  0  0  0  0  0  0  0  0  0  0
   -0.0785    0.0516   -1.9248 C   0  0  0  0  0  0  0  0  0  0  0  0
   -1.2782   -0.7404   -1.9587 C   0  0  0  0  0  0  0  0  0  0  0  0
   -1.4244   -2.0787   -2.2138 N   0  0  0  0  0  0  0  0  0  0  0  0
   -0.3542   -3.0843   -2.2389 C   0  0  0  0  0  0  0  0  0  0  0  0
   -0.4022   -3.9213   -3.5246 C   0  0  0  0  0  0  0  0  0  0  0  0
    1.0044    0.0272   -2.7742 N   0  0  0  0  0  0  0  0  0  0  0  0
    1.0798   -0.6447   -4.0782 C   0  0  0  0  0  0  0  0  0  0  0  0
    2.3176   -1.5452   -4.1830 C   0  0  0  0  0  0  0  0  0  0  0  0
    1.7195    1.1397   -2.4423 C   0  0  0  0  0  0  0  0  0  0  0  0
    1.1233    1.8712   -1.4643 C   0  0  0  0  0  0  0  0  0  0  0  0
    1.4480    3.1878   -1.5389 N   0  0  0  0  0  0  0  0  0  0  0  0
    0.9092    4.3105   -0.7564 C   0  0  0  0  0  0  0  0  0  0  0  0
   -0.2783    4.9562   -1.4777 C   0  0  0  0  0  0  0  0  0  0  0  0
    2.2689    3.2793   -2.6202 C   0  0  0  0  0  0  0  0  0  0  0  0
    2.4616    2.0364   -3.2142 C   0  0  0  0  0  0  0  0  0  0  0  0
    3.1020    1.9172   -4.4479 C   0  0  0  0  0  0  0  0  0  0  0  0
    3.5774    3.0828   -5.0694 C   0  0  0  0  0  0  0  0  0  0  0  0
    3.3523    4.3508   -4.4876 C   0  0  0  0  0  0  0  0  0  0  0  0
    2.6859    4.4508   -3.2514 C   0  0  0  0  0  0  0  0  0  0  0  0
    3.6054    5.5719   -5.2666 C   0  0  0  0  0  0  0  0  0  0  0  0
    4.8313    6.0203   -5.5839 C   0  0  0  0  0  0  0  0  0  0  0  0
    6.0910    5.5743   -4.9795 C   0  0  0  0  0  0  0  0  0  0  0  0
    6.2586    4.5466   -4.2617 O   0  0  0  0  0  0  0  0  0  0  0  0
    7.0941    6.5926   -5.2325 C   0  0  0  0  0  0  0  0  0  0  0  0
    8.3914    6.6644   -4.7235 C   0  0  0  0  0  0  0  0  0  0  0  0
    9.1444    7.8226   -4.9760 C   0  0  0  0  0  0  0  0  0  0  0  0
   10.9223    7.9731   -4.2946 Br  0  0  0  0  0  0  0  0  0  0  0  0
    8.5704    8.8973   -5.6770 C   0  0  0  0  0  0  0  0  0  0  0  0
    7.2544    8.8080   -6.1670 C   0  0  0  0  0  0  0  0  0  0  0  0
    6.5350    7.6236   -5.9697 C   0  0  0  0  0  0  0  0  0  0  0  0
    5.1383    7.2690   -6.3403 C   0  0  0  0  0  0  0  0  0  0  0  0
    4.4136    7.7930   -7.3623 C   0  0  0  0  0  0  0  0  0  0  0  0
    4.8792    8.9117   -8.1444 C   0  0  0  0  0  0  0  0  0  0  0  0
    5.2446    9.8068   -8.7795 N   0  0  0  0  0  0  0  0  0  0  0  0
    3.2170    7.1500   -7.8527 C   0  0  0  0  0  0  0  0  0  0  0  0
    2.2688    6.6276   -8.2564 N   0  0  0  0  0  0  0  0  0  0  0  0
   -5.9085   -6.0496    2.0242 H   0  0  0  0  0  0  0  0  0  0  0  0
   -1.2002   -2.4546    4.1001 H   0  0  0  0  0  0  0  0  0  0  0  0
   -4.6767   -4.2861    7.3451 H   0  0  0  0  0  0  0  0  0  0  0  0
   -3.1851   -1.3499    8.4866 H   0  0  0  0  0  0  0  0  0  0  0  0
   -2.1218   -3.0215   10.1489 H   0  0  0  0  0  0  0  0  0  0  0  0
   -1.0332   -5.0572    8.8410 H   0  0  0  0  0  0  0  0  0  0  0  0
    0.7359   -4.1014    7.1747 H   0  0  0  0  0  0  0  0  0  0  0  0
    0.7645   -1.4553    7.4257 H   0  0  0  0  0  0  0  0  0  0  0  0
    0.3761   -2.1920    9.9364 H   0  0  0  0  0  0  0  0  0  0  0  0
   -0.7402   -0.8132    9.5388 H   0  0  0  0  0  0  0  0  0  0  0  0
   -1.5887   -0.4884    6.9843 H   0  0  0  0  0  0  0  0  0  0  0  0
   -3.2491   -6.5610    0.0408 H   0  0  0  0  0  0  0  0  0  0  0  0
   -2.1503   -5.2077   -1.6852 H   0  0  0  0  0  0  0  0  0  0  0  0
   -5.7277   -3.2183    1.1419 H   0  0  0  0  0  0  0  0  0  0  0  0
   -4.8252   -0.0789    0.8522 H   0  0  0  0  0  0  0  0  0  0  0  0
   -6.1706   -1.1874    0.5563 H   0  0  0  0  0  0  0  0  0  0  0  0
   -6.7537   -0.2575   -1.5737 H   0  0  0  0  0  0  0  0  0  0  0  0
   -6.6065    1.0888   -0.3802 H   0  0  0  0  0  0  0  0  0  0  0  0
   -5.3029    0.8174   -1.5994 H   0  0  0  0  0  0  0  0  0  0  0  0
   -3.4088    4.6735    0.7739 H   0  0  0  0  0  0  0  0  0  0  0  0
   -4.5053    3.4124    1.4582 H   0  0  0  0  0  0  0  0  0  0  0  0
   -3.3436    4.6210    3.2751 H   0  0  0  0  0  0  0  0  0  0  0  0
   -2.7847    2.8999    3.2346 H   0  0  0  0  0  0  0  0  0  0  0  0
   -1.7375    4.2209    2.5683 H   0  0  0  0  0  0  0  0  0  0  0  0
   -0.4380   -3.7522   -1.3536 H   0  0  0  0  0  0  0  0  0  0  0  0
    0.6211   -2.5977   -2.1215 H   0  0  0  0  0  0  0  0  0  0  0  0
    0.4462   -4.6463   -3.5313 H   0  0  0  0  0  0  0  0  0  0  0  0
   -0.3253   -3.3017   -4.4349 H   0  0  0  0  0  0  0  0  0  0  0  0
   -1.3480   -4.4874   -3.6011 H   0  0  0  0  0  0  0  0  0  0  0  0
    1.1009    0.1132   -4.8912 H   0  0  0  0  0  0  0  0  0  0  0  0
    0.1600   -1.2219   -4.2611 H   0  0  0  0  0  0  0  0  0  0  0  0
    2.4092   -1.9299   -5.2186 H   0  0  0  0  0  0  0  0  0  0  0  0
    2.2558   -2.4121   -3.4947 H   0  0  0  0  0  0  0  0  0  0  0  0
    3.2378   -0.9949   -3.9152 H   0  0  0  0  0  0  0  0  0  0  0  0
    1.6950    5.0770   -0.6024 H   0  0  0  0  0  0  0  0  0  0  0  0
    0.6302    3.9667    0.2562 H   0  0  0  0  0  0  0  0  0  0  0  0
   -0.9663    4.1766   -1.8666 H   0  0  0  0  0  0  0  0  0  0  0  0
   -0.8387    5.6071   -0.7744 H   0  0  0  0  0  0  0  0  0  0  0  0
    0.0726    5.5572   -2.3452 H   0  0  0  0  0  0  0  0  0  0  0  0
    3.2504    0.9759   -4.9426 H   0  0  0  0  0  0  0  0  0  0  0  0
    4.0634    3.0126   -6.0392 H   0  0  0  0  0  0  0  0  0  0  0  0
    2.4645    5.4235   -2.8315 H   0  0  0  0  0  0  0  0  0  0  0  0
    2.7257    6.1261   -5.5715 H   0  0  0  0  0  0  0  0  0  0  0  0
    8.7988    5.8557   -4.1285 H   0  0  0  0  0  0  0  0  0  0  0  0
    9.1319    9.8101   -5.8193 H   0  0  0  0  0  0  0  0  0  0  0  0
    6.8150    9.6715   -6.6342 H   0  0  0  0  0  0  0  0  0  0  0  0
  1  2  2  3
  2  3  1  0
  3  4  2  0
  3  5  1  0
  5  6  2  0
  6  7  1  0
  7  8  2  0
  8  9  1  0
  9 10  2  0
 10 11  1  0
 11 12  2  3
 12 13  1  0
 13 14  3  0
 12 15  1  0
 15 16  3  0
  8 17  1  0
 17 18  1  0
 18 19  1  0
 19 20  2  0
 20 21  1  0
 21 22  1  0
 21 23  1  0
  1 24  1  0
 24 25  2  0
 25 26  1  0
 26 27  2  0
 27 28  1  0
 28 29  2  0
 29 30  1  0
 30 31  1  0
 31 32  2  0
 30 33  1  0
 33 34  1  0
 29 35  1  0
 35 36  1  0
 36 37  1  0
 37 38  2  0
 38 39  1  0
 39 40  1  0
 40 41  1  0
 39 42  1  0
 37 43  1  0
 43 44  2  0
 44 45  1  0
 45 46  1  0
 46 47  1  0
 47 48  1  0
 44 49  1  0
 49 50  1  0
 50 51  1  0
 49 52  1  0
 52 53  2  0
 53 54  1  0
 54 55  1  0
 55 56  1  0
 54 57  1  0
 57 58  2  0
 58 59  1  0
 59 60  2  0
 60 61  1  0
 61 62  2  0
 61 63  1  0
 63 64  2  3
 64 65  1  0
 65 66  2  0
 65 67  1  0
 67 68  2  0
 68 69  1  0
 69 70  1  0
 69 71  2  0
 71 72  1  0
 72 73  2  0
 73 74  1  0
 74 75  2  3
 75 76  1  0
 76 77  3  0
 75 78  1  0
 78 79  3  0
 11  2  1  0
 23 17  1  0
 32 24  1  0
 45 35  2  0
 58 52  1  0
 74 64  1  0
 10  5  1  0
 22 18  1  0
 31 27  1  0
 42 36  2  0
 53 43  1  0
 62 57  1  0
 73 67  1  0
 23  7  1  0
 46 28  1  0
  1 80  1  0
  6 81  1  0
  9 82  1  0
 17 83  1  0
 18 84  1  0
 19 85  1  0
 20 86  1  0
 21 87  1  0
 22 88  1  0
 22 89  1  0
 23 90  1  0
 25 91  1  0
 26 92  1  0
 32 93  1  0
 33 94  1  0
 33 95  1  0
 34 96  1  0
 34 97  1  0
 34 98  1  0
 40 99  1  0
 40100  1  0
 41101  1  0
 41102  1  0
 41103  1  0
 47104  1  0
 47105  1  0
 48106  1  0
 48107  1  0
 48108  1  0
 50109  1  0
 50110  1  0
 51111  1  0
 51112  1  0
 51113  1  0
 55114  1  0
 55115  1  0
 56116  1  0
 56117  1  0
 56118  1  0
 59119  1  0
 60120  1  0
 62121  1  0
 63122  1  0
 68123  1  0
 71124  1  0
 72125  1  0
M  END

