
     RDKit          3D

 89101  0  0  0  0  0  0  0  0999 V2000
   -0.5632    5.0572   -2.5342 C   0  0  0  0  0  0  0  0  0  0  0  0
    0.0051    4.2638   -3.5192 C   0  0  0  0  0  0  0  0  0  0  0  0
    0.5261    4.7117   -4.7903 C   0  0  0  0  0  0  0  0  0  0  0  0
    0.4177    5.8422   -5.2696 O   0  0  0  0  0  0  0  0  0  0  0  0
    1.2075    3.5686   -5.4018 C   0  0  0  0  0  0  0  0  0  0  0  0
    1.8704    3.4214   -6.6279 C   0  0  0  0  0  0  0  0  0  0  0  0
    2.4154    2.2143   -6.9636 C   0  0  0  0  0  0  0  0  0  0  0  0
    2.3311    1.1417   -6.1341 C   0  0  0  0  0  0  0  0  0  0  0  0
    1.6717    1.2886   -4.9204 C   0  0  0  0  0  0  0  0  0  0  0  0
    1.0990    2.4915   -4.5460 C   0  0  0  0  0  0  0  0  0  0  0  0
    0.2975    2.9121   -3.3113 C   0  0  0  0  0  0  0  0  0  0  0  0
   -0.3988    1.8010   -2.8295 C   0  0  0  0  0  0  0  0  0  0  0  0
    0.0223    0.6676   -2.6459 C   0  0  0  0  0  0  0  0  0  0  0  0
    0.5319   -0.6588   -2.4113 N   0  0  0  0  0  0  0  0  0  0  0  0
   -1.8676    1.9616   -3.1493 C   0  0  0  0  0  0  0  0  0  0  0  0
   -3.1311    2.0827   -3.4091 N   0  0  0  0  0  0  0  0  0  0  0  0
    3.1121    0.1865   -6.9516 C   0  0  0  0  0  0  0  0  0  0  0  0
    2.3048   -0.9127   -7.6139 C   0  0  0  0  0  0  0  0  0  0  0  0
    0.9430   -0.4266   -7.7818 C   0  0  0  0  0  0  0  0  0  0  0  0
    0.9575    0.4904   -8.7363 C   0  0  0  0  0  0  0  0  0  0  0  0
    2.3825    0.7781   -9.0845 C   0  0  0  0  0  0  0  0  0  0  0  0
    2.8546   -0.7092   -9.0444 C   0  0  0  0  0  0  0  0  0  0  0  0
    3.1264    1.3450   -7.9481 C   0  0  0  0  0  0  0  0  0  0  0  0
   -0.9903    4.4543   -1.3143 C   0  0  0  0  0  0  0  0  0  0  0  0
   -2.8115    3.6633   -0.9346 Se  0  0  0  0  0  2  0  0  0  0  0  0
   -2.0787    2.7550    0.5923 C   0  0  0  0  0  0  0  0  0  0  0  0
   -2.4314    1.8119    1.4891 C   0  0  0  0  0  0  0  0  0  0  0  0
   -3.6540    1.1628    1.6045 C   0  0  0  0  0  0  0  0  0  0  0  0
   -3.7041    0.1149    2.4663 C   0  0  0  0  0  0  0  0  0  0  0  0
   -4.8943   -0.5093    2.5649 N   0  0  0  0  0  0  0  0  0  0  0  0
   -5.9042    0.3125    1.5150 S   0  0  0  0  0  0  0  0  0  0  0  0
   -4.8139    1.4403    0.9642 N   0  0  0  0  0  0  0  0  0  0  0  0
   -2.5397   -0.2032    3.1666 C   0  0  0  0  0  0  0  0  0  0  0  0
   -2.2843   -1.2302    4.0217 C   0  0  0  0  0  0  0  0  0  0  0  0
   -3.0233   -2.6157    4.7402 S   0  0  0  0  0  0  0  0  0  0  0  0
   -1.5245   -3.1439    5.5901 C   0  0  0  0  0  0  0  0  0  0  0  0
   -1.2515   -4.3791    6.2376 C   0  0  0  0  0  0  0  0  0  0  0  0
   -2.2802   -5.3655    6.6391 C   0  0  0  0  0  0  0  0  0  0  0  0
   -2.7915   -6.1103    5.4526 C   0  0  0  0  0  0  0  0  0  0  0  0
    0.0531   -4.5190    6.5003 C   0  0  0  0  0  0  0  0  0  0  0  0
    0.7698   -3.0632    5.8979 S   0  0  0  0  0  0  0  0  0  0  0  0
   -0.7874   -2.3337    5.2815 C   0  0  0  0  0  0  0  0  0  0  0  0
   -0.9705   -1.2348    4.4620 C   0  0  0  0  0  0  0  0  0  0  0  0
   -0.4585   -0.1391    3.8431 N   0  0  0  0  0  0  0  0  0  0  0  0
   -1.3394    0.4644    3.0618 C   0  0  0  0  0  0  0  0  0  0  0  0
   -1.2584    1.5386    2.1485 C   0  0  0  0  0  0  0  0  0  0  0  0
   -0.2490    2.2710    1.6873 N   0  0  0  0  0  0  0  0  0  0  0  0
   -0.7680    3.1158    0.6440 C   0  0  0  0  0  0  0  0  0  0  0  0
   -0.3151    3.9329   -0.2686 C   0  0  0  0  0  0  0  0  0  0  0  0
    1.1856    2.0934    1.7770 C   0  0  0  0  0  0  0  0  0  0  0  0
    1.8378    1.9354    0.3654 C   0  0  0  0  0  0  0  0  0  0  0  0
    0.8314    0.3632    4.2703 C   0  0  0  0  0  0  0  0  0  0  0  0
    0.4612    0.9127    5.7495 C   0  0  0  0  0  0  0  0  0  0  0  0
    0.8221   -5.7053    6.9872 C   0  0  0  0  0  0  0  0  0  0  0  0
    1.3560   -6.5721    7.3083 C   0  0  0  0  0  0  0  0  0  0  0  0
    1.9628   -7.6379    7.6461 C   0  0  0  0  0  0  0  0  0  0  0  0
    2.6858   -6.8274    8.7492 C   0  0  0  0  0  0  0  0  0  0  0  0
    3.5534   -7.4378    9.5804 C   0  0  0  0  0  0  0  0  0  0  0  0
    4.3993   -8.0202   10.3649 N   0  0  0  0  0  0  0  0  0  0  0  0
    2.0352   -5.1964    8.5368 S   0  0  0  0  0  0  0  0  0  0  0  0
   -0.6529    6.0619   -2.7526 H   0  0  0  0  0  0  0  0  0  0  0  0
    1.9302    4.2937   -7.2569 H   0  0  0  0  0  0  0  0  0  0  0  0
    1.6183    0.4416   -4.2712 H   0  0  0  0  0  0  0  0  0  0  0  0
    4.1011   -0.1060   -6.5898 H   0  0  0  0  0  0  0  0  0  0  0  0
    2.4325   -1.8916   -7.2215 H   0  0  0  0  0  0  0  0  0  0  0  0
    0.0880   -0.7722   -7.2370 H   0  0  0  0  0  0  0  0  0  0  0  0
    0.1414    0.9592   -9.2269 H   0  0  0  0  0  0  0  0  0  0  0  0
    2.5214    1.1962  -10.0560 H   0  0  0  0  0  0  0  0  0  0  0  0
    2.3140   -1.3373   -9.7473 H   0  0  0  0  0  0  0  0  0  0  0  0
    3.9530   -0.7869   -9.0541 H   0  0  0  0  0  0  0  0  0  0  0  0
    4.1349    1.7060   -8.1992 H   0  0  0  0  0  0  0  0  0  0  0  0
   -1.8816   -6.0107    7.4507 H   0  0  0  0  0  0  0  0  0  0  0  0
   -3.1541   -4.8422    7.1068 H   0  0  0  0  0  0  0  0  0  0  0  0
   -2.2358   -5.8762    4.5183 H   0  0  0  0  0  0  0  0  0  0  0  0
   -3.8598   -5.8313    5.2141 H   0  0  0  0  0  0  0  0  0  0  0  0
   -2.8072   -7.2145    5.5597 H   0  0  0  0  0  0  0  0  0  0  0  0
    0.7902    4.3550   -0.2696 H   0  0  0  0  0  0  0  0  0  0  0  0
    1.7414    2.8484    2.2824 H   0  0  0  0  0  0  0  0  0  0  0  0
    1.4067    1.0119    2.0846 H   0  0  0  0  0  0  0  0  0  0  0  0
    1.0489    1.9130   -0.3581 H   0  0  0  0  0  0  0  0  0  0  0  0
    2.4134    2.8818    0.2172 H   0  0  0  0  0  0  0  0  0  0  0  0
    2.6004    1.1473    0.3597 H   0  0  0  0  0  0  0  0  0  0  0  0
    1.1829    1.2786    3.9229 H   0  0  0  0  0  0  0  0  0  0  0  0
    1.5128   -0.4412    4.5213 H   0  0  0  0  0  0  0  0  0  0  0  0
    0.0143    0.0618    6.2836 H   0  0  0  0  0  0  0  0  0  0  0  0
    1.4436    1.1200    6.2034 H   0  0  0  0  0  0  0  0  0  0  0  0
   -0.1878    1.7772    5.6270 H   0  0  0  0  0  0  0  0  0  0  0  0
    0.5946   -7.4222    6.2770 H   0  0  0  0  0  0  0  0  0  0  0  0
    2.2082   -8.6185    7.5724 H   0  0  0  0  0  0  0  0  0  0  0  0
  1  2  2  3
  2  3  1  0
  3  4  2  0
  3  5  1  0
  5  6  2  0
  6  7  1  0
  7  8  2  0
  8  9  1  0
  9 10  2  0
 10 11  1  0
 11 12  2  3
 12 13  1  0
 13 14  3  0
 12 15  1  0
 15 16  3  0
  8 17  1  0
 17 18  1  0
 18 19  1  0
 19 20  2  0
 20 21  1  0
 21 22  1  0
 21 23  1  0
  1 24  1  0
 24 25  1  0
 25 26  1  0
 26 27  1  0
 27 28  1  0
 28 29  1  0
 29 30  2  0
 30 31  1  0
 31 32  1  0
 29 33  1  0
 33 34  1  0
 34 35  1  0
 35 36  1  0
 36 37  1  0
 37 38  1  0
 38 39  1  0
 37 40  2  0
 40 41  1  0
 41 42  1  0
 42 43  1  0
 43 44  1  0
 44 45  1  0
 45 46  1  0
 46 47  1  0
 47 48  1  0
 48 49  1  0
 47 50  1  0
 50 51  1  0
 44 52  1  0
 52 53  1  0
 40 54  1  0
 54 55  2  0
 55 56  1  0
 56 57  2  0
 57 58  1  0
 58 59  3  0
 57 60  1  0
 11  2  1  0
 23 17  1  0
 49 24  2  0
 60 54  1  0
 10  5  1  0
 22 18  1  0
 48 26  2  0
 23  7  1  0
 46 27  2  0
 32 28  2  0
 45 33  2  0
 43 34  2  0
 42 36  2  0
  1 61  1  0
  6 62  1  0
  9 63  1  0
 17 64  1  0
 18 65  1  0
 19 66  1  0
 20 67  1  0
 21 68  1  0
 22 69  1  0
 22 70  1  0
 23 71  1  0
 38 72  1  0
 38 73  1  0
 39 74  1  0
 39 75  1  0
 39 76  1  0
 49 77  1  0
 50 78  1  0
 50 79  1  0
 51 80  1  0
 51 81  1  0
 51 82  1  0
 52 83  1  0
 52 84  1  0
 53 85  1  0
 53 86  1  0
 53 87  1  0
 55 88  1  0
 56 89  1  0
M  END

