
     RDKit          3D

 95108  0  0  0  0  0  0  0  0999 V2000
    5.2234    0.6713    3.7608 C   0  0  0  0  0  0  0  0  0  0  0  0
    6.0427    0.1444    2.8299 C   0  0  0  0  0  0  0  0  0  0  0  0
    5.6132   -0.7901    1.7789 C   0  0  0  0  0  0  0  0  0  0  0  0
    4.7027   -1.6618    1.8860 O   0  0  0  0  0  0  0  0  0  0  0  0
    6.3495   -0.5002    0.5701 C   0  0  0  0  0  0  0  0  0  0  0  0
    5.9985   -0.8940   -0.7408 C   0  0  0  0  0  0  0  0  0  0  0  0
    6.6134   -0.1462   -1.7265 C   0  0  0  0  0  0  0  0  0  0  0  0
    7.5294    0.9215   -1.4532 C   0  0  0  0  0  0  0  0  0  0  0  0
    7.9183    1.2776   -0.1702 C   0  0  0  0  0  0  0  0  0  0  0  0
    7.3009    0.5119    0.8609 C   0  0  0  0  0  0  0  0  0  0  0  0
    7.2730    0.7998    2.3166 C   0  0  0  0  0  0  0  0  0  0  0  0
    8.2556    1.3651    3.0483 C   0  0  0  0  0  0  0  0  0  0  0  0
    9.5148    1.7492    2.4574 C   0  0  0  0  0  0  0  0  0  0  0  0
   10.5340    2.0488    1.9935 N   0  0  0  0  0  0  0  0  0  0  0  0
    8.1856    1.4195    4.4847 C   0  0  0  0  0  0  0  0  0  0  0  0
    8.1363    1.4565    5.6414 N   0  0  0  0  0  0  0  0  0  0  0  0
    7.5647    1.2839   -2.9106 C   0  0  0  0  0  0  0  0  0  0  0  0
    6.7522    2.5487   -3.3278 C   0  0  0  0  0  0  0  0  0  0  0  0
    6.6038    2.4676   -4.8287 C   0  0  0  0  0  0  0  0  0  0  0  0
    5.7548    1.4613   -5.0759 C   0  0  0  0  0  0  0  0  0  0  0  0
    5.3659    0.8972   -3.7325 C   0  0  0  0  0  0  0  0  0  0  0  0
    5.3287    2.1904   -2.9361 C   0  0  0  0  0  0  0  0  0  0  0  0
    6.6387    0.1804   -3.1875 C   0  0  0  0  0  0  0  0  0  0  0  0
    3.7623    0.5402    3.6567 C   0  0  0  0  0  0  0  0  0  0  0  0
    2.7005    0.0032    4.8873 S   0  0  0  0  0  0  0  0  0  0  0  0
    1.3638    0.1190    3.8785 C   0  0  0  0  0  0  0  0  0  0  0  0
    0.0724   -0.3125    3.8286 C   0  0  0  0  0  0  0  0  0  0  0  0
   -0.6769   -1.0294    4.7632 C   0  0  0  0  0  0  0  0  0  0  0  0
   -1.9526   -1.5245    4.3852 C   0  0  0  0  0  0  0  0  0  0  0  0
   -2.6458   -2.2301    5.3127 N   0  0  0  0  0  0  0  0  0  0  0  0
   -1.5643   -2.1658    6.5679 S   0  0  0  0  0  0  0  0  0  0  0  0
   -0.2551   -1.3124    6.0193 N   0  0  0  0  0  0  0  0  0  0  0  0
   -2.4098   -1.2677    3.0881 C   0  0  0  0  0  0  0  0  0  0  0  0
   -3.6009   -1.5513    2.4894 C   0  0  0  0  0  0  0  0  0  0  0  0
   -3.6221   -0.9268    1.3034 C   0  0  0  0  0  0  0  0  0  0  0  0
   -2.4796   -0.2433    1.0475 N   0  0  0  0  0  0  0  0  0  0  0  0
   -2.3689    0.7799   -0.0025 C   0  0  0  0  0  0  0  0  0  0  0  0
   -2.1627    2.1804    0.5824 C   0  0  0  0  0  0  0  0  0  0  0  0
   -1.6854   -0.5024    2.1502 C   0  0  0  0  0  0  0  0  0  0  0  0
   -0.3674   -0.0703    2.5138 C   0  0  0  0  0  0  0  0  0  0  0  0
    0.6838    0.4054    1.7549 N   0  0  0  0  0  0  0  0  0  0  0  0
    1.7007    0.5264    2.6466 C   0  0  0  0  0  0  0  0  0  0  0  0
    3.0532    0.7961    2.4751 C   0  0  0  0  0  0  0  0  0  0  0  0
    0.8945    0.4060    0.2999 C   0  0  0  0  0  0  0  0  0  0  0  0
    0.7534   -0.9922   -0.2913 C   0  0  0  0  0  0  0  0  0  0  0  0
   -4.8361   -1.0230    0.6153 C   0  0  0  0  0  0  0  0  0  0  0  0
   -5.7494   -1.8051    1.3439 C   0  0  0  0  0  0  0  0  0  0  0  0
   -5.0720   -2.2668    2.8442 S   0  0  0  0  0  0  0  0  0  0  0  0
   -7.1604   -2.0230    0.9898 C   0  0  0  0  0  0  0  0  0  0  0  0
   -7.6003   -2.2798   -0.2573 C   0  0  0  0  0  0  0  0  0  0  0  0
   -6.7833   -2.7941   -1.3659 C   0  0  0  0  0  0  0  0  0  0  0  0
   -5.5345   -2.9566   -1.3686 O   0  0  0  0  0  0  0  0  0  0  0  0
   -7.6646   -3.2245   -2.4288 C   0  0  0  0  0  0  0  0  0  0  0  0
   -7.3138   -3.8249   -3.6469 C   0  0  0  0  0  0  0  0  0  0  0  0
   -8.3537   -4.2050   -4.4993 C   0  0  0  0  0  0  0  0  0  0  0  0
   -8.2142   -4.7989   -5.7552 C   0  0  0  0  0  0  0  0  0  0  0  0
   -9.4415   -5.0661   -6.3534 C   0  0  0  0  0  0  0  0  0  0  0  0
   -9.6828   -5.8425   -8.0743 Br  0  0  0  0  0  0  0  0  0  0  0  0
  -10.6943   -4.5826   -5.3234 S   0  0  0  0  0  0  0  0  0  0  0  0
   -9.6828   -4.0246   -4.1091 C   0  0  0  0  0  0  0  0  0  0  0  0
  -10.0393   -3.4386   -2.8915 C   0  0  0  0  0  0  0  0  0  0  0  0
   -8.9921   -3.0186   -2.0436 C   0  0  0  0  0  0  0  0  0  0  0  0
   -9.0255   -2.3426   -0.7160 C   0  0  0  0  0  0  0  0  0  0  0  0
  -10.0960   -1.7256   -0.1425 C   0  0  0  0  0  0  0  0  0  0  0  0
   -9.9816   -0.9170    1.0421 C   0  0  0  0  0  0  0  0  0  0  0  0
   -9.8963   -0.2509    1.9813 N   0  0  0  0  0  0  0  0  0  0  0  0
  -11.4169   -1.7388   -0.7238 C   0  0  0  0  0  0  0  0  0  0  0  0
  -12.4826   -1.7413   -1.1764 N   0  0  0  0  0  0  0  0  0  0  0  0
    5.5780    1.4302    4.4406 H   0  0  0  0  0  0  0  0  0  0  0  0
    5.2146   -1.6121   -0.9537 H   0  0  0  0  0  0  0  0  0  0  0  0
    8.5368    2.1452    0.0099 H   0  0  0  0  0  0  0  0  0  0  0  0
    8.5679    1.1797   -3.3782 H   0  0  0  0  0  0  0  0  0  0  0  0
    7.1300    3.5189   -2.9328 H   0  0  0  0  0  0  0  0  0  0  0  0
    7.0064    3.1544   -5.5657 H   0  0  0  0  0  0  0  0  0  0  0  0
    5.3621    1.1907   -6.0445 H   0  0  0  0  0  0  0  0  0  0  0  0
    4.4335    0.2941   -3.7301 H   0  0  0  0  0  0  0  0  0  0  0  0
    5.1722    2.0500   -1.8413 H   0  0  0  0  0  0  0  0  0  0  0  0
    4.5714    2.9177   -3.3155 H   0  0  0  0  0  0  0  0  0  0  0  0
    7.0550   -0.6339   -3.8247 H   0  0  0  0  0  0  0  0  0  0  0  0
   -3.3039    0.8331   -0.5935 H   0  0  0  0  0  0  0  0  0  0  0  0
   -1.6119    0.4910   -0.7455 H   0  0  0  0  0  0  0  0  0  0  0  0
   -3.0597    2.4789    1.1671 H   0  0  0  0  0  0  0  0  0  0  0  0
   -2.0163    2.9161   -0.2428 H   0  0  0  0  0  0  0  0  0  0  0  0
   -1.2794    2.2216    1.2528 H   0  0  0  0  0  0  0  0  0  0  0  0
    3.5088    1.1206    1.5476 H   0  0  0  0  0  0  0  0  0  0  0  0
    1.9143    0.7519    0.0572 H   0  0  0  0  0  0  0  0  0  0  0  0
    0.2709    1.1617   -0.1960 H   0  0  0  0  0  0  0  0  0  0  0  0
    1.4463   -1.6877    0.2190 H   0  0  0  0  0  0  0  0  0  0  0  0
    1.0135   -0.9729   -1.3709 H   0  0  0  0  0  0  0  0  0  0  0  0
   -0.2753   -1.3746   -0.1763 H   0  0  0  0  0  0  0  0  0  0  0  0
   -5.0619   -0.5390   -0.3227 H   0  0  0  0  0  0  0  0  0  0  0  0
   -7.8580   -1.9914    1.8105 H   0  0  0  0  0  0  0  0  0  0  0  0
   -6.2779   -3.9838   -3.9202 H   0  0  0  0  0  0  0  0  0  0  0  0
   -7.2595   -5.0108   -6.2189 H   0  0  0  0  0  0  0  0  0  0  0  0
  -11.0816   -3.3573   -2.6326 H   0  0  0  0  0  0  0  0  0  0  0  0
  1  2  2  3
  2  3  1  0
  3  4  2  0
  3  5  1  0
  5  6  2  0
  6  7  1  0
  7  8  2  0
  8  9  1  0
  9 10  2  0
 10 11  1  0
 11 12  2  3
 12 13  1  0
 13 14  3  0
 12 15  1  0
 15 16  3  0
  8 17  1  0
 17 18  1  0
 18 19  1  0
 19 20  2  0
 20 21  1  0
 21 22  1  0
 21 23  1  0
  1 24  1  0
 24 25  1  0
 25 26  1  0
 26 27  1  0
 27 28  1  0
 28 29  1  0
 29 30  2  0
 30 31  1  0
 31 32  1  0
 29 33  1  0
 33 34  1  0
 34 35  2  0
 35 36  1  0
 36 37  1  0
 37 38  1  0
 36 39  1  0
 39 40  1  0
 40 41  1  0
 41 42  1  0
 42 43  1  0
 41 44  1  0
 44 45  1  0
 35 46  1  0
 46 47  2  0
 47 48  1  0
 47 49  1  0
 49 50  2  3
 50 51  1  0
 51 52  2  0
 51 53  1  0
 53 54  2  0
 54 55  1  0
 55 56  1  0
 56 57  2  0
 57 58  1  0
 57 59  1  0
 59 60  1  0
 60 61  1  0
 61 62  2  0
 62 63  1  0
 63 64  2  3
 64 65  1  0
 65 66  3  0
 64 67  1  0
 67 68  3  0
 11  2  1  0
 23 17  1  0
 43 24  2  0
 63 50  1  0
 10  5  1  0
 22 18  1  0
 42 26  2  0
 62 53  1  0
 23  7  1  0
 40 27  2  0
 60 55  2  0
 32 28  2  0
 39 33  2  0
 48 34  1  0
  1 69  1  0
  6 70  1  0
  9 71  1  0
 17 72  1  0
 18 73  1  0
 19 74  1  0
 20 75  1  0
 21 76  1  0
 22 77  1  0
 22 78  1  0
 23 79  1  0
 37 80  1  0
 37 81  1  0
 38 82  1  0
 38 83  1  0
 38 84  1  0
 43 85  1  0
 44 86  1  0
 44 87  1  0
 45 88  1  0
 45 89  1  0
 45 90  1  0
 46 91  1  0
 49 92  1  0
 54 93  1  0
 56 94  1  0
 61 95  1  0
M  END

