
     RDKit          3D

130146  0  0  0  0  0  0  0  0999 V2000
   -0.2551    3.2330    5.4924 C   0  0  0  0  0  0  0  0  0  0  0  0
   -0.6208    4.3218    4.7888 C   0  0  0  0  0  0  0  0  0  0  0  0
   -1.1252    5.5176    5.4590 C   0  0  0  0  0  0  0  0  0  0  0  0
   -1.0749    5.7436    6.6989 O   0  0  0  0  0  0  0  0  0  0  0  0
   -1.7076    6.4004    4.4780 C   0  0  0  0  0  0  0  0  0  0  0  0
   -2.2617    7.6792    4.7153 C   0  0  0  0  0  0  0  0  0  0  0  0
   -2.6193    8.3577    3.5672 C   0  0  0  0  0  0  0  0  0  0  0  0
   -2.4540    7.8107    2.2556 C   0  0  0  0  0  0  0  0  0  0  0  0
   -1.9288    6.5537    2.0166 C   0  0  0  0  0  0  0  0  0  0  0  0
   -1.5537    5.8282    3.1870 C   0  0  0  0  0  0  0  0  0  0  0  0
   -0.8085    4.5352    3.3129 C   0  0  0  0  0  0  0  0  0  0  0  0
   -0.1806    3.8905    2.2954 C   0  0  0  0  0  0  0  0  0  0  0  0
    1.0156    3.1136    2.4836 C   0  0  0  0  0  0  0  0  0  0  0  0
    1.9824    2.4904    2.6077 N   0  0  0  0  0  0  0  0  0  0  0  0
   -0.6002    4.0113    0.9255 C   0  0  0  0  0  0  0  0  0  0  0  0
   -0.9365    4.0921   -0.1801 N   0  0  0  0  0  0  0  0  0  0  0  0
   -2.9546    9.0837    1.6423 C   0  0  0  0  0  0  0  0  0  0  0  0
   -1.8777   10.0109    1.0028 C   0  0  0  0  0  0  0  0  0  0  0  0
   -2.5425   11.3558    0.8237 C   0  0  0  0  0  0  0  0  0  0  0  0
   -2.7028   11.8652    2.0508 C   0  0  0  0  0  0  0  0  0  0  0  0
   -2.1428   10.8462    3.0149 C   0  0  0  0  0  0  0  0  0  0  0  0
   -0.9749   10.3551    2.1763 C   0  0  0  0  0  0  0  0  0  0  0  0
   -3.1306    9.6418    2.9868 C   0  0  0  0  0  0  0  0  0  0  0  0
   -0.0082    1.8887    4.9584 C   0  0  0  0  0  0  0  0  0  0  0  0
    1.1218    1.1017    5.2612 C   0  0  0  0  0  0  0  0  0  0  0  0
    2.3168    1.5577    6.0153 C   0  0  0  0  0  0  0  0  0  0  0  0
    2.8424    2.8480    5.8251 C   0  0  0  0  0  0  0  0  0  0  0  0
    4.0002    3.2486    6.4961 C   0  0  0  0  0  0  0  0  0  0  0  0
    4.6557    2.3675    7.3686 C   0  0  0  0  0  0  0  0  0  0  0  0
    5.9346    2.7838    8.0437 C   0  0  0  0  0  0  0  0  0  0  0  0
    7.1226    2.6205    7.1002 C   0  0  0  0  0  0  0  0  0  0  0  0
    4.1352    1.0779    7.5594 C   0  0  0  0  0  0  0  0  0  0  0  0
    2.9708    0.6805    6.8948 C   0  0  0  0  0  0  0  0  0  0  0  0
    1.0236   -0.1458    4.6431 C   0  0  0  0  0  0  0  0  0  0  0  0
    2.1617   -1.3909    4.3748 S   0  0  0  0  0  0  0  0  0  0  0  0
    1.0750   -2.1859    3.3486 C   0  0  0  0  0  0  0  0  0  0  0  0
    1.0666   -3.2317    2.4830 C   0  0  0  0  0  0  0  0  0  0  0  0
    2.0462   -4.1852    2.2245 C   0  0  0  0  0  0  0  0  0  0  0  0
    1.8105   -5.1372    1.2022 C   0  0  0  0  0  0  0  0  0  0  0  0
    2.8063   -6.0248    0.9480 N   0  0  0  0  0  0  0  0  0  0  0  0
    3.9161   -5.5323    2.0732 S   0  0  0  0  0  0  0  0  0  0  0  0
    3.2381   -4.2483    2.8703 N   0  0  0  0  0  0  0  0  0  0  0  0
    0.6150   -5.0715    0.4802 C   0  0  0  0  0  0  0  0  0  0  0  0
    0.3206   -5.6533   -0.7162 C   0  0  0  0  0  0  0  0  0  0  0  0
    1.2901   -6.3476   -1.9254 S   0  0  0  0  0  0  0  0  0  0  0  0
    0.1986   -5.8685   -3.1328 C   0  0  0  0  0  0  0  0  0  0  0  0
    0.2756   -5.8697   -4.5284 C   0  0  0  0  0  0  0  0  0  0  0  0
    1.4555   -6.3332   -5.2814 C   0  0  0  0  0  0  0  0  0  0  0  0
    1.3327   -7.3114   -6.2792 C   0  0  0  0  0  0  0  0  0  0  0  0
    2.4453   -7.6873   -7.0376 C   0  0  0  0  0  0  0  0  0  0  0  0
    3.6985   -7.0964   -6.7986 C   0  0  0  0  0  0  0  0  0  0  0  0
    4.8812   -7.4401   -7.6628 C   0  0  0  0  0  0  0  0  0  0  0  0
    4.9533   -6.5017   -8.8632 C   0  0  0  0  0  0  0  0  0  0  0  0
    3.8223   -6.1275   -5.7914 C   0  0  0  0  0  0  0  0  0  0  0  0
    2.7091   -5.7533   -5.0352 C   0  0  0  0  0  0  0  0  0  0  0  0
   -0.7882   -5.1416   -5.0916 C   0  0  0  0  0  0  0  0  0  0  0  0
   -1.7845   -4.5412   -3.8443 S   0  0  0  0  0  0  0  0  0  0  0  0
   -0.8553   -5.1708   -2.6015 C   0  0  0  0  0  0  0  0  0  0  0  0
   -0.7691   -5.0141   -1.2169 C   0  0  0  0  0  0  0  0  0  0  0  0
   -1.2239   -4.0346   -0.3866 N   0  0  0  0  0  0  0  0  0  0  0  0
   -0.3700   -4.0813    0.7006 C   0  0  0  0  0  0  0  0  0  0  0  0
   -0.1606   -3.1627    1.7889 C   0  0  0  0  0  0  0  0  0  0  0  0
   -0.9200   -2.1249    2.2991 N   0  0  0  0  0  0  0  0  0  0  0  0
   -0.0964   -1.5383    3.2033 C   0  0  0  0  0  0  0  0  0  0  0  0
   -0.1344   -0.3588    3.9352 C   0  0  0  0  0  0  0  0  0  0  0  0
   -1.1079    1.0066    3.9870 S   0  0  0  0  0  0  0  0  0  0  0  0
   -2.3704   -1.8933    2.2884 C   0  0  0  0  0  0  0  0  0  0  0  0
   -3.1547   -3.1809    2.5462 C   0  0  0  0  0  0  0  0  0  0  0  0
   -2.1271   -2.9641   -0.8278 C   0  0  0  0  0  0  0  0  0  0  0  0
   -1.3494   -1.7085   -1.2101 C   0  0  0  0  0  0  0  0  0  0  0  0
   -1.0242   -4.9686   -6.5390 C   0  0  0  0  0  0  0  0  0  0  0  0
   -1.4269   -3.8277   -7.1344 C   0  0  0  0  0  0  0  0  0  0  0  0
   -1.7330   -2.5480   -6.4842 C   0  0  0  0  0  0  0  0  0  0  0  0
   -1.2727   -2.1285   -5.3865 O   0  0  0  0  0  0  0  0  0  0  0  0
   -2.5889   -1.7858   -7.3659 C   0  0  0  0  0  0  0  0  0  0  0  0
   -3.2467   -0.5848   -7.1056 C   0  0  0  0  0  0  0  0  0  0  0  0
   -4.1042   -0.0620   -8.0841 C   0  0  0  0  0  0  0  0  0  0  0  0
   -5.0081    1.5886   -7.7170 Br  0  0  0  0  0  0  0  0  0  0  0  0
   -4.3036   -0.7633   -9.2959 C   0  0  0  0  0  0  0  0  0  0  0  0
   -5.4999   -0.1100  -10.6433 Br  0  0  0  0  0  0  0  0  0  0  0  0
   -3.6278   -1.9753   -9.5310 C   0  0  0  0  0  0  0  0  0  0  0  0
   -2.7409   -2.4639   -8.5618 C   0  0  0  0  0  0  0  0  0  0  0  0
   -1.9086   -3.6980   -8.5414 C   0  0  0  0  0  0  0  0  0  0  0  0
   -1.4576   -4.3867   -9.6207 C   0  0  0  0  0  0  0  0  0  0  0  0
   -0.3872   -5.3473   -9.5262 C   0  0  0  0  0  0  0  0  0  0  0  0
    0.4761   -6.1155   -9.4549 N   0  0  0  0  0  0  0  0  0  0  0  0
   -1.8993   -4.1001  -10.9595 C   0  0  0  0  0  0  0  0  0  0  0  0
   -2.2443   -3.8832  -12.0438 N   0  0  0  0  0  0  0  0  0  0  0  0
   -0.1385    3.3329    6.5652 H   0  0  0  0  0  0  0  0  0  0  0  0
   -2.3466    8.1160    5.7017 H   0  0  0  0  0  0  0  0  0  0  0  0
   -1.7857    6.2196    1.0068 H   0  0  0  0  0  0  0  0  0  0  0  0
   -3.8949    8.9608    1.0613 H   0  0  0  0  0  0  0  0  0  0  0  0
   -1.3674    9.6096    0.1019 H   0  0  0  0  0  0  0  0  0  0  0  0
   -2.7544   11.8681   -0.1081 H   0  0  0  0  0  0  0  0  0  0  0  0
   -3.0706   12.8596    2.2831 H   0  0  0  0  0  0  0  0  0  0  0  0
   -1.8876   11.2370    4.0220 H   0  0  0  0  0  0  0  0  0  0  0  0
   -0.2324   11.1545    1.9442 H   0  0  0  0  0  0  0  0  0  0  0  0
   -0.4348    9.4836    2.6082 H   0  0  0  0  0  0  0  0  0  0  0  0
   -4.1832    9.8744    3.2639 H   0  0  0  0  0  0  0  0  0  0  0  0
    2.3812    3.5408    5.1359 H   0  0  0  0  0  0  0  0  0  0  0  0
    4.3967    4.2418    6.3225 H   0  0  0  0  0  0  0  0  0  0  0  0
    6.1080    2.1736    8.9563 H   0  0  0  0  0  0  0  0  0  0  0  0
    5.8627    3.8468    8.3610 H   0  0  0  0  0  0  0  0  0  0  0  0
    7.2075    1.5652    6.7603 H   0  0  0  0  0  0  0  0  0  0  0  0
    7.0046    3.2823    6.2146 H   0  0  0  0  0  0  0  0  0  0  0  0
    8.0584    2.8999    7.6275 H   0  0  0  0  0  0  0  0  0  0  0  0
    4.6340    0.3772    8.2188 H   0  0  0  0  0  0  0  0  0  0  0  0
    2.5826   -0.3138    7.0713 H   0  0  0  0  0  0  0  0  0  0  0  0
    0.3756   -7.7763   -6.4746 H   0  0  0  0  0  0  0  0  0  0  0  0
    2.3292   -8.4236   -7.8208 H   0  0  0  0  0  0  0  0  0  0  0  0
    4.8045   -8.4901   -8.0204 H   0  0  0  0  0  0  0  0  0  0  0  0
    5.8205   -7.3559   -7.0745 H   0  0  0  0  0  0  0  0  0  0  0  0
    5.0511   -5.4481   -8.5224 H   0  0  0  0  0  0  0  0  0  0  0  0
    5.8405   -6.7575   -9.4825 H   0  0  0  0  0  0  0  0  0  0  0  0
    4.0416   -6.6047   -9.4877 H   0  0  0  0  0  0  0  0  0  0  0  0
    4.7755   -5.6488   -5.6050 H   0  0  0  0  0  0  0  0  0  0  0  0
    2.8185   -4.9842   -4.2789 H   0  0  0  0  0  0  0  0  0  0  0  0
   -2.6739   -1.3489    1.3786 H   0  0  0  0  0  0  0  0  0  0  0  0
   -2.6478   -1.2012    3.1117 H   0  0  0  0  0  0  0  0  0  0  0  0
   -2.9165   -3.5731    3.5565 H   0  0  0  0  0  0  0  0  0  0  0  0
   -4.2435   -2.9669    2.4925 H   0  0  0  0  0  0  0  0  0  0  0  0
   -2.9158   -3.9693    1.8084 H   0  0  0  0  0  0  0  0  0  0  0  0
   -2.7143   -3.2933   -1.7043 H   0  0  0  0  0  0  0  0  0  0  0  0
   -2.9169   -2.7767   -0.1004 H   0  0  0  0  0  0  0  0  0  0  0  0
   -0.6213   -1.9459   -2.0146 H   0  0  0  0  0  0  0  0  0  0  0  0
   -2.0532   -0.9354   -1.5833 H   0  0  0  0  0  0  0  0  0  0  0  0
   -0.8007   -1.3020   -0.3377 H   0  0  0  0  0  0  0  0  0  0  0  0
   -0.9287   -5.8648   -7.1276 H   0  0  0  0  0  0  0  0  0  0  0  0
   -3.1122   -0.0764   -6.1591 H   0  0  0  0  0  0  0  0  0  0  0  0
   -3.8352   -2.5191  -10.4361 H   0  0  0  0  0  0  0  0  0  0  0  0
  1  2  2  3
  2  3  1  0
  3  4  2  0
  3  5  1  0
  5  6  2  0
  6  7  1  0
  7  8  2  0
  8  9  1  0
  9 10  2  0
 10 11  1  0
 11 12  2  3
 12 13  1  0
 13 14  3  0
 12 15  1  0
 15 16  3  0
  8 17  1  0
 17 18  1  0
 18 19  1  0
 19 20  2  0
 20 21  1  0
 21 22  1  0
 21 23  1  0
  1 24  1  0
 24 25  2  0
 25 26  1  0
 26 27  2  0
 27 28  1  0
 28 29  2  0
 29 30  1  0
 30 31  1  0
 29 32  1  0
 32 33  2  0
 25 34  1  0
 34 35  1  0
 35 36  1  0
 36 37  1  0
 37 38  1  0
 38 39  1  0
 39 40  2  0
 40 41  1  0
 41 42  1  0
 39 43  1  0
 43 44  1  0
 44 45  1  0
 45 46  1  0
 46 47  1  0
 47 48  1  0
 48 49  2  0
 49 50  1  0
 50 51  2  0
 51 52  1  0
 52 53  1  0
 51 54  1  0
 54 55  2  0
 47 56  2  0
 56 57  1  0
 57 58  1  0
 58 59  1  0
 59 60  1  0
 60 61  1  0
 61 62  1  0
 62 63  1  0
 63 64  1  0
 64 65  1  0
 65 66  1  0
 63 67  1  0
 67 68  1  0
 60 69  1  0
 69 70  1  0
 56 71  1  0
 71 72  2  3
 72 73  1  0
 73 74  2  0
 73 75  1  0
 75 76  2  0
 76 77  1  0
 77 78  1  0
 77 79  2  0
 79 80  1  0
 79 81  1  0
 81 82  2  0
 82 83  1  0
 83 84  2  3
 84 85  1  0
 85 86  3  0
 84 87  1  0
 87 88  3  0
 11  2  1  0
 23 17  1  0
 66 24  1  0
 83 72  1  0
 10  5  1  0
 22 18  1  0
 33 26  1  0
 65 34  2  0
 82 75  1  0
 23  7  1  0
 64 36  2  0
 62 37  2  0
 42 38  2  0
 61 43  2  0
 59 44  2  0
 58 46  2  0
 55 48  1  0
  1 89  1  0
  6 90  1  0
  9 91  1  0
 17 92  1  0
 18 93  1  0
 19 94  1  0
 20 95  1  0
 21 96  1  0
 22 97  1  0
 22 98  1  0
 23 99  1  0
 27100  1  0
 28101  1  0
 30102  1  0
 30103  1  0
 31104  1  0
 31105  1  0
 31106  1  0
 32107  1  0
 33108  1  0
 49109  1  0
 50110  1  0
 52111  1  0
 52112  1  0
 53113  1  0
 53114  1  0
 53115  1  0
 54116  1  0
 55117  1  0
 67118  1  0
 67119  1  0
 68120  1  0
 68121  1  0
 68122  1  0
 69123  1  0
 69124  1  0
 70125  1  0
 70126  1  0
 70127  1  0
 71128  1  0
 76129  1  0
 81130  1  0
M  END

