
     RDKit          3D

106120  0  0  0  0  0  0  0  0999 V2000
   -7.4870    4.9298    0.7384 C   0  0  0  0  0  0  0  0  0  0  0  0
   -6.3889    5.3926    0.0236 C   0  0  0  0  0  0  0  0  0  0  0  0
   -5.7078    4.4984   -1.0419 C   0  0  0  0  0  0  0  0  0  0  0  0
   -5.9978    3.4722   -1.4315 O   0  0  0  0  0  0  0  0  0  0  0  0
   -4.5556    5.3721   -1.4208 C   0  0  0  0  0  0  0  0  0  0  0  0
   -3.5209    5.0909   -2.2575 C   0  0  0  0  0  0  0  0  0  0  0  0
   -2.4904    5.8081   -2.5277 C   0  0  0  0  0  0  0  0  0  0  0  0
   -2.3550    7.1337   -1.8714 C   0  0  0  0  0  0  0  0  0  0  0  0
   -3.4294    7.3868   -1.0046 C   0  0  0  0  0  0  0  0  0  0  0  0
   -4.5016    6.5514   -0.7713 C   0  0  0  0  0  0  0  0  0  0  0  0
   -5.6657    6.5802    0.1629 C   0  0  0  0  0  0  0  0  0  0  0  0
   -5.7523    7.3325    1.2845 C   0  0  0  0  0  0  0  0  0  0  0  0
   -4.9946    8.7201    1.3372 C   0  0  0  0  0  0  0  0  0  0  0  0
   -4.5850    9.4884    1.3544 N   0  0  0  0  0  0  0  0  0  0  0  0
   -6.2681    6.7701    2.4252 C   0  0  0  0  0  0  0  0  0  0  0  0
   -6.7175    6.2807    3.4570 N   0  0  0  0  0  0  0  0  0  0  0  0
   -1.1291    7.4338   -2.5864 C   0  0  0  0  0  0  0  0  0  0  0  0
    0.1380    7.4099   -1.7177 C   0  0  0  0  0  0  0  0  0  0  0  0
   -0.2538    6.5290   -0.6135 C   0  0  0  0  0  0  0  0  0  0  0  0
   -0.0804    5.2990   -1.0463 C   0  0  0  0  0  0  0  0  0  0  0  0
   -0.0019    5.3205   -2.5120 C   0  0  0  0  0  0  0  0  0  0  0  0
    0.9778    6.5263   -2.6215 C   0  0  0  0  0  0  0  0  0  0  0  0
   -1.1690    6.0451   -3.1692 C   0  0  0  0  0  0  0  0  0  0  0  0
   -7.7264    3.5647    0.3208 C   0  0  0  0  0  0  0  0  0  0  0  0
   -8.1883    2.4874   -0.1129 C   0  0  0  0  0  0  0  0  0  0  0  0
   -7.6065    1.3160   -0.1555 C   0  0  0  0  0  0  0  0  0  0  0  0
   -8.0473   -0.3352   -1.1311 S   0  0  0  0  0  0  0  0  0  0  0  0
   -6.5612   -1.1809   -0.6432 C   0  0  0  0  0  0  0  0  0  0  0  0
   -5.7417   -2.2250   -0.6907 C   0  0  0  0  0  0  0  0  0  0  0  0
   -5.9138   -3.5040   -1.2953 C   0  0  0  0  0  0  0  0  0  0  0  0
   -4.9834   -4.5731   -1.1994 C   0  0  0  0  0  0  0  0  0  0  0  0
   -5.2923   -5.6045   -1.6659 N   0  0  0  0  0  0  0  0  0  0  0  0
   -6.7999   -5.5952   -2.3492 S   0  0  0  0  0  0  0  0  0  0  0  0
   -7.0337   -3.8649   -1.9232 N   0  0  0  0  0  0  0  0  0  0  0  0
   -3.8074   -4.2107   -0.4698 C   0  0  0  0  0  0  0  0  0  0  0  0
   -2.6074   -4.9022   -0.3987 C   0  0  0  0  0  0  0  0  0  0  0  0
   -1.7268   -3.8885    0.3194 C   0  0  0  0  0  0  0  0  0  0  0  0
   -2.3018   -3.0081    0.5365 N   0  0  0  0  0  0  0  0  0  0  0  0
   -1.5935   -1.7253    1.1081 C   0  0  0  0  0  0  0  0  0  0  0  0
   -1.3257   -2.0298    2.5389 C   0  0  0  0  0  0  0  0  0  0  0  0
   -3.6041   -2.8973    0.1793 C   0  0  0  0  0  0  0  0  0  0  0  0
   -4.6122   -2.0549    0.0279 C   0  0  0  0  0  0  0  0  0  0  0  0
   -4.7670   -0.8063    0.5663 N   0  0  0  0  0  0  0  0  0  0  0  0
   -5.8146   -0.1536    0.2487 C   0  0  0  0  0  0  0  0  0  0  0  0
   -6.8721    0.6821   -0.0023 C   0  0  0  0  0  0  0  0  0  0  0  0
   -5.8763    2.7021    0.9085 Se  0  0  0  0  0  2  0  0  0  0  0  0
   -4.0985   -0.3806    1.8332 C   0  0  0  0  0  0  0  0  0  0  0  0
   -5.1421   -0.2135    2.9950 C   0  0  0  0  0  0  0  0  0  0  0  0
   -0.4544   -4.8577    0.3069 C   0  0  0  0  0  0  0  0  0  0  0  0
   -0.1704   -5.8208   -0.0192 C   0  0  0  0  0  0  0  0  0  0  0  0
   -1.7443   -6.3035   -0.7223 S   0  0  0  0  0  0  0  0  0  0  0  0
    1.1135   -6.2151   -0.0082 C   0  0  0  0  0  0  0  0  0  0  0  0
    2.3085   -5.9874    0.2239 C   0  0  0  0  0  0  0  0  0  0  0  0
    1.2020   -3.9692    0.8478 Se  0  0  0  0  0  2  0  0  0  0  0  0
    3.5303   -5.3483    0.4532 C   0  0  0  0  0  0  0  0  0  0  0  0
    4.8308   -5.2328   -0.0873 C   0  0  0  0  0  0  0  0  0  0  0  0
    5.5094   -5.7774   -1.1060 C   0  0  0  0  0  0  0  0  0  0  0  0
    5.3527   -6.8766   -1.7179 O   0  0  0  0  0  0  0  0  0  0  0  0
    6.6123   -4.8334   -1.4707 C   0  0  0  0  0  0  0  0  0  0  0  0
    7.7305   -4.8398   -2.2427 C   0  0  0  0  0  0  0  0  0  0  0  0
    8.7226   -3.9714   -2.2926 C   0  0  0  0  0  0  0  0  0  0  0  0
    9.8341   -3.9988   -3.0613 O   0  0  0  0  0  0  0  0  0  0  0  0
   10.3665   -4.8913   -3.9645 C   0  0  0  0  0  0  0  0  0  0  0  0
    8.6692   -2.7983   -1.4180 C   0  0  0  0  0  0  0  0  0  0  0  0
    9.6565   -1.9294   -1.4351 O   0  0  0  0  0  0  0  0  0  0  0  0
   10.3901   -0.9365   -1.1634 C   0  0  0  0  0  0  0  0  0  0  0  0
    7.5032   -2.7848   -0.6258 C   0  0  0  0  0  0  0  0  0  0  0  0
    6.5200   -3.7064   -0.6062 C   0  0  0  0  0  0  0  0  0  0  0  0
    5.3106   -3.9558    0.3538 C   0  0  0  0  0  0  0  0  0  0  0  0
    5.5181   -3.2571    1.5497 C   0  0  0  0  0  0  0  0  0  0  0  0
    5.1326   -4.2262    2.6117 C   0  0  0  0  0  0  0  0  0  0  0  0
    4.7945   -5.0431    3.5389 N   0  0  0  0  0  0  0  0  0  0  0  0
    5.7616   -1.9624    1.6773 C   0  0  0  0  0  0  0  0  0  0  0  0
    5.9689   -0.7632    1.8066 N   0  0  0  0  0  0  0  0  0  0  0  0
   -8.0346    5.4741    1.4031 H   0  0  0  0  0  0  0  0  0  0  0  0
   -3.6632    4.0905   -2.8043 H   0  0  0  0  0  0  0  0  0  0  0  0
   -3.3717    8.3248   -0.4802 H   0  0  0  0  0  0  0  0  0  0  0  0
   -1.1273    8.2790   -3.2952 H   0  0  0  0  0  0  0  0  0  0  0  0
    0.5489    8.3583   -1.5342 H   0  0  0  0  0  0  0  0  0  0  0  0
   -0.6337    6.8389    0.3383 H   0  0  0  0  0  0  0  0  0  0  0  0
    0.0265    4.4050   -0.4199 H   0  0  0  0  0  0  0  0  0  0  0  0
    0.3467    4.4310   -2.9890 H   0  0  0  0  0  0  0  0  0  0  0  0
    1.9599    6.3307   -2.2743 H   0  0  0  0  0  0  0  0  0  0  0  0
    0.8964    6.8906   -3.6939 H   0  0  0  0  0  0  0  0  0  0  0  0
   -1.1351    6.0190   -4.2693 H   0  0  0  0  0  0  0  0  0  0  0  0
   -9.2991    2.6622   -0.5452 H   0  0  0  0  0  0  0  0  0  0  0  0
   -1.9925   -0.8343    0.9120 H   0  0  0  0  0  0  0  0  0  0  0  0
   -0.5066   -1.8119    0.6463 H   0  0  0  0  0  0  0  0  0  0  0  0
   -0.3123   -2.5089    2.7396 H   0  0  0  0  0  0  0  0  0  0  0  0
   -1.4845   -1.1998    3.2610 H   0  0  0  0  0  0  0  0  0  0  0  0
   -1.9873   -2.8585    2.9830 H   0  0  0  0  0  0  0  0  0  0  0  0
   -3.5417    0.4886    1.8243 H   0  0  0  0  0  0  0  0  0  0  0  0
   -3.7162   -1.3480    2.3050 H   0  0  0  0  0  0  0  0  0  0  0  0
   -5.7603    0.6497    2.8844 H   0  0  0  0  0  0  0  0  0  0  0  0
   -4.5108    0.0270    3.9248 H   0  0  0  0  0  0  0  0  0  0  0  0
   -5.6237   -1.1505    3.2600 H   0  0  0  0  0  0  0  0  0  0  0  0
    1.1573   -7.4037   -0.4601 H   0  0  0  0  0  0  0  0  0  0  0  0
    3.5609   -4.8171    1.4622 H   0  0  0  0  0  0  0  0  0  0  0  0
    7.8467   -5.7043   -2.9890 H   0  0  0  0  0  0  0  0  0  0  0  0
   11.1433   -4.3647   -4.6129 H   0  0  0  0  0  0  0  0  0  0  0  0
    9.6021   -5.3648   -4.5925 H   0  0  0  0  0  0  0  0  0  0  0  0
   10.9943   -5.7241   -3.5154 H   0  0  0  0  0  0  0  0  0  0  0  0
   10.0196    0.0356   -0.7258 H   0  0  0  0  0  0  0  0  0  0  0  0
   11.1128   -0.5751   -1.9980 H   0  0  0  0  0  0  0  0  0  0  0  0
   11.2079   -1.2067   -0.3588 H   0  0  0  0  0  0  0  0  0  0  0  0
    7.4419   -1.8773    0.0080 H   0  0  0  0  0  0  0  0  0  0  0  0
  1  2  2  3
  2  3  1  0
  3  4  2  0
  3  5  1  0
  5  6  2  0
  6  7  1  0
  7  8  2  0
  8  9  1  0
  9 10  2  0
 10 11  1  0
 11 12  2  3
 12 13  1  0
 13 14  3  0
 12 15  1  0
 15 16  3  0
  8 17  1  0
 17 18  1  0
 18 19  1  0
 19 20  2  0
 20 21  1  0
 21 22  1  0
 21 23  1  0
  1 24  1  0
 24 25  2  0
 25 26  1  0
 26 27  1  0
 27 28  1  0
 28 29  1  0
 29 30  1  0
 30 31  1  0
 31 32  2  0
 32 33  1  0
 33 34  1  0
 31 35  1  0
 35 36  1  0
 36 37  2  0
 37 38  1  0
 38 39  1  0
 39 40  1  0
 38 41  1  0
 41 42  1  0
 42 43  1  0
 43 44  1  0
 44 45  1  0
 45 46  1  0
 43 47  1  0
 47 48  1  0
 37 49  1  0
 49 50  2  0
 50 51  1  0
 50 52  1  0
 52 53  2  0
 53 54  1  0
 53 55  1  0
 55 56  2  3
 56 57  1  0
 57 58  2  0
 57 59  1  0
 59 60  2  0
 60 61  1  0
 61 62  1  0
 62 63  1  0
 61 64  2  0
 64 65  1  0
 65 66  1  0
 64 67  1  0
 67 68  2  0
 68 69  1  0
 69 70  2  3
 70 71  1  0
 71 72  3  0
 70 73  1  0
 73 74  3  0
 11  2  1  0
 23 17  1  0
 46 24  1  0
 54 49  1  0
 69 56  1  0
 10  5  1  0
 22 18  1  0
 45 26  2  0
 68 59  1  0
 23  7  1  0
 44 28  2  0
 42 29  2  0
 34 30  2  0
 41 35  2  0
 51 36  1  0
  1 75  1  0
  6 76  1  0
  9 77  1  0
 17 78  1  0
 18 79  1  0
 19 80  1  0
 20 81  1  0
 21 82  1  0
 22 83  1  0
 22 84  1  0
 23 85  1  0
 25 86  1  0
 39 87  1  0
 39 88  1  0
 40 89  1  0
 40 90  1  0
 40 91  1  0
 47 92  1  0
 47 93  1  0
 48 94  1  0
 48 95  1  0
 48 96  1  0
 52 97  1  0
 55 98  1  0
 60 99  1  0
 63100  1  0
 63101  1  0
 63102  1  0
 66103  1  0
 66104  1  0
 66105  1  0
 67106  1  0
M  END

