
     RDKit          3D

133149  0  0  0  0  0  0  0  0999 V2000
    5.2415   -1.9850    3.9732 C   0  0  0  0  0  0  0  0  0  0  0  0
    4.4567   -1.7505    5.0433 C   0  0  0  0  0  0  0  0  0  0  0  0
    3.2667   -0.8891    5.0604 C   0  0  0  0  0  0  0  0  0  0  0  0
    2.6412   -0.4512    4.0574 O   0  0  0  0  0  0  0  0  0  0  0  0
    2.9994   -0.4942    6.4252 C   0  0  0  0  0  0  0  0  0  0  0  0
    2.0658    0.4780    6.8565 C   0  0  0  0  0  0  0  0  0  0  0  0
    2.1412    0.7681    8.2048 C   0  0  0  0  0  0  0  0  0  0  0  0
    3.0771    0.1393    9.0875 C   0  0  0  0  0  0  0  0  0  0  0  0
    3.9981   -0.8074    8.6703 C   0  0  0  0  0  0  0  0  0  0  0  0
    3.9316   -1.1292    7.2845 C   0  0  0  0  0  0  0  0  0  0  0  0
    4.8065   -2.0200    6.4720 C   0  0  0  0  0  0  0  0  0  0  0  0
    5.5857   -3.0328    6.9347 C   0  0  0  0  0  0  0  0  0  0  0  0
    6.2122   -3.9843    6.0547 C   0  0  0  0  0  0  0  0  0  0  0  0
    6.7170   -4.7552    5.3552 N   0  0  0  0  0  0  0  0  0  0  0  0
    5.7301   -3.3250    8.3381 C   0  0  0  0  0  0  0  0  0  0  0  0
    5.8550   -3.5733    9.4616 N   0  0  0  0  0  0  0  0  0  0  0  0
    2.5616    0.9500   10.2381 C   0  0  0  0  0  0  0  0  0  0  0  0
    1.6427    0.2127   11.2576 C   0  0  0  0  0  0  0  0  0  0  0  0
    0.9683    1.2966   12.0636 C   0  0  0  0  0  0  0  0  0  0  0  0
    0.1079    1.9050   11.2366 C   0  0  0  0  0  0  0  0  0  0  0  0
    0.2232    1.2016    9.9049 C   0  0  0  0  0  0  0  0  0  0  0  0
    0.4565   -0.2136   10.4075 C   0  0  0  0  0  0  0  0  0  0  0  0
    1.6122    1.6031    9.3313 C   0  0  0  0  0  0  0  0  0  0  0  0
    4.8682   -1.6376    2.5929 C   0  0  0  0  0  0  0  0  0  0  0  0
    5.6314   -0.8362    1.7230 C   0  0  0  0  0  0  0  0  0  0  0  0
    6.9298   -0.2203    2.0605 C   0  0  0  0  0  0  0  0  0  0  0  0
    8.0833   -0.7419    1.4552 C   0  0  0  0  0  0  0  0  0  0  0  0
    9.3428   -0.2232    1.7638 C   0  0  0  0  0  0  0  0  0  0  0  0
    9.4607    0.8298    2.6705 C   0  0  0  0  0  0  0  0  0  0  0  0
    8.3186    1.3744    3.2663 C   0  0  0  0  0  0  0  0  0  0  0  0
    7.0424    0.8587    2.9754 C   0  0  0  0  0  0  0  0  0  0  0  0
    5.8333    1.5469    3.5695 C   0  0  0  0  0  0  0  0  0  0  0  0
    5.4140    2.7367    2.7123 C   0  0  0  0  0  0  0  0  0  0  0  0
    5.0143   -0.7208    0.4781 C   0  0  0  0  0  0  0  0  0  0  0  0
    5.3277    0.2294   -0.9087 S   0  0  0  0  0  0  0  0  0  0  0  0
    3.8764   -0.3007   -1.6187 C   0  0  0  0  0  0  0  0  0  0  0  0
    3.1069   -0.0666   -2.7208 C   0  0  0  0  0  0  0  0  0  0  0  0
    3.3435    0.7076   -3.8590 C   0  0  0  0  0  0  0  0  0  0  0  0
    2.3364    0.7644   -4.8643 C   0  0  0  0  0  0  0  0  0  0  0  0
    2.6012    1.5254   -5.9542 N   0  0  0  0  0  0  0  0  0  0  0  0
    4.1194    2.0572   -5.5636 S   0  0  0  0  0  0  0  0  0  0  0  0
    4.4859    1.3989   -4.0886 N   0  0  0  0  0  0  0  0  0  0  0  0
    1.1314    0.0854   -4.6516 C   0  0  0  0  0  0  0  0  0  0  0  0
   -0.0593    0.1883   -5.3115 C   0  0  0  0  0  0  0  0  0  0  0  0
   -0.7256    1.1384   -6.5552 S   0  0  0  0  0  0  0  0  0  0  0  0
   -2.3066    0.7237   -6.0614 C   0  0  0  0  0  0  0  0  0  0  0  0
   -3.5837    1.0937   -6.4894 C   0  0  0  0  0  0  0  0  0  0  0  0
   -3.8561    2.0212   -7.6004 C   0  0  0  0  0  0  0  0  0  0  0  0
   -4.0152    3.4140   -7.3829 C   0  0  0  0  0  0  0  0  0  0  0  0
   -3.8474    4.0436   -6.0155 C   0  0  0  0  0  0  0  0  0  0  0  0
   -2.4353    4.5927   -5.8356 C   0  0  0  0  0  0  0  0  0  0  0  0
   -4.2822    4.2497   -8.4818 C   0  0  0  0  0  0  0  0  0  0  0  0
   -4.4185    3.7143   -9.7645 C   0  0  0  0  0  0  0  0  0  0  0  0
   -4.2829    2.3417   -9.9693 C   0  0  0  0  0  0  0  0  0  0  0  0
   -3.9950    1.4980   -8.8944 C   0  0  0  0  0  0  0  0  0  0  0  0
   -4.5784    0.5318   -5.6687 C   0  0  0  0  0  0  0  0  0  0  0  0
   -3.8441   -0.4272   -4.4669 S   0  0  0  0  0  0  0  0  0  0  0  0
   -2.2848   -0.0908   -4.9586 C   0  0  0  0  0  0  0  0  0  0  0  0
   -0.9996   -0.3879   -4.5266 C   0  0  0  0  0  0  0  0  0  0  0  0
   -0.4945   -0.8788   -3.3665 N   0  0  0  0  0  0  0  0  0  0  0  0
    0.8599   -0.6384   -3.4712 C   0  0  0  0  0  0  0  0  0  0  0  0
    1.9157   -0.7943   -2.5211 C   0  0  0  0  0  0  0  0  0  0  0  0
    2.0096   -1.5531   -1.3725 N   0  0  0  0  0  0  0  0  0  0  0  0
    3.1941   -1.1673   -0.8410 C   0  0  0  0  0  0  0  0  0  0  0  0
    3.8349   -1.4127    0.3601 C   0  0  0  0  0  0  0  0  0  0  0  0
    3.4707   -2.2066    1.7925 S   0  0  0  0  0  0  0  0  0  0  0  0
    1.2948   -2.7661   -0.9518 C   0  0  0  0  0  0  0  0  0  0  0  0
    1.1070   -3.7518   -2.1093 C   0  0  0  0  0  0  0  0  0  0  0  0
   -1.3056   -1.1545   -2.1719 C   0  0  0  0  0  0  0  0  0  0  0  0
   -1.1100   -0.0866   -1.0998 C   0  0  0  0  0  0  0  0  0  0  0  0
   -6.0309    0.5562   -5.9293 C   0  0  0  0  0  0  0  0  0  0  0  0
   -6.9556    0.5725   -4.9525 C   0  0  0  0  0  0  0  0  0  0  0  0
   -6.6811    0.8422   -3.5371 C   0  0  0  0  0  0  0  0  0  0  0  0
   -5.7024    1.4897   -3.0741 O   0  0  0  0  0  0  0  0  0  0  0  0
   -7.7646    0.3015   -2.7495 C   0  0  0  0  0  0  0  0  0  0  0  0
   -7.8450    0.2017   -1.3616 C   0  0  0  0  0  0  0  0  0  0  0  0
   -8.9431   -0.4651   -0.8038 C   0  0  0  0  0  0  0  0  0  0  0  0
   -9.9349   -1.0291   -1.6346 C   0  0  0  0  0  0  0  0  0  0  0  0
  -11.0632   -1.8062   -1.0245 C   0  0  0  0  0  0  0  0  0  0  0  0
   -9.8194   -0.9234   -3.0382 C   0  0  0  0  0  0  0  0  0  0  0  0
   -8.7346   -0.2173   -3.5910 C   0  0  0  0  0  0  0  0  0  0  0  0
   -8.3531    0.0380   -5.0143 C   0  0  0  0  0  0  0  0  0  0  0  0
   -9.1501   -0.0744   -6.1084 C   0  0  0  0  0  0  0  0  0  0  0  0
   -8.7570    0.3987   -7.4102 C   0  0  0  0  0  0  0  0  0  0  0  0
   -8.4587    0.7756   -8.4662 N   0  0  0  0  0  0  0  0  0  0  0  0
  -10.4875   -0.6068   -6.0393 C   0  0  0  0  0  0  0  0  0  0  0  0
  -11.5612   -1.0459   -5.9899 N   0  0  0  0  0  0  0  0  0  0  0  0
    6.2472   -2.3579    4.1109 H   0  0  0  0  0  0  0  0  0  0  0  0
    1.3840    0.9886    6.1874 H   0  0  0  0  0  0  0  0  0  0  0  0
    4.7235   -1.2085    9.3598 H   0  0  0  0  0  0  0  0  0  0  0  0
    3.3226    1.6316   10.6786 H   0  0  0  0  0  0  0  0  0  0  0  0
    2.1314   -0.5859   11.8518 H   0  0  0  0  0  0  0  0  0  0  0  0
    1.0826    1.4952   13.1230 H   0  0  0  0  0  0  0  0  0  0  0  0
   -0.5983    2.6800   11.5115 H   0  0  0  0  0  0  0  0  0  0  0  0
   -0.6398    1.3384    9.2193 H   0  0  0  0  0  0  0  0  0  0  0  0
    0.7067   -0.9467    9.6095 H   0  0  0  0  0  0  0  0  0  0  0  0
   -0.3968   -0.6169   11.0068 H   0  0  0  0  0  0  0  0  0  0  0  0
    1.7819    2.6951    9.1928 H   0  0  0  0  0  0  0  0  0  0  0  0
    8.0088   -1.5594    0.7482 H   0  0  0  0  0  0  0  0  0  0  0  0
   10.2272   -0.6360    1.2976 H   0  0  0  0  0  0  0  0  0  0  0  0
   10.4377    1.2329    2.9041 H   0  0  0  0  0  0  0  0  0  0  0  0
    8.4292    2.2115    3.9434 H   0  0  0  0  0  0  0  0  0  0  0  0
    6.0625    1.8983    4.5991 H   0  0  0  0  0  0  0  0  0  0  0  0
    4.9765    0.8565    3.6559 H   0  0  0  0  0  0  0  0  0  0  0  0
    5.2032    2.4052    1.6725 H   0  0  0  0  0  0  0  0  0  0  0  0
    4.4921    3.1876    3.1341 H   0  0  0  0  0  0  0  0  0  0  0  0
    6.2177    3.5036    2.6998 H   0  0  0  0  0  0  0  0  0  0  0  0
   -4.0637    3.3119   -5.2072 H   0  0  0  0  0  0  0  0  0  0  0  0
   -4.5749    4.8739   -5.8918 H   0  0  0  0  0  0  0  0  0  0  0  0
   -2.2734    4.8807   -4.7745 H   0  0  0  0  0  0  0  0  0  0  0  0
   -2.2836    5.4825   -6.4862 H   0  0  0  0  0  0  0  0  0  0  0  0
   -1.6776    3.8241   -6.0987 H   0  0  0  0  0  0  0  0  0  0  0  0
   -4.3876    5.3187   -8.3448 H   0  0  0  0  0  0  0  0  0  0  0  0
   -4.6337    4.3658  -10.6014 H   0  0  0  0  0  0  0  0  0  0  0  0
   -4.3920    1.9295  -10.9637 H   0  0  0  0  0  0  0  0  0  0  0  0
   -3.8834    0.4345   -9.0691 H   0  0  0  0  0  0  0  0  0  0  0  0
    1.8933   -3.3101   -0.1938 H   0  0  0  0  0  0  0  0  0  0  0  0
    0.3639   -2.5118   -0.4202 H   0  0  0  0  0  0  0  0  0  0  0  0
    2.0975   -4.0733   -2.4911 H   0  0  0  0  0  0  0  0  0  0  0  0
    0.5553   -4.6435   -1.7475 H   0  0  0  0  0  0  0  0  0  0  0  0
    0.5376   -3.3057   -2.9469 H   0  0  0  0  0  0  0  0  0  0  0  0
   -1.1414   -2.1749   -1.8070 H   0  0  0  0  0  0  0  0  0  0  0  0
   -2.3784   -1.1657   -2.4187 H   0  0  0  0  0  0  0  0  0  0  0  0
   -1.7401   -0.3240   -0.2149 H   0  0  0  0  0  0  0  0  0  0  0  0
   -0.0570   -0.0323   -0.7678 H   0  0  0  0  0  0  0  0  0  0  0  0
   -1.4125    0.9076   -1.4957 H   0  0  0  0  0  0  0  0  0  0  0  0
   -6.3080    0.3818   -6.9500 H   0  0  0  0  0  0  0  0  0  0  0  0
   -7.0687    0.6080   -0.7288 H   0  0  0  0  0  0  0  0  0  0  0  0
   -9.0099   -0.5628    0.2719 H   0  0  0  0  0  0  0  0  0  0  0  0
  -11.3798   -1.3417   -0.0652 H   0  0  0  0  0  0  0  0  0  0  0  0
  -10.7307   -2.8468   -0.8275 H   0  0  0  0  0  0  0  0  0  0  0  0
  -11.9402   -1.8266   -1.7044 H   0  0  0  0  0  0  0  0  0  0  0  0
  -10.5500   -1.4201   -3.6533 H   0  0  0  0  0  0  0  0  0  0  0  0
  1  2  2  3
  2  3  1  0
  3  4  2  0
  3  5  1  0
  5  6  2  0
  6  7  1  0
  7  8  2  0
  8  9  1  0
  9 10  2  0
 10 11  1  0
 11 12  2  3
 12 13  1  0
 13 14  3  0
 12 15  1  0
 15 16  3  0
  8 17  1  0
 17 18  1  0
 18 19  1  0
 19 20  2  0
 20 21  1  0
 21 22  1  0
 21 23  1  0
  1 24  1  0
 24 25  2  0
 25 26  1  0
 26 27  2  0
 27 28  1  0
 28 29  2  0
 29 30  1  0
 30 31  2  0
 31 32  1  0
 32 33  1  0
 25 34  1  0
 34 35  1  0
 35 36  1  0
 36 37  1  0
 37 38  1  0
 38 39  1  0
 39 40  2  0
 40 41  1  0
 41 42  1  0
 39 43  1  0
 43 44  1  0
 44 45  1  0
 45 46  1  0
 46 47  1  0
 47 48  1  0
 48 49  2  0
 49 50  1  0
 50 51  1  0
 49 52  1  0
 52 53  2  0
 53 54  1  0
 54 55  2  0
 47 56  2  0
 56 57  1  0
 57 58  1  0
 58 59  1  0
 59 60  1  0
 60 61  1  0
 61 62  1  0
 62 63  1  0
 63 64  1  0
 64 65  1  0
 65 66  1  0
 63 67  1  0
 67 68  1  0
 60 69  1  0
 69 70  1  0
 56 71  1  0
 71 72  2  3
 72 73  1  0
 73 74  2  0
 73 75  1  0
 75 76  2  0
 76 77  1  0
 77 78  2  0
 78 79  1  0
 78 80  1  0
 80 81  2  0
 81 82  1  0
 82 83  2  3
 83 84  1  0
 84 85  3  0
 83 86  1  0
 86 87  3  0
 11  2  1  0
 23 17  1  0
 66 24  1  0
 82 72  1  0
 10  5  1  0
 22 18  1  0
 31 26  1  0
 65 34  2  0
 81 75  1  0
 23  7  1  0
 64 36  2  0
 62 37  2  0
 42 38  2  0
 61 43  2  0
 59 44  2  0
 58 46  2  0
 55 48  1  0
  1 88  1  0
  6 89  1  0
  9 90  1  0
 17 91  1  0
 18 92  1  0
 19 93  1  0
 20 94  1  0
 21 95  1  0
 22 96  1  0
 22 97  1  0
 23 98  1  0
 27 99  1  0
 28100  1  0
 29101  1  0
 30102  1  0
 32103  1  0
 32104  1  0
 33105  1  0
 33106  1  0
 33107  1  0
 50108  1  0
 50109  1  0
 51110  1  0
 51111  1  0
 51112  1  0
 52113  1  0
 53114  1  0
 54115  1  0
 55116  1  0
 67117  1  0
 67118  1  0
 68119  1  0
 68120  1  0
 68121  1  0
 69122  1  0
 69123  1  0
 70124  1  0
 70125  1  0
 70126  1  0
 71127  1  0
 76128  1  0
 77129  1  0
 79130  1  0
 79131  1  0
 79132  1  0
 80133  1  0
M  END

