
     RDKit          3D

108121  0  0  0  0  0  0  0  0999 V2000
    4.5889   -2.2052   -1.5737 C   0  0  0  0  0  0  0  0  0  0  0  0
    5.6326   -1.8968   -0.7840 C   0  0  0  0  0  0  0  0  0  0  0  0
    5.6206   -0.8835    0.2794 C   0  0  0  0  0  0  0  0  0  0  0  0
    4.6017   -0.3508    0.7930 O   0  0  0  0  0  0  0  0  0  0  0  0
    6.9889   -0.5328    0.5950 C   0  0  0  0  0  0  0  0  0  0  0  0
    7.4285    0.4986    1.4592 C   0  0  0  0  0  0  0  0  0  0  0  0
    8.8006    0.6710    1.4726 C   0  0  0  0  0  0  0  0  0  0  0  0
    9.6929   -0.1129    0.6723 C   0  0  0  0  0  0  0  0  0  0  0  0
    9.2687   -1.1115   -0.1872 C   0  0  0  0  0  0  0  0  0  0  0  0
    7.8626   -1.3290   -0.1903 C   0  0  0  0  0  0  0  0  0  0  0  0
    7.0580   -2.2880   -0.9971 C   0  0  0  0  0  0  0  0  0  0  0  0
    7.5072   -3.4242   -1.5913 C   0  0  0  0  0  0  0  0  0  0  0  0
    6.6144   -4.4091   -2.1471 C   0  0  0  0  0  0  0  0  0  0  0  0
    5.9053   -5.2067   -2.5938 N   0  0  0  0  0  0  0  0  0  0  0  0
    8.8950   -3.8070   -1.5829 C   0  0  0  0  0  0  0  0  0  0  0  0
   10.0046   -4.1342   -1.5798 N   0  0  0  0  0  0  0  0  0  0  0  0
   10.8667    0.6617    1.1915 C   0  0  0  0  0  0  0  0  0  0  0  0
   11.4966    1.7003    0.2172 C   0  0  0  0  0  0  0  0  0  0  0  0
   12.3642    2.5922    1.0717 C   0  0  0  0  0  0  0  0  0  0  0  0
   11.5341    3.3266    1.8214 C   0  0  0  0  0  0  0  0  0  0  0  0
   10.1334    2.9054    1.4469 C   0  0  0  0  0  0  0  0  0  0  0  0
   10.3531    2.6678   -0.0383 C   0  0  0  0  0  0  0  0  0  0  0  0
    9.9544    1.4653    2.0105 C   0  0  0  0  0  0  0  0  0  0  0  0
    3.2269   -1.7020   -1.3424 C   0  0  0  0  0  0  0  0  0  0  0  0
    2.3349   -2.2494   -0.4091 C   0  0  0  0  0  0  0  0  0  0  0  0
    1.1977   -1.4978   -0.5948 C   0  0  0  0  0  0  0  0  0  0  0  0
    1.4172   -0.5821   -1.5280 C   0  0  0  0  0  0  0  0  0  0  0  0
    2.6646   -0.6652   -2.0345 N   0  0  0  0  0  0  0  0  0  0  0  0
    3.3366    0.2060   -3.0008 C   0  0  0  0  0  0  0  0  0  0  0  0
    3.9074    1.4385   -2.3044 C   0  0  0  0  0  0  0  0  0  0  0  0
    0.3352    0.2702   -1.5380 C   0  0  0  0  0  0  0  0  0  0  0  0
    0.0862    1.4865   -2.1935 C   0  0  0  0  0  0  0  0  0  0  0  0
   -1.1057    2.1964   -1.8869 C   0  0  0  0  0  0  0  0  0  0  0  0
   -1.3195    3.3654   -2.5421 N   0  0  0  0  0  0  0  0  0  0  0  0
    0.0435    3.4221   -3.4727 S   0  0  0  0  0  0  0  0  0  0  0  0
    0.8996    2.0531   -3.1144 N   0  0  0  0  0  0  0  0  0  0  0  0
   -2.0050    1.6425   -0.9784 C   0  0  0  0  0  0  0  0  0  0  0  0
   -3.2780    2.0206   -0.6862 C   0  0  0  0  0  0  0  0  0  0  0  0
   -4.3934    3.1697   -1.2465 S   0  0  0  0  0  0  0  0  0  0  0  0
   -5.6567    2.3455   -0.4533 C   0  0  0  0  0  0  0  0  0  0  0  0
   -7.0319    2.5627   -0.3885 C   0  0  0  0  0  0  0  0  0  0  0  0
   -7.7363    3.6868   -1.0977 C   0  0  0  0  0  0  0  0  0  0  0  0
   -8.2548    3.2202   -2.4530 C   0  0  0  0  0  0  0  0  0  0  0  0
   -7.6731    1.5281    0.3152 C   0  0  0  0  0  0  0  0  0  0  0  0
   -6.5097    0.4099    0.8832 S   0  0  0  0  0  0  0  0  0  0  0  0
   -5.2111    1.2119    0.1819 C   0  0  0  0  0  0  0  0  0  0  0  0
   -3.8378    1.0261    0.0389 C   0  0  0  0  0  0  0  0  0  0  0  0
   -2.9875   -0.0147    0.2474 N   0  0  0  0  0  0  0  0  0  0  0  0
   -1.8088    0.3970   -0.3521 C   0  0  0  0  0  0  0  0  0  0  0  0
   -0.5601   -0.2726   -0.5755 C   0  0  0  0  0  0  0  0  0  0  0  0
    0.0246   -1.3534    0.0572 N   0  0  0  0  0  0  0  0  0  0  0  0
   -0.2786   -2.0346    1.3226 C   0  0  0  0  0  0  0  0  0  0  0  0
   -0.4034   -1.0465    2.4808 C   0  0  0  0  0  0  0  0  0  0  0  0
   -3.4260   -1.3558    0.6515 C   0  0  0  0  0  0  0  0  0  0  0  0
   -3.3097   -2.3533   -0.4989 C   0  0  0  0  0  0  0  0  0  0  0  0
   -9.1078    1.5281    0.6566 C   0  0  0  0  0  0  0  0  0  0  0  0
   -9.9435    0.4837    0.4995 C   0  0  0  0  0  0  0  0  0  0  0  0
   -9.5815   -0.8801    0.0926 C   0  0  0  0  0  0  0  0  0  0  0  0
   -8.5340   -1.2383   -0.5040 O   0  0  0  0  0  0  0  0  0  0  0  0
  -10.6807   -1.7609    0.4311 C   0  0  0  0  0  0  0  0  0  0  0  0
  -10.7406   -3.1498    0.3141 C   0  0  0  0  0  0  0  0  0  0  0  0
  -11.9074   -3.8033    0.7295 C   0  0  0  0  0  0  0  0  0  0  0  0
  -12.0023   -5.1494    0.6145 F   0  0  0  0  0  0  0  0  0  0  0  0
  -12.9789   -3.0649    1.2667 C   0  0  0  0  0  0  0  0  0  0  0  0
  -14.1064   -3.7024    1.6607 F   0  0  0  0  0  0  0  0  0  0  0  0
  -12.8935   -1.6680    1.3829 C   0  0  0  0  0  0  0  0  0  0  0  0
  -11.7339   -1.0167    0.9335 C   0  0  0  0  0  0  0  0  0  0  0  0
  -11.3892    0.4337    0.8843 C   0  0  0  0  0  0  0  0  0  0  0  0
  -12.2637    1.4742    0.8938 C   0  0  0  0  0  0  0  0  0  0  0  0
  -11.8779    2.8096    0.5159 C   0  0  0  0  0  0  0  0  0  0  0  0
  -11.5797    3.8852    0.2049 N   0  0  0  0  0  0  0  0  0  0  0  0
  -13.6734    1.3016    1.1224 C   0  0  0  0  0  0  0  0  0  0  0  0
  -14.8108    1.1794    1.3010 N   0  0  0  0  0  0  0  0  0  0  0  0
    4.7370   -2.7635   -2.4837 H   0  0  0  0  0  0  0  0  0  0  0  0
    6.7568    1.1210    2.0356 H   0  0  0  0  0  0  0  0  0  0  0  0
    9.9723   -1.6266   -0.8197 H   0  0  0  0  0  0  0  0  0  0  0  0
   11.5872    0.0445    1.7706 H   0  0  0  0  0  0  0  0  0  0  0  0
   11.9887    1.2811   -0.6861 H   0  0  0  0  0  0  0  0  0  0  0  0
   13.4432    2.6983    1.0270 H   0  0  0  0  0  0  0  0  0  0  0  0
   11.8283    4.1288    2.4901 H   0  0  0  0  0  0  0  0  0  0  0  0
    9.3355    3.6314    1.7103 H   0  0  0  0  0  0  0  0  0  0  0  0
   10.6649    3.5865   -0.5920 H   0  0  0  0  0  0  0  0  0  0  0  0
    9.4814    2.2151   -0.5622 H   0  0  0  0  0  0  0  0  0  0  0  0
   10.0961    1.3585    3.1077 H   0  0  0  0  0  0  0  0  0  0  0  0
    2.5118   -3.0520    0.2951 H   0  0  0  0  0  0  0  0  0  0  0  0
    4.1659   -0.3418   -3.4971 H   0  0  0  0  0  0  0  0  0  0  0  0
    2.6358    0.4865   -3.8100 H   0  0  0  0  0  0  0  0  0  0  0  0
    4.2479    2.1686   -3.0643 H   0  0  0  0  0  0  0  0  0  0  0  0
    3.1397    1.9181   -1.6624 H   0  0  0  0  0  0  0  0  0  0  0  0
    4.7714    1.1539   -1.6725 H   0  0  0  0  0  0  0  0  0  0  0  0
   -8.5845    4.0596   -0.4862 H   0  0  0  0  0  0  0  0  0  0  0  0
   -7.0372    4.5363   -1.2496 H   0  0  0  0  0  0  0  0  0  0  0  0
   -7.4077    2.8863   -3.0905 H   0  0  0  0  0  0  0  0  0  0  0  0
   -8.9726    2.3814   -2.3246 H   0  0  0  0  0  0  0  0  0  0  0  0
   -8.7738    4.0588   -2.9636 H   0  0  0  0  0  0  0  0  0  0  0  0
    0.5472   -2.7276    1.5866 H   0  0  0  0  0  0  0  0  0  0  0  0
   -1.1467   -2.7029    1.2105 H   0  0  0  0  0  0  0  0  0  0  0  0
    0.5886   -0.5845    2.6865 H   0  0  0  0  0  0  0  0  0  0  0  0
   -0.7400   -1.5886    3.3903 H   0  0  0  0  0  0  0  0  0  0  0  0
   -1.1320   -0.2416    2.2596 H   0  0  0  0  0  0  0  0  0  0  0  0
   -2.9135   -1.6745    1.5697 H   0  0  0  0  0  0  0  0  0  0  0  0
   -4.4866   -1.3411    0.9529 H   0  0  0  0  0  0  0  0  0  0  0  0
   -3.6037   -3.3633   -0.1441 H   0  0  0  0  0  0  0  0  0  0  0  0
   -2.2780   -2.4098   -0.8959 H   0  0  0  0  0  0  0  0  0  0  0  0
   -3.9919   -2.0540   -1.3236 H   0  0  0  0  0  0  0  0  0  0  0  0
   -9.4789    2.4529    1.0669 H   0  0  0  0  0  0  0  0  0  0  0  0
   -9.9076   -3.7097   -0.0918 H   0  0  0  0  0  0  0  0  0  0  0  0
  -13.7131   -1.1348    1.8334 H   0  0  0  0  0  0  0  0  0  0  0  0
  1  2  2  3
  2  3  1  0
  3  4  2  0
  3  5  1  0
  5  6  2  0
  6  7  1  0
  7  8  2  0
  8  9  1  0
  9 10  2  0
 10 11  1  0
 11 12  2  3
 12 13  1  0
 13 14  3  0
 12 15  1  0
 15 16  3  0
  8 17  1  0
 17 18  1  0
 18 19  1  0
 19 20  2  0
 20 21  1  0
 21 22  1  0
 21 23  1  0
  1 24  1  0
 24 25  2  0
 25 26  1  0
 26 27  2  0
 27 28  1  0
 28 29  1  0
 29 30  1  0
 27 31  1  0
 31 32  1  0
 32 33  1  0
 33 34  2  0
 34 35  1  0
 35 36  1  0
 33 37  1  0
 37 38  1  0
 38 39  1  0
 39 40  1  0
 40 41  1  0
 41 42  1  0
 42 43  1  0
 41 44  2  0
 44 45  1  0
 45 46  1  0
 46 47  1  0
 47 48  1  0
 48 49  1  0
 49 50  1  0
 50 51  1  0
 51 52  1  0
 52 53  1  0
 48 54  1  0
 54 55  1  0
 44 56  1  0
 56 57  2  3
 57 58  1  0
 58 59  2  0
 58 60  1  0
 60 61  2  0
 61 62  1  0
 62 63  1  0
 62 64  2  0
 64 65  1  0
 64 66  1  0
 66 67  2  0
 67 68  1  0
 68 69  2  3
 69 70  1  0
 70 71  3  0
 69 72  1  0
 72 73  3  0
 11  2  1  0
 23 17  1  0
 28 24  1  0
 50 31  2  0
 68 57  1  0
 10  5  1  0
 22 18  1  0
 51 26  1  0
 67 60  1  0
 23  7  1  0
 36 32  2  0
 49 37  2  0
 47 38  2  0
 46 40  2  0
  1 74  1  0
  6 75  1  0
  9 76  1  0
 17 77  1  0
 18 78  1  0
 19 79  1  0
 20 80  1  0
 21 81  1  0
 22 82  1  0
 22 83  1  0
 23 84  1  0
 25 85  1  0
 29 86  1  0
 29 87  1  0
 30 88  1  0
 30 89  1  0
 30 90  1  0
 42 91  1  0
 42 92  1  0
 43 93  1  0
 43 94  1  0
 43 95  1  0
 52 96  1  0
 52 97  1  0
 53 98  1  0
 53 99  1  0
 53100  1  0
 54101  1  0
 54102  1  0
 55103  1  0
 55104  1  0
 55105  1  0
 56106  1  0
 61107  1  0
 66108  1  0
M  END

