
     RDKit          3D

113127  0  0  0  0  0  0  0  0999 V2000
    3.9046   -4.4391    4.4487 C   0  0  0  0  0  0  0  0  0  0  0  0
    4.0167   -4.2711    3.0930 C   0  0  0  0  0  0  0  0  0  0  0  0
    3.2817   -3.3067    2.3212 C   0  0  0  0  0  0  0  0  0  0  0  0
    2.6299   -2.2925    2.6729 O   0  0  0  0  0  0  0  0  0  0  0  0
    3.3590   -3.6160    0.8614 C   0  0  0  0  0  0  0  0  0  0  0  0
    2.7406   -2.9754   -0.1815 C   0  0  0  0  0  0  0  0  0  0  0  0
    2.8731   -3.5322   -1.4705 C   0  0  0  0  0  0  0  0  0  0  0  0
    3.5869   -4.6718   -1.6306 C   0  0  0  0  0  0  0  0  0  0  0  0
    4.2230   -5.2955   -0.5513 C   0  0  0  0  0  0  0  0  0  0  0  0
    4.1136   -4.7538    0.7502 C   0  0  0  0  0  0  0  0  0  0  0  0
    4.5776   -5.2192    2.0941 C   0  0  0  0  0  0  0  0  0  0  0  0
    5.3520   -6.2407    2.3397 C   0  0  0  0  0  0  0  0  0  0  0  0
    5.7964   -6.6401    3.6151 C   0  0  0  0  0  0  0  0  0  0  0  0
    6.1603   -6.9807    4.7049 N   0  0  0  0  0  0  0  0  0  0  0  0
    5.8541   -7.0482    1.2427 C   0  0  0  0  0  0  0  0  0  0  0  0
    6.2487   -7.7027    0.3872 N   0  0  0  0  0  0  0  0  0  0  0  0
    3.0914   -4.8811   -3.0460 C   0  0  0  0  0  0  0  0  0  0  0  0
    1.7330   -5.6071   -3.1214 C   0  0  0  0  0  0  0  0  0  0  0  0
    1.2953   -5.4390   -4.5261 C   0  0  0  0  0  0  0  0  0  0  0  0
    1.1539   -4.0991   -4.7251 C   0  0  0  0  0  0  0  0  0  0  0  0
    1.2885   -3.4281   -3.4012 C   0  0  0  0  0  0  0  0  0  0  0  0
    0.7928   -4.5891   -2.4942 C   0  0  0  0  0  0  0  0  0  0  0  0
    2.6843   -3.4117   -2.9584 C   0  0  0  0  0  0  0  0  0  0  0  0
    2.8773   -3.5056    5.0348 C   0  0  0  0  0  0  0  0  0  0  0  0
    1.6839   -3.8632    5.5580 C   0  0  0  0  0  0  0  0  0  0  0  0
    0.6764   -2.9679    5.7098 C   0  0  0  0  0  0  0  0  0  0  0  0
   -1.0846   -3.1536    5.9135 S   0  0  0  0  0  0  0  0  0  0  0  0
   -1.5106   -1.5402    5.5176 C   0  0  0  0  0  0  0  0  0  0  0  0
   -2.6111   -0.7786    5.0889 C   0  0  0  0  0  0  0  0  0  0  0  0
   -3.9685   -1.0690    5.0344 C   0  0  0  0  0  0  0  0  0  0  0  0
   -4.8026   -0.1754    4.3987 C   0  0  0  0  0  0  0  0  0  0  0  0
   -6.0863   -0.5067    4.3481 N   0  0  0  0  0  0  0  0  0  0  0  0
   -6.1826   -2.0102    5.1417 S   0  0  0  0  0  0  0  0  0  0  0  0
   -4.5792   -2.1637    5.5154 N   0  0  0  0  0  0  0  0  0  0  0  0
   -4.2153    0.9637    3.8338 C   0  0  0  0  0  0  0  0  0  0  0  0
   -4.7729    1.8198    2.8819 C   0  0  0  0  0  0  0  0  0  0  0  0
   -3.8155    2.6061    2.3635 C   0  0  0  0  0  0  0  0  0  0  0  0
   -2.6243    2.2541    2.9897 N   0  0  0  0  0  0  0  0  0  0  0  0
   -1.3436    2.7051    2.4813 C   0  0  0  0  0  0  0  0  0  0  0  0
   -0.7603    1.5825    1.5666 C   0  0  0  0  0  0  0  0  0  0  0  0
   -2.8842    1.2731    3.8723 C   0  0  0  0  0  0  0  0  0  0  0  0
   -2.0500    0.3690    4.5592 C   0  0  0  0  0  0  0  0  0  0  0  0
   -0.7007    0.3047    4.6984 N   0  0  0  0  0  0  0  0  0  0  0  0
   -0.3573   -0.9167    5.2802 C   0  0  0  0  0  0  0  0  0  0  0  0
    0.6965   -1.7173    5.4054 C   0  0  0  0  0  0  0  0  0  0  0  0
    2.6423   -1.6900    4.7355 Se  0  0  0  0  0  2  0  0  0  0  0  0
    0.2054    1.4150    4.5403 C   0  0  0  0  0  0  0  0  0  0  0  0
    0.0553    2.4744    5.6668 C   0  0  0  0  0  0  0  0  0  0  0  0
   -4.2489    3.4218    1.3505 C   0  0  0  0  0  0  0  0  0  0  0  0
   -5.4748    3.4139    0.9443 C   0  0  0  0  0  0  0  0  0  0  0  0
   -6.1662    2.2093    2.0068 S   0  0  0  0  0  0  0  0  0  0  0  0
   -5.9554    4.1227   -0.0891 C   0  0  0  0  0  0  0  0  0  0  0  0
   -5.1910    4.9443   -0.8419 C   0  0  0  0  0  0  0  0  0  0  0  0
   -3.5024    4.6331    0.1270 Se  0  0  0  0  0  2  0  0  0  0  0  0
   -5.3035    5.7803   -2.0125 C   0  0  0  0  0  0  0  0  0  0  0  0
   -4.4813    6.9876   -2.1022 C   0  0  0  0  0  0  0  0  0  0  0  0
   -3.1574    6.8470   -2.3770 C   0  0  0  0  0  0  0  0  0  0  0  0
   -2.5710    5.5164   -2.5677 C   0  0  0  0  0  0  0  0  0  0  0  0
   -1.3363    5.2605   -2.2407 C   0  0  0  0  0  0  0  0  0  0  0  0
   -0.7161    3.9671   -2.4241 C   0  0  0  0  0  0  0  0  0  0  0  0
   -1.3787    3.0674   -2.9813 O   0  0  0  0  0  0  0  0  0  0  0  0
    0.5883    3.6372   -2.0153 N   0  0  0  0  0  0  0  0  0  0  0  0
    1.1943    2.3138   -2.1659 C   0  0  0  0  0  0  0  0  0  0  0  0
    1.8600    2.0897   -3.4701 C   0  0  0  0  0  0  0  0  0  0  0  0
    1.3566    4.6809   -1.3615 C   0  0  0  0  0  0  0  0  0  0  0  0
    2.9020    4.3711   -0.8465 S   0  0  0  0  0  0  0  0  0  0  0  0
    0.8342    5.9551   -1.1479 N   0  0  0  0  0  0  0  0  0  0  0  0
   -0.4947    6.2698   -1.5751 C   0  0  0  0  0  0  0  0  0  0  0  0
   -0.9011    7.4158   -1.3560 O   0  0  0  0  0  0  0  0  0  0  0  0
    1.5807    7.0403   -0.5195 C   0  0  0  0  0  0  0  0  0  0  0  0
    1.1566    7.0897    0.9638 C   0  0  0  0  0  0  0  0  0  0  0  0
   -3.4788    4.4402   -3.1181 C   0  0  0  0  0  0  0  0  0  0  0  0
   -4.8634    4.9665   -3.2699 C   0  0  0  0  0  0  0  0  0  0  0  0
    4.4257   -5.1077    5.0036 H   0  0  0  0  0  0  0  0  0  0  0  0
    2.1872   -2.0583   -0.0637 H   0  0  0  0  0  0  0  0  0  0  0  0
    4.7953   -6.1493   -0.6960 H   0  0  0  0  0  0  0  0  0  0  0  0
    3.7989   -5.1842   -3.8025 H   0  0  0  0  0  0  0  0  0  0  0  0
    1.7417   -6.5668   -2.7175 H   0  0  0  0  0  0  0  0  0  0  0  0
    1.0742   -6.1994   -5.2431 H   0  0  0  0  0  0  0  0  0  0  0  0
    0.9459   -3.6909   -5.6909 H   0  0  0  0  0  0  0  0  0  0  0  0
    0.6784   -2.5403   -3.2804 H   0  0  0  0  0  0  0  0  0  0  0  0
   -0.2585   -4.8215   -2.8014 H   0  0  0  0  0  0  0  0  0  0  0  0
    0.9766   -4.3654   -1.4710 H   0  0  0  0  0  0  0  0  0  0  0  0
    3.4159   -2.7493   -3.4293 H   0  0  0  0  0  0  0  0  0  0  0  0
    1.6123   -4.9507    5.8486 H   0  0  0  0  0  0  0  0  0  0  0  0
   -0.7318    3.3265    3.0467 H   0  0  0  0  0  0  0  0  0  0  0  0
   -1.5965    3.4693    1.6062 H   0  0  0  0  0  0  0  0  0  0  0  0
    0.3440    1.7223    1.5143 H   0  0  0  0  0  0  0  0  0  0  0  0
   -1.1069    1.6299    0.5408 H   0  0  0  0  0  0  0  0  0  0  0  0
   -1.0962    0.5629    1.9568 H   0  0  0  0  0  0  0  0  0  0  0  0
    1.2026    0.9102    5.0346 H   0  0  0  0  0  0  0  0  0  0  0  0
    0.7126    1.6787    3.6685 H   0  0  0  0  0  0  0  0  0  0  0  0
    1.0687    2.8173    6.0044 H   0  0  0  0  0  0  0  0  0  0  0  0
   -0.4338    3.3831    5.3075 H   0  0  0  0  0  0  0  0  0  0  0  0
   -0.4049    2.0462    6.6031 H   0  0  0  0  0  0  0  0  0  0  0  0
   -7.0404    4.0871   -0.4358 H   0  0  0  0  0  0  0  0  0  0  0  0
   -6.3856    6.0156   -2.1361 H   0  0  0  0  0  0  0  0  0  0  0  0
   -4.8500    7.9793   -1.9951 H   0  0  0  0  0  0  0  0  0  0  0  0
   -2.5866    7.7456   -2.4786 H   0  0  0  0  0  0  0  0  0  0  0  0
    2.0255    2.3051   -1.3984 H   0  0  0  0  0  0  0  0  0  0  0  0
    0.5614    1.4909   -1.8229 H   0  0  0  0  0  0  0  0  0  0  0  0
    1.1954    1.5586   -4.1958 H   0  0  0  0  0  0  0  0  0  0  0  0
    2.8132    1.5007   -3.2823 H   0  0  0  0  0  0  0  0  0  0  0  0
    2.2143    3.0650   -3.9207 H   0  0  0  0  0  0  0  0  0  0  0  0
    2.6824    6.8457   -0.5470 H   0  0  0  0  0  0  0  0  0  0  0  0
    1.3470    8.0263   -1.0036 H   0  0  0  0  0  0  0  0  0  0  0  0
    0.1938    7.7106    0.9716 H   0  0  0  0  0  0  0  0  0  0  0  0
    1.8711    7.4539    1.6420 H   0  0  0  0  0  0  0  0  0  0  0  0
    0.7950    6.0592    1.2423 H   0  0  0  0  0  0  0  0  0  0  0  0
   -3.5271    3.6086   -2.3473 H   0  0  0  0  0  0  0  0  0  0  0  0
   -3.0795    4.0806   -4.0909 H   0  0  0  0  0  0  0  0  0  0  0  0
   -5.5989    4.1740   -3.5009 H   0  0  0  0  0  0  0  0  0  0  0  0
   -4.8414    5.7620   -4.0870 H   0  0  0  0  0  0  0  0  0  0  0  0
  1  2  2  3
  2  3  1  0
  3  4  2  0
  3  5  1  0
  5  6  2  0
  6  7  1  0
  7  8  2  0
  8  9  1  0
  9 10  2  0
 10 11  1  0
 11 12  2  3
 12 13  1  0
 13 14  3  0
 12 15  1  0
 15 16  3  0
  8 17  1  0
 17 18  1  0
 18 19  1  0
 19 20  2  0
 20 21  1  0
 21 22  1  0
 21 23  1  0
  1 24  1  0
 24 25  2  0
 25 26  1  0
 26 27  1  0
 27 28  1  0
 28 29  1  0
 29 30  1  0
 30 31  1  0
 31 32  2  0
 32 33  1  0
 33 34  1  0
 31 35  1  0
 35 36  1  0
 36 37  2  0
 37 38  1  0
 38 39  1  0
 39 40  1  0
 38 41  1  0
 41 42  1  0
 42 43  1  0
 43 44  1  0
 44 45  1  0
 45 46  1  0
 43 47  1  0
 47 48  1  0
 37 49  1  0
 49 50  2  0
 50 51  1  0
 50 52  1  0
 52 53  2  0
 53 54  1  0
 53 55  1  0
 55 56  1  0
 56 57  2  0
 57 58  1  0
 58 59  2  3
 59 60  1  0
 60 61  2  0
 60 62  1  0
 62 63  1  0
 63 64  1  0
 62 65  1  0
 65 66  2  0
 65 67  1  0
 67 68  1  0
 68 69  2  0
 67 70  1  0
 70 71  1  0
 58 72  1  0
 72 73  1  0
 11  2  1  0
 23 17  1  0
 46 24  1  0
 54 49  1  0
 73 55  1  0
 10  5  1  0
 22 18  1  0
 45 26  2  0
 68 59  1  0
 23  7  1  0
 44 28  2  0
 42 29  2  0
 34 30  2  0
 41 35  2  0
 51 36  1  0
  1 74  1  0
  6 75  1  0
  9 76  1  0
 17 77  1  0
 18 78  1  0
 19 79  1  0
 20 80  1  0
 21 81  1  0
 22 82  1  0
 22 83  1  0
 23 84  1  0
 25 85  1  0
 39 86  1  0
 39 87  1  0
 40 88  1  0
 40 89  1  0
 40 90  1  0
 47 91  1  0
 47 92  1  0
 48 93  1  0
 48 94  1  0
 48 95  1  0
 52 96  1  0
 55 97  1  0
 56 98  1  0
 57 99  1  0
 63100  1  0
 63101  1  0
 64102  1  0
 64103  1  0
 64104  1  0
 70105  1  0
 70106  1  0
 71107  1  0
 71108  1  0
 71109  1  0
 72110  1  0
 72111  1  0
 73112  1  0
 73113  1  0
M  END

