
     RDKit          3D

139155  0  0  0  0  0  0  0  0999 V2000
    2.1127    6.6670    2.8754 C   0  0  0  0  0  0  0  0  0  0  0  0
    0.9726    7.2486    2.4638 C   0  0  0  0  0  0  0  0  0  0  0  0
    0.1511    8.0294    3.3900 C   0  0  0  0  0  0  0  0  0  0  0  0
    0.5765    8.7020    4.3675 O   0  0  0  0  0  0  0  0  0  0  0  0
   -1.2466    7.7779    3.0870 C   0  0  0  0  0  0  0  0  0  0  0  0
   -2.3760    8.1520    3.8505 C   0  0  0  0  0  0  0  0  0  0  0  0
   -3.5697    7.6370    3.3742 C   0  0  0  0  0  0  0  0  0  0  0  0
   -3.6534    6.8029    2.2112 C   0  0  0  0  0  0  0  0  0  0  0  0
   -2.5499    6.4276    1.4627 C   0  0  0  0  0  0  0  0  0  0  0  0
   -1.3194    6.9540    1.9353 C   0  0  0  0  0  0  0  0  0  0  0  0
    0.0509    6.7349    1.4175 C   0  0  0  0  0  0  0  0  0  0  0  0
    0.3858    6.5755    0.1146 C   0  0  0  0  0  0  0  0  0  0  0  0
   -0.5832    6.2600   -0.9030 C   0  0  0  0  0  0  0  0  0  0  0  0
   -1.3532    6.0095   -1.7285 N   0  0  0  0  0  0  0  0  0  0  0  0
    1.7045    6.9200   -0.3590 C   0  0  0  0  0  0  0  0  0  0  0  0
    2.7602    7.1966   -0.7423 N   0  0  0  0  0  0  0  0  0  0  0  0
   -5.1398    6.6870    2.3797 C   0  0  0  0  0  0  0  0  0  0  0  0
   -6.0518    7.5080    1.4181 C   0  0  0  0  0  0  0  0  0  0  0  0
   -5.3541    8.7844    1.0041 C   0  0  0  0  0  0  0  0  0  0  0  0
   -5.2809    9.5487    2.0931 C   0  0  0  0  0  0  0  0  0  0  0  0
   -5.9315    8.7677    3.2120 C   0  0  0  0  0  0  0  0  0  0  0  0
   -7.0319    8.0864    2.4225 C   0  0  0  0  0  0  0  0  0  0  0  0
   -5.0549    7.5317    3.5755 C   0  0  0  0  0  0  0  0  0  0  0  0
    2.3433    5.2245    2.6786 C   0  0  0  0  0  0  0  0  0  0  0  0
    2.0083    4.2311    3.6165 C   0  0  0  0  0  0  0  0  0  0  0  0
    1.4092    4.4877    4.9714 C   0  0  0  0  0  0  0  0  0  0  0  0
    2.4882    4.4885    6.0464 C   0  0  0  0  0  0  0  0  0  0  0  0
    2.2561    2.9563    3.1054 C   0  0  0  0  0  0  0  0  0  0  0  0
    1.8268    1.4046    3.6444 S   0  0  0  0  0  0  0  0  0  0  0  0
    2.3540    0.7162    2.1858 C   0  0  0  0  0  0  0  0  0  0  0  0
    2.0389   -0.4094    1.4836 C   0  0  0  0  0  0  0  0  0  0  0  0
    1.2432   -1.4892    1.8819 C   0  0  0  0  0  0  0  0  0  0  0  0
    0.8342   -1.6294    3.1655 N   0  0  0  0  0  0  0  0  0  0  0  0
   -0.0119   -2.6222    3.5440 C   0  0  0  0  0  0  0  0  0  0  0  0
   -0.4707   -2.6150    4.9403 C   0  0  0  0  0  0  0  0  0  0  0  0
   -2.0655   -2.4200    5.4533 S   0  0  0  0  0  0  0  0  0  0  0  0
   -1.7110   -2.2802    7.0972 C   0  0  0  0  0  0  0  0  0  0  0  0
   -2.6716   -1.9663    8.2097 C   0  0  0  0  0  0  0  0  0  0  0  0
   -4.1339   -2.1972    7.8297 C   0  0  0  0  0  0  0  0  0  0  0  0
   -0.3299   -2.3452    7.2459 C   0  0  0  0  0  0  0  0  0  0  0  0
    0.3659   -2.5210    6.0457 C   0  0  0  0  0  0  0  0  0  0  0  0
    0.2993   -2.1986    8.4376 F   0  0  0  0  0  0  0  0  0  0  0  0
   -0.4706   -3.5471    2.5674 C   0  0  0  0  0  0  0  0  0  0  0  0
   -1.3840   -4.6694    2.8785 C   0  0  0  0  0  0  0  0  0  0  0  0
   -1.4437   -5.4123    4.0574 C   0  0  0  0  0  0  0  0  0  0  0  0
   -2.4306   -6.4036    4.0340 C   0  0  0  0  0  0  0  0  0  0  0  0
   -2.6866   -7.2120    5.0915 F   0  0  0  0  0  0  0  0  0  0  0  0
   -3.1156   -6.4809    2.8311 C   0  0  0  0  0  0  0  0  0  0  0  0
   -4.2752   -7.3800    2.5305 C   0  0  0  0  0  0  0  0  0  0  0  0
   -5.5869   -6.7132    2.9198 C   0  0  0  0  0  0  0  0  0  0  0  0
   -2.5247   -5.2885    1.8049 S   0  0  0  0  0  0  0  0  0  0  0  0
   -0.0551   -3.3975    1.2747 N   0  0  0  0  0  0  0  0  0  0  0  0
    0.7873   -2.3940    0.9088 C   0  0  0  0  0  0  0  0  0  0  0  0
    1.1969   -2.1997   -0.4174 C   0  0  0  0  0  0  0  0  0  0  0  0
    0.9812   -2.9567   -1.5335 C   0  0  0  0  0  0  0  0  0  0  0  0
    0.2348   -4.4162   -1.9806 S   0  0  0  0  0  0  0  0  0  0  0  0
    0.8109   -4.2449   -3.5813 C   0  0  0  0  0  0  0  0  0  0  0  0
    0.6431   -4.9914   -4.7545 C   0  0  0  0  0  0  0  0  0  0  0  0
   -0.1284   -6.2819   -4.8158 C   0  0  0  0  0  0  0  0  0  0  0  0
    0.8134   -7.4726   -4.9490 C   0  0  0  0  0  0  0  0  0  0  0  0
    1.3011   -4.3802   -5.8514 C   0  0  0  0  0  0  0  0  0  0  0  0
    2.0092   -2.9192   -5.3235 S   0  0  0  0  0  0  0  0  0  0  0  0
    1.5561   -3.1039   -3.7239 C   0  0  0  0  0  0  0  0  0  0  0  0
    1.6576   -2.3774   -2.5474 C   0  0  0  0  0  0  0  0  0  0  0  0
    2.3468   -1.2749   -2.1667 N   0  0  0  0  0  0  0  0  0  0  0  0
    3.4429   -0.6932   -2.9548 C   0  0  0  0  0  0  0  0  0  0  0  0
    4.7849   -0.8038   -2.2283 C   0  0  0  0  0  0  0  0  0  0  0  0
    2.0108   -1.1234   -0.8346 C   0  0  0  0  0  0  0  0  0  0  0  0
    2.3831   -0.1481    0.1437 C   0  0  0  0  0  0  0  0  0  0  0  0
    2.8234    1.1585    0.0214 N   0  0  0  0  0  0  0  0  0  0  0  0
    2.7973    1.6352    1.2941 C   0  0  0  0  0  0  0  0  0  0  0  0
    2.7474    2.9225    1.8258 C   0  0  0  0  0  0  0  0  0  0  0  0
    2.9136    4.4892    1.2566 S   0  0  0  0  0  0  0  0  0  0  0  0
    2.9408    2.0149   -1.1652 C   0  0  0  0  0  0  0  0  0  0  0  0
    1.5943    2.1951   -1.8604 C   0  0  0  0  0  0  0  0  0  0  0  0
    1.1939   -4.8481   -7.2581 C   0  0  0  0  0  0  0  0  0  0  0  0
    2.0089   -4.5438   -8.2933 C   0  0  0  0  0  0  0  0  0  0  0  0
    3.1722   -3.6455   -8.3027 C   0  0  0  0  0  0  0  0  0  0  0  0
    3.9607   -3.4220   -7.3477 O   0  0  0  0  0  0  0  0  0  0  0  0
    3.3755   -3.1807   -9.6591 C   0  0  0  0  0  0  0  0  0  0  0  0
    4.2522   -2.1984  -10.1222 C   0  0  0  0  0  0  0  0  0  0  0  0
    4.2101   -1.8508  -11.4810 C   0  0  0  0  0  0  0  0  0  0  0  0
    5.0345   -0.8839  -11.9618 F   0  0  0  0  0  0  0  0  0  0  0  0
    3.2934   -2.4787  -12.3427 C   0  0  0  0  0  0  0  0  0  0  0  0
    2.4290   -3.4761  -11.8588 C   0  0  0  0  0  0  0  0  0  0  0  0
    2.4987   -3.8367  -10.5055 C   0  0  0  0  0  0  0  0  0  0  0  0
    1.7163   -4.8348   -9.7312 C   0  0  0  0  0  0  0  0  0  0  0  0
    1.1135   -5.9477  -10.2254 C   0  0  0  0  0  0  0  0  0  0  0  0
    0.6704   -7.0222   -9.3731 C   0  0  0  0  0  0  0  0  0  0  0  0
    0.3196   -7.8932   -8.6921 N   0  0  0  0  0  0  0  0  0  0  0  0
    1.0420   -6.2200  -11.6360 C   0  0  0  0  0  0  0  0  0  0  0  0
    0.9769   -6.4528  -12.7681 N   0  0  0  0  0  0  0  0  0  0  0  0
    2.6093    7.0904    3.7413 H   0  0  0  0  0  0  0  0  0  0  0  0
   -2.3168    8.7523    4.7470 H   0  0  0  0  0  0  0  0  0  0  0  0
   -2.6399    5.7516    0.6291 H   0  0  0  0  0  0  0  0  0  0  0  0
   -5.4911    5.6512    2.5902 H   0  0  0  0  0  0  0  0  0  0  0  0
   -6.5047    6.9288    0.5856 H   0  0  0  0  0  0  0  0  0  0  0  0
   -5.0567    9.0772    0.0048 H   0  0  0  0  0  0  0  0  0  0  0  0
   -4.9130   10.5683    2.1303 H   0  0  0  0  0  0  0  0  0  0  0  0
   -6.2702    9.3777    4.0774 H   0  0  0  0  0  0  0  0  0  0  0  0
   -7.7597    8.8008    1.9703 H   0  0  0  0  0  0  0  0  0  0  0  0
   -7.5828    7.3117    3.0052 H   0  0  0  0  0  0  0  0  0  0  0  0
   -5.3486    7.0047    4.5087 H   0  0  0  0  0  0  0  0  0  0  0  0
    0.8748    5.4604    4.9836 H   0  0  0  0  0  0  0  0  0  0  0  0
    0.6603    3.7006    5.2030 H   0  0  0  0  0  0  0  0  0  0  0  0
    2.0274    4.7001    7.0358 H   0  0  0  0  0  0  0  0  0  0  0  0
    3.2482    5.2684    5.8311 H   0  0  0  0  0  0  0  0  0  0  0  0
    2.9819    3.4943    6.0923 H   0  0  0  0  0  0  0  0  0  0  0  0
   -2.5361   -0.9030    8.5091 H   0  0  0  0  0  0  0  0  0  0  0  0
   -2.4316   -2.6085    9.0845 H   0  0  0  0  0  0  0  0  0  0  0  0
   -4.4323   -1.5107    7.0062 H   0  0  0  0  0  0  0  0  0  0  0  0
   -4.7820   -1.9948    8.7080 H   0  0  0  0  0  0  0  0  0  0  0  0
   -4.2871   -3.2510    7.5086 H   0  0  0  0  0  0  0  0  0  0  0  0
    1.4461   -2.5472    5.9832 H   0  0  0  0  0  0  0  0  0  0  0  0
   -0.7982   -5.2572    4.9087 H   0  0  0  0  0  0  0  0  0  0  0  0
   -4.1674   -8.3336    3.0944 H   0  0  0  0  0  0  0  0  0  0  0  0
   -4.2870   -7.6175    1.4464 H   0  0  0  0  0  0  0  0  0  0  0  0
   -6.4344   -7.3929    2.6901 H   0  0  0  0  0  0  0  0  0  0  0  0
   -5.7237   -5.7645    2.3551 H   0  0  0  0  0  0  0  0  0  0  0  0
   -5.6003   -6.4899    4.0100 H   0  0  0  0  0  0  0  0  0  0  0  0
   -0.7402   -6.4069   -3.8963 H   0  0  0  0  0  0  0  0  0  0  0  0
   -0.8341   -6.2612   -5.6716 H   0  0  0  0  0  0  0  0  0  0  0  0
    1.4022   -7.3994   -5.8868 H   0  0  0  0  0  0  0  0  0  0  0  0
    1.5070   -7.5156   -4.0838 H   0  0  0  0  0  0  0  0  0  0  0  0
    0.2231   -8.4109   -4.9790 H   0  0  0  0  0  0  0  0  0  0  0  0
    3.1880    0.3220   -3.2901 H   0  0  0  0  0  0  0  0  0  0  0  0
    3.5726   -1.2455   -3.9042 H   0  0  0  0  0  0  0  0  0  0  0  0
    4.7491   -0.3485   -1.2209 H   0  0  0  0  0  0  0  0  0  0  0  0
    5.5699   -0.2830   -2.8192 H   0  0  0  0  0  0  0  0  0  0  0  0
    5.0662   -1.8711   -2.1154 H   0  0  0  0  0  0  0  0  0  0  0  0
    3.3088    3.0155   -0.8874 H   0  0  0  0  0  0  0  0  0  0  0  0
    3.7389    1.6659   -1.8255 H   0  0  0  0  0  0  0  0  0  0  0  0
    0.8788    2.6850   -1.1675 H   0  0  0  0  0  0  0  0  0  0  0  0
    1.7254    2.8332   -2.7589 H   0  0  0  0  0  0  0  0  0  0  0  0
    1.1738    1.2206   -2.1745 H   0  0  0  0  0  0  0  0  0  0  0  0
    0.3157   -5.4365   -7.4671 H   0  0  0  0  0  0  0  0  0  0  0  0
    4.9348   -1.6979   -9.4482 H   0  0  0  0  0  0  0  0  0  0  0  0
    3.2476   -2.1904  -13.3840 H   0  0  0  0  0  0  0  0  0  0  0  0
    1.7077   -3.9132  -12.5321 H   0  0  0  0  0  0  0  0  0  0  0  0
  1  2  2  3
  2  3  1  0
  3  4  2  0
  3  5  1  0
  5  6  2  0
  6  7  1  0
  7  8  2  0
  8  9  1  0
  9 10  2  0
 10 11  1  0
 11 12  2  3
 12 13  1  0
 13 14  3  0
 12 15  1  0
 15 16  3  0
  8 17  1  0
 17 18  1  0
 18 19  1  0
 19 20  2  0
 20 21  1  0
 21 22  1  0
 21 23  1  0
  1 24  1  0
 24 25  2  0
 25 26  1  0
 26 27  1  0
 25 28  1  0
 28 29  1  0
 29 30  1  0
 30 31  1  0
 31 32  2  0
 32 33  1  0
 33 34  2  0
 34 35  1  0
 35 36  1  0
 36 37  1  0
 37 38  1  0
 38 39  1  0
 37 40  2  0
 40 41  1  0
 40 42  1  0
 34 43  1  0
 43 44  1  0
 44 45  2  0
 45 46  1  0
 46 47  1  0
 46 48  2  0
 48 49  1  0
 49 50  1  0
 48 51  1  0
 43 52  2  0
 52 53  1  0
 53 54  2  0
 54 55  1  0
 55 56  1  0
 56 57  1  0
 57 58  1  0
 58 59  1  0
 59 60  1  0
 58 61  2  0
 61 62  1  0
 62 63  1  0
 63 64  1  0
 64 65  1  0
 65 66  1  0
 66 67  1  0
 65 68  1  0
 68 69  2  0
 69 70  1  0
 70 71  1  0
 71 72  1  0
 72 73  1  0
 70 74  1  0
 74 75  1  0
 61 76  1  0
 76 77  2  3
 77 78  1  0
 78 79  2  0
 78 80  1  0
 80 81  2  0
 81 82  1  0
 82 83  1  0
 82 84  2  0
 84 85  1  0
 85 86  2  0
 86 87  1  0
 87 88  2  3
 88 89  1  0
 89 90  3  0
 88 91  1  0
 91 92  3  0
 11  2  1  0
 23 17  1  0
 73 24  1  0
 87 77  1  0
 10  5  1  0
 22 18  1  0
 72 28  2  0
 86 80  1  0
 23  7  1  0
 71 30  2  0
 69 31  1  0
 53 32  1  0
 68 54  1  0
 41 35  2  0
 51 44  1  0
 64 55  2  0
 63 57  2  0
  1 93  1  0
  6 94  1  0
  9 95  1  0
 17 96  1  0
 18 97  1  0
 19 98  1  0
 20 99  1  0
 21100  1  0
 22101  1  0
 22102  1  0
 23103  1  0
 26104  1  0
 26105  1  0
 27106  1  0
 27107  1  0
 27108  1  0
 38109  1  0
 38110  1  0
 39111  1  0
 39112  1  0
 39113  1  0
 41114  1  0
 45115  1  0
 49116  1  0
 49117  1  0
 50118  1  0
 50119  1  0
 50120  1  0
 59121  1  0
 59122  1  0
 60123  1  0
 60124  1  0
 60125  1  0
 66126  1  0
 66127  1  0
 67128  1  0
 67129  1  0
 67130  1  0
 74131  1  0
 74132  1  0
 75133  1  0
 75134  1  0
 75135  1  0
 76136  1  0
 81137  1  0
 84138  1  0
 85139  1  0
M  END

