
     RDKit          3D

110124  0  0  0  0  0  0  0  0999 V2000
   -0.7096   -5.8401    2.7038 C   0  0  0  0  0  0  0  0  0  0  0  0
    0.5664   -5.4212    2.7560 C   0  0  0  0  0  0  0  0  0  0  0  0
    1.2283   -4.4882    1.8762 C   0  0  0  0  0  0  0  0  0  0  0  0
    0.8300   -4.1096    0.7176 O   0  0  0  0  0  0  0  0  0  0  0  0
    2.4629   -3.9874    2.4482 C   0  0  0  0  0  0  0  0  0  0  0  0
    3.3260   -2.9990    2.0400 C   0  0  0  0  0  0  0  0  0  0  0  0
    4.3632   -2.5672    2.8135 C   0  0  0  0  0  0  0  0  0  0  0  0
    4.5186   -3.1728    4.0332 C   0  0  0  0  0  0  0  0  0  0  0  0
    3.6619   -4.1809    4.4791 C   0  0  0  0  0  0  0  0  0  0  0  0
    2.6250   -4.5891    3.6789 C   0  0  0  0  0  0  0  0  0  0  0  0
    1.4788   -5.5118    3.9612 C   0  0  0  0  0  0  0  0  0  0  0  0
    1.1905   -6.0699    5.0828 C   0  0  0  0  0  0  0  0  0  0  0  0
   -0.1387   -6.7045    5.4024 C   0  0  0  0  0  0  0  0  0  0  0  0
   -1.0406   -7.1233    5.6309 N   0  0  0  0  0  0  0  0  0  0  0  0
    2.1814   -6.2960    6.1287 C   0  0  0  0  0  0  0  0  0  0  0  0
    2.9489   -6.4560    6.9518 N   0  0  0  0  0  0  0  0  0  0  0  0
    5.7358   -2.3451    4.2858 C   0  0  0  0  0  0  0  0  0  0  0  0
    7.0191   -3.0639    4.0253 C   0  0  0  0  0  0  0  0  0  0  0  0
    8.1239   -2.0784    3.9141 C   0  0  0  0  0  0  0  0  0  0  0  0
    7.8104   -1.2486    2.9243 C   0  0  0  0  0  0  0  0  0  0  0  0
    6.6438   -1.8489    2.1790 C   0  0  0  0  0  0  0  0  0  0  0  0
    6.8483   -3.3157    2.5001 C   0  0  0  0  0  0  0  0  0  0  0  0
    5.4597   -1.5912    3.0059 C   0  0  0  0  0  0  0  0  0  0  0  0
   -1.5117   -5.1944    1.6263 C   0  0  0  0  0  0  0  0  0  0  0  0
   -2.5467   -5.5758    0.7955 C   0  0  0  0  0  0  0  0  0  0  0  0
   -3.0027   -6.9780    0.8026 C   0  0  0  0  0  0  0  0  0  0  0  0
   -3.8098   -7.2967    2.0344 C   0  0  0  0  0  0  0  0  0  0  0  0
   -2.8146   -4.4405    0.1291 C   0  0  0  0  0  0  0  0  0  0  0  0
   -4.1198   -4.3571   -1.3831 S   0  0  0  0  0  0  0  0  0  0  0  0
   -3.8230   -2.6310   -1.6941 C   0  0  0  0  0  0  0  0  0  0  0  0
   -4.0770   -1.5053   -2.4103 C   0  0  0  0  0  0  0  0  0  0  0  0
   -4.8302   -1.3414   -3.6456 C   0  0  0  0  0  0  0  0  0  0  0  0
   -4.7300   -0.1509   -4.2690 C   0  0  0  0  0  0  0  0  0  0  0  0
   -5.4041   -0.0046   -5.4142 N   0  0  0  0  0  0  0  0  0  0  0  0
   -6.2625   -1.4359   -5.8098 Se  0  0  0  0  0  2  0  0  0  0  0  0
   -5.5291   -2.3318   -4.0872 N   0  0  0  0  0  0  0  0  0  0  0  0
   -3.9623    0.8781   -3.7253 C   0  0  0  0  0  0  0  0  0  0  0  0
   -3.7062    2.2032   -4.1077 C   0  0  0  0  0  0  0  0  0  0  0  0
   -3.7637    3.4036   -5.3423 S   0  0  0  0  0  0  0  0  0  0  0  0
   -2.7811    4.6473   -4.6090 C   0  0  0  0  0  0  0  0  0  0  0  0
   -2.1867    5.8762   -4.7582 C   0  0  0  0  0  0  0  0  0  0  0  0
   -2.5765    6.6298   -6.1289 C   0  0  0  0  0  0  0  0  0  0  0  0
   -3.9186    7.2369   -5.7989 C   0  0  0  0  0  0  0  0  0  0  0  0
   -1.4455    6.5741   -4.1085 C   0  0  0  0  0  0  0  0  0  0  0  0
   -1.4564    5.1698   -2.7073 S   0  0  0  0  0  0  0  0  0  0  0  0
   -2.4790    4.0714   -3.4797 C   0  0  0  0  0  0  0  0  0  0  0  0
   -2.9606    2.7765   -3.2046 C   0  0  0  0  0  0  0  0  0  0  0  0
   -2.6845    1.8756   -2.1821 N   0  0  0  0  0  0  0  0  0  0  0  0
   -3.2677    0.7229   -2.5173 C   0  0  0  0  0  0  0  0  0  0  0  0
   -3.3132   -0.4929   -1.8973 C   0  0  0  0  0  0  0  0  0  0  0  0
   -2.5757   -0.9930   -0.8934 N   0  0  0  0  0  0  0  0  0  0  0  0
   -2.7902   -2.2721   -0.6565 C   0  0  0  0  0  0  0  0  0  0  0  0
   -2.8069   -3.5345   -0.2020 C   0  0  0  0  0  0  0  0  0  0  0  0
   -1.2726   -3.5226    1.2426 S   0  0  0  0  0  0  0  0  0  0  0  0
   -1.2998   -0.3825   -0.3801 C   0  0  0  0  0  0  0  0  0  0  0  0
   -0.1625   -1.2079   -1.1698 C   0  0  0  0  0  0  0  0  0  0  0  0
   -2.3445    2.2667   -0.8113 C   0  0  0  0  0  0  0  0  0  0  0  0
   -3.4712    2.0275    0.1713 C   0  0  0  0  0  0  0  0  0  0  0  0
   -0.5260    7.4148   -3.2877 C   0  0  0  0  0  0  0  0  0  0  0  0
    0.7439    6.8655   -3.1359 C   0  0  0  0  0  0  0  0  0  0  0  0
    1.2899    5.6739   -3.7075 C   0  0  0  0  0  0  0  0  0  0  0  0
    0.9814    5.1964   -4.8372 O   0  0  0  0  0  0  0  0  0  0  0  0
    2.2570    5.1116   -2.7749 C   0  0  0  0  0  0  0  0  0  0  0  0
    3.3845    3.8296   -2.4533 S   0  0  0  0  0  0  0  0  0  0  0  0
    3.9204    4.3007   -0.9253 C   0  0  0  0  0  0  0  0  0  0  0  0
    4.9328    3.6538   -0.0031 C   0  0  0  0  0  0  0  0  0  0  0  0
    3.2099    5.4477   -0.6984 C   0  0  0  0  0  0  0  0  0  0  0  0
    2.3599    5.8609   -1.6516 C   0  0  0  0  0  0  0  0  0  0  0  0
    1.3766    7.0396   -1.8272 C   0  0  0  0  0  0  0  0  0  0  0  0
    1.2511    7.9481   -0.9574 C   0  0  0  0  0  0  0  0  0  0  0  0
    0.7442    9.1284   -0.4628 C   0  0  0  0  0  0  0  0  0  0  0  0
    0.3038   10.1327   -0.0366 N   0  0  0  0  0  0  0  0  0  0  0  0
    1.0611    7.0387    0.4388 C   0  0  0  0  0  0  0  0  0  0  0  0
    0.9369    6.3676    1.4928 N   0  0  0  0  0  0  0  0  0  0  0  0
   -1.1179   -6.5720    3.3173 H   0  0  0  0  0  0  0  0  0  0  0  0
    3.1509   -2.5582    1.0408 H   0  0  0  0  0  0  0  0  0  0  0  0
    3.8660   -4.5986    5.4492 H   0  0  0  0  0  0  0  0  0  0  0  0
    5.6790   -1.7469    5.2213 H   0  0  0  0  0  0  0  0  0  0  0  0
    7.1809   -3.9562    4.5519 H   0  0  0  0  0  0  0  0  0  0  0  0
    9.0562   -2.0091    4.4917 H   0  0  0  0  0  0  0  0  0  0  0  0
    8.2239   -0.3005    2.6154 H   0  0  0  0  0  0  0  0  0  0  0  0
    6.5919   -1.5969    1.1319 H   0  0  0  0  0  0  0  0  0  0  0  0
    7.7481   -3.6783    2.0243 H   0  0  0  0  0  0  0  0  0  0  0  0
    5.9167   -3.9049    2.3219 H   0  0  0  0  0  0  0  0  0  0  0  0
    5.1350   -0.5381    3.1640 H   0  0  0  0  0  0  0  0  0  0  0  0
   -3.5919   -7.2720   -0.0859 H   0  0  0  0  0  0  0  0  0  0  0  0
   -2.0924   -7.6583    0.7391 H   0  0  0  0  0  0  0  0  0  0  0  0
   -4.9191   -7.3594    1.8494 H   0  0  0  0  0  0  0  0  0  0  0  0
   -3.6605   -6.4946    2.7957 H   0  0  0  0  0  0  0  0  0  0  0  0
   -3.4208   -8.2442    2.5115 H   0  0  0  0  0  0  0  0  0  0  0  0
   -2.6635    5.8846   -6.8923 H   0  0  0  0  0  0  0  0  0  0  0  0
   -1.8415    7.4004   -6.2962 H   0  0  0  0  0  0  0  0  0  0  0  0
   -4.6106    7.2952   -6.6457 H   0  0  0  0  0  0  0  0  0  0  0  0
   -3.8022    8.2303   -5.2657 H   0  0  0  0  0  0  0  0  0  0  0  0
   -4.5025    6.5697   -5.0530 H   0  0  0  0  0  0  0  0  0  0  0  0
   -1.0714    0.5345   -0.7920 H   0  0  0  0  0  0  0  0  0  0  0  0
   -1.1298   -0.6491    0.6457 H   0  0  0  0  0  0  0  0  0  0  0  0
   -0.3877   -0.9099   -2.2494 H   0  0  0  0  0  0  0  0  0  0  0  0
   -0.2457   -2.2450   -1.0192 H   0  0  0  0  0  0  0  0  0  0  0  0
    0.7752   -0.6945   -0.9101 H   0  0  0  0  0  0  0  0  0  0  0  0
   -2.5237    3.4870   -0.8771 H   0  0  0  0  0  0  0  0  0  0  0  0
   -1.3421    2.3334   -0.4726 H   0  0  0  0  0  0  0  0  0  0  0  0
   -4.3955    1.9124   -0.4434 H   0  0  0  0  0  0  0  0  0  0  0  0
   -3.2954    1.1773    0.8591 H   0  0  0  0  0  0  0  0  0  0  0  0
   -3.6866    2.8792    0.8385 H   0  0  0  0  0  0  0  0  0  0  0  0
   -0.8258    8.3210   -2.8920 H   0  0  0  0  0  0  0  0  0  0  0  0
    4.8992    2.5693   -0.2421 H   0  0  0  0  0  0  0  0  0  0  0  0
    4.4769    3.7435    1.0128 H   0  0  0  0  0  0  0  0  0  0  0  0
    5.9259    4.0900   -0.0721 H   0  0  0  0  0  0  0  0  0  0  0  0
    3.4100    5.9797    0.2824 H   0  0  0  0  0  0  0  0  0  0  0  0
  1  2  2  3
  2  3  1  0
  3  4  2  0
  3  5  1  0
  5  6  2  0
  6  7  1  0
  7  8  2  0
  8  9  1  0
  9 10  2  0
 10 11  1  0
 11 12  2  3
 12 13  1  0
 13 14  3  0
 12 15  1  0
 15 16  3  0
  8 17  1  0
 17 18  1  0
 18 19  1  0
 19 20  2  0
 20 21  1  0
 21 22  1  0
 21 23  1  0
  1 24  1  0
 24 25  2  0
 25 26  1  0
 26 27  1  0
 25 28  1  0
 28 29  1  0
 29 30  1  0
 30 31  1  0
 31 32  1  0
 32 33  1  0
 33 34  2  0
 34 35  1  0
 35 36  1  0
 33 37  1  0
 37 38  1  0
 38 39  1  0
 39 40  1  0
 40 41  1  0
 41 42  1  0
 42 43  1  0
 41 44  2  0
 44 45  1  0
 45 46  1  0
 46 47  1  0
 47 48  1  0
 48 49  1  0
 49 50  1  0
 50 51  1  0
 51 52  1  0
 52 53  1  0
 53 54  1  0
 51 55  1  0
 55 56  1  0
 48 57  1  0
 57 58  1  0
 44 59  1  0
 59 60  2  3
 60 61  1  0
 61 62  2  0
 61 63  1  0
 63 64  1  0
 64 65  1  0
 65 66  1  0
 65 67  2  0
 67 68  1  0
 68 69  1  0
 69 70  2  3
 70 71  1  0
 71 72  3  0
 70 73  1  0
 73 74  3  0
 11  2  1  0
 23 17  1  0
 54 24  1  0
 69 60  1  0
 10  5  1  0
 22 18  1  0
 53 28  2  0
 68 63  2  0
 23  7  1  0
 52 30  2  0
 50 31  2  0
 36 32  2  0
 49 37  2  0
 47 38  2  0
 46 40  2  0
  1 75  1  0
  6 76  1  0
  9 77  1  0
 17 78  1  0
 18 79  1  0
 19 80  1  0
 20 81  1  0
 21 82  1  0
 22 83  1  0
 22 84  1  0
 23 85  1  0
 26 86  1  0
 26 87  1  0
 27 88  1  0
 27 89  1  0
 27 90  1  0
 42 91  1  0
 42 92  1  0
 43 93  1  0
 43 94  1  0
 43 95  1  0
 55 96  1  0
 55 97  1  0
 56 98  1  0
 56 99  1  0
 56100  1  0
 57101  1  0
 57102  1  0
 58103  1  0
 58104  1  0
 58105  1  0
 59106  1  0
 66107  1  0
 66108  1  0
 66109  1  0
 67110  1  0
M  END

