
     RDKit          3D

107120  0  0  0  0  0  0  0  0999 V2000
   -2.8304   -0.7218    4.3979 C   0  0  0  0  0  0  0  0  0  0  0  0
   -3.3637   -1.9574    4.3758 C   0  0  0  0  0  0  0  0  0  0  0  0
   -3.7240   -2.7291    3.1970 C   0  0  0  0  0  0  0  0  0  0  0  0
   -3.3413   -2.5371    1.9906 O   0  0  0  0  0  0  0  0  0  0  0  0
   -4.6447   -3.7465    3.5408 C   0  0  0  0  0  0  0  0  0  0  0  0
   -5.3135   -4.5704    2.6265 C   0  0  0  0  0  0  0  0  0  0  0  0
   -6.1212   -5.4932    3.2493 C   0  0  0  0  0  0  0  0  0  0  0  0
   -6.2517   -5.6371    4.6698 C   0  0  0  0  0  0  0  0  0  0  0  0
   -5.5923   -4.8222    5.5958 C   0  0  0  0  0  0  0  0  0  0  0  0
   -4.7669   -3.8232    4.9726 C   0  0  0  0  0  0  0  0  0  0  0  0
   -3.9314   -2.7204    5.5610 C   0  0  0  0  0  0  0  0  0  0  0  0
   -3.5771   -2.5742    6.8702 C   0  0  0  0  0  0  0  0  0  0  0  0
   -4.1795   -3.3660    7.9497 C   0  0  0  0  0  0  0  0  0  0  0  0
   -4.6414   -3.9532    8.8248 N   0  0  0  0  0  0  0  0  0  0  0  0
   -2.4873   -1.7169    7.2858 C   0  0  0  0  0  0  0  0  0  0  0  0
   -1.5920   -1.0848    7.6165 N   0  0  0  0  0  0  0  0  0  0  0  0
   -7.3402   -6.6525    4.4804 C   0  0  0  0  0  0  0  0  0  0  0  0
   -8.8073   -6.1825    4.7331 C   0  0  0  0  0  0  0  0  0  0  0  0
   -9.6763   -7.2401    4.0793 C   0  0  0  0  0  0  0  0  0  0  0  0
   -9.5584   -7.0512    2.7579 C   0  0  0  0  0  0  0  0  0  0  0  0
   -8.5780   -5.9201    2.5714 C   0  0  0  0  0  0  0  0  0  0  0  0
   -9.0240   -5.0313    3.7364 C   0  0  0  0  0  0  0  0  0  0  0  0
   -7.2019   -6.5165    3.0384 C   0  0  0  0  0  0  0  0  0  0  0  0
   -2.1575   -0.0522    3.2822 C   0  0  0  0  0  0  0  0  0  0  0  0
   -2.8854    0.3296    1.7930 S   0  0  0  0  0  0  0  0  0  0  0  0
   -1.4537    0.8426    1.1471 C   0  0  0  0  0  0  0  0  0  0  0  0
   -1.0249    1.3863   -0.0151 C   0  0  0  0  0  0  0  0  0  0  0  0
   -1.6406    1.4675   -1.2569 C   0  0  0  0  0  0  0  0  0  0  0  0
   -1.0645    2.2712   -2.2546 C   0  0  0  0  0  0  0  0  0  0  0  0
   -1.7269    2.3711   -3.4371 N   0  0  0  0  0  0  0  0  0  0  0  0
   -3.0558    1.4397   -3.1151 S   0  0  0  0  0  0  0  0  0  0  0  0
   -2.8328    0.8918   -1.5619 N   0  0  0  0  0  0  0  0  0  0  0  0
    0.1263    2.9500   -1.9808 C   0  0  0  0  0  0  0  0  0  0  0  0
    0.8743    3.7823   -2.7547 C   0  0  0  0  0  0  0  0  0  0  0  0
    1.4039    3.5325   -4.3533 S   0  0  0  0  0  0  0  0  0  0  0  0
    3.0084    4.0373   -3.9902 C   0  0  0  0  0  0  0  0  0  0  0  0
    4.0851    4.5160   -4.7900 C   0  0  0  0  0  0  0  0  0  0  0  0
    3.8130    4.9867   -6.2019 C   0  0  0  0  0  0  0  0  0  0  0  0
    3.0325    6.3028   -6.1112 C   0  0  0  0  0  0  0  0  0  0  0  0
    5.0452    5.1986   -4.0638 C   0  0  0  0  0  0  0  0  0  0  0  0
    4.2695    5.7327   -2.6342 S   0  0  0  0  0  0  0  0  0  0  0  0
    2.9760    4.6395   -2.7896 C   0  0  0  0  0  0  0  0  0  0  0  0
    1.8953    4.2241   -1.9706 C   0  0  0  0  0  0  0  0  0  0  0  0
    2.0168    3.4701   -0.8513 N   0  0  0  0  0  0  0  0  0  0  0  0
    0.8458    2.7741   -0.7780 C   0  0  0  0  0  0  0  0  0  0  0  0
    0.2436    1.9400    0.2502 C   0  0  0  0  0  0  0  0  0  0  0  0
    0.6043    1.6429    1.5513 N   0  0  0  0  0  0  0  0  0  0  0  0
   -0.4388    0.9190    2.0468 C   0  0  0  0  0  0  0  0  0  0  0  0
   -0.8164    0.4146    3.3229 C   0  0  0  0  0  0  0  0  0  0  0  0
    0.0078    0.3610    4.6015 C   0  0  0  0  0  0  0  0  0  0  0  0
   -0.3000    1.5554    5.5239 C   0  0  0  0  0  0  0  0  0  0  0  0
    1.7695    2.0364    2.3482 C   0  0  0  0  0  0  0  0  0  0  0  0
    2.8316    0.9358    2.3072 C   0  0  0  0  0  0  0  0  0  0  0  0
    3.3433    2.8644   -0.5216 C   0  0  0  0  0  0  0  0  0  0  0  0
    3.5676    1.5607   -1.3182 C   0  0  0  0  0  0  0  0  0  0  0  0
    6.3640    4.5751   -3.6646 C   0  0  0  0  0  0  0  0  0  0  0  0
    7.0607    3.6476   -4.3215 C   0  0  0  0  0  0  0  0  0  0  0  0
    8.3851    3.3674   -3.6491 C   0  0  0  0  0  0  0  0  0  0  0  0
    9.3576    4.1550   -3.5446 O   0  0  0  0  0  0  0  0  0  0  0  0
    8.3465    1.9885   -3.1323 C   0  0  0  0  0  0  0  0  0  0  0  0
    9.2524    1.3101   -2.3316 C   0  0  0  0  0  0  0  0  0  0  0  0
    8.9046    0.0224   -1.8836 C   0  0  0  0  0  0  0  0  0  0  0  0
   10.0245   -0.8335   -0.7773 Cl  0  0  0  0  0  0  0  0  0  0  0  0
    7.6272   -0.5271   -2.1666 C   0  0  0  0  0  0  0  0  0  0  0  0
    7.1393   -2.0975   -1.5350 Cl  0  0  0  0  0  0  0  0  0  0  0  0
    6.7568    0.1752   -3.0100 C   0  0  0  0  0  0  0  0  0  0  0  0
    7.1726    1.3889   -3.5551 C   0  0  0  0  0  0  0  0  0  0  0  0
    6.4340    2.3112   -4.4273 C   0  0  0  0  0  0  0  0  0  0  0  0
    5.8311    1.8678   -5.5577 C   0  0  0  0  0  0  0  0  0  0  0  0
    5.8324    2.5864   -6.8072 C   0  0  0  0  0  0  0  0  0  0  0  0
    5.8822    3.1405   -7.8240 N   0  0  0  0  0  0  0  0  0  0  0  0
    4.8061    0.7879   -5.4106 C   0  0  0  0  0  0  0  0  0  0  0  0
    3.9622    0.0311   -5.2171 N   0  0  0  0  0  0  0  0  0  0  0  0
   -2.7917   -0.1509    5.2957 H   0  0  0  0  0  0  0  0  0  0  0  0
   -5.2611   -4.4604    1.5699 H   0  0  0  0  0  0  0  0  0  0  0  0
   -5.7891   -4.8934    6.6528 H   0  0  0  0  0  0  0  0  0  0  0  0
   -7.0506   -7.6314    4.8756 H   0  0  0  0  0  0  0  0  0  0  0  0
   -9.0692   -5.9706    5.7976 H   0  0  0  0  0  0  0  0  0  0  0  0
  -10.3336   -7.9740    4.5435 H   0  0  0  0  0  0  0  0  0  0  0  0
  -10.1919   -7.5191    1.9985 H   0  0  0  0  0  0  0  0  0  0  0  0
   -8.6133   -5.4243    1.5604 H   0  0  0  0  0  0  0  0  0  0  0  0
   -8.4588   -4.0873    3.9565 H   0  0  0  0  0  0  0  0  0  0  0  0
  -10.1090   -4.7232    3.6688 H   0  0  0  0  0  0  0  0  0  0  0  0
   -6.8414   -7.4100    2.4763 H   0  0  0  0  0  0  0  0  0  0  0  0
    3.2064    4.2492   -6.8025 H   0  0  0  0  0  0  0  0  0  0  0  0
    4.7476    5.2057   -6.7349 H   0  0  0  0  0  0  0  0  0  0  0  0
    2.1705    6.2381   -5.4017 H   0  0  0  0  0  0  0  0  0  0  0  0
    3.6781    7.1447   -5.7826 H   0  0  0  0  0  0  0  0  0  0  0  0
    2.5560    6.6077   -7.0968 H   0  0  0  0  0  0  0  0  0  0  0  0
    1.0946    0.2662    4.4430 H   0  0  0  0  0  0  0  0  0  0  0  0
   -0.2468   -0.5620    5.1438 H   0  0  0  0  0  0  0  0  0  0  0  0
    0.0531    1.3392    6.5505 H   0  0  0  0  0  0  0  0  0  0  0  0
    0.1911    2.4921    5.1652 H   0  0  0  0  0  0  0  0  0  0  0  0
   -1.4054    1.7474    5.5877 H   0  0  0  0  0  0  0  0  0  0  0  0
    2.1304    3.0318    2.0463 H   0  0  0  0  0  0  0  0  0  0  0  0
    1.4888    2.1655    3.3838 H   0  0  0  0  0  0  0  0  0  0  0  0
    3.7860    1.2763    2.7429 H   0  0  0  0  0  0  0  0  0  0  0  0
    2.4883   -0.0064    2.8093 H   0  0  0  0  0  0  0  0  0  0  0  0
    3.0440    0.6135    1.2512 H   0  0  0  0  0  0  0  0  0  0  0  0
    3.4975    2.6851    0.5591 H   0  0  0  0  0  0  0  0  0  0  0  0
    4.1832    3.5560   -0.6858 H   0  0  0  0  0  0  0  0  0  0  0  0
    4.2956    0.8849   -0.7695 H   0  0  0  0  0  0  0  0  0  0  0  0
    3.9121    1.7938   -2.3249 H   0  0  0  0  0  0  0  0  0  0  0  0
    2.6464    0.9405   -1.4094 H   0  0  0  0  0  0  0  0  0  0  0  0
    6.9854    5.4466   -3.3825 H   0  0  0  0  0  0  0  0  0  0  0  0
   10.2174    1.7355   -2.1011 H   0  0  0  0  0  0  0  0  0  0  0  0
    5.7471   -0.2376   -3.1879 H   0  0  0  0  0  0  0  0  0  0  0  0
  1  2  2  3
  2  3  1  0
  3  4  2  0
  3  5  1  0
  5  6  2  0
  6  7  1  0
  7  8  2  0
  8  9  1  0
  9 10  2  0
 10 11  1  0
 11 12  2  3
 12 13  1  0
 13 14  3  0
 12 15  1  0
 15 16  3  0
  8 17  1  0
 17 18  1  0
 18 19  1  0
 19 20  2  0
 20 21  1  0
 21 22  1  0
 21 23  1  0
  1 24  1  0
 24 25  1  0
 25 26  1  0
 26 27  1  0
 27 28  1  0
 28 29  1  0
 29 30  2  0
 30 31  1  0
 31 32  1  0
 29 33  1  0
 33 34  1  0
 34 35  1  0
 35 36  1  0
 36 37  1  0
 37 38  1  0
 38 39  1  0
 37 40  2  0
 40 41  1  0
 41 42  1  0
 42 43  1  0
 43 44  1  0
 44 45  1  0
 45 46  1  0
 46 47  1  0
 47 48  1  0
 48 49  1  0
 49 50  1  0
 50 51  1  0
 47 52  1  0
 52 53  1  0
 44 54  1  0
 54 55  1  0
 40 56  1  0
 56 57  2  3
 57 58  1  0
 58 59  2  0
 58 60  1  0
 60 61  2  0
 61 62  1  0
 62 63  1  0
 62 64  2  0
 64 65  1  0
 64 66  1  0
 66 67  2  0
 67 68  1  0
 68 69  2  3
 69 70  1  0
 70 71  3  0
 69 72  1  0
 72 73  3  0
 11  2  1  0
 23 17  1  0
 49 24  2  0
 68 57  1  0
 10  5  1  0
 22 18  1  0
 48 26  2  0
 67 60  1  0
 23  7  1  0
 46 27  2  0
 32 28  2  0
 45 33  2  0
 43 34  2  0
 42 36  2  0
  1 74  1  0
  6 75  1  0
  9 76  1  0
 17 77  1  0
 18 78  1  0
 19 79  1  0
 20 80  1  0
 21 81  1  0
 22 82  1  0
 22 83  1  0
 23 84  1  0
 38 85  1  0
 38 86  1  0
 39 87  1  0
 39 88  1  0
 39 89  1  0
 50 90  1  0
 50 91  1  0
 51 92  1  0
 51 93  1  0
 51 94  1  0
 52 95  1  0
 52 96  1  0
 53 97  1  0
 53 98  1  0
 53 99  1  0
 54100  1  0
 54101  1  0
 55102  1  0
 55103  1  0
 55104  1  0
 56105  1  0
 61106  1  0
 66107  1  0
M  END

