
     RDKit          3D

170190  0  0  0  0  0  0  0  0999 V2000
   -5.3899   -2.0068    5.6146 C   0  0  0  0  0  0  0  0  0  0  0  0
   -6.6175   -2.3803    5.2019 C   0  0  0  0  0  0  0  0  0  0  0  0
   -7.2589   -2.0438    3.9220 C   0  0  0  0  0  0  0  0  0  0  0  0
   -6.6789   -1.6999    2.8591 O   0  0  0  0  0  0  0  0  0  0  0  0
   -8.6916   -2.2035    4.0750 C   0  0  0  0  0  0  0  0  0  0  0  0
   -9.7069   -1.8124    3.1673 C   0  0  0  0  0  0  0  0  0  0  0  0
  -10.9900   -1.9968    3.6504 C   0  0  0  0  0  0  0  0  0  0  0  0
  -11.2669   -2.5304    4.9507 C   0  0  0  0  0  0  0  0  0  0  0  0
  -10.2802   -2.9089    5.8461 C   0  0  0  0  0  0  0  0  0  0  0  0
   -8.9545   -2.7449    5.3603 C   0  0  0  0  0  0  0  0  0  0  0  0
   -7.6674   -3.0175    6.0494 C   0  0  0  0  0  0  0  0  0  0  0  0
   -7.4606   -3.9426    7.0240 C   0  0  0  0  0  0  0  0  0  0  0  0
   -6.1384   -4.3548    7.4243 C   0  0  0  0  0  0  0  0  0  0  0  0
   -5.0791   -4.6894    7.7543 N   0  0  0  0  0  0  0  0  0  0  0  0
   -8.5368   -4.6808    7.6314 C   0  0  0  0  0  0  0  0  0  0  0  0
   -9.3944   -5.2871    8.1219 N   0  0  0  0  0  0  0  0  0  0  0  0
  -12.7381   -2.4093    4.7082 C   0  0  0  0  0  0  0  0  0  0  0  0
  -13.5261   -3.7196    4.4079 C   0  0  0  0  0  0  0  0  0  0  0  0
  -12.6334   -4.7090    3.6887 C   0  0  0  0  0  0  0  0  0  0  0  0
  -12.3958   -4.2011    2.4798 C   0  0  0  0  0  0  0  0  0  0  0  0
  -13.1308   -2.8805    2.4158 C   0  0  0  0  0  0  0  0  0  0  0  0
  -14.3588   -3.2523    3.2290 C   0  0  0  0  0  0  0  0  0  0  0  0
  -12.4627   -1.8553    3.3786 C   0  0  0  0  0  0  0  0  0  0  0  0
   -4.3397   -1.4677    4.7401 C   0  0  0  0  0  0  0  0  0  0  0  0
   -2.8948   -2.3165    4.4913 S   0  0  0  0  0  0  0  0  0  0  0  0
   -2.2599   -1.1374    3.5023 C   0  0  0  0  0  0  0  0  0  0  0  0
   -1.3006   -1.1669    2.4592 C   0  0  0  0  0  0  0  0  0  0  0  0
   -1.5839   -0.1902    1.5511 C   0  0  0  0  0  0  0  0  0  0  0  0
   -2.7134    0.7273    2.0430 C   0  0  0  0  0  0  0  0  0  0  0  0
   -3.1385   -0.1161    3.2702 C   0  0  0  0  0  0  0  0  0  0  0  0
   -4.3323   -0.2564    4.0107 C   0  0  0  0  0  0  0  0  0  0  0  0
   -5.4085    0.7852    4.0871 C   0  0  0  0  0  0  0  0  0  0  0  0
   -2.1961    2.0633    2.5984 C   0  0  0  0  0  0  0  0  0  0  0  0
   -3.1065    3.0378    3.0570 C   0  0  0  0  0  0  0  0  0  0  0  0
   -2.6587    4.2463    3.5960 C   0  0  0  0  0  0  0  0  0  0  0  0
   -1.2896    4.5188    3.6882 C   0  0  0  0  0  0  0  0  0  0  0  0
   -0.8106    5.8130    4.2915 C   0  0  0  0  0  0  0  0  0  0  0  0
   -0.5613    5.6536    5.7870 C   0  0  0  0  0  0  0  0  0  0  0  0
   -0.3693    3.5515    3.2652 C   0  0  0  0  0  0  0  0  0  0  0  0
   -0.8138    2.3371    2.7342 C   0  0  0  0  0  0  0  0  0  0  0  0
   -3.8223    0.8140    0.9672 C   0  0  0  0  0  0  0  0  0  0  0  0
   -4.6043   -0.3450    0.7579 C   0  0  0  0  0  0  0  0  0  0  0  0
   -5.7011   -0.3441   -0.1036 C   0  0  0  0  0  0  0  0  0  0  0  0
   -6.0456    0.8123   -0.8020 C   0  0  0  0  0  0  0  0  0  0  0  0
   -7.2491    0.8283   -1.7059 C   0  0  0  0  0  0  0  0  0  0  0  0
   -6.8513    0.5260   -3.1471 C   0  0  0  0  0  0  0  0  0  0  0  0
   -5.2188    1.9357   -0.7090 C   0  0  0  0  0  0  0  0  0  0  0  0
   -4.0766    1.9416    0.1127 C   0  0  0  0  0  0  0  0  0  0  0  0
   -3.2015    3.1693    0.0036 C   0  0  0  0  0  0  0  0  0  0  0  0
   -0.7830   -0.3039    0.4080 C   0  0  0  0  0  0  0  0  0  0  0  0
   -0.8440    0.4432   -0.7794 C   0  0  0  0  0  0  0  0  0  0  0  0
    0.0928    0.1433   -1.7737 C   0  0  0  0  0  0  0  0  0  0  0  0
    0.3352    0.9688   -3.2362 S   0  0  0  0  0  0  0  0  0  0  0  0
    1.6590    0.0127   -3.6500 C   0  0  0  0  0  0  0  0  0  0  0  0
    2.8002    0.1972   -4.4973 C   0  0  0  0  0  0  0  0  0  0  0  0
    3.8460   -0.5130   -3.9807 C   0  0  0  0  0  0  0  0  0  0  0  0
    3.4371   -1.3333   -2.7580 C   0  0  0  0  0  0  0  0  0  0  0  0
    3.4260   -2.8451   -3.0319 C   0  0  0  0  0  0  0  0  0  0  0  0
    3.5458   -3.7743   -1.9742 C   0  0  0  0  0  0  0  0  0  0  0  0
    3.4268   -5.1462   -2.2043 C   0  0  0  0  0  0  0  0  0  0  0  0
    3.1805   -5.6308   -3.4945 C   0  0  0  0  0  0  0  0  0  0  0  0
    3.0173   -7.1070   -3.7322 C   0  0  0  0  0  0  0  0  0  0  0  0
    1.5422   -7.4995   -3.6976 C   0  0  0  0  0  0  0  0  0  0  0  0
    3.0259   -4.7222   -4.5489 C   0  0  0  0  0  0  0  0  0  0  0  0
    3.1362   -3.3452   -4.3201 C   0  0  0  0  0  0  0  0  0  0  0  0
    4.3264   -0.9060   -1.5728 C   0  0  0  0  0  0  0  0  0  0  0  0
    5.5994   -1.4899   -1.4043 C   0  0  0  0  0  0  0  0  0  0  0  0
    6.4554   -1.0711   -0.3822 C   0  0  0  0  0  0  0  0  0  0  0  0
    6.0793   -0.0257    0.4733 C   0  0  0  0  0  0  0  0  0  0  0  0
    6.9945    0.4163    1.5880 C   0  0  0  0  0  0  0  0  0  0  0  0
    6.7568   -0.4093    2.8485 C   0  0  0  0  0  0  0  0  0  0  0  0
    4.8340    0.5871    0.2965 C   0  0  0  0  0  0  0  0  0  0  0  0
    3.9814    0.1765   -0.7313 C   0  0  0  0  0  0  0  0  0  0  0  0
    1.9909   -0.8633   -2.6503 C   0  0  0  0  0  0  0  0  0  0  0  0
    1.0765   -0.8440   -1.5954 C   0  0  0  0  0  0  0  0  0  0  0  0
    1.1122   -1.6175   -0.4304 C   0  0  0  0  0  0  0  0  0  0  0  0
    0.1533   -1.3473    0.5441 C   0  0  0  0  0  0  0  0  0  0  0  0
   -0.0573   -2.1926    1.9966 S   0  0  0  0  0  0  0  0  0  0  0  0
    5.0979   -0.0325   -4.3850 C   0  0  0  0  0  0  0  0  0  0  0  0
    4.9877    1.0534   -5.2701 C   0  0  0  0  0  0  0  0  0  0  0  0
    3.3480    1.4745   -5.4218 S   0  0  0  0  0  0  0  0  0  0  0  0
    6.0588    1.9743   -5.7057 C   0  0  0  0  0  0  0  0  0  0  0  0
    7.3818    1.7197   -5.7530 C   0  0  0  0  0  0  0  0  0  0  0  0
    8.0661    0.4638   -5.4151 C   0  0  0  0  0  0  0  0  0  0  0  0
    7.6491   -0.6996   -5.6601 O   0  0  0  0  0  0  0  0  0  0  0  0
    9.3804    0.7878   -4.8886 C   0  0  0  0  0  0  0  0  0  0  0  0
   10.2628   -0.0599   -4.1775 C   0  0  0  0  0  0  0  0  0  0  0  0
   11.3250    0.6072   -3.5893 C   0  0  0  0  0  0  0  0  0  0  0  0
   11.5051    2.0264   -3.6855 C   0  0  0  0  0  0  0  0  0  0  0  0
   10.6629    2.8542   -4.4038 C   0  0  0  0  0  0  0  0  0  0  0  0
    9.5889    2.1801   -5.0379 C   0  0  0  0  0  0  0  0  0  0  0  0
    8.4374    2.7689   -5.7604 C   0  0  0  0  0  0  0  0  0  0  0  0
    8.4608    3.8986   -6.5088 C   0  0  0  0  0  0  0  0  0  0  0  0
    7.3435    4.3005   -7.3223 C   0  0  0  0  0  0  0  0  0  0  0  0
    6.4457    4.6318   -7.9696 N   0  0  0  0  0  0  0  0  0  0  0  0
    9.6768    4.6487   -6.7015 C   0  0  0  0  0  0  0  0  0  0  0  0
   10.6570    5.2335   -6.8785 N   0  0  0  0  0  0  0  0  0  0  0  0
   12.7043    1.9528   -2.7920 C   0  0  0  0  0  0  0  0  0  0  0  0
   14.0854    2.1318   -3.4818 C   0  0  0  0  0  0  0  0  0  0  0  0
   15.1059    1.6320   -2.4894 C   0  0  0  0  0  0  0  0  0  0  0  0
   14.9586    0.3035   -2.4310 C   0  0  0  0  0  0  0  0  0  0  0  0
   13.8367   -0.0479   -3.3781 C   0  0  0  0  0  0  0  0  0  0  0  0
   14.1267    0.9746   -4.4630 C   0  0  0  0  0  0  0  0  0  0  0  0
   12.5364    0.4986   -2.7144 C   0  0  0  0  0  0  0  0  0  0  0  0
   -5.0798   -2.2038    6.6291 H   0  0  0  0  0  0  0  0  0  0  0  0
   -9.4987   -1.3846    2.1963 H   0  0  0  0  0  0  0  0  0  0  0  0
  -10.5341   -3.2511    6.8375 H   0  0  0  0  0  0  0  0  0  0  0  0
  -13.2478   -1.7024    5.4008 H   0  0  0  0  0  0  0  0  0  0  0  0
  -14.1024   -4.1364    5.2602 H   0  0  0  0  0  0  0  0  0  0  0  0
  -12.3001   -5.6791    4.0482 H   0  0  0  0  0  0  0  0  0  0  0  0
  -11.8316   -4.6771    1.6830 H   0  0  0  0  0  0  0  0  0  0  0  0
  -13.3375   -2.5040    1.3926 H   0  0  0  0  0  0  0  0  0  0  0  0
  -15.0172   -2.3835    3.4672 H   0  0  0  0  0  0  0  0  0  0  0  0
  -14.9692   -4.0640    2.7704 H   0  0  0  0  0  0  0  0  0  0  0  0
  -12.8077   -0.8012    3.2619 H   0  0  0  0  0  0  0  0  0  0  0  0
   -5.0356    1.6507    4.6708 H   0  0  0  0  0  0  0  0  0  0  0  0
   -5.7104    1.1058    3.0688 H   0  0  0  0  0  0  0  0  0  0  0  0
   -6.3088    0.4088    4.6110 H   0  0  0  0  0  0  0  0  0  0  0  0
   -4.1673    2.8994    2.9344 H   0  0  0  0  0  0  0  0  0  0  0  0
   -3.3847    4.9800    3.9244 H   0  0  0  0  0  0  0  0  0  0  0  0
    0.1250    6.1430    3.7898 H   0  0  0  0  0  0  0  0  0  0  0  0
   -1.5668    6.6132    4.1300 H   0  0  0  0  0  0  0  0  0  0  0  0
    0.2329    4.8975    5.9647 H   0  0  0  0  0  0  0  0  0  0  0  0
   -1.4931    5.3339    6.3008 H   0  0  0  0  0  0  0  0  0  0  0  0
   -0.2354    6.6230    6.2196 H   0  0  0  0  0  0  0  0  0  0  0  0
    0.6936    3.7361    3.3537 H   0  0  0  0  0  0  0  0  0  0  0  0
   -0.0608    1.6184    2.4334 H   0  0  0  0  0  0  0  0  0  0  0  0
   -4.3697   -1.2639    1.2794 H   0  0  0  0  0  0  0  0  0  0  0  0
   -6.2929   -1.2447   -0.2110 H   0  0  0  0  0  0  0  0  0  0  0  0
   -7.9965    0.0782   -1.3673 H   0  0  0  0  0  0  0  0  0  0  0  0
   -7.7405    1.8250   -1.6618 H   0  0  0  0  0  0  0  0  0  0  0  0
   -6.1395    1.2940   -3.5215 H   0  0  0  0  0  0  0  0  0  0  0  0
   -6.3769   -0.4751   -3.2175 H   0  0  0  0  0  0  0  0  0  0  0  0
   -7.7560    0.5341   -3.7905 H   0  0  0  0  0  0  0  0  0  0  0  0
   -5.4528    2.8066   -1.3067 H   0  0  0  0  0  0  0  0  0  0  0  0
   -3.6182    3.9910    0.6188 H   0  0  0  0  0  0  0  0  0  0  0  0
   -3.1769    3.5240   -1.0483 H   0  0  0  0  0  0  0  0  0  0  0  0
   -2.1479    2.9816    0.2774 H   0  0  0  0  0  0  0  0  0  0  0  0
   -1.5762    1.2117   -0.9383 H   0  0  0  0  0  0  0  0  0  0  0  0
    3.7318   -3.4471   -0.9605 H   0  0  0  0  0  0  0  0  0  0  0  0
    3.5186   -5.8307   -1.3702 H   0  0  0  0  0  0  0  0  0  0  0  0
    3.4487   -7.3840   -4.7167 H   0  0  0  0  0  0  0  0  0  0  0  0
    3.5644   -7.6838   -2.9574 H   0  0  0  0  0  0  0  0  0  0  0  0
    1.0799   -7.1978   -2.7336 H   0  0  0  0  0  0  0  0  0  0  0  0
    0.9978   -7.0086   -4.5325 H   0  0  0  0  0  0  0  0  0  0  0  0
    1.4490   -8.5995   -3.8085 H   0  0  0  0  0  0  0  0  0  0  0  0
    2.7995   -5.0761   -5.5467 H   0  0  0  0  0  0  0  0  0  0  0  0
    2.9713   -2.6758   -5.1535 H   0  0  0  0  0  0  0  0  0  0  0  0
    5.9373   -2.2731   -2.0706 H   0  0  0  0  0  0  0  0  0  0  0  0
    7.4186   -1.5526   -0.2696 H   0  0  0  0  0  0  0  0  0  0  0  0
    8.0551    0.3133    1.2760 H   0  0  0  0  0  0  0  0  0  0  0  0
    6.8224    1.4890    1.8205 H   0  0  0  0  0  0  0  0  0  0  0  0
    5.7077   -0.2966    3.1927 H   0  0  0  0  0  0  0  0  0  0  0  0
    7.4341   -0.0575    3.6572 H   0  0  0  0  0  0  0  0  0  0  0  0
    6.9666   -1.4820    2.6531 H   0  0  0  0  0  0  0  0  0  0  0  0
    4.5280    1.3980    0.9472 H   0  0  0  0  0  0  0  0  0  0  0  0
    3.0596    0.7225   -0.8640 H   0  0  0  0  0  0  0  0  0  0  0  0
    1.8448   -2.3921   -0.2790 H   0  0  0  0  0  0  0  0  0  0  0  0
    6.0150   -0.3547   -3.9196 H   0  0  0  0  0  0  0  0  0  0  0  0
    5.7232    2.9846   -5.8801 H   0  0  0  0  0  0  0  0  0  0  0  0
   10.0868   -1.1194   -4.0398 H   0  0  0  0  0  0  0  0  0  0  0  0
   10.7899    3.9264   -4.4097 H   0  0  0  0  0  0  0  0  0  0  0  0
   12.5701    2.4842   -1.8231 H   0  0  0  0  0  0  0  0  0  0  0  0
   14.2843    3.1382   -3.9036 H   0  0  0  0  0  0  0  0  0  0  0  0
   15.8683    2.2121   -1.9812 H   0  0  0  0  0  0  0  0  0  0  0  0
   15.5816   -0.3822   -1.8692 H   0  0  0  0  0  0  0  0  0  0  0  0
   13.8022   -1.1085   -3.7028 H   0  0  0  0  0  0  0  0  0  0  0  0
   13.3528    1.0231   -5.2624 H   0  0  0  0  0  0  0  0  0  0  0  0
   15.1238    0.8399   -4.9447 H   0  0  0  0  0  0  0  0  0  0  0  0
   12.3171    0.1105   -1.6964 H   0  0  0  0  0  0  0  0  0  0  0  0
  1  2  2  3
  2  3  1  0
  3  4  2  0
  3  5  1  0
  5  6  2  0
  6  7  1  0
  7  8  2  0
  8  9  1  0
  9 10  2  0
 10 11  1  0
 11 12  2  3
 12 13  1  0
 13 14  3  0
 12 15  1  0
 15 16  3  0
  8 17  1  0
 17 18  1  0
 18 19  1  0
 19 20  2  0
 20 21  1  0
 21 22  1  0
 21 23  1  0
  1 24  1  0
 24 25  1  0
 25 26  1  0
 26 27  1  0
 27 28  2  0
 28 29  1  0
 29 30  1  0
 30 31  1  0
 31 32  1  0
 29 33  1  0
 33 34  2  0
 34 35  1  0
 35 36  2  0
 36 37  1  0
 37 38  1  0
 36 39  1  0
 39 40  2  0
 29 41  1  0
 41 42  2  0
 42 43  1  0
 43 44  2  0
 44 45  1  0
 45 46  1  0
 44 47  1  0
 47 48  2  0
 48 49  1  0
 28 50  1  0
 50 51  2  0
 51 52  1  0
 52 53  1  0
 53 54  1  0
 54 55  1  0
 55 56  2  0
 56 57  1  0
 57 58  1  0
 58 59  2  0
 59 60  1  0
 60 61  2  0
 61 62  1  0
 62 63  1  0
 61 64  1  0
 64 65  2  0
 57 66  1  0
 66 67  2  0
 67 68  1  0
 68 69  2  0
 69 70  1  0
 70 71  1  0
 69 72  1  0
 72 73  2  0
 57 74  1  0
 74 75  1  0
 75 76  1  0
 76 77  2  0
 77 78  1  0
 56 79  1  0
 79 80  2  0
 80 81  1  0
 80 82  1  0
 82 83  2  3
 83 84  1  0
 84 85  2  0
 84 86  1  0
 86 87  2  0
 87 88  1  0
 88 89  2  0
 89 90  1  0
 90 91  2  0
 91 92  1  0
 92 93  2  3
 93 94  1  0
 94 95  3  0
 93 96  1  0
 96 97  3  0
 89 98  1  0
 98 99  1  0
 99100  1  0
100101  2  0
101102  1  0
102103  1  0
102104  1  0
 11  2  1  0
 23 17  1  0
 31 24  2  0
 40 33  1  0
 48 41  1  0
 77 50  1  0
 92 83  1  0
104 98  1  0
 10  5  1  0
 22 18  1  0
 30 26  2  0
 75 52  2  0
 91 86  1  0
103 99  1  0
 23  7  1  0
 78 27  1  0
104 88  1  0
 74 54  2  0
 81 55  1  0
 65 58  1  0
 73 66  1  0
  1105  1  0
  6106  1  0
  9107  1  0
 17108  1  0
 18109  1  0
 19110  1  0
 20111  1  0
 21112  1  0
 22113  1  0
 22114  1  0
 23115  1  0
 32116  1  0
 32117  1  0
 32118  1  0
 34119  1  0
 35120  1  0
 37121  1  0
 37122  1  0
 38123  1  0
 38124  1  0
 38125  1  0
 39126  1  0
 40127  1  0
 42128  1  0
 43129  1  0
 45130  1  0
 45131  1  0
 46132  1  0
 46133  1  0
 46134  1  0
 47135  1  0
 49136  1  0
 49137  1  0
 49138  1  0
 51139  1  0
 59140  1  0
 60141  1  0
 62142  1  0
 62143  1  0
 63144  1  0
 63145  1  0
 63146  1  0
 64147  1  0
 65148  1  0
 67149  1  0
 68150  1  0
 70151  1  0
 70152  1  0
 71153  1  0
 71154  1  0
 71155  1  0
 72156  1  0
 73157  1  0
 76158  1  0
 79159  1  0
 82160  1  0
 87161  1  0
 90162  1  0
 98163  1  0
 99164  1  0
100165  1  0
101166  1  0
102167  1  0
103168  1  0
103169  1  0
104170  1  0
M  END

