
     RDKit          3D

162180  0  0  0  0  0  0  0  0999 V2000
   -2.9074    3.5798   -3.5600 C   0  0  0  0  0  0  0  0  0  0  0  0
   -3.4492    4.7880   -3.3318 C   0  0  0  0  0  0  0  0  0  0  0  0
   -4.0721    5.5724   -4.3969 C   0  0  0  0  0  0  0  0  0  0  0  0
   -4.5089    5.1216   -5.4876 O   0  0  0  0  0  0  0  0  0  0  0  0
   -4.0066    6.9725   -4.0343 C   0  0  0  0  0  0  0  0  0  0  0  0
   -4.3399    8.0841   -4.8401 C   0  0  0  0  0  0  0  0  0  0  0  0
   -4.0256    9.3009   -4.2674 C   0  0  0  0  0  0  0  0  0  0  0  0
   -3.4050    9.4262   -2.9820 C   0  0  0  0  0  0  0  0  0  0  0  0
   -3.0822    8.3385   -2.1853 C   0  0  0  0  0  0  0  0  0  0  0  0
   -3.4309    7.0798   -2.7432 C   0  0  0  0  0  0  0  0  0  0  0  0
   -3.2327    5.7170   -2.1875 C   0  0  0  0  0  0  0  0  0  0  0  0
   -3.3176    5.3819   -0.8754 C   0  0  0  0  0  0  0  0  0  0  0  0
   -3.6354    4.0381   -0.4574 C   0  0  0  0  0  0  0  0  0  0  0  0
   -3.8938    2.9615   -0.1226 N   0  0  0  0  0  0  0  0  0  0  0  0
   -3.2536    6.3664    0.1767 C   0  0  0  0  0  0  0  0  0  0  0  0
   -3.2039    7.1457    1.0303 N   0  0  0  0  0  0  0  0  0  0  0  0
   -3.3551   10.9170   -3.1346 C   0  0  0  0  0  0  0  0  0  0  0  0
   -1.9699   11.5419   -3.4764 C   0  0  0  0  0  0  0  0  0  0  0  0
   -2.2587   12.9454   -3.9562 C   0  0  0  0  0  0  0  0  0  0  0  0
   -2.8571   12.8287   -5.1469 C   0  0  0  0  0  0  0  0  0  0  0  0
   -2.9476   11.3492   -5.4334 C   0  0  0  0  0  0  0  0  0  0  0  0
   -1.6298   10.9099   -4.8153 C   0  0  0  0  0  0  0  0  0  0  0  0
   -4.0063   10.7886   -4.4423 C   0  0  0  0  0  0  0  0  0  0  0  0
   -1.8922    2.9110   -2.7243 C   0  0  0  0  0  0  0  0  0  0  0  0
   -0.9395    3.5269   -1.8938 C   0  0  0  0  0  0  0  0  0  0  0  0
   -0.1324    2.5777   -1.2726 C   0  0  0  0  0  0  0  0  0  0  0  0
    0.9971    2.6539   -0.2691 C   0  0  0  0  0  0  0  0  0  0  0  0
    0.5453    3.4706    0.9450 C   0  0  0  0  0  0  0  0  0  0  0  0
   -0.0341    2.8709    2.0812 C   0  0  0  0  0  0  0  0  0  0  0  0
   -0.4181    3.6479    3.1797 C   0  0  0  0  0  0  0  0  0  0  0  0
   -0.2654    5.0454    3.1502 C   0  0  0  0  0  0  0  0  0  0  0  0
   -0.5785    5.8662    4.2459 O   0  0  0  0  0  0  0  0  0  0  0  0
   -0.9649    5.3849    5.5292 C   0  0  0  0  0  0  0  0  0  0  0  0
   -1.0683    6.5531    6.4982 C   0  0  0  0  0  0  0  0  0  0  0  0
    0.2295    5.6494    1.9926 C   0  0  0  0  0  0  0  0  0  0  0  0
    0.6239    4.8768    0.9008 C   0  0  0  0  0  0  0  0  0  0  0  0
    2.3052    3.1813   -0.8833 C   0  0  0  0  0  0  0  0  0  0  0  0
    3.4380    3.3498   -0.0638 C   0  0  0  0  0  0  0  0  0  0  0  0
    4.6688    3.7260   -0.6097 C   0  0  0  0  0  0  0  0  0  0  0  0
    4.8054    3.9322   -1.9872 C   0  0  0  0  0  0  0  0  0  0  0  0
    6.0738    4.2670   -2.4905 O   0  0  0  0  0  0  0  0  0  0  0  0
    6.4256    4.3325   -3.8736 C   0  0  0  0  0  0  0  0  0  0  0  0
    6.5032    2.9352   -4.4846 C   0  0  0  0  0  0  0  0  0  0  0  0
    3.6776    3.7934   -2.8108 C   0  0  0  0  0  0  0  0  0  0  0  0
    2.4482    3.4123   -2.2694 C   0  0  0  0  0  0  0  0  0  0  0  0
    1.1788    1.1525   -0.0193 C   0  0  0  0  0  0  0  0  0  0  0  0
    0.4421    0.3935   -0.9251 C   0  0  0  0  0  0  0  0  0  0  0  0
   -0.3842    1.3060   -1.6574 C   0  0  0  0  0  0  0  0  0  0  0  0
   -1.6615    1.2221   -2.7302 S   0  0  0  0  0  0  0  0  0  0  0  0
    0.5600   -0.9905   -1.0342 C   0  0  0  0  0  0  0  0  0  0  0  0
    1.4626   -1.6289   -0.1569 C   0  0  0  0  0  0  0  0  0  0  0  0
    1.9559   -3.0832   -0.0527 C   0  0  0  0  0  0  0  0  0  0  0  0
    3.3478   -3.1598   -0.7055 C   0  0  0  0  0  0  0  0  0  0  0  0
    4.4189   -3.8407   -0.0841 C   0  0  0  0  0  0  0  0  0  0  0  0
    5.7078   -3.7907   -0.6232 C   0  0  0  0  0  0  0  0  0  0  0  0
    5.9495   -3.0911   -1.8169 C   0  0  0  0  0  0  0  0  0  0  0  0
    7.2343   -2.9471   -2.3630 O   0  0  0  0  0  0  0  0  0  0  0  0
    8.4624   -3.1947   -1.6733 C   0  0  0  0  0  0  0  0  0  0  0  0
    8.6883   -2.1572   -0.5764 C   0  0  0  0  0  0  0  0  0  0  0  0
    4.8741   -2.5104   -2.4947 C   0  0  0  0  0  0  0  0  0  0  0  0
    3.5869   -2.5474   -1.9524 C   0  0  0  0  0  0  0  0  0  0  0  0
    1.1244   -4.2409   -0.6403 C   0  0  0  0  0  0  0  0  0  0  0  0
    0.5073   -4.1397   -1.9061 C   0  0  0  0  0  0  0  0  0  0  0  0
   -0.1585   -5.2263   -2.4793 C   0  0  0  0  0  0  0  0  0  0  0  0
   -0.1345   -6.4796   -1.8675 C   0  0  0  0  0  0  0  0  0  0  0  0
   -0.8191   -7.5338   -2.4909 O   0  0  0  0  0  0  0  0  0  0  0  0
   -0.8963   -8.8757   -2.0112 C   0  0  0  0  0  0  0  0  0  0  0  0
   -1.8717   -8.9814   -0.8434 C   0  0  0  0  0  0  0  0  0  0  0  0
    0.6150   -6.6423   -0.6929 C   0  0  0  0  0  0  0  0  0  0  0  0
    1.2704   -5.5488   -0.1191 C   0  0  0  0  0  0  0  0  0  0  0  0
    2.1110   -3.0712    1.4727 C   0  0  0  0  0  0  0  0  0  0  0  0
    2.4570   -1.8115    1.9173 C   0  0  0  0  0  0  0  0  0  0  0  0
    2.0391   -0.8860    0.8838 C   0  0  0  0  0  0  0  0  0  0  0  0
    1.9479    0.5102    0.9618 C   0  0  0  0  0  0  0  0  0  0  0  0
    2.0881   -1.6805    3.5525 S   0  0  0  0  0  0  0  0  0  0  0  0
    1.4826   -3.2450    3.7267 C   0  0  0  0  0  0  0  0  0  0  0  0
    1.4561   -3.8315    2.4606 C   0  0  0  0  0  0  0  0  0  0  0  0
    0.7268   -3.6817    4.9193 C   0  0  0  0  0  0  0  0  0  0  0  0
    0.3503   -4.9492    5.1955 C   0  0  0  0  0  0  0  0  0  0  0  0
    0.6440   -6.1459    4.3988 C   0  0  0  0  0  0  0  0  0  0  0  0
    1.7057   -6.3774    3.7597 O   0  0  0  0  0  0  0  0  0  0  0  0
   -0.4342   -7.0930    4.5828 C   0  0  0  0  0  0  0  0  0  0  0  0
   -0.7173   -8.2309    3.7936 C   0  0  0  0  0  0  0  0  0  0  0  0
   -1.9327   -8.8221    4.0830 C   0  0  0  0  0  0  0  0  0  0  0  0
   -2.8185   -8.3362    5.0990 C   0  0  0  0  0  0  0  0  0  0  0  0
   -2.5448   -7.2248    5.8781 C   0  0  0  0  0  0  0  0  0  0  0  0
   -1.2964   -6.6052    5.5977 C   0  0  0  0  0  0  0  0  0  0  0  0
   -0.7428   -5.3347    6.1331 C   0  0  0  0  0  0  0  0  0  0  0  0
   -1.0083   -4.7851    7.3427 C   0  0  0  0  0  0  0  0  0  0  0  0
   -0.2314   -3.6924    7.8680 C   0  0  0  0  0  0  0  0  0  0  0  0
    0.3958   -2.8192    8.3007 N   0  0  0  0  0  0  0  0  0  0  0  0
   -1.9520   -5.3708    8.2604 C   0  0  0  0  0  0  0  0  0  0  0  0
   -2.6977   -5.8409    9.0087 N   0  0  0  0  0  0  0  0  0  0  0  0
   -3.8329   -9.3833    4.7404 C   0  0  0  0  0  0  0  0  0  0  0  0
   -5.0973   -8.9254    3.9513 C   0  0  0  0  0  0  0  0  0  0  0  0
   -4.7609   -7.7296    3.0902 C   0  0  0  0  0  0  0  0  0  0  0  0
   -3.9371   -8.1665    2.1372 C   0  0  0  0  0  0  0  0  0  0  0  0
   -3.7429   -9.6481    2.3800 C   0  0  0  0  0  0  0  0  0  0  0  0
   -5.1362   -9.9925    2.8736 C   0  0  0  0  0  0  0  0  0  0  0  0
   -2.9305   -9.8742    3.6932 C   0  0  0  0  0  0  0  0  0  0  0  0
   -3.1595    3.0725   -4.4850 H   0  0  0  0  0  0  0  0  0  0  0  0
   -4.7636    7.9963   -5.8308 H   0  0  0  0  0  0  0  0  0  0  0  0
   -2.5614    8.4616   -1.2500 H   0  0  0  0  0  0  0  0  0  0  0  0
   -3.9556   11.4614   -2.3725 H   0  0  0  0  0  0  0  0  0  0  0  0
   -1.1928   11.4626   -2.6878 H   0  0  0  0  0  0  0  0  0  0  0  0
   -1.9609   13.8749   -3.4833 H   0  0  0  0  0  0  0  0  0  0  0  0
   -3.1196   13.6444   -5.8121 H   0  0  0  0  0  0  0  0  0  0  0  0
   -3.1001   11.0806   -6.4990 H   0  0  0  0  0  0  0  0  0  0  0  0
   -1.4867    9.8062   -4.7745 H   0  0  0  0  0  0  0  0  0  0  0  0
   -0.7362   11.3635   -5.3081 H   0  0  0  0  0  0  0  0  0  0  0  0
   -5.0193   11.2438   -4.5069 H   0  0  0  0  0  0  0  0  0  0  0  0
   -0.8224    4.5897   -1.7557 H   0  0  0  0  0  0  0  0  0  0  0  0
   -0.1882    1.8021    2.1333 H   0  0  0  0  0  0  0  0  0  0  0  0
   -0.8306    3.1531    4.0500 H   0  0  0  0  0  0  0  0  0  0  0  0
   -1.9515    4.8780    5.4596 H   0  0  0  0  0  0  0  0  0  0  0  0
   -0.2050    4.6672    5.9108 H   0  0  0  0  0  0  0  0  0  0  0  0
   -1.8263    7.2806    6.1421 H   0  0  0  0  0  0  0  0  0  0  0  0
   -1.3669    6.1823    7.5021 H   0  0  0  0  0  0  0  0  0  0  0  0
   -0.0865    7.0644    6.5854 H   0  0  0  0  0  0  0  0  0  0  0  0
    0.3251    6.7268    1.9436 H   0  0  0  0  0  0  0  0  0  0  0  0
    1.0059    5.3780    0.0184 H   0  0  0  0  0  0  0  0  0  0  0  0
    3.3753    3.1742    1.0019 H   0  0  0  0  0  0  0  0  0  0  0  0
    5.5295    3.8380    0.0386 H   0  0  0  0  0  0  0  0  0  0  0  0
    7.4266    4.8060   -3.9555 H   0  0  0  0  0  0  0  0  0  0  0  0
    5.7085    4.9692   -4.4361 H   0  0  0  0  0  0  0  0  0  0  0  0
    5.5020    2.4573   -4.5073 H   0  0  0  0  0  0  0  0  0  0  0  0
    7.1950    2.2986   -3.8958 H   0  0  0  0  0  0  0  0  0  0  0  0
    6.8793    3.0088   -5.5273 H   0  0  0  0  0  0  0  0  0  0  0  0
    3.7361    3.9652   -3.8752 H   0  0  0  0  0  0  0  0  0  0  0  0
    1.6233    3.2853   -2.9548 H   0  0  0  0  0  0  0  0  0  0  0  0
   -0.0584   -1.4994   -1.7483 H   0  0  0  0  0  0  0  0  0  0  0  0
    4.2704   -4.3804    0.8424 H   0  0  0  0  0  0  0  0  0  0  0  0
    6.5062   -4.2947   -0.0956 H   0  0  0  0  0  0  0  0  0  0  0  0
    9.2926   -3.1111   -2.4074 H   0  0  0  0  0  0  0  0  0  0  0  0
    8.4820   -4.2249   -1.2571 H   0  0  0  0  0  0  0  0  0  0  0  0
    8.5673   -1.1331   -0.9876 H   0  0  0  0  0  0  0  0  0  0  0  0
    9.7170   -2.2634   -0.1722 H   0  0  0  0  0  0  0  0  0  0  0  0
    7.9688   -2.3036    0.2557 H   0  0  0  0  0  0  0  0  0  0  0  0
    5.0416   -1.9968   -3.4321 H   0  0  0  0  0  0  0  0  0  0  0  0
    2.7847   -2.0583   -2.4923 H   0  0  0  0  0  0  0  0  0  0  0  0
    0.6232   -3.2694   -2.5217 H   0  0  0  0  0  0  0  0  0  0  0  0
   -0.6519   -5.1064   -3.4367 H   0  0  0  0  0  0  0  0  0  0  0  0
    0.1077   -9.2549   -1.7246 H   0  0  0  0  0  0  0  0  0  0  0  0
   -1.2714   -9.5159   -2.8379 H   0  0  0  0  0  0  0  0  0  0  0  0
   -2.8512   -8.5436   -1.1242 H   0  0  0  0  0  0  0  0  0  0  0  0
   -1.4803   -8.4519    0.0475 H   0  0  0  0  0  0  0  0  0  0  0  0
   -2.0178  -10.0530   -0.5861 H   0  0  0  0  0  0  0  0  0  0  0  0
    0.7363   -7.6117   -0.2325 H   0  0  0  0  0  0  0  0  0  0  0  0
    1.9439   -5.7476    0.7011 H   0  0  0  0  0  0  0  0  0  0  0  0
    2.4200    1.0600    1.7636 H   0  0  0  0  0  0  0  0  0  0  0  0
    0.8101   -4.6608    2.2366 H   0  0  0  0  0  0  0  0  0  0  0  0
    0.3589   -2.8780    5.5381 H   0  0  0  0  0  0  0  0  0  0  0  0
   -0.0812   -8.5676    2.9855 H   0  0  0  0  0  0  0  0  0  0  0  0
   -3.2760   -6.8387    6.5693 H   0  0  0  0  0  0  0  0  0  0  0  0
   -4.0250  -10.1272    5.5494 H   0  0  0  0  0  0  0  0  0  0  0  0
   -6.0246   -8.8224    4.5530 H   0  0  0  0  0  0  0  0  0  0  0  0
   -5.1612   -6.7243    3.1760 H   0  0  0  0  0  0  0  0  0  0  0  0
   -3.5525   -7.5761    1.3125 H   0  0  0  0  0  0  0  0  0  0  0  0
   -3.3916  -10.2276    1.5018 H   0  0  0  0  0  0  0  0  0  0  0  0
   -5.9321   -9.8236    2.1076 H   0  0  0  0  0  0  0  0  0  0  0  0
   -5.2241  -11.0290    3.2790 H   0  0  0  0  0  0  0  0  0  0  0  0
   -2.5777  -10.9165    3.8563 H   0  0  0  0  0  0  0  0  0  0  0  0
  1  2  2  3
  2  3  1  0
  3  4  2  0
  3  5  1  0
  5  6  2  0
  6  7  1  0
  7  8  2  0
  8  9  1  0
  9 10  2  0
 10 11  1  0
 11 12  2  3
 12 13  1  0
 13 14  3  0
 12 15  1  0
 15 16  3  0
  8 17  1  0
 17 18  1  0
 18 19  1  0
 19 20  2  0
 20 21  1  0
 21 22  1  0
 21 23  1  0
  1 24  1  0
 24 25  2  0
 25 26  1  0
 26 27  1  0
 27 28  1  0
 28 29  2  0
 29 30  1  0
 30 31  2  0
 31 32  1  0
 32 33  1  0
 33 34  1  0
 31 35  1  0
 35 36  2  0
 27 37  1  0
 37 38  2  0
 38 39  1  0
 39 40  2  0
 40 41  1  0
 41 42  1  0
 42 43  1  0
 40 44  1  0
 44 45  2  0
 27 46  1  0
 46 47  2  0
 47 48  1  0
 48 49  1  0
 47 50  1  0
 50 51  2  0
 51 52  1  0
 52 53  1  0
 53 54  2  0
 54 55  1  0
 55 56  2  0
 56 57  1  0
 57 58  1  0
 58 59  1  0
 56 60  1  0
 60 61  2  0
 52 62  1  0
 62 63  2  0
 63 64  1  0
 64 65  2  0
 65 66  1  0
 66 67  1  0
 67 68  1  0
 65 69  1  0
 69 70  2  0
 52 71  1  0
 71 72  2  0
 72 73  1  0
 73 74  2  0
 72 75  1  0
 75 76  1  0
 76 77  2  0
 76 78  1  0
 78 79  2  3
 79 80  1  0
 80 81  2  0
 80 82  1  0
 82 83  2  0
 83 84  1  0
 84 85  2  0
 85 86  1  0
 86 87  2  0
 87 88  1  0
 88 89  2  3
 89 90  1  0
 90 91  3  0
 89 92  1  0
 92 93  3  0
 85 94  1  0
 94 95  1  0
 95 96  1  0
 96 97  2  0
 97 98  1  0
 98 99  1  0
 98100  1  0
 11  2  1  0
 23 17  1  0
 49 24  1  0
 73 51  1  0
 88 79  1  0
100 94  1  0
 10  5  1  0
 22 18  1  0
 48 26  2  0
 61 53  1  0
 70 62  1  0
 77 71  1  0
 87 82  1  0
 99 95  1  0
 23  7  1  0
 36 28  1  0
 45 37  1  0
 74 46  1  0
100 84  1  0
  1101  1  0
  6102  1  0
  9103  1  0
 17104  1  0
 18105  1  0
 19106  1  0
 20107  1  0
 21108  1  0
 22109  1  0
 22110  1  0
 23111  1  0
 25112  1  0
 29113  1  0
 30114  1  0
 33115  1  0
 33116  1  0
 34117  1  0
 34118  1  0
 34119  1  0
 35120  1  0
 36121  1  0
 38122  1  0
 39123  1  0
 42124  1  0
 42125  1  0
 43126  1  0
 43127  1  0
 43128  1  0
 44129  1  0
 45130  1  0
 50131  1  0
 54132  1  0
 55133  1  0
 58134  1  0
 58135  1  0
 59136  1  0
 59137  1  0
 59138  1  0
 60139  1  0
 61140  1  0
 63141  1  0
 64142  1  0
 67143  1  0
 67144  1  0
 68145  1  0
 68146  1  0
 68147  1  0
 69148  1  0
 70149  1  0
 74150  1  0
 77151  1  0
 78152  1  0
 83153  1  0
 86154  1  0
 94155  1  0
 95156  1  0
 96157  1  0
 97158  1  0
 98159  1  0
 99160  1  0
 99161  1  0
100162  1  0
M  END

