
     RDKit          3D

121134  0  0  0  0  0  0  0  0999 V2000
    2.0948    3.2238   -6.7988 C   0  0  0  0  0  0  0  0  0  0  0  0
    3.2047    2.4985   -6.5503 C   0  0  0  0  0  0  0  0  0  0  0  0
    3.4507    1.6977   -5.3386 C   0  0  0  0  0  0  0  0  0  0  0  0
    2.7673    1.6929   -4.2807 O   0  0  0  0  0  0  0  0  0  0  0  0
    4.5339    0.7821   -5.6009 C   0  0  0  0  0  0  0  0  0  0  0  0
    4.9833   -0.2519   -4.7508 C   0  0  0  0  0  0  0  0  0  0  0  0
    5.9005   -1.1004   -5.3379 C   0  0  0  0  0  0  0  0  0  0  0  0
    6.3461   -0.9562   -6.6906 C   0  0  0  0  0  0  0  0  0  0  0  0
    5.9163    0.0599   -7.5282 C   0  0  0  0  0  0  0  0  0  0  0  0
    4.9904    0.9649   -6.9331 C   0  0  0  0  0  0  0  0  0  0  0  0
    4.2612    2.1162   -7.5398 C   0  0  0  0  0  0  0  0  0  0  0  0
    4.6317    2.8161   -8.6434 C   0  0  0  0  0  0  0  0  0  0  0  0
    4.0066    4.0579   -9.0194 C   0  0  0  0  0  0  0  0  0  0  0  0
    3.5082    5.0569   -9.3232 N   0  0  0  0  0  0  0  0  0  0  0  0
    5.7477    2.4314   -9.4655 C   0  0  0  0  0  0  0  0  0  0  0  0
    6.6419    2.1376  -10.1417 N   0  0  0  0  0  0  0  0  0  0  0  0
    7.1584   -2.2121   -6.5765 C   0  0  0  0  0  0  0  0  0  0  0  0
    6.5730   -3.4739   -7.2788 C   0  0  0  0  0  0  0  0  0  0  0  0
    7.3237   -4.6518   -6.7079 C   0  0  0  0  0  0  0  0  0  0  0  0
    6.9267   -4.7753   -5.4362 C   0  0  0  0  0  0  0  0  0  0  0  0
    5.9067   -3.6858   -5.1953 C   0  0  0  0  0  0  0  0  0  0  0  0
    5.2452   -3.6817   -6.5631 C   0  0  0  0  0  0  0  0  0  0  0  0
    6.7082   -2.3510   -5.1868 C   0  0  0  0  0  0  0  0  0  0  0  0
    1.0710    3.5122   -5.7820 C   0  0  0  0  0  0  0  0  0  0  0  0
    1.3752    4.2844   -4.2897 S   0  0  0  0  0  0  0  0  0  0  0  0
   -0.1777    4.0122   -3.7441 C   0  0  0  0  0  0  0  0  0  0  0  0
   -0.7385    3.7735   -2.5279 C   0  0  0  0  0  0  0  0  0  0  0  0
   -0.2278    3.8541   -0.9408 S   0  0  0  0  0  0  0  0  0  0  0  0
   -1.4966    2.8504   -0.4242 C   0  0  0  0  0  0  0  0  0  0  0  0
   -1.7257    2.4924    0.9054 C   0  0  0  0  0  0  0  0  0  0  0  0
   -1.0198    3.1385    1.9235 O   0  0  0  0  0  0  0  0  0  0  0  0
   -1.6180    4.1479    2.7312 C   0  0  0  0  0  0  0  0  0  0  0  0
   -1.7938    5.4385    1.9339 C   0  0  0  0  0  0  0  0  0  0  0  0
   -2.7627    1.5864    1.1635 C   0  0  0  0  0  0  0  0  0  0  0  0
   -3.6466    1.2073    0.1281 C   0  0  0  0  0  0  0  0  0  0  0  0
   -3.4033    1.5361   -1.2279 C   0  0  0  0  0  0  0  0  0  0  0  0
   -4.2049    1.0438   -2.2638 O   0  0  0  0  0  0  0  0  0  0  0  0
   -4.6690   -0.3084   -2.3887 C   0  0  0  0  0  0  0  0  0  0  0  0
   -3.5219   -1.3093   -2.2276 C   0  0  0  0  0  0  0  0  0  0  0  0
   -2.3105    2.4027   -1.4967 C   0  0  0  0  0  0  0  0  0  0  0  0
   -1.8161    2.9493   -2.7152 C   0  0  0  0  0  0  0  0  0  0  0  0
   -1.9619    2.6616   -4.0487 N   0  0  0  0  0  0  0  0  0  0  0  0
   -0.9152    3.3064   -4.6392 C   0  0  0  0  0  0  0  0  0  0  0  0
   -0.2416    3.0204   -5.8280 C   0  0  0  0  0  0  0  0  0  0  0  0
   -2.9402    1.8289   -4.7497 C   0  0  0  0  0  0  0  0  0  0  0  0
   -4.2809    2.5562   -4.8523 C   0  0  0  0  0  0  0  0  0  0  0  0
   -4.9964    0.3870    0.7850 S   0  0  0  0  0  0  0  0  0  0  0  0
   -4.4220    0.5108    2.3519 C   0  0  0  0  0  0  0  0  0  0  0  0
   -4.6277   -0.0739    3.5624 C   0  0  0  0  0  0  0  0  0  0  0  0
   -5.6260   -1.1919    4.3063 S   0  0  0  0  0  0  0  0  0  0  0  0
   -4.5779   -1.3713    5.6556 C   0  0  0  0  0  0  0  0  0  0  0  0
   -3.4040   -0.6146    5.4479 C   0  0  0  0  0  0  0  0  0  0  0  0
   -3.4935    0.1290    4.2743 C   0  0  0  0  0  0  0  0  0  0  0  0
   -2.5526    0.8194    3.5786 N   0  0  0  0  0  0  0  0  0  0  0  0
   -1.1080    0.7565    3.8422 C   0  0  0  0  0  0  0  0  0  0  0  0
   -0.7299    1.6026    5.0566 C   0  0  0  0  0  0  0  0  0  0  0  0
   -3.1928    1.0901    2.4013 C   0  0  0  0  0  0  0  0  0  0  0  0
   -4.8537   -2.3174    6.8040 C   0  0  0  0  0  0  0  0  0  0  0  0
   -4.1675   -3.6365    6.5942 C   0  0  0  0  0  0  0  0  0  0  0  0
   -2.9229   -3.8444    7.0260 C   0  0  0  0  0  0  0  0  0  0  0  0
   -2.1734   -2.7661    7.7171 C   0  0  0  0  0  0  0  0  0  0  0  0
   -0.8237   -2.6541    7.6160 C   0  0  0  0  0  0  0  0  0  0  0  0
    0.0946   -1.4383    8.3215 S   0  0  0  0  0  0  0  0  0  0  0  0
    1.5780   -1.9138    7.6718 C   0  0  0  0  0  0  0  0  0  0  0  0
    2.7325   -1.2359    7.9178 C   0  0  0  0  0  0  0  0  0  0  0  0
    4.0144   -1.5656    7.3564 C   0  0  0  0  0  0  0  0  0  0  0  0
    5.0520   -1.8133    6.9096 N   0  0  0  0  0  0  0  0  0  0  0  0
    2.7246   -0.0690    8.7682 C   0  0  0  0  0  0  0  0  0  0  0  0
    2.7200    0.8684    9.4481 N   0  0  0  0  0  0  0  0  0  0  0  0
    1.3939   -3.0308    6.8902 N   0  0  0  0  0  0  0  0  0  0  0  0
    2.4331   -3.8083    6.1892 C   0  0  0  0  0  0  0  0  0  0  0  0
    3.1476   -4.7527    7.1539 C   0  0  0  0  0  0  0  0  0  0  0  0
    0.0772   -3.4291    6.8619 C   0  0  0  0  0  0  0  0  0  0  0  0
   -0.2878   -4.4330    6.1893 O   0  0  0  0  0  0  0  0  0  0  0  0
   -2.9726   -1.7356    8.5052 C   0  0  0  0  0  0  0  0  0  0  0  0
   -4.4898   -1.7368    8.1906 C   0  0  0  0  0  0  0  0  0  0  0  0
    1.8508    3.5283   -7.8071 H   0  0  0  0  0  0  0  0  0  0  0  0
    4.5994   -0.4089   -3.7524 H   0  0  0  0  0  0  0  0  0  0  0  0
    6.2271    0.0848   -8.5582 H   0  0  0  0  0  0  0  0  0  0  0  0
    8.2520   -2.0550   -6.6967 H   0  0  0  0  0  0  0  0  0  0  0  0
    6.5281   -3.4310   -8.3859 H   0  0  0  0  0  0  0  0  0  0  0  0
    8.0012   -5.3208   -7.2310 H   0  0  0  0  0  0  0  0  0  0  0  0
    7.2388   -5.5529   -4.7388 H   0  0  0  0  0  0  0  0  0  0  0  0
    5.2310   -3.8482   -4.3312 H   0  0  0  0  0  0  0  0  0  0  0  0
    4.7482   -4.6499   -6.8202 H   0  0  0  0  0  0  0  0  0  0  0  0
    4.5065   -2.8612   -6.7131 H   0  0  0  0  0  0  0  0  0  0  0  0
    7.5151   -2.2788   -4.4254 H   0  0  0  0  0  0  0  0  0  0  0  0
   -2.6000    3.8070    3.1274 H   0  0  0  0  0  0  0  0  0  0  0  0
   -0.9426    4.3534    3.5903 H   0  0  0  0  0  0  0  0  0  0  0  0
   -2.2038    6.2288    2.5970 H   0  0  0  0  0  0  0  0  0  0  0  0
   -0.8069    5.7654    1.5320 H   0  0  0  0  0  0  0  0  0  0  0  0
   -2.4982    5.2764    1.0904 H   0  0  0  0  0  0  0  0  0  0  0  0
   -5.4819   -0.5236   -1.6709 H   0  0  0  0  0  0  0  0  0  0  0  0
   -5.0938   -0.4293   -3.4039 H   0  0  0  0  0  0  0  0  0  0  0  0
   -3.8795   -2.3359   -2.4651 H   0  0  0  0  0  0  0  0  0  0  0  0
   -2.6881   -1.0469   -2.9225 H   0  0  0  0  0  0  0  0  0  0  0  0
   -3.1354   -1.2970   -1.1871 H   0  0  0  0  0  0  0  0  0  0  0  0
   -0.6152    2.3734   -6.6088 H   0  0  0  0  0  0  0  0  0  0  0  0
   -3.0282    0.8397   -4.2703 H   0  0  0  0  0  0  0  0  0  0  0  0
   -2.6013    1.6180   -5.7847 H   0  0  0  0  0  0  0  0  0  0  0  0
   -4.1808    3.4321   -5.5327 H   0  0  0  0  0  0  0  0  0  0  0  0
   -4.6126    2.9237   -3.8579 H   0  0  0  0  0  0  0  0  0  0  0  0
   -5.0532    1.8659   -5.2629 H   0  0  0  0  0  0  0  0  0  0  0  0
   -2.5280   -0.6337    6.0703 H   0  0  0  0  0  0  0  0  0  0  0  0
   -0.8087   -0.3001    4.0304 H   0  0  0  0  0  0  0  0  0  0  0  0
   -0.5234    1.0739    2.9579 H   0  0  0  0  0  0  0  0  0  0  0  0
   -1.3256    2.5359    5.0970 H   0  0  0  0  0  0  0  0  0  0  0  0
    0.3507    1.8602    5.0134 H   0  0  0  0  0  0  0  0  0  0  0  0
   -0.9025    1.0315    5.9898 H   0  0  0  0  0  0  0  0  0  0  0  0
   -5.9516   -2.5106    6.8090 H   0  0  0  0  0  0  0  0  0  0  0  0
   -4.7022   -4.4366    6.0975 H   0  0  0  0  0  0  0  0  0  0  0  0
   -2.4919   -4.8236    6.8819 H   0  0  0  0  0  0  0  0  0  0  0  0
    1.9845   -4.4265    5.3807 H   0  0  0  0  0  0  0  0  0  0  0  0
    3.1393   -3.1480    5.6505 H   0  0  0  0  0  0  0  0  0  0  0  0
    2.4212   -5.4827    7.5763 H   0  0  0  0  0  0  0  0  0  0  0  0
    3.6108   -4.1895    7.9909 H   0  0  0  0  0  0  0  0  0  0  0  0
    3.9376   -5.3133    6.6121 H   0  0  0  0  0  0  0  0  0  0  0  0
   -2.5880   -0.7124    8.3097 H   0  0  0  0  0  0  0  0  0  0  0  0
   -2.8249   -1.9268    9.5883 H   0  0  0  0  0  0  0  0  0  0  0  0
   -4.9017   -0.7076    8.2943 H   0  0  0  0  0  0  0  0  0  0  0  0
   -4.9974   -2.3575    8.9598 H   0  0  0  0  0  0  0  0  0  0  0  0
  1  2  2  3
  2  3  1  0
  3  4  2  0
  3  5  1  0
  5  6  2  0
  6  7  1  0
  7  8  2  0
  8  9  1  0
  9 10  2  0
 10 11  1  0
 11 12  2  3
 12 13  1  0
 13 14  3  0
 12 15  1  0
 15 16  3  0
  8 17  1  0
 17 18  1  0
 18 19  1  0
 19 20  2  0
 20 21  1  0
 21 22  1  0
 21 23  1  0
  1 24  1  0
 24 25  1  0
 25 26  1  0
 26 27  1  0
 27 28  1  0
 28 29  1  0
 29 30  2  0
 30 31  1  0
 31 32  1  0
 32 33  1  0
 30 34  1  0
 34 35  2  0
 35 36  1  0
 36 37  1  0
 37 38  1  0
 38 39  1  0
 36 40  2  0
 40 41  1  0
 41 42  1  0
 42 43  1  0
 43 44  1  0
 42 45  1  0
 45 46  1  0
 35 47  1  0
 47 48  1  0
 48 49  1  0
 49 50  1  0
 50 51  1  0
 51 52  2  0
 52 53  1  0
 53 54  1  0
 54 55  1  0
 55 56  1  0
 54 57  1  0
 51 58  1  0
 58 59  1  0
 59 60  2  0
 60 61  1  0
 61 62  2  3
 62 63  1  0
 63 64  1  0
 64 65  2  3
 65 66  1  0
 66 67  3  0
 65 68  1  0
 68 69  3  0
 64 70  1  0
 70 71  1  0
 71 72  1  0
 70 73  1  0
 73 74  2  0
 61 75  1  0
 75 76  1  0
 11  2  1  0
 23 17  1  0
 44 24  2  0
 57 48  2  0
 76 58  1  0
 10  5  1  0
 22 18  1  0
 43 26  2  0
 53 49  2  0
 73 62  1  0
 23  7  1  0
 41 27  2  0
 40 29  1  0
 57 34  1  0
  1 77  1  0
  6 78  1  0
  9 79  1  0
 17 80  1  0
 18 81  1  0
 19 82  1  0
 20 83  1  0
 21 84  1  0
 22 85  1  0
 22 86  1  0
 23 87  1  0
 32 88  1  0
 32 89  1  0
 33 90  1  0
 33 91  1  0
 33 92  1  0
 38 93  1  0
 38 94  1  0
 39 95  1  0
 39 96  1  0
 39 97  1  0
 44 98  1  0
 45 99  1  0
 45100  1  0
 46101  1  0
 46102  1  0
 46103  1  0
 52104  1  0
 55105  1  0
 55106  1  0
 56107  1  0
 56108  1  0
 56109  1  0
 58110  1  0
 59111  1  0
 60112  1  0
 71113  1  0
 71114  1  0
 72115  1  0
 72116  1  0
 72117  1  0
 75118  1  0
 75119  1  0
 76120  1  0
 76121  1  0
M  END

