
     RDKit          3D

117133  0  0  0  0  0  0  0  0999 V2000
    7.6952    1.9714    0.7813 C   0  0  0  0  0  0  0  0  0  0  0  0
    8.1284    1.4890   -0.4031 C   0  0  0  0  0  0  0  0  0  0  0  0
    7.3537    1.4655   -1.6474 C   0  0  0  0  0  0  0  0  0  0  0  0
    6.4946    2.3149   -2.0047 O   0  0  0  0  0  0  0  0  0  0  0  0
    7.7850    0.3380   -2.4383 C   0  0  0  0  0  0  0  0  0  0  0  0
    7.1308   -0.2033   -3.5682 C   0  0  0  0  0  0  0  0  0  0  0  0
    7.6783   -1.3913   -4.0128 C   0  0  0  0  0  0  0  0  0  0  0  0
    8.8082   -2.0147   -3.3914 C   0  0  0  0  0  0  0  0  0  0  0  0
    9.4527   -1.4875   -2.2818 C   0  0  0  0  0  0  0  0  0  0  0  0
    8.9076   -0.2594   -1.8108 C   0  0  0  0  0  0  0  0  0  0  0  0
    9.2585    0.5330   -0.5971 C   0  0  0  0  0  0  0  0  0  0  0  0
   10.4388    0.5265    0.0686 C   0  0  0  0  0  0  0  0  0  0  0  0
   11.5081   -0.3771   -0.2675 C   0  0  0  0  0  0  0  0  0  0  0  0
   12.3741   -1.1018   -0.5293 N   0  0  0  0  0  0  0  0  0  0  0  0
   10.7549    1.5171    1.0656 C   0  0  0  0  0  0  0  0  0  0  0  0
   11.0136    2.3137    1.8638 N   0  0  0  0  0  0  0  0  0  0  0  0
    8.7413   -3.1461   -4.3747 C   0  0  0  0  0  0  0  0  0  0  0  0
    9.8034   -3.1489   -5.5142 C   0  0  0  0  0  0  0  0  0  0  0  0
    9.2917   -4.1221   -6.5507 C   0  0  0  0  0  0  0  0  0  0  0  0
    8.2255   -3.5460   -7.1181 C   0  0  0  0  0  0  0  0  0  0  0  0
    8.0532   -2.2055   -6.4464 C   0  0  0  0  0  0  0  0  0  0  0  0
    9.5190   -1.8533   -6.2546 C   0  0  0  0  0  0  0  0  0  0  0  0
    7.5763   -2.5125   -4.9994 C   0  0  0  0  0  0  0  0  0  0  0  0
    6.3040    2.4003    1.0287 C   0  0  0  0  0  0  0  0  0  0  0  0
    5.8452    3.5703    2.2002 S   0  0  0  0  0  0  0  0  0  0  0  0
    4.2127    3.2679    1.9716 C   0  0  0  0  0  0  0  0  0  0  0  0
    2.9714    3.6966    2.3530 C   0  0  0  0  0  0  0  0  0  0  0  0
    2.2204    4.8558    3.3448 S   0  0  0  0  0  0  0  0  0  0  0  0
    0.6953    4.3167    2.7889 C   0  0  0  0  0  0  0  0  0  0  0  0
   -0.6054    4.4020    3.2071 C   0  0  0  0  0  0  0  0  0  0  0  0
   -1.2215    5.1155    4.2476 C   0  0  0  0  0  0  0  0  0  0  0  0
   -2.5892    4.8307    4.5653 C   0  0  0  0  0  0  0  0  0  0  0  0
   -3.1461    5.5385    5.5783 N   0  0  0  0  0  0  0  0  0  0  0  0
   -1.8467    6.4710    6.0125 S   0  0  0  0  0  0  0  0  0  0  0  0
   -0.6009    6.0558    5.0001 N   0  0  0  0  0  0  0  0  0  0  0  0
   -3.2694    3.8705    3.8038 C   0  0  0  0  0  0  0  0  0  0  0  0
   -4.5778    3.4646    3.7654 C   0  0  0  0  0  0  0  0  0  0  0  0
   -6.0536    3.7090    4.5719 S   0  0  0  0  0  0  0  0  0  0  0  0
   -6.8665    2.7035    3.4505 C   0  0  0  0  0  0  0  0  0  0  0  0
   -8.1733    2.2190    3.3454 C   0  0  0  0  0  0  0  0  0  0  0  0
   -9.2541    2.5024    4.3488 C   0  0  0  0  0  0  0  0  0  0  0  0
   -9.2433    1.4571    5.4584 C   0  0  0  0  0  0  0  0  0  0  0  0
   -8.2911    1.3238    2.2593 C   0  0  0  0  0  0  0  0  0  0  0  0
   -6.8082    1.2432    1.4149 S   0  0  0  0  0  0  0  0  0  0  0  0
   -6.0119    2.2472    2.4835 C   0  0  0  0  0  0  0  0  0  0  0  0
   -4.7086    2.6551    2.6852 C   0  0  0  0  0  0  0  0  0  0  0  0
   -3.5512    2.4663    2.0137 N   0  0  0  0  0  0  0  0  0  0  0  0
   -2.6483    3.1875    2.7486 C   0  0  0  0  0  0  0  0  0  0  0  0
   -1.2748    3.3895    2.5134 C   0  0  0  0  0  0  0  0  0  0  0  0
   -0.4079    2.5833    1.8301 N   0  0  0  0  0  0  0  0  0  0  0  0
    0.7662    3.2644    1.9156 C   0  0  0  0  0  0  0  0  0  0  0  0
    2.0856    2.9220    1.6493 C   0  0  0  0  0  0  0  0  0  0  0  0
    2.7024    2.0501    0.8034 N   0  0  0  0  0  0  0  0  0  0  0  0
    4.0141    2.2925    1.0504 C   0  0  0  0  0  0  0  0  0  0  0  0
    5.1672    1.7678    0.4941 C   0  0  0  0  0  0  0  0  0  0  0  0
    2.1566    1.3636   -0.3730 C   0  0  0  0  0  0  0  0  0  0  0  0
    2.2724   -0.1528   -0.2361 C   0  0  0  0  0  0  0  0  0  0  0  0
   -0.5221    1.1125    1.8447 C   0  0  0  0  0  0  0  0  0  0  0  0
    0.3248    0.4869    2.9554 C   0  0  0  0  0  0  0  0  0  0  0  0
   -3.4438    2.0410    0.6097 C   0  0  0  0  0  0  0  0  0  0  0  0
   -3.6632    0.5321    0.4510 C   0  0  0  0  0  0  0  0  0  0  0  0
   -9.5293    0.6262    1.8541 C   0  0  0  0  0  0  0  0  0  0  0  0
   -9.5789   -0.6416    1.3933 C   0  0  0  0  0  0  0  0  0  0  0  0
   -8.4324   -1.5711    1.2436 C   0  0  0  0  0  0  0  0  0  0  0  0
   -7.3595   -1.5611    1.9027 O   0  0  0  0  0  0  0  0  0  0  0  0
   -8.8482   -2.6329    0.3559 C   0  0  0  0  0  0  0  0  0  0  0  0
  -10.1634   -2.4839    0.0554 C   0  0  0  0  0  0  0  0  0  0  0  0
  -10.6987   -3.7634   -0.9098 S   0  0  0  0  0  0  0  0  0  0  0  0
   -9.1656   -4.4992   -0.9474 C   0  0  0  0  0  0  0  0  0  0  0  0
   -8.7902   -5.6708   -1.5991 C   0  0  0  0  0  0  0  0  0  0  0  0
   -7.4519   -6.0884   -1.5047 C   0  0  0  0  0  0  0  0  0  0  0  0
   -6.5211   -5.3382   -0.7595 C   0  0  0  0  0  0  0  0  0  0  0  0
   -6.9178   -4.1637   -0.0977 C   0  0  0  0  0  0  0  0  0  0  0  0
   -8.2506   -3.7578   -0.2018 C   0  0  0  0  0  0  0  0  0  0  0  0
  -10.7509   -1.3095    0.7235 C   0  0  0  0  0  0  0  0  0  0  0  0
  -12.0683   -1.0200    0.8005 C   0  0  0  0  0  0  0  0  0  0  0  0
  -12.5871   -0.0113    1.6864 C   0  0  0  0  0  0  0  0  0  0  0  0
  -13.0133    0.7953    2.4013 N   0  0  0  0  0  0  0  0  0  0  0  0
  -13.0452   -1.7863    0.0718 C   0  0  0  0  0  0  0  0  0  0  0  0
  -13.8344   -2.3986   -0.5123 N   0  0  0  0  0  0  0  0  0  0  0  0
    8.3170    1.8950    1.6600 H   0  0  0  0  0  0  0  0  0  0  0  0
    6.2496    0.2382   -4.0147 H   0  0  0  0  0  0  0  0  0  0  0  0
   10.2544   -2.0249   -1.8041 H   0  0  0  0  0  0  0  0  0  0  0  0
    8.5343   -4.1345   -3.9061 H   0  0  0  0  0  0  0  0  0  0  0  0
   10.8539   -3.3076   -5.1929 H   0  0  0  0  0  0  0  0  0  0  0  0
    9.7439   -5.0599   -6.8526 H   0  0  0  0  0  0  0  0  0  0  0  0
    7.6619   -3.9381   -7.9575 H   0  0  0  0  0  0  0  0  0  0  0  0
    7.4422   -1.4679   -7.0074 H   0  0  0  0  0  0  0  0  0  0  0  0
    9.6905   -0.9348   -5.6511 H   0  0  0  0  0  0  0  0  0  0  0  0
   10.0781   -1.7611   -7.2174 H   0  0  0  0  0  0  0  0  0  0  0  0
    6.6317   -3.0939   -4.9138 H   0  0  0  0  0  0  0  0  0  0  0  0
   -9.1032    3.5119    4.7916 H   0  0  0  0  0  0  0  0  0  0  0  0
  -10.2471    2.5075    3.8519 H   0  0  0  0  0  0  0  0  0  0  0  0
   -9.3405    0.4376    5.0319 H   0  0  0  0  0  0  0  0  0  0  0  0
  -10.0940    1.6367    6.1471 H   0  0  0  0  0  0  0  0  0  0  0  0
   -8.2974    1.5277    6.0352 H   0  0  0  0  0  0  0  0  0  0  0  0
    5.1807    0.9495   -0.2087 H   0  0  0  0  0  0  0  0  0  0  0  0
    2.7126    1.6873   -1.2778 H   0  0  0  0  0  0  0  0  0  0  0  0
    1.1037    1.6609   -0.5387 H   0  0  0  0  0  0  0  0  0  0  0  0
    1.7658   -0.6443   -1.0948 H   0  0  0  0  0  0  0  0  0  0  0  0
    1.8012   -0.5068    0.7011 H   0  0  0  0  0  0  0  0  0  0  0  0
    3.3345   -0.4650   -0.2303 H   0  0  0  0  0  0  0  0  0  0  0  0
   -0.2754    0.6867    0.8588 H   0  0  0  0  0  0  0  0  0  0  0  0
   -1.5559    0.8087    2.0711 H   0  0  0  0  0  0  0  0  0  0  0  0
    0.1058    0.9768    3.9276 H   0  0  0  0  0  0  0  0  0  0  0  0
    1.4062    0.5827    2.7446 H   0  0  0  0  0  0  0  0  0  0  0  0
    0.0889   -0.5943    3.0423 H   0  0  0  0  0  0  0  0  0  0  0  0
   -2.4583    2.3239    0.1884 H   0  0  0  0  0  0  0  0  0  0  0  0
   -4.1998    2.5909    0.0100 H   0  0  0  0  0  0  0  0  0  0  0  0
   -2.7314    0.0415    0.0921 H   0  0  0  0  0  0  0  0  0  0  0  0
   -3.9700    0.0564    1.4079 H   0  0  0  0  0  0  0  0  0  0  0  0
   -4.4527    0.3402   -0.3062 H   0  0  0  0  0  0  0  0  0  0  0  0
  -10.4224    1.2269    1.8744 H   0  0  0  0  0  0  0  0  0  0  0  0
   -9.5084   -6.2410   -2.1715 H   0  0  0  0  0  0  0  0  0  0  0  0
   -7.1355   -6.9937   -2.0073 H   0  0  0  0  0  0  0  0  0  0  0  0
   -5.4914   -5.6666   -0.7021 H   0  0  0  0  0  0  0  0  0  0  0  0
   -6.1962   -3.5851    0.4654 H   0  0  0  0  0  0  0  0  0  0  0  0
  1  2  2  3
  2  3  1  0
  3  4  2  0
  3  5  1  0
  5  6  2  0
  6  7  1  0
  7  8  2  0
  8  9  1  0
  9 10  2  0
 10 11  1  0
 11 12  2  3
 12 13  1  0
 13 14  3  0
 12 15  1  0
 15 16  3  0
  8 17  1  0
 17 18  1  0
 18 19  1  0
 19 20  2  0
 20 21  1  0
 21 22  1  0
 21 23  1  0
  1 24  1  0
 24 25  1  0
 25 26  1  0
 26 27  1  0
 27 28  1  0
 28 29  1  0
 29 30  1  0
 30 31  1  0
 31 32  1  0
 32 33  2  0
 33 34  1  0
 34 35  1  0
 32 36  1  0
 36 37  1  0
 37 38  1  0
 38 39  1  0
 39 40  1  0
 40 41  1  0
 41 42  1  0
 40 43  2  0
 43 44  1  0
 44 45  1  0
 45 46  1  0
 46 47  1  0
 47 48  1  0
 48 49  1  0
 49 50  1  0
 50 51  1  0
 51 52  1  0
 52 53  1  0
 53 54  1  0
 54 55  1  0
 53 56  1  0
 56 57  1  0
 50 58  1  0
 58 59  1  0
 47 60  1  0
 60 61  1  0
 43 62  1  0
 62 63  2  3
 63 64  1  0
 64 65  2  0
 64 66  1  0
 66 67  2  0
 67 68  1  0
 68 69  1  0
 69 70  2  0
 70 71  1  0
 71 72  2  0
 72 73  1  0
 73 74  2  0
 67 75  1  0
 75 76  2  3
 76 77  1  0
 77 78  3  0
 76 79  1  0
 79 80  3  0
 11  2  1  0
 23 17  1  0
 55 24  2  0
 75 63  1  0
 10  5  1  0
 22 18  1  0
 54 26  2  0
 74 66  1  0
 23  7  1  0
 52 27  2  0
 74 69  1  0
 51 29  2  0
 49 30  2  0
 35 31  2  0
 48 36  2  0
 46 37  2  0
 45 39  2  0
  1 81  1  0
  6 82  1  0
  9 83  1  0
 17 84  1  0
 18 85  1  0
 19 86  1  0
 20 87  1  0
 21 88  1  0
 22 89  1  0
 22 90  1  0
 23 91  1  0
 41 92  1  0
 41 93  1  0
 42 94  1  0
 42 95  1  0
 42 96  1  0
 55 97  1  0
 56 98  1  0
 56 99  1  0
 57100  1  0
 57101  1  0
 57102  1  0
 58103  1  0
 58104  1  0
 59105  1  0
 59106  1  0
 59107  1  0
 60108  1  0
 60109  1  0
 61110  1  0
 61111  1  0
 61112  1  0
 62113  1  0
 70114  1  0
 71115  1  0
 72116  1  0
 73117  1  0
M  END

