
     RDKit          3D

113127  0  0  0  0  0  0  0  0999 V2000
   -0.1906   -0.8970   -7.4767 C   0  0  0  0  0  0  0  0  0  0  0  0
    0.9014   -0.5182   -8.1675 C   0  0  0  0  0  0  0  0  0  0  0  0
    2.1901   -0.1173   -7.5793 C   0  0  0  0  0  0  0  0  0  0  0  0
    2.5711   -0.3221   -6.3960 O   0  0  0  0  0  0  0  0  0  0  0  0
    2.9227    0.6589   -8.5517 C   0  0  0  0  0  0  0  0  0  0  0  0
    4.1374    1.3467   -8.3431 C   0  0  0  0  0  0  0  0  0  0  0  0
    4.5207    2.1367   -9.4079 C   0  0  0  0  0  0  0  0  0  0  0  0
    3.7473    2.2682  -10.6079 C   0  0  0  0  0  0  0  0  0  0  0  0
    2.5534    1.5953  -10.8190 C   0  0  0  0  0  0  0  0  0  0  0  0
    2.1592    0.7464   -9.7464 C   0  0  0  0  0  0  0  0  0  0  0  0
    0.9342   -0.0877   -9.6001 C   0  0  0  0  0  0  0  0  0  0  0  0
    0.1714   -0.5883  -10.6049 C   0  0  0  0  0  0  0  0  0  0  0  0
   -0.8255   -1.6031  -10.3789 C   0  0  0  0  0  0  0  0  0  0  0  0
   -1.6280   -2.4202  -10.2075 N   0  0  0  0  0  0  0  0  0  0  0  0
    0.3970   -0.2518  -11.9876 C   0  0  0  0  0  0  0  0  0  0  0  0
    0.5734   -0.0025  -13.1040 N   0  0  0  0  0  0  0  0  0  0  0  0
    4.7262    3.2662  -11.1486 C   0  0  0  0  0  0  0  0  0  0  0  0
    4.2871    4.7611  -11.1252 C   0  0  0  0  0  0  0  0  0  0  0  0
    5.5470    5.5684  -11.3257 C   0  0  0  0  0  0  0  0  0  0  0  0
    6.2695    5.4337  -10.2062 C   0  0  0  0  0  0  0  0  0  0  0  0
    5.4685    4.5465   -9.2877 C   0  0  0  0  0  0  0  0  0  0  0  0
    4.0746    5.0341   -9.6458 C   0  0  0  0  0  0  0  0  0  0  0  0
    5.5188    3.1259   -9.9214 C   0  0  0  0  0  0  0  0  0  0  0  0
   -0.1748   -1.1251   -6.0276 C   0  0  0  0  0  0  0  0  0  0  0  0
    0.6779   -2.3889   -5.2391 S   0  0  0  0  0  0  0  0  0  0  0  0
    0.2728   -1.7874   -3.7323 C   0  0  0  0  0  0  0  0  0  0  0  0
    0.5739   -1.9622   -2.4225 C   0  0  0  0  0  0  0  0  0  0  0  0
    1.4851   -3.0423   -1.5041 S   0  0  0  0  0  0  0  0  0  0  0  0
    1.1146   -2.1102   -0.1304 C   0  0  0  0  0  0  0  0  0  0  0  0
    1.2057   -2.3129    1.2095 C   0  0  0  0  0  0  0  0  0  0  0  0
    1.5999   -3.4688    1.8935 C   0  0  0  0  0  0  0  0  0  0  0  0
    1.2601   -3.6005    3.2655 C   0  0  0  0  0  0  0  0  0  0  0  0
    1.5908   -4.7635    3.8781 N   0  0  0  0  0  0  0  0  0  0  0  0
    2.3013   -5.5549    2.6072 S   0  0  0  0  0  0  0  0  0  0  0  0
    2.2151   -4.5279    1.3118 N   0  0  0  0  0  0  0  0  0  0  0  0
    0.5980   -2.5444    3.8888 C   0  0  0  0  0  0  0  0  0  0  0  0
    0.1086   -2.4332    5.1519 C   0  0  0  0  0  0  0  0  0  0  0  0
   -0.1817   -3.4090    6.5059 S   0  0  0  0  0  0  0  0  0  0  0  0
   -1.0294   -2.1326    7.2640 C   0  0  0  0  0  0  0  0  0  0  0  0
   -1.8391   -2.0745    8.3999 C   0  0  0  0  0  0  0  0  0  0  0  0
   -2.1596   -3.2788    9.2473 C   0  0  0  0  0  0  0  0  0  0  0  0
   -3.1486   -4.1993    8.5334 C   0  0  0  0  0  0  0  0  0  0  0  0
   -2.5015   -0.8282    8.4728 C   0  0  0  0  0  0  0  0  0  0  0  0
   -2.1202    0.1215    7.1108 S   0  0  0  0  0  0  0  0  0  0  0  0
   -1.0643   -1.0123    6.4743 C   0  0  0  0  0  0  0  0  0  0  0  0
   -0.4213   -1.2001    5.2613 C   0  0  0  0  0  0  0  0  0  0  0  0
   -0.2919   -0.4530    4.1381 N   0  0  0  0  0  0  0  0  0  0  0  0
    0.2770   -1.3339    3.2365 C   0  0  0  0  0  0  0  0  0  0  0  0
    0.4979   -1.2584    1.8166 C   0  0  0  0  0  0  0  0  0  0  0  0
   -0.0781   -0.4628    0.8424 N   0  0  0  0  0  0  0  0  0  0  0  0
    0.3134   -1.0236   -0.3460 C   0  0  0  0  0  0  0  0  0  0  0  0
   -0.0201   -0.9302   -1.7237 C   0  0  0  0  0  0  0  0  0  0  0  0
   -0.7107   -0.1048   -2.5851 N   0  0  0  0  0  0  0  0  0  0  0  0
   -0.4844   -0.6736   -3.8031 C   0  0  0  0  0  0  0  0  0  0  0  0
   -0.7731   -0.2582   -5.1006 C   0  0  0  0  0  0  0  0  0  0  0  0
   -1.4250    1.1572   -2.3958 C   0  0  0  0  0  0  0  0  0  0  0  0
   -0.4432    2.2979   -2.1230 C   0  0  0  0  0  0  0  0  0  0  0  0
   -1.0996    0.5590    1.0240 C   0  0  0  0  0  0  0  0  0  0  0  0
   -2.4407   -0.0493    1.4185 C   0  0  0  0  0  0  0  0  0  0  0  0
   -0.2406    1.0159    4.1964 C   0  0  0  0  0  0  0  0  0  0  0  0
    1.1010    1.5598    3.7001 C   0  0  0  0  0  0  0  0  0  0  0  0
   -3.5218   -0.4415    9.4606 C   0  0  0  0  0  0  0  0  0  0  0  0
   -3.2639   -0.3481   10.7721 C   0  0  0  0  0  0  0  0  0  0  0  0
   -1.7746   -0.5692   11.5184 S   0  0  0  0  0  0  0  0  0  0  0  0
   -2.3358   -0.2839   13.0888 C   0  0  0  0  0  0  0  0  0  0  0  0
   -1.5107   -0.3081   14.1683 C   0  0  0  0  0  0  0  0  0  0  0  0
   -0.1061   -0.6052   14.0101 C   0  0  0  0  0  0  0  0  0  0  0  0
    1.0232   -0.8430   13.9073 N   0  0  0  0  0  0  0  0  0  0  0  0
   -1.9115   -0.0317   15.5236 C   0  0  0  0  0  0  0  0  0  0  0  0
   -2.1992    0.2012   16.6203 N   0  0  0  0  0  0  0  0  0  0  0  0
   -3.6893   -0.0370   13.0574 N   0  0  0  0  0  0  0  0  0  0  0  0
   -4.5729    0.2668   14.1996 C   0  0  0  0  0  0  0  0  0  0  0  0
   -4.5322    1.7542   14.5339 C   0  0  0  0  0  0  0  0  0  0  0  0
   -4.1825   -0.0526   11.7743 C   0  0  0  0  0  0  0  0  0  0  0  0
   -5.3957    0.1781   11.5184 O   0  0  0  0  0  0  0  0  0  0  0  0
   -1.1623   -0.8785   -7.9510 H   0  0  0  0  0  0  0  0  0  0  0  0
    4.6972    1.3024   -7.4190 H   0  0  0  0  0  0  0  0  0  0  0  0
    1.9682    1.7698  -11.7095 H   0  0  0  0  0  0  0  0  0  0  0  0
    5.2404    2.9279  -12.0748 H   0  0  0  0  0  0  0  0  0  0  0  0
    3.4418    5.0279  -11.7946 H   0  0  0  0  0  0  0  0  0  0  0  0
    5.7895    6.2136  -12.1632 H   0  0  0  0  0  0  0  0  0  0  0  0
    7.1951    5.9495   -9.9795 H   0  0  0  0  0  0  0  0  0  0  0  0
    5.7413    4.6033   -8.2138 H   0  0  0  0  0  0  0  0  0  0  0  0
    3.9105    6.1145   -9.4119 H   0  0  0  0  0  0  0  0  0  0  0  0
    3.2536    4.4436   -9.1831 H   0  0  0  0  0  0  0  0  0  0  0  0
    6.5340    2.6970  -10.0675 H   0  0  0  0  0  0  0  0  0  0  0  0
   -1.2227   -3.8354    9.4687 H   0  0  0  0  0  0  0  0  0  0  0  0
   -2.6065   -2.9735   10.2171 H   0  0  0  0  0  0  0  0  0  0  0  0
   -4.0654   -3.6353    8.2355 H   0  0  0  0  0  0  0  0  0  0  0  0
   -3.4421   -5.0255    9.2159 H   0  0  0  0  0  0  0  0  0  0  0  0
   -2.6767   -4.6391    7.6251 H   0  0  0  0  0  0  0  0  0  0  0  0
   -1.3143    0.6388   -5.3683 H   0  0  0  0  0  0  0  0  0  0  0  0
   -2.2257    1.0457   -1.6402 H   0  0  0  0  0  0  0  0  0  0  0  0
   -1.9900    1.4187   -3.3147 H   0  0  0  0  0  0  0  0  0  0  0  0
    0.2718    2.0330   -1.3149 H   0  0  0  0  0  0  0  0  0  0  0  0
   -1.0034    3.2110   -1.8289 H   0  0  0  0  0  0  0  0  0  0  0  0
    0.1401    2.5142   -3.0428 H   0  0  0  0  0  0  0  0  0  0  0  0
   -0.7571    1.3357    1.7049 H   0  0  0  0  0  0  0  0  0  0  0  0
   -1.2178    1.1430    0.1276 H   0  0  0  0  0  0  0  0  0  0  0  0
   -2.8046   -0.7170    0.6103 H   0  0  0  0  0  0  0  0  0  0  0  0
   -3.1819    0.7575    1.5800 H   0  0  0  0  0  0  0  0  0  0  0  0
   -2.3535   -0.6356    2.3555 H   0  0  0  0  0  0  0  0  0  0  0  0
   -1.1256    1.4663    3.7086 H   0  0  0  0  0  0  0  0  0  0  0  0
   -0.3254    1.3515    5.2512 H   0  0  0  0  0  0  0  0  0  0  0  0
    1.2994    1.2969    2.6431 H   0  0  0  0  0  0  0  0  0  0  0  0
    1.9231    1.1420    4.3187 H   0  0  0  0  0  0  0  0  0  0  0  0
    1.1168    2.6623    3.8011 H   0  0  0  0  0  0  0  0  0  0  0  0
   -4.5087   -0.2034    9.0894 H   0  0  0  0  0  0  0  0  0  0  0  0
   -4.3278   -0.3585   15.0756 H   0  0  0  0  0  0  0  0  0  0  0  0
   -5.6227   -0.0057   13.9606 H   0  0  0  0  0  0  0  0  0  0  0  0
   -4.8822    2.3477   13.6592 H   0  0  0  0  0  0  0  0  0  0  0  0
   -5.1985    1.9556   15.3983 H   0  0  0  0  0  0  0  0  0  0  0  0
   -3.5006    2.0737   14.7877 H   0  0  0  0  0  0  0  0  0  0  0  0
  1  2  2  3
  2  3  1  0
  3  4  2  0
  3  5  1  0
  5  6  2  0
  6  7  1  0
  7  8  2  0
  8  9  1  0
  9 10  2  0
 10 11  1  0
 11 12  2  3
 12 13  1  0
 13 14  3  0
 12 15  1  0
 15 16  3  0
  8 17  1  0
 17 18  1  0
 18 19  1  0
 19 20  2  0
 20 21  1  0
 21 22  1  0
 21 23  1  0
  1 24  1  0
 24 25  1  0
 25 26  1  0
 26 27  1  0
 27 28  1  0
 28 29  1  0
 29 30  1  0
 30 31  1  0
 31 32  1  0
 32 33  2  0
 33 34  1  0
 34 35  1  0
 32 36  1  0
 36 37  1  0
 37 38  1  0
 38 39  1  0
 39 40  1  0
 40 41  1  0
 41 42  1  0
 40 43  2  0
 43 44  1  0
 44 45  1  0
 45 46  1  0
 46 47  1  0
 47 48  1  0
 48 49  1  0
 49 50  1  0
 50 51  1  0
 51 52  1  0
 52 53  1  0
 53 54  1  0
 54 55  1  0
 53 56  1  0
 56 57  1  0
 50 58  1  0
 58 59  1  0
 47 60  1  0
 60 61  1  0
 43 62  1  0
 62 63  2  3
 63 64  1  0
 64 65  1  0
 65 66  2  3
 66 67  1  0
 67 68  3  0
 66 69  1  0
 69 70  3  0
 65 71  1  0
 71 72  1  0
 72 73  1  0
 71 74  1  0
 74 75  2  0
 11  2  1  0
 23 17  1  0
 55 24  2  0
 74 63  1  0
 10  5  1  0
 22 18  1  0
 54 26  2  0
 23  7  1  0
 52 27  2  0
 51 29  2  0
 49 30  2  0
 35 31  2  0
 48 36  2  0
 46 37  2  0
 45 39  2  0
  1 76  1  0
  6 77  1  0
  9 78  1  0
 17 79  1  0
 18 80  1  0
 19 81  1  0
 20 82  1  0
 21 83  1  0
 22 84  1  0
 22 85  1  0
 23 86  1  0
 41 87  1  0
 41 88  1  0
 42 89  1  0
 42 90  1  0
 42 91  1  0
 55 92  1  0
 56 93  1  0
 56 94  1  0
 57 95  1  0
 57 96  1  0
 57 97  1  0
 58 98  1  0
 58 99  1  0
 59100  1  0
 59101  1  0
 59102  1  0
 60103  1  0
 60104  1  0
 61105  1  0
 61106  1  0
 61107  1  0
 62108  1  0
 72109  1  0
 72110  1  0
 73111  1  0
 73112  1  0
 73113  1  0
M  END

