
     RDKit          3D

114129  0  0  0  0  0  0  0  0999 V2000
   -6.7996    4.9362    1.0756 C   0  0  0  0  0  0  0  0  0  0  0  0
   -7.7421    4.0053    1.3226 C   0  0  0  0  0  0  0  0  0  0  0  0
   -7.7403    2.6566    0.7387 C   0  0  0  0  0  0  0  0  0  0  0  0
   -6.8690    2.1804   -0.0408 O   0  0  0  0  0  0  0  0  0  0  0  0
   -8.9632    1.9863    1.1049 C   0  0  0  0  0  0  0  0  0  0  0  0
   -9.3275    0.6596    0.7796 C   0  0  0  0  0  0  0  0  0  0  0  0
  -10.5006    0.2416    1.3746 C   0  0  0  0  0  0  0  0  0  0  0  0
  -11.2692    1.0706    2.2535 C   0  0  0  0  0  0  0  0  0  0  0  0
  -10.9316    2.3806    2.5538 C   0  0  0  0  0  0  0  0  0  0  0  0
   -9.7458    2.8500    1.9172 C   0  0  0  0  0  0  0  0  0  0  0  0
   -9.0356    4.1593    2.0675 C   0  0  0  0  0  0  0  0  0  0  0  0
   -9.4319    5.2166    2.8271 C   0  0  0  0  0  0  0  0  0  0  0  0
  -10.7721    5.3452    3.3374 C   0  0  0  0  0  0  0  0  0  0  0  0
  -11.8475    5.4753    3.7531 N   0  0  0  0  0  0  0  0  0  0  0  0
   -8.5594    6.3140    3.1557 C   0  0  0  0  0  0  0  0  0  0  0  0
   -7.8592    7.1974    3.4308 N   0  0  0  0  0  0  0  0  0  0  0  0
  -12.2186   -0.0616    2.5156 C   0  0  0  0  0  0  0  0  0  0  0  0
  -12.0934   -0.8157    3.8767 C   0  0  0  0  0  0  0  0  0  0  0  0
  -10.6559   -0.8083    4.3523 C   0  0  0  0  0  0  0  0  0  0  0  0
   -9.9716   -1.5820    3.5088 C   0  0  0  0  0  0  0  0  0  0  0  0
  -10.9638   -2.0837    2.4836 C   0  0  0  0  0  0  0  0  0  0  0  0
  -12.1755   -2.2490    3.3831 C   0  0  0  0  0  0  0  0  0  0  0  0
  -11.4495   -0.9002    1.5916 C   0  0  0  0  0  0  0  0  0  0  0  0
   -5.4467    4.5630    0.6485 C   0  0  0  0  0  0  0  0  0  0  0  0
   -4.6613    5.1305   -0.7669 S   0  0  0  0  0  0  0  0  0  0  0  0
   -3.3200    4.1679   -0.4681 C   0  0  0  0  0  0  0  0  0  0  0  0
   -2.1444    3.7788   -1.0297 C   0  0  0  0  0  0  0  0  0  0  0  0
   -1.2551    4.1216   -2.4230 S   0  0  0  0  0  0  0  0  0  0  0  0
   -0.1071    2.9746   -1.9173 C   0  0  0  0  0  0  0  0  0  0  0  0
    1.1167    2.5676   -2.3443 C   0  0  0  0  0  0  0  0  0  0  0  0
    1.8624    3.0304   -3.4279 C   0  0  0  0  0  0  0  0  0  0  0  0
    3.1891    2.5709   -3.5858 C   0  0  0  0  0  0  0  0  0  0  0  0
    3.8943    3.0615   -4.6374 N   0  0  0  0  0  0  0  0  0  0  0  0
    2.7540    4.0661   -5.2944 S   0  0  0  0  0  0  0  0  0  0  0  0
    1.4112    3.9329   -4.3352 N   0  0  0  0  0  0  0  0  0  0  0  0
    3.6944    1.6623   -2.6586 C   0  0  0  0  0  0  0  0  0  0  0  0
    4.9333    1.1071   -2.5932 C   0  0  0  0  0  0  0  0  0  0  0  0
    6.3979    1.1279   -3.4525 S   0  0  0  0  0  0  0  0  0  0  0  0
    7.0705    0.0021   -2.3618 C   0  0  0  0  0  0  0  0  0  0  0  0
    8.3414   -0.5559   -2.2242 C   0  0  0  0  0  0  0  0  0  0  0  0
    9.5036   -0.2540   -3.1264 C   0  0  0  0  0  0  0  0  0  0  0  0
   10.3692    0.8550   -2.5432 C   0  0  0  0  0  0  0  0  0  0  0  0
    8.4108   -1.3500   -1.0655 C   0  0  0  0  0  0  0  0  0  0  0  0
    6.9168   -1.3437   -0.2533 S   0  0  0  0  0  0  0  0  0  0  0  0
    6.1712   -0.3544   -1.3856 C   0  0  0  0  0  0  0  0  0  0  0  0
    4.9445    0.2869   -1.5287 C   0  0  0  0  0  0  0  0  0  0  0  0
    3.7521    0.2387   -0.8760 N   0  0  0  0  0  0  0  0  0  0  0  0
    2.9491    1.1395   -1.5695 C   0  0  0  0  0  0  0  0  0  0  0  0
    1.5931    1.6358   -1.3963 C   0  0  0  0  0  0  0  0  0  0  0  0
    0.6372    1.4893   -0.4013 N   0  0  0  0  0  0  0  0  0  0  0  0
   -0.3777    2.3448   -0.7427 C   0  0  0  0  0  0  0  0  0  0  0  0
   -1.5928    2.8268   -0.1936 C   0  0  0  0  0  0  0  0  0  0  0  0
   -2.3959    2.6247    0.9057 N   0  0  0  0  0  0  0  0  0  0  0  0
   -3.4478    3.4535    0.6698 C   0  0  0  0  0  0  0  0  0  0  0  0
   -4.6461    3.6419    1.3412 C   0  0  0  0  0  0  0  0  0  0  0  0
   -2.3150    1.7307    2.0618 C   0  0  0  0  0  0  0  0  0  0  0  0
   -2.9115    0.3655    1.7227 C   0  0  0  0  0  0  0  0  0  0  0  0
    0.6700    0.6802    0.8018 C   0  0  0  0  0  0  0  0  0  0  0  0
    1.4257    1.3997    1.9193 C   0  0  0  0  0  0  0  0  0  0  0  0
    3.4354   -0.8513    0.0513 C   0  0  0  0  0  0  0  0  0  0  0  0
    2.6278   -1.9458   -0.6470 C   0  0  0  0  0  0  0  0  0  0  0  0
    9.6272   -1.9602   -0.5186 C   0  0  0  0  0  0  0  0  0  0  0  0
   10.1254   -3.1252   -0.9640 C   0  0  0  0  0  0  0  0  0  0  0  0
    9.4413   -4.0516   -1.8756 C   0  0  0  0  0  0  0  0  0  0  0  0
    8.4356   -3.7931   -2.5920 O   0  0  0  0  0  0  0  0  0  0  0  0
   10.0726   -5.3497   -1.7565 C   0  0  0  0  0  0  0  0  0  0  0  0
    9.6734   -6.5629   -2.3168 C   0  0  0  0  0  0  0  0  0  0  0  0
    8.6179   -6.6275   -3.1676 F   0  0  0  0  0  0  0  0  0  0  0  0
   10.3708   -7.7258   -1.9599 C   0  0  0  0  0  0  0  0  0  0  0  0
   11.4316   -7.6605   -1.0383 C   0  0  0  0  0  0  0  0  0  0  0  0
   11.8148   -6.4308   -0.4800 C   0  0  0  0  0  0  0  0  0  0  0  0
   11.1384   -5.2647   -0.8738 C   0  0  0  0  0  0  0  0  0  0  0  0
   11.3069   -3.8569   -0.4208 C   0  0  0  0  0  0  0  0  0  0  0  0
   12.4233   -3.3029    0.1191 C   0  0  0  0  0  0  0  0  0  0  0  0
   13.6004   -4.0754    0.4068 C   0  0  0  0  0  0  0  0  0  0  0  0
   14.5582   -4.6821    0.6380 N   0  0  0  0  0  0  0  0  0  0  0  0
   12.5725   -1.8786    0.2781 C   0  0  0  0  0  0  0  0  0  0  0  0
   12.7026   -0.7338    0.4060 N   0  0  0  0  0  0  0  0  0  0  0  0
   -6.9742    5.9838    1.2616 H   0  0  0  0  0  0  0  0  0  0  0  0
   -8.7187    0.0100    0.1651 H   0  0  0  0  0  0  0  0  0  0  0  0
  -11.5257    2.9429    3.2507 H   0  0  0  0  0  0  0  0  0  0  0  0
  -13.2624    0.1345    2.1809 H   0  0  0  0  0  0  0  0  0  0  0  0
  -12.8427   -0.5321    4.6448 H   0  0  0  0  0  0  0  0  0  0  0  0
  -10.2640   -0.3410    5.2491 H   0  0  0  0  0  0  0  0  0  0  0  0
   -8.9217   -1.8472    3.5937 H   0  0  0  0  0  0  0  0  0  0  0  0
  -10.6491   -2.9949    1.9341 H   0  0  0  0  0  0  0  0  0  0  0  0
  -12.0250   -3.0049    4.1927 H   0  0  0  0  0  0  0  0  0  0  0  0
  -13.1183   -2.4765    2.8287 H   0  0  0  0  0  0  0  0  0  0  0  0
  -12.0117   -1.1980    0.6790 H   0  0  0  0  0  0  0  0  0  0  0  0
    9.1360    0.0584   -4.1266 H   0  0  0  0  0  0  0  0  0  0  0  0
   10.1182   -1.1705   -3.2664 H   0  0  0  0  0  0  0  0  0  0  0  0
    9.7806    1.7931   -2.4504 H   0  0  0  0  0  0  0  0  0  0  0  0
   10.7526    0.5645   -1.5429 H   0  0  0  0  0  0  0  0  0  0  0  0
   11.2355    1.0410   -3.2124 H   0  0  0  0  0  0  0  0  0  0  0  0
   -4.9394    3.1316    2.2468 H   0  0  0  0  0  0  0  0  0  0  0  0
   -1.2915    1.6830    2.4673 H   0  0  0  0  0  0  0  0  0  0  0  0
   -2.8983    2.1570    2.9058 H   0  0  0  0  0  0  0  0  0  0  0  0
   -2.5371   -0.0021    0.7458 H   0  0  0  0  0  0  0  0  0  0  0  0
   -2.6420   -0.3656    2.5133 H   0  0  0  0  0  0  0  0  0  0  0  0
   -4.0162    0.4428    1.6668 H   0  0  0  0  0  0  0  0  0  0  0  0
   -0.3433    0.4327    1.1048 H   0  0  0  0  0  0  0  0  0  0  0  0
    1.0206   -0.3234    0.5841 H   0  0  0  0  0  0  0  0  0  0  0  0
    1.4635    0.7535    2.8214 H   0  0  0  0  0  0  0  0  0  0  0  0
    2.4584    1.6438    1.5971 H   0  0  0  0  0  0  0  0  0  0  0  0
    0.9144    2.3535    2.1758 H   0  0  0  0  0  0  0  0  0  0  0  0
    3.0126   -0.4824    0.9891 H   0  0  0  0  0  0  0  0  0  0  0  0
    4.3571   -1.3328    0.4185 H   0  0  0  0  0  0  0  0  0  0  0  0
    3.2720   -2.4755   -1.3815 H   0  0  0  0  0  0  0  0  0  0  0  0
    2.2663   -2.6791    0.1033 H   0  0  0  0  0  0  0  0  0  0  0  0
    1.7596   -1.5209   -1.1927 H   0  0  0  0  0  0  0  0  0  0  0  0
   10.0675   -1.4655    0.3311 H   0  0  0  0  0  0  0  0  0  0  0  0
   10.0793   -8.6810   -2.3769 H   0  0  0  0  0  0  0  0  0  0  0  0
   11.9443   -8.5669   -0.7454 H   0  0  0  0  0  0  0  0  0  0  0  0
   12.5863   -6.4193    0.2723 H   0  0  0  0  0  0  0  0  0  0  0  0
  1  2  2  3
  2  3  1  0
  3  4  2  0
  3  5  1  0
  5  6  2  0
  6  7  1  0
  7  8  2  0
  8  9  1  0
  9 10  2  0
 10 11  1  0
 11 12  2  3
 12 13  1  0
 13 14  3  0
 12 15  1  0
 15 16  3  0
  8 17  1  0
 17 18  1  0
 18 19  1  0
 19 20  2  0
 20 21  1  0
 21 22  1  0
 21 23  1  0
  1 24  1  0
 24 25  1  0
 25 26  1  0
 26 27  1  0
 27 28  1  0
 28 29  1  0
 29 30  1  0
 30 31  1  0
 31 32  1  0
 32 33  2  0
 33 34  1  0
 34 35  1  0
 32 36  1  0
 36 37  1  0
 37 38  1  0
 38 39  1  0
 39 40  1  0
 40 41  1  0
 41 42  1  0
 40 43  2  0
 43 44  1  0
 44 45  1  0
 45 46  1  0
 46 47  1  0
 47 48  1  0
 48 49  1  0
 49 50  1  0
 50 51  1  0
 51 52  1  0
 52 53  1  0
 53 54  1  0
 54 55  1  0
 53 56  1  0
 56 57  1  0
 50 58  1  0
 58 59  1  0
 47 60  1  0
 60 61  1  0
 43 62  1  0
 62 63  2  3
 63 64  1  0
 64 65  2  0
 64 66  1  0
 66 67  2  0
 67 68  1  0
 67 69  1  0
 69 70  2  0
 70 71  1  0
 71 72  2  0
 72 73  1  0
 73 74  2  3
 74 75  1  0
 75 76  3  0
 74 77  1  0
 77 78  3  0
 11  2  1  0
 23 17  1  0
 55 24  2  0
 73 63  1  0
 10  5  1  0
 22 18  1  0
 54 26  2  0
 72 66  1  0
 23  7  1  0
 52 27  2  0
 51 29  2  0
 49 30  2  0
 35 31  2  0
 48 36  2  0
 46 37  2  0
 45 39  2  0
  1 79  1  0
  6 80  1  0
  9 81  1  0
 17 82  1  0
 18 83  1  0
 19 84  1  0
 20 85  1  0
 21 86  1  0
 22 87  1  0
 22 88  1  0
 23 89  1  0
 41 90  1  0
 41 91  1  0
 42 92  1  0
 42 93  1  0
 42 94  1  0
 55 95  1  0
 56 96  1  0
 56 97  1  0
 57 98  1  0
 57 99  1  0
 57100  1  0
 58101  1  0
 58102  1  0
 59103  1  0
 59104  1  0
 59105  1  0
 60106  1  0
 60107  1  0
 61108  1  0
 61109  1  0
 61110  1  0
 62111  1  0
 69112  1  0
 70113  1  0
 71114  1  0
M  END

