
     RDKit          3D

128141  0  0  0  0  0  0  0  0999 V2000
    4.8454   -3.6686    3.7835 C   0  0  0  0  0  0  0  0  0  0  0  0
    3.8362   -4.3459    3.1976 C   0  0  0  0  0  0  0  0  0  0  0  0
    2.5508   -3.7630    2.7948 C   0  0  0  0  0  0  0  0  0  0  0  0
    2.3369   -2.5594    2.4957 O   0  0  0  0  0  0  0  0  0  0  0  0
    1.5787   -4.8188    2.6771 C   0  0  0  0  0  0  0  0  0  0  0  0
    0.1876   -4.6692    2.4842 C   0  0  0  0  0  0  0  0  0  0  0  0
   -0.5001   -5.8634    2.4432 C   0  0  0  0  0  0  0  0  0  0  0  0
    0.1382   -7.1406    2.5683 C   0  0  0  0  0  0  0  0  0  0  0  0
    1.4994   -7.2915    2.7866 C   0  0  0  0  0  0  0  0  0  0  0  0
    2.2306   -6.0684    2.8354 C   0  0  0  0  0  0  0  0  0  0  0  0
    3.6893   -5.8284    3.0603 C   0  0  0  0  0  0  0  0  0  0  0  0
    4.6926   -6.7336    2.9281 C   0  0  0  0  0  0  0  0  0  0  0  0
    6.0789   -6.3421    2.9062 C   0  0  0  0  0  0  0  0  0  0  0  0
    7.1953   -6.0380    2.8825 N   0  0  0  0  0  0  0  0  0  0  0  0
    4.4570   -8.1276    2.6609 C   0  0  0  0  0  0  0  0  0  0  0  0
    4.2862   -9.2519    2.4445 N   0  0  0  0  0  0  0  0  0  0  0  0
   -1.1765   -7.8337    2.3753 C   0  0  0  0  0  0  0  0  0  0  0  0
   -1.4391   -8.4639    0.9724 C   0  0  0  0  0  0  0  0  0  0  0  0
   -2.9234   -8.7373    0.9156 C   0  0  0  0  0  0  0  0  0  0  0  0
   -3.5285   -7.5454    0.8382 C   0  0  0  0  0  0  0  0  0  0  0  0
   -2.4310   -6.5087    0.8453 C   0  0  0  0  0  0  0  0  0  0  0  0
   -1.3914   -7.2667    0.0348 C   0  0  0  0  0  0  0  0  0  0  0  0
   -1.8324   -6.5238    2.2826 C   0  0  0  0  0  0  0  0  0  0  0  0
    4.8052   -2.2096    3.9587 C   0  0  0  0  0  0  0  0  0  0  0  0
    5.4548   -1.1362    2.8192 S   0  0  0  0  0  0  0  0  0  0  0  0
    4.5929    0.1842    3.3895 C   0  0  0  0  0  0  0  0  0  0  0  0
    4.0706    1.3301    2.7000 C   0  0  0  0  0  0  0  0  0  0  0  0
    2.8662    1.6770    3.3122 C   0  0  0  0  0  0  0  0  0  0  0  0
    2.5631    0.7753    4.5141 C   0  0  0  0  0  0  0  0  0  0  0  0
    3.7253   -0.1976    4.3738 C   0  0  0  0  0  0  0  0  0  0  0  0
    3.8683   -1.5386    4.7538 C   0  0  0  0  0  0  0  0  0  0  0  0
    1.1643    0.1016    4.3065 C   0  0  0  0  0  0  0  0  0  0  0  0
    0.7382   -0.9333    5.3539 C   0  0  0  0  0  0  0  0  0  0  0  0
    2.7166    1.5565    5.8484 C   0  0  0  0  0  0  0  0  0  0  0  0
    1.6589    2.6398    6.0820 C   0  0  0  0  0  0  0  0  0  0  0  0
    1.9699    2.5288    2.6461 C   0  0  0  0  0  0  0  0  0  0  0  0
    2.3293    2.9899    1.3728 C   0  0  0  0  0  0  0  0  0  0  0  0
    1.4683    3.5635    0.3686 C   0  0  0  0  0  0  0  0  0  0  0  0
    2.1639    3.6246   -0.8396 C   0  0  0  0  0  0  0  0  0  0  0  0
    3.5830    3.0844   -0.6924 C   0  0  0  0  0  0  0  0  0  0  0  0
    3.8132    1.8146   -1.5800 C   0  0  0  0  0  0  0  0  0  0  0  0
    4.1366    2.0551   -3.0600 C   0  0  0  0  0  0  0  0  0  0  0  0
    4.5987    4.2359   -0.9186 C   0  0  0  0  0  0  0  0  0  0  0  0
    6.0547    3.8694   -0.6135 C   0  0  0  0  0  0  0  0  0  0  0  0
    3.5455    2.6674    0.7772 C   0  0  0  0  0  0  0  0  0  0  0  0
    4.4487    1.8203    1.4460 C   0  0  0  0  0  0  0  0  0  0  0  0
    1.4986    4.0165   -2.0176 C   0  0  0  0  0  0  0  0  0  0  0  0
    0.1142    4.2053   -1.9362 C   0  0  0  0  0  0  0  0  0  0  0  0
   -0.8608    4.2837   -2.9862 C   0  0  0  0  0  0  0  0  0  0  0  0
   -2.1115    4.1141   -2.4847 C   0  0  0  0  0  0  0  0  0  0  0  0
   -2.1054    4.0103   -0.9681 C   0  0  0  0  0  0  0  0  0  0  0  0
   -0.5936    4.0624   -0.7438 C   0  0  0  0  0  0  0  0  0  0  0  0
    0.0858    3.7776    0.4484 C   0  0  0  0  0  0  0  0  0  0  0  0
   -2.7290    5.2684   -0.3054 C   0  0  0  0  0  0  0  0  0  0  0  0
   -4.2464    5.3895   -0.4382 C   0  0  0  0  0  0  0  0  0  0  0  0
   -2.6375    2.6554   -0.3907 C   0  0  0  0  0  0  0  0  0  0  0  0
   -3.8859    2.0618   -1.0451 C   0  0  0  0  0  0  0  0  0  0  0  0
   -3.0812    3.9127   -3.4685 C   0  0  0  0  0  0  0  0  0  0  0  0
   -2.5290    3.9215   -4.7579 C   0  0  0  0  0  0  0  0  0  0  0  0
   -0.8412    4.1082   -4.6503 S   0  0  0  0  0  0  0  0  0  0  0  0
   -3.2076    3.4799   -5.9901 C   0  0  0  0  0  0  0  0  0  0  0  0
   -4.5289    3.5612   -6.2214 C   0  0  0  0  0  0  0  0  0  0  0  0
   -5.4530    4.5284   -5.6083 C   0  0  0  0  0  0  0  0  0  0  0  0
   -5.1709    5.3838   -4.7273 O   0  0  0  0  0  0  0  0  0  0  0  0
   -6.7055    4.4820   -6.3308 C   0  0  0  0  0  0  0  0  0  0  0  0
   -7.8727    5.2049   -6.0787 C   0  0  0  0  0  0  0  0  0  0  0  0
   -7.9463    6.0693   -5.0368 F   0  0  0  0  0  0  0  0  0  0  0  0
   -8.9785    5.0054   -6.9124 C   0  0  0  0  0  0  0  0  0  0  0  0
   -8.8993    4.1012   -7.9833 C   0  0  0  0  0  0  0  0  0  0  0  0
   -7.7160    3.3849   -8.2258 C   0  0  0  0  0  0  0  0  0  0  0  0
   -6.6111    3.5812   -7.3799 C   0  0  0  0  0  0  0  0  0  0  0  0
   -5.2737    2.9175   -7.3467 C   0  0  0  0  0  0  0  0  0  0  0  0
   -4.8874    1.8111   -8.0386 C   0  0  0  0  0  0  0  0  0  0  0  0
   -3.7646    1.0046   -7.6282 C   0  0  0  0  0  0  0  0  0  0  0  0
   -2.8760    0.3470   -7.2935 N   0  0  0  0  0  0  0  0  0  0  0  0
   -5.6143    1.3013   -9.1711 C   0  0  0  0  0  0  0  0  0  0  0  0
   -6.1734    0.8823  -10.0917 N   0  0  0  0  0  0  0  0  0  0  0  0
    5.7093   -4.1809    4.1750 H   0  0  0  0  0  0  0  0  0  0  0  0
   -0.3005   -3.7096    2.3823 H   0  0  0  0  0  0  0  0  0  0  0  0
    1.9254   -8.2689    2.9369 H   0  0  0  0  0  0  0  0  0  0  0  0
   -1.4899   -8.4520    3.2472 H   0  0  0  0  0  0  0  0  0  0  0  0
   -0.7894   -9.3215    0.7012 H   0  0  0  0  0  0  0  0  0  0  0  0
   -3.4127   -9.7034    0.8689 H   0  0  0  0  0  0  0  0  0  0  0  0
   -4.5920   -7.3767    0.7074 H   0  0  0  0  0  0  0  0  0  0  0  0
   -2.7180   -5.5102    0.4539 H   0  0  0  0  0  0  0  0  0  0  0  0
   -0.3987   -6.7683   -0.0165 H   0  0  0  0  0  0  0  0  0  0  0  0
   -1.7255   -7.5002   -1.0064 H   0  0  0  0  0  0  0  0  0  0  0  0
   -2.5452   -6.2996    3.1068 H   0  0  0  0  0  0  0  0  0  0  0  0
    3.2314   -2.0459    5.4622 H   0  0  0  0  0  0  0  0  0  0  0  0
    0.3808    0.8860    4.2805 H   0  0  0  0  0  0  0  0  0  0  0  0
    1.1335   -0.3845    3.3081 H   0  0  0  0  0  0  0  0  0  0  0  0
   -0.3707   -0.9473    5.4284 H   0  0  0  0  0  0  0  0  0  0  0  0
    1.1415   -0.7105    6.3616 H   0  0  0  0  0  0  0  0  0  0  0  0
    1.0462   -1.9490    5.0416 H   0  0  0  0  0  0  0  0  0  0  0  0
    3.7130    2.0505    5.8676 H   0  0  0  0  0  0  0  0  0  0  0  0
    2.7026    0.8532    6.7079 H   0  0  0  0  0  0  0  0  0  0  0  0
    1.6872    3.4022    5.2771 H   0  0  0  0  0  0  0  0  0  0  0  0
    1.8694    3.1527    7.0442 H   0  0  0  0  0  0  0  0  0  0  0  0
    0.6440    2.1991    6.1520 H   0  0  0  0  0  0  0  0  0  0  0  0
    0.9848    2.7283    3.0439 H   0  0  0  0  0  0  0  0  0  0  0  0
    4.6603    1.2209   -1.1771 H   0  0  0  0  0  0  0  0  0  0  0  0
    2.9154    1.1577   -1.5189 H   0  0  0  0  0  0  0  0  0  0  0  0
    4.3415    1.0762   -3.5427 H   0  0  0  0  0  0  0  0  0  0  0  0
    5.0489    2.6765   -3.1802 H   0  0  0  0  0  0  0  0  0  0  0  0
    3.2882    2.5120   -3.6035 H   0  0  0  0  0  0  0  0  0  0  0  0
    4.5313    4.5954   -1.9685 H   0  0  0  0  0  0  0  0  0  0  0  0
    4.3253    5.1025   -0.2750 H   0  0  0  0  0  0  0  0  0  0  0  0
    6.2084    3.7593    0.4787 H   0  0  0  0  0  0  0  0  0  0  0  0
    6.7187    4.6805   -0.9750 H   0  0  0  0  0  0  0  0  0  0  0  0
    6.3542    2.9322   -1.1237 H   0  0  0  0  0  0  0  0  0  0  0  0
    5.3492    1.4601    0.9716 H   0  0  0  0  0  0  0  0  0  0  0  0
    2.0049    4.1084   -2.9642 H   0  0  0  0  0  0  0  0  0  0  0  0
   -0.4580    3.6151    1.3684 H   0  0  0  0  0  0  0  0  0  0  0  0
   -2.4793    5.2801    0.7779 H   0  0  0  0  0  0  0  0  0  0  0  0
   -2.2719    6.1815   -0.7519 H   0  0  0  0  0  0  0  0  0  0  0  0
   -4.5692    5.2737   -1.4906 H   0  0  0  0  0  0  0  0  0  0  0  0
   -4.5627    6.3943   -0.0922 H   0  0  0  0  0  0  0  0  0  0  0  0
   -4.7529    4.6412    0.2042 H   0  0  0  0  0  0  0  0  0  0  0  0
   -1.8508    1.8735   -0.4688 H   0  0  0  0  0  0  0  0  0  0  0  0
   -2.8384    2.7804    0.6944 H   0  0  0  0  0  0  0  0  0  0  0  0
   -4.2663    1.2284   -0.4192 H   0  0  0  0  0  0  0  0  0  0  0  0
   -4.6985    2.8058   -1.1482 H   0  0  0  0  0  0  0  0  0  0  0  0
   -3.6357    1.6411   -2.0413 H   0  0  0  0  0  0  0  0  0  0  0  0
   -4.1100    3.6694   -3.2601 H   0  0  0  0  0  0  0  0  0  0  0  0
   -2.5666    3.0268   -6.7286 H   0  0  0  0  0  0  0  0  0  0  0  0
   -9.8970    5.5480   -6.7325 H   0  0  0  0  0  0  0  0  0  0  0  0
   -9.7603    3.9533   -8.6251 H   0  0  0  0  0  0  0  0  0  0  0  0
   -7.6982    2.7046   -9.0585 H   0  0  0  0  0  0  0  0  0  0  0  0
  1  2  2  3
  2  3  1  0
  3  4  2  0
  3  5  1  0
  5  6  2  0
  6  7  1  0
  7  8  2  0
  8  9  1  0
  9 10  2  0
 10 11  1  0
 11 12  2  3
 12 13  1  0
 13 14  3  0
 12 15  1  0
 15 16  3  0
  8 17  1  0
 17 18  1  0
 18 19  1  0
 19 20  2  0
 20 21  1  0
 21 22  1  0
 21 23  1  0
  1 24  1  0
 24 25  1  0
 25 26  1  0
 26 27  1  0
 27 28  2  0
 28 29  1  0
 29 30  1  0
 30 31  1  0
 29 32  1  0
 32 33  1  0
 29 34  1  0
 34 35  1  0
 28 36  1  0
 36 37  2  0
 37 38  1  0
 38 39  2  0
 39 40  1  0
 40 41  1  0
 41 42  1  0
 40 43  1  0
 43 44  1  0
 40 45  1  0
 45 46  2  0
 39 47  1  0
 47 48  2  0
 48 49  1  0
 49 50  2  0
 50 51  1  0
 51 52  1  0
 52 53  2  0
 51 54  1  0
 54 55  1  0
 51 56  1  0
 56 57  1  0
 50 58  1  0
 58 59  2  0
 59 60  1  0
 59 61  1  0
 61 62  2  3
 62 63  1  0
 63 64  2  0
 63 65  1  0
 65 66  2  0
 66 67  1  0
 66 68  1  0
 68 69  2  0
 69 70  1  0
 70 71  2  0
 71 72  1  0
 72 73  2  3
 73 74  1  0
 74 75  3  0
 73 76  1  0
 76 77  3  0
 11  2  1  0
 23 17  1  0
 31 24  2  0
 45 37  1  0
 52 48  1  0
 72 62  1  0
 10  5  1  0
 22 18  1  0
 30 26  2  0
 53 38  1  0
 71 65  1  0
 23  7  1  0
 46 27  1  0
 60 49  1  0
  1 78  1  0
  6 79  1  0
  9 80  1  0
 17 81  1  0
 18 82  1  0
 19 83  1  0
 20 84  1  0
 21 85  1  0
 22 86  1  0
 22 87  1  0
 23 88  1  0
 31 89  1  0
 32 90  1  0
 32 91  1  0
 33 92  1  0
 33 93  1  0
 33 94  1  0
 34 95  1  0
 34 96  1  0
 35 97  1  0
 35 98  1  0
 35 99  1  0
 36100  1  0
 41101  1  0
 41102  1  0
 42103  1  0
 42104  1  0
 42105  1  0
 43106  1  0
 43107  1  0
 44108  1  0
 44109  1  0
 44110  1  0
 46111  1  0
 47112  1  0
 53113  1  0
 54114  1  0
 54115  1  0
 55116  1  0
 55117  1  0
 55118  1  0
 56119  1  0
 56120  1  0
 57121  1  0
 57122  1  0
 57123  1  0
 58124  1  0
 61125  1  0
 68126  1  0
 69127  1  0
 70128  1  0
M  END

