
     RDKit          3D

108122  0  0  0  0  0  0  0  0999 V2000
   -1.0632   -7.3719    1.0150 C   0  0  0  0  0  0  0  0  0  0  0  0
   -1.5235   -6.9946   -0.1942 C   0  0  0  0  0  0  0  0  0  0  0  0
   -1.3233   -5.6732   -0.8060 C   0  0  0  0  0  0  0  0  0  0  0  0
   -0.4396   -4.8289   -0.4964 O   0  0  0  0  0  0  0  0  0  0  0  0
   -2.3047   -5.4944   -1.8509 C   0  0  0  0  0  0  0  0  0  0  0  0
   -2.5564   -4.3142   -2.5894 C   0  0  0  0  0  0  0  0  0  0  0  0
   -3.6268   -4.4157   -3.4581 C   0  0  0  0  0  0  0  0  0  0  0  0
   -4.4134   -5.6040   -3.5965 C   0  0  0  0  0  0  0  0  0  0  0  0
   -4.1772   -6.7588   -2.8679 C   0  0  0  0  0  0  0  0  0  0  0  0
   -3.0640   -6.6859   -1.9824 C   0  0  0  0  0  0  0  0  0  0  0  0
   -2.5259   -7.7117   -1.0417 C   0  0  0  0  0  0  0  0  0  0  0  0
   -2.7257   -9.0523   -1.1001 C   0  0  0  0  0  0  0  0  0  0  0  0
   -1.9291   -9.9816   -0.3398 C   0  0  0  0  0  0  0  0  0  0  0  0
   -1.2856  -10.7312    0.2650 N   0  0  0  0  0  0  0  0  0  0  0  0
   -3.6452   -9.6625   -2.0223 C   0  0  0  0  0  0  0  0  0  0  0  0
   -4.3829  -10.1722   -2.7550 N   0  0  0  0  0  0  0  0  0  0  0  0
   -5.2796   -4.9300   -4.6165 C   0  0  0  0  0  0  0  0  0  0  0  0
   -5.0561   -5.3402   -6.0995 C   0  0  0  0  0  0  0  0  0  0  0  0
   -5.7359   -4.2786   -6.9280 C   0  0  0  0  0  0  0  0  0  0  0  0
   -5.0003   -3.1686   -6.7993 C   0  0  0  0  0  0  0  0  0  0  0  0
   -3.8518   -3.5188   -5.8847 C   0  0  0  0  0  0  0  0  0  0  0  0
   -3.6124   -4.9440   -6.3538 C   0  0  0  0  0  0  0  0  0  0  0  0
   -4.4764   -3.7123   -4.4717 C   0  0  0  0  0  0  0  0  0  0  0  0
   -0.2114   -6.5034    1.8402 C   0  0  0  0  0  0  0  0  0  0  0  0
    1.1775   -6.6373    1.9950 C   0  0  0  0  0  0  0  0  0  0  0  0
    2.0037   -7.7461    1.4056 C   0  0  0  0  0  0  0  0  0  0  0  0
    2.0011   -8.9627    2.3241 C   0  0  0  0  0  0  0  0  0  0  0  0
    1.7021   -5.5623    2.7151 C   0  0  0  0  0  0  0  0  0  0  0  0
    3.2899   -4.9878    2.9083 S   0  0  0  0  0  0  0  0  0  0  0  0
    2.7278   -3.5260    3.5667 C   0  0  0  0  0  0  0  0  0  0  0  0
    3.1931   -2.2410    3.5337 C   0  0  0  0  0  0  0  0  0  0  0  0
    4.4260   -1.7747    3.0556 C   0  0  0  0  0  0  0  0  0  0  0  0
    4.5533   -0.4036    2.7087 C   0  0  0  0  0  0  0  0  0  0  0  0
    5.7419   -0.0064    2.1909 N   0  0  0  0  0  0  0  0  0  0  0  0
    6.5553   -1.4486    2.2064 S   0  0  0  0  0  0  0  0  0  0  0  0
    5.5043   -2.5662    2.8270 N   0  0  0  0  0  0  0  0  0  0  0  0
    3.4608    0.4402    2.9070 C   0  0  0  0  0  0  0  0  0  0  0  0
    3.3017    1.7673    2.6415 C   0  0  0  0  0  0  0  0  0  0  0  0
    4.1270    3.0369    1.8661 S   0  0  0  0  0  0  0  0  0  0  0  0
    2.7866    4.0588    2.1273 C   0  0  0  0  0  0  0  0  0  0  0  0
    2.4289    5.3234    1.7038 C   0  0  0  0  0  0  0  0  0  0  0  0
    3.1117    6.4909    0.7165 S   0  0  0  0  0  0  0  0  0  0  0  0
    1.7125    7.4772    0.7326 C   0  0  0  0  0  0  0  0  0  0  0  0
    0.7123    6.8864    1.5277 C   0  0  0  0  0  0  0  0  0  0  0  0
   -0.6926    7.4026    1.6729 C   0  0  0  0  0  0  0  0  0  0  0  0
   -1.5579    6.9331    0.5089 C   0  0  0  0  0  0  0  0  0  0  0  0
    1.1451    5.6605    2.0319 C   0  0  0  0  0  0  0  0  0  0  0  0
    0.3622    4.3946    2.8593 S   0  0  0  0  0  0  0  0  0  0  0  0
    1.7564    3.4242    2.7869 C   0  0  0  0  0  0  0  0  0  0  0  0
    2.0657    2.1051    3.0655 C   0  0  0  0  0  0  0  0  0  0  0  0
    1.3834    1.0727    3.6127 N   0  0  0  0  0  0  0  0  0  0  0  0
    2.2348   -0.0002    3.4414 C   0  0  0  0  0  0  0  0  0  0  0  0
    2.0620   -1.4055    3.6632 C   0  0  0  0  0  0  0  0  0  0  0  0
    0.9175   -2.1740    3.6694 N   0  0  0  0  0  0  0  0  0  0  0  0
    1.3702   -3.4545    3.6024 C   0  0  0  0  0  0  0  0  0  0  0  0
    0.7832   -4.6222    3.1151 C   0  0  0  0  0  0  0  0  0  0  0  0
   -0.7444   -5.0604    2.5719 S   0  0  0  0  0  0  0  0  0  0  0  0
   -0.4724   -1.7824    3.4155 C   0  0  0  0  0  0  0  0  0  0  0  0
   -0.6521   -1.2647    1.9920 C   0  0  0  0  0  0  0  0  0  0  0  0
    0.2577    1.2673    4.5389 C   0  0  0  0  0  0  0  0  0  0  0  0
    0.5051    0.6097    5.8979 C   0  0  0  0  0  0  0  0  0  0  0  0
    1.5794    8.7611    0.0231 C   0  0  0  0  0  0  0  0  0  0  0  0
    1.8919    8.9263   -1.2685 C   0  0  0  0  0  0  0  0  0  0  0  0
    2.3708    7.5894   -2.3830 S   0  0  0  0  0  0  0  0  0  0  0  0
    2.2049    8.7450   -3.7455 C   0  0  0  0  0  0  0  0  0  0  0  0
    2.3728    8.3912   -4.9445 O   0  0  0  0  0  0  0  0  0  0  0  0
    1.8573   10.0804   -3.3876 N   0  0  0  0  0  0  0  0  0  0  0  0
    1.8248   11.2086   -4.3184 C   0  0  0  0  0  0  0  0  0  0  0  0
    3.2142   11.8130   -4.4613 C   0  0  0  0  0  0  0  0  0  0  0  0
    1.6998   10.1887   -1.9790 C   0  0  0  0  0  0  0  0  0  0  0  0
    1.4294   11.2801   -1.4085 O   0  0  0  0  0  0  0  0  0  0  0  0
   -1.3583   -8.3098    1.4564 H   0  0  0  0  0  0  0  0  0  0  0  0
   -1.9821   -3.4042   -2.4729 H   0  0  0  0  0  0  0  0  0  0  0  0
   -4.8270   -7.6101   -2.9696 H   0  0  0  0  0  0  0  0  0  0  0  0
   -6.3396   -4.8241   -4.2994 H   0  0  0  0  0  0  0  0  0  0  0  0
   -5.3218   -6.3869   -6.3513 H   0  0  0  0  0  0  0  0  0  0  0  0
   -6.5852   -4.4106   -7.5926 H   0  0  0  0  0  0  0  0  0  0  0  0
   -5.1595   -2.2370   -7.3318 H   0  0  0  0  0  0  0  0  0  0  0  0
   -2.9810   -2.8307   -5.9404 H   0  0  0  0  0  0  0  0  0  0  0  0
   -2.8657   -5.5057   -5.7475 H   0  0  0  0  0  0  0  0  0  0  0  0
   -3.3193   -5.0097   -7.4305 H   0  0  0  0  0  0  0  0  0  0  0  0
   -5.0298   -2.8368   -4.0607 H   0  0  0  0  0  0  0  0  0  0  0  0
    3.0473   -7.4061    1.2528 H   0  0  0  0  0  0  0  0  0  0  0  0
    1.6005   -8.0308    0.4101 H   0  0  0  0  0  0  0  0  0  0  0  0
    2.6472   -9.7555    1.8933 H   0  0  0  0  0  0  0  0  0  0  0  0
    0.9691   -9.3621    2.4290 H   0  0  0  0  0  0  0  0  0  0  0  0
    2.3970   -8.6896    3.3254 H   0  0  0  0  0  0  0  0  0  0  0  0
   -1.1343    7.0348    2.6247 H   0  0  0  0  0  0  0  0  0  0  0  0
   -0.6943    8.5136    1.7132 H   0  0  0  0  0  0  0  0  0  0  0  0
   -1.1684    7.3352   -0.4512 H   0  0  0  0  0  0  0  0  0  0  0  0
   -1.5675    5.8235    0.4590 H   0  0  0  0  0  0  0  0  0  0  0  0
   -2.6006    7.2904    0.6518 H   0  0  0  0  0  0  0  0  0  0  0  0
   -0.8271   -1.0764    4.1732 H   0  0  0  0  0  0  0  0  0  0  0  0
   -1.1475   -2.6421    3.5716 H   0  0  0  0  0  0  0  0  0  0  0  0
   -0.0761   -0.3309    1.8377 H   0  0  0  0  0  0  0  0  0  0  0  0
   -1.7272   -1.0542    1.8127 H   0  0  0  0  0  0  0  0  0  0  0  0
   -0.3066   -2.0264    1.2596 H   0  0  0  0  0  0  0  0  0  0  0  0
   -0.6954    0.9818    4.0682 H   0  0  0  0  0  0  0  0  0  0  0  0
    0.1357    2.3456    4.7541 H   0  0  0  0  0  0  0  0  0  0  0  0
    1.4074    1.0568    6.3701 H   0  0  0  0  0  0  0  0  0  0  0  0
    0.6538   -0.4844    5.8140 H   0  0  0  0  0  0  0  0  0  0  0  0
   -0.3702    0.7895    6.5601 H   0  0  0  0  0  0  0  0  0  0  0  0
    1.1536    9.5895    0.5705 H   0  0  0  0  0  0  0  0  0  0  0  0
    1.1194   11.9879   -3.9556 H   0  0  0  0  0  0  0  0  0  0  0  0
    1.4667   10.8629   -5.3133 H   0  0  0  0  0  0  0  0  0  0  0  0
    3.1870   12.6499   -5.1930 H   0  0  0  0  0  0  0  0  0  0  0  0
    3.5687   12.2038   -3.4812 H   0  0  0  0  0  0  0  0  0  0  0  0
    3.9238   11.0382   -4.8260 H   0  0  0  0  0  0  0  0  0  0  0  0
  1  2  2  3
  2  3  1  0
  3  4  2  0
  3  5  1  0
  5  6  2  0
  6  7  1  0
  7  8  2  0
  8  9  1  0
  9 10  2  0
 10 11  1  0
 11 12  2  3
 12 13  1  0
 13 14  3  0
 12 15  1  0
 15 16  3  0
  8 17  1  0
 17 18  1  0
 18 19  1  0
 19 20  2  0
 20 21  1  0
 21 22  1  0
 21 23  1  0
  1 24  1  0
 24 25  2  0
 25 26  1  0
 26 27  1  0
 25 28  1  0
 28 29  1  0
 29 30  1  0
 30 31  1  0
 31 32  1  0
 32 33  1  0
 33 34  2  0
 34 35  1  0
 35 36  1  0
 33 37  1  0
 37 38  1  0
 38 39  1  0
 39 40  1  0
 40 41  1  0
 41 42  1  0
 42 43  1  0
 43 44  2  0
 44 45  1  0
 45 46  1  0
 44 47  1  0
 47 48  1  0
 48 49  1  0
 49 50  1  0
 50 51  1  0
 51 52  1  0
 52 53  1  0
 53 54  1  0
 54 55  1  0
 55 56  1  0
 56 57  1  0
 54 58  1  0
 58 59  1  0
 51 60  1  0
 60 61  1  0
 43 62  1  0
 62 63  2  3
 63 64  1  0
 64 65  1  0
 65 66  2  0
 65 67  1  0
 67 68  1  0
 68 69  1  0
 67 70  1  0
 70 71  2  0
 11  2  1  0
 23 17  1  0
 57 24  1  0
 70 63  1  0
 10  5  1  0
 22 18  1  0
 56 28  2  0
 23  7  1  0
 55 30  2  0
 53 31  2  0
 36 32  2  0
 52 37  2  0
 50 38  2  0
 49 40  2  0
 47 41  2  0
  1 72  1  0
  6 73  1  0
  9 74  1  0
 17 75  1  0
 18 76  1  0
 19 77  1  0
 20 78  1  0
 21 79  1  0
 22 80  1  0
 22 81  1  0
 23 82  1  0
 26 83  1  0
 26 84  1  0
 27 85  1  0
 27 86  1  0
 27 87  1  0
 45 88  1  0
 45 89  1  0
 46 90  1  0
 46 91  1  0
 46 92  1  0
 58 93  1  0
 58 94  1  0
 59 95  1  0
 59 96  1  0
 59 97  1  0
 60 98  1  0
 60 99  1  0
 61100  1  0
 61101  1  0
 61102  1  0
 62103  1  0
 68104  1  0
 68105  1  0
 69106  1  0
 69107  1  0
 69108  1  0
M  END

