
     RDKit          3D

113129  0  0  0  0  0  0  0  0999 V2000
   -2.7181   -3.4097    4.6576 C   0  0  0  0  0  0  0  0  0  0  0  0
   -3.2776   -2.3403    4.0538 C   0  0  0  0  0  0  0  0  0  0  0  0
   -2.7004   -1.6020    2.9204 C   0  0  0  0  0  0  0  0  0  0  0  0
   -1.8407   -2.0300    2.1068 O   0  0  0  0  0  0  0  0  0  0  0  0
   -3.3204   -0.2989    2.8531 C   0  0  0  0  0  0  0  0  0  0  0  0
   -2.9261    0.7868    2.0381 C   0  0  0  0  0  0  0  0  0  0  0  0
   -3.6061    1.9609    2.3038 C   0  0  0  0  0  0  0  0  0  0  0  0
   -4.6155    2.0689    3.3135 C   0  0  0  0  0  0  0  0  0  0  0  0
   -5.0084    1.0068    4.1122 C   0  0  0  0  0  0  0  0  0  0  0  0
   -4.3342   -0.2183    3.8410 C   0  0  0  0  0  0  0  0  0  0  0  0
   -4.4396   -1.5333    4.5379 C   0  0  0  0  0  0  0  0  0  0  0  0
   -5.4894   -1.9728    5.2821 C   0  0  0  0  0  0  0  0  0  0  0  0
   -6.6382   -1.1509    5.5565 C   0  0  0  0  0  0  0  0  0  0  0  0
   -7.5713   -0.5033    5.7793 N   0  0  0  0  0  0  0  0  0  0  0  0
   -5.6023   -3.3366    5.7306 C   0  0  0  0  0  0  0  0  0  0  0  0
   -5.7031   -4.4321    6.0932 N   0  0  0  0  0  0  0  0  0  0  0  0
   -4.7877    3.5272    3.0086 C   0  0  0  0  0  0  0  0  0  0  0  0
   -6.0613    3.9269    2.2053 C   0  0  0  0  0  0  0  0  0  0  0  0
   -5.8076    5.3275    1.7034 C   0  0  0  0  0  0  0  0  0  0  0  0
   -4.8619    5.2277    0.7622 C   0  0  0  0  0  0  0  0  0  0  0  0
   -4.5088    3.7629    0.6614 C   0  0  0  0  0  0  0  0  0  0  0  0
   -5.8902    3.1758    0.8954 C   0  0  0  0  0  0  0  0  0  0  0  0
   -3.7517    3.4166    1.9765 C   0  0  0  0  0  0  0  0  0  0  0  0
   -1.4188   -3.9663    4.2542 C   0  0  0  0  0  0  0  0  0  0  0  0
   -1.2065   -5.2364    3.6944 C   0  0  0  0  0  0  0  0  0  0  0  0
   -2.2956   -6.2260    3.3881 C   0  0  0  0  0  0  0  0  0  0  0  0
   -2.9201   -5.9458    2.0250 C   0  0  0  0  0  0  0  0  0  0  0  0
    0.1208   -5.3747    3.2740 C   0  0  0  0  0  0  0  0  0  0  0  0
    0.8582   -6.4496    2.1867 S   0  0  0  0  0  0  0  0  0  0  0  0
    2.2598   -5.4931    2.1107 C   0  0  0  0  0  0  0  0  0  0  0  0
    3.1651   -5.2410    1.1184 C   0  0  0  0  0  0  0  0  0  0  0  0
    3.3115   -5.9025   -0.1062 C   0  0  0  0  0  0  0  0  0  0  0  0
    4.0114   -5.2546   -1.1574 C   0  0  0  0  0  0  0  0  0  0  0  0
    4.0692   -5.8955   -2.3503 N   0  0  0  0  0  0  0  0  0  0  0  0
    3.2073   -7.2585   -1.9771 S   0  0  0  0  0  0  0  0  0  0  0  0
    2.7491   -7.1030   -0.3948 N   0  0  0  0  0  0  0  0  0  0  0  0
    4.5754   -4.0041   -0.9127 C   0  0  0  0  0  0  0  0  0  0  0  0
    5.2002   -3.1403   -1.7635 C   0  0  0  0  0  0  0  0  0  0  0  0
    5.2095   -2.8822   -3.4416 S   0  0  0  0  0  0  0  0  0  0  0  0
    5.6625   -1.2578   -3.2060 C   0  0  0  0  0  0  0  0  0  0  0  0
    5.5501   -0.1389   -4.0084 C   0  0  0  0  0  0  0  0  0  0  0  0
    5.0762    0.1112   -5.5954 S   0  0  0  0  0  0  0  0  0  0  0  0
    4.8745    1.7896   -5.3825 C   0  0  0  0  0  0  0  0  0  0  0  0
    5.1330    2.1513   -4.0470 C   0  0  0  0  0  0  0  0  0  0  0  0
    4.9282    3.5283   -3.4769 C   0  0  0  0  0  0  0  0  0  0  0  0
    6.1067    4.4368   -3.8152 C   0  0  0  0  0  0  0  0  0  0  0  0
    5.5218    1.0363   -3.3040 C   0  0  0  0  0  0  0  0  0  0  0  0
    5.6273    0.7461   -1.6307 S   0  0  0  0  0  0  0  0  0  0  0  0
    5.7501   -0.9333   -1.8646 C   0  0  0  0  0  0  0  0  0  0  0  0
    5.4850   -2.0253   -1.0514 C   0  0  0  0  0  0  0  0  0  0  0  0
    5.0966   -2.1086    0.2423 N   0  0  0  0  0  0  0  0  0  0  0  0
    4.4684   -3.3350    0.3233 C   0  0  0  0  0  0  0  0  0  0  0  0
    3.6606   -3.9367    1.3478 C   0  0  0  0  0  0  0  0  0  0  0  0
    3.0016   -3.3809    2.4254 N   0  0  0  0  0  0  0  0  0  0  0  0
    2.1563   -4.3574    2.8500 C   0  0  0  0  0  0  0  0  0  0  0  0
    0.9319   -4.2927    3.5183 C   0  0  0  0  0  0  0  0  0  0  0  0
    0.0322   -3.0779    4.2449 S   0  0  0  0  0  0  0  0  0  0  0  0
    2.9021   -1.9846    2.8611 C   0  0  0  0  0  0  0  0  0  0  0  0
    2.1508   -1.1341    1.8387 C   0  0  0  0  0  0  0  0  0  0  0  0
    5.6870   -1.2544    1.2828 C   0  0  0  0  0  0  0  0  0  0  0  0
    6.4323   -2.0784    2.3364 C   0  0  0  0  0  0  0  0  0  0  0  0
    4.2918    2.6638   -6.4075 C   0  0  0  0  0  0  0  0  0  0  0  0
    2.9780    2.9563   -6.4433 C   0  0  0  0  0  0  0  0  0  0  0  0
    1.9467    2.3753   -5.5467 C   0  0  0  0  0  0  0  0  0  0  0  0
    2.1318    1.6251   -4.5515 O   0  0  0  0  0  0  0  0  0  0  0  0
    0.6645    2.8114   -6.0363 C   0  0  0  0  0  0  0  0  0  0  0  0
    0.8238    3.6099   -7.1276 C   0  0  0  0  0  0  0  0  0  0  0  0
   -0.6845    4.1627   -7.7038 S   0  0  0  0  0  0  0  0  0  0  0  0
   -1.5224    3.3133   -6.4948 C   0  0  0  0  0  0  0  0  0  0  0  0
   -2.8658    3.1765   -6.1659 C   0  0  0  0  0  0  0  0  0  0  0  0
   -3.0225    2.3533   -5.0421 C   0  0  0  0  0  0  0  0  0  0  0  0
   -1.4954    1.8223   -4.4854 S   0  0  0  0  0  0  0  0  0  0  0  0
   -0.6593    2.6405   -5.6825 C   0  0  0  0  0  0  0  0  0  0  0  0
    2.2478    3.8006   -7.4559 C   0  0  0  0  0  0  0  0  0  0  0  0
    2.7318    4.6330   -8.4065 C   0  0  0  0  0  0  0  0  0  0  0  0
    1.8473    5.3657   -9.2762 C   0  0  0  0  0  0  0  0  0  0  0  0
    1.1409    5.9590   -9.9750 N   0  0  0  0  0  0  0  0  0  0  0  0
    4.1356    4.8932   -8.5806 C   0  0  0  0  0  0  0  0  0  0  0  0
    5.2623    5.1131   -8.7287 N   0  0  0  0  0  0  0  0  0  0  0  0
   -3.1605   -3.8503    5.5333 H   0  0  0  0  0  0  0  0  0  0  0  0
   -2.1314    0.7255    1.3067 H   0  0  0  0  0  0  0  0  0  0  0  0
   -5.7270    1.1496    4.9026 H   0  0  0  0  0  0  0  0  0  0  0  0
   -4.5253    4.1931    3.8612 H   0  0  0  0  0  0  0  0  0  0  0  0
   -7.0282    3.7782    2.7293 H   0  0  0  0  0  0  0  0  0  0  0  0
   -6.3445    6.2311    1.9731 H   0  0  0  0  0  0  0  0  0  0  0  0
   -4.4986    6.0385    0.1391 H   0  0  0  0  0  0  0  0  0  0  0  0
   -4.0027    3.4619   -0.2796 H   0  0  0  0  0  0  0  0  0  0  0  0
   -6.6334    3.4710    0.1166 H   0  0  0  0  0  0  0  0  0  0  0  0
   -5.9028    2.0691    0.9999 H   0  0  0  0  0  0  0  0  0  0  0  0
   -2.8324    4.0143    2.1768 H   0  0  0  0  0  0  0  0  0  0  0  0
   -1.8808   -7.2556    3.3971 H   0  0  0  0  0  0  0  0  0  0  0  0
   -3.0810   -6.1750    4.1714 H   0  0  0  0  0  0  0  0  0  0  0  0
   -3.3302   -4.9147    1.9922 H   0  0  0  0  0  0  0  0  0  0  0  0
   -2.1619   -6.0651    1.2235 H   0  0  0  0  0  0  0  0  0  0  0  0
   -3.7481   -6.6619    1.8399 H   0  0  0  0  0  0  0  0  0  0  0  0
    3.9926    3.9695   -3.8874 H   0  0  0  0  0  0  0  0  0  0  0  0
    4.8126    3.4775   -2.3730 H   0  0  0  0  0  0  0  0  0  0  0  0
    6.2884    4.4504   -4.9097 H   0  0  0  0  0  0  0  0  0  0  0  0
    7.0209    4.0833   -3.2947 H   0  0  0  0  0  0  0  0  0  0  0  0
    5.8827    5.4702   -3.4808 H   0  0  0  0  0  0  0  0  0  0  0  0
    3.8837   -1.5860    3.1311 H   0  0  0  0  0  0  0  0  0  0  0  0
    2.3755   -1.9181    3.8313 H   0  0  0  0  0  0  0  0  0  0  0  0
    2.0778   -0.0897    2.2080 H   0  0  0  0  0  0  0  0  0  0  0  0
    2.6744   -1.1309    0.8615 H   0  0  0  0  0  0  0  0  0  0  0  0
    1.1271   -1.5364    1.6927 H   0  0  0  0  0  0  0  0  0  0  0  0
    6.4501   -0.5842    0.8276 H   0  0  0  0  0  0  0  0  0  0  0  0
    4.9429   -0.5512    1.6929 H   0  0  0  0  0  0  0  0  0  0  0  0
    6.8532   -1.3985    3.1068 H   0  0  0  0  0  0  0  0  0  0  0  0
    7.2622   -2.6353    1.8546 H   0  0  0  0  0  0  0  0  0  0  0  0
    5.7664   -2.8113    2.8339 H   0  0  0  0  0  0  0  0  0  0  0  0
    4.9665    3.0041   -7.1722 H   0  0  0  0  0  0  0  0  0  0  0  0
   -3.6807    3.6459   -6.7014 H   0  0  0  0  0  0  0  0  0  0  0  0
   -3.9726    2.0974   -4.5913 H   0  0  0  0  0  0  0  0  0  0  0  0
  1  2  2  3
  2  3  1  0
  3  4  2  0
  3  5  1  0
  5  6  2  0
  6  7  1  0
  7  8  2  0
  8  9  1  0
  9 10  2  0
 10 11  1  0
 11 12  2  3
 12 13  1  0
 13 14  3  0
 12 15  1  0
 15 16  3  0
  8 17  1  0
 17 18  1  0
 18 19  1  0
 19 20  2  0
 20 21  1  0
 21 22  1  0
 21 23  1  0
  1 24  1  0
 24 25  2  0
 25 26  1  0
 26 27  1  0
 25 28  1  0
 28 29  1  0
 29 30  1  0
 30 31  1  0
 31 32  1  0
 32 33  1  0
 33 34  2  0
 34 35  1  0
 35 36  1  0
 33 37  1  0
 37 38  1  0
 38 39  1  0
 39 40  1  0
 40 41  1  0
 41 42  1  0
 42 43  1  0
 43 44  2  0
 44 45  1  0
 45 46  1  0
 44 47  1  0
 47 48  1  0
 48 49  1  0
 49 50  1  0
 50 51  1  0
 51 52  1  0
 52 53  1  0
 53 54  1  0
 54 55  1  0
 55 56  1  0
 56 57  1  0
 54 58  1  0
 58 59  1  0
 51 60  1  0
 60 61  1  0
 43 62  1  0
 62 63  2  3
 63 64  1  0
 64 65  2  0
 64 66  1  0
 66 67  2  0
 67 68  1  0
 68 69  1  0
 69 70  1  0
 70 71  2  0
 71 72  1  0
 72 73  1  0
 67 74  1  0
 74 75  2  3
 75 76  1  0
 76 77  3  0
 75 78  1  0
 78 79  3  0
 11  2  1  0
 23 17  1  0
 57 24  1  0
 74 63  1  0
 10  5  1  0
 22 18  1  0
 56 28  2  0
 73 66  1  0
 23  7  1  0
 55 30  2  0
 73 69  2  0
 53 31  2  0
 36 32  2  0
 52 37  2  0
 50 38  2  0
 49 40  2  0
 47 41  2  0
  1 80  1  0
  6 81  1  0
  9 82  1  0
 17 83  1  0
 18 84  1  0
 19 85  1  0
 20 86  1  0
 21 87  1  0
 22 88  1  0
 22 89  1  0
 23 90  1  0
 26 91  1  0
 26 92  1  0
 27 93  1  0
 27 94  1  0
 27 95  1  0
 45 96  1  0
 45 97  1  0
 46 98  1  0
 46 99  1  0
 46100  1  0
 58101  1  0
 58102  1  0
 59103  1  0
 59104  1  0
 59105  1  0
 60106  1  0
 60107  1  0
 61108  1  0
 61109  1  0
 61110  1  0
 62111  1  0
 70112  1  0
 71113  1  0
M  END

