
     RDKit          3D

111124  0  0  0  0  0  0  0  0999 V2000
    7.2927   -4.1850   -3.0505 C   0  0  0  0  0  0  0  0  0  0  0  0
    6.6696   -4.4823   -4.2099 C   0  0  0  0  0  0  0  0  0  0  0  0
    5.4547   -5.3670   -4.1890 C   0  0  0  0  0  0  0  0  0  0  0  0
    5.5383   -6.4695   -4.7866 O   0  0  0  0  0  0  0  0  0  0  0  0
    4.3251   -4.4932   -4.4670 C   0  0  0  0  0  0  0  0  0  0  0  0
    2.9410   -4.7495   -4.2382 C   0  0  0  0  0  0  0  0  0  0  0  0
    2.1207   -3.8094   -4.8329 C   0  0  0  0  0  0  0  0  0  0  0  0
    2.6195   -2.6123   -5.4748 C   0  0  0  0  0  0  0  0  0  0  0  0
    3.9591   -2.3381   -5.6350 C   0  0  0  0  0  0  0  0  0  0  0  0
    4.8044   -3.3508   -5.1478 C   0  0  0  0  0  0  0  0  0  0  0  0
    6.2707   -3.3874   -5.1251 C   0  0  0  0  0  0  0  0  0  0  0  0
    7.0921   -2.7920   -6.0289 C   0  0  0  0  0  0  0  0  0  0  0  0
    8.5180   -2.7885   -5.8776 C   0  0  0  0  0  0  0  0  0  0  0  0
    9.6589   -2.7242   -5.7648 N   0  0  0  0  0  0  0  0  0  0  0  0
    6.5565   -2.3823   -7.2888 C   0  0  0  0  0  0  0  0  0  0  0  0
    6.0950   -2.1113   -8.3165 N   0  0  0  0  0  0  0  0  0  0  0  0
    1.2420   -2.1208   -5.7595 C   0  0  0  0  0  0  0  0  0  0  0  0
    0.7410   -0.9056   -4.9000 C   0  0  0  0  0  0  0  0  0  0  0  0
   -0.7442   -0.8257   -5.1427 C   0  0  0  0  0  0  0  0  0  0  0  0
   -1.2729   -1.9020   -4.5501 C   0  0  0  0  0  0  0  0  0  0  0  0
   -0.1164   -2.6628   -3.8997 C   0  0  0  0  0  0  0  0  0  0  0  0
    0.7302   -1.4591   -3.4891 C   0  0  0  0  0  0  0  0  0  0  0  0
    0.7054   -3.3140   -5.0733 C   0  0  0  0  0  0  0  0  0  0  0  0
    6.5563   -3.5519   -1.9284 C   0  0  0  0  0  0  0  0  0  0  0  0
    6.8995   -1.9597   -1.3628 S   0  0  0  0  0  0  0  0  0  0  0  0
    5.4877   -1.9097   -0.4689 C   0  0  0  0  0  0  0  0  0  0  0  0
    4.7473   -1.0658    0.3158 C   0  0  0  0  0  0  0  0  0  0  0  0
    4.8265    0.4914    0.9210 S   0  0  0  0  0  0  0  0  0  0  0  0
    3.2850    0.3338    1.6494 C   0  0  0  0  0  0  0  0  0  0  0  0
    2.5807    1.3923    2.3021 C   0  0  0  0  0  0  0  0  0  0  0  0
    3.2275    2.5637    2.6710 O   0  0  0  0  0  0  0  0  0  0  0  0
    4.2319    2.5622    3.6718 C   0  0  0  0  0  0  0  0  0  0  0  0
    3.6064    2.2631    5.0222 C   0  0  0  0  0  0  0  0  0  0  0  0
    1.2410    1.1843    2.6801 C   0  0  0  0  0  0  0  0  0  0  0  0
    0.6413   -0.0729    2.4579 C   0  0  0  0  0  0  0  0  0  0  0  0
    1.3163   -1.1201    1.7682 C   0  0  0  0  0  0  0  0  0  0  0  0
    0.5659   -2.2002    1.2872 O   0  0  0  0  0  0  0  0  0  0  0  0
    0.0277   -2.1692   -0.0291 C   0  0  0  0  0  0  0  0  0  0  0  0
   -1.0728   -1.1213   -0.1732 C   0  0  0  0  0  0  0  0  0  0  0  0
    2.6735   -0.9286    1.4033 C   0  0  0  0  0  0  0  0  0  0  0  0
    3.5920   -1.7420    0.6452 C   0  0  0  0  0  0  0  0  0  0  0  0
    3.5941   -3.0154    0.1161 N   0  0  0  0  0  0  0  0  0  0  0  0
    4.7651   -3.0377   -0.5780 C   0  0  0  0  0  0  0  0  0  0  0  0
    5.3485   -4.0293   -1.3745 C   0  0  0  0  0  0  0  0  0  0  0  0
    2.7709   -4.1808    0.4304 C   0  0  0  0  0  0  0  0  0  0  0  0
    2.0222   -4.6568   -0.8136 C   0  0  0  0  0  0  0  0  0  0  0  0
   -0.9918   -0.1368    2.9643 S   0  0  0  0  0  0  0  0  0  0  0  0
   -0.9153    1.4243    3.5357 C   0  0  0  0  0  0  0  0  0  0  0  0
   -1.8143    2.4052    3.8181 C   0  0  0  0  0  0  0  0  0  0  0  0
   -3.4461    2.6229    3.6415 S   0  0  0  0  0  0  0  0  0  0  0  0
   -3.3252    4.3417    3.7133 C   0  0  0  0  0  0  0  0  0  0  0  0
   -1.9719    4.7266    3.6943 C   0  0  0  0  0  0  0  0  0  0  0  0
   -1.1535    3.5774    3.7594 C   0  0  0  0  0  0  0  0  0  0  0  0
    0.1607    3.4276    3.4427 N   0  0  0  0  0  0  0  0  0  0  0  0
    1.0322    4.5128    3.0007 C   0  0  0  0  0  0  0  0  0  0  0  0
    0.9728    4.6659    1.4863 C   0  0  0  0  0  0  0  0  0  0  0  0
    0.2833    2.0583    3.2981 C   0  0  0  0  0  0  0  0  0  0  0  0
   -4.4513    5.2921    3.4950 C   0  0  0  0  0  0  0  0  0  0  0  0
   -5.7157    5.1071    3.9518 C   0  0  0  0  0  0  0  0  0  0  0  0
   -6.1561    4.0708    4.9190 C   0  0  0  0  0  0  0  0  0  0  0  0
   -5.4412    3.3357    5.6375 O   0  0  0  0  0  0  0  0  0  0  0  0
   -7.5905    4.0897    4.9897 C   0  0  0  0  0  0  0  0  0  0  0  0
   -8.4169    3.1840    5.6570 C   0  0  0  0  0  0  0  0  0  0  0  0
   -9.8003    3.3100    5.4745 C   0  0  0  0  0  0  0  0  0  0  0  0
  -10.3290    4.2928    4.6205 C   0  0  0  0  0  0  0  0  0  0  0  0
  -12.0675    4.3887    4.3500 Cl  0  0  0  0  0  0  0  0  0  0  0  0
   -9.4743    5.1872    3.9603 C   0  0  0  0  0  0  0  0  0  0  0  0
   -8.0857    5.0973    4.2011 C   0  0  0  0  0  0  0  0  0  0  0  0
   -6.9625    5.8698    3.5853 C   0  0  0  0  0  0  0  0  0  0  0  0
   -7.0724    7.0733    2.9558 C   0  0  0  0  0  0  0  0  0  0  0  0
   -6.0021    7.7453    2.2910 C   0  0  0  0  0  0  0  0  0  0  0  0
   -5.1495    8.3148    1.7338 N   0  0  0  0  0  0  0  0  0  0  0  0
   -8.3055    7.8067    2.9638 C   0  0  0  0  0  0  0  0  0  0  0  0
   -9.3178    8.3823    2.9594 N   0  0  0  0  0  0  0  0  0  0  0  0
    8.2692   -3.7340   -3.1824 H   0  0  0  0  0  0  0  0  0  0  0  0
    2.5670   -5.6173   -3.7097 H   0  0  0  0  0  0  0  0  0  0  0  0
    4.3302   -1.4558   -6.1523 H   0  0  0  0  0  0  0  0  0  0  0  0
    0.9980   -2.0727   -6.8581 H   0  0  0  0  0  0  0  0  0  0  0  0
    1.3120    0.0384   -5.0526 H   0  0  0  0  0  0  0  0  0  0  0  0
   -1.2915   -0.0011   -5.5757 H   0  0  0  0  0  0  0  0  0  0  0  0
   -2.3306   -2.1666   -4.5493 H   0  0  0  0  0  0  0  0  0  0  0  0
   -0.4393   -3.3430   -3.0763 H   0  0  0  0  0  0  0  0  0  0  0  0
    1.7328   -1.6740   -3.0698 H   0  0  0  0  0  0  0  0  0  0  0  0
    0.2578   -0.7973   -2.7435 H   0  0  0  0  0  0  0  0  0  0  0  0
    0.1225   -4.0200   -5.6937 H   0  0  0  0  0  0  0  0  0  0  0  0
    5.0073    1.8043    3.4544 H   0  0  0  0  0  0  0  0  0  0  0  0
    4.7036    3.5607    3.6870 H   0  0  0  0  0  0  0  0  0  0  0  0
    3.2305    1.2194    5.0580 H   0  0  0  0  0  0  0  0  0  0  0  0
    4.3646    2.3838    5.8130 H   0  0  0  0  0  0  0  0  0  0  0  0
    2.7420    2.9447    5.2264 H   0  0  0  0  0  0  0  0  0  0  0  0
   -0.3920   -3.1617   -0.2451 H   0  0  0  0  0  0  0  0  0  0  0  0
    0.8405   -1.9146   -0.7271 H   0  0  0  0  0  0  0  0  0  0  0  0
   -1.9023   -1.3004    0.5592 H   0  0  0  0  0  0  0  0  0  0  0  0
   -0.6734   -0.0852   -0.0465 H   0  0  0  0  0  0  0  0  0  0  0  0
   -1.4949   -1.1809   -1.1877 H   0  0  0  0  0  0  0  0  0  0  0  0
    4.9131   -5.0020   -1.5910 H   0  0  0  0  0  0  0  0  0  0  0  0
    3.4454   -4.9859    0.7676 H   0  0  0  0  0  0  0  0  0  0  0  0
    2.0942   -3.9663    1.2754 H   0  0  0  0  0  0  0  0  0  0  0  0
    1.7943   -3.8125   -1.5082 H   0  0  0  0  0  0  0  0  0  0  0  0
    2.6451   -5.3811   -1.3568 H   0  0  0  0  0  0  0  0  0  0  0  0
    1.0768   -5.1487   -0.5161 H   0  0  0  0  0  0  0  0  0  0  0  0
   -1.6273    5.7545    3.5646 H   0  0  0  0  0  0  0  0  0  0  0  0
    2.0499    4.3870    3.3950 H   0  0  0  0  0  0  0  0  0  0  0  0
    0.6786    5.4539    3.4534 H   0  0  0  0  0  0  0  0  0  0  0  0
   -0.0567    4.9532    1.1992 H   0  0  0  0  0  0  0  0  0  0  0  0
    1.2171    3.7088    0.9659 H   0  0  0  0  0  0  0  0  0  0  0  0
    1.6874    5.4528    1.1739 H   0  0  0  0  0  0  0  0  0  0  0  0
   -4.2298    6.1148    2.8248 H   0  0  0  0  0  0  0  0  0  0  0  0
   -8.0117    2.3956    6.2645 H   0  0  0  0  0  0  0  0  0  0  0  0
  -10.4743    2.6179    5.9723 H   0  0  0  0  0  0  0  0  0  0  0  0
   -9.8961    5.8792    3.2456 H   0  0  0  0  0  0  0  0  0  0  0  0
  1  2  2  3
  2  3  1  0
  3  4  2  0
  3  5  1  0
  5  6  2  0
  6  7  1  0
  7  8  2  0
  8  9  1  0
  9 10  2  0
 10 11  1  0
 11 12  2  3
 12 13  1  0
 13 14  3  0
 12 15  1  0
 15 16  3  0
  8 17  1  0
 17 18  1  0
 18 19  1  0
 19 20  2  0
 20 21  1  0
 21 22  1  0
 21 23  1  0
  1 24  1  0
 24 25  1  0
 25 26  1  0
 26 27  1  0
 27 28  1  0
 28 29  1  0
 29 30  2  0
 30 31  1  0
 31 32  1  0
 32 33  1  0
 30 34  1  0
 34 35  2  0
 35 36  1  0
 36 37  1  0
 37 38  1  0
 38 39  1  0
 36 40  2  0
 40 41  1  0
 41 42  1  0
 42 43  1  0
 43 44  1  0
 42 45  1  0
 45 46  1  0
 35 47  1  0
 47 48  1  0
 48 49  1  0
 49 50  1  0
 50 51  1  0
 51 52  2  0
 52 53  1  0
 53 54  1  0
 54 55  1  0
 55 56  1  0
 54 57  1  0
 51 58  1  0
 58 59  2  3
 59 60  1  0
 60 61  2  0
 60 62  1  0
 62 63  2  0
 63 64  1  0
 64 65  2  0
 65 66  1  0
 65 67  1  0
 67 68  2  0
 68 69  1  0
 69 70  2  3
 70 71  1  0
 71 72  3  0
 70 73  1  0
 73 74  3  0
 11  2  1  0
 23 17  1  0
 44 24  2  0
 57 48  2  0
 69 59  1  0
 10  5  1  0
 22 18  1  0
 43 26  2  0
 53 49  2  0
 68 62  1  0
 23  7  1  0
 41 27  2  0
 40 29  1  0
 57 34  1  0
  1 75  1  0
  6 76  1  0
  9 77  1  0
 17 78  1  0
 18 79  1  0
 19 80  1  0
 20 81  1  0
 21 82  1  0
 22 83  1  0
 22 84  1  0
 23 85  1  0
 32 86  1  0
 32 87  1  0
 33 88  1  0
 33 89  1  0
 33 90  1  0
 38 91  1  0
 38 92  1  0
 39 93  1  0
 39 94  1  0
 39 95  1  0
 44 96  1  0
 45 97  1  0
 45 98  1  0
 46 99  1  0
 46100  1  0
 46101  1  0
 52102  1  0
 55103  1  0
 55104  1  0
 56105  1  0
 56106  1  0
 56107  1  0
 58108  1  0
 63109  1  0
 64110  1  0
 67111  1  0
M  END

