
     RDKit          3D

111126  0  0  0  0  0  0  0  0999 V2000
   -5.6145   -6.1399   -0.4970 C   0  0  0  0  0  0  0  0  0  0  0  0
   -5.2915   -6.3069    0.8027 C   0  0  0  0  0  0  0  0  0  0  0  0
   -4.1833   -5.6187    1.4830 C   0  0  0  0  0  0  0  0  0  0  0  0
   -3.3912   -4.7853    0.9676 O   0  0  0  0  0  0  0  0  0  0  0  0
   -4.0287   -6.1694    2.8065 C   0  0  0  0  0  0  0  0  0  0  0  0
   -3.1010   -5.7502    3.7875 C   0  0  0  0  0  0  0  0  0  0  0  0
   -3.2083   -6.4272    4.9840 C   0  0  0  0  0  0  0  0  0  0  0  0
   -4.1711   -7.4591    5.2130 C   0  0  0  0  0  0  0  0  0  0  0  0
   -5.0815   -7.8749    4.2547 C   0  0  0  0  0  0  0  0  0  0  0  0
   -4.9783   -7.2051    2.9996 C   0  0  0  0  0  0  0  0  0  0  0  0
   -5.8067   -7.3458    1.7596 C   0  0  0  0  0  0  0  0  0  0  0  0
   -6.8633   -8.1838    1.5796 C   0  0  0  0  0  0  0  0  0  0  0  0
   -7.7697   -8.0698    0.4676 C   0  0  0  0  0  0  0  0  0  0  0  0
   -8.5110   -7.9874   -0.4197 N   0  0  0  0  0  0  0  0  0  0  0  0
   -7.1778   -9.2510    2.4920 C   0  0  0  0  0  0  0  0  0  0  0  0
   -7.4445  -10.1192    3.2104 N   0  0  0  0  0  0  0  0  0  0  0  0
   -3.6871   -7.6206    6.6255 C   0  0  0  0  0  0  0  0  0  0  0  0
   -4.5677   -7.0382    7.7732 C   0  0  0  0  0  0  0  0  0  0  0  0
   -5.3318   -5.8311    7.2797 C   0  0  0  0  0  0  0  0  0  0  0  0
   -4.4301   -4.8731    7.0613 C   0  0  0  0  0  0  0  0  0  0  0  0
   -3.0822   -5.4605    7.4142 C   0  0  0  0  0  0  0  0  0  0  0  0
   -3.4996   -6.3295    8.5860 C   0  0  0  0  0  0  0  0  0  0  0  0
   -2.6960   -6.5665    6.3860 C   0  0  0  0  0  0  0  0  0  0  0  0
   -5.1805   -4.9830   -1.2969 C   0  0  0  0  0  0  0  0  0  0  0  0
   -4.4372   -5.1061   -2.8298 S   0  0  0  0  0  0  0  0  0  0  0  0
   -4.2352   -3.4470   -2.9451 C   0  0  0  0  0  0  0  0  0  0  0  0
   -3.3924   -2.5899   -3.5776 C   0  0  0  0  0  0  0  0  0  0  0  0
   -2.1150   -2.7822   -4.6666 S   0  0  0  0  0  0  0  0  0  0  0  0
   -1.5696   -1.2315   -4.2587 C   0  0  0  0  0  0  0  0  0  0  0  0
   -0.4174   -0.5354   -4.4607 C   0  0  0  0  0  0  0  0  0  0  0  0
    0.7786   -0.9474   -5.0632 C   0  0  0  0  0  0  0  0  0  0  0  0
    1.9564   -0.1837   -4.8370 C   0  0  0  0  0  0  0  0  0  0  0  0
    3.1055   -0.6401   -5.3934 N   0  0  0  0  0  0  0  0  0  0  0  0
    2.5345   -2.0104   -6.1279 S   0  0  0  0  0  0  0  0  0  0  0  0
    0.9137   -2.0799   -5.7961 N   0  0  0  0  0  0  0  0  0  0  0  0
    1.8573    0.9831   -4.0787 C   0  0  0  0  0  0  0  0  0  0  0  0
    2.7859    1.9211   -3.7533 C   0  0  0  0  0  0  0  0  0  0  0  0
    4.4538    2.1934   -3.8916 S   0  0  0  0  0  0  0  0  0  0  0  0
    4.2869    3.6973   -3.0960 C   0  0  0  0  0  0  0  0  0  0  0  0
    5.2090    4.6194   -2.6011 C   0  0  0  0  0  0  0  0  0  0  0  0
    6.6980    4.4232   -2.6720 C   0  0  0  0  0  0  0  0  0  0  0  0
    7.1824    3.5696   -1.5056 C   0  0  0  0  0  0  0  0  0  0  0  0
    4.5550    5.6200   -1.8538 C   0  0  0  0  0  0  0  0  0  0  0  0
    2.8777    5.3171   -1.7985 S   0  0  0  0  0  0  0  0  0  0  0  0
    2.9808    3.9537   -2.7658 C   0  0  0  0  0  0  0  0  0  0  0  0
    2.1303    2.9264   -3.1360 C   0  0  0  0  0  0  0  0  0  0  0  0
    0.7918    2.7266   -3.0418 N   0  0  0  0  0  0  0  0  0  0  0  0
    0.6391    1.4526   -3.5522 C   0  0  0  0  0  0  0  0  0  0  0  0
   -0.5070    0.6041   -3.6481 C   0  0  0  0  0  0  0  0  0  0  0  0
   -1.6423    0.5403   -2.8693 N   0  0  0  0  0  0  0  0  0  0  0  0
   -2.2775   -0.6065   -3.2671 C   0  0  0  0  0  0  0  0  0  0  0  0
   -3.3483   -1.4301   -2.8254 C   0  0  0  0  0  0  0  0  0  0  0  0
   -4.1560   -1.5497   -1.7149 N   0  0  0  0  0  0  0  0  0  0  0  0
   -4.6697   -2.8055   -1.8366 C   0  0  0  0  0  0  0  0  0  0  0  0
   -5.2393   -3.6428   -0.8793 C   0  0  0  0  0  0  0  0  0  0  0  0
   -4.2600   -0.7663   -0.4819 C   0  0  0  0  0  0  0  0  0  0  0  0
   -3.1960   -1.1930    0.5312 C   0  0  0  0  0  0  0  0  0  0  0  0
   -1.9792    1.3879   -1.7321 C   0  0  0  0  0  0  0  0  0  0  0  0
   -3.1792    2.2793   -2.0632 C   0  0  0  0  0  0  0  0  0  0  0  0
   -0.1581    3.8521   -3.1253 C   0  0  0  0  0  0  0  0  0  0  0  0
   -0.7903    3.9462   -4.5138 C   0  0  0  0  0  0  0  0  0  0  0  0
    5.2099    6.6504   -1.0392 C   0  0  0  0  0  0  0  0  0  0  0  0
    5.9435    7.6497   -1.5583 C   0  0  0  0  0  0  0  0  0  0  0  0
    5.9798    8.0353   -2.9832 C   0  0  0  0  0  0  0  0  0  0  0  0
    5.5259    7.3800   -3.9597 O   0  0  0  0  0  0  0  0  0  0  0  0
    6.5540    9.3589   -3.0564 C   0  0  0  0  0  0  0  0  0  0  0  0
    6.7416   10.2555   -4.0930 C   0  0  0  0  0  0  0  0  0  0  0  0
    7.3702   11.6425   -3.3575 S   0  0  0  0  0  0  0  0  0  0  0  0
    7.3965   11.0909   -1.7549 C   0  0  0  0  0  0  0  0  0  0  0  0
    6.8991    9.7936   -1.7986 C   0  0  0  0  0  0  0  0  0  0  0  0
    6.6210    8.7465   -0.7925 C   0  0  0  0  0  0  0  0  0  0  0  0
    7.0717    8.7173    0.4848 C   0  0  0  0  0  0  0  0  0  0  0  0
    6.9950    7.5310    1.2985 C   0  0  0  0  0  0  0  0  0  0  0  0
    6.9416    6.5795    1.9561 N   0  0  0  0  0  0  0  0  0  0  0  0
    7.7686    9.8338    1.0709 C   0  0  0  0  0  0  0  0  0  0  0  0
    8.3297   10.7248    1.5543 N   0  0  0  0  0  0  0  0  0  0  0  0
   -6.1920   -6.8794   -1.0234 H   0  0  0  0  0  0  0  0  0  0  0  0
   -2.3861   -4.9539    3.6269 H   0  0  0  0  0  0  0  0  0  0  0  0
   -5.8034   -8.6291    4.4988 H   0  0  0  0  0  0  0  0  0  0  0  0
   -3.2369   -8.6154    6.8387 H   0  0  0  0  0  0  0  0  0  0  0  0
   -5.1754   -7.7817    8.3306 H   0  0  0  0  0  0  0  0  0  0  0  0
   -6.4080   -5.7224    7.1943 H   0  0  0  0  0  0  0  0  0  0  0  0
   -4.6445   -3.8508    6.7671 H   0  0  0  0  0  0  0  0  0  0  0  0
   -2.2876   -4.7163    7.6304 H   0  0  0  0  0  0  0  0  0  0  0  0
   -2.6896   -7.0071    8.9479 H   0  0  0  0  0  0  0  0  0  0  0  0
   -3.9082   -5.7464    9.4469 H   0  0  0  0  0  0  0  0  0  0  0  0
   -1.6424   -6.9186    6.4475 H   0  0  0  0  0  0  0  0  0  0  0  0
    6.9653    3.9235   -3.6286 H   0  0  0  0  0  0  0  0  0  0  0  0
    7.2217    5.4008   -2.6503 H   0  0  0  0  0  0  0  0  0  0  0  0
    8.2698    3.3798   -1.6105 H   0  0  0  0  0  0  0  0  0  0  0  0
    7.0039    4.0972   -0.5420 H   0  0  0  0  0  0  0  0  0  0  0  0
    6.6520    2.5941   -1.4951 H   0  0  0  0  0  0  0  0  0  0  0  0
   -5.5902   -3.3218    0.0926 H   0  0  0  0  0  0  0  0  0  0  0  0
   -5.2596   -0.9303   -0.0245 H   0  0  0  0  0  0  0  0  0  0  0  0
   -4.2426    0.3103   -0.6884 H   0  0  0  0  0  0  0  0  0  0  0  0
   -3.0999   -0.4192    1.3216 H   0  0  0  0  0  0  0  0  0  0  0  0
   -3.4905   -2.1477    1.0115 H   0  0  0  0  0  0  0  0  0  0  0  0
   -2.2112   -1.3389    0.0393 H   0  0  0  0  0  0  0  0  0  0  0  0
   -2.1636    0.7686   -0.8486 H   0  0  0  0  0  0  0  0  0  0  0  0
   -1.1048    1.9706   -1.4030 H   0  0  0  0  0  0  0  0  0  0  0  0
   -2.9378    2.9980   -2.8635 H   0  0  0  0  0  0  0  0  0  0  0  0
   -4.0311    1.6710   -2.4311 H   0  0  0  0  0  0  0  0  0  0  0  0
   -3.4886    2.8363   -1.1557 H   0  0  0  0  0  0  0  0  0  0  0  0
   -0.9228    3.8215   -2.3389 H   0  0  0  0  0  0  0  0  0  0  0  0
    0.3680    4.8121   -2.9442 H   0  0  0  0  0  0  0  0  0  0  0  0
    0.0027    4.0499   -5.2861 H   0  0  0  0  0  0  0  0  0  0  0  0
   -1.3951    3.0428   -4.7328 H   0  0  0  0  0  0  0  0  0  0  0  0
   -1.4547    4.8336   -4.5632 H   0  0  0  0  0  0  0  0  0  0  0  0
    5.0022    6.6206    0.0184 H   0  0  0  0  0  0  0  0  0  0  0  0
    6.5128   10.1066   -5.1407 H   0  0  0  0  0  0  0  0  0  0  0  0
    7.7039   11.6582   -0.8894 H   0  0  0  0  0  0  0  0  0  0  0  0
  1  2  2  3
  2  3  1  0
  3  4  2  0
  3  5  1  0
  5  6  2  0
  6  7  1  0
  7  8  2  0
  8  9  1  0
  9 10  2  0
 10 11  1  0
 11 12  2  3
 12 13  1  0
 13 14  3  0
 12 15  1  0
 15 16  3  0
  8 17  1  0
 17 18  1  0
 18 19  1  0
 19 20  2  0
 20 21  1  0
 21 22  1  0
 21 23  1  0
  1 24  1  0
 24 25  1  0
 25 26  1  0
 26 27  1  0
 27 28  1  0
 28 29  1  0
 29 30  1  0
 30 31  1  0
 31 32  1  0
 32 33  2  0
 33 34  1  0
 34 35  1  0
 32 36  1  0
 36 37  1  0
 37 38  1  0
 38 39  1  0
 39 40  1  0
 40 41  1  0
 41 42  1  0
 40 43  2  0
 43 44  1  0
 44 45  1  0
 45 46  1  0
 46 47  1  0
 47 48  1  0
 48 49  1  0
 49 50  1  0
 50 51  1  0
 51 52  1  0
 52 53  1  0
 53 54  1  0
 54 55  1  0
 53 56  1  0
 56 57  1  0
 50 58  1  0
 58 59  1  0
 47 60  1  0
 60 61  1  0
 43 62  1  0
 62 63  2  3
 63 64  1  0
 64 65  2  0
 64 66  1  0
 66 67  2  0
 67 68  1  0
 68 69  1  0
 69 70  2  0
 70 71  1  0
 71 72  2  3
 72 73  1  0
 73 74  3  0
 72 75  1  0
 75 76  3  0
 11  2  1  0
 23 17  1  0
 55 24  2  0
 71 63  1  0
 10  5  1  0
 22 18  1  0
 54 26  2  0
 70 66  1  0
 23  7  1  0
 52 27  2  0
 51 29  2  0
 49 30  2  0
 35 31  2  0
 48 36  2  0
 46 37  2  0
 45 39  2  0
  1 77  1  0
  6 78  1  0
  9 79  1  0
 17 80  1  0
 18 81  1  0
 19 82  1  0
 20 83  1  0
 21 84  1  0
 22 85  1  0
 22 86  1  0
 23 87  1  0
 41 88  1  0
 41 89  1  0
 42 90  1  0
 42 91  1  0
 42 92  1  0
 55 93  1  0
 56 94  1  0
 56 95  1  0
 57 96  1  0
 57 97  1  0
 57 98  1  0
 58 99  1  0
 58100  1  0
 59101  1  0
 59102  1  0
 59103  1  0
 60104  1  0
 60105  1  0
 61106  1  0
 61107  1  0
 61108  1  0
 62109  1  0
 67110  1  0
 69111  1  0
M  END

