
     RDKit          3D

117133  0  0  0  0  0  0  0  0999 V2000
   -2.4608    1.8012   -6.6774 C   0  0  0  0  0  0  0  0  0  0  0  0
   -1.4999    0.8598   -6.7505 C   0  0  0  0  0  0  0  0  0  0  0  0
   -0.4814    0.6165   -5.7198 C   0  0  0  0  0  0  0  0  0  0  0  0
   -0.0430    1.4648   -4.8960 O   0  0  0  0  0  0  0  0  0  0  0  0
   -0.0629   -0.7613   -5.7907 C   0  0  0  0  0  0  0  0  0  0  0  0
    0.7701   -1.4442   -4.8746 C   0  0  0  0  0  0  0  0  0  0  0  0
    0.8511   -2.8062   -5.0947 C   0  0  0  0  0  0  0  0  0  0  0  0
    0.1400   -3.4719   -6.1469 C   0  0  0  0  0  0  0  0  0  0  0  0
   -0.6663   -2.8065   -7.0566 C   0  0  0  0  0  0  0  0  0  0  0  0
   -0.7459   -1.3967   -6.8628 C   0  0  0  0  0  0  0  0  0  0  0  0
   -1.5612   -0.3780   -7.5869 C   0  0  0  0  0  0  0  0  0  0  0  0
   -2.1444   -0.5062   -8.8089 C   0  0  0  0  0  0  0  0  0  0  0  0
   -2.7029    0.6177   -9.5136 C   0  0  0  0  0  0  0  0  0  0  0  0
   -3.1491    1.5217  -10.0838 N   0  0  0  0  0  0  0  0  0  0  0  0
   -2.1734   -1.7515   -9.5281 C   0  0  0  0  0  0  0  0  0  0  0  0
   -2.2161   -2.7570  -10.1098 N   0  0  0  0  0  0  0  0  0  0  0  0
    0.6617   -4.7989   -5.6870 C   0  0  0  0  0  0  0  0  0  0  0  0
    1.7863   -5.4447   -6.5487 C   0  0  0  0  0  0  0  0  0  0  0  0
    2.3955   -6.5237   -5.6867 C   0  0  0  0  0  0  0  0  0  0  0  0
    3.0698   -5.8962   -4.7132 C   0  0  0  0  0  0  0  0  0  0  0  0
    2.8898   -4.4152   -4.9503 C   0  0  0  0  0  0  0  0  0  0  0  0
    2.9098   -4.4210   -6.4726 C   0  0  0  0  0  0  0  0  0  0  0  0
    1.3989   -4.1155   -4.6161 C   0  0  0  0  0  0  0  0  0  0  0  0
   -2.6473    2.6254   -5.4790 C   0  0  0  0  0  0  0  0  0  0  0  0
   -1.7774    4.0451   -5.1031 S   0  0  0  0  0  0  0  0  0  0  0  0
   -2.3820    4.0867   -3.5328 C   0  0  0  0  0  0  0  0  0  0  0  0
   -1.9274    4.5377   -2.3334 C   0  0  0  0  0  0  0  0  0  0  0  0
   -0.5481    5.3850   -1.8446 S   0  0  0  0  0  0  0  0  0  0  0  0
   -0.7785    4.8072   -0.2689 C   0  0  0  0  0  0  0  0  0  0  0  0
   -0.0689    4.8222    0.8887 C   0  0  0  0  0  0  0  0  0  0  0  0
    1.2359    5.2638    1.1352 C   0  0  0  0  0  0  0  0  0  0  0  0
    1.8559    4.9061    2.3640 C   0  0  0  0  0  0  0  0  0  0  0  0
    3.1477    5.2783    2.5372 N   0  0  0  0  0  0  0  0  0  0  0  0
    3.4122    6.0392    1.0917 S   0  0  0  0  0  0  0  0  0  0  0  0
    2.0007    5.9337    0.2360 N   0  0  0  0  0  0  0  0  0  0  0  0
    1.1090    4.1954    3.3047 C   0  0  0  0  0  0  0  0  0  0  0  0
    1.4454    3.6845    4.5175 C   0  0  0  0  0  0  0  0  0  0  0  0
    2.8790    3.2275    5.3045 S   0  0  0  0  0  0  0  0  0  0  0  0
    2.0080    2.1969    6.3445 C   0  0  0  0  0  0  0  0  0  0  0  0
    2.4299    1.1040    7.1053 C   0  0  0  0  0  0  0  0  0  0  0  0
    3.8659    0.8189    7.4446 C   0  0  0  0  0  0  0  0  0  0  0  0
    4.1943    1.3292    8.8453 C   0  0  0  0  0  0  0  0  0  0  0  0
    1.3524    0.2539    7.4087 C   0  0  0  0  0  0  0  0  0  0  0  0
   -0.0811    0.8611    6.7157 S   0  0  0  0  0  0  0  0  0  0  0  0
    0.6588    2.2172    6.0603 C   0  0  0  0  0  0  0  0  0  0  0  0
    0.3448    3.0711    5.0099 C   0  0  0  0  0  0  0  0  0  0  0  0
   -0.7342    3.1581    4.1902 N   0  0  0  0  0  0  0  0  0  0  0  0
   -0.2220    3.8011    3.0856 C   0  0  0  0  0  0  0  0  0  0  0  0
   -0.7898    4.0289    1.7925 C   0  0  0  0  0  0  0  0  0  0  0  0
   -1.8606    3.4368    1.1544 N   0  0  0  0  0  0  0  0  0  0  0  0
   -1.8129    3.9317   -0.1214 C   0  0  0  0  0  0  0  0  0  0  0  0
   -2.4718    3.7214   -1.3575 C   0  0  0  0  0  0  0  0  0  0  0  0
   -3.2289    2.7252   -1.9308 N   0  0  0  0  0  0  0  0  0  0  0  0
   -3.1531    3.0033   -3.2644 C   0  0  0  0  0  0  0  0  0  0  0  0
   -3.3373    2.1568   -4.3562 C   0  0  0  0  0  0  0  0  0  0  0  0
   -3.6111    1.4015   -1.4329 C   0  0  0  0  0  0  0  0  0  0  0  0
   -2.4108    0.4571   -1.4334 C   0  0  0  0  0  0  0  0  0  0  0  0
   -2.7486    2.3971    1.6690 C   0  0  0  0  0  0  0  0  0  0  0  0
   -4.1958    2.8895    1.7447 C   0  0  0  0  0  0  0  0  0  0  0  0
   -2.0698    3.4413    4.7406 C   0  0  0  0  0  0  0  0  0  0  0  0
   -2.7643    2.1890    5.2789 C   0  0  0  0  0  0  0  0  0  0  0  0
    1.4970   -1.1321    7.8730 C   0  0  0  0  0  0  0  0  0  0  0  0
    1.6126   -2.1703    7.0104 C   0  0  0  0  0  0  0  0  0  0  0  0
    1.5883   -2.0482    5.5401 C   0  0  0  0  0  0  0  0  0  0  0  0
    1.4378   -0.9947    4.8710 O   0  0  0  0  0  0  0  0  0  0  0  0
    1.7555   -3.3522    4.9588 C   0  0  0  0  0  0  0  0  0  0  0  0
    1.6820   -3.6860    3.5989 C   0  0  0  0  0  0  0  0  0  0  0  0
    1.7550   -5.0422    3.2666 C   0  0  0  0  0  0  0  0  0  0  0  0
    1.6715   -5.5812    1.9752 C   0  0  0  0  0  0  0  0  0  0  0  0
    1.7271   -6.9726    1.9778 C   0  0  0  0  0  0  0  0  0  0  0  0
    1.6262   -8.0862    0.4185 Br  0  0  0  0  0  0  0  0  0  0  0  0
    1.8744   -7.5386    3.5611 S   0  0  0  0  0  0  0  0  0  0  0  0
    1.8759   -6.0055    4.2634 C   0  0  0  0  0  0  0  0  0  0  0  0
    1.9237   -5.6753    5.6255 C   0  0  0  0  0  0  0  0  0  0  0  0
    1.8928   -4.3017    5.9682 C   0  0  0  0  0  0  0  0  0  0  0  0
    1.8509   -3.6252    7.3066 C   0  0  0  0  0  0  0  0  0  0  0  0
    2.0213   -4.2194    8.5172 C   0  0  0  0  0  0  0  0  0  0  0  0
    1.8542   -3.5416    9.7754 C   0  0  0  0  0  0  0  0  0  0  0  0
    1.7262   -3.0102   10.7963 N   0  0  0  0  0  0  0  0  0  0  0  0
    2.4496   -5.5903    8.6462 C   0  0  0  0  0  0  0  0  0  0  0  0
    2.7991   -6.6851    8.7720 N   0  0  0  0  0  0  0  0  0  0  0  0
   -3.3070    1.7685   -7.3454 H   0  0  0  0  0  0  0  0  0  0  0  0
    1.2655   -0.9553   -4.0456 H   0  0  0  0  0  0  0  0  0  0  0  0
   -1.2125   -3.3544   -7.8023 H   0  0  0  0  0  0  0  0  0  0  0  0
   -0.1368   -5.4930   -5.3400 H   0  0  0  0  0  0  0  0  0  0  0  0
    1.4905   -5.7608   -7.5695 H   0  0  0  0  0  0  0  0  0  0  0  0
    2.3912   -7.5902   -5.8729 H   0  0  0  0  0  0  0  0  0  0  0  0
    3.7012   -6.3692   -3.9713 H   0  0  0  0  0  0  0  0  0  0  0  0
    3.6377   -3.7626   -4.4554 H   0  0  0  0  0  0  0  0  0  0  0  0
    2.6664   -3.4359   -6.9322 H   0  0  0  0  0  0  0  0  0  0  0  0
    3.8745   -4.7944   -6.8980 H   0  0  0  0  0  0  0  0  0  0  0  0
    1.0687   -4.3856   -3.5865 H   0  0  0  0  0  0  0  0  0  0  0  0
    4.5417    1.3070    6.7105 H   0  0  0  0  0  0  0  0  0  0  0  0
    4.0606   -0.2727    7.3936 H   0  0  0  0  0  0  0  0  0  0  0  0
    4.0288    2.4285    8.9056 H   0  0  0  0  0  0  0  0  0  0  0  0
    3.5586    0.8158    9.6000 H   0  0  0  0  0  0  0  0  0  0  0  0
    5.2591    1.1232    9.0764 H   0  0  0  0  0  0  0  0  0  0  0  0
   -3.8278    1.1899   -4.3154 H   0  0  0  0  0  0  0  0  0  0  0  0
   -4.1083    1.4650   -0.4602 H   0  0  0  0  0  0  0  0  0  0  0  0
   -4.3944    0.9683   -2.0914 H   0  0  0  0  0  0  0  0  0  0  0  0
   -1.5755    0.8786   -0.8423 H   0  0  0  0  0  0  0  0  0  0  0  0
   -2.0541    0.2938   -2.4726 H   0  0  0  0  0  0  0  0  0  0  0  0
   -2.7035   -0.5216   -1.0000 H   0  0  0  0  0  0  0  0  0  0  0  0
   -2.4167    2.0340    2.6467 H   0  0  0  0  0  0  0  0  0  0  0  0
   -2.6497    1.4855    1.0642 H   0  0  0  0  0  0  0  0  0  0  0  0
   -4.3178    3.6657    2.5252 H   0  0  0  0  0  0  0  0  0  0  0  0
   -4.8634    2.0398    1.9909 H   0  0  0  0  0  0  0  0  0  0  0  0
   -4.5129    3.3335    0.7792 H   0  0  0  0  0  0  0  0  0  0  0  0
   -2.7024    3.9328    3.9808 H   0  0  0  0  0  0  0  0  0  0  0  0
   -1.9849    4.1846    5.5634 H   0  0  0  0  0  0  0  0  0  0  0  0
   -2.6179    2.1139    6.3772 H   0  0  0  0  0  0  0  0  0  0  0  0
   -3.8584    2.2519    5.0877 H   0  0  0  0  0  0  0  0  0  0  0  0
   -2.3781    1.2643    4.7977 H   0  0  0  0  0  0  0  0  0  0  0  0
    1.5879   -1.2519    8.9346 H   0  0  0  0  0  0  0  0  0  0  0  0
    1.5297   -2.9309    2.8394 H   0  0  0  0  0  0  0  0  0  0  0  0
    1.5458   -4.9917    1.0784 H   0  0  0  0  0  0  0  0  0  0  0  0
    1.9357   -6.4705    6.3501 H   0  0  0  0  0  0  0  0  0  0  0  0
  1  2  2  3
  2  3  1  0
  3  4  2  0
  3  5  1  0
  5  6  2  0
  6  7  1  0
  7  8  2  0
  8  9  1  0
  9 10  2  0
 10 11  1  0
 11 12  2  3
 12 13  1  0
 13 14  3  0
 12 15  1  0
 15 16  3  0
  8 17  1  0
 17 18  1  0
 18 19  1  0
 19 20  2  0
 20 21  1  0
 21 22  1  0
 21 23  1  0
  1 24  1  0
 24 25  1  0
 25 26  1  0
 26 27  1  0
 27 28  1  0
 28 29  1  0
 29 30  1  0
 30 31  1  0
 31 32  1  0
 32 33  2  0
 33 34  1  0
 34 35  1  0
 32 36  1  0
 36 37  1  0
 37 38  1  0
 38 39  1  0
 39 40  1  0
 40 41  1  0
 41 42  1  0
 40 43  2  0
 43 44  1  0
 44 45  1  0
 45 46  1  0
 46 47  1  0
 47 48  1  0
 48 49  1  0
 49 50  1  0
 50 51  1  0
 51 52  1  0
 52 53  1  0
 53 54  1  0
 54 55  1  0
 53 56  1  0
 56 57  1  0
 50 58  1  0
 58 59  1  0
 47 60  1  0
 60 61  1  0
 43 62  1  0
 62 63  2  3
 63 64  1  0
 64 65  2  0
 64 66  1  0
 66 67  2  0
 67 68  1  0
 68 69  1  0
 69 70  2  0
 70 71  1  0
 70 72  1  0
 72 73  1  0
 73 74  1  0
 74 75  2  0
 75 76  1  0
 76 77  2  3
 77 78  1  0
 78 79  3  0
 77 80  1  0
 80 81  3  0
 11  2  1  0
 23 17  1  0
 55 24  2  0
 76 63  1  0
 10  5  1  0
 22 18  1  0
 54 26  2  0
 75 66  1  0
 23  7  1  0
 52 27  2  0
 73 68  2  0
 51 29  2  0
 49 30  2  0
 35 31  2  0
 48 36  2  0
 46 37  2  0
 45 39  2  0
  1 82  1  0
  6 83  1  0
  9 84  1  0
 17 85  1  0
 18 86  1  0
 19 87  1  0
 20 88  1  0
 21 89  1  0
 22 90  1  0
 22 91  1  0
 23 92  1  0
 41 93  1  0
 41 94  1  0
 42 95  1  0
 42 96  1  0
 42 97  1  0
 55 98  1  0
 56 99  1  0
 56100  1  0
 57101  1  0
 57102  1  0
 57103  1  0
 58104  1  0
 58105  1  0
 59106  1  0
 59107  1  0
 59108  1  0
 60109  1  0
 60110  1  0
 61111  1  0
 61112  1  0
 61113  1  0
 62114  1  0
 67115  1  0
 69116  1  0
 74117  1  0
M  END

