
     RDKit          3D

113128  0  0  0  0  0  0  0  0999 V2000
   -0.5717   -2.1889   -7.3008 C   0  0  0  0  0  0  0  0  0  0  0  0
    0.0707   -2.9479   -6.3856 C   0  0  0  0  0  0  0  0  0  0  0  0
    0.7042   -2.4021   -5.1812 C   0  0  0  0  0  0  0  0  0  0  0  0
    0.9383   -1.1863   -4.9494 O   0  0  0  0  0  0  0  0  0  0  0  0
    1.0419   -3.4839   -4.2948 C   0  0  0  0  0  0  0  0  0  0  0  0
    1.3843   -3.3511   -2.9304 C   0  0  0  0  0  0  0  0  0  0  0  0
    1.3657   -4.5427   -2.2330 C   0  0  0  0  0  0  0  0  0  0  0  0
    1.0640   -5.8016   -2.8412 C   0  0  0  0  0  0  0  0  0  0  0  0
    0.7474   -5.9410   -4.1795 C   0  0  0  0  0  0  0  0  0  0  0  0
    0.7347   -4.7229   -4.9280 C   0  0  0  0  0  0  0  0  0  0  0  0
    0.1487   -4.4451   -6.2873 C   0  0  0  0  0  0  0  0  0  0  0  0
   -0.4469   -5.3590   -7.0803 C   0  0  0  0  0  0  0  0  0  0  0  0
   -0.1763   -6.7717   -6.9887 C   0  0  0  0  0  0  0  0  0  0  0  0
    0.0169   -7.9079   -6.9301 N   0  0  0  0  0  0  0  0  0  0  0  0
   -1.4520   -5.0085   -8.0492 C   0  0  0  0  0  0  0  0  0  0  0  0
   -2.2806   -4.7201   -8.8041 N   0  0  0  0  0  0  0  0  0  0  0  0
    1.1538   -6.4918   -1.5066 C   0  0  0  0  0  0  0  0  0  0  0  0
    2.4288   -7.3355   -1.2151 C   0  0  0  0  0  0  0  0  0  0  0  0
    2.4419   -7.5591    0.2791 C   0  0  0  0  0  0  0  0  0  0  0  0
    2.7137   -6.3718    0.8354 C   0  0  0  0  0  0  0  0  0  0  0  0
    2.8712   -5.3818   -0.2994 C   0  0  0  0  0  0  0  0  0  0  0  0
    3.5461   -6.3029   -1.3065 C   0  0  0  0  0  0  0  0  0  0  0  0
    1.4484   -5.1936   -0.8894 C   0  0  0  0  0  0  0  0  0  0  0  0
   -1.2026   -0.9212   -6.8920 C   0  0  0  0  0  0  0  0  0  0  0  0
   -0.8018    0.3845   -7.2350 C   0  0  0  0  0  0  0  0  0  0  0  0
    0.2445    0.7182   -8.2576 C   0  0  0  0  0  0  0  0  0  0  0  0
    1.6446    0.6689   -7.6543 C   0  0  0  0  0  0  0  0  0  0  0  0
   -1.3570    1.3235   -6.3544 C   0  0  0  0  0  0  0  0  0  0  0  0
   -0.9688    2.9429   -5.9944 S   0  0  0  0  0  0  0  0  0  0  0  0
   -1.9179    2.9151   -4.5779 C   0  0  0  0  0  0  0  0  0  0  0  0
   -1.8103    3.5349   -3.3585 C   0  0  0  0  0  0  0  0  0  0  0  0
   -1.0217    4.6251   -2.9689 C   0  0  0  0  0  0  0  0  0  0  0  0
   -0.7952    4.8525   -1.5795 C   0  0  0  0  0  0  0  0  0  0  0  0
   -0.0204    5.9141   -1.2441 N   0  0  0  0  0  0  0  0  0  0  0  0
    0.3476    6.4775   -2.7576 S   0  0  0  0  0  0  0  0  0  0  0  0
   -0.4118    5.4753   -3.8379 N   0  0  0  0  0  0  0  0  0  0  0  0
   -1.4064    3.9959   -0.6542 C   0  0  0  0  0  0  0  0  0  0  0  0
   -1.3761    3.9578    0.7109 C   0  0  0  0  0  0  0  0  0  0  0  0
   -0.5888    4.7219    2.0077 S   0  0  0  0  0  0  0  0  0  0  0  0
   -1.3687    3.6711    3.1034 C   0  0  0  0  0  0  0  0  0  0  0  0
   -1.2094    3.3873    4.4490 C   0  0  0  0  0  0  0  0  0  0  0  0
   -0.2170    3.9393    5.6836 S   0  0  0  0  0  0  0  0  0  0  0  0
   -0.6733    2.6922    6.7643 C   0  0  0  0  0  0  0  0  0  0  0  0
   -1.6362    1.8603    6.1571 C   0  0  0  0  0  0  0  0  0  0  0  0
   -2.1918    0.6030    6.7741 C   0  0  0  0  0  0  0  0  0  0  0  0
   -1.3194   -0.6061    6.4479 C   0  0  0  0  0  0  0  0  0  0  0  0
   -1.8954    2.2726    4.8489 C   0  0  0  0  0  0  0  0  0  0  0  0
   -2.7449    1.5708    3.5452 S   0  0  0  0  0  0  0  0  0  0  0  0
   -2.2095    2.7758    2.4718 C   0  0  0  0  0  0  0  0  0  0  0  0
   -2.2010    2.9456    1.0923 C   0  0  0  0  0  0  0  0  0  0  0  0
   -2.8081    2.3253    0.0514 N   0  0  0  0  0  0  0  0  0  0  0  0
   -2.2348    2.9347   -1.0413 C   0  0  0  0  0  0  0  0  0  0  0  0
   -2.3666    2.6460   -2.4241 C   0  0  0  0  0  0  0  0  0  0  0  0
   -2.7051    1.4623   -3.0295 N   0  0  0  0  0  0  0  0  0  0  0  0
   -2.4570    1.6847   -4.3484 C   0  0  0  0  0  0  0  0  0  0  0  0
   -2.1634    0.7948   -5.3780 C   0  0  0  0  0  0  0  0  0  0  0  0
   -2.2374   -0.8675   -5.5374 S   0  0  0  0  0  0  0  0  0  0  0  0
   -2.6746    0.1307   -2.4077 C   0  0  0  0  0  0  0  0  0  0  0  0
   -1.2422   -0.3539   -2.2151 C   0  0  0  0  0  0  0  0  0  0  0  0
   -4.2035    1.8563    0.0956 C   0  0  0  0  0  0  0  0  0  0  0  0
   -4.3528    0.5290    0.8475 C   0  0  0  0  0  0  0  0  0  0  0  0
   -0.1848    2.5433    8.1488 C   0  0  0  0  0  0  0  0  0  0  0  0
    1.1174    2.5071    8.5020 C   0  0  0  0  0  0  0  0  0  0  0  0
    2.2733    2.6210    7.5860 C   0  0  0  0  0  0  0  0  0  0  0  0
    2.2751    2.5299    6.3296 O   0  0  0  0  0  0  0  0  0  0  0  0
    3.4441    2.7856    8.4114 C   0  0  0  0  0  0  0  0  0  0  0  0
    5.0649    3.1398    8.1581 S   0  0  0  0  0  0  0  0  0  0  0  0
    5.3952    3.1591    9.8294 C   0  0  0  0  0  0  0  0  0  0  0  0
    6.7155    3.5255   10.4189 C   0  0  0  0  0  0  0  0  0  0  0  0
    4.2255    2.9358   10.5700 C   0  0  0  0  0  0  0  0  0  0  0  0
    3.1316    2.7235    9.7274 C   0  0  0  0  0  0  0  0  0  0  0  0
    1.6865    2.4590    9.8987 C   0  0  0  0  0  0  0  0  0  0  0  0
    1.0762    2.0887   11.0567 C   0  0  0  0  0  0  0  0  0  0  0  0
   -0.2701    1.5747   11.0997 C   0  0  0  0  0  0  0  0  0  0  0  0
   -1.3525    1.1651   11.1494 N   0  0  0  0  0  0  0  0  0  0  0  0
    1.7801    2.0633   12.3102 C   0  0  0  0  0  0  0  0  0  0  0  0
    2.3363    2.0411   13.3286 N   0  0  0  0  0  0  0  0  0  0  0  0
   -0.8552   -2.5741   -8.2639 H   0  0  0  0  0  0  0  0  0  0  0  0
    1.5211   -2.3959   -2.4431 H   0  0  0  0  0  0  0  0  0  0  0  0
    0.4494   -6.9018   -4.5616 H   0  0  0  0  0  0  0  0  0  0  0  0
    0.1915   -6.9454   -1.1883 H   0  0  0  0  0  0  0  0  0  0  0  0
    2.5601   -8.2468   -1.8346 H   0  0  0  0  0  0  0  0  0  0  0  0
    2.3382   -8.5056    0.8019 H   0  0  0  0  0  0  0  0  0  0  0  0
    2.8562   -6.1849    1.8937 H   0  0  0  0  0  0  0  0  0  0  0  0
    3.4127   -4.4524   -0.0339 H   0  0  0  0  0  0  0  0  0  0  0  0
    4.5355   -6.6955   -0.9632 H   0  0  0  0  0  0  0  0  0  0  0  0
    3.6693   -5.8501   -2.3158 H   0  0  0  0  0  0  0  0  0  0  0  0
    0.6734   -4.8417   -0.1808 H   0  0  0  0  0  0  0  0  0  0  0  0
    0.0550    1.7406   -8.6597 H   0  0  0  0  0  0  0  0  0  0  0  0
    0.1913   -0.0012   -9.1107 H   0  0  0  0  0  0  0  0  0  0  0  0
    1.6983    1.3019   -6.7462 H   0  0  0  0  0  0  0  0  0  0  0  0
    2.3822    1.0549   -8.3806 H   0  0  0  0  0  0  0  0  0  0  0  0
    1.9244   -0.3738   -7.3989 H   0  0  0  0  0  0  0  0  0  0  0  0
   -3.2261    0.4241    6.4039 H   0  0  0  0  0  0  0  0  0  0  0  0
   -2.2619    0.7160    7.8814 H   0  0  0  0  0  0  0  0  0  0  0  0
   -1.5940   -1.4540    7.1105 H   0  0  0  0  0  0  0  0  0  0  0  0
   -0.2485   -0.3670    6.5910 H   0  0  0  0  0  0  0  0  0  0  0  0
   -1.4883   -0.9051    5.3898 H   0  0  0  0  0  0  0  0  0  0  0  0
   -3.2458   -0.5890   -3.0277 H   0  0  0  0  0  0  0  0  0  0  0  0
   -3.1515    0.1161   -1.4349 H   0  0  0  0  0  0  0  0  0  0  0  0
   -0.7131    0.3024   -1.4889 H   0  0  0  0  0  0  0  0  0  0  0  0
   -1.2405   -1.3961   -1.8341 H   0  0  0  0  0  0  0  0  0  0  0  0
   -0.6758   -0.3275   -3.1676 H   0  0  0  0  0  0  0  0  0  0  0  0
   -4.8384    2.6290    0.5897 H   0  0  0  0  0  0  0  0  0  0  0  0
   -4.6104    1.7485   -0.9379 H   0  0  0  0  0  0  0  0  0  0  0  0
   -4.7649    0.7079    1.8631 H   0  0  0  0  0  0  0  0  0  0  0  0
   -5.0761   -0.1194    0.3175 H   0  0  0  0  0  0  0  0  0  0  0  0
   -3.3853   -0.0108    0.9248 H   0  0  0  0  0  0  0  0  0  0  0  0
   -0.9544    2.4810    8.8971 H   0  0  0  0  0  0  0  0  0  0  0  0
    6.7493    4.6170   10.6191 H   0  0  0  0  0  0  0  0  0  0  0  0
    6.8831    2.9663   11.3650 H   0  0  0  0  0  0  0  0  0  0  0  0
    7.5319    3.2639    9.7160 H   0  0  0  0  0  0  0  0  0  0  0  0
    4.1884    2.9723   11.6467 H   0  0  0  0  0  0  0  0  0  0  0  0
  1  2  2  3
  2  3  1  0
  3  4  2  0
  3  5  1  0
  5  6  2  0
  6  7  1  0
  7  8  2  0
  8  9  1  0
  9 10  2  0
 10 11  1  0
 11 12  2  3
 12 13  1  0
 13 14  3  0
 12 15  1  0
 15 16  3  0
  8 17  1  0
 17 18  1  0
 18 19  1  0
 19 20  2  0
 20 21  1  0
 21 22  1  0
 21 23  1  0
  1 24  1  0
 24 25  2  0
 25 26  1  0
 26 27  1  0
 25 28  1  0
 28 29  1  0
 29 30  1  0
 30 31  1  0
 31 32  1  0
 32 33  1  0
 33 34  2  0
 34 35  1  0
 35 36  1  0
 33 37  1  0
 37 38  1  0
 38 39  1  0
 39 40  1  0
 40 41  1  0
 41 42  1  0
 42 43  1  0
 43 44  2  0
 44 45  1  0
 45 46  1  0
 44 47  1  0
 47 48  1  0
 48 49  1  0
 49 50  1  0
 50 51  1  0
 51 52  1  0
 52 53  1  0
 53 54  1  0
 54 55  1  0
 55 56  1  0
 56 57  1  0
 54 58  1  0
 58 59  1  0
 51 60  1  0
 60 61  1  0
 43 62  1  0
 62 63  2  3
 63 64  1  0
 64 65  2  0
 64 66  1  0
 66 67  1  0
 67 68  1  0
 68 69  1  0
 68 70  2  0
 70 71  1  0
 71 72  1  0
 72 73  2  3
 73 74  1  0
 74 75  3  0
 73 76  1  0
 76 77  3  0
 11  2  1  0
 23 17  1  0
 57 24  1  0
 72 63  1  0
 10  5  1  0
 22 18  1  0
 56 28  2  0
 71 66  2  0
 23  7  1  0
 55 30  2  0
 53 31  2  0
 36 32  2  0
 52 37  2  0
 50 38  2  0
 49 40  2  0
 47 41  2  0
  1 78  1  0
  6 79  1  0
  9 80  1  0
 17 81  1  0
 18 82  1  0
 19 83  1  0
 20 84  1  0
 21 85  1  0
 22 86  1  0
 22 87  1  0
 23 88  1  0
 26 89  1  0
 26 90  1  0
 27 91  1  0
 27 92  1  0
 27 93  1  0
 45 94  1  0
 45 95  1  0
 46 96  1  0
 46 97  1  0
 46 98  1  0
 58 99  1  0
 58100  1  0
 59101  1  0
 59102  1  0
 59103  1  0
 60104  1  0
 60105  1  0
 61106  1  0
 61107  1  0
 61108  1  0
 62109  1  0
 69110  1  0
 69111  1  0
 69112  1  0
 70113  1  0
M  END

