
     RDKit          3D

114129  0  0  0  0  0  0  0  0999 V2000
   -6.9499    4.9403    1.3933 C   0  0  0  0  0  0  0  0  0  0  0  0
   -7.8475    4.0234    1.8190 C   0  0  0  0  0  0  0  0  0  0  0  0
   -8.0567    2.7394    1.1498 C   0  0  0  0  0  0  0  0  0  0  0  0
   -8.0363    2.5516   -0.1001 O   0  0  0  0  0  0  0  0  0  0  0  0
   -8.2207    1.7100    2.1438 C   0  0  0  0  0  0  0  0  0  0  0  0
   -8.0639    0.3204    1.9345 C   0  0  0  0  0  0  0  0  0  0  0  0
   -7.9581   -0.4104    3.1003 C   0  0  0  0  0  0  0  0  0  0  0  0
   -8.0287    0.1779    4.4054 C   0  0  0  0  0  0  0  0  0  0  0  0
   -8.1784    1.5421    4.6180 C   0  0  0  0  0  0  0  0  0  0  0  0
   -8.2760    2.3179    3.4256 C   0  0  0  0  0  0  0  0  0  0  0  0
   -8.1980    3.7969    3.2523 C   0  0  0  0  0  0  0  0  0  0  0  0
   -8.4740    4.7461    4.1794 C   0  0  0  0  0  0  0  0  0  0  0  0
   -8.4772    6.1465    3.8456 C   0  0  0  0  0  0  0  0  0  0  0  0
   -8.4813    7.2761    3.5845 N   0  0  0  0  0  0  0  0  0  0  0  0
   -8.8980    4.4242    5.5171 C   0  0  0  0  0  0  0  0  0  0  0  0
   -9.2441    4.1796    6.5947 N   0  0  0  0  0  0  0  0  0  0  0  0
   -7.7821   -1.1638    5.0399 C   0  0  0  0  0  0  0  0  0  0  0  0
   -8.9853   -1.9266    5.6793 C   0  0  0  0  0  0  0  0  0  0  0  0
  -10.2654   -1.5830    4.9504 C   0  0  0  0  0  0  0  0  0  0  0  0
  -10.1673   -2.1246    3.7337 C   0  0  0  0  0  0  0  0  0  0  0  0
   -8.8232   -2.8171    3.6728 C   0  0  0  0  0  0  0  0  0  0  0  0
   -8.7480   -3.3153    5.1054 C   0  0  0  0  0  0  0  0  0  0  0  0
   -7.6807   -1.7581    3.6990 C   0  0  0  0  0  0  0  0  0  0  0  0
   -5.8563    4.5401    0.4903 C   0  0  0  0  0  0  0  0  0  0  0  0
   -5.1548    5.4873   -0.7547 S   0  0  0  0  0  0  0  0  0  0  0  0
   -4.0152    4.2969   -1.0999 C   0  0  0  0  0  0  0  0  0  0  0  0
   -2.8711    4.0861   -1.8115 C   0  0  0  0  0  0  0  0  0  0  0  0
   -1.8612    4.9790   -2.8379 S   0  0  0  0  0  0  0  0  0  0  0  0
   -0.7464    3.6957   -2.7989 C   0  0  0  0  0  0  0  0  0  0  0  0
    0.5226    3.4757   -3.2453 C   0  0  0  0  0  0  0  0  0  0  0  0
    1.4580    4.3645   -3.7934 C   0  0  0  0  0  0  0  0  0  0  0  0
    2.8202    3.9507   -3.8887 C   0  0  0  0  0  0  0  0  0  0  0  0
    3.7107    4.8580   -4.3590 N   0  0  0  0  0  0  0  0  0  0  0  0
    2.6932    6.1411   -4.6042 S   0  0  0  0  0  0  0  0  0  0  0  0
    1.1783    5.6393   -4.1558 N   0  0  0  0  0  0  0  0  0  0  0  0
    3.1521    2.6560   -3.4904 C   0  0  0  0  0  0  0  0  0  0  0  0
    4.3425    1.9974   -3.4467 C   0  0  0  0  0  0  0  0  0  0  0  0
    6.0046    2.3002   -3.5880 S   0  0  0  0  0  0  0  0  0  0  0  0
    6.3718    0.7213   -3.0367 C   0  0  0  0  0  0  0  0  0  0  0  0
    7.5475    0.1180   -2.5788 C   0  0  0  0  0  0  0  0  0  0  0  0
    8.9079    0.7426   -2.7241 C   0  0  0  0  0  0  0  0  0  0  0  0
    9.7424   -0.0125   -3.7605 C   0  0  0  0  0  0  0  0  0  0  0  0
    7.2739   -1.1058   -1.9216 C   0  0  0  0  0  0  0  0  0  0  0  0
    5.5810   -1.3481   -1.8813 S   0  0  0  0  0  0  0  0  0  0  0  0
    5.2269    0.0200   -2.7671 C   0  0  0  0  0  0  0  0  0  0  0  0
    4.0809    0.7487   -3.0135 C   0  0  0  0  0  0  0  0  0  0  0  0
    2.7676    0.4982   -2.8055 N   0  0  0  0  0  0  0  0  0  0  0  0
    2.1990    1.7347   -3.0126 C   0  0  0  0  0  0  0  0  0  0  0  0
    0.8708    2.1980   -2.7836 C   0  0  0  0  0  0  0  0  0  0  0  0
   -0.1189    1.6937   -1.9691 N   0  0  0  0  0  0  0  0  0  0  0  0
   -1.1003    2.6436   -1.9993 C   0  0  0  0  0  0  0  0  0  0  0  0
   -2.3423    2.8859   -1.3762 C   0  0  0  0  0  0  0  0  0  0  0  0
   -3.1088    2.3477   -0.3708 N   0  0  0  0  0  0  0  0  0  0  0  0
   -4.1255    3.2431   -0.2646 C   0  0  0  0  0  0  0  0  0  0  0  0
   -5.1339    3.3549    0.6732 C   0  0  0  0  0  0  0  0  0  0  0  0
   -2.7946    1.3895    0.6946 C   0  0  0  0  0  0  0  0  0  0  0  0
   -1.9591    2.0496    1.7875 C   0  0  0  0  0  0  0  0  0  0  0  0
   -0.0292    0.5476   -1.0711 C   0  0  0  0  0  0  0  0  0  0  0  0
   -0.9561   -0.5860   -1.5328 C   0  0  0  0  0  0  0  0  0  0  0  0
    2.1976   -0.8159   -3.1685 C   0  0  0  0  0  0  0  0  0  0  0  0
    1.3611   -0.7350   -4.4463 C   0  0  0  0  0  0  0  0  0  0  0  0
    8.2591   -1.8390   -1.0914 C   0  0  0  0  0  0  0  0  0  0  0  0
    8.1048   -3.0657   -0.5564 C   0  0  0  0  0  0  0  0  0  0  0  0
    7.2433   -4.1499   -1.0611 C   0  0  0  0  0  0  0  0  0  0  0  0
    6.4370   -4.0880   -2.0246 O   0  0  0  0  0  0  0  0  0  0  0  0
    7.6312   -5.3809   -0.3981 C   0  0  0  0  0  0  0  0  0  0  0  0
    7.1292   -6.6641   -0.6130 C   0  0  0  0  0  0  0  0  0  0  0  0
    7.7415   -7.7465    0.0304 C   0  0  0  0  0  0  0  0  0  0  0  0
    7.0438   -9.5052   -0.2757 Br  0  0  0  0  0  0  0  0  0  0  0  0
    8.8624   -7.5269    0.8640 C   0  0  0  0  0  0  0  0  0  0  0  0
    9.8040   -8.9828    1.6718 Br  0  0  0  0  0  0  0  0  0  0  0  0
    9.3456   -6.2226    1.0698 C   0  0  0  0  0  0  0  0  0  0  0  0
    8.6964   -5.1431    0.4516 C   0  0  0  0  0  0  0  0  0  0  0  0
    8.9913   -3.6819    0.4860 C   0  0  0  0  0  0  0  0  0  0  0  0
    9.7089   -3.0198    1.4310 C   0  0  0  0  0  0  0  0  0  0  0  0
    9.6801   -1.5815    1.5624 C   0  0  0  0  0  0  0  0  0  0  0  0
    9.6582   -0.4290    1.6779 N   0  0  0  0  0  0  0  0  0  0  0  0
   10.4824   -3.6932    2.4363 C   0  0  0  0  0  0  0  0  0  0  0  0
   11.1103   -4.2175    3.2547 N   0  0  0  0  0  0  0  0  0  0  0  0
   -6.7883    5.8572    1.9408 H   0  0  0  0  0  0  0  0  0  0  0  0
   -7.9286   -0.1250    0.9574 H   0  0  0  0  0  0  0  0  0  0  0  0
   -8.1187    1.9555    5.6090 H   0  0  0  0  0  0  0  0  0  0  0  0
   -6.8308   -1.2236    5.6188 H   0  0  0  0  0  0  0  0  0  0  0  0
   -9.0478   -1.8750    6.7881 H   0  0  0  0  0  0  0  0  0  0  0  0
  -11.1372   -1.0758    5.3522 H   0  0  0  0  0  0  0  0  0  0  0  0
  -10.9411   -2.1310    2.9754 H   0  0  0  0  0  0  0  0  0  0  0  0
   -8.7277   -3.5968    2.8869 H   0  0  0  0  0  0  0  0  0  0  0  0
   -9.5527   -4.0456    5.3655 H   0  0  0  0  0  0  0  0  0  0  0  0
   -7.7527   -3.7423    5.3785 H   0  0  0  0  0  0  0  0  0  0  0  0
   -6.6661   -2.1567    3.4651 H   0  0  0  0  0  0  0  0  0  0  0  0
    8.8108    1.8015   -3.0557 H   0  0  0  0  0  0  0  0  0  0  0  0
    9.4300    0.7633   -1.7463 H   0  0  0  0  0  0  0  0  0  0  0  0
   10.6967    0.5284   -3.9363 H   0  0  0  0  0  0  0  0  0  0  0  0
    9.1839   -0.0826   -4.7214 H   0  0  0  0  0  0  0  0  0  0  0  0
    9.9766   -1.0338   -3.3876 H   0  0  0  0  0  0  0  0  0  0  0  0
   -5.3195    2.6452    1.4657 H   0  0  0  0  0  0  0  0  0  0  0  0
   -3.7341    1.0198    1.1522 H   0  0  0  0  0  0  0  0  0  0  0  0
   -2.3290    0.4829    0.3088 H   0  0  0  0  0  0  0  0  0  0  0  0
   -1.0581    2.5330    1.3534 H   0  0  0  0  0  0  0  0  0  0  0  0
   -2.5595    2.8257    2.3101 H   0  0  0  0  0  0  0  0  0  0  0  0
   -1.6405    1.2863    2.5305 H   0  0  0  0  0  0  0  0  0  0  0  0
    1.0120    0.2044   -0.9637 H   0  0  0  0  0  0  0  0  0  0  0  0
   -0.2637    0.8717   -0.0483 H   0  0  0  0  0  0  0  0  0  0  0  0
   -1.9554   -0.1913   -1.7993 H   0  0  0  0  0  0  0  0  0  0  0  0
   -1.0602   -1.3289   -0.7200 H   0  0  0  0  0  0  0  0  0  0  0  0
   -0.5689   -1.1050   -2.4194 H   0  0  0  0  0  0  0  0  0  0  0  0
    1.6392   -1.2703   -2.3381 H   0  0  0  0  0  0  0  0  0  0  0  0
    3.0125   -1.5455   -3.3661 H   0  0  0  0  0  0  0  0  0  0  0  0
    1.9222   -0.2065   -5.2460 H   0  0  0  0  0  0  0  0  0  0  0  0
    0.4231   -0.1756   -4.2612 H   0  0  0  0  0  0  0  0  0  0  0  0
    1.1028   -1.7550   -4.8003 H   0  0  0  0  0  0  0  0  0  0  0  0
    9.1660   -1.3076   -0.8659 H   0  0  0  0  0  0  0  0  0  0  0  0
    6.2986   -6.8209   -1.2880 H   0  0  0  0  0  0  0  0  0  0  0  0
   10.2288   -6.0901    1.6681 H   0  0  0  0  0  0  0  0  0  0  0  0
  1  2  2  3
  2  3  1  0
  3  4  2  0
  3  5  1  0
  5  6  2  0
  6  7  1  0
  7  8  2  0
  8  9  1  0
  9 10  2  0
 10 11  1  0
 11 12  2  3
 12 13  1  0
 13 14  3  0
 12 15  1  0
 15 16  3  0
  8 17  1  0
 17 18  1  0
 18 19  1  0
 19 20  2  0
 20 21  1  0
 21 22  1  0
 21 23  1  0
  1 24  1  0
 24 25  1  0
 25 26  1  0
 26 27  1  0
 27 28  1  0
 28 29  1  0
 29 30  1  0
 30 31  1  0
 31 32  1  0
 32 33  2  0
 33 34  1  0
 34 35  1  0
 32 36  1  0
 36 37  1  0
 37 38  1  0
 38 39  1  0
 39 40  1  0
 40 41  1  0
 41 42  1  0
 40 43  2  0
 43 44  1  0
 44 45  1  0
 45 46  1  0
 46 47  1  0
 47 48  1  0
 48 49  1  0
 49 50  1  0
 50 51  1  0
 51 52  1  0
 52 53  1  0
 53 54  1  0
 54 55  1  0
 53 56  1  0
 56 57  1  0
 50 58  1  0
 58 59  1  0
 47 60  1  0
 60 61  1  0
 43 62  1  0
 62 63  2  3
 63 64  1  0
 64 65  2  0
 64 66  1  0
 66 67  2  0
 67 68  1  0
 68 69  1  0
 68 70  2  0
 70 71  1  0
 70 72  1  0
 72 73  2  0
 73 74  1  0
 74 75  2  3
 75 76  1  0
 76 77  3  0
 75 78  1  0
 78 79  3  0
 11  2  1  0
 23 17  1  0
 55 24  2  0
 74 63  1  0
 10  5  1  0
 22 18  1  0
 54 26  2  0
 73 66  1  0
 23  7  1  0
 52 27  2  0
 51 29  2  0
 49 30  2  0
 35 31  2  0
 48 36  2  0
 46 37  2  0
 45 39  2  0
  1 80  1  0
  6 81  1  0
  9 82  1  0
 17 83  1  0
 18 84  1  0
 19 85  1  0
 20 86  1  0
 21 87  1  0
 22 88  1  0
 22 89  1  0
 23 90  1  0
 41 91  1  0
 41 92  1  0
 42 93  1  0
 42 94  1  0
 42 95  1  0
 55 96  1  0
 56 97  1  0
 56 98  1  0
 57 99  1  0
 57100  1  0
 57101  1  0
 58102  1  0
 58103  1  0
 59104  1  0
 59105  1  0
 59106  1  0
 60107  1  0
 60108  1  0
 61109  1  0
 61110  1  0
 61111  1  0
 62112  1  0
 67113  1  0
 72114  1  0
M  END

