
     RDKit          3D

113128  0  0  0  0  0  0  0  0999 V2000
   -1.4127    3.3288    6.8236 C   0  0  0  0  0  0  0  0  0  0  0  0
   -2.7339    3.5659    6.6751 C   0  0  0  0  0  0  0  0  0  0  0  0
   -3.7224    2.6868    6.0452 C   0  0  0  0  0  0  0  0  0  0  0  0
   -3.8040    1.4368    6.1874 O   0  0  0  0  0  0  0  0  0  0  0  0
   -4.7158    3.5077    5.3880 C   0  0  0  0  0  0  0  0  0  0  0  0
   -5.6760    3.0902    4.4378 C   0  0  0  0  0  0  0  0  0  0  0  0
   -6.3506    4.1354    3.8351 C   0  0  0  0  0  0  0  0  0  0  0  0
   -6.1090    5.5119    4.1477 C   0  0  0  0  0  0  0  0  0  0  0  0
   -5.1734    5.9240    5.0810 C   0  0  0  0  0  0  0  0  0  0  0  0
   -4.4787    4.8633    5.7224 C   0  0  0  0  0  0  0  0  0  0  0  0
   -3.3441    4.9279    6.6789 C   0  0  0  0  0  0  0  0  0  0  0  0
   -3.0663    5.9423    7.5365 C   0  0  0  0  0  0  0  0  0  0  0  0
   -2.0908    5.8038    8.5886 C   0  0  0  0  0  0  0  0  0  0  0  0
   -1.3101    5.6927    9.4316 N   0  0  0  0  0  0  0  0  0  0  0  0
   -3.8341    7.1610    7.5584 C   0  0  0  0  0  0  0  0  0  0  0  0
   -4.4515    8.1426    7.5832 N   0  0  0  0  0  0  0  0  0  0  0  0
   -7.0967    5.9408    3.1019 C   0  0  0  0  0  0  0  0  0  0  0  0
   -6.5376    6.5365    1.7727 C   0  0  0  0  0  0  0  0  0  0  0  0
   -5.1778    5.9424    1.4772 C   0  0  0  0  0  0  0  0  0  0  0  0
   -5.3839    4.6583    1.1817 C   0  0  0  0  0  0  0  0  0  0  0  0
   -6.8761    4.4235    1.2874 C   0  0  0  0  0  0  0  0  0  0  0  0
   -7.3637    5.7610    0.7628 C   0  0  0  0  0  0  0  0  0  0  0  0
   -7.3346    4.5320    2.7745 C   0  0  0  0  0  0  0  0  0  0  0  0
   -0.6404    2.1861    6.2694 C   0  0  0  0  0  0  0  0  0  0  0  0
    0.7592    2.0318    6.4235 C   0  0  0  0  0  0  0  0  0  0  0  0
    1.6369    2.8526    7.3341 C   0  0  0  0  0  0  0  0  0  0  0  0
    1.4533    2.4411    8.7895 C   0  0  0  0  0  0  0  0  0  0  0  0
    1.2598    1.0385    5.5763 C   0  0  0  0  0  0  0  0  0  0  0  0
    2.8475    0.5353    5.1997 S   0  0  0  0  0  0  0  0  0  0  0  0
    2.2508   -0.4704    3.9782 C   0  0  0  0  0  0  0  0  0  0  0  0
    2.7200   -1.3838    3.0921 C   0  0  0  0  0  0  0  0  0  0  0  0
    4.0185   -1.8478    2.8784 C   0  0  0  0  0  0  0  0  0  0  0  0
    4.2239   -2.8691    1.9135 C   0  0  0  0  0  0  0  0  0  0  0  0
    5.5039   -3.2783    1.7113 N   0  0  0  0  0  0  0  0  0  0  0  0
    6.2866   -2.3040    2.7980 S   0  0  0  0  0  0  0  0  0  0  0  0
    5.1158   -1.3760    3.5219 N   0  0  0  0  0  0  0  0  0  0  0  0
    3.1197   -3.3678    1.2144 C   0  0  0  0  0  0  0  0  0  0  0  0
    3.0902   -4.1646    0.1094 C   0  0  0  0  0  0  0  0  0  0  0  0
    4.2519   -4.6531   -1.0316 S   0  0  0  0  0  0  0  0  0  0  0  0
    3.0321   -4.8876   -2.1869 C   0  0  0  0  0  0  0  0  0  0  0  0
    3.0425   -5.1161   -3.5481 C   0  0  0  0  0  0  0  0  0  0  0  0
    4.2351   -5.2545   -4.7162 S   0  0  0  0  0  0  0  0  0  0  0  0
    3.1177   -5.2055   -6.0080 C   0  0  0  0  0  0  0  0  0  0  0  0
    1.8023   -5.0839   -5.5197 C   0  0  0  0  0  0  0  0  0  0  0  0
    0.5741   -4.9522   -6.3738 C   0  0  0  0  0  0  0  0  0  0  0  0
    0.3001   -3.4971   -6.7284 C   0  0  0  0  0  0  0  0  0  0  0  0
    1.8096   -4.9948   -4.1279 C   0  0  0  0  0  0  0  0  0  0  0  0
    0.6444   -4.5317   -2.9810 S   0  0  0  0  0  0  0  0  0  0  0  0
    1.7815   -4.5409   -1.7121 C   0  0  0  0  0  0  0  0  0  0  0  0
    1.8264   -4.1130   -0.3865 C   0  0  0  0  0  0  0  0  0  0  0  0
    1.0093   -3.3133    0.3537 N   0  0  0  0  0  0  0  0  0  0  0  0
    1.8094   -2.8760    1.3912 C   0  0  0  0  0  0  0  0  0  0  0  0
    1.5940   -1.8846    2.4101 C   0  0  0  0  0  0  0  0  0  0  0  0
    0.4435   -1.3290    2.9344 N   0  0  0  0  0  0  0  0  0  0  0  0
    0.9083   -0.4441    3.8572 C   0  0  0  0  0  0  0  0  0  0  0  0
    0.3299    0.4180    4.7801 C   0  0  0  0  0  0  0  0  0  0  0  0
   -1.1697    1.0908    5.0604 S   0  0  0  0  0  0  0  0  0  0  0  0
   -0.8998   -1.9221    2.9940 C   0  0  0  0  0  0  0  0  0  0  0  0
   -1.9682   -0.9980    2.3937 C   0  0  0  0  0  0  0  0  0  0  0  0
   -0.2429   -2.7410   -0.1540 C   0  0  0  0  0  0  0  0  0  0  0  0
   -1.3717   -3.7736   -0.1212 C   0  0  0  0  0  0  0  0  0  0  0  0
    3.5028   -5.1131   -7.4216 C   0  0  0  0  0  0  0  0  0  0  0  0
    4.0275   -3.9951   -7.9560 C   0  0  0  0  0  0  0  0  0  0  0  0
    4.1086   -2.6819   -7.2952 C   0  0  0  0  0  0  0  0  0  0  0  0
    3.9212   -2.4464   -6.0740 O   0  0  0  0  0  0  0  0  0  0  0  0
    4.3247   -1.6724   -8.3110 C   0  0  0  0  0  0  0  0  0  0  0  0
    4.3613   -0.2828   -8.1631 C   0  0  0  0  0  0  0  0  0  0  0  0
    4.2816    0.2914   -6.9365 F   0  0  0  0  0  0  0  0  0  0  0  0
    4.4743    0.5132   -9.3082 C   0  0  0  0  0  0  0  0  0  0  0  0
    4.5178   -0.0875  -10.5801 C   0  0  0  0  0  0  0  0  0  0  0  0
    4.4807   -1.4847  -10.7095 C   0  0  0  0  0  0  0  0  0  0  0  0
    4.4159   -2.2792   -9.5529 C   0  0  0  0  0  0  0  0  0  0  0  0
    4.3610   -3.7604   -9.3937 C   0  0  0  0  0  0  0  0  0  0  0  0
    4.8013   -4.6849  -10.2817 C   0  0  0  0  0  0  0  0  0  0  0  0
    5.2705   -4.3334  -11.5942 C   0  0  0  0  0  0  0  0  0  0  0  0
    5.6509   -4.0613  -12.6557 N   0  0  0  0  0  0  0  0  0  0  0  0
    4.9765   -6.0689   -9.9226 C   0  0  0  0  0  0  0  0  0  0  0  0
    5.1286   -7.1793   -9.6336 N   0  0  0  0  0  0  0  0  0  0  0  0
   -0.8082    4.1307    7.2058 H   0  0  0  0  0  0  0  0  0  0  0  0
   -5.8222    2.0593    4.1591 H   0  0  0  0  0  0  0  0  0  0  0  0
   -4.9565    6.9693    5.2278 H   0  0  0  0  0  0  0  0  0  0  0  0
   -7.9929    6.4595    3.5099 H   0  0  0  0  0  0  0  0  0  0  0  0
   -6.5956    7.6414    1.6883 H   0  0  0  0  0  0  0  0  0  0  0  0
   -4.2281    6.4599    1.4218 H   0  0  0  0  0  0  0  0  0  0  0  0
   -4.6278    3.9562    0.8546 H   0  0  0  0  0  0  0  0  0  0  0  0
   -7.2447    3.5328    0.7409 H   0  0  0  0  0  0  0  0  0  0  0  0
   -8.4635    5.9072    0.8771 H   0  0  0  0  0  0  0  0  0  0  0  0
   -7.0682    5.9559   -0.2970 H   0  0  0  0  0  0  0  0  0  0  0  0
   -8.3783    4.2003    2.9746 H   0  0  0  0  0  0  0  0  0  0  0  0
    1.4195    3.9363    7.2150 H   0  0  0  0  0  0  0  0  0  0  0  0
    2.7050    2.7178    7.0644 H   0  0  0  0  0  0  0  0  0  0  0  0
    2.1174    3.0532    9.4359 H   0  0  0  0  0  0  0  0  0  0  0  0
    1.7151    1.3712    8.9249 H   0  0  0  0  0  0  0  0  0  0  0  0
    0.4012    2.6002    9.1066 H   0  0  0  0  0  0  0  0  0  0  0  0
    0.7066   -5.5394   -7.3078 H   0  0  0  0  0  0  0  0  0  0  0  0
   -0.3023   -5.3751   -5.8363 H   0  0  0  0  0  0  0  0  0  0  0  0
    0.1099   -2.9068   -5.8120 H   0  0  0  0  0  0  0  0  0  0  0  0
    1.1659   -3.0646   -7.2743 H   0  0  0  0  0  0  0  0  0  0  0  0
   -0.5935   -3.4443   -7.3817 H   0  0  0  0  0  0  0  0  0  0  0  0
   -1.1609   -2.1396    4.0543 H   0  0  0  0  0  0  0  0  0  0  0  0
   -0.9058   -2.9030    2.4946 H   0  0  0  0  0  0  0  0  0  0  0  0
   -2.5147   -0.4525    3.1907 H   0  0  0  0  0  0  0  0  0  0  0  0
   -1.5181   -0.2554    1.6984 H   0  0  0  0  0  0  0  0  0  0  0  0
   -2.7204   -1.6046    1.8440 H   0  0  0  0  0  0  0  0  0  0  0  0
   -0.0935   -2.3876   -1.1957 H   0  0  0  0  0  0  0  0  0  0  0  0
   -0.5092   -1.8384    0.4030 H   0  0  0  0  0  0  0  0  0  0  0  0
   -1.4302   -4.2809    0.8627 H   0  0  0  0  0  0  0  0  0  0  0  0
   -1.2116   -4.5527   -0.8897 H   0  0  0  0  0  0  0  0  0  0  0  0
   -2.3491   -3.2756   -0.3312 H   0  0  0  0  0  0  0  0  0  0  0  0
    3.2548   -5.9565   -8.0484 H   0  0  0  0  0  0  0  0  0  0  0  0
    4.4922    1.5926   -9.2213 H   0  0  0  0  0  0  0  0  0  0  0  0
    4.5673    0.5311  -11.4652 H   0  0  0  0  0  0  0  0  0  0  0  0
    4.4593   -1.9071  -11.7015 H   0  0  0  0  0  0  0  0  0  0  0  0
  1  2  2  3
  2  3  1  0
  3  4  2  0
  3  5  1  0
  5  6  2  0
  6  7  1  0
  7  8  2  0
  8  9  1  0
  9 10  2  0
 10 11  1  0
 11 12  2  3
 12 13  1  0
 13 14  3  0
 12 15  1  0
 15 16  3  0
  8 17  1  0
 17 18  1  0
 18 19  1  0
 19 20  2  0
 20 21  1  0
 21 22  1  0
 21 23  1  0
  1 24  1  0
 24 25  2  0
 25 26  1  0
 26 27  1  0
 25 28  1  0
 28 29  1  0
 29 30  1  0
 30 31  1  0
 31 32  1  0
 32 33  1  0
 33 34  2  0
 34 35  1  0
 35 36  1  0
 33 37  1  0
 37 38  1  0
 38 39  1  0
 39 40  1  0
 40 41  1  0
 41 42  1  0
 42 43  1  0
 43 44  2  0
 44 45  1  0
 45 46  1  0
 44 47  1  0
 47 48  1  0
 48 49  1  0
 49 50  1  0
 50 51  1  0
 51 52  1  0
 52 53  1  0
 53 54  1  0
 54 55  1  0
 55 56  1  0
 56 57  1  0
 54 58  1  0
 58 59  1  0
 51 60  1  0
 60 61  1  0
 43 62  1  0
 62 63  2  3
 63 64  1  0
 64 65  2  0
 64 66  1  0
 66 67  2  0
 67 68  1  0
 67 69  1  0
 69 70  2  0
 70 71  1  0
 71 72  2  0
 72 73  1  0
 73 74  2  3
 74 75  1  0
 75 76  3  0
 74 77  1  0
 77 78  3  0
 11  2  1  0
 23 17  1  0
 57 24  1  0
 73 63  1  0
 10  5  1  0
 22 18  1  0
 56 28  2  0
 72 66  1  0
 23  7  1  0
 55 30  2  0
 53 31  2  0
 36 32  2  0
 52 37  2  0
 50 38  2  0
 49 40  2  0
 47 41  2  0
  1 79  1  0
  6 80  1  0
  9 81  1  0
 17 82  1  0
 18 83  1  0
 19 84  1  0
 20 85  1  0
 21 86  1  0
 22 87  1  0
 22 88  1  0
 23 89  1  0
 26 90  1  0
 26 91  1  0
 27 92  1  0
 27 93  1  0
 27 94  1  0
 45 95  1  0
 45 96  1  0
 46 97  1  0
 46 98  1  0
 46 99  1  0
 58100  1  0
 58101  1  0
 59102  1  0
 59103  1  0
 59104  1  0
 60105  1  0
 60106  1  0
 61107  1  0
 61108  1  0
 61109  1  0
 62110  1  0
 69111  1  0
 70112  1  0
 71113  1  0
M  END

