
     RDKit          3D

111124  0  0  0  0  0  0  0  0999 V2000
   -1.7736    3.7863    5.1936 C   0  0  0  0  0  0  0  0  0  0  0  0
   -1.5444    5.0613    5.5540 C   0  0  0  0  0  0  0  0  0  0  0  0
   -2.4180    5.7753    6.4785 C   0  0  0  0  0  0  0  0  0  0  0  0
   -3.3417    5.2637    7.1671 O   0  0  0  0  0  0  0  0  0  0  0  0
   -2.0864    7.1819    6.4398 C   0  0  0  0  0  0  0  0  0  0  0  0
   -2.6560    8.2045    7.2321 C   0  0  0  0  0  0  0  0  0  0  0  0
   -2.0376    9.4297    7.0843 C   0  0  0  0  0  0  0  0  0  0  0  0
   -0.9413    9.6548    6.1894 C   0  0  0  0  0  0  0  0  0  0  0  0
   -0.3969    8.6656    5.3865 C   0  0  0  0  0  0  0  0  0  0  0  0
   -1.0048    7.3846    5.5370 C   0  0  0  0  0  0  0  0  0  0  0  0
   -0.5666    6.0563    5.0084 C   0  0  0  0  0  0  0  0  0  0  0  0
    0.6599    5.7860    4.4953 C   0  0  0  0  0  0  0  0  0  0  0  0
    1.3208    4.5254    4.7259 C   0  0  0  0  0  0  0  0  0  0  0  0
    1.8666    3.5253    4.9274 N   0  0  0  0  0  0  0  0  0  0  0  0
    1.4465    6.7682    3.8045 C   0  0  0  0  0  0  0  0  0  0  0  0
    2.0901    7.5473    3.2399 N   0  0  0  0  0  0  0  0  0  0  0  0
   -0.8542   11.0834    6.6336 C   0  0  0  0  0  0  0  0  0  0  0  0
   -1.3902   12.1593    5.6441 C   0  0  0  0  0  0  0  0  0  0  0  0
   -1.5559   13.4215    6.4581 C   0  0  0  0  0  0  0  0  0  0  0  0
   -2.5892   13.2120    7.2796 C   0  0  0  0  0  0  0  0  0  0  0  0
   -3.0853   11.8133    6.9941 C   0  0  0  0  0  0  0  0  0  0  0  0
   -2.8558   11.7865    5.4928 C   0  0  0  0  0  0  0  0  0  0  0  0
   -1.9820   10.8561    7.5394 C   0  0  0  0  0  0  0  0  0  0  0  0
   -1.1749    3.1218    4.0326 C   0  0  0  0  0  0  0  0  0  0  0  0
   -1.1815    3.7268    2.4267 S   0  0  0  0  0  0  0  0  0  0  0  0
   -0.3785    2.3815    1.8494 C   0  0  0  0  0  0  0  0  0  0  0  0
   -0.1146    1.7572    0.6731 C   0  0  0  0  0  0  0  0  0  0  0  0
   -0.5531    1.9293   -0.9332 S   0  0  0  0  0  0  0  0  0  0  0  0
   -0.0758    0.3314   -1.3055 C   0  0  0  0  0  0  0  0  0  0  0  0
   -0.1396   -0.2961   -2.5642 C   0  0  0  0  0  0  0  0  0  0  0  0
   -0.5005    0.4233   -3.7013 O   0  0  0  0  0  0  0  0  0  0  0  0
    0.3282    1.4535   -4.2438 C   0  0  0  0  0  0  0  0  0  0  0  0
    1.6004    0.8624   -4.8492 C   0  0  0  0  0  0  0  0  0  0  0  0
    0.2258   -1.6584   -2.6289 C   0  0  0  0  0  0  0  0  0  0  0  0
    0.8216   -2.2738   -1.4992 C   0  0  0  0  0  0  0  0  0  0  0  0
    0.9529   -1.6206   -0.2683 C   0  0  0  0  0  0  0  0  0  0  0  0
    1.6662   -2.2030    0.7755 O   0  0  0  0  0  0  0  0  0  0  0  0
    3.0839   -2.3566    0.7426 C   0  0  0  0  0  0  0  0  0  0  0  0
    3.7778   -0.9976    0.7298 C   0  0  0  0  0  0  0  0  0  0  0  0
    0.3907   -0.3411   -0.1511 C   0  0  0  0  0  0  0  0  0  0  0  0
    0.3121    0.4951    0.9781 C   0  0  0  0  0  0  0  0  0  0  0  0
    0.2724    0.2689    2.3324 N   0  0  0  0  0  0  0  0  0  0  0  0
   -0.1583    1.4651    2.8211 C   0  0  0  0  0  0  0  0  0  0  0  0
   -0.6338    1.8311    4.0758 C   0  0  0  0  0  0  0  0  0  0  0  0
    0.2371   -0.9935    3.0809 C   0  0  0  0  0  0  0  0  0  0  0  0
   -1.0012   -1.8139    2.7204 C   0  0  0  0  0  0  0  0  0  0  0  0
    1.3062   -3.8738   -1.8181 S   0  0  0  0  0  0  0  0  0  0  0  0
    0.7897   -3.7616   -3.3984 C   0  0  0  0  0  0  0  0  0  0  0  0
    0.5375   -4.6131   -4.4159 C   0  0  0  0  0  0  0  0  0  0  0  0
    0.6569   -6.2304   -4.7782 S   0  0  0  0  0  0  0  0  0  0  0  0
   -0.3059   -6.0513   -6.1871 C   0  0  0  0  0  0  0  0  0  0  0  0
   -0.7006   -4.7111   -6.3599 C   0  0  0  0  0  0  0  0  0  0  0  0
   -0.2050   -3.9312   -5.3127 C   0  0  0  0  0  0  0  0  0  0  0  0
   -0.4456   -2.6446   -4.9209 N   0  0  0  0  0  0  0  0  0  0  0  0
   -1.4179   -1.7377   -5.5464 C   0  0  0  0  0  0  0  0  0  0  0  0
   -2.7217   -1.7054   -4.7517 C   0  0  0  0  0  0  0  0  0  0  0  0
    0.2031   -2.5679   -3.7108 C   0  0  0  0  0  0  0  0  0  0  0  0
   -0.4999   -7.1234   -7.1770 C   0  0  0  0  0  0  0  0  0  0  0  0
   -0.7862   -8.3974   -6.8353 C   0  0  0  0  0  0  0  0  0  0  0  0
   -1.1437   -8.8533   -5.4885 C   0  0  0  0  0  0  0  0  0  0  0  0
   -1.6938   -8.1541   -4.5888 O   0  0  0  0  0  0  0  0  0  0  0  0
   -0.8178  -10.2575   -5.3764 C   0  0  0  0  0  0  0  0  0  0  0  0
   -0.8659  -11.0680   -4.2384 C   0  0  0  0  0  0  0  0  0  0  0  0
   -1.3166  -10.5819   -3.0460 F   0  0  0  0  0  0  0  0  0  0  0  0
   -0.4203  -12.3878   -4.3411 C   0  0  0  0  0  0  0  0  0  0  0  0
    0.0786  -12.8762   -5.5662 C   0  0  0  0  0  0  0  0  0  0  0  0
    0.1207  -12.0464   -6.7013 C   0  0  0  0  0  0  0  0  0  0  0  0
   -0.3482  -10.7234   -6.5977 C   0  0  0  0  0  0  0  0  0  0  0  0
   -0.4169   -9.6230   -7.6066 C   0  0  0  0  0  0  0  0  0  0  0  0
   -0.2571   -9.7216   -8.9555 C   0  0  0  0  0  0  0  0  0  0  0  0
    0.2287  -10.9125   -9.5984 C   0  0  0  0  0  0  0  0  0  0  0  0
    0.6302  -11.8610  -10.1311 N   0  0  0  0  0  0  0  0  0  0  0  0
   -0.6828   -8.6687   -9.8468 C   0  0  0  0  0  0  0  0  0  0  0  0
   -1.0284   -7.8318  -10.5666 N   0  0  0  0  0  0  0  0  0  0  0  0
   -2.4959    3.2058    5.7530 H   0  0  0  0  0  0  0  0  0  0  0  0
   -3.4677    8.0343    7.9278 H   0  0  0  0  0  0  0  0  0  0  0  0
    0.4395    8.8836    4.7434 H   0  0  0  0  0  0  0  0  0  0  0  0
    0.1035   11.3310    7.1415 H   0  0  0  0  0  0  0  0  0  0  0  0
   -0.8133   12.2759    4.7038 H   0  0  0  0  0  0  0  0  0  0  0  0
   -1.0075   14.3503    6.3545 H   0  0  0  0  0  0  0  0  0  0  0  0
   -3.0254   13.9405    7.9529 H   0  0  0  0  0  0  0  0  0  0  0  0
   -4.1215   11.6024    7.3305 H   0  0  0  0  0  0  0  0  0  0  0  0
   -3.4503   12.5531    4.9349 H   0  0  0  0  0  0  0  0  0  0  0  0
   -3.0312   10.7946    5.0245 H   0  0  0  0  0  0  0  0  0  0  0  0
   -1.7426   10.9647    8.6224 H   0  0  0  0  0  0  0  0  0  0  0  0
    0.5988    2.1958   -3.4648 H   0  0  0  0  0  0  0  0  0  0  0  0
   -0.2376    1.9851   -5.0383 H   0  0  0  0  0  0  0  0  0  0  0  0
    1.3387    0.2121   -5.7091 H   0  0  0  0  0  0  0  0  0  0  0  0
    2.2588    1.6845   -5.2073 H   0  0  0  0  0  0  0  0  0  0  0  0
    2.1457    0.2663   -4.0924 H   0  0  0  0  0  0  0  0  0  0  0  0
    3.4013   -2.9119    1.6495 H   0  0  0  0  0  0  0  0  0  0  0  0
    3.3986   -2.9437   -0.1475 H   0  0  0  0  0  0  0  0  0  0  0  0
    3.5755   -0.4665   -0.2276 H   0  0  0  0  0  0  0  0  0  0  0  0
    4.8762   -1.1357    0.8301 H   0  0  0  0  0  0  0  0  0  0  0  0
    3.4123   -0.3727    1.5763 H   0  0  0  0  0  0  0  0  0  0  0  0
   -0.6020    1.2121    4.9617 H   0  0  0  0  0  0  0  0  0  0  0  0
    0.2067   -0.7820    4.1704 H   0  0  0  0  0  0  0  0  0  0  0  0
    1.1702   -1.5672    2.9395 H   0  0  0  0  0  0  0  0  0  0  0  0
   -1.8880   -1.1507    2.6524 H   0  0  0  0  0  0  0  0  0  0  0  0
   -0.8613   -2.3194    1.7442 H   0  0  0  0  0  0  0  0  0  0  0  0
   -1.1870   -2.5754    3.4987 H   0  0  0  0  0  0  0  0  0  0  0  0
   -1.3189   -4.3512   -7.1729 H   0  0  0  0  0  0  0  0  0  0  0  0
   -0.9944   -0.7264   -5.6758 H   0  0  0  0  0  0  0  0  0  0  0  0
   -1.6484   -2.0866   -6.5740 H   0  0  0  0  0  0  0  0  0  0  0  0
   -3.5046   -1.1753   -5.3344 H   0  0  0  0  0  0  0  0  0  0  0  0
   -3.0647   -2.7407   -4.5512 H   0  0  0  0  0  0  0  0  0  0  0  0
   -2.5756   -1.1876   -3.7833 H   0  0  0  0  0  0  0  0  0  0  0  0
   -0.2000   -6.8747   -8.1825 H   0  0  0  0  0  0  0  0  0  0  0  0
   -0.4376  -13.0326   -3.4686 H   0  0  0  0  0  0  0  0  0  0  0  0
    0.4610  -13.8820   -5.6204 H   0  0  0  0  0  0  0  0  0  0  0  0
    0.5455  -12.4356   -7.6057 H   0  0  0  0  0  0  0  0  0  0  0  0
  1  2  2  3
  2  3  1  0
  3  4  2  0
  3  5  1  0
  5  6  2  0
  6  7  1  0
  7  8  2  0
  8  9  1  0
  9 10  2  0
 10 11  1  0
 11 12  2  3
 12 13  1  0
 13 14  3  0
 12 15  1  0
 15 16  3  0
  8 17  1  0
 17 18  1  0
 18 19  1  0
 19 20  2  0
 20 21  1  0
 21 22  1  0
 21 23  1  0
  1 24  1  0
 24 25  1  0
 25 26  1  0
 26 27  1  0
 27 28  1  0
 28 29  1  0
 29 30  2  0
 30 31  1  0
 31 32  1  0
 32 33  1  0
 30 34  1  0
 34 35  2  0
 35 36  1  0
 36 37  1  0
 37 38  1  0
 38 39  1  0
 36 40  2  0
 40 41  1  0
 41 42  1  0
 42 43  1  0
 43 44  1  0
 42 45  1  0
 45 46  1  0
 35 47  1  0
 47 48  1  0
 48 49  1  0
 49 50  1  0
 50 51  1  0
 51 52  2  0
 52 53  1  0
 53 54  1  0
 54 55  1  0
 55 56  1  0
 54 57  1  0
 51 58  1  0
 58 59  2  3
 59 60  1  0
 60 61  2  0
 60 62  1  0
 62 63  2  0
 63 64  1  0
 63 65  1  0
 65 66  2  0
 66 67  1  0
 67 68  2  0
 68 69  1  0
 69 70  2  3
 70 71  1  0
 71 72  3  0
 70 73  1  0
 73 74  3  0
 11  2  1  0
 23 17  1  0
 44 24  2  0
 57 48  2  0
 69 59  1  0
 10  5  1  0
 22 18  1  0
 43 26  2  0
 53 49  2  0
 68 62  1  0
 23  7  1  0
 41 27  2  0
 40 29  1  0
 57 34  1  0
  1 75  1  0
  6 76  1  0
  9 77  1  0
 17 78  1  0
 18 79  1  0
 19 80  1  0
 20 81  1  0
 21 82  1  0
 22 83  1  0
 22 84  1  0
 23 85  1  0
 32 86  1  0
 32 87  1  0
 33 88  1  0
 33 89  1  0
 33 90  1  0
 38 91  1  0
 38 92  1  0
 39 93  1  0
 39 94  1  0
 39 95  1  0
 44 96  1  0
 45 97  1  0
 45 98  1  0
 46 99  1  0
 46100  1  0
 46101  1  0
 52102  1  0
 55103  1  0
 55104  1  0
 56105  1  0
 56106  1  0
 56107  1  0
 58108  1  0
 65109  1  0
 66110  1  0
 67111  1  0
M  END

