
     RDKit          3D

117132  0  0  0  0  0  0  0  0999 V2000
    7.3420    2.5566    2.2368 C   0  0  0  0  0  0  0  0  0  0  0  0
    7.3110    2.4334    0.9017 C   0  0  0  0  0  0  0  0  0  0  0  0
    6.4345    1.5158    0.1515 C   0  0  0  0  0  0  0  0  0  0  0  0
    5.9109    0.4568    0.5908 O   0  0  0  0  0  0  0  0  0  0  0  0
    6.1939    2.0605   -1.1707 C   0  0  0  0  0  0  0  0  0  0  0  0
    5.1781    1.6558   -2.0687 C   0  0  0  0  0  0  0  0  0  0  0  0
    4.9329    2.5642   -3.0827 C   0  0  0  0  0  0  0  0  0  0  0  0
    5.6519    3.7980   -3.2119 C   0  0  0  0  0  0  0  0  0  0  0  0
    6.6743    4.1789   -2.3542 C   0  0  0  0  0  0  0  0  0  0  0  0
    6.9462    3.2510   -1.3131 C   0  0  0  0  0  0  0  0  0  0  0  0
    7.7774    3.4460   -0.0956 C   0  0  0  0  0  0  0  0  0  0  0  0
    8.8585    4.2677    0.0033 C   0  0  0  0  0  0  0  0  0  0  0  0
    9.6540    4.3351    1.2059 C   0  0  0  0  0  0  0  0  0  0  0  0
   10.2954    4.3938    2.1683 N   0  0  0  0  0  0  0  0  0  0  0  0
    9.4399    4.8916   -1.1622 C   0  0  0  0  0  0  0  0  0  0  0  0
    9.9465    5.3199   -2.1049 N   0  0  0  0  0  0  0  0  0  0  0  0
    4.7679    4.2137   -4.3518 C   0  0  0  0  0  0  0  0  0  0  0  0
    5.3454    4.1666   -5.7970 C   0  0  0  0  0  0  0  0  0  0  0  0
    6.3876    3.0780   -5.9019 C   0  0  0  0  0  0  0  0  0  0  0  0
    5.7370    1.9194   -5.7802 C   0  0  0  0  0  0  0  0  0  0  0  0
    4.2769    2.2573   -5.6120 C   0  0  0  0  0  0  0  0  0  0  0  0
    4.2014    3.4734   -6.5146 C   0  0  0  0  0  0  0  0  0  0  0  0
    4.0423    2.9397   -4.2304 C   0  0  0  0  0  0  0  0  0  0  0  0
    6.4824    1.7476    3.1086 C   0  0  0  0  0  0  0  0  0  0  0  0
    6.7337    0.4167    3.4945 C   0  0  0  0  0  0  0  0  0  0  0  0
    8.0808   -0.2562    3.4765 C   0  0  0  0  0  0  0  0  0  0  0  0
    8.3667   -0.9500    2.1496 C   0  0  0  0  0  0  0  0  0  0  0  0
    5.5493   -0.2109    3.8864 C   0  0  0  0  0  0  0  0  0  0  0  0
    5.0995   -1.8496    4.1056 S   0  0  0  0  0  0  0  0  0  0  0  0
    3.4562   -1.4105    4.1956 C   0  0  0  0  0  0  0  0  0  0  0  0
    2.2055   -1.9698    4.2800 C   0  0  0  0  0  0  0  0  0  0  0  0
    1.7754   -3.2948    4.3892 C   0  0  0  0  0  0  0  0  0  0  0  0
    0.3716   -3.5533    4.4124 C   0  0  0  0  0  0  0  0  0  0  0  0
   -0.0074   -4.8520    4.4473 N   0  0  0  0  0  0  0  0  0  0  0  0
    1.4803   -5.5795    4.4657 S   0  0  0  0  0  0  0  0  0  0  0  0
    2.6054   -4.3659    4.4186 N   0  0  0  0  0  0  0  0  0  0  0  0
   -0.5226   -2.4779    4.3047 C   0  0  0  0  0  0  0  0  0  0  0  0
   -1.8667   -2.4689    4.0362 C   0  0  0  0  0  0  0  0  0  0  0  0
   -3.0190   -3.6413    3.5848 S   0  0  0  0  0  0  0  0  0  0  0  0
   -3.9941   -2.4273    2.8904 C   0  0  0  0  0  0  0  0  0  0  0  0
   -5.1225   -2.4357    2.0979 C   0  0  0  0  0  0  0  0  0  0  0  0
   -6.1296   -3.6310    1.4856 S   0  0  0  0  0  0  0  0  0  0  0  0
   -6.9896   -2.5365    0.4988 C   0  0  0  0  0  0  0  0  0  0  0  0
   -6.4769   -1.2308    0.6441 C   0  0  0  0  0  0  0  0  0  0  0  0
   -7.0026   -0.0106   -0.0585 C   0  0  0  0  0  0  0  0  0  0  0  0
   -8.2085    0.5582    0.6939 C   0  0  0  0  0  0  0  0  0  0  0  0
   -5.4214   -1.2183    1.5544 C   0  0  0  0  0  0  0  0  0  0  0  0
   -4.2687   -0.0507    2.0089 S   0  0  0  0  0  0  0  0  0  0  0  0
   -3.4058   -1.1759    2.9529 C   0  0  0  0  0  0  0  0  0  0  0  0
   -2.1842   -1.2045    3.6258 C   0  0  0  0  0  0  0  0  0  0  0  0
   -1.1087   -0.3734    3.6175 N   0  0  0  0  0  0  0  0  0  0  0  0
   -0.0856   -1.1562    4.1079 C   0  0  0  0  0  0  0  0  0  0  0  0
    1.3098   -0.8879    4.1894 C   0  0  0  0  0  0  0  0  0  0  0  0
    1.9806    0.3065    4.1321 N   0  0  0  0  0  0  0  0  0  0  0  0
    3.2749   -0.0741    4.0755 C   0  0  0  0  0  0  0  0  0  0  0  0
    4.4526    0.6141    3.8980 C   0  0  0  0  0  0  0  0  0  0  0  0
    4.8386    2.1425    3.3431 S   0  0  0  0  0  0  0  0  0  0  0  0
    1.5336    1.5894    4.6845 C   0  0  0  0  0  0  0  0  0  0  0  0
    2.1209    1.8331    6.0733 C   0  0  0  0  0  0  0  0  0  0  0  0
   -1.0043    0.8179    2.7657 C   0  0  0  0  0  0  0  0  0  0  0  0
   -1.7412    2.0175    3.3664 C   0  0  0  0  0  0  0  0  0  0  0  0
   -7.9498   -2.9700   -0.5292 C   0  0  0  0  0  0  0  0  0  0  0  0
   -7.6154   -3.0563   -1.8283 C   0  0  0  0  0  0  0  0  0  0  0  0
   -6.2355   -2.9830   -2.3479 C   0  0  0  0  0  0  0  0  0  0  0  0
   -5.2353   -2.4637   -1.7769 O   0  0  0  0  0  0  0  0  0  0  0  0
   -6.1736   -3.7216   -3.5964 C   0  0  0  0  0  0  0  0  0  0  0  0
   -5.0343   -4.1148   -4.2975 C   0  0  0  0  0  0  0  0  0  0  0  0
   -5.1794   -5.0243   -5.3682 C   0  0  0  0  0  0  0  0  0  0  0  0
   -4.0822   -5.4942   -6.1001 O   0  0  0  0  0  0  0  0  0  0  0  0
   -2.7560   -5.0006   -5.9686 C   0  0  0  0  0  0  0  0  0  0  0  0
   -6.4593   -5.5084   -5.6976 C   0  0  0  0  0  0  0  0  0  0  0  0
   -7.5899   -5.1070   -4.9676 C   0  0  0  0  0  0  0  0  0  0  0  0
   -7.4361   -4.1904   -3.9190 C   0  0  0  0  0  0  0  0  0  0  0  0
   -8.4183   -3.7133   -2.9005 C   0  0  0  0  0  0  0  0  0  0  0  0
   -9.7667   -3.6807   -3.0262 C   0  0  0  0  0  0  0  0  0  0  0  0
  -10.4446   -4.1755   -4.1978 C   0  0  0  0  0  0  0  0  0  0  0  0
  -10.9999   -4.5680   -5.1352 N   0  0  0  0  0  0  0  0  0  0  0  0
  -10.6000   -3.0045   -2.0624 C   0  0  0  0  0  0  0  0  0  0  0  0
  -11.2773   -2.4652   -1.2920 N   0  0  0  0  0  0  0  0  0  0  0  0
    7.7711    3.4558    2.6872 H   0  0  0  0  0  0  0  0  0  0  0  0
    4.5694    0.7737   -1.9188 H   0  0  0  0  0  0  0  0  0  0  0  0
    7.1302    5.1540   -2.4250 H   0  0  0  0  0  0  0  0  0  0  0  0
    4.1410    5.1045   -4.1226 H   0  0  0  0  0  0  0  0  0  0  0  0
    5.6498    5.1484   -6.2141 H   0  0  0  0  0  0  0  0  0  0  0  0
    7.4459    3.1920   -6.1106 H   0  0  0  0  0  0  0  0  0  0  0  0
    6.1829    0.9336   -5.8768 H   0  0  0  0  0  0  0  0  0  0  0  0
    3.5713    1.4399   -5.8595 H   0  0  0  0  0  0  0  0  0  0  0  0
    4.4217    3.2442   -7.5887 H   0  0  0  0  0  0  0  0  0  0  0  0
    3.2323    4.0228   -6.4531 H   0  0  0  0  0  0  0  0  0  0  0  0
    2.9730    3.0709   -3.9456 H   0  0  0  0  0  0  0  0  0  0  0  0
    8.8809    0.4935    3.6768 H   0  0  0  0  0  0  0  0  0  0  0  0
    8.1250   -1.0056    4.2976 H   0  0  0  0  0  0  0  0  0  0  0  0
    8.5423   -0.1931    1.3545 H   0  0  0  0  0  0  0  0  0  0  0  0
    9.2797   -1.5712    2.2565 H   0  0  0  0  0  0  0  0  0  0  0  0
    7.5215   -1.6138    1.8713 H   0  0  0  0  0  0  0  0  0  0  0  0
   -6.2103    0.7714   -0.1176 H   0  0  0  0  0  0  0  0  0  0  0  0
   -7.3068   -0.2582   -1.1005 H   0  0  0  0  0  0  0  0  0  0  0  0
   -8.5945    1.4538    0.1610 H   0  0  0  0  0  0  0  0  0  0  0  0
   -9.0156   -0.2012    0.7347 H   0  0  0  0  0  0  0  0  0  0  0  0
   -7.9084    0.8442    1.7264 H   0  0  0  0  0  0  0  0  0  0  0  0
    1.8213    2.4152    3.9975 H   0  0  0  0  0  0  0  0  0  0  0  0
    0.4409    1.5894    4.8102 H   0  0  0  0  0  0  0  0  0  0  0  0
    1.9144    0.9631    6.7352 H   0  0  0  0  0  0  0  0  0  0  0  0
    3.2153    1.9930    6.0189 H   0  0  0  0  0  0  0  0  0  0  0  0
    1.6607    2.7340    6.5186 H   0  0  0  0  0  0  0  0  0  0  0  0
   -1.4220    0.6038    1.7553 H   0  0  0  0  0  0  0  0  0  0  0  0
    0.0518    1.0821    2.5725 H   0  0  0  0  0  0  0  0  0  0  0  0
   -1.7093    2.0049    4.4764 H   0  0  0  0  0  0  0  0  0  0  0  0
   -1.2794    2.9565    3.0020 H   0  0  0  0  0  0  0  0  0  0  0  0
   -2.8053    2.0241    3.0613 H   0  0  0  0  0  0  0  0  0  0  0  0
   -8.8349   -3.4576   -0.1861 H   0  0  0  0  0  0  0  0  0  0  0  0
   -4.0608   -3.7579   -3.9794 H   0  0  0  0  0  0  0  0  0  0  0  0
   -2.0981   -5.5233   -6.6892 H   0  0  0  0  0  0  0  0  0  0  0  0
   -2.7357   -3.9131   -6.1901 H   0  0  0  0  0  0  0  0  0  0  0  0
   -2.3786   -5.1911   -4.9426 H   0  0  0  0  0  0  0  0  0  0  0  0
   -6.5758   -6.2297   -6.4902 H   0  0  0  0  0  0  0  0  0  0  0  0
   -8.5367   -5.5638   -5.1901 H   0  0  0  0  0  0  0  0  0  0  0  0
  1  2  2  3
  2  3  1  0
  3  4  2  0
  3  5  1  0
  5  6  2  0
  6  7  1  0
  7  8  2  0
  8  9  1  0
  9 10  2  0
 10 11  1  0
 11 12  2  3
 12 13  1  0
 13 14  3  0
 12 15  1  0
 15 16  3  0
  8 17  1  0
 17 18  1  0
 18 19  1  0
 19 20  2  0
 20 21  1  0
 21 22  1  0
 21 23  1  0
  1 24  1  0
 24 25  2  0
 25 26  1  0
 26 27  1  0
 25 28  1  0
 28 29  1  0
 29 30  1  0
 30 31  1  0
 31 32  1  0
 32 33  1  0
 33 34  2  0
 34 35  1  0
 35 36  1  0
 33 37  1  0
 37 38  1  0
 38 39  1  0
 39 40  1  0
 40 41  1  0
 41 42  1  0
 42 43  1  0
 43 44  2  0
 44 45  1  0
 45 46  1  0
 44 47  1  0
 47 48  1  0
 48 49  1  0
 49 50  1  0
 50 51  1  0
 51 52  1  0
 52 53  1  0
 53 54  1  0
 54 55  1  0
 55 56  1  0
 56 57  1  0
 54 58  1  0
 58 59  1  0
 51 60  1  0
 60 61  1  0
 43 62  1  0
 62 63  2  3
 63 64  1  0
 64 65  2  0
 64 66  1  0
 66 67  2  0
 67 68  1  0
 68 69  1  0
 69 70  1  0
 68 71  2  0
 71 72  1  0
 72 73  2  0
 73 74  1  0
 74 75  2  3
 75 76  1  0
 76 77  3  0
 75 78  1  0
 78 79  3  0
 11  2  1  0
 23 17  1  0
 57 24  1  0
 74 63  1  0
 10  5  1  0
 22 18  1  0
 56 28  2  0
 73 66  1  0
 23  7  1  0
 55 30  2  0
 53 31  2  0
 36 32  2  0
 52 37  2  0
 50 38  2  0
 49 40  2  0
 47 41  2  0
  1 80  1  0
  6 81  1  0
  9 82  1  0
 17 83  1  0
 18 84  1  0
 19 85  1  0
 20 86  1  0
 21 87  1  0
 22 88  1  0
 22 89  1  0
 23 90  1  0
 26 91  1  0
 26 92  1  0
 27 93  1  0
 27 94  1  0
 27 95  1  0
 45 96  1  0
 45 97  1  0
 46 98  1  0
 46 99  1  0
 46100  1  0
 58101  1  0
 58102  1  0
 59103  1  0
 59104  1  0
 59105  1  0
 60106  1  0
 60107  1  0
 61108  1  0
 61109  1  0
 61110  1  0
 62111  1  0
 67112  1  0
 70113  1  0
 70114  1  0
 70115  1  0
 71116  1  0
 72117  1  0
M  END

