
     RDKit          3D

116131  0  0  0  0  0  0  0  0999 V2000
   -6.7219    4.9468    0.0794 C   0  0  0  0  0  0  0  0  0  0  0  0
   -7.1848    3.8298   -0.5200 C   0  0  0  0  0  0  0  0  0  0  0  0
   -6.5927    2.4918   -0.3763 C   0  0  0  0  0  0  0  0  0  0  0  0
   -5.9131    2.0749    0.6001 O   0  0  0  0  0  0  0  0  0  0  0  0
   -6.9051    1.7171   -1.5530 C   0  0  0  0  0  0  0  0  0  0  0  0
   -6.3770    0.4516   -1.8983 C   0  0  0  0  0  0  0  0  0  0  0  0
   -6.6971    0.0466   -3.1799 C   0  0  0  0  0  0  0  0  0  0  0  0
   -7.4935    0.8311   -4.0802 C   0  0  0  0  0  0  0  0  0  0  0  0
   -8.0270    2.0656   -3.7394 C   0  0  0  0  0  0  0  0  0  0  0  0
   -7.7271    2.4927   -2.4115 C   0  0  0  0  0  0  0  0  0  0  0  0
   -8.0570    3.7799   -1.7313 C   0  0  0  0  0  0  0  0  0  0  0  0
   -9.0794    4.6188   -2.0300 C   0  0  0  0  0  0  0  0  0  0  0  0
   -9.9481    4.4021   -3.1601 C   0  0  0  0  0  0  0  0  0  0  0  0
  -10.6590    4.2318   -4.0590 N   0  0  0  0  0  0  0  0  0  0  0  0
   -9.4926    5.6613   -1.1231 C   0  0  0  0  0  0  0  0  0  0  0  0
   -9.8601    6.4796   -0.3932 N   0  0  0  0  0  0  0  0  0  0  0  0
   -7.3206   -0.2014   -5.1567 C   0  0  0  0  0  0  0  0  0  0  0  0
   -8.5514   -1.1070   -5.4577 C   0  0  0  0  0  0  0  0  0  0  0  0
   -8.0153   -2.2810   -6.2449 C   0  0  0  0  0  0  0  0  0  0  0  0
   -7.2929   -3.0138   -5.3887 C   0  0  0  0  0  0  0  0  0  0  0  0
   -7.3571   -2.3083   -4.0540 C   0  0  0  0  0  0  0  0  0  0  0  0
   -8.7917   -1.8063   -4.1274 C   0  0  0  0  0  0  0  0  0  0  0  0
   -6.5162   -1.0082   -4.2296 C   0  0  0  0  0  0  0  0  0  0  0  0
   -5.4620    4.9244    0.8336 C   0  0  0  0  0  0  0  0  0  0  0  0
   -5.3280    4.6707    2.2122 C   0  0  0  0  0  0  0  0  0  0  0  0
   -6.4669    4.6649    3.1930 C   0  0  0  0  0  0  0  0  0  0  0  0
   -6.8561    6.0916    3.5730 C   0  0  0  0  0  0  0  0  0  0  0  0
   -4.0044    4.3422    2.5285 C   0  0  0  0  0  0  0  0  0  0  0  0
   -3.2462    3.7496    3.9413 S   0  0  0  0  0  0  0  0  0  0  0  0
   -1.8248    3.4253    3.0709 C   0  0  0  0  0  0  0  0  0  0  0  0
   -0.5618    2.9466    3.2680 C   0  0  0  0  0  0  0  0  0  0  0  0
    0.1459    2.6205    4.4294 C   0  0  0  0  0  0  0  0  0  0  0  0
    1.5281    2.2776    4.3125 C   0  0  0  0  0  0  0  0  0  0  0  0
    2.1737    1.9533    5.4601 N   0  0  0  0  0  0  0  0  0  0  0  0
    0.9340    2.1480    6.5445 S   0  0  0  0  0  0  0  0  0  0  0  0
   -0.3953    2.6111    5.6700 N   0  0  0  0  0  0  0  0  0  0  0  0
    2.1096    2.2383    3.0367 C   0  0  0  0  0  0  0  0  0  0  0  0
    3.2898    1.6891    2.6102 C   0  0  0  0  0  0  0  0  0  0  0  0
    4.5323    0.7645    3.3158 S   0  0  0  0  0  0  0  0  0  0  0  0
    4.9505    0.1315    1.7967 C   0  0  0  0  0  0  0  0  0  0  0  0
    5.7733   -0.8955    1.3686 C   0  0  0  0  0  0  0  0  0  0  0  0
    6.9345   -1.8890    2.0539 S   0  0  0  0  0  0  0  0  0  0  0  0
    7.1072   -2.8772    0.6686 C   0  0  0  0  0  0  0  0  0  0  0  0
    6.2485   -2.3966   -0.3484 C   0  0  0  0  0  0  0  0  0  0  0  0
    6.0765   -3.0064   -1.7118 C   0  0  0  0  0  0  0  0  0  0  0  0
    6.9528   -2.3002   -2.7386 C   0  0  0  0  0  0  0  0  0  0  0  0
    5.5346   -1.2780    0.0805 C   0  0  0  0  0  0  0  0  0  0  0  0
    4.3065   -0.3342   -0.6241 S   0  0  0  0  0  0  0  0  0  0  0  0
    4.1000    0.5678    0.8018 C   0  0  0  0  0  0  0  0  0  0  0  0
    3.1689    1.4836    1.2703 C   0  0  0  0  0  0  0  0  0  0  0  0
    1.9737    1.9060    0.7806 N   0  0  0  0  0  0  0  0  0  0  0  0
    1.3569    2.4617    1.8708 C   0  0  0  0  0  0  0  0  0  0  0  0
    0.0301    2.9369    1.9977 C   0  0  0  0  0  0  0  0  0  0  0  0
   -0.7909    3.5041    1.0571 N   0  0  0  0  0  0  0  0  0  0  0  0
   -1.9214    3.7583    1.7615 C   0  0  0  0  0  0  0  0  0  0  0  0
   -3.1501    4.3130    1.4557 C   0  0  0  0  0  0  0  0  0  0  0  0
   -3.9637    4.7025    0.0531 S   0  0  0  0  0  0  0  0  0  0  0  0
   -0.3669    4.2666   -0.1322 C   0  0  0  0  0  0  0  0  0  0  0  0
   -1.1311    3.8509   -1.3911 C   0  0  0  0  0  0  0  0  0  0  0  0
    1.3130    1.3003   -0.3830 C   0  0  0  0  0  0  0  0  0  0  0  0
    0.7370   -0.0692   -0.0304 C   0  0  0  0  0  0  0  0  0  0  0  0
    8.0949   -3.9623    0.4550 C   0  0  0  0  0  0  0  0  0  0  0  0
    8.5777   -4.8537    1.3524 C   0  0  0  0  0  0  0  0  0  0  0  0
    8.1395   -5.0709    2.7425 C   0  0  0  0  0  0  0  0  0  0  0  0
    7.5311   -4.2550    3.4892 O   0  0  0  0  0  0  0  0  0  0  0  0
    8.5711   -6.3871    3.1610 C   0  0  0  0  0  0  0  0  0  0  0  0
    8.3180   -7.0352    4.3696 C   0  0  0  0  0  0  0  0  0  0  0  0
    8.7659   -8.3608    4.5285 C   0  0  0  0  0  0  0  0  0  0  0  0
    8.4988   -9.0957    5.8096 C   0  0  0  0  0  0  0  0  0  0  0  0
    9.3977   -9.0207    3.4462 C   0  0  0  0  0  0  0  0  0  0  0  0
    9.7611  -10.3252    3.5530 F   0  0  0  0  0  0  0  0  0  0  0  0
    9.6515   -8.3404    2.2465 C   0  0  0  0  0  0  0  0  0  0  0  0
    9.2705   -6.9946    2.1334 C   0  0  0  0  0  0  0  0  0  0  0  0
    9.4394   -6.0312    1.0131 C   0  0  0  0  0  0  0  0  0  0  0  0
   10.3600   -6.1137    0.0119 C   0  0  0  0  0  0  0  0  0  0  0  0
   10.6516   -5.0080   -0.8635 C   0  0  0  0  0  0  0  0  0  0  0  0
   10.8926   -4.1266   -1.5757 N   0  0  0  0  0  0  0  0  0  0  0  0
   11.2453   -7.2401   -0.1314 C   0  0  0  0  0  0  0  0  0  0  0  0
   11.9708   -8.1344   -0.2535 N   0  0  0  0  0  0  0  0  0  0  0  0
   -7.1098    5.9238   -0.1860 H   0  0  0  0  0  0  0  0  0  0  0  0
   -5.7233   -0.1178   -1.2499 H   0  0  0  0  0  0  0  0  0  0  0  0
   -8.5684    2.6543   -4.4646 H   0  0  0  0  0  0  0  0  0  0  0  0
   -6.7635    0.1662   -6.0454 H   0  0  0  0  0  0  0  0  0  0  0  0
   -9.4299   -0.5972   -5.9104 H   0  0  0  0  0  0  0  0  0  0  0  0
   -8.2362   -2.5464   -7.2740 H   0  0  0  0  0  0  0  0  0  0  0  0
   -6.8210   -3.9656   -5.6054 H   0  0  0  0  0  0  0  0  0  0  0  0
   -7.1042   -2.9339   -3.1717 H   0  0  0  0  0  0  0  0  0  0  0  0
   -9.5434   -2.6304   -4.1896 H   0  0  0  0  0  0  0  0  0  0  0  0
   -9.0828   -1.1251   -3.2955 H   0  0  0  0  0  0  0  0  0  0  0  0
   -5.4540   -1.1526   -4.5344 H   0  0  0  0  0  0  0  0  0  0  0  0
   -7.3440    4.1508    2.7432 H   0  0  0  0  0  0  0  0  0  0  0  0
   -6.1875    4.1063    4.1143 H   0  0  0  0  0  0  0  0  0  0  0  0
   -6.0170    6.5875    4.0979 H   0  0  0  0  0  0  0  0  0  0  0  0
   -7.7332    6.0675    4.2559 H   0  0  0  0  0  0  0  0  0  0  0  0
   -7.1203    6.6783    2.6651 H   0  0  0  0  0  0  0  0  0  0  0  0
    5.0111   -2.9301   -2.0216 H   0  0  0  0  0  0  0  0  0  0  0  0
    6.3255   -4.0899   -1.6888 H   0  0  0  0  0  0  0  0  0  0  0  0
    8.0198   -2.3388   -2.4306 H   0  0  0  0  0  0  0  0  0  0  0  0
    6.8529   -2.8107   -3.7177 H   0  0  0  0  0  0  0  0  0  0  0  0
    6.6384   -1.2437   -2.8473 H   0  0  0  0  0  0  0  0  0  0  0  0
   -0.5204    5.3496    0.0545 H   0  0  0  0  0  0  0  0  0  0  0  0
    0.7232    4.1560   -0.3045 H   0  0  0  0  0  0  0  0  0  0  0  0
   -1.7904    2.9799   -1.1882 H   0  0  0  0  0  0  0  0  0  0  0  0
   -0.4169    3.5739   -2.1992 H   0  0  0  0  0  0  0  0  0  0  0  0
   -1.7482    4.6917   -1.7668 H   0  0  0  0  0  0  0  0  0  0  0  0
    2.0325    1.2096   -1.2234 H   0  0  0  0  0  0  0  0  0  0  0  0
    0.4804    1.9190   -0.7422 H   0  0  0  0  0  0  0  0  0  0  0  0
   -0.0378    0.0387    0.7649 H   0  0  0  0  0  0  0  0  0  0  0  0
    0.2692   -0.5201   -0.9304 H   0  0  0  0  0  0  0  0  0  0  0  0
    1.5368   -0.7516    0.3311 H   0  0  0  0  0  0  0  0  0  0  0  0
    8.3573   -4.1084   -0.5780 H   0  0  0  0  0  0  0  0  0  0  0  0
    7.7798   -6.5278    5.1639 H   0  0  0  0  0  0  0  0  0  0  0  0
    9.3355   -9.7872    6.0462 H   0  0  0  0  0  0  0  0  0  0  0  0
    7.5594   -9.6787    5.7180 H   0  0  0  0  0  0  0  0  0  0  0  0
    8.4041   -8.3835    6.6576 H   0  0  0  0  0  0  0  0  0  0  0  0
   10.0987   -8.8821    1.4285 H   0  0  0  0  0  0  0  0  0  0  0  0
  1  2  2  3
  2  3  1  0
  3  4  2  0
  3  5  1  0
  5  6  2  0
  6  7  1  0
  7  8  2  0
  8  9  1  0
  9 10  2  0
 10 11  1  0
 11 12  2  3
 12 13  1  0
 13 14  3  0
 12 15  1  0
 15 16  3  0
  8 17  1  0
 17 18  1  0
 18 19  1  0
 19 20  2  0
 20 21  1  0
 21 22  1  0
 21 23  1  0
  1 24  1  0
 24 25  2  0
 25 26  1  0
 26 27  1  0
 25 28  1  0
 28 29  1  0
 29 30  1  0
 30 31  1  0
 31 32  1  0
 32 33  1  0
 33 34  2  0
 34 35  1  0
 35 36  1  0
 33 37  1  0
 37 38  1  0
 38 39  1  0
 39 40  1  0
 40 41  1  0
 41 42  1  0
 42 43  1  0
 43 44  2  0
 44 45  1  0
 45 46  1  0
 44 47  1  0
 47 48  1  0
 48 49  1  0
 49 50  1  0
 50 51  1  0
 51 52  1  0
 52 53  1  0
 53 54  1  0
 54 55  1  0
 55 56  1  0
 56 57  1  0
 54 58  1  0
 58 59  1  0
 51 60  1  0
 60 61  1  0
 43 62  1  0
 62 63  2  3
 63 64  1  0
 64 65  2  0
 64 66  1  0
 66 67  2  0
 67 68  1  0
 68 69  1  0
 68 70  2  0
 70 71  1  0
 70 72  1  0
 72 73  2  0
 73 74  1  0
 74 75  2  3
 75 76  1  0
 76 77  3  0
 75 78  1  0
 78 79  3  0
 11  2  1  0
 23 17  1  0
 57 24  1  0
 74 63  1  0
 10  5  1  0
 22 18  1  0
 56 28  2  0
 73 66  1  0
 23  7  1  0
 55 30  2  0
 53 31  2  0
 36 32  2  0
 52 37  2  0
 50 38  2  0
 49 40  2  0
 47 41  2  0
  1 80  1  0
  6 81  1  0
  9 82  1  0
 17 83  1  0
 18 84  1  0
 19 85  1  0
 20 86  1  0
 21 87  1  0
 22 88  1  0
 22 89  1  0
 23 90  1  0
 26 91  1  0
 26 92  1  0
 27 93  1  0
 27 94  1  0
 27 95  1  0
 45 96  1  0
 45 97  1  0
 46 98  1  0
 46 99  1  0
 46100  1  0
 58101  1  0
 58102  1  0
 59103  1  0
 59104  1  0
 59105  1  0
 60106  1  0
 60107  1  0
 61108  1  0
 61109  1  0
 61110  1  0
 62111  1  0
 67112  1  0
 69113  1  0
 69114  1  0
 69115  1  0
 72116  1  0
M  END

