
     RDKit          3D

115130  0  0  0  0  0  0  0  0999 V2000
    5.9552   -1.3963   -3.7931 C   0  0  0  0  0  0  0  0  0  0  0  0
    5.1976   -0.4039   -4.2990 C   0  0  0  0  0  0  0  0  0  0  0  0
    4.0923    0.2560   -3.5965 C   0  0  0  0  0  0  0  0  0  0  0  0
    3.5320   -0.1404   -2.5407 O   0  0  0  0  0  0  0  0  0  0  0  0
    3.8127    1.5129   -4.2430 C   0  0  0  0  0  0  0  0  0  0  0  0
    2.8855    2.4952   -3.8247 C   0  0  0  0  0  0  0  0  0  0  0  0
    2.8800    3.6328   -4.6094 C   0  0  0  0  0  0  0  0  0  0  0  0
    3.7405    3.8083   -5.7402 C   0  0  0  0  0  0  0  0  0  0  0  0
    4.6542    2.8539   -6.1519 C   0  0  0  0  0  0  0  0  0  0  0  0
    4.6747    1.6662   -5.3613 C   0  0  0  0  0  0  0  0  0  0  0  0
    5.5166    0.4387   -5.4897 C   0  0  0  0  0  0  0  0  0  0  0  0
    6.2466    0.0515   -6.5674 C   0  0  0  0  0  0  0  0  0  0  0  0
    6.5170    0.9177   -7.6821 C   0  0  0  0  0  0  0  0  0  0  0  0
    6.7476    1.6187   -8.5778 N   0  0  0  0  0  0  0  0  0  0  0  0
    6.7491   -1.2922   -6.7088 C   0  0  0  0  0  0  0  0  0  0  0  0
    7.1414   -2.3743   -6.8211 N   0  0  0  0  0  0  0  0  0  0  0  0
    3.1741    5.1767   -5.9808 C   0  0  0  0  0  0  0  0  0  0  0  0
    2.1783    5.3208   -7.1674 C   0  0  0  0  0  0  0  0  0  0  0  0
    1.4698    6.6395   -6.9553 C   0  0  0  0  0  0  0  0  0  0  0  0
    0.6725    6.4778   -5.8946 C   0  0  0  0  0  0  0  0  0  0  0  0
    0.8672    5.0531   -5.4269 C   0  0  0  0  0  0  0  0  0  0  0  0
    1.0440    4.3869   -6.7818 C   0  0  0  0  0  0  0  0  0  0  0  0
    2.2976    4.9978   -4.8183 C   0  0  0  0  0  0  0  0  0  0  0  0
    5.5346   -2.2471   -2.6755 C   0  0  0  0  0  0  0  0  0  0  0  0
    6.4199   -2.4558   -1.2324 S   0  0  0  0  0  0  0  0  0  0  0  0
    5.2718   -3.4885   -0.5714 C   0  0  0  0  0  0  0  0  0  0  0  0
    4.8306   -3.7460    0.6947 C   0  0  0  0  0  0  0  0  0  0  0  0
    5.1736   -2.9634    2.1621 S   0  0  0  0  0  0  0  0  0  0  0  0
    3.5969   -3.2512    2.7158 C   0  0  0  0  0  0  0  0  0  0  0  0
    2.7634   -2.5647    3.5519 C   0  0  0  0  0  0  0  0  0  0  0  0
    3.1013   -1.4890    4.3785 C   0  0  0  0  0  0  0  0  0  0  0  0
    2.0903   -0.5725    4.7516 C   0  0  0  0  0  0  0  0  0  0  0  0
    2.4781    0.5141    5.4693 N   0  0  0  0  0  0  0  0  0  0  0  0
    4.0992    0.2094    5.5909 S   0  0  0  0  0  0  0  0  0  0  0  0
    4.3708   -1.2011    4.7688 N   0  0  0  0  0  0  0  0  0  0  0  0
    0.7981   -0.7855    4.2790 C   0  0  0  0  0  0  0  0  0  0  0  0
   -0.2689    0.0521    4.3067 C   0  0  0  0  0  0  0  0  0  0  0  0
   -0.7035    1.5534    4.9643 S   0  0  0  0  0  0  0  0  0  0  0  0
   -2.2805    1.3756    4.3389 C   0  0  0  0  0  0  0  0  0  0  0  0
   -3.4295    2.1520    4.4310 C   0  0  0  0  0  0  0  0  0  0  0  0
   -3.4945    3.4656    5.1628 C   0  0  0  0  0  0  0  0  0  0  0  0
   -3.6391    3.2508    6.6657 C   0  0  0  0  0  0  0  0  0  0  0  0
   -4.5050    1.5427    3.7571 C   0  0  0  0  0  0  0  0  0  0  0  0
   -4.0050    0.0538    3.0825 S   0  0  0  0  0  0  0  0  0  0  0  0
   -2.4292    0.2024    3.6446 C   0  0  0  0  0  0  0  0  0  0  0  0
   -1.2596   -0.5452    3.6216 C   0  0  0  0  0  0  0  0  0  0  0  0
   -0.9260   -1.7772    3.1587 N   0  0  0  0  0  0  0  0  0  0  0  0
    0.4032   -1.9179    3.5270 C   0  0  0  0  0  0  0  0  0  0  0  0
    1.4397   -2.8404    3.1267 C   0  0  0  0  0  0  0  0  0  0  0  0
    1.4886   -3.7073    2.0528 N   0  0  0  0  0  0  0  0  0  0  0  0
    2.8073   -3.8518    1.7878 C   0  0  0  0  0  0  0  0  0  0  0  0
    3.4892   -4.0751    0.5781 C   0  0  0  0  0  0  0  0  0  0  0  0
    3.0634   -3.9693   -0.7213 N   0  0  0  0  0  0  0  0  0  0  0  0
    4.1933   -3.6155   -1.3924 C   0  0  0  0  0  0  0  0  0  0  0  0
    4.3147   -2.9418   -2.6084 C   0  0  0  0  0  0  0  0  0  0  0  0
    1.7084   -3.7201   -1.2287 C   0  0  0  0  0  0  0  0  0  0  0  0
    1.2282   -2.3114   -0.8877 C   0  0  0  0  0  0  0  0  0  0  0  0
    0.5833   -4.8204    1.7320 C   0  0  0  0  0  0  0  0  0  0  0  0
    0.1858   -5.6065    2.9862 C   0  0  0  0  0  0  0  0  0  0  0  0
   -1.9605   -2.7822    2.8701 C   0  0  0  0  0  0  0  0  0  0  0  0
   -2.6766   -3.2202    4.1464 C   0  0  0  0  0  0  0  0  0  0  0  0
   -5.8957    2.0128    3.8190 C   0  0  0  0  0  0  0  0  0  0  0  0
   -6.7652    2.0604    2.7939 C   0  0  0  0  0  0  0  0  0  0  0  0
   -8.2099    2.1398    3.0088 C   0  0  0  0  0  0  0  0  0  0  0  0
   -8.7822    2.3489    4.1144 O   0  0  0  0  0  0  0  0  0  0  0  0
   -8.8782    1.8489    1.7585 C   0  0  0  0  0  0  0  0  0  0  0  0
  -10.2505    1.7597    1.4980 C   0  0  0  0  0  0  0  0  0  0  0  0
  -11.1795    1.9824    2.5135 O   0  0  0  0  0  0  0  0  0  0  0  0
  -10.6657    1.4371    0.1919 C   0  0  0  0  0  0  0  0  0  0  0  0
   -9.7148    1.1725   -0.8073 C   0  0  0  0  0  0  0  0  0  0  0  0
   -8.3419    1.2558   -0.5220 C   0  0  0  0  0  0  0  0  0  0  0  0
   -7.9296    1.6313    0.7730 C   0  0  0  0  0  0  0  0  0  0  0  0
   -6.5627    1.8847    1.3198 C   0  0  0  0  0  0  0  0  0  0  0  0
   -5.5010    2.3114    0.5879 C   0  0  0  0  0  0  0  0  0  0  0  0
   -4.3536    2.9526    1.1747 C   0  0  0  0  0  0  0  0  0  0  0  0
   -3.4094    3.4595    1.6211 N   0  0  0  0  0  0  0  0  0  0  0  0
   -5.5051    2.3217   -0.8555 C   0  0  0  0  0  0  0  0  0  0  0  0
   -5.4955    2.3431   -2.0130 N   0  0  0  0  0  0  0  0  0  0  0  0
    6.9404   -1.5861   -4.1980 H   0  0  0  0  0  0  0  0  0  0  0  0
    2.2458    2.3888   -2.9569 H   0  0  0  0  0  0  0  0  0  0  0  0
    5.3024    3.0425   -6.9874 H   0  0  0  0  0  0  0  0  0  0  0  0
    3.9197    5.9987   -5.8741 H   0  0  0  0  0  0  0  0  0  0  0  0
    2.6058    5.1734   -8.1812 H   0  0  0  0  0  0  0  0  0  0  0  0
    1.5081    7.5197   -7.5896 H   0  0  0  0  0  0  0  0  0  0  0  0
   -0.0384    7.2057   -5.5157 H   0  0  0  0  0  0  0  0  0  0  0  0
    0.0531    4.6491   -4.7885 H   0  0  0  0  0  0  0  0  0  0  0  0
    1.3325    3.3136   -6.7275 H   0  0  0  0  0  0  0  0  0  0  0  0
    0.1468    4.4833   -7.4394 H   0  0  0  0  0  0  0  0  0  0  0  0
    2.4952    5.7018   -3.9792 H   0  0  0  0  0  0  0  0  0  0  0  0
   -2.5688    4.0481    4.9577 H   0  0  0  0  0  0  0  0  0  0  0  0
   -4.3517    4.0707    4.7977 H   0  0  0  0  0  0  0  0  0  0  0  0
   -3.7017    4.2375    7.1774 H   0  0  0  0  0  0  0  0  0  0  0  0
   -2.7583    2.7032    7.0623 H   0  0  0  0  0  0  0  0  0  0  0  0
   -4.5605    2.6705    6.8896 H   0  0  0  0  0  0  0  0  0  0  0  0
    3.5377   -2.8708   -3.3576 H   0  0  0  0  0  0  0  0  0  0  0  0
    1.6955   -3.8466   -2.3303 H   0  0  0  0  0  0  0  0  0  0  0  0
    1.0015   -4.4821   -0.8571 H   0  0  0  0  0  0  0  0  0  0  0  0
    2.0630   -1.5799   -0.9633 H   0  0  0  0  0  0  0  0  0  0  0  0
    0.4222   -2.0108   -1.5908 H   0  0  0  0  0  0  0  0  0  0  0  0
    0.8094   -2.2669    0.1368 H   0  0  0  0  0  0  0  0  0  0  0  0
    1.1025   -5.5613    1.0833 H   0  0  0  0  0  0  0  0  0  0  0  0
   -0.2653   -4.4852    1.1066 H   0  0  0  0  0  0  0  0  0  0  0  0
   -0.5569   -6.3846    2.7127 H   0  0  0  0  0  0  0  0  0  0  0  0
    1.0803   -6.0990    3.4188 H   0  0  0  0  0  0  0  0  0  0  0  0
   -0.2490   -4.9468    3.7634 H   0  0  0  0  0  0  0  0  0  0  0  0
   -1.5617   -3.6658    2.4097 H   0  0  0  0  0  0  0  0  0  0  0  0
   -2.6888   -2.3611    2.1511 H   0  0  0  0  0  0  0  0  0  0  0  0
   -1.9515   -3.6232    4.8851 H   0  0  0  0  0  0  0  0  0  0  0  0
   -3.4051   -4.0242    3.9006 H   0  0  0  0  0  0  0  0  0  0  0  0
   -3.2256   -2.3739    4.6091 H   0  0  0  0  0  0  0  0  0  0  0  0
   -6.2614    2.2436    4.8128 H   0  0  0  0  0  0  0  0  0  0  0  0
  -12.1778    1.9359    2.3367 H   0  0  0  0  0  0  0  0  0  0  0  0
  -11.7224    1.3651   -0.0375 H   0  0  0  0  0  0  0  0  0  0  0  0
  -10.0423    0.9036   -1.8049 H   0  0  0  0  0  0  0  0  0  0  0  0
   -7.6340    1.0058   -1.2953 H   0  0  0  0  0  0  0  0  0  0  0  0
  1  2  2  3
  2  3  1  0
  3  4  2  0
  3  5  1  0
  5  6  2  0
  6  7  1  0
  7  8  2  0
  8  9  1  0
  9 10  2  0
 10 11  1  0
 11 12  2  3
 12 13  1  0
 13 14  3  0
 12 15  1  0
 15 16  3  0
  8 17  1  0
 17 18  1  0
 18 19  1  0
 19 20  2  0
 20 21  1  0
 21 22  1  0
 21 23  1  0
  1 24  1  0
 24 25  1  0
 25 26  1  0
 26 27  1  0
 27 28  1  0
 28 29  1  0
 29 30  1  0
 30 31  1  0
 31 32  1  0
 32 33  2  0
 33 34  1  0
 34 35  1  0
 32 36  1  0
 36 37  1  0
 37 38  1  0
 38 39  1  0
 39 40  1  0
 40 41  1  0
 41 42  1  0
 40 43  2  0
 43 44  1  0
 44 45  1  0
 45 46  1  0
 46 47  1  0
 47 48  1  0
 48 49  1  0
 49 50  1  0
 50 51  1  0
 51 52  1  0
 52 53  1  0
 53 54  1  0
 54 55  1  0
 53 56  1  0
 56 57  1  0
 50 58  1  0
 58 59  1  0
 47 60  1  0
 60 61  1  0
 43 62  1  0
 62 63  2  3
 63 64  1  0
 64 65  2  0
 64 66  1  0
 66 67  2  0
 67 68  1  0
 67 69  1  0
 69 70  2  0
 70 71  1  0
 71 72  2  0
 72 73  1  0
 73 74  2  3
 74 75  1  0
 75 76  3  0
 74 77  1  0
 77 78  3  0
 11  2  1  0
 23 17  1  0
 55 24  2  0
 73 63  1  0
 10  5  1  0
 22 18  1  0
 54 26  2  0
 72 66  1  0
 23  7  1  0
 52 27  2  0
 51 29  2  0
 49 30  2  0
 35 31  2  0
 48 36  2  0
 46 37  2  0
 45 39  2  0
  1 79  1  0
  6 80  1  0
  9 81  1  0
 17 82  1  0
 18 83  1  0
 19 84  1  0
 20 85  1  0
 21 86  1  0
 22 87  1  0
 22 88  1  0
 23 89  1  0
 41 90  1  0
 41 91  1  0
 42 92  1  0
 42 93  1  0
 42 94  1  0
 55 95  1  0
 56 96  1  0
 56 97  1  0
 57 98  1  0
 57 99  1  0
 57100  1  0
 58101  1  0
 58102  1  0
 59103  1  0
 59104  1  0
 59105  1  0
 60106  1  0
 60107  1  0
 61108  1  0
 61109  1  0
 61110  1  0
 62111  1  0
 68112  1  0
 69113  1  0
 70114  1  0
 71115  1  0
M  END

