
     RDKit          3D

115129  0  0  0  0  0  0  0  0999 V2000
   -1.7229    7.0668    1.8337 C   0  0  0  0  0  0  0  0  0  0  0  0
   -2.7396    6.9032    0.9675 C   0  0  0  0  0  0  0  0  0  0  0  0
   -2.8080    5.8664   -0.0722 C   0  0  0  0  0  0  0  0  0  0  0  0
   -2.1457    4.7957   -0.1065 O   0  0  0  0  0  0  0  0  0  0  0  0
   -3.7137    6.3117   -1.1081 C   0  0  0  0  0  0  0  0  0  0  0  0
   -3.9283    5.7067   -2.3681 C   0  0  0  0  0  0  0  0  0  0  0  0
   -4.7185    6.4555   -3.2197 C   0  0  0  0  0  0  0  0  0  0  0  0
   -5.2679    7.7288   -2.8610 C   0  0  0  0  0  0  0  0  0  0  0  0
   -5.0654    8.3238   -1.6270 C   0  0  0  0  0  0  0  0  0  0  0  0
   -4.2719    7.5591   -0.7263 C   0  0  0  0  0  0  0  0  0  0  0  0
   -3.7892    7.9101    0.6377 C   0  0  0  0  0  0  0  0  0  0  0  0
   -4.3515    8.7998    1.4956 C   0  0  0  0  0  0  0  0  0  0  0  0
   -3.9561    8.8827    2.8782 C   0  0  0  0  0  0  0  0  0  0  0  0
   -3.6471    8.9502    3.9911 N   0  0  0  0  0  0  0  0  0  0  0  0
   -5.4896    9.6044    1.1361 C   0  0  0  0  0  0  0  0  0  0  0  0
   -6.4073   10.2537    0.8615 N   0  0  0  0  0  0  0  0  0  0  0  0
   -5.8879    7.8620   -4.2195 C   0  0  0  0  0  0  0  0  0  0  0  0
   -7.4256    7.6348   -4.3110 C   0  0  0  0  0  0  0  0  0  0  0  0
   -7.7267    7.4298   -5.7768 C   0  0  0  0  0  0  0  0  0  0  0  0
   -7.2145    6.2380   -6.1071 C   0  0  0  0  0  0  0  0  0  0  0  0
   -6.5856    5.6804   -4.8532 C   0  0  0  0  0  0  0  0  0  0  0  0
   -7.5900    6.2004   -3.8376 C   0  0  0  0  0  0  0  0  0  0  0  0
   -5.3265    6.5572   -4.5850 C   0  0  0  0  0  0  0  0  0  0  0  0
   -0.6146    6.1105    1.9327 C   0  0  0  0  0  0  0  0  0  0  0  0
    0.6051    6.2090    1.2397 C   0  0  0  0  0  0  0  0  0  0  0  0
    0.9961    7.3364    0.3240 C   0  0  0  0  0  0  0  0  0  0  0  0
    0.5507    7.0656   -1.1086 C   0  0  0  0  0  0  0  0  0  0  0  0
    1.3693    5.0584    1.4324 C   0  0  0  0  0  0  0  0  0  0  0  0
    2.8235    4.4940    0.7391 S   0  0  0  0  0  0  0  0  0  0  0  0
    2.6570    3.0169    1.5574 C   0  0  0  0  0  0  0  0  0  0  0  0
    3.2952    1.8209    1.6786 C   0  0  0  0  0  0  0  0  0  0  0  0
    4.5053    1.3836    1.1417 C   0  0  0  0  0  0  0  0  0  0  0  0
    4.9502    0.0717    1.4505 C   0  0  0  0  0  0  0  0  0  0  0  0
    6.1223   -0.3270    0.8962 N   0  0  0  0  0  0  0  0  0  0  0  0
    6.5176    1.0467    0.0591 S   0  0  0  0  0  0  0  0  0  0  0  0
    5.2968    2.1316    0.3323 N   0  0  0  0  0  0  0  0  0  0  0  0
    4.1435   -0.7409    2.2532 C   0  0  0  0  0  0  0  0  0  0  0  0
    4.2223   -2.0825    2.4752 C   0  0  0  0  0  0  0  0  0  0  0  0
    5.1342   -3.3732    1.8478 S   0  0  0  0  0  0  0  0  0  0  0  0
    3.9668   -4.4742    2.4036 C   0  0  0  0  0  0  0  0  0  0  0  0
    3.7670   -5.8283    2.2260 C   0  0  0  0  0  0  0  0  0  0  0  0
    4.5632   -7.0498    1.4050 S   0  0  0  0  0  0  0  0  0  0  0  0
    3.3190   -8.1862    1.6876 C   0  0  0  0  0  0  0  0  0  0  0  0
    2.2760   -7.6023    2.4298 C   0  0  0  0  0  0  0  0  0  0  0  0
    0.9719   -8.2727    2.7606 C   0  0  0  0  0  0  0  0  0  0  0  0
   -0.0388   -8.0838    1.6346 C   0  0  0  0  0  0  0  0  0  0  0  0
    2.5582   -6.2628    2.6928 C   0  0  0  0  0  0  0  0  0  0  0  0
    1.6501   -4.9727    3.3280 S   0  0  0  0  0  0  0  0  0  0  0  0
    2.8903   -3.8503    3.0027 C   0  0  0  0  0  0  0  0  0  0  0  0
    3.0478   -2.4655    3.0364 C   0  0  0  0  0  0  0  0  0  0  0  0
    2.1900   -1.4263    3.2176 N   0  0  0  0  0  0  0  0  0  0  0  0
    2.8932   -0.3269    2.7629 C   0  0  0  0  0  0  0  0  0  0  0  0
    2.4913    1.0308    2.5273 C   0  0  0  0  0  0  0  0  0  0  0  0
    1.4270    1.7800    2.9921 N   0  0  0  0  0  0  0  0  0  0  0  0
    1.5548    2.9572    2.3305 C   0  0  0  0  0  0  0  0  0  0  0  0
    0.8068    4.1225    2.2645 C   0  0  0  0  0  0  0  0  0  0  0  0
   -0.7056    4.6315    2.7787 S   0  0  0  0  0  0  0  0  0  0  0  0
    0.6113    1.6323    4.2057 C   0  0  0  0  0  0  0  0  0  0  0  0
    1.4712    1.3180    5.4321 C   0  0  0  0  0  0  0  0  0  0  0  0
    0.7585   -1.5874    3.4967 C   0  0  0  0  0  0  0  0  0  0  0  0
   -0.0881   -1.3052    2.2579 C   0  0  0  0  0  0  0  0  0  0  0  0
    3.3182   -9.5528    1.1453 C   0  0  0  0  0  0  0  0  0  0  0  0
    3.2338   -9.8398   -0.1758 C   0  0  0  0  0  0  0  0  0  0  0  0
    3.0022   -8.7837   -1.1964 C   0  0  0  0  0  0  0  0  0  0  0  0
    2.4329   -7.7001   -0.8879 O   0  0  0  0  0  0  0  0  0  0  0  0
    3.4041   -9.0172   -2.5550 N   0  0  0  0  0  0  0  0  0  0  0  0
    3.4436   -7.9050   -3.5143 C   0  0  0  0  0  0  0  0  0  0  0  0
    4.7350   -7.1108   -3.3489 C   0  0  0  0  0  0  0  0  0  0  0  0
    3.8743  -10.3256   -2.9231 C   0  0  0  0  0  0  0  0  0  0  0  0
    4.3523  -10.5259   -4.0743 O   0  0  0  0  0  0  0  0  0  0  0  0
    3.7807  -11.4517   -1.9649 C   0  0  0  0  0  0  0  0  0  0  0  0
    3.4222  -11.2414   -0.6720 C   0  0  0  0  0  0  0  0  0  0  0  0
    3.2795  -12.4049    0.2913 C   0  0  0  0  0  0  0  0  0  0  0  0
    4.0907  -12.7773   -2.4589 C   0  0  0  0  0  0  0  0  0  0  0  0
    4.3393  -13.8354   -2.8552 N   0  0  0  0  0  0  0  0  0  0  0  0
   -1.6162    7.9842    2.3908 H   0  0  0  0  0  0  0  0  0  0  0  0
   -3.4748    4.7697   -2.6615 H   0  0  0  0  0  0  0  0  0  0  0  0
   -5.4444    9.3111   -1.4189 H   0  0  0  0  0  0  0  0  0  0  0  0
   -5.4900    8.7181   -4.8092 H   0  0  0  0  0  0  0  0  0  0  0  0
   -8.0553    8.3912   -3.7969 H   0  0  0  0  0  0  0  0  0  0  0  0
   -8.3237    8.0664   -6.4203 H   0  0  0  0  0  0  0  0  0  0  0  0
   -7.3261    5.7416   -7.0645 H   0  0  0  0  0  0  0  0  0  0  0  0
   -6.4181    4.5819   -4.8539 H   0  0  0  0  0  0  0  0  0  0  0  0
   -7.2959    6.0338   -2.7773 H   0  0  0  0  0  0  0  0  0  0  0  0
   -8.6213    5.8001   -3.9901 H   0  0  0  0  0  0  0  0  0  0  0  0
   -4.5742    6.5887   -5.4058 H   0  0  0  0  0  0  0  0  0  0  0  0
    0.5453    8.2891    0.6781 H   0  0  0  0  0  0  0  0  0  0  0  0
    2.0997    7.4611    0.3442 H   0  0  0  0  0  0  0  0  0  0  0  0
    0.9444    7.8610   -1.7748 H   0  0  0  0  0  0  0  0  0  0  0  0
    0.9385    6.0855   -1.4597 H   0  0  0  0  0  0  0  0  0  0  0  0
   -0.5550    7.0677   -1.1770 H   0  0  0  0  0  0  0  0  0  0  0  0
    0.5616   -7.8428    3.7002 H   0  0  0  0  0  0  0  0  0  0  0  0
    1.1365   -9.3587    2.9309 H   0  0  0  0  0  0  0  0  0  0  0  0
    0.3258   -8.5661    0.7022 H   0  0  0  0  0  0  0  0  0  0  0  0
   -0.2092   -7.0022    1.4452 H   0  0  0  0  0  0  0  0  0  0  0  0
   -1.0050   -8.5512    1.9200 H   0  0  0  0  0  0  0  0  0  0  0  0
    0.0998    2.5858    4.4386 H   0  0  0  0  0  0  0  0  0  0  0  0
   -0.2190    0.9260    4.0417 H   0  0  0  0  0  0  0  0  0  0  0  0
    2.0520    0.3834    5.3039 H   0  0  0  0  0  0  0  0  0  0  0  0
    2.1869    2.1488    5.6090 H   0  0  0  0  0  0  0  0  0  0  0  0
    0.8205    1.2086    6.3258 H   0  0  0  0  0  0  0  0  0  0  0  0
    0.5399   -2.6182    3.8232 H   0  0  0  0  0  0  0  0  0  0  0  0
    0.4618   -1.0030    4.3745 H   0  0  0  0  0  0  0  0  0  0  0  0
    0.0605   -0.2692    1.8943 H   0  0  0  0  0  0  0  0  0  0  0  0
    0.1887   -2.0102    1.4461 H   0  0  0  0  0  0  0  0  0  0  0  0
   -1.1629   -1.4451    2.5008 H   0  0  0  0  0  0  0  0  0  0  0  0
    3.4608  -10.3379    1.8740 H   0  0  0  0  0  0  0  0  0  0  0  0
    3.3680   -8.2799   -4.5581 H   0  0  0  0  0  0  0  0  0  0  0  0
    2.5735   -7.2289   -3.3590 H   0  0  0  0  0  0  0  0  0  0  0  0
    5.6109   -7.7645   -3.5448 H   0  0  0  0  0  0  0  0  0  0  0  0
    4.8072   -6.7076   -2.3151 H   0  0  0  0  0  0  0  0  0  0  0  0
    4.7489   -6.2638   -4.0657 H   0  0  0  0  0  0  0  0  0  0  0  0
    2.9876  -13.3437   -0.2212 H   0  0  0  0  0  0  0  0  0  0  0  0
    2.4735  -12.2032    1.0284 H   0  0  0  0  0  0  0  0  0  0  0  0
    4.2389  -12.5654    0.8263 H   0  0  0  0  0  0  0  0  0  0  0  0
  1  2  2  3
  2  3  1  0
  3  4  2  0
  3  5  1  0
  5  6  2  0
  6  7  1  0
  7  8  2  0
  8  9  1  0
  9 10  2  0
 10 11  1  0
 11 12  2  3
 12 13  1  0
 13 14  3  0
 12 15  1  0
 15 16  3  0
  8 17  1  0
 17 18  1  0
 18 19  1  0
 19 20  2  0
 20 21  1  0
 21 22  1  0
 21 23  1  0
  1 24  1  0
 24 25  2  0
 25 26  1  0
 26 27  1  0
 25 28  1  0
 28 29  1  0
 29 30  1  0
 30 31  1  0
 31 32  1  0
 32 33  1  0
 33 34  2  0
 34 35  1  0
 35 36  1  0
 33 37  1  0
 37 38  1  0
 38 39  1  0
 39 40  1  0
 40 41  1  0
 41 42  1  0
 42 43  1  0
 43 44  2  0
 44 45  1  0
 45 46  1  0
 44 47  1  0
 47 48  1  0
 48 49  1  0
 49 50  1  0
 50 51  1  0
 51 52  1  0
 52 53  1  0
 53 54  1  0
 54 55  1  0
 55 56  1  0
 56 57  1  0
 54 58  1  0
 58 59  1  0
 51 60  1  0
 60 61  1  0
 43 62  1  0
 62 63  2  3
 63 64  1  0
 64 65  2  0
 64 66  1  0
 66 67  1  0
 67 68  1  0
 66 69  1  0
 69 70  2  0
 69 71  1  0
 71 72  2  0
 72 73  1  0
 71 74  1  0
 74 75  3  0
 11  2  1  0
 23 17  1  0
 57 24  1  0
 72 63  1  0
 10  5  1  0
 22 18  1  0
 56 28  2  0
 23  7  1  0
 55 30  2  0
 53 31  2  0
 36 32  2  0
 52 37  2  0
 50 38  2  0
 49 40  2  0
 47 41  2  0
  1 76  1  0
  6 77  1  0
  9 78  1  0
 17 79  1  0
 18 80  1  0
 19 81  1  0
 20 82  1  0
 21 83  1  0
 22 84  1  0
 22 85  1  0
 23 86  1  0
 26 87  1  0
 26 88  1  0
 27 89  1  0
 27 90  1  0
 27 91  1  0
 45 92  1  0
 45 93  1  0
 46 94  1  0
 46 95  1  0
 46 96  1  0
 58 97  1  0
 58 98  1  0
 59 99  1  0
 59100  1  0
 59101  1  0
 60102  1  0
 60103  1  0
 61104  1  0
 61105  1  0
 61106  1  0
 62107  1  0
 67108  1  0
 67109  1  0
 68110  1  0
 68111  1  0
 68112  1  0
 73113  1  0
 73114  1  0
 73115  1  0
M  END

