
     RDKit          3D

116132  0  0  0  0  0  0  0  0999 V2000
    3.3175   -4.7236    5.8379 C   0  0  0  0  0  0  0  0  0  0  0  0
    2.3053   -4.5006    6.6908 C   0  0  0  0  0  0  0  0  0  0  0  0
    2.4860   -3.7318    7.9241 C   0  0  0  0  0  0  0  0  0  0  0  0
    3.5249   -3.7151    8.6483 O   0  0  0  0  0  0  0  0  0  0  0  0
    1.3090   -2.8964    8.1110 C   0  0  0  0  0  0  0  0  0  0  0  0
    1.2144   -1.7201    8.8946 C   0  0  0  0  0  0  0  0  0  0  0  0
    0.1153   -0.9323    8.5860 C   0  0  0  0  0  0  0  0  0  0  0  0
   -0.8488   -1.2844    7.5897 C   0  0  0  0  0  0  0  0  0  0  0  0
   -0.7696   -2.4329    6.8241 C   0  0  0  0  0  0  0  0  0  0  0  0
    0.3516   -3.2505    7.1231 C   0  0  0  0  0  0  0  0  0  0  0  0
    0.8755   -4.3675    6.3192 C   0  0  0  0  0  0  0  0  0  0  0  0
    0.1516   -5.2906    5.6593 C   0  0  0  0  0  0  0  0  0  0  0  0
    0.7494   -6.4991    5.1581 C   0  0  0  0  0  0  0  0  0  0  0  0
    1.2089   -7.4910    4.7718 N   0  0  0  0  0  0  0  0  0  0  0  0
   -1.2838   -5.1995    5.5488 C   0  0  0  0  0  0  0  0  0  0  0  0
   -2.4374   -5.1532    5.4905 N   0  0  0  0  0  0  0  0  0  0  0  0
   -1.5202    0.0468    7.7380 C   0  0  0  0  0  0  0  0  0  0  0  0
   -1.2643    1.0643    6.5840 C   0  0  0  0  0  0  0  0  0  0  0  0
   -1.6650    2.4188    7.1204 C   0  0  0  0  0  0  0  0  0  0  0  0
   -0.7465    2.7486    8.0393 C   0  0  0  0  0  0  0  0  0  0  0  0
    0.2382    1.6042    8.0900 C   0  0  0  0  0  0  0  0  0  0  0  0
    0.2452    1.2431    6.6092 C   0  0  0  0  0  0  0  0  0  0  0  0
   -0.5263    0.4121    8.7480 C   0  0  0  0  0  0  0  0  0  0  0  0
    3.1585   -4.4951    4.3884 C   0  0  0  0  0  0  0  0  0  0  0  0
    3.5620   -5.3401    3.3336 C   0  0  0  0  0  0  0  0  0  0  0  0
    4.2732   -6.6529    3.5118 C   0  0  0  0  0  0  0  0  0  0  0  0
    5.7773   -6.4285    3.6298 C   0  0  0  0  0  0  0  0  0  0  0  0
    3.3036   -4.7501    2.0929 C   0  0  0  0  0  0  0  0  0  0  0  0
    3.6186   -5.1987    0.4773 S   0  0  0  0  0  0  0  0  0  0  0  0
    3.0470   -3.6942   -0.0754 C   0  0  0  0  0  0  0  0  0  0  0  0
    2.9347   -2.9792   -1.2300 C   0  0  0  0  0  0  0  0  0  0  0  0
    3.1596   -3.3900   -2.5406 C   0  0  0  0  0  0  0  0  0  0  0  0
    2.9374   -2.4646   -3.5930 C   0  0  0  0  0  0  0  0  0  0  0  0
    3.1455   -2.9106   -4.8571 N   0  0  0  0  0  0  0  0  0  0  0  0
    3.5964   -4.4705   -4.5337 S   0  0  0  0  0  0  0  0  0  0  0  0
    3.5514   -4.6426   -2.8881 N   0  0  0  0  0  0  0  0  0  0  0  0
    2.5482   -1.1642   -3.2710 C   0  0  0  0  0  0  0  0  0  0  0  0
    2.3068   -0.1092   -4.0998 C   0  0  0  0  0  0  0  0  0  0  0  0
    2.1420    0.2136   -5.7642 S   0  0  0  0  0  0  0  0  0  0  0  0
    1.6939    1.8216   -5.4081 C   0  0  0  0  0  0  0  0  0  0  0  0
    1.1976    2.8821   -6.1428 C   0  0  0  0  0  0  0  0  0  0  0  0
    0.6591    3.0890   -7.7160 S   0  0  0  0  0  0  0  0  0  0  0  0
   -0.0471    4.6107   -7.3990 C   0  0  0  0  0  0  0  0  0  0  0  0
    0.1390    4.9573   -6.0453 C   0  0  0  0  0  0  0  0  0  0  0  0
   -0.4242    6.1814   -5.3750 C   0  0  0  0  0  0  0  0  0  0  0  0
    0.6933    7.1394   -4.9634 C   0  0  0  0  0  0  0  0  0  0  0  0
    0.8239    3.9496   -5.3656 C   0  0  0  0  0  0  0  0  0  0  0  0
    1.0651    3.6265   -3.7166 S   0  0  0  0  0  0  0  0  0  0  0  0
    1.6751    2.0741   -4.0510 C   0  0  0  0  0  0  0  0  0  0  0  0
    2.0110    0.9457   -3.3131 C   0  0  0  0  0  0  0  0  0  0  0  0
    2.0165    0.6453   -1.9905 N   0  0  0  0  0  0  0  0  0  0  0  0
    2.3390   -0.7077   -1.9429 C   0  0  0  0  0  0  0  0  0  0  0  0
    2.4975   -1.6759   -0.8745 C   0  0  0  0  0  0  0  0  0  0  0  0
    2.3038   -1.6396    0.4996 N   0  0  0  0  0  0  0  0  0  0  0  0
    2.6526   -2.8820    0.9216 C   0  0  0  0  0  0  0  0  0  0  0  0
    2.7793   -3.4838    2.1643 C   0  0  0  0  0  0  0  0  0  0  0  0
    2.5609   -3.0279    3.7613 S   0  0  0  0  0  0  0  0  0  0  0  0
    1.8874   -0.5911    1.4308 C   0  0  0  0  0  0  0  0  0  0  0  0
    3.1035    0.1388    2.0053 C   0  0  0  0  0  0  0  0  0  0  0  0
    1.7047    1.6455   -0.9704 C   0  0  0  0  0  0  0  0  0  0  0  0
    0.1946    1.7287   -0.7365 C   0  0  0  0  0  0  0  0  0  0  0  0
   -1.0078    5.2657   -8.3073 C   0  0  0  0  0  0  0  0  0  0  0  0
   -2.3395    5.2449   -8.0720 C   0  0  0  0  0  0  0  0  0  0  0  0
   -3.0052    4.3721   -7.0894 C   0  0  0  0  0  0  0  0  0  0  0  0
   -2.4504    3.5650   -6.2948 O   0  0  0  0  0  0  0  0  0  0  0  0
   -4.4288    4.5075   -7.2477 C   0  0  0  0  0  0  0  0  0  0  0  0
   -5.4286    3.8196   -6.5463 C   0  0  0  0  0  0  0  0  0  0  0  0
   -6.7536    4.0740   -6.9089 C   0  0  0  0  0  0  0  0  0  0  0  0
   -7.8868    3.4986   -6.3285 C   0  0  0  0  0  0  0  0  0  0  0  0
   -9.0641    3.9487   -6.9166 C   0  0  0  0  0  0  0  0  0  0  0  0
  -10.8230    3.4027   -6.4200 Br  0  0  0  0  0  0  0  0  0  0  0  0
   -8.7095    5.0342   -8.1607 S   0  0  0  0  0  0  0  0  0  0  0  0
   -7.0447    4.9583   -7.9460 C   0  0  0  0  0  0  0  0  0  0  0  0
   -6.0492    5.6322   -8.6596 C   0  0  0  0  0  0  0  0  0  0  0  0
   -4.7080    5.4107   -8.2701 C   0  0  0  0  0  0  0  0  0  0  0  0
   -3.4301    5.9876   -8.7916 C   0  0  0  0  0  0  0  0  0  0  0  0
   -3.2992    7.1123   -9.5513 C   0  0  0  0  0  0  0  0  0  0  0  0
   -2.0270    7.7256   -9.8204 C   0  0  0  0  0  0  0  0  0  0  0  0
   -1.0120    8.2380  -10.0488 N   0  0  0  0  0  0  0  0  0  0  0  0
   -4.4344    7.8467  -10.0428 C   0  0  0  0  0  0  0  0  0  0  0  0
   -5.3351    8.4577  -10.4420 N   0  0  0  0  0  0  0  0  0  0  0  0
    4.3347   -4.7141    6.2160 H   0  0  0  0  0  0  0  0  0  0  0  0
    1.9900   -1.3925    9.5751 H   0  0  0  0  0  0  0  0  0  0  0  0
   -1.4329   -2.5967    5.9851 H   0  0  0  0  0  0  0  0  0  0  0  0
   -2.5662   -0.0153    8.1111 H   0  0  0  0  0  0  0  0  0  0  0  0
   -1.7090    0.7956    5.6028 H   0  0  0  0  0  0  0  0  0  0  0  0
   -2.4672    3.0625    6.7709 H   0  0  0  0  0  0  0  0  0  0  0  0
   -0.6748    3.7017    8.5577 H   0  0  0  0  0  0  0  0  0  0  0  0
    1.2295    1.8508    8.5307 H   0  0  0  0  0  0  0  0  0  0  0  0
    0.8193    0.3239    6.3636 H   0  0  0  0  0  0  0  0  0  0  0  0
    0.6060    2.0652    5.9445 H   0  0  0  0  0  0  0  0  0  0  0  0
   -0.9276    0.6006    9.7677 H   0  0  0  0  0  0  0  0  0  0  0  0
    4.0616   -7.3153    2.6420 H   0  0  0  0  0  0  0  0  0  0  0  0
    3.8991   -7.1643    4.4275 H   0  0  0  0  0  0  0  0  0  0  0  0
    6.1502   -5.8814    2.7362 H   0  0  0  0  0  0  0  0  0  0  0  0
    6.0149   -5.8424    4.5424 H   0  0  0  0  0  0  0  0  0  0  0  0
    6.2998   -7.4089    3.6776 H   0  0  0  0  0  0  0  0  0  0  0  0
   -1.0094    5.8808   -4.4704 H   0  0  0  0  0  0  0  0  0  0  0  0
   -1.1230    6.7252   -6.0483 H   0  0  0  0  0  0  0  0  0  0  0  0
    1.3420    6.6678   -4.1912 H   0  0  0  0  0  0  0  0  0  0  0  0
    0.2489    8.0610   -4.5343 H   0  0  0  0  0  0  0  0  0  0  0  0
    1.3054    7.4144   -5.8529 H   0  0  0  0  0  0  0  0  0  0  0  0
    1.1419    0.0678    0.9851 H   0  0  0  0  0  0  0  0  0  0  0  0
    1.3210   -1.0378    2.2739 H   0  0  0  0  0  0  0  0  0  0  0  0
    3.6573   -0.5343    2.6900 H   0  0  0  0  0  0  0  0  0  0  0  0
    3.8033    0.4517    1.2012 H   0  0  0  0  0  0  0  0  0  0  0  0
    2.7704    1.0272    2.5762 H   0  0  0  0  0  0  0  0  0  0  0  0
    2.0581    2.6445   -1.3042 H   0  0  0  0  0  0  0  0  0  0  0  0
    2.2933    1.4876   -0.0627 H   0  0  0  0  0  0  0  0  0  0  0  0
   -0.0100    2.3204    0.1773 H   0  0  0  0  0  0  0  0  0  0  0  0
   -0.3020    2.2291   -1.5965 H   0  0  0  0  0  0  0  0  0  0  0  0
   -0.2529    0.7193   -0.6274 H   0  0  0  0  0  0  0  0  0  0  0  0
   -0.5961    5.7651   -9.1670 H   0  0  0  0  0  0  0  0  0  0  0  0
   -5.1793    3.1147   -5.7624 H   0  0  0  0  0  0  0  0  0  0  0  0
   -7.8545    2.7932   -5.5072 H   0  0  0  0  0  0  0  0  0  0  0  0
   -6.3321    6.2700   -9.4805 H   0  0  0  0  0  0  0  0  0  0  0  0
  1  2  2  3
  2  3  1  0
  3  4  2  0
  3  5  1  0
  5  6  2  0
  6  7  1  0
  7  8  2  0
  8  9  1  0
  9 10  2  0
 10 11  1  0
 11 12  2  3
 12 13  1  0
 13 14  3  0
 12 15  1  0
 15 16  3  0
  8 17  1  0
 17 18  1  0
 18 19  1  0
 19 20  2  0
 20 21  1  0
 21 22  1  0
 21 23  1  0
  1 24  1  0
 24 25  2  0
 25 26  1  0
 26 27  1  0
 25 28  1  0
 28 29  1  0
 29 30  1  0
 30 31  1  0
 31 32  1  0
 32 33  1  0
 33 34  2  0
 34 35  1  0
 35 36  1  0
 33 37  1  0
 37 38  1  0
 38 39  1  0
 39 40  1  0
 40 41  1  0
 41 42  1  0
 42 43  1  0
 43 44  2  0
 44 45  1  0
 45 46  1  0
 44 47  1  0
 47 48  1  0
 48 49  1  0
 49 50  1  0
 50 51  1  0
 51 52  1  0
 52 53  1  0
 53 54  1  0
 54 55  1  0
 55 56  1  0
 56 57  1  0
 54 58  1  0
 58 59  1  0
 51 60  1  0
 60 61  1  0
 43 62  1  0
 62 63  2  3
 63 64  1  0
 64 65  2  0
 64 66  1  0
 66 67  2  0
 67 68  1  0
 68 69  1  0
 69 70  2  0
 70 71  1  0
 70 72  1  0
 72 73  1  0
 73 74  1  0
 74 75  2  0
 75 76  1  0
 76 77  2  3
 77 78  1  0
 78 79  3  0
 77 80  1  0
 80 81  3  0
 11  2  1  0
 23 17  1  0
 57 24  1  0
 76 63  1  0
 10  5  1  0
 22 18  1  0
 56 28  2  0
 75 66  1  0
 23  7  1  0
 55 30  2  0
 73 68  2  0
 53 31  2  0
 36 32  2  0
 52 37  2  0
 50 38  2  0
 49 40  2  0
 47 41  2  0
  1 82  1  0
  6 83  1  0
  9 84  1  0
 17 85  1  0
 18 86  1  0
 19 87  1  0
 20 88  1  0
 21 89  1  0
 22 90  1  0
 22 91  1  0
 23 92  1  0
 26 93  1  0
 26 94  1  0
 27 95  1  0
 27 96  1  0
 27 97  1  0
 45 98  1  0
 45 99  1  0
 46100  1  0
 46101  1  0
 46102  1  0
 58103  1  0
 58104  1  0
 59105  1  0
 59106  1  0
 59107  1  0
 60108  1  0
 60109  1  0
 61110  1  0
 61111  1  0
 61112  1  0
 62113  1  0
 67114  1  0
 69115  1  0
 74116  1  0
M  END

