
     RDKit          3D

117133  0  0  0  0  0  0  0  0999 V2000
   -7.7504    1.6192   -1.0368 C   0  0  0  0  0  0  0  0  0  0  0  0
   -7.9673    2.5407   -0.0733 C   0  0  0  0  0  0  0  0  0  0  0  0
   -8.0988    2.2600    1.3580 C   0  0  0  0  0  0  0  0  0  0  0  0
   -8.6082    1.2275    1.8673 O   0  0  0  0  0  0  0  0  0  0  0  0
   -7.5657    3.3839    2.0967 C   0  0  0  0  0  0  0  0  0  0  0  0
   -7.2676    3.4235    3.4756 C   0  0  0  0  0  0  0  0  0  0  0  0
   -6.5903    4.5624    3.8646 C   0  0  0  0  0  0  0  0  0  0  0  0
   -6.2306    5.6120    2.9586 C   0  0  0  0  0  0  0  0  0  0  0  0
   -6.5271    5.5842    1.6057 C   0  0  0  0  0  0  0  0  0  0  0  0
   -7.2239    4.4186    1.1821 C   0  0  0  0  0  0  0  0  0  0  0  0
   -7.6082    3.9882   -0.1929 C   0  0  0  0  0  0  0  0  0  0  0  0
   -7.7538    4.7707   -1.2909 C   0  0  0  0  0  0  0  0  0  0  0  0
   -8.4249    4.2942   -2.4754 C   0  0  0  0  0  0  0  0  0  0  0  0
   -8.9708    3.9140   -3.4249 N   0  0  0  0  0  0  0  0  0  0  0  0
   -7.3495    6.1510   -1.3229 C   0  0  0  0  0  0  0  0  0  0  0  0
   -7.0101    7.2588   -1.3784 N   0  0  0  0  0  0  0  0  0  0  0  0
   -5.5307    6.3451    4.0662 C   0  0  0  0  0  0  0  0  0  0  0  0
   -3.9710    6.3281    4.0719 C   0  0  0  0  0  0  0  0  0  0  0  0
   -3.4660    5.0522    3.4413 C   0  0  0  0  0  0  0  0  0  0  0  0
   -3.7926    4.0620    4.2701 C   0  0  0  0  0  0  0  0  0  0  0  0
   -4.5062    4.6983    5.4407 C   0  0  0  0  0  0  0  0  0  0  0  0
   -3.7138    5.9900    5.5264 C   0  0  0  0  0  0  0  0  0  0  0  0
   -5.8880    5.2631    4.9874 C   0  0  0  0  0  0  0  0  0  0  0  0
   -7.4531    0.1948   -0.7907 C   0  0  0  0  0  0  0  0  0  0  0  0
   -7.4039   -0.9504   -2.0506 S   0  0  0  0  0  0  0  0  0  0  0  0
   -6.5035   -2.0707   -1.1896 C   0  0  0  0  0  0  0  0  0  0  0  0
   -5.5122   -2.9376   -1.5629 C   0  0  0  0  0  0  0  0  0  0  0  0
   -4.7914   -3.2234   -3.0845 S   0  0  0  0  0  0  0  0  0  0  0  0
   -3.2958   -3.4857   -2.3342 C   0  0  0  0  0  0  0  0  0  0  0  0
   -1.9949   -3.6723   -2.6862 C   0  0  0  0  0  0  0  0  0  0  0  0
   -1.4065   -3.8974   -3.9327 C   0  0  0  0  0  0  0  0  0  0  0  0
    0.0034   -4.0637   -4.0000 C   0  0  0  0  0  0  0  0  0  0  0  0
    0.5417   -4.2700   -5.2261 N   0  0  0  0  0  0  0  0  0  0  0  0
   -0.8369   -4.2440   -6.1435 S   0  0  0  0  0  0  0  0  0  0  0  0
   -2.0935   -3.9774   -5.0988 N   0  0  0  0  0  0  0  0  0  0  0  0
    0.7473   -3.9489   -2.8243 C   0  0  0  0  0  0  0  0  0  0  0  0
    2.0954   -3.9028   -2.6304 C   0  0  0  0  0  0  0  0  0  0  0  0
    3.5350   -4.0174   -3.5241 S   0  0  0  0  0  0  0  0  0  0  0  0
    4.4532   -3.6305   -2.1346 C   0  0  0  0  0  0  0  0  0  0  0  0
    5.8280   -3.5806   -1.8745 C   0  0  0  0  0  0  0  0  0  0  0  0
    6.8665   -4.0092   -2.8752 C   0  0  0  0  0  0  0  0  0  0  0  0
    6.9794   -5.5288   -2.9139 C   0  0  0  0  0  0  0  0  0  0  0  0
    6.0609   -3.3058   -0.5059 C   0  0  0  0  0  0  0  0  0  0  0  0
    4.5784   -3.1937    0.3258 S   0  0  0  0  0  0  0  0  0  0  0  0
    3.6475   -3.4146   -1.0448 C   0  0  0  0  0  0  0  0  0  0  0  0
    2.2997   -3.5663   -1.3392 C   0  0  0  0  0  0  0  0  0  0  0  0
    1.1475   -3.3638   -0.6509 N   0  0  0  0  0  0  0  0  0  0  0  0
    0.1659   -3.6661   -1.5705 C   0  0  0  0  0  0  0  0  0  0  0  0
   -1.2594   -3.5973   -1.4893 C   0  0  0  0  0  0  0  0  0  0  0  0
   -2.1083   -3.4602   -0.4113 N   0  0  0  0  0  0  0  0  0  0  0  0
   -3.3261   -3.3128   -0.9924 C   0  0  0  0  0  0  0  0  0  0  0  0
   -4.5920   -2.9411   -0.5266 C   0  0  0  0  0  0  0  0  0  0  0  0
   -4.9406   -2.0503    0.4441 N   0  0  0  0  0  0  0  0  0  0  0  0
   -6.1261   -1.5422    0.0120 C   0  0  0  0  0  0  0  0  0  0  0  0
   -6.6516   -0.2744    0.2682 C   0  0  0  0  0  0  0  0  0  0  0  0
   -4.0767   -1.4019    1.4426 C   0  0  0  0  0  0  0  0  0  0  0  0
   -4.5135   -1.7880    2.8515 C   0  0  0  0  0  0  0  0  0  0  0  0
   -1.9476   -3.9796    0.9586 C   0  0  0  0  0  0  0  0  0  0  0  0
   -1.2764   -5.3536    0.9849 C   0  0  0  0  0  0  0  0  0  0  0  0
    1.0702   -2.6202    0.6137 C   0  0  0  0  0  0  0  0  0  0  0  0
    0.3791   -1.2684    0.4333 C   0  0  0  0  0  0  0  0  0  0  0  0
    7.3512   -3.3029    0.2029 C   0  0  0  0  0  0  0  0  0  0  0  0
    8.4234   -2.5564   -0.1116 C   0  0  0  0  0  0  0  0  0  0  0  0
    9.7569   -2.8487    0.4118 C   0  0  0  0  0  0  0  0  0  0  0  0
   10.0224   -3.6237    1.3689 O   0  0  0  0  0  0  0  0  0  0  0  0
   10.7297   -2.1500   -0.3969 C   0  0  0  0  0  0  0  0  0  0  0  0
   12.1261   -2.1632   -0.2723 C   0  0  0  0  0  0  0  0  0  0  0  0
   12.8542   -1.4005   -1.1946 C   0  0  0  0  0  0  0  0  0  0  0  0
   14.2453   -1.2518   -1.2226 C   0  0  0  0  0  0  0  0  0  0  0  0
   14.6786   -0.4395   -2.2659 C   0  0  0  0  0  0  0  0  0  0  0  0
   13.3369    0.0956   -3.1485 S   0  0  0  0  0  0  0  0  0  0  0  0
   12.2021   -0.7011   -2.2064 C   0  0  0  0  0  0  0  0  0  0  0  0
   10.8092   -0.6958   -2.3410 C   0  0  0  0  0  0  0  0  0  0  0  0
   10.0670   -1.4150   -1.3826 C   0  0  0  0  0  0  0  0  0  0  0  0
    8.5939   -1.5091   -1.1678 C   0  0  0  0  0  0  0  0  0  0  0  0
    7.6875   -0.5578   -1.5092 C   0  0  0  0  0  0  0  0  0  0  0  0
    7.9729    0.4701   -2.4745 C   0  0  0  0  0  0  0  0  0  0  0  0
    8.1884    1.3028   -3.2503 N   0  0  0  0  0  0  0  0  0  0  0  0
    6.4792   -0.3557   -0.7502 C   0  0  0  0  0  0  0  0  0  0  0  0
    5.5268   -0.1609   -0.1278 N   0  0  0  0  0  0  0  0  0  0  0  0
   -7.5912    1.9421   -2.0543 H   0  0  0  0  0  0  0  0  0  0  0  0
   -7.4895    2.6092    4.1533 H   0  0  0  0  0  0  0  0  0  0  0  0
   -6.1710    6.3584    0.9499 H   0  0  0  0  0  0  0  0  0  0  0  0
   -5.9882    7.3247    4.3259 H   0  0  0  0  0  0  0  0  0  0  0  0
   -3.4814    7.2559    3.7029 H   0  0  0  0  0  0  0  0  0  0  0  0
   -2.8868    4.9533    2.5263 H   0  0  0  0  0  0  0  0  0  0  0  0
   -3.5204    3.0211    4.1514 H   0  0  0  0  0  0  0  0  0  0  0  0
   -4.5258    4.0896    6.3694 H   0  0  0  0  0  0  0  0  0  0  0  0
   -4.1423    6.7268    6.2430 H   0  0  0  0  0  0  0  0  0  0  0  0
   -2.6316    5.8316    5.7614 H   0  0  0  0  0  0  0  0  0  0  0  0
   -6.5613    5.5802    5.8139 H   0  0  0  0  0  0  0  0  0  0  0  0
    7.8534   -3.5865   -2.6247 H   0  0  0  0  0  0  0  0  0  0  0  0
    6.5877   -3.6360   -3.8828 H   0  0  0  0  0  0  0  0  0  0  0  0
    6.0037   -5.9842   -3.1899 H   0  0  0  0  0  0  0  0  0  0  0  0
    7.7335   -5.8267   -3.6709 H   0  0  0  0  0  0  0  0  0  0  0  0
    7.2952   -5.9192   -1.9230 H   0  0  0  0  0  0  0  0  0  0  0  0
   -6.2932    0.3570    1.0638 H   0  0  0  0  0  0  0  0  0  0  0  0
   -3.0182   -1.6553    1.2873 H   0  0  0  0  0  0  0  0  0  0  0  0
   -4.1232   -0.2983    1.3258 H   0  0  0  0  0  0  0  0  0  0  0  0
   -4.3469   -2.8750    3.0213 H   0  0  0  0  0  0  0  0  0  0  0  0
   -3.9119   -1.2123    3.5898 H   0  0  0  0  0  0  0  0  0  0  0  0
   -5.5887   -1.5524    2.9966 H   0  0  0  0  0  0  0  0  0  0  0  0
   -1.4384   -3.2468    1.6042 H   0  0  0  0  0  0  0  0  0  0  0  0
   -2.9488   -4.1155    1.4213 H   0  0  0  0  0  0  0  0  0  0  0  0
   -1.8740   -6.0775    0.3976 H   0  0  0  0  0  0  0  0  0  0  0  0
   -0.2531   -5.3144    0.5716 H   0  0  0  0  0  0  0  0  0  0  0  0
   -1.2106   -5.7114    2.0316 H   0  0  0  0  0  0  0  0  0  0  0  0
    2.0853   -2.4001    0.9906 H   0  0  0  0  0  0  0  0  0  0  0  0
    0.6285   -3.2407    1.4059 H   0  0  0  0  0  0  0  0  0  0  0  0
    0.3839   -0.7173    1.3961 H   0  0  0  0  0  0  0  0  0  0  0  0
    0.9216   -0.6647   -0.3277 H   0  0  0  0  0  0  0  0  0  0  0  0
   -0.6728   -1.3802    0.1055 H   0  0  0  0  0  0  0  0  0  0  0  0
    7.4308   -3.9942    1.0324 H   0  0  0  0  0  0  0  0  0  0  0  0
   12.6187   -2.7237    0.5106 H   0  0  0  0  0  0  0  0  0  0  0  0
   14.9166   -1.7160   -0.5121 H   0  0  0  0  0  0  0  0  0  0  0  0
   15.7089   -0.1884   -2.4752 H   0  0  0  0  0  0  0  0  0  0  0  0
   10.3484   -0.1669   -3.1583 H   0  0  0  0  0  0  0  0  0  0  0  0
  1  2  2  3
  2  3  1  0
  3  4  2  0
  3  5  1  0
  5  6  2  0
  6  7  1  0
  7  8  2  0
  8  9  1  0
  9 10  2  0
 10 11  1  0
 11 12  2  3
 12 13  1  0
 13 14  3  0
 12 15  1  0
 15 16  3  0
  8 17  1  0
 17 18  1  0
 18 19  1  0
 19 20  2  0
 20 21  1  0
 21 22  1  0
 21 23  1  0
  1 24  1  0
 24 25  1  0
 25 26  1  0
 26 27  1  0
 27 28  1  0
 28 29  1  0
 29 30  1  0
 30 31  1  0
 31 32  1  0
 32 33  2  0
 33 34  1  0
 34 35  1  0
 32 36  1  0
 36 37  1  0
 37 38  1  0
 38 39  1  0
 39 40  1  0
 40 41  1  0
 41 42  1  0
 40 43  2  0
 43 44  1  0
 44 45  1  0
 45 46  1  0
 46 47  1  0
 47 48  1  0
 48 49  1  0
 49 50  1  0
 50 51  1  0
 51 52  1  0
 52 53  1  0
 53 54  1  0
 54 55  1  0
 53 56  1  0
 56 57  1  0
 50 58  1  0
 58 59  1  0
 47 60  1  0
 60 61  1  0
 43 62  1  0
 62 63  2  3
 63 64  1  0
 64 65  2  0
 64 66  1  0
 66 67  2  0
 67 68  1  0
 68 69  1  0
 69 70  2  0
 70 71  1  0
 71 72  1  0
 72 73  1  0
 73 74  2  0
 74 75  1  0
 75 76  2  3
 76 77  1  0
 77 78  3  0
 76 79  1  0
 79 80  3  0
 11  2  1  0
 23 17  1  0
 55 24  2  0
 75 63  1  0
 10  5  1  0
 22 18  1  0
 54 26  2  0
 74 66  1  0
 23  7  1  0
 52 27  2  0
 72 68  2  0
 51 29  2  0
 49 30  2  0
 35 31  2  0
 48 36  2  0
 46 37  2  0
 45 39  2  0
  1 81  1  0
  6 82  1  0
  9 83  1  0
 17 84  1  0
 18 85  1  0
 19 86  1  0
 20 87  1  0
 21 88  1  0
 22 89  1  0
 22 90  1  0
 23 91  1  0
 41 92  1  0
 41 93  1  0
 42 94  1  0
 42 95  1  0
 42 96  1  0
 55 97  1  0
 56 98  1  0
 56 99  1  0
 57100  1  0
 57101  1  0
 57102  1  0
 58103  1  0
 58104  1  0
 59105  1  0
 59106  1  0
 59107  1  0
 60108  1  0
 60109  1  0
 61110  1  0
 61111  1  0
 61112  1  0
 62113  1  0
 67114  1  0
 69115  1  0
 70116  1  0
 73117  1  0
M  END

