
     RDKit          3D

114129  0  0  0  0  0  0  0  0999 V2000
    3.5312   -4.5060    4.4499 C   0  0  0  0  0  0  0  0  0  0  0  0
    4.2872   -3.4313    4.1441 C   0  0  0  0  0  0  0  0  0  0  0  0
    3.9438   -2.4185    3.1338 C   0  0  0  0  0  0  0  0  0  0  0  0
    2.8532   -2.3181    2.5117 O   0  0  0  0  0  0  0  0  0  0  0  0
    5.1164   -1.6271    2.8492 C   0  0  0  0  0  0  0  0  0  0  0  0
    5.2259   -0.5956    1.8888 C   0  0  0  0  0  0  0  0  0  0  0  0
    6.4949   -0.0633    1.7827 C   0  0  0  0  0  0  0  0  0  0  0  0
    7.6019   -0.5179    2.5678 C   0  0  0  0  0  0  0  0  0  0  0  0
    7.5026   -1.5330    3.5051 C   0  0  0  0  0  0  0  0  0  0  0  0
    6.1964   -2.0862    3.6462 C   0  0  0  0  0  0  0  0  0  0  0  0
    5.7084   -3.1768    4.5445 C   0  0  0  0  0  0  0  0  0  0  0  0
    6.3401   -3.6734    5.6417 C   0  0  0  0  0  0  0  0  0  0  0  0
    7.6805   -3.2999    6.0084 C   0  0  0  0  0  0  0  0  0  0  0  0
    8.7573   -3.0104    6.3218 N   0  0  0  0  0  0  0  0  0  0  0  0
    5.6765   -4.5238    6.5958 C   0  0  0  0  0  0  0  0  0  0  0  0
    5.1505   -5.2053    7.3701 N   0  0  0  0  0  0  0  0  0  0  0  0
    8.5037    0.4778    1.9011 C   0  0  0  0  0  0  0  0  0  0  0  0
    8.8926    1.7328    2.7369 C   0  0  0  0  0  0  0  0  0  0  0  0
    9.4460    2.7317    1.7494 C   0  0  0  0  0  0  0  0  0  0  0  0
    8.4094    3.1540    1.0149 C   0  0  0  0  0  0  0  0  0  0  0  0
    7.1930    2.4252    1.5323 C   0  0  0  0  0  0  0  0  0  0  0  0
    7.5517    2.3938    3.0084 C   0  0  0  0  0  0  0  0  0  0  0  0
    7.3691    0.9411    1.0963 C   0  0  0  0  0  0  0  0  0  0  0  0
    2.1186   -4.6261    4.0625 C   0  0  0  0  0  0  0  0  0  0  0  0
    1.5326   -5.7830    2.9529 S   0  0  0  0  0  0  0  0  0  0  0  0
    0.0071   -5.0897    2.9236 C   0  0  0  0  0  0  0  0  0  0  0  0
   -1.0083   -4.9977    2.0246 C   0  0  0  0  0  0  0  0  0  0  0  0
   -1.2881   -5.6638    0.4984 S   0  0  0  0  0  0  0  0  0  0  0  0
   -2.4317   -4.4492    0.2047 C   0  0  0  0  0  0  0  0  0  0  0  0
   -3.0555   -3.9772   -0.9104 C   0  0  0  0  0  0  0  0  0  0  0  0
   -2.8829   -4.3531   -2.2494 C   0  0  0  0  0  0  0  0  0  0  0  0
   -3.3340   -3.4721   -3.2712 C   0  0  0  0  0  0  0  0  0  0  0  0
   -3.0869   -3.8328   -4.5552 N   0  0  0  0  0  0  0  0  0  0  0  0
   -2.2894   -5.2605   -4.2918 S   0  0  0  0  0  0  0  0  0  0  0  0
   -2.2246   -5.4692   -2.6498 N   0  0  0  0  0  0  0  0  0  0  0  0
   -4.0007   -2.3057   -2.8969 C   0  0  0  0  0  0  0  0  0  0  0  0
   -4.4873   -1.2715   -3.6366 C   0  0  0  0  0  0  0  0  0  0  0  0
   -4.3006   -0.6215   -5.1934 S   0  0  0  0  0  0  0  0  0  0  0  0
   -5.0219    0.8448   -4.6883 C   0  0  0  0  0  0  0  0  0  0  0  0
   -5.0625    2.1202   -5.2538 C   0  0  0  0  0  0  0  0  0  0  0  0
   -4.6312    2.4412   -6.6577 C   0  0  0  0  0  0  0  0  0  0  0  0
   -5.8368    2.5163   -7.5868 C   0  0  0  0  0  0  0  0  0  0  0  0
   -5.4696    3.0723   -4.3012 C   0  0  0  0  0  0  0  0  0  0  0  0
   -5.7457    2.3276   -2.7908 S   0  0  0  0  0  0  0  0  0  0  0  0
   -5.3790    0.7978   -3.3633 C   0  0  0  0  0  0  0  0  0  0  0  0
   -5.0638   -0.4110   -2.7714 C   0  0  0  0  0  0  0  0  0  0  0  0
   -5.0081   -0.8133   -1.4795 N   0  0  0  0  0  0  0  0  0  0  0  0
   -4.2567   -1.9670   -1.5546 C   0  0  0  0  0  0  0  0  0  0  0  0
   -3.6572   -2.7677   -0.5327 C   0  0  0  0  0  0  0  0  0  0  0  0
   -3.2989   -2.4463    0.7586 N   0  0  0  0  0  0  0  0  0  0  0  0
   -2.5430   -3.5044    1.1902 C   0  0  0  0  0  0  0  0  0  0  0  0
   -1.6700   -3.8083    2.2718 C   0  0  0  0  0  0  0  0  0  0  0  0
   -1.0766   -3.1449    3.3239 N   0  0  0  0  0  0  0  0  0  0  0  0
   -0.0518   -3.9687    3.6792 C   0  0  0  0  0  0  0  0  0  0  0  0
    1.1264   -3.6821    4.3671 C   0  0  0  0  0  0  0  0  0  0  0  0
   -1.2209   -1.7848    3.8496 C   0  0  0  0  0  0  0  0  0  0  0  0
   -0.2986   -0.8081    3.1154 C   0  0  0  0  0  0  0  0  0  0  0  0
   -3.5057   -1.1739    1.4376 C   0  0  0  0  0  0  0  0  0  0  0  0
   -4.5668   -1.3186    2.5306 C   0  0  0  0  0  0  0  0  0  0  0  0
   -6.1279   -0.5277   -0.5610 C   0  0  0  0  0  0  0  0  0  0  0  0
   -7.0265   -1.7508   -0.3805 C   0  0  0  0  0  0  0  0  0  0  0  0
   -5.4738    4.5263   -4.5063 C   0  0  0  0  0  0  0  0  0  0  0  0
   -4.5365    5.3369   -3.9824 C   0  0  0  0  0  0  0  0  0  0  0  0
   -3.2842    4.8988   -3.3474 C   0  0  0  0  0  0  0  0  0  0  0  0
   -2.9980    3.7319   -2.9706 O   0  0  0  0  0  0  0  0  0  0  0  0
   -2.3793    6.0267   -3.3010 C   0  0  0  0  0  0  0  0  0  0  0  0
   -1.0481    6.0442   -2.8839 C   0  0  0  0  0  0  0  0  0  0  0  0
   -0.3192    7.2316   -3.0273 C   0  0  0  0  0  0  0  0  0  0  0  0
    0.9792    7.2770   -2.6381 F   0  0  0  0  0  0  0  0  0  0  0  0
   -0.9212    8.3650   -3.6034 C   0  0  0  0  0  0  0  0  0  0  0  0
   -0.1978    9.4993   -3.7755 F   0  0  0  0  0  0  0  0  0  0  0  0
   -2.2630    8.3246   -4.0200 C   0  0  0  0  0  0  0  0  0  0  0  0
   -2.9992    7.1428   -3.8363 C   0  0  0  0  0  0  0  0  0  0  0  0
   -4.4095    6.8109   -4.1901 C   0  0  0  0  0  0  0  0  0  0  0  0
   -5.4250    7.6887   -4.3979 C   0  0  0  0  0  0  0  0  0  0  0  0
   -6.8016    7.2681   -4.4417 C   0  0  0  0  0  0  0  0  0  0  0  0
   -7.9092    6.9363   -4.4723 N   0  0  0  0  0  0  0  0  0  0  0  0
   -5.2218    9.1135   -4.4399 C   0  0  0  0  0  0  0  0  0  0  0  0
   -5.0756   10.2617   -4.4740 N   0  0  0  0  0  0  0  0  0  0  0  0
    3.9637   -5.3591    4.9484 H   0  0  0  0  0  0  0  0  0  0  0  0
    4.3970   -0.2587    1.2809 H   0  0  0  0  0  0  0  0  0  0  0  0
    8.3746   -1.8619    4.0417 H   0  0  0  0  0  0  0  0  0  0  0  0
    9.3279    0.0125    1.3149 H   0  0  0  0  0  0  0  0  0  0  0  0
    9.5290    1.5413    3.6260 H   0  0  0  0  0  0  0  0  0  0  0  0
   10.4596    3.1138    1.6974 H   0  0  0  0  0  0  0  0  0  0  0  0
    8.4383    3.9357    0.2628 H   0  0  0  0  0  0  0  0  0  0  0  0
    6.2176    2.8903    1.2781 H   0  0  0  0  0  0  0  0  0  0  0  0
    7.6433    3.4096    3.4627 H   0  0  0  0  0  0  0  0  0  0  0  0
    6.8612    1.7865    3.6335 H   0  0  0  0  0  0  0  0  0  0  0  0
    7.4749    0.7689    0.0021 H   0  0  0  0  0  0  0  0  0  0  0  0
   -4.0887    3.4104   -6.6750 H   0  0  0  0  0  0  0  0  0  0  0  0
   -3.9325    1.6627   -7.0302 H   0  0  0  0  0  0  0  0  0  0  0  0
   -5.4967    2.7502   -8.6178 H   0  0  0  0  0  0  0  0  0  0  0  0
   -6.3727    1.5430   -7.6005 H   0  0  0  0  0  0  0  0  0  0  0  0
   -6.5349    3.3129   -7.2529 H   0  0  0  0  0  0  0  0  0  0  0  0
    1.3040   -2.7857    4.9450 H   0  0  0  0  0  0  0  0  0  0  0  0
   -0.9438   -1.7767    4.9261 H   0  0  0  0  0  0  0  0  0  0  0  0
   -2.2691   -1.4628    3.8477 H   0  0  0  0  0  0  0  0  0  0  0  0
    0.7443   -0.9230    3.4735 H   0  0  0  0  0  0  0  0  0  0  0  0
   -0.3115   -0.9936    2.0209 H   0  0  0  0  0  0  0  0  0  0  0  0
   -0.6229    0.2346    3.3169 H   0  0  0  0  0  0  0  0  0  0  0  0
   -2.5605   -0.8059    1.8396 H   0  0  0  0  0  0  0  0  0  0  0  0
   -3.7488   -0.3784    0.7180 H   0  0  0  0  0  0  0  0  0  0  0  0
   -5.5500   -1.5876    2.1012 H   0  0  0  0  0  0  0  0  0  0  0  0
   -4.6622   -0.3643    3.0895 H   0  0  0  0  0  0  0  0  0  0  0  0
   -4.2958   -2.1309    3.2355 H   0  0  0  0  0  0  0  0  0  0  0  0
   -6.7619    0.2856   -0.9755 H   0  0  0  0  0  0  0  0  0  0  0  0
   -5.7961   -0.1354    0.4090 H   0  0  0  0  0  0  0  0  0  0  0  0
   -6.4651   -2.5863    0.0882 H   0  0  0  0  0  0  0  0  0  0  0  0
   -7.8860   -1.4899    0.2720 H   0  0  0  0  0  0  0  0  0  0  0  0
   -7.4141   -2.0849   -1.3670 H   0  0  0  0  0  0  0  0  0  0  0  0
   -6.2127    4.9133   -5.1901 H   0  0  0  0  0  0  0  0  0  0  0  0
   -0.5817    5.1567   -2.4743 H   0  0  0  0  0  0  0  0  0  0  0  0
   -2.6797    9.1902   -4.5052 H   0  0  0  0  0  0  0  0  0  0  0  0
  1  2  2  3
  2  3  1  0
  3  4  2  0
  3  5  1  0
  5  6  2  0
  6  7  1  0
  7  8  2  0
  8  9  1  0
  9 10  2  0
 10 11  1  0
 11 12  2  3
 12 13  1  0
 13 14  3  0
 12 15  1  0
 15 16  3  0
  8 17  1  0
 17 18  1  0
 18 19  1  0
 19 20  2  0
 20 21  1  0
 21 22  1  0
 21 23  1  0
  1 24  1  0
 24 25  1  0
 25 26  1  0
 26 27  1  0
 27 28  1  0
 28 29  1  0
 29 30  1  0
 30 31  1  0
 31 32  1  0
 32 33  2  0
 33 34  1  0
 34 35  1  0
 32 36  1  0
 36 37  1  0
 37 38  1  0
 38 39  1  0
 39 40  1  0
 40 41  1  0
 41 42  1  0
 40 43  2  0
 43 44  1  0
 44 45  1  0
 45 46  1  0
 46 47  1  0
 47 48  1  0
 48 49  1  0
 49 50  1  0
 50 51  1  0
 51 52  1  0
 52 53  1  0
 53 54  1  0
 54 55  1  0
 53 56  1  0
 56 57  1  0
 50 58  1  0
 58 59  1  0
 47 60  1  0
 60 61  1  0
 43 62  1  0
 62 63  2  3
 63 64  1  0
 64 65  2  0
 64 66  1  0
 66 67  2  0
 67 68  1  0
 68 69  1  0
 68 70  2  0
 70 71  1  0
 70 72  1  0
 72 73  2  0
 73 74  1  0
 74 75  2  3
 75 76  1  0
 76 77  3  0
 75 78  1  0
 78 79  3  0
 11  2  1  0
 23 17  1  0
 55 24  2  0
 74 63  1  0
 10  5  1  0
 22 18  1  0
 54 26  2  0
 73 66  1  0
 23  7  1  0
 52 27  2  0
 51 29  2  0
 49 30  2  0
 35 31  2  0
 48 36  2  0
 46 37  2  0
 45 39  2  0
  1 80  1  0
  6 81  1  0
  9 82  1  0
 17 83  1  0
 18 84  1  0
 19 85  1  0
 20 86  1  0
 21 87  1  0
 22 88  1  0
 22 89  1  0
 23 90  1  0
 41 91  1  0
 41 92  1  0
 42 93  1  0
 42 94  1  0
 42 95  1  0
 55 96  1  0
 56 97  1  0
 56 98  1  0
 57 99  1  0
 57100  1  0
 57101  1  0
 58102  1  0
 58103  1  0
 59104  1  0
 59105  1  0
 59106  1  0
 60107  1  0
 60108  1  0
 61109  1  0
 61110  1  0
 61111  1  0
 62112  1  0
 67113  1  0
 72114  1  0
M  END

