
     RDKit          3D

124140  0  0  0  0  0  0  0  0999 V2000
   -3.9730    2.7763    7.4869 C   0  0  0  0  0  0  0  0  0  0  0  0
   -3.2348    3.7413    8.0880 C   0  0  0  0  0  0  0  0  0  0  0  0
   -1.7708    3.8883    8.0037 C   0  0  0  0  0  0  0  0  0  0  0  0
   -1.0543    3.7445    9.0145 O   0  0  0  0  0  0  0  0  0  0  0  0
   -1.5800    5.0808    7.2218 C   0  0  0  0  0  0  0  0  0  0  0  0
   -0.3207    5.5085    6.7367 C   0  0  0  0  0  0  0  0  0  0  0  0
   -0.1811    6.8806    6.7277 C   0  0  0  0  0  0  0  0  0  0  0  0
   -1.2268    7.7630    7.1459 C   0  0  0  0  0  0  0  0  0  0  0  0
   -2.5124    7.3465    7.4562 C   0  0  0  0  0  0  0  0  0  0  0  0
   -2.6911    5.9443    7.4774 C   0  0  0  0  0  0  0  0  0  0  0  0
   -3.7512    5.1264    8.1378 C   0  0  0  0  0  0  0  0  0  0  0  0
   -4.7113    5.5573    8.9837 C   0  0  0  0  0  0  0  0  0  0  0  0
   -5.3530    4.6336    9.8922 C   0  0  0  0  0  0  0  0  0  0  0  0
   -5.8548    3.8924   10.6244 N   0  0  0  0  0  0  0  0  0  0  0  0
   -5.1246    6.9341    9.1034 C   0  0  0  0  0  0  0  0  0  0  0  0
   -5.4714    8.0319    9.2164 N   0  0  0  0  0  0  0  0  0  0  0  0
   -0.2113    8.7693    7.6227 C   0  0  0  0  0  0  0  0  0  0  0  0
    0.1214    8.7755    9.1657 C   0  0  0  0  0  0  0  0  0  0  0  0
    0.0589    7.3700    9.7629 C   0  0  0  0  0  0  0  0  0  0  0  0
    1.0858    6.6808    9.2553 C   0  0  0  0  0  0  0  0  0  0  0  0
    1.7900    7.6244    8.2920 C   0  0  0  0  0  0  0  0  0  0  0  0
    1.6334    8.9178    9.0896 C   0  0  0  0  0  0  0  0  0  0  0  0
    0.8520    7.9260    7.0586 C   0  0  0  0  0  0  0  0  0  0  0  0
   -3.4857    1.8849    6.3972 C   0  0  0  0  0  0  0  0  0  0  0  0
   -2.1009    2.1785    5.4230 S   0  0  0  0  0  0  0  0  0  0  0  0
   -2.5355    1.0413    4.3073 C   0  0  0  0  0  0  0  0  0  0  0  0
   -2.1398    0.5108    3.1231 C   0  0  0  0  0  0  0  0  0  0  0  0
   -0.9173    0.7396    1.9944 S   0  0  0  0  0  0  0  0  0  0  0  0
   -1.5818   -0.4967    1.0089 C   0  0  0  0  0  0  0  0  0  0  0  0
   -1.0289   -0.9279   -0.2042 C   0  0  0  0  0  0  0  0  0  0  0  0
   -0.0163   -0.1604   -0.7905 O   0  0  0  0  0  0  0  0  0  0  0  0
   -0.2462    0.6917   -1.9079 C   0  0  0  0  0  0  0  0  0  0  0  0
   -1.0050    1.9357   -1.4891 C   0  0  0  0  0  0  0  0  0  0  0  0
   -1.6034   -2.0696   -0.8291 C   0  0  0  0  0  0  0  0  0  0  0  0
   -2.7822   -2.6374   -0.2963 C   0  0  0  0  0  0  0  0  0  0  0  0
   -3.3381   -2.1965    0.9289 C   0  0  0  0  0  0  0  0  0  0  0  0
   -4.3606   -2.9188    1.5567 O   0  0  0  0  0  0  0  0  0  0  0  0
   -4.2135   -4.2879    1.9263 C   0  0  0  0  0  0  0  0  0  0  0  0
   -5.5122   -4.8185    2.5086 C   0  0  0  0  0  0  0  0  0  0  0  0
   -2.7653   -1.0664    1.5484 C   0  0  0  0  0  0  0  0  0  0  0  0
   -3.0908   -0.3999    2.7549 C   0  0  0  0  0  0  0  0  0  0  0  0
   -4.1190   -0.4249    3.6582 N   0  0  0  0  0  0  0  0  0  0  0  0
   -3.7123    0.4486    4.6180 C   0  0  0  0  0  0  0  0  0  0  0  0
   -4.3018    0.8948    5.7977 C   0  0  0  0  0  0  0  0  0  0  0  0
   -5.4556   -1.0408    3.5825 C   0  0  0  0  0  0  0  0  0  0  0  0
   -6.2490   -0.4776    2.3993 C   0  0  0  0  0  0  0  0  0  0  0  0
   -3.3713   -3.9074   -1.3048 S   0  0  0  0  0  0  0  0  0  0  0  0
   -2.0985   -3.7319   -2.3820 C   0  0  0  0  0  0  0  0  0  0  0  0
   -1.5230   -4.4298   -3.4053 C   0  0  0  0  0  0  0  0  0  0  0  0
   -1.7047   -5.7878   -4.3747 S   0  0  0  0  0  0  0  0  0  0  0  0
   -0.1415   -5.5882   -5.0626 C   0  0  0  0  0  0  0  0  0  0  0  0
    0.4834   -4.4429   -4.5325 C   0  0  0  0  0  0  0  0  0  0  0  0
   -0.3176   -3.8509   -3.5785 C   0  0  0  0  0  0  0  0  0  0  0  0
   -0.0517   -2.8417   -2.7228 N   0  0  0  0  0  0  0  0  0  0  0  0
    1.3051   -2.3731   -2.3990 C   0  0  0  0  0  0  0  0  0  0  0  0
    1.8155   -1.4185   -3.4700 C   0  0  0  0  0  0  0  0  0  0  0  0
   -1.2034   -2.7581   -1.9965 C   0  0  0  0  0  0  0  0  0  0  0  0
    0.4117   -6.3553   -6.2191 C   0  0  0  0  0  0  0  0  0  0  0  0
    1.7384   -6.3286   -6.4976 C   0  0  0  0  0  0  0  0  0  0  0  0
    2.8024   -6.1751   -5.4941 C   0  0  0  0  0  0  0  0  0  0  0  0
    2.7013   -6.4123   -4.2623 O   0  0  0  0  0  0  0  0  0  0  0  0
    3.9436   -5.5561   -6.1097 C   0  0  0  0  0  0  0  0  0  0  0  0
    4.8733   -4.7308   -5.4267 C   0  0  0  0  0  0  0  0  0  0  0  0
    5.5327   -3.8439   -6.2462 C   0  0  0  0  0  0  0  0  0  0  0  0
    5.3695   -3.8244   -7.6631 C   0  0  0  0  0  0  0  0  0  0  0  0
    4.4943   -4.6525   -8.3506 C   0  0  0  0  0  0  0  0  0  0  0  0
    3.7306   -5.5198   -7.5137 C   0  0  0  0  0  0  0  0  0  0  0  0
    2.3791   -6.0935   -7.8227 C   0  0  0  0  0  0  0  0  0  0  0  0
    1.7725   -6.0089   -9.0282 C   0  0  0  0  0  0  0  0  0  0  0  0
    0.4114   -5.5547   -9.1499 C   0  0  0  0  0  0  0  0  0  0  0  0
   -0.6571   -5.1280   -9.2244 N   0  0  0  0  0  0  0  0  0  0  0  0
    2.5236   -6.0664  -10.2394 C   0  0  0  0  0  0  0  0  0  0  0  0
    3.1571   -6.0693  -11.2268 N   0  0  0  0  0  0  0  0  0  0  0  0
    6.2498   -2.6103   -7.7724 C   0  0  0  0  0  0  0  0  0  0  0  0
    7.7201   -2.7990   -8.2456 C   0  0  0  0  0  0  0  0  0  0  0  0
    8.4225   -1.5044   -7.8952 C   0  0  0  0  0  0  0  0  0  0  0  0
    8.5236   -1.4739   -6.5571 C   0  0  0  0  0  0  0  0  0  0  0  0
    7.8893   -2.7517   -6.0523 C   0  0  0  0  0  0  0  0  0  0  0  0
    8.3224   -3.6902   -7.1692 C   0  0  0  0  0  0  0  0  0  0  0  0
    6.3685   -2.5991   -6.3110 C   0  0  0  0  0  0  0  0  0  0  0  0
   -5.0461    2.8347    7.6179 H   0  0  0  0  0  0  0  0  0  0  0  0
    0.5293    4.8202    6.6403 H   0  0  0  0  0  0  0  0  0  0  0  0
   -3.2162    8.0625    7.8824 H   0  0  0  0  0  0  0  0  0  0  0  0
   -0.3053    9.7809    7.1670 H   0  0  0  0  0  0  0  0  0  0  0  0
   -0.3885    9.5567    9.7635 H   0  0  0  0  0  0  0  0  0  0  0  0
   -0.7071    6.9754   10.4112 H   0  0  0  0  0  0  0  0  0  0  0  0
    1.3010    5.6143    9.3946 H   0  0  0  0  0  0  0  0  0  0  0  0
    2.8333    7.3416    8.0385 H   0  0  0  0  0  0  0  0  0  0  0  0
    2.1477    8.8526   10.0907 H   0  0  0  0  0  0  0  0  0  0  0  0
    1.9870    9.8286    8.5391 H   0  0  0  0  0  0  0  0  0  0  0  0
    1.3680    8.3845    6.1722 H   0  0  0  0  0  0  0  0  0  0  0  0
    0.7422    1.0036   -2.3124 H   0  0  0  0  0  0  0  0  0  0  0  0
   -0.8195    0.1386   -2.7036 H   0  0  0  0  0  0  0  0  0  0  0  0
   -1.1130    2.6154   -2.3578 H   0  0  0  0  0  0  0  0  0  0  0  0
   -2.0067    1.6787   -1.1068 H   0  0  0  0  0  0  0  0  0  0  0  0
   -0.4448    2.4837   -0.7043 H   0  0  0  0  0  0  0  0  0  0  0  0
   -3.9401   -4.9178    1.0573 H   0  0  0  0  0  0  0  0  0  0  0  0
   -3.4015   -4.3862    2.6720 H   0  0  0  0  0  0  0  0  0  0  0  0
   -5.4720   -5.9351    2.5225 H   0  0  0  0  0  0  0  0  0  0  0  0
   -5.6435   -4.4534    3.5440 H   0  0  0  0  0  0  0  0  0  0  0  0
   -6.3741   -4.4943    1.8891 H   0  0  0  0  0  0  0  0  0  0  0  0
   -5.2931    0.6254    6.1631 H   0  0  0  0  0  0  0  0  0  0  0  0
   -5.3663   -2.1308    3.5337 H   0  0  0  0  0  0  0  0  0  0  0  0
   -6.0200   -0.8062    4.5082 H   0  0  0  0  0  0  0  0  0  0  0  0
   -7.2968   -0.8372    2.4591 H   0  0  0  0  0  0  0  0  0  0  0  0
   -5.8198   -0.8176    1.4351 H   0  0  0  0  0  0  0  0  0  0  0  0
   -6.2391    0.6379    2.4250 H   0  0  0  0  0  0  0  0  0  0  0  0
    1.4417   -4.0490   -4.8230 H   0  0  0  0  0  0  0  0  0  0  0  0
    1.3468   -1.9263   -1.4020 H   0  0  0  0  0  0  0  0  0  0  0  0
    1.9846   -3.2522   -2.3351 H   0  0  0  0  0  0  0  0  0  0  0  0
    2.2995   -1.9920   -4.2962 H   0  0  0  0  0  0  0  0  0  0  0  0
    0.9920   -0.8144   -3.9104 H   0  0  0  0  0  0  0  0  0  0  0  0
    2.5732   -0.7398   -3.0244 H   0  0  0  0  0  0  0  0  0  0  0  0
   -0.2905   -6.6713   -6.9804 H   0  0  0  0  0  0  0  0  0  0  0  0
    4.9021   -4.6409   -4.3444 H   0  0  0  0  0  0  0  0  0  0  0  0
    4.2926   -4.4624   -9.4003 H   0  0  0  0  0  0  0  0  0  0  0  0
    5.7249   -1.7197   -8.1900 H   0  0  0  0  0  0  0  0  0  0  0  0
    7.8449   -3.1404   -9.2948 H   0  0  0  0  0  0  0  0  0  0  0  0
    8.8380   -0.7834   -8.5732 H   0  0  0  0  0  0  0  0  0  0  0  0
    9.0320   -0.7152   -5.9722 H   0  0  0  0  0  0  0  0  0  0  0  0
    8.1785   -3.0586   -5.0250 H   0  0  0  0  0  0  0  0  0  0  0  0
    9.4393   -3.7997   -7.2476 H   0  0  0  0  0  0  0  0  0  0  0  0
    7.8697   -4.7026   -7.1192 H   0  0  0  0  0  0  0  0  0  0  0  0
    5.8870   -1.7170   -5.8131 H   0  0  0  0  0  0  0  0  0  0  0  0
  1  2  2  3
  2  3  1  0
  3  4  2  0
  3  5  1  0
  5  6  2  0
  6  7  1  0
  7  8  2  0
  8  9  1  0
  9 10  2  0
 10 11  1  0
 11 12  2  3
 12 13  1  0
 13 14  3  0
 12 15  1  0
 15 16  3  0
  8 17  1  0
 17 18  1  0
 18 19  1  0
 19 20  2  0
 20 21  1  0
 21 22  1  0
 21 23  1  0
  1 24  1  0
 24 25  1  0
 25 26  1  0
 26 27  1  0
 27 28  1  0
 28 29  1  0
 29 30  2  0
 30 31  1  0
 31 32  1  0
 32 33  1  0
 30 34  1  0
 34 35  2  0
 35 36  1  0
 36 37  1  0
 37 38  1  0
 38 39  1  0
 36 40  2  0
 40 41  1  0
 41 42  1  0
 42 43  1  0
 43 44  1  0
 42 45  1  0
 45 46  1  0
 35 47  1  0
 47 48  1  0
 48 49  1  0
 49 50  1  0
 50 51  1  0
 51 52  2  0
 52 53  1  0
 53 54  1  0
 54 55  1  0
 55 56  1  0
 54 57  1  0
 51 58  1  0
 58 59  2  3
 59 60  1  0
 60 61  2  0
 60 62  1  0
 62 63  2  0
 63 64  1  0
 64 65  2  0
 65 66  1  0
 66 67  2  0
 67 68  1  0
 68 69  2  3
 69 70  1  0
 70 71  3  0
 69 72  1  0
 72 73  3  0
 65 74  1  0
 74 75  1  0
 75 76  1  0
 76 77  2  0
 77 78  1  0
 78 79  1  0
 78 80  1  0
 11  2  1  0
 23 17  1  0
 44 24  2  0
 57 48  2  0
 68 59  1  0
 80 74  1  0
 10  5  1  0
 22 18  1  0
 43 26  2  0
 53 49  2  0
 67 62  1  0
 79 75  1  0
 23  7  1  0
 41 27  2  0
 80 64  1  0
 40 29  1  0
 57 34  1  0
  1 81  1  0
  6 82  1  0
  9 83  1  0
 17 84  1  0
 18 85  1  0
 19 86  1  0
 20 87  1  0
 21 88  1  0
 22 89  1  0
 22 90  1  0
 23 91  1  0
 32 92  1  0
 32 93  1  0
 33 94  1  0
 33 95  1  0
 33 96  1  0
 38 97  1  0
 38 98  1  0
 39 99  1  0
 39100  1  0
 39101  1  0
 44102  1  0
 45103  1  0
 45104  1  0
 46105  1  0
 46106  1  0
 46107  1  0
 52108  1  0
 55109  1  0
 55110  1  0
 56111  1  0
 56112  1  0
 56113  1  0
 58114  1  0
 63115  1  0
 66116  1  0
 74117  1  0
 75118  1  0
 76119  1  0
 77120  1  0
 78121  1  0
 79122  1  0
 79123  1  0
 80124  1  0
M  END

