
     RDKit          3D

118133  0  0  0  0  0  0  0  0999 V2000
   -0.5742   -3.4905    7.2477 C   0  0  0  0  0  0  0  0  0  0  0  0
    0.5499   -4.0152    7.7709 C   0  0  0  0  0  0  0  0  0  0  0  0
    1.8327   -4.1698    7.0679 C   0  0  0  0  0  0  0  0  0  0  0  0
    2.0205   -4.1076    5.8254 O   0  0  0  0  0  0  0  0  0  0  0  0
    2.8879   -4.2800    8.0534 C   0  0  0  0  0  0  0  0  0  0  0  0
    4.2817   -4.2929    7.8102 C   0  0  0  0  0  0  0  0  0  0  0  0
    5.0505   -4.2234    8.9576 C   0  0  0  0  0  0  0  0  0  0  0  0
    4.4878   -4.1305   10.2712 C   0  0  0  0  0  0  0  0  0  0  0  0
    3.1252   -4.1208   10.5163 C   0  0  0  0  0  0  0  0  0  0  0  0
    2.3163   -4.2299    9.3504 C   0  0  0  0  0  0  0  0  0  0  0  0
    0.8343   -4.1935    9.2266 C   0  0  0  0  0  0  0  0  0  0  0  0
   -0.0672   -4.5111   10.1924 C   0  0  0  0  0  0  0  0  0  0  0  0
   -1.4670   -4.6919    9.9022 C   0  0  0  0  0  0  0  0  0  0  0  0
   -2.5920   -4.8418    9.6742 N   0  0  0  0  0  0  0  0  0  0  0  0
    0.3258   -4.8491   11.5352 C   0  0  0  0  0  0  0  0  0  0  0  0
    0.6282   -5.1266   12.6174 N   0  0  0  0  0  0  0  0  0  0  0  0
    5.8584   -4.0171   10.8698 C   0  0  0  0  0  0  0  0  0  0  0  0
    6.3265   -2.6103   11.3530 C   0  0  0  0  0  0  0  0  0  0  0  0
    5.6857   -1.5297   10.5098 C   0  0  0  0  0  0  0  0  0  0  0  0
    6.2184   -1.6308    9.2915 C   0  0  0  0  0  0  0  0  0  0  0  0
    7.2003   -2.7785    9.3441 C   0  0  0  0  0  0  0  0  0  0  0  0
    7.7216   -2.5814   10.7556 C   0  0  0  0  0  0  0  0  0  0  0  0
    6.4366   -4.1259    9.5261 C   0  0  0  0  0  0  0  0  0  0  0  0
   -0.7758   -3.2363    5.8148 C   0  0  0  0  0  0  0  0  0  0  0  0
   -0.7142   -4.4287    4.5812 S   0  0  0  0  0  0  0  0  0  0  0  0
   -1.1743   -3.3216    3.4140 C   0  0  0  0  0  0  0  0  0  0  0  0
   -1.5019   -3.2487    2.1006 C   0  0  0  0  0  0  0  0  0  0  0  0
   -1.5111   -4.2798    0.7713 S   0  0  0  0  0  0  0  0  0  0  0  0
   -2.0644   -2.9881   -0.1862 C   0  0  0  0  0  0  0  0  0  0  0  0
   -1.9571   -2.7263   -1.5177 C   0  0  0  0  0  0  0  0  0  0  0  0
   -1.4328   -3.5425   -2.5291 C   0  0  0  0  0  0  0  0  0  0  0  0
   -1.0490   -2.9483   -3.7600 C   0  0  0  0  0  0  0  0  0  0  0  0
   -0.5138   -3.7637   -4.7020 N   0  0  0  0  0  0  0  0  0  0  0  0
   -0.5555   -5.2009   -3.8813 S   0  0  0  0  0  0  0  0  0  0  0  0
   -1.2093   -4.8736   -2.3960 N   0  0  0  0  0  0  0  0  0  0  0  0
   -1.2433   -1.5790   -3.9262 C   0  0  0  0  0  0  0  0  0  0  0  0
   -1.0433   -0.7821   -5.0112 C   0  0  0  0  0  0  0  0  0  0  0  0
   -0.4896   -0.9031   -6.6110 S   0  0  0  0  0  0  0  0  0  0  0  0
   -0.9317    0.7212   -6.9029 C   0  0  0  0  0  0  0  0  0  0  0  0
   -0.8206    1.5610   -8.0125 C   0  0  0  0  0  0  0  0  0  0  0  0
   -0.2129    1.1417   -9.3238 C   0  0  0  0  0  0  0  0  0  0  0  0
    1.2118    1.6657   -9.4594 C   0  0  0  0  0  0  0  0  0  0  0  0
   -1.2923    2.8552   -7.7116 C   0  0  0  0  0  0  0  0  0  0  0  0
   -1.8991    2.8916   -6.1124 S   0  0  0  0  0  0  0  0  0  0  0  0
   -1.5104    1.2931   -5.7983 C   0  0  0  0  0  0  0  0  0  0  0  0
   -1.5623    0.4274   -4.7144 C   0  0  0  0  0  0  0  0  0  0  0  0
   -2.1210    0.4816   -3.4781 N   0  0  0  0  0  0  0  0  0  0  0  0
   -1.8402   -0.7620   -2.9456 C   0  0  0  0  0  0  0  0  0  0  0  0
   -2.1202   -1.3381   -1.6606 C   0  0  0  0  0  0  0  0  0  0  0  0
   -2.2426   -0.7485   -0.4178 N   0  0  0  0  0  0  0  0  0  0  0  0
   -2.2149   -1.7921    0.4726 C   0  0  0  0  0  0  0  0  0  0  0  0
   -1.8830   -1.9492    1.8451 C   0  0  0  0  0  0  0  0  0  0  0  0
   -1.8250   -1.1954    2.9979 N   0  0  0  0  0  0  0  0  0  0  0  0
   -1.3875   -2.0930    3.9249 C   0  0  0  0  0  0  0  0  0  0  0  0
   -1.2043   -2.0025    5.3021 C   0  0  0  0  0  0  0  0  0  0  0  0
   -2.4098    0.0963    3.3593 C   0  0  0  0  0  0  0  0  0  0  0  0
   -3.8904   -0.0628    3.6937 C   0  0  0  0  0  0  0  0  0  0  0  0
   -2.0136    0.6557   -0.0896 C   0  0  0  0  0  0  0  0  0  0  0  0
   -3.3229    1.3356    0.3338 C   0  0  0  0  0  0  0  0  0  0  0  0
   -3.2246    1.3966   -3.1506 C   0  0  0  0  0  0  0  0  0  0  0  0
   -4.5522    0.6485   -3.0208 C   0  0  0  0  0  0  0  0  0  0  0  0
   -1.3474    3.9789   -8.6675 C   0  0  0  0  0  0  0  0  0  0  0  0
   -1.2991    5.2802   -8.3341 C   0  0  0  0  0  0  0  0  0  0  0  0
   -1.7881    6.3434   -9.2108 C   0  0  0  0  0  0  0  0  0  0  0  0
   -2.0119    6.2422  -10.4483 O   0  0  0  0  0  0  0  0  0  0  0  0
   -2.0627    7.5083   -8.3954 C   0  0  0  0  0  0  0  0  0  0  0  0
   -2.7007    8.6914   -8.7632 C   0  0  0  0  0  0  0  0  0  0  0  0
   -3.0139    9.6168   -7.7599 C   0  0  0  0  0  0  0  0  0  0  0  0
   -2.7449    9.3215   -6.4110 C   0  0  0  0  0  0  0  0  0  0  0  0
   -2.1257    8.1012   -6.0487 C   0  0  0  0  0  0  0  0  0  0  0  0
   -1.9671    7.7161   -4.7093 O   0  0  0  0  0  0  0  0  0  0  0  0
   -2.3875    8.4914   -3.5922 C   0  0  0  0  0  0  0  0  0  0  0  0
   -1.7154    7.2373   -7.0816 C   0  0  0  0  0  0  0  0  0  0  0  0
   -1.0289    5.9190   -7.0150 C   0  0  0  0  0  0  0  0  0  0  0  0
    0.0507    5.6520   -6.2358 C   0  0  0  0  0  0  0  0  0  0  0  0
    0.5348    6.5866   -5.2521 C   0  0  0  0  0  0  0  0  0  0  0  0
    0.9494    7.3354   -4.4751 N   0  0  0  0  0  0  0  0  0  0  0  0
    0.9445    4.5576   -6.5188 C   0  0  0  0  0  0  0  0  0  0  0  0
    1.6790    3.6873   -6.7327 N   0  0  0  0  0  0  0  0  0  0  0  0
   -1.3443   -3.1167    7.9067 H   0  0  0  0  0  0  0  0  0  0  0  0
    4.7124   -4.3017    6.8175 H   0  0  0  0  0  0  0  0  0  0  0  0
    2.7440   -3.9758   11.5144 H   0  0  0  0  0  0  0  0  0  0  0  0
    6.1291   -4.8600   11.5452 H   0  0  0  0  0  0  0  0  0  0  0  0
    6.2721   -2.4421   12.4494 H   0  0  0  0  0  0  0  0  0  0  0  0
    4.9905   -0.7632   10.8380 H   0  0  0  0  0  0  0  0  0  0  0  0
    6.0305   -0.9631    8.4576 H   0  0  0  0  0  0  0  0  0  0  0  0
    7.9706   -2.7744    8.5454 H   0  0  0  0  0  0  0  0  0  0  0  0
    8.3753   -3.4126   11.1105 H   0  0  0  0  0  0  0  0  0  0  0  0
    8.2468   -1.6068   10.9025 H   0  0  0  0  0  0  0  0  0  0  0  0
    7.0517   -5.0412    9.3779 H   0  0  0  0  0  0  0  0  0  0  0  0
   -0.8305    1.5174  -10.1651 H   0  0  0  0  0  0  0  0  0  0  0  0
   -0.1974    0.0338   -9.3990 H   0  0  0  0  0  0  0  0  0  0  0  0
    1.6465    1.3144  -10.4189 H   0  0  0  0  0  0  0  0  0  0  0  0
    1.8424    1.2899   -8.6243 H   0  0  0  0  0  0  0  0  0  0  0  0
    1.2201    2.7770   -9.4559 H   0  0  0  0  0  0  0  0  0  0  0  0
   -1.3684   -1.1140    5.8957 H   0  0  0  0  0  0  0  0  0  0  0  0
   -2.2427    0.8538    2.5927 H   0  0  0  0  0  0  0  0  0  0  0  0
   -1.8914    0.5044    4.2533 H   0  0  0  0  0  0  0  0  0  0  0  0
   -4.4221   -0.5999    2.8803 H   0  0  0  0  0  0  0  0  0  0  0  0
   -4.3518    0.9373    3.8333 H   0  0  0  0  0  0  0  0  0  0  0  0
   -4.0031   -0.6448    4.6319 H   0  0  0  0  0  0  0  0  0  0  0  0
   -1.2498    0.7233    0.7095 H   0  0  0  0  0  0  0  0  0  0  0  0
   -1.5395    1.1864   -0.9347 H   0  0  0  0  0  0  0  0  0  0  0  0
   -3.1059    2.3337    0.7694 H   0  0  0  0  0  0  0  0  0  0  0  0
   -4.0290    1.4641   -0.4981 H   0  0  0  0  0  0  0  0  0  0  0  0
   -3.8656    0.7182    1.0683 H   0  0  0  0  0  0  0  0  0  0  0  0
   -3.3662    2.1362   -3.9590 H   0  0  0  0  0  0  0  0  0  0  0  0
   -2.9869    2.0172   -2.2776 H   0  0  0  0  0  0  0  0  0  0  0  0
   -5.3636    1.3697   -2.7849 H   0  0  0  0  0  0  0  0  0  0  0  0
   -4.7932    0.1377   -3.9783 H   0  0  0  0  0  0  0  0  0  0  0  0
   -4.5108   -0.1103   -2.2129 H   0  0  0  0  0  0  0  0  0  0  0  0
   -1.5384    3.7268   -9.7028 H   0  0  0  0  0  0  0  0  0  0  0  0
   -2.9652    8.8848   -9.7953 H   0  0  0  0  0  0  0  0  0  0  0  0
   -3.5037   10.5459   -8.0199 H   0  0  0  0  0  0  0  0  0  0  0  0
   -3.0492   10.0361   -5.6578 H   0  0  0  0  0  0  0  0  0  0  0  0
   -1.8476    9.4618   -3.5775 H   0  0  0  0  0  0  0  0  0  0  0  0
   -3.4849    8.6621   -3.6368 H   0  0  0  0  0  0  0  0  0  0  0  0
   -2.1522    7.9407   -2.6573 H   0  0  0  0  0  0  0  0  0  0  0  0
  1  2  2  3
  2  3  1  0
  3  4  2  0
  3  5  1  0
  5  6  2  0
  6  7  1  0
  7  8  2  0
  8  9  1  0
  9 10  2  0
 10 11  1  0
 11 12  2  3
 12 13  1  0
 13 14  3  0
 12 15  1  0
 15 16  3  0
  8 17  1  0
 17 18  1  0
 18 19  1  0
 19 20  2  0
 20 21  1  0
 21 22  1  0
 21 23  1  0
  1 24  1  0
 24 25  1  0
 25 26  1  0
 26 27  1  0
 27 28  1  0
 28 29  1  0
 29 30  1  0
 30 31  1  0
 31 32  1  0
 32 33  2  0
 33 34  1  0
 34 35  1  0
 32 36  1  0
 36 37  1  0
 37 38  1  0
 38 39  1  0
 39 40  1  0
 40 41  1  0
 41 42  1  0
 40 43  2  0
 43 44  1  0
 44 45  1  0
 45 46  1  0
 46 47  1  0
 47 48  1  0
 48 49  1  0
 49 50  1  0
 50 51  1  0
 51 52  1  0
 52 53  1  0
 53 54  1  0
 54 55  1  0
 53 56  1  0
 56 57  1  0
 50 58  1  0
 58 59  1  0
 47 60  1  0
 60 61  1  0
 43 62  1  0
 62 63  2  3
 63 64  1  0
 64 65  2  0
 64 66  1  0
 66 67  2  0
 67 68  1  0
 68 69  2  0
 69 70  1  0
 70 71  1  0
 71 72  1  0
 70 73  2  0
 73 74  1  0
 74 75  2  3
 75 76  1  0
 76 77  3  0
 75 78  1  0
 78 79  3  0
 11  2  1  0
 23 17  1  0
 55 24  2  0
 74 63  1  0
 10  5  1  0
 22 18  1  0
 54 26  2  0
 73 66  1  0
 23  7  1  0
 52 27  2  0
 51 29  2  0
 49 30  2  0
 35 31  2  0
 48 36  2  0
 46 37  2  0
 45 39  2  0
  1 80  1  0
  6 81  1  0
  9 82  1  0
 17 83  1  0
 18 84  1  0
 19 85  1  0
 20 86  1  0
 21 87  1  0
 22 88  1  0
 22 89  1  0
 23 90  1  0
 41 91  1  0
 41 92  1  0
 42 93  1  0
 42 94  1  0
 42 95  1  0
 55 96  1  0
 56 97  1  0
 56 98  1  0
 57 99  1  0
 57100  1  0
 57101  1  0
 58102  1  0
 58103  1  0
 59104  1  0
 59105  1  0
 59106  1  0
 60107  1  0
 60108  1  0
 61109  1  0
 61110  1  0
 61111  1  0
 62112  1  0
 67113  1  0
 68114  1  0
 69115  1  0
 72116  1  0
 72117  1  0
 72118  1  0
M  END

