
     RDKit          3D

114129  0  0  0  0  0  0  0  0999 V2000
   -3.8080    5.9957    3.2248 C   0  0  0  0  0  0  0  0  0  0  0  0
   -3.9820    5.5235    4.4758 C   0  0  0  0  0  0  0  0  0  0  0  0
   -4.3283    4.1229    4.7456 C   0  0  0  0  0  0  0  0  0  0  0  0
   -5.1447    3.4270    4.0836 O   0  0  0  0  0  0  0  0  0  0  0  0
   -3.5121    3.6402    5.8357 C   0  0  0  0  0  0  0  0  0  0  0  0
   -3.2683    2.2874    6.1625 C   0  0  0  0  0  0  0  0  0  0  0  0
   -2.2050    2.1082    7.0242 C   0  0  0  0  0  0  0  0  0  0  0  0
   -1.4237    3.1924    7.5450 C   0  0  0  0  0  0  0  0  0  0  0  0
   -1.6692    4.5232    7.2385 C   0  0  0  0  0  0  0  0  0  0  0  0
   -2.7663    4.7289    6.3562 C   0  0  0  0  0  0  0  0  0  0  0  0
   -3.1646    5.9699    5.6365 C   0  0  0  0  0  0  0  0  0  0  0  0
   -2.9530    7.2472    6.0303 C   0  0  0  0  0  0  0  0  0  0  0  0
   -3.5098    8.3592    5.3013 C   0  0  0  0  0  0  0  0  0  0  0  0
   -3.9570    9.2531    4.7160 N   0  0  0  0  0  0  0  0  0  0  0  0
   -2.2991    7.5651    7.2732 C   0  0  0  0  0  0  0  0  0  0  0  0
   -1.7910    7.8293    8.2775 N   0  0  0  0  0  0  0  0  0  0  0  0
   -0.5240    2.2231    8.2537 C   0  0  0  0  0  0  0  0  0  0  0  0
   -0.7087    2.0938    9.7944 C   0  0  0  0  0  0  0  0  0  0  0  0
   -0.0063    0.8151   10.1896 C   0  0  0  0  0  0  0  0  0  0  0  0
   -0.7444   -0.1931    9.7015 C   0  0  0  0  0  0  0  0  0  0  0  0
   -1.9180    0.4403    8.9921 C   0  0  0  0  0  0  0  0  0  0  0  0
   -2.1478    1.6178    9.9278 C   0  0  0  0  0  0  0  0  0  0  0  0
   -1.3290    1.1150    7.7196 C   0  0  0  0  0  0  0  0  0  0  0  0
   -3.5243    5.0461    2.1399 C   0  0  0  0  0  0  0  0  0  0  0  0
   -4.4961    4.7683    0.7541 S   0  0  0  0  0  0  0  0  0  0  0  0
   -3.5892    3.4236    0.3231 C   0  0  0  0  0  0  0  0  0  0  0  0
   -3.4657    2.4730   -0.6492 C   0  0  0  0  0  0  0  0  0  0  0  0
   -4.1323    2.0666   -2.1596 S   0  0  0  0  0  0  0  0  0  0  0  0
   -2.9555    0.8403   -2.3137 C   0  0  0  0  0  0  0  0  0  0  0  0
   -2.7355   -0.2395   -3.1179 C   0  0  0  0  0  0  0  0  0  0  0  0
   -3.3968   -0.7117   -4.2552 C   0  0  0  0  0  0  0  0  0  0  0  0
   -2.9757   -1.9510   -4.8259 C   0  0  0  0  0  0  0  0  0  0  0  0
   -3.6180   -2.3596   -5.9470 N   0  0  0  0  0  0  0  0  0  0  0  0
   -4.6959   -1.1114   -6.1195 S   0  0  0  0  0  0  0  0  0  0  0  0
   -4.4136   -0.0607   -4.8697 N   0  0  0  0  0  0  0  0  0  0  0  0
   -1.9099   -2.6411   -4.2288 C   0  0  0  0  0  0  0  0  0  0  0  0
   -1.1216   -3.6459   -4.7197 C   0  0  0  0  0  0  0  0  0  0  0  0
   -0.9028   -4.3367   -6.2581 S   0  0  0  0  0  0  0  0  0  0  0  0
    0.7183   -4.7080   -5.9087 C   0  0  0  0  0  0  0  0  0  0  0  0
    1.7836   -5.1374   -6.7077 C   0  0  0  0  0  0  0  0  0  0  0  0
    1.6221   -5.6459   -8.1149 C   0  0  0  0  0  0  0  0  0  0  0  0
    1.8433   -4.5377   -9.1380 C   0  0  0  0  0  0  0  0  0  0  0  0
    3.0149   -4.9294   -6.0548 C   0  0  0  0  0  0  0  0  0  0  0  0
    2.7330   -4.3114   -4.4901 S   0  0  0  0  0  0  0  0  0  0  0  0
    1.0694   -4.2591   -4.6602 C   0  0  0  0  0  0  0  0  0  0  0  0
    0.0188   -3.6602   -3.9720 C   0  0  0  0  0  0  0  0  0  0  0  0
   -0.0023   -2.7436   -2.9673 N   0  0  0  0  0  0  0  0  0  0  0  0
   -1.2276   -2.1394   -3.1089 C   0  0  0  0  0  0  0  0  0  0  0  0
   -1.7121   -0.9592   -2.4939 C   0  0  0  0  0  0  0  0  0  0  0  0
   -1.4043   -0.4347   -1.2676 N   0  0  0  0  0  0  0  0  0  0  0  0
   -2.1113    0.7301   -1.2464 C   0  0  0  0  0  0  0  0  0  0  0  0
   -2.3981    1.6911   -0.2812 C   0  0  0  0  0  0  0  0  0  0  0  0
   -1.7989    2.1386    0.8569 N   0  0  0  0  0  0  0  0  0  0  0  0
   -2.5779    3.1968    1.1967 C   0  0  0  0  0  0  0  0  0  0  0  0
   -2.4826    4.1102    2.2271 C   0  0  0  0  0  0  0  0  0  0  0  0
   -0.4737    1.8435    1.4011 C   0  0  0  0  0  0  0  0  0  0  0  0
   -0.5881    1.1058    2.7322 C   0  0  0  0  0  0  0  0  0  0  0  0
   -1.1248   -1.2719   -0.0875 C   0  0  0  0  0  0  0  0  0  0  0  0
   -2.3948   -1.5491    0.7218 C   0  0  0  0  0  0  0  0  0  0  0  0
    1.1983   -2.2050   -2.3044 C   0  0  0  0  0  0  0  0  0  0  0  0
    1.8017   -3.2160   -1.3258 C   0  0  0  0  0  0  0  0  0  0  0  0
    4.3498   -5.1790   -6.6331 C   0  0  0  0  0  0  0  0  0  0  0  0
    5.4525   -4.4607   -6.3429 C   0  0  0  0  0  0  0  0  0  0  0  0
    6.8034   -5.0125   -6.4505 C   0  0  0  0  0  0  0  0  0  0  0  0
    7.1321   -6.0527   -7.0866 O   0  0  0  0  0  0  0  0  0  0  0  0
    7.6716   -4.2501   -5.5731 C   0  0  0  0  0  0  0  0  0  0  0  0
    8.9975   -4.5095   -5.2244 C   0  0  0  0  0  0  0  0  0  0  0  0
    9.5939   -3.7166   -4.2312 C   0  0  0  0  0  0  0  0  0  0  0  0
   11.4118   -4.0224   -3.7308 Br  0  0  0  0  0  0  0  0  0  0  0  0
    8.8438   -2.7243   -3.5745 C   0  0  0  0  0  0  0  0  0  0  0  0
    7.5066   -2.4827   -3.9382 C   0  0  0  0  0  0  0  0  0  0  0  0
    6.9438   -3.2379   -4.9749 C   0  0  0  0  0  0  0  0  0  0  0  0
    5.5772   -3.1990   -5.5506 C   0  0  0  0  0  0  0  0  0  0  0  0
    4.8286   -2.0778   -5.6996 C   0  0  0  0  0  0  0  0  0  0  0  0
    5.1688   -0.8332   -5.0608 C   0  0  0  0  0  0  0  0  0  0  0  0
    5.4313    0.1750   -4.5547 N   0  0  0  0  0  0  0  0  0  0  0  0
    3.7357   -2.0080   -6.6372 C   0  0  0  0  0  0  0  0  0  0  0  0
    2.8564   -1.9330   -7.3850 N   0  0  0  0  0  0  0  0  0  0  0  0
   -3.4247    6.9931    3.0709 H   0  0  0  0  0  0  0  0  0  0  0  0
   -3.7994    1.4589    5.7135 H   0  0  0  0  0  0  0  0  0  0  0  0
   -1.0096    5.3068    7.5796 H   0  0  0  0  0  0  0  0  0  0  0  0
    0.5286    2.2446    7.8886 H   0  0  0  0  0  0  0  0  0  0  0  0
   -0.4337    2.9923   10.3866 H   0  0  0  0  0  0  0  0  0  0  0  0
    0.8621    0.7117   10.8340 H   0  0  0  0  0  0  0  0  0  0  0  0
   -0.5741   -1.2494    9.8796 H   0  0  0  0  0  0  0  0  0  0  0  0
   -2.7897   -0.2267    8.8282 H   0  0  0  0  0  0  0  0  0  0  0  0
   -2.4170    1.3078   10.9672 H   0  0  0  0  0  0  0  0  0  0  0  0
   -2.9040    2.3495    9.5638 H   0  0  0  0  0  0  0  0  0  0  0  0
   -0.7876    0.4379    7.0213 H   0  0  0  0  0  0  0  0  0  0  0  0
    2.3396   -6.4721   -8.3019 H   0  0  0  0  0  0  0  0  0  0  0  0
    0.6010   -6.0619   -8.2467 H   0  0  0  0  0  0  0  0  0  0  0  0
    1.1311   -3.7028   -8.9601 H   0  0  0  0  0  0  0  0  0  0  0  0
    2.8861   -4.1599   -9.0699 H   0  0  0  0  0  0  0  0  0  0  0  0
    1.6778   -4.9396  -10.1599 H   0  0  0  0  0  0  0  0  0  0  0  0
   -1.7421    4.0712    3.0155 H   0  0  0  0  0  0  0  0  0  0  0  0
    0.0788    2.7933    1.5670 H   0  0  0  0  0  0  0  0  0  0  0  0
    0.1293    1.2705    0.6725 H   0  0  0  0  0  0  0  0  0  0  0  0
    0.4289    0.8656    3.1154 H   0  0  0  0  0  0  0  0  0  0  0  0
   -1.1198    1.7320    3.4772 H   0  0  0  0  0  0  0  0  0  0  0  0
   -1.1479    0.1592    2.6101 H   0  0  0  0  0  0  0  0  0  0  0  0
   -0.7497   -2.2606   -0.4038 H   0  0  0  0  0  0  0  0  0  0  0  0
   -0.3407   -0.8255    0.5470 H   0  0  0  0  0  0  0  0  0  0  0  0
   -3.1483   -2.0519    0.0784 H   0  0  0  0  0  0  0  0  0  0  0  0
   -2.1500   -2.2133    1.5773 H   0  0  0  0  0  0  0  0  0  0  0  0
   -2.8288   -0.6130    1.1219 H   0  0  0  0  0  0  0  0  0  0  0  0
    0.9788   -1.2645   -1.7635 H   0  0  0  0  0  0  0  0  0  0  0  0
    1.9571   -1.9378   -3.0712 H   0  0  0  0  0  0  0  0  0  0  0  0
    2.7888   -2.8486   -0.9657 H   0  0  0  0  0  0  0  0  0  0  0  0
    1.1480   -3.3715   -0.4455 H   0  0  0  0  0  0  0  0  0  0  0  0
    1.9506   -4.2041   -1.8082 H   0  0  0  0  0  0  0  0  0  0  0  0
    4.4613   -6.0765   -7.2313 H   0  0  0  0  0  0  0  0  0  0  0  0
    9.5438   -5.3164   -5.6911 H   0  0  0  0  0  0  0  0  0  0  0  0
    9.2909   -2.1479   -2.7759 H   0  0  0  0  0  0  0  0  0  0  0  0
    6.9319   -1.7571   -3.3859 H   0  0  0  0  0  0  0  0  0  0  0  0
  1  2  2  3
  2  3  1  0
  3  4  2  0
  3  5  1  0
  5  6  2  0
  6  7  1  0
  7  8  2  0
  8  9  1  0
  9 10  2  0
 10 11  1  0
 11 12  2  3
 12 13  1  0
 13 14  3  0
 12 15  1  0
 15 16  3  0
  8 17  1  0
 17 18  1  0
 18 19  1  0
 19 20  2  0
 20 21  1  0
 21 22  1  0
 21 23  1  0
  1 24  1  0
 24 25  1  0
 25 26  1  0
 26 27  1  0
 27 28  1  0
 28 29  1  0
 29 30  1  0
 30 31  1  0
 31 32  1  0
 32 33  2  0
 33 34  1  0
 34 35  1  0
 32 36  1  0
 36 37  1  0
 37 38  1  0
 38 39  1  0
 39 40  1  0
 40 41  1  0
 41 42  1  0
 40 43  2  0
 43 44  1  0
 44 45  1  0
 45 46  1  0
 46 47  1  0
 47 48  1  0
 48 49  1  0
 49 50  1  0
 50 51  1  0
 51 52  1  0
 52 53  1  0
 53 54  1  0
 54 55  1  0
 53 56  1  0
 56 57  1  0
 50 58  1  0
 58 59  1  0
 47 60  1  0
 60 61  1  0
 43 62  1  0
 62 63  2  3
 63 64  1  0
 64 65  2  0
 64 66  1  0
 66 67  2  0
 67 68  1  0
 68 69  1  0
 68 70  2  0
 70 71  1  0
 71 72  2  0
 72 73  1  0
 73 74  2  3
 74 75  1  0
 75 76  3  0
 74 77  1  0
 77 78  3  0
 11  2  1  0
 23 17  1  0
 55 24  2  0
 73 63  1  0
 10  5  1  0
 22 18  1  0
 54 26  2  0
 72 66  1  0
 23  7  1  0
 52 27  2  0
 51 29  2  0
 49 30  2  0
 35 31  2  0
 48 36  2  0
 46 37  2  0
 45 39  2  0
  1 79  1  0
  6 80  1  0
  9 81  1  0
 17 82  1  0
 18 83  1  0
 19 84  1  0
 20 85  1  0
 21 86  1  0
 22 87  1  0
 22 88  1  0
 23 89  1  0
 41 90  1  0
 41 91  1  0
 42 92  1  0
 42 93  1  0
 42 94  1  0
 55 95  1  0
 56 96  1  0
 56 97  1  0
 57 98  1  0
 57 99  1  0
 57100  1  0
 58101  1  0
 58102  1  0
 59103  1  0
 59104  1  0
 59105  1  0
 60106  1  0
 60107  1  0
 61108  1  0
 61109  1  0
 61110  1  0
 62111  1  0
 67112  1  0
 70113  1  0
 71114  1  0
M  END

