
     RDKit          3D

114129  0  0  0  0  0  0  0  0999 V2000
   -0.4979    3.9424    7.4029 C   0  0  0  0  0  0  0  0  0  0  0  0
   -1.7500    3.4550    7.5290 C   0  0  0  0  0  0  0  0  0  0  0  0
   -2.5080    2.8175    6.4456 C   0  0  0  0  0  0  0  0  0  0  0  0
   -2.4343    3.1057    5.2203 O   0  0  0  0  0  0  0  0  0  0  0  0
   -3.3494    1.7880    7.0093 C   0  0  0  0  0  0  0  0  0  0  0  0
   -3.9592    0.7263    6.3008 C   0  0  0  0  0  0  0  0  0  0  0  0
   -4.4379   -0.2822    7.1148 C   0  0  0  0  0  0  0  0  0  0  0  0
   -4.3328   -0.2529    8.5439 C   0  0  0  0  0  0  0  0  0  0  0  0
   -3.7467    0.7924    9.2447 C   0  0  0  0  0  0  0  0  0  0  0  0
   -3.2538    1.8478    8.4247 C   0  0  0  0  0  0  0  0  0  0  0  0
   -2.3838    2.9975    8.8011 C   0  0  0  0  0  0  0  0  0  0  0  0
   -2.2979    3.5924   10.0154 C   0  0  0  0  0  0  0  0  0  0  0  0
   -1.5279    4.7896   10.2250 C   0  0  0  0  0  0  0  0  0  0  0  0
   -0.9049    5.7491   10.3960 N   0  0  0  0  0  0  0  0  0  0  0  0
   -3.0418    3.1215   11.1540 C   0  0  0  0  0  0  0  0  0  0  0  0
   -3.6284    2.7416   12.0801 N   0  0  0  0  0  0  0  0  0  0  0  0
   -4.9069   -1.6385    8.6293 C   0  0  0  0  0  0  0  0  0  0  0  0
   -3.8973   -2.7847    8.9437 C   0  0  0  0  0  0  0  0  0  0  0  0
   -4.6003   -4.0714    8.5754 C   0  0  0  0  0  0  0  0  0  0  0  0
   -4.6873   -4.0900    7.2405 C   0  0  0  0  0  0  0  0  0  0  0  0
   -4.0424   -2.8159    6.7511 C   0  0  0  0  0  0  0  0  0  0  0  0
   -2.9240   -2.7131    7.7759 C   0  0  0  0  0  0  0  0  0  0  0  0
   -5.0096   -1.6661    7.1646 C   0  0  0  0  0  0  0  0  0  0  0  0
    0.3358    3.6528    6.2213 C   0  0  0  0  0  0  0  0  0  0  0  0
    1.3516    4.7774    5.4185 S   0  0  0  0  0  0  0  0  0  0  0  0
    1.8865    3.6129    4.3310 C   0  0  0  0  0  0  0  0  0  0  0  0
    2.4665    3.5432    3.0986 C   0  0  0  0  0  0  0  0  0  0  0  0
    3.0044    4.6367    1.9132 S   0  0  0  0  0  0  0  0  0  0  0  0
    2.9105    3.3908    0.7584 C   0  0  0  0  0  0  0  0  0  0  0  0
    3.1996    3.2060   -0.5615 C   0  0  0  0  0  0  0  0  0  0  0  0
    3.8204    4.0254   -1.5114 C   0  0  0  0  0  0  0  0  0  0  0  0
    4.0888    3.4888   -2.8101 C   0  0  0  0  0  0  0  0  0  0  0  0
    4.6844    4.3131   -3.7064 N   0  0  0  0  0  0  0  0  0  0  0  0
    4.8496    5.6674   -2.7666 S   0  0  0  0  0  0  0  0  0  0  0  0
    4.2083    5.3026   -1.2823 N   0  0  0  0  0  0  0  0  0  0  0  0
    3.6853    2.1747   -3.0909 C   0  0  0  0  0  0  0  0  0  0  0  0
    3.5660    1.5076   -4.2793 C   0  0  0  0  0  0  0  0  0  0  0  0
    3.6934    1.8927   -5.9304 S   0  0  0  0  0  0  0  0  0  0  0  0
    2.7054    0.5696   -6.3540 C   0  0  0  0  0  0  0  0  0  0  0  0
    2.1435    0.1341   -7.5563 C   0  0  0  0  0  0  0  0  0  0  0  0
    2.4230    0.7575   -8.8975 C   0  0  0  0  0  0  0  0  0  0  0  0
    3.2374   -0.1813   -9.7838 C   0  0  0  0  0  0  0  0  0  0  0  0
    1.2659   -0.9444   -7.3351 C   0  0  0  0  0  0  0  0  0  0  0  0
    1.1383   -1.2580   -5.6612 S   0  0  0  0  0  0  0  0  0  0  0  0
    2.2594   -0.0900   -5.2379 C   0  0  0  0  0  0  0  0  0  0  0  0
    2.7549    0.4389   -4.0539 C   0  0  0  0  0  0  0  0  0  0  0  0
    2.3259    0.3617   -2.7666 N   0  0  0  0  0  0  0  0  0  0  0  0
    2.9879    1.3957   -2.1549 C   0  0  0  0  0  0  0  0  0  0  0  0
    2.8385    1.8834   -0.8361 C   0  0  0  0  0  0  0  0  0  0  0  0
    2.4660    1.2157    0.3025 N   0  0  0  0  0  0  0  0  0  0  0  0
    2.4547    2.1997    1.2470 C   0  0  0  0  0  0  0  0  0  0  0  0
    2.1945    2.2804    2.6188 C   0  0  0  0  0  0  0  0  0  0  0  0
    1.4439    1.5531    3.5000 N   0  0  0  0  0  0  0  0  0  0  0  0
    1.2917    2.4135    4.5415 C   0  0  0  0  0  0  0  0  0  0  0  0
    0.4213    2.3854    5.6192 C   0  0  0  0  0  0  0  0  0  0  0  0
    0.6396    0.3483    3.2787 C   0  0  0  0  0  0  0  0  0  0  0  0
   -0.5209    0.6338    2.3309 C   0  0  0  0  0  0  0  0  0  0  0  0
    2.6622   -0.2273    0.5325 C   0  0  0  0  0  0  0  0  0  0  0  0
    3.7952   -0.5053    1.5214 C   0  0  0  0  0  0  0  0  0  0  0  0
    1.0063   -0.1664   -2.3875 C   0  0  0  0  0  0  0  0  0  0  0  0
   -0.0987    0.8078   -2.7939 C   0  0  0  0  0  0  0  0  0  0  0  0
    0.4173   -1.5753   -8.3603 C   0  0  0  0  0  0  0  0  0  0  0  0
    0.2483   -2.9076   -8.4817 C   0  0  0  0  0  0  0  0  0  0  0  0
    0.8946   -3.9382   -7.6576 C   0  0  0  0  0  0  0  0  0  0  0  0
    1.9672   -3.8048   -7.0102 O   0  0  0  0  0  0  0  0  0  0  0  0
    0.1413   -5.1716   -7.7850 C   0  0  0  0  0  0  0  0  0  0  0  0
    0.2840   -6.3730   -7.0736 C   0  0  0  0  0  0  0  0  0  0  0  0
    1.5558   -6.6053   -5.8835 Cl  0  0  0  0  0  0  0  0  0  0  0  0
   -0.6348   -7.4042   -7.3189 C   0  0  0  0  0  0  0  0  0  0  0  0
   -1.6817   -7.2158   -8.2366 C   0  0  0  0  0  0  0  0  0  0  0  0
   -1.8139   -6.0030   -8.9285 C   0  0  0  0  0  0  0  0  0  0  0  0
   -0.8690   -4.9862   -8.7173 C   0  0  0  0  0  0  0  0  0  0  0  0
   -0.7797   -3.6168   -9.3029 C   0  0  0  0  0  0  0  0  0  0  0  0
   -1.3425   -3.1909  -10.4631 C   0  0  0  0  0  0  0  0  0  0  0  0
   -2.2251   -4.0199  -11.2446 C   0  0  0  0  0  0  0  0  0  0  0  0
   -2.9341   -4.6763  -11.8805 N   0  0  0  0  0  0  0  0  0  0  0  0
   -0.9993   -1.9360  -11.0773 C   0  0  0  0  0  0  0  0  0  0  0  0
   -0.7305   -0.9278  -11.5781 N   0  0  0  0  0  0  0  0  0  0  0  0
    0.0286    4.3399    8.2566 H   0  0  0  0  0  0  0  0  0  0  0  0
   -3.9485    0.6516    5.2211 H   0  0  0  0  0  0  0  0  0  0  0  0
   -3.5922    0.7271   10.3101 H   0  0  0  0  0  0  0  0  0  0  0  0
   -5.8822   -1.6917    9.1630 H   0  0  0  0  0  0  0  0  0  0  0  0
   -3.4441   -2.7659    9.9580 H   0  0  0  0  0  0  0  0  0  0  0  0
   -4.8937   -4.8763    9.2404 H   0  0  0  0  0  0  0  0  0  0  0  0
   -5.0587   -4.9113    6.6362 H   0  0  0  0  0  0  0  0  0  0  0  0
   -3.7252   -2.8235    5.6866 H   0  0  0  0  0  0  0  0  0  0  0  0
   -2.2085   -3.5708    7.7412 H   0  0  0  0  0  0  0  0  0  0  0  0
   -2.3415   -1.7659    7.7201 H   0  0  0  0  0  0  0  0  0  0  0  0
   -6.0490   -1.7405    6.7712 H   0  0  0  0  0  0  0  0  0  0  0  0
    2.9867    1.7064   -8.7669 H   0  0  0  0  0  0  0  0  0  0  0  0
    1.4662    1.0086   -9.4026 H   0  0  0  0  0  0  0  0  0  0  0  0
    4.1714   -0.4902   -9.2678 H   0  0  0  0  0  0  0  0  0  0  0  0
    3.5067    0.3419  -10.7261 H   0  0  0  0  0  0  0  0  0  0  0  0
    2.6426   -1.0788  -10.0464 H   0  0  0  0  0  0  0  0  0  0  0  0
   -0.1474    1.5174    5.9288 H   0  0  0  0  0  0  0  0  0  0  0  0
    0.2262   -0.0149    4.2402 H   0  0  0  0  0  0  0  0  0  0  0  0
    1.2690   -0.4770    2.9182 H   0  0  0  0  0  0  0  0  0  0  0  0
   -1.1470   -0.2757    2.2154 H   0  0  0  0  0  0  0  0  0  0  0  0
   -0.1473    0.9330    1.3287 H   0  0  0  0  0  0  0  0  0  0  0  0
   -1.1557    1.4527    2.7348 H   0  0  0  0  0  0  0  0  0  0  0  0
    2.9548   -0.7328   -0.4112 H   0  0  0  0  0  0  0  0  0  0  0  0
    1.7162   -0.6983    0.8532 H   0  0  0  0  0  0  0  0  0  0  0  0
    3.9208   -1.6001    1.6411 H   0  0  0  0  0  0  0  0  0  0  0  0
    4.7438   -0.0786    1.1378 H   0  0  0  0  0  0  0  0  0  0  0  0
    3.5831   -0.0749    2.5192 H   0  0  0  0  0  0  0  0  0  0  0  0
    0.9168   -0.3258   -1.3038 H   0  0  0  0  0  0  0  0  0  0  0  0
    0.8403   -1.1547   -2.8682 H   0  0  0  0  0  0  0  0  0  0  0  0
   -1.0898    0.3799   -2.5372 H   0  0  0  0  0  0  0  0  0  0  0  0
   -0.0659    1.0052   -3.8878 H   0  0  0  0  0  0  0  0  0  0  0  0
    0.0308    1.7738   -2.2501 H   0  0  0  0  0  0  0  0  0  0  0  0
   -0.1403   -0.8962   -8.9793 H   0  0  0  0  0  0  0  0  0  0  0  0
   -0.5533   -8.3434   -6.7869 H   0  0  0  0  0  0  0  0  0  0  0  0
   -2.4042   -8.0073   -8.3987 H   0  0  0  0  0  0  0  0  0  0  0  0
   -2.6615   -5.8800   -9.5803 H   0  0  0  0  0  0  0  0  0  0  0  0
  1  2  2  3
  2  3  1  0
  3  4  2  0
  3  5  1  0
  5  6  2  0
  6  7  1  0
  7  8  2  0
  8  9  1  0
  9 10  2  0
 10 11  1  0
 11 12  2  3
 12 13  1  0
 13 14  3  0
 12 15  1  0
 15 16  3  0
  8 17  1  0
 17 18  1  0
 18 19  1  0
 19 20  2  0
 20 21  1  0
 21 22  1  0
 21 23  1  0
  1 24  1  0
 24 25  1  0
 25 26  1  0
 26 27  1  0
 27 28  1  0
 28 29  1  0
 29 30  1  0
 30 31  1  0
 31 32  1  0
 32 33  2  0
 33 34  1  0
 34 35  1  0
 32 36  1  0
 36 37  1  0
 37 38  1  0
 38 39  1  0
 39 40  1  0
 40 41  1  0
 41 42  1  0
 40 43  2  0
 43 44  1  0
 44 45  1  0
 45 46  1  0
 46 47  1  0
 47 48  1  0
 48 49  1  0
 49 50  1  0
 50 51  1  0
 51 52  1  0
 52 53  1  0
 53 54  1  0
 54 55  1  0
 53 56  1  0
 56 57  1  0
 50 58  1  0
 58 59  1  0
 47 60  1  0
 60 61  1  0
 43 62  1  0
 62 63  2  3
 63 64  1  0
 64 65  2  0
 64 66  1  0
 66 67  2  0
 67 68  1  0
 67 69  1  0
 69 70  2  0
 70 71  1  0
 71 72  2  0
 72 73  1  0
 73 74  2  3
 74 75  1  0
 75 76  3  0
 74 77  1  0
 77 78  3  0
 11  2  1  0
 23 17  1  0
 55 24  2  0
 73 63  1  0
 10  5  1  0
 22 18  1  0
 54 26  2  0
 72 66  1  0
 23  7  1  0
 52 27  2  0
 51 29  2  0
 49 30  2  0
 35 31  2  0
 48 36  2  0
 46 37  2  0
 45 39  2  0
  1 79  1  0
  6 80  1  0
  9 81  1  0
 17 82  1  0
 18 83  1  0
 19 84  1  0
 20 85  1  0
 21 86  1  0
 22 87  1  0
 22 88  1  0
 23 89  1  0
 41 90  1  0
 41 91  1  0
 42 92  1  0
 42 93  1  0
 42 94  1  0
 55 95  1  0
 56 96  1  0
 56 97  1  0
 57 98  1  0
 57 99  1  0
 57100  1  0
 58101  1  0
 58102  1  0
 59103  1  0
 59104  1  0
 59105  1  0
 60106  1  0
 60107  1  0
 61108  1  0
 61109  1  0
 61110  1  0
 62111  1  0
 69112  1  0
 70113  1  0
 71114  1  0
M  END

