
     RDKit          3D

110125  0  0  0  0  0  0  0  0999 V2000
   -1.4340    1.2007   -7.0344 C   0  0  0  0  0  0  0  0  0  0  0  0
   -1.1764    2.4881   -7.3344 C   0  0  0  0  0  0  0  0  0  0  0  0
   -0.7709    3.5003   -6.3484 C   0  0  0  0  0  0  0  0  0  0  0  0
   -0.1158    3.2838   -5.2942 O   0  0  0  0  0  0  0  0  0  0  0  0
   -1.3291    4.7757   -6.7402 C   0  0  0  0  0  0  0  0  0  0  0  0
   -1.4490    5.9228   -5.9242 C   0  0  0  0  0  0  0  0  0  0  0  0
   -2.3304    6.8678   -6.4136 C   0  0  0  0  0  0  0  0  0  0  0  0
   -3.0593    6.6977   -7.6348 C   0  0  0  0  0  0  0  0  0  0  0  0
   -2.9239    5.5894   -8.4597 C   0  0  0  0  0  0  0  0  0  0  0  0
   -2.0080    4.6129   -7.9799 C   0  0  0  0  0  0  0  0  0  0  0  0
   -1.7815    3.2277   -8.4763 C   0  0  0  0  0  0  0  0  0  0  0  0
   -1.9463    2.7769   -9.7422 C   0  0  0  0  0  0  0  0  0  0  0  0
   -2.4432    3.6213  -10.7984 C   0  0  0  0  0  0  0  0  0  0  0  0
   -2.8374    4.2983  -11.6509 N   0  0  0  0  0  0  0  0  0  0  0  0
   -1.5218    1.4593  -10.1397 C   0  0  0  0  0  0  0  0  0  0  0  0
   -1.1804    0.4002  -10.4560 N   0  0  0  0  0  0  0  0  0  0  0  0
   -3.8265    7.9600   -7.3706 C   0  0  0  0  0  0  0  0  0  0  0  0
   -5.2979    7.8186   -6.8649 C   0  0  0  0  0  0  0  0  0  0  0  0
   -5.4497    6.5503   -6.0523 C   0  0  0  0  0  0  0  0  0  0  0  0
   -4.7588    6.7348   -4.9279 C   0  0  0  0  0  0  0  0  0  0  0  0
   -4.1495    8.1169   -5.0145 C   0  0  0  0  0  0  0  0  0  0  0  0
   -5.2830    8.8308   -5.7336 C   0  0  0  0  0  0  0  0  0  0  0  0
   -3.0599    8.1458   -6.1325 C   0  0  0  0  0  0  0  0  0  0  0  0
   -1.5109    0.7491   -5.6397 C   0  0  0  0  0  0  0  0  0  0  0  0
   -2.4952    1.1598   -4.7210 C   0  0  0  0  0  0  0  0  0  0  0  0
   -3.6968    2.0030   -5.0512 C   0  0  0  0  0  0  0  0  0  0  0  0
   -4.7795    1.1695   -5.7246 C   0  0  0  0  0  0  0  0  0  0  0  0
   -2.2148    0.6705   -3.4497 C   0  0  0  0  0  0  0  0  0  0  0  0
   -2.9047    0.9803   -1.9257 S   0  0  0  0  0  0  0  0  0  0  0  0
   -1.6929    0.0604   -1.1777 C   0  0  0  0  0  0  0  0  0  0  0  0
   -1.1930   -0.0955    0.0760 C   0  0  0  0  0  0  0  0  0  0  0  0
   -1.5944    0.4840    1.2859 C   0  0  0  0  0  0  0  0  0  0  0  0
   -0.7672    0.3204    2.4306 C   0  0  0  0  0  0  0  0  0  0  0  0
   -1.1854    0.8974    3.5855 N   0  0  0  0  0  0  0  0  0  0  0  0
   -2.5851    1.6041    3.0501 S   0  0  0  0  0  0  0  0  0  0  0  0
   -2.7217    1.2235    1.4433 N   0  0  0  0  0  0  0  0  0  0  0  0
    0.3979   -0.4432    2.3083 C   0  0  0  0  0  0  0  0  0  0  0  0
    1.2381   -0.9163    3.2679 C   0  0  0  0  0  0  0  0  0  0  0  0
    1.3069   -0.9133    4.9661 S   0  0  0  0  0  0  0  0  0  0  0  0
    2.4544   -2.1700    4.9103 C   0  0  0  0  0  0  0  0  0  0  0  0
    3.0492   -2.9676    5.8661 C   0  0  0  0  0  0  0  0  0  0  0  0
    3.0032   -3.0633    7.5329 S   0  0  0  0  0  0  0  0  0  0  0  0
    3.9037   -4.5160    7.5834 C   0  0  0  0  0  0  0  0  0  0  0  0
    4.2825   -4.8950    6.2793 C   0  0  0  0  0  0  0  0  0  0  0  0
    5.0123   -6.1588    5.9193 C   0  0  0  0  0  0  0  0  0  0  0  0
    4.0265   -7.2912    5.6632 C   0  0  0  0  0  0  0  0  0  0  0  0
    3.7601   -4.0073    5.3405 C   0  0  0  0  0  0  0  0  0  0  0  0
    3.6960   -3.9935    3.6413 S   0  0  0  0  0  0  0  0  0  0  0  0
    2.7211   -2.5971    3.6243 C   0  0  0  0  0  0  0  0  0  0  0  0
    2.0183   -1.8595    2.6818 C   0  0  0  0  0  0  0  0  0  0  0  0
    1.7454   -2.0250    1.3613 N   0  0  0  0  0  0  0  0  0  0  0  0
    0.7769   -1.0763    1.1084 C   0  0  0  0  0  0  0  0  0  0  0  0
    0.0119   -0.8050   -0.0698 C   0  0  0  0  0  0  0  0  0  0  0  0
    0.3090   -0.9561   -1.4089 N   0  0  0  0  0  0  0  0  0  0  0  0
   -0.7810   -0.4450   -2.0399 C   0  0  0  0  0  0  0  0  0  0  0  0
   -1.0708   -0.0825   -3.3534 C   0  0  0  0  0  0  0  0  0  0  0  0
   -0.3270   -0.1927   -4.8591 S   0  0  0  0  0  0  0  0  0  0  0  0
    1.5991   -1.2165   -2.0655 C   0  0  0  0  0  0  0  0  0  0  0  0
    2.7157   -0.3278   -1.5064 C   0  0  0  0  0  0  0  0  0  0  0  0
    2.1248   -3.2085    0.5754 C   0  0  0  0  0  0  0  0  0  0  0  0
    0.9101   -4.0620    0.2067 C   0  0  0  0  0  0  0  0  0  0  0  0
    4.3382   -5.1785    8.8266 C   0  0  0  0  0  0  0  0  0  0  0  0
    3.5157   -5.4633    9.8560 C   0  0  0  0  0  0  0  0  0  0  0  0
    2.0508   -5.2717    9.8723 C   0  0  0  0  0  0  0  0  0  0  0  0
    1.2904   -5.0722    8.8915 O   0  0  0  0  0  0  0  0  0  0  0  0
    1.6265   -5.3937   11.2417 C   0  0  0  0  0  0  0  0  0  0  0  0
    0.2673   -4.9458   12.1114 S   0  0  0  0  0  0  0  0  0  0  0  0
    1.0416   -5.1506   13.6117 C   0  0  0  0  0  0  0  0  0  0  0  0
    2.3769   -5.5204   13.4124 C   0  0  0  0  0  0  0  0  0  0  0  0
    2.6766   -5.6578   12.0540 C   0  0  0  0  0  0  0  0  0  0  0  0
    3.9127   -5.8373   11.2602 C   0  0  0  0  0  0  0  0  0  0  0  0
    5.0827   -6.3429   11.7188 C   0  0  0  0  0  0  0  0  0  0  0  0
    6.1980   -6.6454   10.8621 C   0  0  0  0  0  0  0  0  0  0  0  0
    7.1029   -6.9127   10.1905 N   0  0  0  0  0  0  0  0  0  0  0  0
    5.2511   -6.7137   13.1010 C   0  0  0  0  0  0  0  0  0  0  0  0
    5.3940   -7.0121   14.2098 N   0  0  0  0  0  0  0  0  0  0  0  0
   -1.8973    0.5519   -7.7619 H   0  0  0  0  0  0  0  0  0  0  0  0
   -0.9920    6.0018   -4.9473 H   0  0  0  0  0  0  0  0  0  0  0  0
   -3.5608    5.4513   -9.3185 H   0  0  0  0  0  0  0  0  0  0  0  0
   -3.6591    8.7642   -8.1219 H   0  0  0  0  0  0  0  0  0  0  0  0
   -6.0827    7.9761   -7.6324 H   0  0  0  0  0  0  0  0  0  0  0  0
   -6.0508    5.6791   -6.2910 H   0  0  0  0  0  0  0  0  0  0  0  0
   -4.6832    6.0390   -4.0963 H   0  0  0  0  0  0  0  0  0  0  0  0
   -3.8467    8.5652   -4.0423 H   0  0  0  0  0  0  0  0  0  0  0  0
   -6.2323    8.8540   -5.1408 H   0  0  0  0  0  0  0  0  0  0  0  0
   -5.0204    9.8654   -6.0645 H   0  0  0  0  0  0  0  0  0  0  0  0
   -2.4098    9.0478   -6.1341 H   0  0  0  0  0  0  0  0  0  0  0  0
   -3.4121    2.8375   -5.7238 H   0  0  0  0  0  0  0  0  0  0  0  0
   -4.1119    2.4694   -4.1295 H   0  0  0  0  0  0  0  0  0  0  0  0
   -5.0932    0.3376   -5.0586 H   0  0  0  0  0  0  0  0  0  0  0  0
   -4.3999    0.7465   -6.6785 H   0  0  0  0  0  0  0  0  0  0  0  0
   -5.6626    1.8061   -5.9421 H   0  0  0  0  0  0  0  0  0  0  0  0
    5.7127   -6.4513    6.7256 H   0  0  0  0  0  0  0  0  0  0  0  0
    5.6170   -5.9858    5.0014 H   0  0  0  0  0  0  0  0  0  0  0  0
    3.3360   -7.0233    4.8364 H   0  0  0  0  0  0  0  0  0  0  0  0
    3.4313   -7.5000    6.5791 H   0  0  0  0  0  0  0  0  0  0  0  0
    4.5798   -8.2086    5.3797 H   0  0  0  0  0  0  0  0  0  0  0  0
    1.8331   -2.2929   -2.0521 H   0  0  0  0  0  0  0  0  0  0  0  0
    1.5311   -0.9789   -3.1415 H   0  0  0  0  0  0  0  0  0  0  0  0
    3.6048   -0.3951   -2.1661 H   0  0  0  0  0  0  0  0  0  0  0  0
    2.3785    0.7275   -1.4645 H   0  0  0  0  0  0  0  0  0  0  0  0
    3.0202   -0.6453   -0.4958 H   0  0  0  0  0  0  0  0  0  0  0  0
    2.7291   -2.9247   -0.2991 H   0  0  0  0  0  0  0  0  0  0  0  0
    2.8106   -3.8563    1.1510 H   0  0  0  0  0  0  0  0  0  0  0  0
    0.3693   -4.3683    1.1336 H   0  0  0  0  0  0  0  0  0  0  0  0
    0.2151   -3.5094   -0.4565 H   0  0  0  0  0  0  0  0  0  0  0  0
    1.2485   -4.9773   -0.3246 H   0  0  0  0  0  0  0  0  0  0  0  0
    5.3974   -5.3463    8.9037 H   0  0  0  0  0  0  0  0  0  0  0  0
    0.5890   -4.9618   14.5758 H   0  0  0  0  0  0  0  0  0  0  0  0
    3.0863   -5.6120   14.2193 H   0  0  0  0  0  0  0  0  0  0  0  0
  1  2  2  3
  2  3  1  0
  3  4  2  0
  3  5  1  0
  5  6  2  0
  6  7  1  0
  7  8  2  0
  8  9  1  0
  9 10  2  0
 10 11  1  0
 11 12  2  3
 12 13  1  0
 13 14  3  0
 12 15  1  0
 15 16  3  0
  8 17  1  0
 17 18  1  0
 18 19  1  0
 19 20  2  0
 20 21  1  0
 21 22  1  0
 21 23  1  0
  1 24  1  0
 24 25  2  0
 25 26  1  0
 26 27  1  0
 25 28  1  0
 28 29  1  0
 29 30  1  0
 30 31  1  0
 31 32  1  0
 32 33  1  0
 33 34  2  0
 34 35  1  0
 35 36  1  0
 33 37  1  0
 37 38  1  0
 38 39  1  0
 39 40  1  0
 40 41  1  0
 41 42  1  0
 42 43  1  0
 43 44  2  0
 44 45  1  0
 45 46  1  0
 44 47  1  0
 47 48  1  0
 48 49  1  0
 49 50  1  0
 50 51  1  0
 51 52  1  0
 52 53  1  0
 53 54  1  0
 54 55  1  0
 55 56  1  0
 56 57  1  0
 54 58  1  0
 58 59  1  0
 51 60  1  0
 60 61  1  0
 43 62  1  0
 62 63  2  3
 63 64  1  0
 64 65  2  0
 64 66  1  0
 66 67  1  0
 67 68  1  0
 68 69  2  0
 69 70  1  0
 70 71  1  0
 71 72  2  3
 72 73  1  0
 73 74  3  0
 72 75  1  0
 75 76  3  0
 11  2  1  0
 23 17  1  0
 57 24  1  0
 71 63  1  0
 10  5  1  0
 22 18  1  0
 56 28  2  0
 70 66  2  0
 23  7  1  0
 55 30  2  0
 53 31  2  0
 36 32  2  0
 52 37  2  0
 50 38  2  0
 49 40  2  0
 47 41  2  0
  1 77  1  0
  6 78  1  0
  9 79  1  0
 17 80  1  0
 18 81  1  0
 19 82  1  0
 20 83  1  0
 21 84  1  0
 22 85  1  0
 22 86  1  0
 23 87  1  0
 26 88  1  0
 26 89  1  0
 27 90  1  0
 27 91  1  0
 27 92  1  0
 45 93  1  0
 45 94  1  0
 46 95  1  0
 46 96  1  0
 46 97  1  0
 58 98  1  0
 58 99  1  0
 59100  1  0
 59101  1  0
 59102  1  0
 60103  1  0
 60104  1  0
 61105  1  0
 61106  1  0
 61107  1  0
 62108  1  0
 68109  1  0
 69110  1  0
M  END

