
     RDKit          3D

113128  0  0  0  0  0  0  0  0999 V2000
    5.5454    0.4590   -3.9912 C   0  0  0  0  0  0  0  0  0  0  0  0
    5.9079   -0.7677   -4.4159 C   0  0  0  0  0  0  0  0  0  0  0  0
    5.1672   -1.5609   -5.4068 C   0  0  0  0  0  0  0  0  0  0  0  0
    4.0878   -1.2342   -5.9690 O   0  0  0  0  0  0  0  0  0  0  0  0
    5.9620   -2.7075   -5.7750 C   0  0  0  0  0  0  0  0  0  0  0  0
    5.5982   -3.7251   -6.6869 C   0  0  0  0  0  0  0  0  0  0  0  0
    6.5329   -4.7326   -6.8011 C   0  0  0  0  0  0  0  0  0  0  0  0
    7.7579   -4.7495   -6.0610 C   0  0  0  0  0  0  0  0  0  0  0  0
    8.1263   -3.7494   -5.1760 C   0  0  0  0  0  0  0  0  0  0  0  0
    7.1854   -2.6835   -5.0566 C   0  0  0  0  0  0  0  0  0  0  0  0
    7.2096   -1.4740   -4.1753 C   0  0  0  0  0  0  0  0  0  0  0  0
    8.1591   -1.1520   -3.2547 C   0  0  0  0  0  0  0  0  0  0  0  0
    7.9514   -0.1458   -2.2448 C   0  0  0  0  0  0  0  0  0  0  0  0
    7.7986    0.6568   -1.4247 N   0  0  0  0  0  0  0  0  0  0  0  0
    9.4331   -1.8172   -3.1765 C   0  0  0  0  0  0  0  0  0  0  0  0
   10.4680   -2.3333   -3.0988 N   0  0  0  0  0  0  0  0  0  0  0  0
    8.1201   -6.0758   -6.6596 C   0  0  0  0  0  0  0  0  0  0  0  0
    7.9688   -7.3477   -5.7684 C   0  0  0  0  0  0  0  0  0  0  0  0
    6.8456   -7.1558   -4.7719 C   0  0  0  0  0  0  0  0  0  0  0  0
    5.7121   -7.1364   -5.4749 C   0  0  0  0  0  0  0  0  0  0  0  0
    6.1028   -7.3115   -6.9255 C   0  0  0  0  0  0  0  0  0  0  0  0
    7.2659   -8.2709   -6.7467 C   0  0  0  0  0  0  0  0  0  0  0  0
    6.8710   -6.0508   -7.4302 C   0  0  0  0  0  0  0  0  0  0  0  0
    4.1575    0.9581   -4.0391 C   0  0  0  0  0  0  0  0  0  0  0  0
    3.7703    2.3045   -4.1934 C   0  0  0  0  0  0  0  0  0  0  0  0
    4.7126    3.4535   -4.4160 C   0  0  0  0  0  0  0  0  0  0  0  0
    5.1773    4.0467   -3.0884 C   0  0  0  0  0  0  0  0  0  0  0  0
    2.3975    2.4565   -3.9757 C   0  0  0  0  0  0  0  0  0  0  0  0
    1.3942    3.8214   -3.7832 S   0  0  0  0  0  0  0  0  0  0  0  0
    0.0769    2.8418   -3.3383 C   0  0  0  0  0  0  0  0  0  0  0  0
   -1.0375    3.0093   -2.5616 C   0  0  0  0  0  0  0  0  0  0  0  0
   -1.5625    4.1680   -1.9720 C   0  0  0  0  0  0  0  0  0  0  0  0
   -2.5123    4.0318   -0.9159 C   0  0  0  0  0  0  0  0  0  0  0  0
   -2.9681    5.1730   -0.3436 N   0  0  0  0  0  0  0  0  0  0  0  0
   -2.1062    6.2845   -1.2194 S   0  0  0  0  0  0  0  0  0  0  0  0
   -1.1791    5.4286   -2.2941 N   0  0  0  0  0  0  0  0  0  0  0  0
   -2.9194    2.7479   -0.5439 C   0  0  0  0  0  0  0  0  0  0  0  0
   -3.7906    2.3052    0.4032 C   0  0  0  0  0  0  0  0  0  0  0  0
   -4.6209    2.9241    1.7471 S   0  0  0  0  0  0  0  0  0  0  0  0
   -5.0620    1.3402    2.1930 C   0  0  0  0  0  0  0  0  0  0  0  0
   -5.5552    0.7946    3.3609 C   0  0  0  0  0  0  0  0  0  0  0  0
   -6.0722    1.4072    4.8290 S   0  0  0  0  0  0  0  0  0  0  0  0
   -6.1361   -0.1304    5.5784 C   0  0  0  0  0  0  0  0  0  0  0  0
   -5.7543   -1.1291    4.6590 C   0  0  0  0  0  0  0  0  0  0  0  0
   -5.6687   -2.5963    4.9658 C   0  0  0  0  0  0  0  0  0  0  0  0
   -6.9821   -3.2920    4.6310 C   0  0  0  0  0  0  0  0  0  0  0  0
   -5.4327   -0.5668    3.4230 C   0  0  0  0  0  0  0  0  0  0  0  0
   -4.6905   -1.1717    2.0191 S   0  0  0  0  0  0  0  0  0  0  0  0
   -4.5662    0.3788    1.3309 C   0  0  0  0  0  0  0  0  0  0  0  0
   -3.8384    0.9513    0.2989 C   0  0  0  0  0  0  0  0  0  0  0  0
   -3.0428    0.4576   -0.6875 N   0  0  0  0  0  0  0  0  0  0  0  0
   -2.4226    1.5894   -1.1573 C   0  0  0  0  0  0  0  0  0  0  0  0
   -1.3896    1.7211   -2.1192 C   0  0  0  0  0  0  0  0  0  0  0  0
   -0.4416    0.8027   -2.4988 N   0  0  0  0  0  0  0  0  0  0  0  0
    0.4091    1.5216   -3.2755 C   0  0  0  0  0  0  0  0  0  0  0  0
    1.7316    1.3063   -3.6426 C   0  0  0  0  0  0  0  0  0  0  0  0
    2.8048    0.0258   -3.5734 S   0  0  0  0  0  0  0  0  0  0  0  0
   -0.0353   -0.3958   -1.7527 C   0  0  0  0  0  0  0  0  0  0  0  0
    0.7877   -0.0181   -0.5209 C   0  0  0  0  0  0  0  0  0  0  0  0
   -3.4292   -0.6801   -1.5407 C   0  0  0  0  0  0  0  0  0  0  0  0
   -3.2508   -2.0284   -0.8416 C   0  0  0  0  0  0  0  0  0  0  0  0
   -6.5726   -0.3746    6.9677 C   0  0  0  0  0  0  0  0  0  0  0  0
   -6.3526    0.4632    7.9976 C   0  0  0  0  0  0  0  0  0  0  0  0
   -7.2139    0.5024    9.1785 C   0  0  0  0  0  0  0  0  0  0  0  0
   -8.0166   -0.3993    9.5430 O   0  0  0  0  0  0  0  0  0  0  0  0
   -7.0678    1.8063    9.7954 C   0  0  0  0  0  0  0  0  0  0  0  0
   -7.8121    2.3573   10.8380 C   0  0  0  0  0  0  0  0  0  0  0  0
   -7.5779    3.6938   11.1958 C   0  0  0  0  0  0  0  0  0  0  0  0
   -8.5237    4.3964   12.5003 Cl  0  0  0  0  0  0  0  0  0  0  0  0
   -6.6172    4.4578   10.4893 C   0  0  0  0  0  0  0  0  0  0  0  0
   -6.3036    6.3024   10.9121 Br  0  0  0  0  0  0  0  0  0  0  0  0
   -5.8896    3.8791    9.4360 C   0  0  0  0  0  0  0  0  0  0  0  0
   -6.1104    2.5354    9.1108 C   0  0  0  0  0  0  0  0  0  0  0  0
   -5.5017    1.6872    8.0539 C   0  0  0  0  0  0  0  0  0  0  0  0
   -4.2341    1.7977    7.5778 C   0  0  0  0  0  0  0  0  0  0  0  0
   -3.5670    0.6924    6.9369 C   0  0  0  0  0  0  0  0  0  0  0  0
   -3.0306   -0.1970    6.4277 N   0  0  0  0  0  0  0  0  0  0  0  0
   -3.4196    2.9637    7.8080 C   0  0  0  0  0  0  0  0  0  0  0  0
   -2.7526    3.8927    7.9884 N   0  0  0  0  0  0  0  0  0  0  0  0
    6.2731    1.1184   -3.5503 H   0  0  0  0  0  0  0  0  0  0  0  0
    4.6604   -3.7294   -7.2262 H   0  0  0  0  0  0  0  0  0  0  0  0
    9.0515   -3.8279   -4.6324 H   0  0  0  0  0  0  0  0  0  0  0  0
    9.0332   -6.0499   -7.2949 H   0  0  0  0  0  0  0  0  0  0  0  0
    8.9137   -7.7414   -5.3355 H   0  0  0  0  0  0  0  0  0  0  0  0
    6.9246   -7.1145   -3.6902 H   0  0  0  0  0  0  0  0  0  0  0  0
    4.7089   -7.0777   -5.0657 H   0  0  0  0  0  0  0  0  0  0  0  0
    5.2907   -7.6688   -7.5919 H   0  0  0  0  0  0  0  0  0  0  0  0
    7.8447   -8.4517   -7.6851 H   0  0  0  0  0  0  0  0  0  0  0  0
    6.9673   -9.2479   -6.2963 H   0  0  0  0  0  0  0  0  0  0  0  0
    7.0227   -6.0002   -8.5320 H   0  0  0  0  0  0  0  0  0  0  0  0
    5.5939    3.1157   -5.0004 H   0  0  0  0  0  0  0  0  0  0  0  0
    4.2013    4.2406   -5.0102 H   0  0  0  0  0  0  0  0  0  0  0  0
    5.7321    3.2871   -2.5000 H   0  0  0  0  0  0  0  0  0  0  0  0
    4.3080    4.4083   -2.5006 H   0  0  0  0  0  0  0  0  0  0  0  0
    5.8517    4.9061   -3.2834 H   0  0  0  0  0  0  0  0  0  0  0  0
   -4.8483   -3.0593    4.3782 H   0  0  0  0  0  0  0  0  0  0  0  0
   -5.4338   -2.7464    6.0424 H   0  0  0  0  0  0  0  0  0  0  0  0
   -7.1872   -3.2239    3.5420 H   0  0  0  0  0  0  0  0  0  0  0  0
   -7.8214   -2.8298    5.1906 H   0  0  0  0  0  0  0  0  0  0  0  0
   -6.9202   -4.3622    4.9231 H   0  0  0  0  0  0  0  0  0  0  0  0
   -0.8959   -0.9771   -1.4204 H   0  0  0  0  0  0  0  0  0  0  0  0
    0.5464   -1.0723   -2.4085 H   0  0  0  0  0  0  0  0  0  0  0  0
    1.7025    0.5322   -0.8206 H   0  0  0  0  0  0  0  0  0  0  0  0
    1.0917   -0.9391    0.0219 H   0  0  0  0  0  0  0  0  0  0  0  0
    0.1881    0.6193    0.1632 H   0  0  0  0  0  0  0  0  0  0  0  0
   -4.4907   -0.5618   -1.8511 H   0  0  0  0  0  0  0  0  0  0  0  0
   -2.8411   -0.6751   -2.4822 H   0  0  0  0  0  0  0  0  0  0  0  0
   -2.9338   -2.7976   -1.5794 H   0  0  0  0  0  0  0  0  0  0  0  0
   -2.4846   -1.9660   -0.0347 H   0  0  0  0  0  0  0  0  0  0  0  0
   -4.2141   -2.3696   -0.4087 H   0  0  0  0  0  0  0  0  0  0  0  0
   -7.2152   -1.2318    7.1293 H   0  0  0  0  0  0  0  0  0  0  0  0
   -8.5688    1.7711   11.3413 H   0  0  0  0  0  0  0  0  0  0  0  0
   -5.2043    4.4903    8.8773 H   0  0  0  0  0  0  0  0  0  0  0  0
  1  2  2  3
  2  3  1  0
  3  4  2  0
  3  5  1  0
  5  6  2  0
  6  7  1  0
  7  8  2  0
  8  9  1  0
  9 10  2  0
 10 11  1  0
 11 12  2  3
 12 13  1  0
 13 14  3  0
 12 15  1  0
 15 16  3  0
  8 17  1  0
 17 18  1  0
 18 19  1  0
 19 20  2  0
 20 21  1  0
 21 22  1  0
 21 23  1  0
  1 24  1  0
 24 25  2  0
 25 26  1  0
 26 27  1  0
 25 28  1  0
 28 29  1  0
 29 30  1  0
 30 31  1  0
 31 32  1  0
 32 33  1  0
 33 34  2  0
 34 35  1  0
 35 36  1  0
 33 37  1  0
 37 38  1  0
 38 39  1  0
 39 40  1  0
 40 41  1  0
 41 42  1  0
 42 43  1  0
 43 44  2  0
 44 45  1  0
 45 46  1  0
 44 47  1  0
 47 48  1  0
 48 49  1  0
 49 50  1  0
 50 51  1  0
 51 52  1  0
 52 53  1  0
 53 54  1  0
 54 55  1  0
 55 56  1  0
 56 57  1  0
 54 58  1  0
 58 59  1  0
 51 60  1  0
 60 61  1  0
 43 62  1  0
 62 63  2  3
 63 64  1  0
 64 65  2  0
 64 66  1  0
 66 67  2  0
 67 68  1  0
 68 69  1  0
 68 70  2  0
 70 71  1  0
 70 72  1  0
 72 73  2  0
 73 74  1  0
 74 75  2  3
 75 76  1  0
 76 77  3  0
 75 78  1  0
 78 79  3  0
 11  2  1  0
 23 17  1  0
 57 24  1  0
 74 63  1  0
 10  5  1  0
 22 18  1  0
 56 28  2  0
 73 66  1  0
 23  7  1  0
 55 30  2  0
 53 31  2  0
 36 32  2  0
 52 37  2  0
 50 38  2  0
 49 40  2  0
 47 41  2  0
  1 80  1  0
  6 81  1  0
  9 82  1  0
 17 83  1  0
 18 84  1  0
 19 85  1  0
 20 86  1  0
 21 87  1  0
 22 88  1  0
 22 89  1  0
 23 90  1  0
 26 91  1  0
 26 92  1  0
 27 93  1  0
 27 94  1  0
 27 95  1  0
 45 96  1  0
 45 97  1  0
 46 98  1  0
 46 99  1  0
 46100  1  0
 58101  1  0
 58102  1  0
 59103  1  0
 59104  1  0
 59105  1  0
 60106  1  0
 60107  1  0
 61108  1  0
 61109  1  0
 61110  1  0
 62111  1  0
 67112  1  0
 72113  1  0
M  END

