
     RDKit          3D

120135  0  0  0  0  0  0  0  0999 V2000
    8.8504   -1.0538   -1.8543 C   0  0  0  0  0  0  0  0  0  0  0  0
    8.5625   -1.6932   -3.0016 C   0  0  0  0  0  0  0  0  0  0  0  0
    7.2541   -1.6779   -3.6686 C   0  0  0  0  0  0  0  0  0  0  0  0
    6.3762   -0.7817   -3.5658 O   0  0  0  0  0  0  0  0  0  0  0  0
    7.1322   -2.8622   -4.4825 C   0  0  0  0  0  0  0  0  0  0  0  0
    5.9886   -3.2972   -5.1863 C   0  0  0  0  0  0  0  0  0  0  0  0
    6.1391   -4.5369   -5.7796 C   0  0  0  0  0  0  0  0  0  0  0  0
    7.3351   -5.3162   -5.6714 C   0  0  0  0  0  0  0  0  0  0  0  0
    8.4625   -4.8903   -4.9889 C   0  0  0  0  0  0  0  0  0  0  0  0
    8.3453   -3.5978   -4.4086 C   0  0  0  0  0  0  0  0  0  0  0  0
    9.3369   -2.8174   -3.6069 C   0  0  0  0  0  0  0  0  0  0  0  0
   10.6846   -2.9770   -3.5877 C   0  0  0  0  0  0  0  0  0  0  0  0
   11.5576   -1.9709   -3.0366 C   0  0  0  0  0  0  0  0  0  0  0  0
   12.2623   -1.1590   -2.6129 N   0  0  0  0  0  0  0  0  0  0  0  0
   11.3419   -4.0840   -4.2350 C   0  0  0  0  0  0  0  0  0  0  0  0
   11.8760   -4.9899   -4.7376 N   0  0  0  0  0  0  0  0  0  0  0  0
    6.7103   -6.4173   -6.4763 C   0  0  0  0  0  0  0  0  0  0  0  0
    7.2080   -6.5618   -7.9432 C   0  0  0  0  0  0  0  0  0  0  0  0
    6.1829   -7.4201   -8.6509 C   0  0  0  0  0  0  0  0  0  0  0  0
    5.0815   -6.6730   -8.7710 C   0  0  0  0  0  0  0  0  0  0  0  0
    5.3960   -5.3400   -8.1365 C   0  0  0  0  0  0  0  0  0  0  0  0
    6.8504   -5.2190   -8.5607 C   0  0  0  0  0  0  0  0  0  0  0  0
    5.4919   -5.6107   -6.6057 C   0  0  0  0  0  0  0  0  0  0  0  0
    7.8119   -0.3825   -1.0544 C   0  0  0  0  0  0  0  0  0  0  0  0
    7.8517    1.2614   -0.5660 S   0  0  0  0  0  0  0  0  0  0  0  0
    6.3790    1.1178    0.2268 C   0  0  0  0  0  0  0  0  0  0  0  0
    5.3790    1.9110    0.7116 C   0  0  0  0  0  0  0  0  0  0  0  0
    5.0065    3.5717    0.7411 S   0  0  0  0  0  0  0  0  0  0  0  0
    3.3755    3.1755    1.0172 C   0  0  0  0  0  0  0  0  0  0  0  0
    2.1975    3.8133    1.2776 C   0  0  0  0  0  0  0  0  0  0  0  0
    1.8920    5.1576    1.5272 C   0  0  0  0  0  0  0  0  0  0  0  0
    0.5604    5.4936    1.9242 C   0  0  0  0  0  0  0  0  0  0  0  0
    0.3056    6.8002    2.1793 N   0  0  0  0  0  0  0  0  0  0  0  0
    1.8111    7.4384    1.8995 S   0  0  0  0  0  0  0  0  0  0  0  0
    2.7902    6.1730    1.4638 N   0  0  0  0  0  0  0  0  0  0  0  0
   -0.3952    4.4706    2.0033 C   0  0  0  0  0  0  0  0  0  0  0  0
   -1.7468    4.4932    2.2123 C   0  0  0  0  0  0  0  0  0  0  0  0
   -2.9982    5.5959    2.5410 S   0  0  0  0  0  0  0  0  0  0  0  0
   -4.1667    4.3596    2.3585 C   0  0  0  0  0  0  0  0  0  0  0  0
   -5.5534    4.3102    2.5225 C   0  0  0  0  0  0  0  0  0  0  0  0
   -6.3799    5.5004    2.9313 C   0  0  0  0  0  0  0  0  0  0  0  0
   -7.0549    6.1375    1.7205 C   0  0  0  0  0  0  0  0  0  0  0  0
   -6.0543    3.0090    2.2719 C   0  0  0  0  0  0  0  0  0  0  0  0
   -4.7432    1.9832    1.8736 S   0  0  0  0  0  0  0  0  0  0  0  0
   -3.5820    3.1699    2.0174 C   0  0  0  0  0  0  0  0  0  0  0  0
   -2.2044    3.2423    1.9589 C   0  0  0  0  0  0  0  0  0  0  0  0
   -1.2295    2.3748    1.6009 N   0  0  0  0  0  0  0  0  0  0  0  0
   -0.0913    3.1355    1.6961 C   0  0  0  0  0  0  0  0  0  0  0  0
    1.2504    2.7901    1.4193 C   0  0  0  0  0  0  0  0  0  0  0  0
    1.8339    1.5529    1.3913 N   0  0  0  0  0  0  0  0  0  0  0  0
    3.1239    1.8353    1.0603 C   0  0  0  0  0  0  0  0  0  0  0  0
    4.2875    1.0882    0.8761 C   0  0  0  0  0  0  0  0  0  0  0  0
    4.5467   -0.1946    0.4772 N   0  0  0  0  0  0  0  0  0  0  0  0
    5.8497   -0.1268    0.0967 C   0  0  0  0  0  0  0  0  0  0  0  0
    6.6398   -1.0162   -0.6152 C   0  0  0  0  0  0  0  0  0  0  0  0
    3.6233   -1.2929    0.1767 C   0  0  0  0  0  0  0  0  0  0  0  0
    2.7275   -0.9478   -1.0098 C   0  0  0  0  0  0  0  0  0  0  0  0
    1.3818    0.4055    2.1980 C   0  0  0  0  0  0  0  0  0  0  0  0
    2.3245    0.1235    3.3725 C   0  0  0  0  0  0  0  0  0  0  0  0
   -1.4460    1.1656    0.7927 C   0  0  0  0  0  0  0  0  0  0  0  0
   -2.0139    0.0159    1.6344 C   0  0  0  0  0  0  0  0  0  0  0  0
   -7.4839    2.6116    2.3989 C   0  0  0  0  0  0  0  0  0  0  0  0
   -7.9894    1.3723    2.2335 C   0  0  0  0  0  0  0  0  0  0  0  0
   -7.1775   -0.0317    1.8102 S   0  0  0  0  0  0  0  0  0  0  0  0
   -8.5333   -1.0371    1.8313 C   0  0  0  0  0  0  0  0  0  0  0  0
   -8.4602   -2.3638    1.5486 C   0  0  0  0  0  0  0  0  0  0  0  0
   -9.5837   -3.2702    1.5469 C   0  0  0  0  0  0  0  0  0  0  0  0
  -10.4707   -4.0172    1.5412 N   0  0  0  0  0  0  0  0  0  0  0  0
   -7.1919   -2.9694    1.2239 C   0  0  0  0  0  0  0  0  0  0  0  0
   -6.1748   -3.4544    0.9607 N   0  0  0  0  0  0  0  0  0  0  0  0
   -9.6431   -0.3020    2.1715 N   0  0  0  0  0  0  0  0  0  0  0  0
  -11.0287   -0.7938    2.3141 C   0  0  0  0  0  0  0  0  0  0  0  0
  -11.2392   -1.5947    3.5807 C   0  0  0  0  0  0  0  0  0  0  0  0
  -12.3496   -2.4552    3.6632 C   0  0  0  0  0  0  0  0  0  0  0  0
  -12.5816   -3.2034    4.8180 C   0  0  0  0  0  0  0  0  0  0  0  0
  -11.7206   -3.0858    5.9114 C   0  0  0  0  0  0  0  0  0  0  0  0
  -10.6369   -2.2061    5.8576 C   0  0  0  0  0  0  0  0  0  0  0  0
  -10.4005   -1.4555    4.7037 C   0  0  0  0  0  0  0  0  0  0  0  0
   -9.3324    1.0207    2.3929 C   0  0  0  0  0  0  0  0  0  0  0  0
  -10.2092    1.8679    2.7238 O   0  0  0  0  0  0  0  0  0  0  0  0
    9.8064   -1.1831   -1.3736 H   0  0  0  0  0  0  0  0  0  0  0  0
    5.0687   -2.7310   -5.2401 H   0  0  0  0  0  0  0  0  0  0  0  0
    9.3272   -5.5223   -4.9052 H   0  0  0  0  0  0  0  0  0  0  0  0
    6.5768   -7.3705   -5.9157 H   0  0  0  0  0  0  0  0  0  0  0  0
    8.2627   -6.8879   -8.0613 H   0  0  0  0  0  0  0  0  0  0  0  0
    6.3301   -8.4038   -9.0818 H   0  0  0  0  0  0  0  0  0  0  0  0
    4.1821   -6.9456   -9.3129 H   0  0  0  0  0  0  0  0  0  0  0  0
    4.7301   -4.5023   -8.4360 H   0  0  0  0  0  0  0  0  0  0  0  0
    6.9899   -5.1911   -9.6671 H   0  0  0  0  0  0  0  0  0  0  0  0
    7.3825   -4.3531   -8.1099 H   0  0  0  0  0  0  0  0  0  0  0  0
    4.5876   -6.0526   -6.1343 H   0  0  0  0  0  0  0  0  0  0  0  0
   -7.1395    5.1978    3.6791 H   0  0  0  0  0  0  0  0  0  0  0  0
   -5.7342    6.2604    3.4240 H   0  0  0  0  0  0  0  0  0  0  0  0
   -6.2880    6.5302    1.0198 H   0  0  0  0  0  0  0  0  0  0  0  0
   -7.6917    5.3953    1.1904 H   0  0  0  0  0  0  0  0  0  0  0  0
   -7.7002    6.9782    2.0543 H   0  0  0  0  0  0  0  0  0  0  0  0
    6.3746   -2.0374   -0.8509 H   0  0  0  0  0  0  0  0  0  0  0  0
    3.0292   -1.5474    1.0677 H   0  0  0  0  0  0  0  0  0  0  0  0
    4.1888   -2.2189   -0.0649 H   0  0  0  0  0  0  0  0  0  0  0  0
    1.9570   -1.7364   -1.1263 H   0  0  0  0  0  0  0  0  0  0  0  0
    3.3328   -0.8931   -1.9370 H   0  0  0  0  0  0  0  0  0  0  0  0
    2.2150    0.0195   -0.8588 H   0  0  0  0  0  0  0  0  0  0  0  0
    1.2388   -0.4845    1.5615 H   0  0  0  0  0  0  0  0  0  0  0  0
    0.4071    0.6359    2.6641 H   0  0  0  0  0  0  0  0  0  0  0  0
    1.8443   -0.5911    4.0696 H   0  0  0  0  0  0  0  0  0  0  0  0
    2.5325    1.0602    3.9244 H   0  0  0  0  0  0  0  0  0  0  0  0
    3.2783   -0.3166    3.0311 H   0  0  0  0  0  0  0  0  0  0  0  0
   -0.5052    0.8465    0.2978 H   0  0  0  0  0  0  0  0  0  0  0  0
   -2.1524    1.4023   -0.0302 H   0  0  0  0  0  0  0  0  0  0  0  0
   -2.9522   -0.3598    1.1721 H   0  0  0  0  0  0  0  0  0  0  0  0
   -1.2968   -0.8314    1.6709 H   0  0  0  0  0  0  0  0  0  0  0  0
   -2.2330    0.3361    2.6788 H   0  0  0  0  0  0  0  0  0  0  0  0
   -8.1819    3.3957    2.6659 H   0  0  0  0  0  0  0  0  0  0  0  0
  -11.3073   -1.3825    1.4152 H   0  0  0  0  0  0  0  0  0  0  0  0
  -11.7507    0.0511    2.3299 H   0  0  0  0  0  0  0  0  0  0  0  0
  -13.0304   -2.5499    2.8237 H   0  0  0  0  0  0  0  0  0  0  0  0
  -13.4267   -3.8767    4.8651 H   0  0  0  0  0  0  0  0  0  0  0  0
  -11.8987   -3.6663    6.8074 H   0  0  0  0  0  0  0  0  0  0  0  0
   -9.9809   -2.1104    6.7107 H   0  0  0  0  0  0  0  0  0  0  0  0
   -9.5564   -0.7792    4.6913 H   0  0  0  0  0  0  0  0  0  0  0  0
  1  2  2  3
  2  3  1  0
  3  4  2  0
  3  5  1  0
  5  6  2  0
  6  7  1  0
  7  8  2  0
  8  9  1  0
  9 10  2  0
 10 11  1  0
 11 12  2  3
 12 13  1  0
 13 14  3  0
 12 15  1  0
 15 16  3  0
  8 17  1  0
 17 18  1  0
 18 19  1  0
 19 20  2  0
 20 21  1  0
 21 22  1  0
 21 23  1  0
  1 24  1  0
 24 25  1  0
 25 26  1  0
 26 27  1  0
 27 28  1  0
 28 29  1  0
 29 30  1  0
 30 31  1  0
 31 32  1  0
 32 33  2  0
 33 34  1  0
 34 35  1  0
 32 36  1  0
 36 37  1  0
 37 38  1  0
 38 39  1  0
 39 40  1  0
 40 41  1  0
 41 42  1  0
 40 43  2  0
 43 44  1  0
 44 45  1  0
 45 46  1  0
 46 47  1  0
 47 48  1  0
 48 49  1  0
 49 50  1  0
 50 51  1  0
 51 52  1  0
 52 53  1  0
 53 54  1  0
 54 55  1  0
 53 56  1  0
 56 57  1  0
 50 58  1  0
 58 59  1  0
 47 60  1  0
 60 61  1  0
 43 62  1  0
 62 63  2  3
 63 64  1  0
 64 65  1  0
 65 66  2  3
 66 67  1  0
 67 68  3  0
 66 69  1  0
 69 70  3  0
 65 71  1  0
 71 72  1  0
 72 73  1  0
 73 74  2  0
 74 75  1  0
 75 76  2  0
 76 77  1  0
 77 78  2  0
 71 79  1  0
 79 80  2  0
 11  2  1  0
 23 17  1  0
 55 24  2  0
 79 63  1  0
 10  5  1  0
 22 18  1  0
 54 26  2  0
 78 73  1  0
 23  7  1  0
 52 27  2  0
 51 29  2  0
 49 30  2  0
 35 31  2  0
 48 36  2  0
 46 37  2  0
 45 39  2  0
  1 81  1  0
  6 82  1  0
  9 83  1  0
 17 84  1  0
 18 85  1  0
 19 86  1  0
 20 87  1  0
 21 88  1  0
 22 89  1  0
 22 90  1  0
 23 91  1  0
 41 92  1  0
 41 93  1  0
 42 94  1  0
 42 95  1  0
 42 96  1  0
 55 97  1  0
 56 98  1  0
 56 99  1  0
 57100  1  0
 57101  1  0
 57102  1  0
 58103  1  0
 58104  1  0
 59105  1  0
 59106  1  0
 59107  1  0
 60108  1  0
 60109  1  0
 61110  1  0
 61111  1  0
 61112  1  0
 62113  1  0
 72114  1  0
 72115  1  0
 74116  1  0
 75117  1  0
 76118  1  0
 77119  1  0
 78120  1  0
M  END

