
     RDKit          3D

142157  0  0  0  0  0  0  0  0999 V2000
    3.5990    3.3852   -2.0916 C   0  0  0  0  0  0  0  0  0  0  0  0
    3.1281    4.6092   -1.6920 C   0  0  0  0  0  0  0  0  0  0  0  0
    2.3111    4.8092   -0.5290 C   0  0  0  0  0  0  0  0  0  0  0  0
    2.2623    4.0626    0.5080 O   0  0  0  0  0  0  0  0  0  0  0  0
    1.7058    6.0852   -0.5892 C   0  0  0  0  0  0  0  0  0  0  0  0
    0.7912    6.6465    0.3662 C   0  0  0  0  0  0  0  0  0  0  0  0
    0.3400    7.8909    0.0530 C   0  0  0  0  0  0  0  0  0  0  0  0
    0.7766    8.6197   -1.1021 C   0  0  0  0  0  0  0  0  0  0  0  0
    1.7136    8.1568   -2.0250 C   0  0  0  0  0  0  0  0  0  0  0  0
    2.1515    6.8197   -1.7677 C   0  0  0  0  0  0  0  0  0  0  0  0
    3.0798    5.9145   -2.5158 C   0  0  0  0  0  0  0  0  0  0  0  0
    3.7262    6.1951   -3.6929 C   0  0  0  0  0  0  0  0  0  0  0  0
    4.7108    5.3422   -4.3104 C   0  0  0  0  0  0  0  0  0  0  0  0
    5.5125    4.7357   -4.8470 N   0  0  0  0  0  0  0  0  0  0  0  0
    3.4163    7.4499   -4.4520 C   0  0  0  0  0  0  0  0  0  0  0  0
    3.2337    8.3957   -5.0753 N   0  0  0  0  0  0  0  0  0  0  0  0
   -0.1979    9.7263   -0.8217 C   0  0  0  0  0  0  0  0  0  0  0  0
   -1.5034    9.7475   -1.6673 C   0  0  0  0  0  0  0  0  0  0  0  0
   -1.8995    8.3464   -2.0940 C   0  0  0  0  0  0  0  0  0  0  0  0
   -2.2519    7.7118   -0.9970 C   0  0  0  0  0  0  0  0  0  0  0  0
   -2.1229    8.7007    0.1438 C   0  0  0  0  0  0  0  0  0  0  0  0
   -2.5273    9.9704   -0.5709 C   0  0  0  0  0  0  0  0  0  0  0  0
   -0.6222    8.9941    0.3930 C   0  0  0  0  0  0  0  0  0  0  0  0
    3.0946    2.1359   -1.5556 C   0  0  0  0  0  0  0  0  0  0  0  0
    1.4718    1.7215   -1.6110 S   0  0  0  0  0  0  0  0  0  0  0  0
    1.7100    0.3314   -0.7026 C   0  0  0  0  0  0  0  0  0  0  0  0
    0.9172   -0.7348   -0.1654 C   0  0  0  0  0  0  0  0  0  0  0  0
    1.7929   -1.6453    0.4229 C   0  0  0  0  0  0  0  0  0  0  0  0
    3.1480   -0.9584    0.6398 C   0  0  0  0  0  0  0  0  0  0  0  0
    3.2416   -0.2828    2.0319 C   0  0  0  0  0  0  0  0  0  0  0  0
    4.5050   -0.0212    2.5733 C   0  0  0  0  0  0  0  0  0  0  0  0
    4.6312    0.5422    3.8223 C   0  0  0  0  0  0  0  0  0  0  0  0
    3.4779    0.9290    4.5305 C   0  0  0  0  0  0  0  0  0  0  0  0
    3.6369    1.7676    5.7414 C   0  0  0  0  0  0  0  0  0  0  0  0
    3.6165    3.2486    5.3034 C   0  0  0  0  0  0  0  0  0  0  0  0
    2.2127    0.7290    3.9785 C   0  0  0  0  0  0  0  0  0  0  0  0
    2.0959    0.1312    2.7411 C   0  0  0  0  0  0  0  0  0  0  0  0
    4.2225   -1.9872    0.4952 C   0  0  0  0  0  0  0  0  0  0  0  0
    4.3032   -2.9288    1.5423 C   0  0  0  0  0  0  0  0  0  0  0  0
    5.2453   -3.9186    1.5647 C   0  0  0  0  0  0  0  0  0  0  0  0
    6.1566   -3.9905    0.5044 C   0  0  0  0  0  0  0  0  0  0  0  0
    7.1525   -5.1072    0.5887 C   0  0  0  0  0  0  0  0  0  0  0  0
    6.5302   -6.3847    0.0084 C   0  0  0  0  0  0  0  0  0  0  0  0
    6.0836   -3.0811   -0.5972 C   0  0  0  0  0  0  0  0  0  0  0  0
    5.0880   -2.1068   -0.5971 C   0  0  0  0  0  0  0  0  0  0  0  0
    2.9698    0.1786   -0.3820 C   0  0  0  0  0  0  0  0  0  0  0  0
    3.8102    1.1798   -0.8977 C   0  0  0  0  0  0  0  0  0  0  0  0
    1.4148   -2.9854    0.5146 C   0  0  0  0  0  0  0  0  0  0  0  0
    0.1147   -3.3030    0.2066 C   0  0  0  0  0  0  0  0  0  0  0  0
   -0.4553   -4.5701   -0.1315 C   0  0  0  0  0  0  0  0  0  0  0  0
   -1.7198   -4.4682   -0.4839 C   0  0  0  0  0  0  0  0  0  0  0  0
   -2.2609   -3.0429    0.0044 C   0  0  0  0  0  0  0  0  0  0  0  0
   -0.8633   -2.3267    0.0318 C   0  0  0  0  0  0  0  0  0  0  0  0
   -0.4309   -1.0020   -0.2833 C   0  0  0  0  0  0  0  0  0  0  0  0
   -3.2071   -2.1324   -0.8057 C   0  0  0  0  0  0  0  0  0  0  0  0
   -3.4044   -0.8019   -0.3271 C   0  0  0  0  0  0  0  0  0  0  0  0
   -4.2804    0.0704   -0.9129 C   0  0  0  0  0  0  0  0  0  0  0  0
   -5.0698   -0.3844   -1.9620 C   0  0  0  0  0  0  0  0  0  0  0  0
   -6.0365    0.5773   -2.6122 C   0  0  0  0  0  0  0  0  0  0  0  0
   -5.3302    1.3064   -3.7235 C   0  0  0  0  0  0  0  0  0  0  0  0
   -4.9140   -1.6889   -2.4655 C   0  0  0  0  0  0  0  0  0  0  0  0
   -3.9355   -2.5327   -1.9193 C   0  0  0  0  0  0  0  0  0  0  0  0
   -2.7903   -3.2156    1.4688 C   0  0  0  0  0  0  0  0  0  0  0  0
   -2.0183   -3.8487    2.5085 C   0  0  0  0  0  0  0  0  0  0  0  0
   -2.4350   -3.8543    3.8472 C   0  0  0  0  0  0  0  0  0  0  0  0
   -3.5915   -3.1971    4.2083 C   0  0  0  0  0  0  0  0  0  0  0  0
   -4.3986   -2.5627    3.2152 C   0  0  0  0  0  0  0  0  0  0  0  0
   -5.5546   -1.6364    3.6108 C   0  0  0  0  0  0  0  0  0  0  0  0
   -6.8525   -2.3712    3.6323 C   0  0  0  0  0  0  0  0  0  0  0  0
   -4.0599   -2.7086    1.8520 C   0  0  0  0  0  0  0  0  0  0  0  0
   -2.2335   -5.6527   -1.0501 C   0  0  0  0  0  0  0  0  0  0  0  0
   -1.2518   -6.6405   -1.1873 C   0  0  0  0  0  0  0  0  0  0  0  0
    0.1274   -6.1399   -0.3128 S   0  0  0  0  0  0  0  0  0  0  0  0
   -1.0531   -7.6400   -2.2200 C   0  0  0  0  0  0  0  0  0  0  0  0
    0.0113   -7.4422   -3.0516 C   0  0  0  0  0  0  0  0  0  0  0  0
    1.0875   -8.3133   -3.4177 C   0  0  0  0  0  0  0  0  0  0  0  0
    0.9964   -9.4363   -3.9533 O   0  0  0  0  0  0  0  0  0  0  0  0
    2.2451   -7.4272   -3.4868 C   0  0  0  0  0  0  0  0  0  0  0  0
    3.7621   -7.4773   -4.2361 S   0  0  0  0  0  0  0  0  0  0  0  0
    3.9783   -5.7820   -4.0835 C   0  0  0  0  0  0  0  0  0  0  0  0
    5.4573   -4.7664   -4.6918 Br  0  0  0  0  0  0  0  0  0  0  0  0
    2.8366   -5.2121   -3.5455 C   0  0  0  0  0  0  0  0  0  0  0  0
    1.9410   -6.1612   -3.2490 C   0  0  0  0  0  0  0  0  0  0  0  0
    0.4614   -6.1135   -3.1048 C   0  0  0  0  0  0  0  0  0  0  0  0
   -0.3112   -5.1422   -3.6471 C   0  0  0  0  0  0  0  0  0  0  0  0
   -1.5925   -5.4715   -4.2426 C   0  0  0  0  0  0  0  0  0  0  0  0
   -2.5945   -5.7913   -4.6380 N   0  0  0  0  0  0  0  0  0  0  0  0
    0.0455   -3.7066   -3.5493 C   0  0  0  0  0  0  0  0  0  0  0  0
    0.3076   -2.5873   -3.3373 N   0  0  0  0  0  0  0  0  0  0  0  0
    4.2781    3.2937   -2.8684 H   0  0  0  0  0  0  0  0  0  0  0  0
    0.3917    6.0581    1.1939 H   0  0  0  0  0  0  0  0  0  0  0  0
    1.9469    8.7612   -2.9112 H   0  0  0  0  0  0  0  0  0  0  0  0
    0.3003   10.6647   -0.5909 H   0  0  0  0  0  0  0  0  0  0  0  0
   -1.5042   10.5168   -2.4690 H   0  0  0  0  0  0  0  0  0  0  0  0
   -1.7732    7.8940   -3.0635 H   0  0  0  0  0  0  0  0  0  0  0  0
   -2.4895    6.6553   -0.9636 H   0  0  0  0  0  0  0  0  0  0  0  0
   -2.6871    8.4650    1.0558 H   0  0  0  0  0  0  0  0  0  0  0  0
   -3.5564    9.9719   -0.9140 H   0  0  0  0  0  0  0  0  0  0  0  0
   -2.3898   10.9039    0.0227 H   0  0  0  0  0  0  0  0  0  0  0  0
   -0.3488    9.5338    1.3010 H   0  0  0  0  0  0  0  0  0  0  0  0
    5.4319   -0.2710    2.0551 H   0  0  0  0  0  0  0  0  0  0  0  0
    5.6315    0.7223    4.2169 H   0  0  0  0  0  0  0  0  0  0  0  0
    4.5991    1.5375    6.2645 H   0  0  0  0  0  0  0  0  0  0  0  0
    2.8042    1.5505    6.4489 H   0  0  0  0  0  0  0  0  0  0  0  0
    2.5804    3.5945    5.1693 H   0  0  0  0  0  0  0  0  0  0  0  0
    4.1711    3.4186    4.3571 H   0  0  0  0  0  0  0  0  0  0  0  0
    4.1113    3.8443    6.1032 H   0  0  0  0  0  0  0  0  0  0  0  0
    1.3093    1.1293    4.4641 H   0  0  0  0  0  0  0  0  0  0  0  0
    1.0761    0.0211    2.3803 H   0  0  0  0  0  0  0  0  0  0  0  0
    3.6474   -2.8963    2.3995 H   0  0  0  0  0  0  0  0  0  0  0  0
    5.2409   -4.5907    2.4217 H   0  0  0  0  0  0  0  0  0  0  0  0
    8.0729   -4.8045    0.0496 H   0  0  0  0  0  0  0  0  0  0  0  0
    7.4269   -5.2905    1.6535 H   0  0  0  0  0  0  0  0  0  0  0  0
    6.2735   -6.2297   -1.0570 H   0  0  0  0  0  0  0  0  0  0  0  0
    5.6005   -6.6552    0.5541 H   0  0  0  0  0  0  0  0  0  0  0  0
    7.2580   -7.2029    0.0817 H   0  0  0  0  0  0  0  0  0  0  0  0
    6.8062   -3.1592   -1.4192 H   0  0  0  0  0  0  0  0  0  0  0  0
    5.0828   -1.4164   -1.3979 H   0  0  0  0  0  0  0  0  0  0  0  0
    4.9075    1.1808   -0.7124 H   0  0  0  0  0  0  0  0  0  0  0  0
    2.0833   -3.7778    0.8286 H   0  0  0  0  0  0  0  0  0  0  0  0
   -1.0288   -0.1893   -0.6273 H   0  0  0  0  0  0  0  0  0  0  0  0
   -2.9220   -0.4131    0.5748 H   0  0  0  0  0  0  0  0  0  0  0  0
   -4.3949    1.0659   -0.4724 H   0  0  0  0  0  0  0  0  0  0  0  0
   -6.3462    1.2951   -1.8157 H   0  0  0  0  0  0  0  0  0  0  0  0
   -6.9390   -0.0069   -2.9416 H   0  0  0  0  0  0  0  0  0  0  0  0
   -5.7125    0.9106   -4.6672 H   0  0  0  0  0  0  0  0  0  0  0  0
   -5.5103    2.3869   -3.6221 H   0  0  0  0  0  0  0  0  0  0  0  0
   -4.2071    1.1942   -3.6939 H   0  0  0  0  0  0  0  0  0  0  0  0
   -5.5443   -2.0644   -3.2771 H   0  0  0  0  0  0  0  0  0  0  0  0
   -3.9062   -3.5341   -2.2366 H   0  0  0  0  0  0  0  0  0  0  0  0
   -1.0635   -4.3167    2.3159 H   0  0  0  0  0  0  0  0  0  0  0  0
   -1.8026   -4.3241    4.6160 H   0  0  0  0  0  0  0  0  0  0  0  0
   -3.8831   -3.1452    5.2882 H   0  0  0  0  0  0  0  0  0  0  0  0
   -5.6171   -0.7912    2.8925 H   0  0  0  0  0  0  0  0  0  0  0  0
   -5.3432   -1.1504    4.5916 H   0  0  0  0  0  0  0  0  0  0  0  0
   -6.6844   -3.4893    3.6269 H   0  0  0  0  0  0  0  0  0  0  0  0
   -7.4792   -2.1252    2.7340 H   0  0  0  0  0  0  0  0  0  0  0  0
   -7.4142   -2.1468    4.5381 H   0  0  0  0  0  0  0  0  0  0  0  0
   -4.7717   -2.2863    1.1383 H   0  0  0  0  0  0  0  0  0  0  0  0
   -3.1665   -5.6627   -1.6092 H   0  0  0  0  0  0  0  0  0  0  0  0
   -1.7264   -8.4581   -2.4815 H   0  0  0  0  0  0  0  0  0  0  0  0
    2.6785   -4.1640   -3.4726 H   0  0  0  0  0  0  0  0  0  0  0  0
  1  2  2  3
  2  3  1  0
  3  4  2  0
  3  5  1  0
  5  6  2  0
  6  7  1  0
  7  8  2  0
  8  9  1  0
  9 10  2  0
 10 11  1  0
 11 12  2  3
 12 13  1  0
 13 14  3  0
 12 15  1  0
 15 16  3  0
  8 17  1  0
 17 18  1  0
 18 19  1  0
 19 20  2  0
 20 21  1  0
 21 22  1  0
 21 23  1  0
  1 24  1  0
 24 25  1  0
 25 26  1  0
 26 27  1  0
 27 28  2  0
 28 29  1  0
 29 30  1  0
 30 31  2  0
 31 32  1  0
 32 33  2  0
 33 34  1  0
 34 35  1  0
 33 36  1  0
 36 37  2  0
 29 38  1  0
 38 39  2  0
 39 40  1  0
 40 41  2  0
 41 42  1  0
 42 43  1  0
 41 44  1  0
 44 45  2  0
 29 46  1  0
 46 47  1  0
 28 48  1  0
 48 49  2  0
 49 50  1  0
 50 51  2  0
 51 52  1  0
 52 53  1  0
 53 54  2  0
 52 55  1  0
 55 56  2  0
 56 57  1  0
 57 58  2  0
 58 59  1  0
 59 60  1  0
 58 61  1  0
 61 62  2  0
 52 63  1  0
 63 64  2  0
 64 65  1  0
 65 66  2  0
 66 67  1  0
 67 68  1  0
 68 69  1  0
 67 70  2  0
 51 71  1  0
 71 72  2  0
 72 73  1  0
 72 74  1  0
 74 75  2  3
 75 76  1  0
 76 77  2  0
 76 78  1  0
 78 79  1  0
 79 80  1  0
 80 81  1  0
 80 82  2  0
 82 83  1  0
 83 84  1  0
 84 85  2  3
 85 86  1  0
 86 87  3  0
 85 88  1  0
 88 89  3  0
 11  2  1  0
 23 17  1  0
 47 24  2  0
 53 49  1  0
 62 55  1  0
 70 63  1  0
 84 75  1  0
 10  5  1  0
 22 18  1  0
 46 26  2  0
 73 50  1  0
 83 78  2  0
 23  7  1  0
 54 27  1  0
 37 30  1  0
 45 38  1  0
  1 90  1  0
  6 91  1  0
  9 92  1  0
 17 93  1  0
 18 94  1  0
 19 95  1  0
 20 96  1  0
 21 97  1  0
 22 98  1  0
 22 99  1  0
 23100  1  0
 31101  1  0
 32102  1  0
 34103  1  0
 34104  1  0
 35105  1  0
 35106  1  0
 35107  1  0
 36108  1  0
 37109  1  0
 39110  1  0
 40111  1  0
 42112  1  0
 42113  1  0
 43114  1  0
 43115  1  0
 43116  1  0
 44117  1  0
 45118  1  0
 47119  1  0
 48120  1  0
 54121  1  0
 56122  1  0
 57123  1  0
 59124  1  0
 59125  1  0
 60126  1  0
 60127  1  0
 60128  1  0
 61129  1  0
 62130  1  0
 64131  1  0
 65132  1  0
 66133  1  0
 68134  1  0
 68135  1  0
 69136  1  0
 69137  1  0
 69138  1  0
 70139  1  0
 71140  1  0
 74141  1  0
 82142  1  0
M  END

