
     RDKit          3D

119134  0  0  0  0  0  0  0  0999 V2000
    6.3822   -3.0878   -5.4309 C   0  0  0  0  0  0  0  0  0  0  0  0
    5.6752   -4.1711   -5.0506 C   0  0  0  0  0  0  0  0  0  0  0  0
    4.7732   -4.2304   -3.8892 C   0  0  0  0  0  0  0  0  0  0  0  0
    4.8268   -3.5104   -2.8559 O   0  0  0  0  0  0  0  0  0  0  0  0
    3.8180   -5.2886   -4.1023 C   0  0  0  0  0  0  0  0  0  0  0  0
    2.6417   -5.5212   -3.3560 C   0  0  0  0  0  0  0  0  0  0  0  0
    1.8242   -6.4911   -3.8957 C   0  0  0  0  0  0  0  0  0  0  0  0
    2.1415   -7.2104   -5.0933 C   0  0  0  0  0  0  0  0  0  0  0  0
    3.2948   -6.9865   -5.8304 C   0  0  0  0  0  0  0  0  0  0  0  0
    4.1548   -5.9867   -5.2909 C   0  0  0  0  0  0  0  0  0  0  0  0
    5.4032   -5.3997   -5.8577 C   0  0  0  0  0  0  0  0  0  0  0  0
    6.2371   -5.9778   -6.7595 C   0  0  0  0  0  0  0  0  0  0  0  0
    7.5247   -5.4186   -7.0779 C   0  0  0  0  0  0  0  0  0  0  0  0
    8.5630   -4.9764   -7.3374 N   0  0  0  0  0  0  0  0  0  0  0  0
    5.9636   -7.2619   -7.3503 C   0  0  0  0  0  0  0  0  0  0  0  0
    5.7602   -8.2973   -7.8255 N   0  0  0  0  0  0  0  0  0  0  0  0
    0.8469   -7.9637   -4.9998 C   0  0  0  0  0  0  0  0  0  0  0  0
    0.9241   -9.4395   -4.5027 C   0  0  0  0  0  0  0  0  0  0  0  0
   -0.4890   -9.8230   -4.1292 C   0  0  0  0  0  0  0  0  0  0  0  0
   -0.7915   -9.1328   -3.0212 C   0  0  0  0  0  0  0  0  0  0  0  0
    0.4285   -8.3095   -2.6838 C   0  0  0  0  0  0  0  0  0  0  0  0
    1.5016   -9.3027   -3.1031 C   0  0  0  0  0  0  0  0  0  0  0  0
    0.5186   -7.2128   -3.7836 C   0  0  0  0  0  0  0  0  0  0  0  0
    6.3500   -1.8338   -4.6649 C   0  0  0  0  0  0  0  0  0  0  0  0
    7.2788   -1.4581   -3.6743 C   0  0  0  0  0  0  0  0  0  0  0  0
    8.5657   -2.1847   -3.3967 C   0  0  0  0  0  0  0  0  0  0  0  0
    8.3555   -3.3206   -2.4012 C   0  0  0  0  0  0  0  0  0  0  0  0
    6.7673   -0.4228   -2.8836 C   0  0  0  0  0  0  0  0  0  0  0  0
    7.2232    0.1984   -1.3567 S   0  0  0  0  0  0  0  0  0  0  0  0
    5.7408    1.0149   -1.2215 C   0  0  0  0  0  0  0  0  0  0  0  0
    5.0266    1.7277   -0.3021 C   0  0  0  0  0  0  0  0  0  0  0  0
    5.3717    2.2607    0.9432 C   0  0  0  0  0  0  0  0  0  0  0  0
    4.3904    3.0076    1.6632 C   0  0  0  0  0  0  0  0  0  0  0  0
    4.7547    3.4905    2.8749 N   0  0  0  0  0  0  0  0  0  0  0  0
    6.3231    2.9525    2.9305 S   0  0  0  0  0  0  0  0  0  0  0  0
    6.5890    2.1229    1.5230 N   0  0  0  0  0  0  0  0  0  0  0  0
    3.1066    3.1365    1.1153 C   0  0  0  0  0  0  0  0  0  0  0  0
    1.9385    3.5794    1.6683 C   0  0  0  0  0  0  0  0  0  0  0  0
    1.3967    4.1990    3.1580 S   0  0  0  0  0  0  0  0  0  0  0  0
   -0.2215    3.9491    2.6807 C   0  0  0  0  0  0  0  0  0  0  0  0
   -1.4631    4.2205    3.2289 C   0  0  0  0  0  0  0  0  0  0  0  0
   -2.0277    5.0369    4.5768 S   0  0  0  0  0  0  0  0  0  0  0  0
   -3.6655    4.9116    4.1124 C   0  0  0  0  0  0  0  0  0  0  0  0
   -3.7681    4.2545    2.8638 C   0  0  0  0  0  0  0  0  0  0  0  0
   -5.0102    4.1830    2.0062 C   0  0  0  0  0  0  0  0  0  0  0  0
   -5.4301    2.7419    1.7202 C   0  0  0  0  0  0  0  0  0  0  0  0
   -2.5036    3.8718    2.4114 C   0  0  0  0  0  0  0  0  0  0  0  0
   -1.9332    3.2018    0.9551 S   0  0  0  0  0  0  0  0  0  0  0  0
   -0.3151    3.3728    1.4290 C   0  0  0  0  0  0  0  0  0  0  0  0
    0.9311    3.1812    0.8478 C   0  0  0  0  0  0  0  0  0  0  0  0
    1.3710    2.4911   -0.2370 N   0  0  0  0  0  0  0  0  0  0  0  0
    2.7401    2.5307   -0.0996 C   0  0  0  0  0  0  0  0  0  0  0  0
    3.7489    1.8841   -0.8650 C   0  0  0  0  0  0  0  0  0  0  0  0
    3.7003    1.3743   -2.1391 N   0  0  0  0  0  0  0  0  0  0  0  0
    4.9324    0.8241   -2.2917 C   0  0  0  0  0  0  0  0  0  0  0  0
    5.5197    0.0239   -3.2564 C   0  0  0  0  0  0  0  0  0  0  0  0
    4.9588   -0.8565   -4.5644 S   0  0  0  0  0  0  0  0  0  0  0  0
    2.9126    1.9254   -3.2501 C   0  0  0  0  0  0  0  0  0  0  0  0
    2.1448    0.8478   -4.0171 C   0  0  0  0  0  0  0  0  0  0  0  0
    0.5950    1.4358   -0.9029 C   0  0  0  0  0  0  0  0  0  0  0  0
   -0.3722    1.9925   -1.9486 C   0  0  0  0  0  0  0  0  0  0  0  0
   -4.7489    5.6247    4.8126 C   0  0  0  0  0  0  0  0  0  0  0  0
   -5.8994    5.0419    5.1983 C   0  0  0  0  0  0  0  0  0  0  0  0
   -6.1068    3.5928    5.3128 C   0  0  0  0  0  0  0  0  0  0  0  0
   -5.2471    2.6976    5.0980 O   0  0  0  0  0  0  0  0  0  0  0  0
   -7.4204    3.3581    5.8678 C   0  0  0  0  0  0  0  0  0  0  0  0
   -8.0523    2.1322    6.0784 C   0  0  0  0  0  0  0  0  0  0  0  0
   -9.3730    2.1240    6.5664 C   0  0  0  0  0  0  0  0  0  0  0  0
  -10.0836    0.8455    6.7933 C   0  0  0  0  0  0  0  0  0  0  0  0
   -9.4818   -0.2520    6.6336 O   0  0  0  0  0  0  0  0  0  0  0  0
  -11.4280    0.8557    7.1879 O   0  0  0  0  0  0  0  0  0  0  0  0
  -12.1555   -0.3328    7.4737 C   0  0  0  0  0  0  0  0  0  0  0  0
  -10.0208    3.3529    6.8202 C   0  0  0  0  0  0  0  0  0  0  0  0
   -9.3647    4.5726    6.5954 C   0  0  0  0  0  0  0  0  0  0  0  0
   -8.0381    4.5656    6.1365 C   0  0  0  0  0  0  0  0  0  0  0  0
   -7.1343    5.6937    5.7518 C   0  0  0  0  0  0  0  0  0  0  0  0
   -7.4113    7.0228    5.8198 C   0  0  0  0  0  0  0  0  0  0  0  0
   -6.6175    8.0225    5.1511 C   0  0  0  0  0  0  0  0  0  0  0  0
   -5.9902    8.8356    4.6161 N   0  0  0  0  0  0  0  0  0  0  0  0
   -8.5304    7.5478    6.5555 C   0  0  0  0  0  0  0  0  0  0  0  0
   -9.4196    7.9891    7.1521 N   0  0  0  0  0  0  0  0  0  0  0  0
    6.8972   -3.0597   -6.3765 H   0  0  0  0  0  0  0  0  0  0  0  0
    2.3740   -4.9562   -2.4745 H   0  0  0  0  0  0  0  0  0  0  0  0
    3.4620   -7.4905   -6.7681 H   0  0  0  0  0  0  0  0  0  0  0  0
    0.1580   -7.7800   -5.8542 H   0  0  0  0  0  0  0  0  0  0  0  0
    1.4461  -10.1493   -5.1769 H   0  0  0  0  0  0  0  0  0  0  0  0
   -1.1166  -10.5692   -4.6039 H   0  0  0  0  0  0  0  0  0  0  0  0
   -1.7065   -9.2208   -2.4437 H   0  0  0  0  0  0  0  0  0  0  0  0
    0.4816   -7.9476   -1.6353 H   0  0  0  0  0  0  0  0  0  0  0  0
    2.5368   -8.8939   -3.0748 H   0  0  0  0  0  0  0  0  0  0  0  0
    1.4761  -10.2536   -2.5177 H   0  0  0  0  0  0  0  0  0  0  0  0
   -0.3705   -6.5489   -3.8729 H   0  0  0  0  0  0  0  0  0  0  0  0
    9.3162   -1.4733   -2.9932 H   0  0  0  0  0  0  0  0  0  0  0  0
    8.9694   -2.5988   -4.3472 H   0  0  0  0  0  0  0  0  0  0  0  0
    9.2972   -3.8913   -2.2928 H   0  0  0  0  0  0  0  0  0  0  0  0
    7.5736   -4.0190   -2.7602 H   0  0  0  0  0  0  0  0  0  0  0  0
    8.0700   -2.9174   -1.4132 H   0  0  0  0  0  0  0  0  0  0  0  0
   -4.8076    4.6938    1.0399 H   0  0  0  0  0  0  0  0  0  0  0  0
   -5.8590    4.7124    2.4841 H   0  0  0  0  0  0  0  0  0  0  0  0
   -4.6225    2.1889    1.1980 H   0  0  0  0  0  0  0  0  0  0  0  0
   -6.3257    2.7440    1.0646 H   0  0  0  0  0  0  0  0  0  0  0  0
   -5.6862    2.2098    2.6565 H   0  0  0  0  0  0  0  0  0  0  0  0
    2.2149    2.6959   -2.8746 H   0  0  0  0  0  0  0  0  0  0  0  0
    3.5908    2.4609   -3.9504 H   0  0  0  0  0  0  0  0  0  0  0  0
    2.6706    0.5936   -4.9606 H   0  0  0  0  0  0  0  0  0  0  0  0
    1.1429    1.2303   -4.3081 H   0  0  0  0  0  0  0  0  0  0  0  0
    2.0207   -0.0769   -3.4092 H   0  0  0  0  0  0  0  0  0  0  0  0
    0.0189    0.8628   -0.1431 H   0  0  0  0  0  0  0  0  0  0  0  0
    1.2707    0.6954   -1.3710 H   0  0  0  0  0  0  0  0  0  0  0  0
   -0.6243    1.1961   -2.6793 H   0  0  0  0  0  0  0  0  0  0  0  0
    0.0537    2.8605   -2.4853 H   0  0  0  0  0  0  0  0  0  0  0  0
   -1.3223    2.3121   -1.4850 H   0  0  0  0  0  0  0  0  0  0  0  0
   -4.5588    6.6610    5.0218 H   0  0  0  0  0  0  0  0  0  0  0  0
   -7.5317    1.2110    5.8481 H   0  0  0  0  0  0  0  0  0  0  0  0
  -11.6889   -0.8652    8.3264 H   0  0  0  0  0  0  0  0  0  0  0  0
  -12.1698   -0.9937    6.5809 H   0  0  0  0  0  0  0  0  0  0  0  0
  -13.1991   -0.0666    7.7407 H   0  0  0  0  0  0  0  0  0  0  0  0
  -11.0426    3.3738    7.1819 H   0  0  0  0  0  0  0  0  0  0  0  0
   -9.9193    5.4790    6.7592 H   0  0  0  0  0  0  0  0  0  0  0  0
  1  2  2  3
  2  3  1  0
  3  4  2  0
  3  5  1  0
  5  6  2  0
  6  7  1  0
  7  8  2  0
  8  9  1  0
  9 10  2  0
 10 11  1  0
 11 12  2  3
 12 13  1  0
 13 14  3  0
 12 15  1  0
 15 16  3  0
  8 17  1  0
 17 18  1  0
 18 19  1  0
 19 20  2  0
 20 21  1  0
 21 22  1  0
 21 23  1  0
  1 24  1  0
 24 25  2  0
 25 26  1  0
 26 27  1  0
 25 28  1  0
 28 29  1  0
 29 30  1  0
 30 31  1  0
 31 32  1  0
 32 33  1  0
 33 34  2  0
 34 35  1  0
 35 36  1  0
 33 37  1  0
 37 38  1  0
 38 39  1  0
 39 40  1  0
 40 41  1  0
 41 42  1  0
 42 43  1  0
 43 44  2  0
 44 45  1  0
 45 46  1  0
 44 47  1  0
 47 48  1  0
 48 49  1  0
 49 50  1  0
 50 51  1  0
 51 52  1  0
 52 53  1  0
 53 54  1  0
 54 55  1  0
 55 56  1  0
 56 57  1  0
 54 58  1  0
 58 59  1  0
 51 60  1  0
 60 61  1  0
 43 62  1  0
 62 63  2  3
 63 64  1  0
 64 65  2  0
 64 66  1  0
 66 67  2  0
 67 68  1  0
 68 69  1  0
 69 70  2  0
 69 71  1  0
 71 72  1  0
 68 73  2  0
 73 74  1  0
 74 75  2  0
 75 76  1  0
 76 77  2  3
 77 78  1  0
 78 79  3  0
 77 80  1  0
 80 81  3  0
 11  2  1  0
 23 17  1  0
 57 24  1  0
 76 63  1  0
 10  5  1  0
 22 18  1  0
 56 28  2  0
 75 66  1  0
 23  7  1  0
 55 30  2  0
 53 31  2  0
 36 32  2  0
 52 37  2  0
 50 38  2  0
 49 40  2  0
 47 41  2  0
  1 82  1  0
  6 83  1  0
  9 84  1  0
 17 85  1  0
 18 86  1  0
 19 87  1  0
 20 88  1  0
 21 89  1  0
 22 90  1  0
 22 91  1  0
 23 92  1  0
 26 93  1  0
 26 94  1  0
 27 95  1  0
 27 96  1  0
 27 97  1  0
 45 98  1  0
 45 99  1  0
 46100  1  0
 46101  1  0
 46102  1  0
 58103  1  0
 58104  1  0
 59105  1  0
 59106  1  0
 59107  1  0
 60108  1  0
 60109  1  0
 61110  1  0
 61111  1  0
 61112  1  0
 62113  1  0
 67114  1  0
 72115  1  0
 72116  1  0
 72117  1  0
 73118  1  0
 74119  1  0
M  END

