
     RDKit          3D

110125  0  0  0  0  0  0  0  0999 V2000
    1.8849    4.2280   -5.5981 C   0  0  0  0  0  0  0  0  0  0  0  0
    3.1208    3.6958   -5.6944 C   0  0  0  0  0  0  0  0  0  0  0  0
    3.8928    3.1524   -4.5693 C   0  0  0  0  0  0  0  0  0  0  0  0
    3.6658    3.3467   -3.3444 O   0  0  0  0  0  0  0  0  0  0  0  0
    4.9833    2.3596   -5.0850 C   0  0  0  0  0  0  0  0  0  0  0  0
    5.8560    1.5327   -4.3409 C   0  0  0  0  0  0  0  0  0  0  0  0
    6.6756    0.7416   -5.1239 C   0  0  0  0  0  0  0  0  0  0  0  0
    6.6361    0.7515   -6.5538 C   0  0  0  0  0  0  0  0  0  0  0  0
    5.7867    1.5651   -7.2825 C   0  0  0  0  0  0  0  0  0  0  0  0
    4.9656    2.4221   -6.4986 C   0  0  0  0  0  0  0  0  0  0  0  0
    3.8894    3.3592   -6.9360 C   0  0  0  0  0  0  0  0  0  0  0  0
    3.7483    3.8950   -8.1809 C   0  0  0  0  0  0  0  0  0  0  0  0
    4.6874    3.6320   -9.2396 C   0  0  0  0  0  0  0  0  0  0  0  0
    5.4378    3.4319  -10.1007 N   0  0  0  0  0  0  0  0  0  0  0  0
    2.7205    4.8428   -8.5168 C   0  0  0  0  0  0  0  0  0  0  0  0
    1.8920    5.6044   -8.8050 N   0  0  0  0  0  0  0  0  0  0  0  0
    7.6574   -0.3444   -6.6068 C   0  0  0  0  0  0  0  0  0  0  0  0
    7.1297   -1.7651   -6.9559 C   0  0  0  0  0  0  0  0  0  0  0  0
    8.2286   -2.7225   -6.5656 C   0  0  0  0  0  0  0  0  0  0  0  0
    8.2766   -2.7244   -5.2257 C   0  0  0  0  0  0  0  0  0  0  0  0
    7.2054   -1.7712   -4.7607 C   0  0  0  0  0  0  0  0  0  0  0  0
    6.1588   -2.0610   -5.8232 C   0  0  0  0  0  0  0  0  0  0  0  0
    7.7052   -0.3477   -5.1400 C   0  0  0  0  0  0  0  0  0  0  0  0
    1.0980    4.1549   -4.3587 C   0  0  0  0  0  0  0  0  0  0  0  0
    0.7240    5.2283   -3.5324 C   0  0  0  0  0  0  0  0  0  0  0  0
    1.1012    6.6642   -3.7689 C   0  0  0  0  0  0  0  0  0  0  0  0
    2.4256    6.9981   -3.0911 C   0  0  0  0  0  0  0  0  0  0  0  0
    0.0552    4.7619   -2.3960 C   0  0  0  0  0  0  0  0  0  0  0  0
   -0.6274    5.5203   -1.0228 S   0  0  0  0  0  0  0  0  0  0  0  0
   -1.0969    4.0090   -0.3920 C   0  0  0  0  0  0  0  0  0  0  0  0
   -1.9062    3.5065    0.5863 C   0  0  0  0  0  0  0  0  0  0  0  0
   -2.6968    4.1498    1.5465 C   0  0  0  0  0  0  0  0  0  0  0  0
   -3.5850    3.3662    2.3409 C   0  0  0  0  0  0  0  0  0  0  0  0
   -4.3268    4.0260    3.2650 N   0  0  0  0  0  0  0  0  0  0  0  0
   -3.8110    5.5736    2.9860 S   0  0  0  0  0  0  0  0  0  0  0  0
   -2.6899    5.4879    1.7686 N   0  0  0  0  0  0  0  0  0  0  0  0
   -3.6207    1.9796    2.1427 C   0  0  0  0  0  0  0  0  0  0  0  0
   -4.2126    0.9882    2.8751 C   0  0  0  0  0  0  0  0  0  0  0  0
   -5.1088    0.8344    4.3167 S   0  0  0  0  0  0  0  0  0  0  0  0
   -4.8179   -0.8451    4.3295 C   0  0  0  0  0  0  0  0  0  0  0  0
   -5.1207   -1.8964    5.1832 C   0  0  0  0  0  0  0  0  0  0  0  0
   -5.9783   -2.0983    6.6132 S   0  0  0  0  0  0  0  0  0  0  0  0
   -5.5980   -3.7668    6.7205 C   0  0  0  0  0  0  0  0  0  0  0  0
   -4.8017   -4.1648    5.6295 C   0  0  0  0  0  0  0  0  0  0  0  0
   -4.1858   -5.5236    5.4472 C   0  0  0  0  0  0  0  0  0  0  0  0
   -3.0008   -5.7111    6.3890 C   0  0  0  0  0  0  0  0  0  0  0  0
   -4.5555   -3.0833    4.7939 C   0  0  0  0  0  0  0  0  0  0  0  0
   -3.6488   -2.9019    3.3721 S   0  0  0  0  0  0  0  0  0  0  0  0
   -4.0206   -1.2428    3.2750 C   0  0  0  0  0  0  0  0  0  0  0  0
   -3.6879   -0.1847    2.4407 C   0  0  0  0  0  0  0  0  0  0  0  0
   -2.7726   -0.0293    1.4498 N   0  0  0  0  0  0  0  0  0  0  0  0
   -2.7868    1.3254    1.2096 C   0  0  0  0  0  0  0  0  0  0  0  0
   -1.9719    2.1197    0.3507 C   0  0  0  0  0  0  0  0  0  0  0  0
   -1.3021    1.7930   -0.8064 N   0  0  0  0  0  0  0  0  0  0  0  0
   -0.7649    2.9744   -1.2005 C   0  0  0  0  0  0  0  0  0  0  0  0
   -0.1259    3.4039   -2.3539 C   0  0  0  0  0  0  0  0  0  0  0  0
    0.5277    2.6895   -3.7140 S   0  0  0  0  0  0  0  0  0  0  0  0
   -1.5657    0.6768   -1.7201 C   0  0  0  0  0  0  0  0  0  0  0  0
   -0.3187   -0.2026   -1.9046 C   0  0  0  0  0  0  0  0  0  0  0  0
   -1.6834   -0.9839    1.2033 C   0  0  0  0  0  0  0  0  0  0  0  0
   -0.3990   -0.5520    1.9050 C   0  0  0  0  0  0  0  0  0  0  0  0
   -6.0788   -4.6760    7.7676 C   0  0  0  0  0  0  0  0  0  0  0  0
   -5.4756   -4.8057    8.9619 C   0  0  0  0  0  0  0  0  0  0  0  0
   -4.4244   -3.9116    9.4884 C   0  0  0  0  0  0  0  0  0  0  0  0
   -3.8860   -2.9256    8.9010 O   0  0  0  0  0  0  0  0  0  0  0  0
   -4.1010   -4.3502   10.8204 C   0  0  0  0  0  0  0  0  0  0  0  0
   -4.8483   -5.4551   11.1483 C   0  0  0  0  0  0  0  0  0  0  0  0
   -4.6547   -5.9131   12.4497 C   0  0  0  0  0  0  0  0  0  0  0  0
   -3.5187   -4.8694   13.1555 S   0  0  0  0  0  0  0  0  0  0  0  0
   -3.2699   -3.8672   11.8156 C   0  0  0  0  0  0  0  0  0  0  0  0
   -2.2454   -2.4411   11.7604 Cl  0  0  0  0  0  0  0  0  0  0  0  0
   -5.7216   -5.8542   10.0156 C   0  0  0  0  0  0  0  0  0  0  0  0
   -6.4196   -7.0202    9.9274 C   0  0  0  0  0  0  0  0  0  0  0  0
   -7.1317   -7.4281    8.7440 C   0  0  0  0  0  0  0  0  0  0  0  0
   -7.7136   -7.7850    7.8093 N   0  0  0  0  0  0  0  0  0  0  0  0
   -6.3786   -8.0069   10.9739 C   0  0  0  0  0  0  0  0  0  0  0  0
   -6.3417   -8.8146   11.8046 N   0  0  0  0  0  0  0  0  0  0  0  0
    1.3466    4.5765   -6.4624 H   0  0  0  0  0  0  0  0  0  0  0  0
    5.8413    1.4722   -3.2621 H   0  0  0  0  0  0  0  0  0  0  0  0
    5.7221    1.4718   -8.3500 H   0  0  0  0  0  0  0  0  0  0  0  0
    8.6087   -0.0444   -7.1028 H   0  0  0  0  0  0  0  0  0  0  0  0
    6.7272   -1.8944   -7.9794 H   0  0  0  0  0  0  0  0  0  0  0  0
    8.8020   -3.3661   -7.2222 H   0  0  0  0  0  0  0  0  0  0  0  0
    8.8885   -3.3791   -4.6128 H   0  0  0  0  0  0  0  0  0  0  0  0
    6.8751   -1.9025   -3.7091 H   0  0  0  0  0  0  0  0  0  0  0  0
    5.2752   -1.3853   -5.7901 H   0  0  0  0  0  0  0  0  0  0  0  0
    5.7932   -3.1164   -5.8105 H   0  0  0  0  0  0  0  0  0  0  0  0
    8.6844   -0.0489   -4.7054 H   0  0  0  0  0  0  0  0  0  0  0  0
    1.1867    6.8525   -4.8617 H   0  0  0  0  0  0  0  0  0  0  0  0
    0.3017    7.3274   -3.3772 H   0  0  0  0  0  0  0  0  0  0  0  0
    2.7176    8.0361   -3.3551 H   0  0  0  0  0  0  0  0  0  0  0  0
    2.3123    6.9293   -1.9870 H   0  0  0  0  0  0  0  0  0  0  0  0
    3.2224    6.3046   -3.4265 H   0  0  0  0  0  0  0  0  0  0  0  0
   -3.8405   -5.6540    4.4041 H   0  0  0  0  0  0  0  0  0  0  0  0
   -4.9497   -6.3054    5.6519 H   0  0  0  0  0  0  0  0  0  0  0  0
   -3.3358   -5.7421    7.4437 H   0  0  0  0  0  0  0  0  0  0  0  0
   -2.2746   -4.8775    6.2559 H   0  0  0  0  0  0  0  0  0  0  0  0
   -2.4868   -6.6655    6.1588 H   0  0  0  0  0  0  0  0  0  0  0  0
   -1.8794    1.0721   -2.7124 H   0  0  0  0  0  0  0  0  0  0  0  0
   -2.4291    0.0842   -1.3649 H   0  0  0  0  0  0  0  0  0  0  0  0
    0.2379   -0.3160   -0.9536 H   0  0  0  0  0  0  0  0  0  0  0  0
    0.3724    0.2249   -2.6486 H   0  0  0  0  0  0  0  0  0  0  0  0
   -0.6308   -1.2046   -2.2713 H   0  0  0  0  0  0  0  0  0  0  0  0
   -1.5233   -1.1530    0.1397 H   0  0  0  0  0  0  0  0  0  0  0  0
   -1.9522   -1.9885    1.5689 H   0  0  0  0  0  0  0  0  0  0  0  0
   -0.5830   -0.4406    2.9943 H   0  0  0  0  0  0  0  0  0  0  0  0
    0.3824   -1.3250    1.7539 H   0  0  0  0  0  0  0  0  0  0  0  0
   -0.0362    0.4112    1.4973 H   0  0  0  0  0  0  0  0  0  0  0  0
   -6.8831   -5.3266    7.4732 H   0  0  0  0  0  0  0  0  0  0  0  0
   -5.1463   -6.7373   12.9442 H   0  0  0  0  0  0  0  0  0  0  0  0
  1  2  2  3
  2  3  1  0
  3  4  2  0
  3  5  1  0
  5  6  2  0
  6  7  1  0
  7  8  2  0
  8  9  1  0
  9 10  2  0
 10 11  1  0
 11 12  2  3
 12 13  1  0
 13 14  3  0
 12 15  1  0
 15 16  3  0
  8 17  1  0
 17 18  1  0
 18 19  1  0
 19 20  2  0
 20 21  1  0
 21 22  1  0
 21 23  1  0
  1 24  1  0
 24 25  2  0
 25 26  1  0
 26 27  1  0
 25 28  1  0
 28 29  1  0
 29 30  1  0
 30 31  1  0
 31 32  1  0
 32 33  1  0
 33 34  2  0
 34 35  1  0
 35 36  1  0
 33 37  1  0
 37 38  1  0
 38 39  1  0
 39 40  1  0
 40 41  1  0
 41 42  1  0
 42 43  1  0
 43 44  2  0
 44 45  1  0
 45 46  1  0
 44 47  1  0
 47 48  1  0
 48 49  1  0
 49 50  1  0
 50 51  1  0
 51 52  1  0
 52 53  1  0
 53 54  1  0
 54 55  1  0
 55 56  1  0
 56 57  1  0
 54 58  1  0
 58 59  1  0
 51 60  1  0
 60 61  1  0
 43 62  1  0
 62 63  2  3
 63 64  1  0
 64 65  2  0
 64 66  1  0
 66 67  1  0
 67 68  2  0
 68 69  1  0
 69 70  1  0
 70 71  1  0
 67 72  1  0
 72 73  2  3
 73 74  1  0
 74 75  3  0
 73 76  1  0
 76 77  3  0
 11  2  1  0
 23 17  1  0
 57 24  1  0
 72 63  1  0
 10  5  1  0
 22 18  1  0
 56 28  2  0
 70 66  2  0
 23  7  1  0
 55 30  2  0
 53 31  2  0
 36 32  2  0
 52 37  2  0
 50 38  2  0
 49 40  2  0
 47 41  2  0
  1 78  1  0
  6 79  1  0
  9 80  1  0
 17 81  1  0
 18 82  1  0
 19 83  1  0
 20 84  1  0
 21 85  1  0
 22 86  1  0
 22 87  1  0
 23 88  1  0
 26 89  1  0
 26 90  1  0
 27 91  1  0
 27 92  1  0
 27 93  1  0
 45 94  1  0
 45 95  1  0
 46 96  1  0
 46 97  1  0
 46 98  1  0
 58 99  1  0
 58100  1  0
 59101  1  0
 59102  1  0
 59103  1  0
 60104  1  0
 60105  1  0
 61106  1  0
 61107  1  0
 61108  1  0
 62109  1  0
 68110  1  0
M  END

