
     RDKit          3D

120136  0  0  0  0  0  0  0  0999 V2000
   -5.4200    2.8022    5.3788 C   0  0  0  0  0  0  0  0  0  0  0  0
   -6.6610    2.3011    5.5503 C   0  0  0  0  0  0  0  0  0  0  0  0
   -7.4257    1.5158    4.5768 C   0  0  0  0  0  0  0  0  0  0  0  0
   -7.3674    1.6198    3.3233 O   0  0  0  0  0  0  0  0  0  0  0  0
   -8.3645    0.6801    5.2937 C   0  0  0  0  0  0  0  0  0  0  0  0
   -9.1707   -0.3512    4.7599 C   0  0  0  0  0  0  0  0  0  0  0  0
   -9.8761   -1.0564    5.7164 C   0  0  0  0  0  0  0  0  0  0  0  0
   -9.7972   -0.7706    7.1179 C   0  0  0  0  0  0  0  0  0  0  0  0
   -9.0198    0.2497    7.6428 C   0  0  0  0  0  0  0  0  0  0  0  0
   -8.3035    1.0027    6.6723 C   0  0  0  0  0  0  0  0  0  0  0  0
   -7.3629    2.1410    6.8597 C   0  0  0  0  0  0  0  0  0  0  0  0
   -7.3303    3.0026    7.9062 C   0  0  0  0  0  0  0  0  0  0  0  0
   -8.1353    2.8162    9.0854 C   0  0  0  0  0  0  0  0  0  0  0  0
   -8.7767    2.6766   10.0411 N   0  0  0  0  0  0  0  0  0  0  0  0
   -6.5992    4.2422    7.8484 C   0  0  0  0  0  0  0  0  0  0  0  0
   -6.0201    5.2431    7.8038 N   0  0  0  0  0  0  0  0  0  0  0  0
  -10.7440   -1.8973    7.4170 C   0  0  0  0  0  0  0  0  0  0  0  0
  -12.2091   -1.5320    7.8053 C   0  0  0  0  0  0  0  0  0  0  0  0
  -12.6121   -0.2378    7.1368 C   0  0  0  0  0  0  0  0  0  0  0  0
  -12.6865   -0.4908    5.8297 C   0  0  0  0  0  0  0  0  0  0  0  0
  -12.3368   -1.9497    5.6522 C   0  0  0  0  0  0  0  0  0  0  0  0
  -12.9658   -2.5025    6.9176 C   0  0  0  0  0  0  0  0  0  0  0  0
  -10.8310   -2.1816    5.9789 C   0  0  0  0  0  0  0  0  0  0  0  0
   -4.5646    2.5635    4.2002 C   0  0  0  0  0  0  0  0  0  0  0  0
   -4.4723    1.0860    3.3459 S   0  0  0  0  0  0  0  0  0  0  0  0
   -3.1559    1.5682    2.4468 C   0  0  0  0  0  0  0  0  0  0  0  0
   -2.1166    0.9191    1.8673 C   0  0  0  0  0  0  0  0  0  0  0  0
   -1.6669   -0.7178    1.8513 S   0  0  0  0  0  0  0  0  0  0  0  0
   -0.0470   -0.2497    1.7056 C   0  0  0  0  0  0  0  0  0  0  0  0
    1.0771   -0.8531    1.2503 C   0  0  0  0  0  0  0  0  0  0  0  0
    1.3698   -2.2123    1.1659 C   0  0  0  0  0  0  0  0  0  0  0  0
    2.6293   -2.6018    0.6602 C   0  0  0  0  0  0  0  0  0  0  0  0
    2.8839   -3.9336    0.6023 N   0  0  0  0  0  0  0  0  0  0  0  0
    1.4674   -4.5222    1.2203 S   0  0  0  0  0  0  0  0  0  0  0  0
    0.5300   -3.2019    1.5646 N   0  0  0  0  0  0  0  0  0  0  0  0
    3.5032   -1.6146    0.2006 C   0  0  0  0  0  0  0  0  0  0  0  0
    4.6244   -1.7779   -0.5518 C   0  0  0  0  0  0  0  0  0  0  0  0
    5.3116   -3.0776   -1.4013 S   0  0  0  0  0  0  0  0  0  0  0  0
    6.0723   -2.0129   -2.4807 C   0  0  0  0  0  0  0  0  0  0  0  0
    6.7493   -2.2202   -3.6815 C   0  0  0  0  0  0  0  0  0  0  0  0
    7.1279   -3.5745   -4.2187 C   0  0  0  0  0  0  0  0  0  0  0  0
    8.4853   -4.0054   -3.6788 C   0  0  0  0  0  0  0  0  0  0  0  0
    6.9724   -1.0010   -4.3414 C   0  0  0  0  0  0  0  0  0  0  0  0
    6.2970    0.2828   -3.4499 S   0  0  0  0  0  0  0  0  0  0  0  0
    5.7539   -0.7050   -2.2011 C   0  0  0  0  0  0  0  0  0  0  0  0
    4.9250   -0.5729   -1.0828 C   0  0  0  0  0  0  0  0  0  0  0  0
    4.0805    0.4114   -0.6676 N   0  0  0  0  0  0  0  0  0  0  0  0
    3.1802   -0.2326    0.1711 C   0  0  0  0  0  0  0  0  0  0  0  0
    1.9381    0.1723    0.8090 C   0  0  0  0  0  0  0  0  0  0  0  0
    1.3397    1.3966    1.0819 N   0  0  0  0  0  0  0  0  0  0  0  0
    0.1562    1.0899    1.6909 C   0  0  0  0  0  0  0  0  0  0  0  0
   -1.0509    1.7949    1.8574 C   0  0  0  0  0  0  0  0  0  0  0  0
   -1.3606    2.9368    2.5615 N   0  0  0  0  0  0  0  0  0  0  0  0
   -2.6835    2.7705    2.8589 C   0  0  0  0  0  0  0  0  0  0  0  0
   -3.4560    3.3605    3.8681 C   0  0  0  0  0  0  0  0  0  0  0  0
   -0.4669    3.7770    3.3751 C   0  0  0  0  0  0  0  0  0  0  0  0
   -0.0301    3.0429    4.6397 C   0  0  0  0  0  0  0  0  0  0  0  0
    1.7681    2.7610    0.7939 C   0  0  0  0  0  0  0  0  0  0  0  0
    2.9083    3.1755    1.7256 C   0  0  0  0  0  0  0  0  0  0  0  0
    4.0395    1.7200   -1.3224 C   0  0  0  0  0  0  0  0  0  0  0  0
    2.9760    1.7469   -2.4186 C   0  0  0  0  0  0  0  0  0  0  0  0
    7.6214   -0.8467   -5.6489 C   0  0  0  0  0  0  0  0  0  0  0  0
    6.9300   -0.7266   -6.7970 C   0  0  0  0  0  0  0  0  0  0  0  0
    5.4791   -0.9077   -6.9423 C   0  0  0  0  0  0  0  0  0  0  0  0
    4.6274   -0.9260   -6.0129 O   0  0  0  0  0  0  0  0  0  0  0  0
    5.1855   -1.1297   -8.3428 C   0  0  0  0  0  0  0  0  0  0  0  0
    3.9614   -1.4647   -8.9214 C   0  0  0  0  0  0  0  0  0  0  0  0
    3.9234   -1.7484  -10.2970 C   0  0  0  0  0  0  0  0  0  0  0  0
    2.7164   -2.1017  -10.9177 C   0  0  0  0  0  0  0  0  0  0  0  0
    2.6916   -2.4122  -12.2806 C   0  0  0  0  0  0  0  0  0  0  0  0
    3.8686   -2.3799  -13.0337 C   0  0  0  0  0  0  0  0  0  0  0  0
    3.8358   -2.6941  -14.3531 F   0  0  0  0  0  0  0  0  0  0  0  0
    5.0803   -2.0286  -12.4302 C   0  0  0  0  0  0  0  0  0  0  0  0
    5.1229   -1.7072  -11.0634 C   0  0  0  0  0  0  0  0  0  0  0  0
    6.3419   -1.3638  -10.4463 C   0  0  0  0  0  0  0  0  0  0  0  0
    6.3550   -1.0510   -9.0788 C   0  0  0  0  0  0  0  0  0  0  0  0
    7.4896   -0.6838   -8.1815 C   0  0  0  0  0  0  0  0  0  0  0  0
    8.6969   -0.1822   -8.5524 C   0  0  0  0  0  0  0  0  0  0  0  0
    9.0871   -0.0365   -9.9300 C   0  0  0  0  0  0  0  0  0  0  0  0
    9.4165    0.0894  -11.0330 N   0  0  0  0  0  0  0  0  0  0  0  0
    9.6154    0.3858   -7.5996 C   0  0  0  0  0  0  0  0  0  0  0  0
   10.3569    0.8511   -6.8420 N   0  0  0  0  0  0  0  0  0  0  0  0
   -4.9352    3.3115    6.1935 H   0  0  0  0  0  0  0  0  0  0  0  0
   -9.2094   -0.5958    3.7059 H   0  0  0  0  0  0  0  0  0  0  0  0
   -8.9537    0.4009    8.7079 H   0  0  0  0  0  0  0  0  0  0  0  0
  -10.2927   -2.7238    8.0101 H   0  0  0  0  0  0  0  0  0  0  0  0
  -12.4418   -1.5912    8.8906 H   0  0  0  0  0  0  0  0  0  0  0  0
  -12.8689    0.6992    7.6204 H   0  0  0  0  0  0  0  0  0  0  0  0
  -13.0155    0.2059    5.0663 H   0  0  0  0  0  0  0  0  0  0  0  0
  -12.6890   -2.4059    4.7047 H   0  0  0  0  0  0  0  0  0  0  0  0
  -14.0724   -2.3722    6.9588 H   0  0  0  0  0  0  0  0  0  0  0  0
  -12.7123   -3.5713    7.1126 H   0  0  0  0  0  0  0  0  0  0  0  0
  -10.4361   -3.1817    5.6977 H   0  0  0  0  0  0  0  0  0  0  0  0
    6.3605   -4.3214   -3.9256 H   0  0  0  0  0  0  0  0  0  0  0  0
    7.1616   -3.5534   -5.3278 H   0  0  0  0  0  0  0  0  0  0  0  0
    8.7567   -4.9910   -4.1120 H   0  0  0  0  0  0  0  0  0  0  0  0
    8.4462   -4.0934   -2.5726 H   0  0  0  0  0  0  0  0  0  0  0  0
    9.2636   -3.2662   -3.9604 H   0  0  0  0  0  0  0  0  0  0  0  0
   -3.1760    4.2517    4.4132 H   0  0  0  0  0  0  0  0  0  0  0  0
    0.4187    4.1054    2.8192 H   0  0  0  0  0  0  0  0  0  0  0  0
   -0.9918    4.7136    3.6641 H   0  0  0  0  0  0  0  0  0  0  0  0
   -0.9154    2.7423    5.2372 H   0  0  0  0  0  0  0  0  0  0  0  0
    0.5531    2.1332    4.3779 H   0  0  0  0  0  0  0  0  0  0  0  0
    0.6052    3.7091    5.2615 H   0  0  0  0  0  0  0  0  0  0  0  0
    0.9233    3.4593    0.9028 H   0  0  0  0  0  0  0  0  0  0  0  0
    1.9814    2.8903   -0.2681 H   0  0  0  0  0  0  0  0  0  0  0  0
    3.7572    2.4643    1.6512 H   0  0  0  0  0  0  0  0  0  0  0  0
    2.5651    3.1767    2.7802 H   0  0  0  0  0  0  0  0  0  0  0  0
    3.2590    4.1946    1.4591 H   0  0  0  0  0  0  0  0  0  0  0  0
    5.0166    1.9449   -1.7895 H   0  0  0  0  0  0  0  0  0  0  0  0
    3.9732    2.5333   -0.5951 H   0  0  0  0  0  0  0  0  0  0  0  0
    1.9875    1.4474   -2.0148 H   0  0  0  0  0  0  0  0  0  0  0  0
    2.9011    2.7707   -2.8428 H   0  0  0  0  0  0  0  0  0  0  0  0
    3.2470    1.0379   -3.2278 H   0  0  0  0  0  0  0  0  0  0  0  0
    8.6927   -0.9632   -5.6659 H   0  0  0  0  0  0  0  0  0  0  0  0
    3.0673   -1.5216   -8.3121 H   0  0  0  0  0  0  0  0  0  0  0  0
    1.7938   -2.1417  -10.3532 H   0  0  0  0  0  0  0  0  0  0  0  0
    1.7569   -2.6890  -12.7529 H   0  0  0  0  0  0  0  0  0  0  0  0
    5.9820   -2.0080  -13.0315 H   0  0  0  0  0  0  0  0  0  0  0  0
    7.2475   -1.3873  -11.0292 H   0  0  0  0  0  0  0  0  0  0  0  0
  1  2  2  3
  2  3  1  0
  3  4  2  0
  3  5  1  0
  5  6  2  0
  6  7  1  0
  7  8  2  0
  8  9  1  0
  9 10  2  0
 10 11  1  0
 11 12  2  3
 12 13  1  0
 13 14  3  0
 12 15  1  0
 15 16  3  0
  8 17  1  0
 17 18  1  0
 18 19  1  0
 19 20  2  0
 20 21  1  0
 21 22  1  0
 21 23  1  0
  1 24  1  0
 24 25  1  0
 25 26  1  0
 26 27  1  0
 27 28  1  0
 28 29  1  0
 29 30  1  0
 30 31  1  0
 31 32  1  0
 32 33  2  0
 33 34  1  0
 34 35  1  0
 32 36  1  0
 36 37  1  0
 37 38  1  0
 38 39  1  0
 39 40  1  0
 40 41  1  0
 41 42  1  0
 40 43  2  0
 43 44  1  0
 44 45  1  0
 45 46  1  0
 46 47  1  0
 47 48  1  0
 48 49  1  0
 49 50  1  0
 50 51  1  0
 51 52  1  0
 52 53  1  0
 53 54  1  0
 54 55  1  0
 53 56  1  0
 56 57  1  0
 50 58  1  0
 58 59  1  0
 47 60  1  0
 60 61  1  0
 43 62  1  0
 62 63  2  3
 63 64  1  0
 64 65  2  0
 64 66  1  0
 66 67  2  0
 67 68  1  0
 68 69  2  0
 69 70  1  0
 70 71  2  0
 71 72  1  0
 71 73  1  0
 73 74  2  0
 74 75  1  0
 75 76  2  0
 76 77  1  0
 77 78  2  3
 78 79  1  0
 79 80  3  0
 78 81  1  0
 81 82  3  0
 11  2  1  0
 23 17  1  0
 55 24  2  0
 77 63  1  0
 10  5  1  0
 22 18  1  0
 54 26  2  0
 76 66  1  0
 23  7  1  0
 52 27  2  0
 74 68  1  0
 51 29  2  0
 49 30  2  0
 35 31  2  0
 48 36  2  0
 46 37  2  0
 45 39  2  0
  1 83  1  0
  6 84  1  0
  9 85  1  0
 17 86  1  0
 18 87  1  0
 19 88  1  0
 20 89  1  0
 21 90  1  0
 22 91  1  0
 22 92  1  0
 23 93  1  0
 41 94  1  0
 41 95  1  0
 42 96  1  0
 42 97  1  0
 42 98  1  0
 55 99  1  0
 56100  1  0
 56101  1  0
 57102  1  0
 57103  1  0
 57104  1  0
 58105  1  0
 58106  1  0
 59107  1  0
 59108  1  0
 59109  1  0
 60110  1  0
 60111  1  0
 61112  1  0
 61113  1  0
 61114  1  0
 62115  1  0
 67116  1  0
 69117  1  0
 70118  1  0
 73119  1  0
 75120  1  0
M  END

