
     RDKit          3D

149164  0  0  0  0  0  0  0  0999 V2000
   -2.9745    1.5270    4.4971 C   0  0  0  0  0  0  0  0  0  0  0  0
   -4.2532    1.1598    4.2836 C   0  0  0  0  0  0  0  0  0  0  0  0
   -4.8227    0.7441    2.9956 C   0  0  0  0  0  0  0  0  0  0  0  0
   -4.1956    0.2306    2.0305 O   0  0  0  0  0  0  0  0  0  0  0  0
   -6.2501    0.9753    3.0277 C   0  0  0  0  0  0  0  0  0  0  0  0
   -7.1435    0.9240    1.9344 C   0  0  0  0  0  0  0  0  0  0  0  0
   -8.4121    1.3885    2.2282 C   0  0  0  0  0  0  0  0  0  0  0  0
   -8.7808    1.8928    3.5183 C   0  0  0  0  0  0  0  0  0  0  0  0
   -7.9085    1.9334    4.5963 C   0  0  0  0  0  0  0  0  0  0  0  0
   -6.6097    1.4251    4.3217 C   0  0  0  0  0  0  0  0  0  0  0  0
   -5.4077    1.3990    5.1967 C   0  0  0  0  0  0  0  0  0  0  0  0
   -5.3972    1.3418    6.5510 C   0  0  0  0  0  0  0  0  0  0  0  0
   -6.6071    1.3988    7.3298 C   0  0  0  0  0  0  0  0  0  0  0  0
   -7.5761    1.4315    7.9619 N   0  0  0  0  0  0  0  0  0  0  0  0
   -4.1992    1.0456    7.2925 C   0  0  0  0  0  0  0  0  0  0  0  0
   -3.2424    0.7992    7.8951 N   0  0  0  0  0  0  0  0  0  0  0  0
  -10.1419    2.2562    3.0030 C   0  0  0  0  0  0  0  0  0  0  0  0
  -10.3939    3.7658    2.7182 C   0  0  0  0  0  0  0  0  0  0  0  0
  -11.6408    3.8230    1.8697 C   0  0  0  0  0  0  0  0  0  0  0  0
  -11.3102    3.3279    0.6712 C   0  0  0  0  0  0  0  0  0  0  0  0
   -9.8512    2.9580    0.7516 C   0  0  0  0  0  0  0  0  0  0  0  0
   -9.3715    4.0940    1.6392 C   0  0  0  0  0  0  0  0  0  0  0  0
   -9.7700    1.7186    1.6883 C   0  0  0  0  0  0  0  0  0  0  0  0
   -2.0000    1.6669    3.4067 C   0  0  0  0  0  0  0  0  0  0  0  0
   -2.2471    2.3412    2.2013 C   0  0  0  0  0  0  0  0  0  0  0  0
   -1.1641    2.2418    1.3418 C   0  0  0  0  0  0  0  0  0  0  0  0
   -0.9854    2.5491   -0.1264 C   0  0  0  0  0  0  0  0  0  0  0  0
   -0.9132    4.0497   -0.4228 C   0  0  0  0  0  0  0  0  0  0  0  0
   -1.0435    4.5208   -1.7448 C   0  0  0  0  0  0  0  0  0  0  0  0
   -0.9164    5.8815   -2.0345 C   0  0  0  0  0  0  0  0  0  0  0  0
   -0.6380    6.8048   -1.0148 C   0  0  0  0  0  0  0  0  0  0  0  0
   -0.4732    8.1750   -1.2559 O   0  0  0  0  0  0  0  0  0  0  0  0
   -0.5709    8.7972   -2.5319 C   0  0  0  0  0  0  0  0  0  0  0  0
   -0.2356   10.2717   -2.3922 C   0  0  0  0  0  0  0  0  0  0  0  0
   -0.4839    6.3420    0.2946 C   0  0  0  0  0  0  0  0  0  0  0  0
   -0.6014    4.9830    0.5887 C   0  0  0  0  0  0  0  0  0  0  0  0
   -2.1014    1.8184   -0.8894 C   0  0  0  0  0  0  0  0  0  0  0  0
   -3.4013    2.3699   -0.9236 C   0  0  0  0  0  0  0  0  0  0  0  0
   -4.4655    1.6689   -1.4970 C   0  0  0  0  0  0  0  0  0  0  0  0
   -4.2680    0.3927   -2.0339 C   0  0  0  0  0  0  0  0  0  0  0  0
   -5.3809   -0.2747   -2.5752 O   0  0  0  0  0  0  0  0  0  0  0  0
   -5.3520   -1.5409   -3.2349 C   0  0  0  0  0  0  0  0  0  0  0  0
   -4.8836   -1.3789   -4.6759 C   0  0  0  0  0  0  0  0  0  0  0  0
   -2.9807   -0.1672   -2.0108 C   0  0  0  0  0  0  0  0  0  0  0  0
   -1.9193    0.5301   -1.4319 C   0  0  0  0  0  0  0  0  0  0  0  0
    0.3947    1.9342   -0.3261 C   0  0  0  0  0  0  0  0  0  0  0  0
    0.8844    1.3637    0.8552 C   0  0  0  0  0  0  0  0  0  0  0  0
   -0.1039    1.5845    1.8686 C   0  0  0  0  0  0  0  0  0  0  0  0
   -0.4319    1.0063    3.4096 S   0  0  0  0  0  0  0  0  0  0  0  0
    2.0482    0.5980    0.8951 C   0  0  0  0  0  0  0  0  0  0  0  0
    2.7134    0.4072   -0.3234 C   0  0  0  0  0  0  0  0  0  0  0  0
    3.9137   -0.4790   -0.5898 C   0  0  0  0  0  0  0  0  0  0  0  0
    5.1226    0.2707   -0.0036 C   0  0  0  0  0  0  0  0  0  0  0  0
    5.4959    0.0622    1.3412 C   0  0  0  0  0  0  0  0  0  0  0  0
    6.4343    0.8891    1.9639 C   0  0  0  0  0  0  0  0  0  0  0  0
    6.9731    1.9875    1.2888 C   0  0  0  0  0  0  0  0  0  0  0  0
    7.8430    2.8372    1.9914 O   0  0  0  0  0  0  0  0  0  0  0  0
    8.0601    4.2151    1.6817 C   0  0  0  0  0  0  0  0  0  0  0  0
    6.7880    5.0274    1.9222 C   0  0  0  0  0  0  0  0  0  0  0  0
    6.6270    2.2019   -0.0547 C   0  0  0  0  0  0  0  0  0  0  0  0
    5.7135    1.3559   -0.6886 C   0  0  0  0  0  0  0  0  0  0  0  0
    3.7718   -1.9213   -0.0790 C   0  0  0  0  0  0  0  0  0  0  0  0
    4.9150   -2.7321    0.0363 C   0  0  0  0  0  0  0  0  0  0  0  0
    4.8251   -4.0513    0.4853 C   0  0  0  0  0  0  0  0  0  0  0  0
    3.5761   -4.6028    0.8148 C   0  0  0  0  0  0  0  0  0  0  0  0
    3.4268   -5.9169    1.2995 O   0  0  0  0  0  0  0  0  0  0  0  0
    4.4966   -6.8151    1.5953 C   0  0  0  0  0  0  0  0  0  0  0  0
    4.9765   -7.5090    0.3275 C   0  0  0  0  0  0  0  0  0  0  0  0
    2.4286   -3.8217    0.6543 C   0  0  0  0  0  0  0  0  0  0  0  0
    2.5181   -2.5043    0.2000 C   0  0  0  0  0  0  0  0  0  0  0  0
    3.8784   -0.4660   -2.1101 C   0  0  0  0  0  0  0  0  0  0  0  0
    3.0402    0.5089   -2.5965 C   0  0  0  0  0  0  0  0  0  0  0  0
    2.2613    1.0177   -1.4952 C   0  0  0  0  0  0  0  0  0  0  0  0
    1.0912    1.7792   -1.5346 C   0  0  0  0  0  0  0  0  0  0  0  0
    2.5251    0.1197   -4.1465 S   0  0  0  0  0  0  0  0  0  0  0  0
    3.3635   -1.3434   -4.1973 C   0  0  0  0  0  0  0  0  0  0  0  0
    4.0643   -1.5301   -3.0028 C   0  0  0  0  0  0  0  0  0  0  0  0
    3.1335   -2.4025   -5.1884 C   0  0  0  0  0  0  0  0  0  0  0  0
    2.5792   -3.5819   -4.8545 C   0  0  0  0  0  0  0  0  0  0  0  0
    2.9666   -4.8406   -5.4893 C   0  0  0  0  0  0  0  0  0  0  0  0
    3.4947   -4.9661   -6.6284 O   0  0  0  0  0  0  0  0  0  0  0  0
    2.7575   -5.9093   -4.5334 C   0  0  0  0  0  0  0  0  0  0  0  0
    3.1303   -7.2505   -4.6306 C   0  0  0  0  0  0  0  0  0  0  0  0
    2.9380   -8.0762   -3.5149 C   0  0  0  0  0  0  0  0  0  0  0  0
    3.4041   -9.7639   -3.5877 Cl  0  0  0  0  0  0  0  0  0  0  0  0
    2.3857   -7.5546   -2.3283 C   0  0  0  0  0  0  0  0  0  0  0  0
    2.0225   -6.2025   -2.2522 C   0  0  0  0  0  0  0  0  0  0  0  0
    2.1982   -5.3903   -3.3782 C   0  0  0  0  0  0  0  0  0  0  0  0
    1.9022   -3.9476   -3.5755 C   0  0  0  0  0  0  0  0  0  0  0  0
    0.8584   -3.2820   -3.0200 C   0  0  0  0  0  0  0  0  0  0  0  0
    0.0978   -3.8214   -1.9249 C   0  0  0  0  0  0  0  0  0  0  0  0
   -0.5333   -4.2530   -1.0570 N   0  0  0  0  0  0  0  0  0  0  0  0
    0.2514   -2.1480   -3.6666 C   0  0  0  0  0  0  0  0  0  0  0  0
   -0.2603   -1.2480   -4.1804 N   0  0  0  0  0  0  0  0  0  0  0  0
   -2.6486    1.8647    5.4647 H   0  0  0  0  0  0  0  0  0  0  0  0
   -6.8454    0.6162    0.9366 H   0  0  0  0  0  0  0  0  0  0  0  0
   -8.2028    2.3878    5.5296 H   0  0  0  0  0  0  0  0  0  0  0  0
  -10.9697    1.7123    3.5076 H   0  0  0  0  0  0  0  0  0  0  0  0
  -10.3913    4.4318    3.6052 H   0  0  0  0  0  0  0  0  0  0  0  0
  -12.5905    4.2825    2.1254 H   0  0  0  0  0  0  0  0  0  0  0  0
  -11.9457    3.3172   -0.2074 H   0  0  0  0  0  0  0  0  0  0  0  0
   -9.3316    2.8561   -0.2263 H   0  0  0  0  0  0  0  0  0  0  0  0
   -9.5190    5.1015    1.1830 H   0  0  0  0  0  0  0  0  0  0  0  0
   -8.3141    4.0059    1.9723 H   0  0  0  0  0  0  0  0  0  0  0  0
  -10.3521    0.8275    1.3638 H   0  0  0  0  0  0  0  0  0  0  0  0
   -3.1812    2.8271    1.9504 H   0  0  0  0  0  0  0  0  0  0  0  0
   -1.2384    3.8292   -2.5549 H   0  0  0  0  0  0  0  0  0  0  0  0
   -1.0313    6.2074   -3.0627 H   0  0  0  0  0  0  0  0  0  0  0  0
    0.1602    8.3279   -3.2257 H   0  0  0  0  0  0  0  0  0  0  0  0
   -1.6052    8.6821   -2.9354 H   0  0  0  0  0  0  0  0  0  0  0  0
   -0.2398   10.7550   -3.3864 H   0  0  0  0  0  0  0  0  0  0  0  0
    0.7692   10.3867   -1.9383 H   0  0  0  0  0  0  0  0  0  0  0  0
   -0.9835   10.7672   -1.7429 H   0  0  0  0  0  0  0  0  0  0  0  0
   -0.2532    7.0421    1.0883 H   0  0  0  0  0  0  0  0  0  0  0  0
   -0.4448    4.6778    1.6144 H   0  0  0  0  0  0  0  0  0  0  0  0
   -3.5957    3.3369   -0.4809 H   0  0  0  0  0  0  0  0  0  0  0  0
   -5.4547    2.1070   -1.4932 H   0  0  0  0  0  0  0  0  0  0  0  0
   -4.7097   -2.2622   -2.6930 H   0  0  0  0  0  0  0  0  0  0  0  0
   -6.3758   -1.9602   -3.2407 H   0  0  0  0  0  0  0  0  0  0  0  0
   -4.9053   -2.3644   -5.1921 H   0  0  0  0  0  0  0  0  0  0  0  0
   -5.5569   -0.6783   -5.2166 H   0  0  0  0  0  0  0  0  0  0  0  0
   -3.8466   -0.9832   -4.7098 H   0  0  0  0  0  0  0  0  0  0  0  0
   -2.7892   -1.1528   -2.4061 H   0  0  0  0  0  0  0  0  0  0  0  0
   -0.9608    0.0297   -1.3919 H   0  0  0  0  0  0  0  0  0  0  0  0
    2.3796    0.1183    1.8057 H   0  0  0  0  0  0  0  0  0  0  0  0
    5.0430   -0.7245    1.9339 H   0  0  0  0  0  0  0  0  0  0  0  0
    6.7054    0.7138    2.9980 H   0  0  0  0  0  0  0  0  0  0  0  0
    8.8510    4.5991    2.3626 H   0  0  0  0  0  0  0  0  0  0  0  0
    8.4174    4.3459    0.6427 H   0  0  0  0  0  0  0  0  0  0  0  0
    6.3729    4.7930    2.9198 H   0  0  0  0  0  0  0  0  0  0  0  0
    6.0299    4.7981    1.1471 H   0  0  0  0  0  0  0  0  0  0  0  0
    7.0195    6.1136    1.8817 H   0  0  0  0  0  0  0  0  0  0  0  0
    7.0288    3.0397   -0.6100 H   0  0  0  0  0  0  0  0  0  0  0  0
    5.4364    1.5904   -1.7105 H   0  0  0  0  0  0  0  0  0  0  0  0
    5.8903   -2.3429   -0.2280 H   0  0  0  0  0  0  0  0  0  0  0  0
    5.7336   -4.6246    0.5720 H   0  0  0  0  0  0  0  0  0  0  0  0
    5.3380   -6.2864    2.1008 H   0  0  0  0  0  0  0  0  0  0  0  0
    4.1177   -7.5927    2.2883 H   0  0  0  0  0  0  0  0  0  0  0  0
    5.8397   -8.1649    0.5592 H   0  0  0  0  0  0  0  0  0  0  0  0
    4.1647   -8.1456   -0.0826 H   0  0  0  0  0  0  0  0  0  0  0  0
    5.2798   -6.7702   -0.4469 H   0  0  0  0  0  0  0  0  0  0  0  0
    1.4623   -4.2383    0.9068 H   0  0  0  0  0  0  0  0  0  0  0  0
    1.5990   -1.9452    0.0676 H   0  0  0  0  0  0  0  0  0  0  0  0
    0.7001    2.1607   -2.4663 H   0  0  0  0  0  0  0  0  0  0  0  0
    4.5449   -2.4595   -2.7403 H   0  0  0  0  0  0  0  0  0  0  0  0
    3.6543   -2.3069   -6.1303 H   0  0  0  0  0  0  0  0  0  0  0  0
    3.5720   -7.6371   -5.5430 H   0  0  0  0  0  0  0  0  0  0  0  0
    2.2519   -8.1924   -1.4630 H   0  0  0  0  0  0  0  0  0  0  0  0
    1.6483   -5.8097   -1.3186 H   0  0  0  0  0  0  0  0  0  0  0  0
  1  2  2  3
  2  3  1  0
  3  4  2  0
  3  5  1  0
  5  6  2  0
  6  7  1  0
  7  8  2  0
  8  9  1  0
  9 10  2  0
 10 11  1  0
 11 12  2  3
 12 13  1  0
 13 14  3  0
 12 15  1  0
 15 16  3  0
  8 17  1  0
 17 18  1  0
 18 19  1  0
 19 20  2  0
 20 21  1  0
 21 22  1  0
 21 23  1  0
  1 24  1  0
 24 25  2  0
 25 26  1  0
 26 27  1  0
 27 28  1  0
 28 29  2  0
 29 30  1  0
 30 31  2  0
 31 32  1  0
 32 33  1  0
 33 34  1  0
 31 35  1  0
 35 36  2  0
 27 37  1  0
 37 38  2  0
 38 39  1  0
 39 40  2  0
 40 41  1  0
 41 42  1  0
 42 43  1  0
 40 44  1  0
 44 45  2  0
 27 46  1  0
 46 47  2  0
 47 48  1  0
 48 49  1  0
 47 50  1  0
 50 51  2  0
 51 52  1  0
 52 53  1  0
 53 54  2  0
 54 55  1  0
 55 56  2  0
 56 57  1  0
 57 58  1  0
 58 59  1  0
 56 60  1  0
 60 61  2  0
 52 62  1  0
 62 63  2  0
 63 64  1  0
 64 65  2  0
 65 66  1  0
 66 67  1  0
 67 68  1  0
 65 69  1  0
 69 70  2  0
 52 71  1  0
 71 72  2  0
 72 73  1  0
 73 74  2  0
 72 75  1  0
 75 76  1  0
 76 77  2  0
 76 78  1  0
 78 79  2  3
 79 80  1  0
 80 81  2  0
 80 82  1  0
 82 83  2  0
 83 84  1  0
 84 85  1  0
 84 86  2  0
 86 87  1  0
 87 88  2  0
 88 89  1  0
 89 90  2  3
 90 91  1  0
 91 92  3  0
 90 93  1  0
 93 94  3  0
 11  2  1  0
 23 17  1  0
 49 24  1  0
 73 51  1  0
 89 79  1  0
 10  5  1  0
 22 18  1  0
 48 26  2  0
 61 53  1  0
 70 62  1  0
 77 71  1  0
 88 82  1  0
 23  7  1  0
 36 28  1  0
 45 37  1  0
 74 46  1  0
  1 95  1  0
  6 96  1  0
  9 97  1  0
 17 98  1  0
 18 99  1  0
 19100  1  0
 20101  1  0
 21102  1  0
 22103  1  0
 22104  1  0
 23105  1  0
 25106  1  0
 29107  1  0
 30108  1  0
 33109  1  0
 33110  1  0
 34111  1  0
 34112  1  0
 34113  1  0
 35114  1  0
 36115  1  0
 38116  1  0
 39117  1  0
 42118  1  0
 42119  1  0
 43120  1  0
 43121  1  0
 43122  1  0
 44123  1  0
 45124  1  0
 50125  1  0
 54126  1  0
 55127  1  0
 58128  1  0
 58129  1  0
 59130  1  0
 59131  1  0
 59132  1  0
 60133  1  0
 61134  1  0
 63135  1  0
 64136  1  0
 67137  1  0
 67138  1  0
 68139  1  0
 68140  1  0
 68141  1  0
 69142  1  0
 70143  1  0
 74144  1  0
 77145  1  0
 78146  1  0
 83147  1  0
 86148  1  0
 87149  1  0
M  END

