
     RDKit          3D

126144  0  0  0  0  0  0  0  0999 V2000
   -4.6466   -4.3413    2.2708 C   0  0  0  0  0  0  0  0  0  0  0  0
   -4.1126   -4.8806    3.3854 C   0  0  0  0  0  0  0  0  0  0  0  0
   -2.6894   -5.1836    3.5871 C   0  0  0  0  0  0  0  0  0  0  0  0
   -1.7235   -4.6960    2.9415 O   0  0  0  0  0  0  0  0  0  0  0  0
   -2.5724   -6.1501    4.6570 C   0  0  0  0  0  0  0  0  0  0  0  0
   -1.4061   -6.8481    5.0521 C   0  0  0  0  0  0  0  0  0  0  0  0
   -1.6301   -7.8177    6.0116 C   0  0  0  0  0  0  0  0  0  0  0  0
   -2.9253   -8.0896    6.5601 C   0  0  0  0  0  0  0  0  0  0  0  0
   -4.0711   -7.4092    6.1825 C   0  0  0  0  0  0  0  0  0  0  0  0
   -3.8615   -6.3987    5.1995 C   0  0  0  0  0  0  0  0  0  0  0  0
   -4.8559   -5.5209    4.5162 C   0  0  0  0  0  0  0  0  0  0  0  0
   -6.1076   -5.2180    4.9482 C   0  0  0  0  0  0  0  0  0  0  0  0
   -6.6981   -5.8193    6.1129 C   0  0  0  0  0  0  0  0  0  0  0  0
   -7.1990   -6.2828    7.0503 N   0  0  0  0  0  0  0  0  0  0  0  0
   -6.8936   -4.1680    4.3533 C   0  0  0  0  0  0  0  0  0  0  0  0
   -7.5307   -3.3188    3.8898 N   0  0  0  0  0  0  0  0  0  0  0  0
   -2.3548   -9.1876    7.4072 C   0  0  0  0  0  0  0  0  0  0  0  0
   -2.1777   -8.8869    8.9237 C   0  0  0  0  0  0  0  0  0  0  0  0
   -1.2500   -9.9563    9.4498 C   0  0  0  0  0  0  0  0  0  0  0  0
   -0.0415   -9.6993    8.9351 C   0  0  0  0  0  0  0  0  0  0  0  0
   -0.1933   -8.4645    8.0808 C   0  0  0  0  0  0  0  0  0  0  0  0
   -1.2067   -7.7168    8.9291 C   0  0  0  0  0  0  0  0  0  0  0  0
   -1.0280   -8.9094    6.8445 C   0  0  0  0  0  0  0  0  0  0  0  0
   -3.8552   -3.9114    1.1065 C   0  0  0  0  0  0  0  0  0  0  0  0
   -3.1367   -4.7526    0.2292 C   0  0  0  0  0  0  0  0  0  0  0  0
   -3.0920   -6.2565    0.3040 C   0  0  0  0  0  0  0  0  0  0  0  0
   -4.2124   -6.8661   -0.5300 C   0  0  0  0  0  0  0  0  0  0  0  0
   -2.6484   -4.0253   -0.8575 C   0  0  0  0  0  0  0  0  0  0  0  0
   -1.7411   -4.4599   -2.2335 S   0  0  0  0  0  0  0  0  0  0  0  0
   -1.8602   -2.8755   -2.8300 C   0  0  0  0  0  0  0  0  0  0  0  0
   -1.3346   -2.1155   -3.8293 C   0  0  0  0  0  0  0  0  0  0  0  0
   -0.3278   -2.4202   -4.7529 C   0  0  0  0  0  0  0  0  0  0  0  0
    0.2226   -1.3663   -5.5327 C   0  0  0  0  0  0  0  0  0  0  0  0
    1.2297   -1.6875   -6.3826 N   0  0  0  0  0  0  0  0  0  0  0  0
    1.3654   -3.3040   -6.0562 S   0  0  0  0  0  0  0  0  0  0  0  0
    0.2249   -3.6471   -4.9023 N   0  0  0  0  0  0  0  0  0  0  0  0
   -0.3175   -0.0861   -5.4011 C   0  0  0  0  0  0  0  0  0  0  0  0
    0.0174    1.0880   -6.0116 C   0  0  0  0  0  0  0  0  0  0  0  0
    1.4401    1.7452   -6.6613 S   0  0  0  0  0  0  0  0  0  0  0  0
    0.8503    3.3249   -6.4076 C   0  0  0  0  0  0  0  0  0  0  0  0
    1.4968    4.5412   -6.2698 C   0  0  0  0  0  0  0  0  0  0  0  0
    3.1158    4.9738   -6.2816 S   0  0  0  0  0  0  0  0  0  0  0  0
    2.8592    6.4280   -5.4313 C   0  0  0  0  0  0  0  0  0  0  0  0
    1.4956    6.5616   -5.1055 C   0  0  0  0  0  0  0  0  0  0  0  0
    0.9297    7.6382   -4.2149 C   0  0  0  0  0  0  0  0  0  0  0  0
    0.9226    8.9870   -4.9290 C   0  0  0  0  0  0  0  0  0  0  0  0
    0.7631    5.4735   -5.5794 C   0  0  0  0  0  0  0  0  0  0  0  0
   -0.7148    4.8133   -5.0594 S   0  0  0  0  0  0  0  0  0  0  0  0
   -0.3933    3.3204   -5.8007 C   0  0  0  0  0  0  0  0  0  0  0  0
   -0.8442    2.0311   -5.5585 C   0  0  0  0  0  0  0  0  0  0  0  0
   -1.7349    1.5409   -4.6613 N   0  0  0  0  0  0  0  0  0  0  0  0
   -1.3663    0.2202   -4.5126 C   0  0  0  0  0  0  0  0  0  0  0  0
   -1.8144   -0.8064   -3.6199 C   0  0  0  0  0  0  0  0  0  0  0  0
   -2.5206   -0.7504   -2.4322 N   0  0  0  0  0  0  0  0  0  0  0  0
   -2.5444   -2.0437   -2.0140 C   0  0  0  0  0  0  0  0  0  0  0  0
   -2.9843   -2.6940   -0.8678 C   0  0  0  0  0  0  0  0  0  0  0  0
   -3.9121   -2.3276    0.4808 S   0  0  0  0  0  0  0  0  0  0  0  0
   -2.8080    0.3945   -1.5569 C   0  0  0  0  0  0  0  0  0  0  0  0
   -1.5307    1.1545   -1.1932 C   0  0  0  0  0  0  0  0  0  0  0  0
   -2.9637    2.2519   -4.2861 C   0  0  0  0  0  0  0  0  0  0  0  0
   -4.2149    1.4493   -4.6463 C   0  0  0  0  0  0  0  0  0  0  0  0
    3.9436    7.1695   -4.7714 C   0  0  0  0  0  0  0  0  0  0  0  0
    4.3770    6.8487   -3.5361 C   0  0  0  0  0  0  0  0  0  0  0  0
    3.7842    5.8147   -2.6740 C   0  0  0  0  0  0  0  0  0  0  0  0
    3.0265    4.8762   -3.0404 O   0  0  0  0  0  0  0  0  0  0  0  0
    4.1861    6.0592   -1.3100 C   0  0  0  0  0  0  0  0  0  0  0  0
    3.7157    5.3908   -0.1559 C   0  0  0  0  0  0  0  0  0  0  0  0
    4.1861    5.9243    1.0283 C   0  0  0  0  0  0  0  0  0  0  0  0
    5.0712    7.0473    1.0834 C   0  0  0  0  0  0  0  0  0  0  0  0
    5.5345    7.7066   -0.0453 C   0  0  0  0  0  0  0  0  0  0  0  0
    5.0733    7.1640   -1.2797 C   0  0  0  0  0  0  0  0  0  0  0  0
    5.3215    7.6284   -2.6769 C   0  0  0  0  0  0  0  0  0  0  0  0
    6.3360    8.4258   -3.1012 C   0  0  0  0  0  0  0  0  0  0  0  0
    6.6248    8.6301   -4.4972 C   0  0  0  0  0  0  0  0  0  0  0  0
    6.8703    8.8010   -5.6162 N   0  0  0  0  0  0  0  0  0  0  0  0
    7.2855    9.0225   -2.1987 C   0  0  0  0  0  0  0  0  0  0  0  0
    8.0591    9.5063   -1.4861 N   0  0  0  0  0  0  0  0  0  0  0  0
    5.0729    6.9938    2.5823 C   0  0  0  0  0  0  0  0  0  0  0  0
    6.3470    6.4104    3.2613 C   0  0  0  0  0  0  0  0  0  0  0  0
    5.9512    6.1016    4.6866 C   0  0  0  0  0  0  0  0  0  0  0  0
    5.1192    5.0548    4.6305 C   0  0  0  0  0  0  0  0  0  0  0  0
    4.9827    4.6927    3.1714 C   0  0  0  0  0  0  0  0  0  0  0  0
    6.4034    4.9896    2.7235 C   0  0  0  0  0  0  0  0  0  0  0  0
    4.1627    5.8452    2.5248 C   0  0  0  0  0  0  0  0  0  0  0  0
   -5.7122   -4.2465    2.1576 H   0  0  0  0  0  0  0  0  0  0  0  0
   -0.4331   -6.6719    4.6140 H   0  0  0  0  0  0  0  0  0  0  0  0
   -5.0337   -7.6899    6.5790 H   0  0  0  0  0  0  0  0  0  0  0  0
   -2.7561  -10.1955    7.1593 H   0  0  0  0  0  0  0  0  0  0  0  0
   -3.1169   -8.7442    9.5001 H   0  0  0  0  0  0  0  0  0  0  0  0
   -1.4795  -10.7297   10.1734 H   0  0  0  0  0  0  0  0  0  0  0  0
    0.8766  -10.2264    9.1726 H   0  0  0  0  0  0  0  0  0  0  0  0
    0.7482   -7.9213    7.8598 H   0  0  0  0  0  0  0  0  0  0  0  0
   -1.6037   -6.7904    8.4570 H   0  0  0  0  0  0  0  0  0  0  0  0
   -0.8284   -7.4640    9.9496 H   0  0  0  0  0  0  0  0  0  0  0  0
   -0.5965   -9.7422    6.2441 H   0  0  0  0  0  0  0  0  0  0  0  0
   -3.1865   -6.6069    1.3525 H   0  0  0  0  0  0  0  0  0  0  0  0
   -2.1103   -6.6159   -0.0810 H   0  0  0  0  0  0  0  0  0  0  0  0
   -5.1963   -6.4663   -0.2142 H   0  0  0  0  0  0  0  0  0  0  0  0
   -4.0518   -6.6416   -1.6033 H   0  0  0  0  0  0  0  0  0  0  0  0
   -4.2121   -7.9673   -0.3964 H   0  0  0  0  0  0  0  0  0  0  0  0
    1.5335    7.7165   -3.2854 H   0  0  0  0  0  0  0  0  0  0  0  0
   -0.1109    7.3905   -3.9198 H   0  0  0  0  0  0  0  0  0  0  0  0
    0.4810    9.7610   -4.2638 H   0  0  0  0  0  0  0  0  0  0  0  0
    0.3171    8.9269   -5.8574 H   0  0  0  0  0  0  0  0  0  0  0  0
    1.9575    9.2969   -5.1869 H   0  0  0  0  0  0  0  0  0  0  0  0
   -3.5901    1.0352   -1.9866 H   0  0  0  0  0  0  0  0  0  0  0  0
   -3.2554    0.0518   -0.6072 H   0  0  0  0  0  0  0  0  0  0  0  0
   -0.8169    0.4721   -0.6838 H   0  0  0  0  0  0  0  0  0  0  0  0
   -1.7793    1.9877   -0.5042 H   0  0  0  0  0  0  0  0  0  0  0  0
   -1.0365    1.5764   -2.0908 H   0  0  0  0  0  0  0  0  0  0  0  0
   -3.0389    3.1997   -4.8607 H   0  0  0  0  0  0  0  0  0  0  0  0
   -2.9285    2.5770   -3.2337 H   0  0  0  0  0  0  0  0  0  0  0  0
   -4.2556    1.2934   -5.7459 H   0  0  0  0  0  0  0  0  0  0  0  0
   -4.2304    0.4615   -4.1500 H   0  0  0  0  0  0  0  0  0  0  0  0
   -5.1179    2.0153   -4.3335 H   0  0  0  0  0  0  0  0  0  0  0  0
    4.2948    8.0550   -5.2770 H   0  0  0  0  0  0  0  0  0  0  0  0
    3.0260    4.5556   -0.1924 H   0  0  0  0  0  0  0  0  0  0  0  0
    6.1525    8.5826    0.0502 H   0  0  0  0  0  0  0  0  0  0  0  0
    4.6414    7.9003    3.0639 H   0  0  0  0  0  0  0  0  0  0  0  0
    7.2747    7.0118    3.1470 H   0  0  0  0  0  0  0  0  0  0  0  0
    6.3324    6.5622    5.5918 H   0  0  0  0  0  0  0  0  0  0  0  0
    4.7090    4.5237    5.4828 H   0  0  0  0  0  0  0  0  0  0  0  0
    4.6131    3.6653    2.9708 H   0  0  0  0  0  0  0  0  0  0  0  0
    6.5606    4.9252    1.6232 H   0  0  0  0  0  0  0  0  0  0  0  0
    7.1696    4.3538    3.2333 H   0  0  0  0  0  0  0  0  0  0  0  0
    3.1556    6.0298    2.9656 H   0  0  0  0  0  0  0  0  0  0  0  0
  1  2  2  3
  2  3  1  0
  3  4  2  0
  3  5  1  0
  5  6  2  0
  6  7  1  0
  7  8  2  0
  8  9  1  0
  9 10  2  0
 10 11  1  0
 11 12  2  3
 12 13  1  0
 13 14  3  0
 12 15  1  0
 15 16  3  0
  8 17  1  0
 17 18  1  0
 18 19  1  0
 19 20  2  0
 20 21  1  0
 21 22  1  0
 21 23  1  0
  1 24  1  0
 24 25  2  0
 25 26  1  0
 26 27  1  0
 25 28  1  0
 28 29  1  0
 29 30  1  0
 30 31  1  0
 31 32  1  0
 32 33  1  0
 33 34  2  0
 34 35  1  0
 35 36  1  0
 33 37  1  0
 37 38  1  0
 38 39  1  0
 39 40  1  0
 40 41  1  0
 41 42  1  0
 42 43  1  0
 43 44  2  0
 44 45  1  0
 45 46  1  0
 44 47  1  0
 47 48  1  0
 48 49  1  0
 49 50  1  0
 50 51  1  0
 51 52  1  0
 52 53  1  0
 53 54  1  0
 54 55  1  0
 55 56  1  0
 56 57  1  0
 54 58  1  0
 58 59  1  0
 51 60  1  0
 60 61  1  0
 43 62  1  0
 62 63  2  3
 63 64  1  0
 64 65  2  0
 64 66  1  0
 66 67  2  0
 67 68  1  0
 68 69  2  0
 69 70  1  0
 70 71  2  0
 71 72  1  0
 72 73  2  3
 73 74  1  0
 74 75  3  0
 73 76  1  0
 76 77  3  0
 69 78  1  0
 78 79  1  0
 79 80  1  0
 80 81  2  0
 81 82  1  0
 82 83  1  0
 82 84  1  0
 11  2  1  0
 23 17  1  0
 57 24  1  0
 72 63  1  0
 84 78  1  0
 10  5  1  0
 22 18  1  0
 56 28  2  0
 71 66  1  0
 83 79  1  0
 23  7  1  0
 55 30  2  0
 84 68  1  0
 53 31  2  0
 36 32  2  0
 52 37  2  0
 50 38  2  0
 49 40  2  0
 47 41  2  0
  1 85  1  0
  6 86  1  0
  9 87  1  0
 17 88  1  0
 18 89  1  0
 19 90  1  0
 20 91  1  0
 21 92  1  0
 22 93  1  0
 22 94  1  0
 23 95  1  0
 26 96  1  0
 26 97  1  0
 27 98  1  0
 27 99  1  0
 27100  1  0
 45101  1  0
 45102  1  0
 46103  1  0
 46104  1  0
 46105  1  0
 58106  1  0
 58107  1  0
 59108  1  0
 59109  1  0
 59110  1  0
 60111  1  0
 60112  1  0
 61113  1  0
 61114  1  0
 61115  1  0
 62116  1  0
 67117  1  0
 70118  1  0
 78119  1  0
 79120  1  0
 80121  1  0
 81122  1  0
 82123  1  0
 83124  1  0
 83125  1  0
 84126  1  0
M  END

