
     RDKit          3D

111126  0  0  0  0  0  0  0  0999 V2000
   -0.3459   -6.6767   -5.1015 C   0  0  0  0  0  0  0  0  0  0  0  0
   -0.0763   -7.3113   -3.9429 C   0  0  0  0  0  0  0  0  0  0  0  0
   -0.2642   -6.7486   -2.5979 C   0  0  0  0  0  0  0  0  0  0  0  0
   -0.4825   -5.5412   -2.3163 O   0  0  0  0  0  0  0  0  0  0  0  0
   -0.2162   -7.8255   -1.6346 C   0  0  0  0  0  0  0  0  0  0  0  0
   -0.4554   -7.7352   -0.2439 C   0  0  0  0  0  0  0  0  0  0  0  0
   -0.4261   -8.9525    0.4090 C   0  0  0  0  0  0  0  0  0  0  0  0
   -0.1929  -10.1951   -0.2639 C   0  0  0  0  0  0  0  0  0  0  0  0
    0.0323  -10.2906   -1.6273 C   0  0  0  0  0  0  0  0  0  0  0  0
    0.0420   -9.0438   -2.3142 C   0  0  0  0  0  0  0  0  0  0  0  0
    0.2594   -8.7581   -3.7623 C   0  0  0  0  0  0  0  0  0  0  0  0
    0.8962   -9.5603   -4.6561 C   0  0  0  0  0  0  0  0  0  0  0  0
    1.2934   -9.0980   -5.9621 C   0  0  0  0  0  0  0  0  0  0  0  0
    1.6214   -8.7346   -7.0116 N   0  0  0  0  0  0  0  0  0  0  0  0
    1.3627  -10.8782   -4.3174 C   0  0  0  0  0  0  0  0  0  0  0  0
    1.7490  -11.9369   -4.0576 N   0  0  0  0  0  0  0  0  0  0  0  0
   -0.3170  -10.9407    1.0303 C   0  0  0  0  0  0  0  0  0  0  0  0
    1.0091  -11.4554    1.6625 C   0  0  0  0  0  0  0  0  0  0  0  0
    0.6762  -11.8017    3.0921 C   0  0  0  0  0  0  0  0  0  0  0  0
    0.4576  -10.6416    3.7228 C   0  0  0  0  0  0  0  0  0  0  0  0
    0.6506   -9.5516    2.6962 C   0  0  0  0  0  0  0  0  0  0  0  0
    1.7906  -10.1754    1.9078 C   0  0  0  0  0  0  0  0  0  0  0  0
   -0.5561   -9.6683    1.7199 C   0  0  0  0  0  0  0  0  0  0  0  0
   -0.6303   -5.2418   -5.1567 C   0  0  0  0  0  0  0  0  0  0  0  0
   -2.1903   -4.5751   -5.0097 S   0  0  0  0  0  0  0  0  0  0  0  0
   -1.6027   -3.0128   -4.8544 C   0  0  0  0  0  0  0  0  0  0  0  0
   -2.0121   -1.9158   -4.1601 C   0  0  0  0  0  0  0  0  0  0  0  0
   -3.3665   -1.6311   -3.1998 S   0  0  0  0  0  0  0  0  0  0  0  0
   -2.4742   -0.5240   -2.2801 C   0  0  0  0  0  0  0  0  0  0  0  0
   -2.8498    0.5900   -1.6045 C   0  0  0  0  0  0  0  0  0  0  0  0
   -4.1426    1.0449   -1.3171 C   0  0  0  0  0  0  0  0  0  0  0  0
   -4.3220    2.3899   -0.9043 C   0  0  0  0  0  0  0  0  0  0  0  0
   -5.5886    2.7951   -0.6373 N   0  0  0  0  0  0  0  0  0  0  0  0
   -6.4053    1.3942   -0.9742 S   0  0  0  0  0  0  0  0  0  0  0  0
   -5.2617    0.2863   -1.4329 N   0  0  0  0  0  0  0  0  0  0  0  0
   -3.1984    3.2058   -0.7866 C   0  0  0  0  0  0  0  0  0  0  0  0
   -3.0705    4.4350   -0.2095 C   0  0  0  0  0  0  0  0  0  0  0  0
   -4.0472    5.4796    0.7084 S   0  0  0  0  0  0  0  0  0  0  0  0
   -2.6723    6.2801    1.3111 C   0  0  0  0  0  0  0  0  0  0  0  0
   -2.4947    7.3233    2.2243 C   0  0  0  0  0  0  0  0  0  0  0  0
   -3.6335    8.0676    2.8657 C   0  0  0  0  0  0  0  0  0  0  0  0
   -4.0587    7.3891    4.1649 C   0  0  0  0  0  0  0  0  0  0  0  0
   -1.1271    7.5182    2.5117 C   0  0  0  0  0  0  0  0  0  0  0  0
   -0.1982    6.4361    1.5729 S   0  0  0  0  0  0  0  0  0  0  0  0
   -1.5175    5.7066    0.8452 C   0  0  0  0  0  0  0  0  0  0  0  0
   -1.7484    4.6611   -0.0473 C   0  0  0  0  0  0  0  0  0  0  0  0
   -0.9789    3.6468   -0.5252 N   0  0  0  0  0  0  0  0  0  0  0  0
   -1.8890    2.7435   -1.0329 C   0  0  0  0  0  0  0  0  0  0  0  0
   -1.7138    1.4103   -1.5382 C   0  0  0  0  0  0  0  0  0  0  0  0
   -0.6702    0.8400   -2.2517 N   0  0  0  0  0  0  0  0  0  0  0  0
   -1.1606   -0.3828   -2.6539 C   0  0  0  0  0  0  0  0  0  0  0  0
   -0.8838   -1.2187   -3.7687 C   0  0  0  0  0  0  0  0  0  0  0  0
    0.2373   -1.9096   -4.1518 N   0  0  0  0  0  0  0  0  0  0  0  0
   -0.2479   -2.9955   -4.8141 C   0  0  0  0  0  0  0  0  0  0  0  0
    0.3414   -4.2505   -4.9933 C   0  0  0  0  0  0  0  0  0  0  0  0
    1.6024   -1.8302   -3.6393 C   0  0  0  0  0  0  0  0  0  0  0  0
    1.6904   -2.3863   -2.2218 C   0  0  0  0  0  0  0  0  0  0  0  0
    0.3744    1.5880   -2.9693 C   0  0  0  0  0  0  0  0  0  0  0  0
    1.7860    1.3172   -2.4240 C   0  0  0  0  0  0  0  0  0  0  0  0
    0.3907    3.4011   -0.0769 C   0  0  0  0  0  0  0  0  0  0  0  0
    1.3651    4.3722   -0.7539 C   0  0  0  0  0  0  0  0  0  0  0  0
   -0.5709    8.6697    3.2503 C   0  0  0  0  0  0  0  0  0  0  0  0
    0.5804    8.6450    3.9502 C   0  0  0  0  0  0  0  0  0  0  0  0
    1.4032    7.4507    4.2304 C   0  0  0  0  0  0  0  0  0  0  0  0
    1.0141    6.2545    4.3012 O   0  0  0  0  0  0  0  0  0  0  0  0
    2.7258    7.9231    4.5535 C   0  0  0  0  0  0  0  0  0  0  0  0
    4.1951    7.2369    4.9732 S   0  0  0  0  0  0  0  0  0  0  0  0
    4.9321    8.7538    5.1799 C   0  0  0  0  0  0  0  0  0  0  0  0
    6.6090    8.9785    5.6402 Cl  0  0  0  0  0  0  0  0  0  0  0  0
    4.0228    9.7861    4.9386 C   0  0  0  0  0  0  0  0  0  0  0  0
    2.7712    9.2761    4.5785 C   0  0  0  0  0  0  0  0  0  0  0  0
    1.4303    9.8374    4.2975 C   0  0  0  0  0  0  0  0  0  0  0  0
    1.0553   11.1307    4.4257 C   0  0  0  0  0  0  0  0  0  0  0  0
   -0.3285   11.5336    4.4621 C   0  0  0  0  0  0  0  0  0  0  0  0
   -1.4365   11.8658    4.4959 N   0  0  0  0  0  0  0  0  0  0  0  0
    2.0217   12.1858    4.5806 C   0  0  0  0  0  0  0  0  0  0  0  0
    2.7903   13.0511    4.6682 N   0  0  0  0  0  0  0  0  0  0  0  0
   -0.3929   -7.2148   -6.0352 H   0  0  0  0  0  0  0  0  0  0  0  0
   -0.6572   -6.8019    0.2659 H   0  0  0  0  0  0  0  0  0  0  0  0
    0.1614  -11.2504   -2.0986 H   0  0  0  0  0  0  0  0  0  0  0  0
   -1.1747  -11.6496    1.0540 H   0  0  0  0  0  0  0  0  0  0  0  0
    1.5380  -12.2468    1.0908 H   0  0  0  0  0  0  0  0  0  0  0  0
    0.6976  -12.7833    3.5533 H   0  0  0  0  0  0  0  0  0  0  0  0
    0.2780  -10.5206    4.7852 H   0  0  0  0  0  0  0  0  0  0  0  0
    0.8404   -8.5383    3.1091 H   0  0  0  0  0  0  0  0  0  0  0  0
    2.7154  -10.3304    2.5143 H   0  0  0  0  0  0  0  0  0  0  0  0
    2.0655   -9.6205    0.9816 H   0  0  0  0  0  0  0  0  0  0  0  0
   -1.5663   -9.5733    2.1826 H   0  0  0  0  0  0  0  0  0  0  0  0
   -3.3466    9.1194    3.0735 H   0  0  0  0  0  0  0  0  0  0  0  0
   -4.4989    8.0968    2.1691 H   0  0  0  0  0  0  0  0  0  0  0  0
   -4.3411    6.3316    3.9728 H   0  0  0  0  0  0  0  0  0  0  0  0
   -4.9370    7.9190    4.5866 H   0  0  0  0  0  0  0  0  0  0  0  0
   -3.2300    7.4202    4.9035 H   0  0  0  0  0  0  0  0  0  0  0  0
    1.3931   -4.4630   -4.8665 H   0  0  0  0  0  0  0  0  0  0  0  0
    1.9704   -0.8082   -3.7180 H   0  0  0  0  0  0  0  0  0  0  0  0
    2.2912   -2.4121   -4.2904 H   0  0  0  0  0  0  0  0  0  0  0  0
    2.7234   -2.2637   -1.8359 H   0  0  0  0  0  0  0  0  0  0  0  0
    1.4389   -3.4681   -2.2241 H   0  0  0  0  0  0  0  0  0  0  0  0
    0.9876   -1.8569   -1.5456 H   0  0  0  0  0  0  0  0  0  0  0  0
    0.1542    2.6743   -2.9496 H   0  0  0  0  0  0  0  0  0  0  0  0
    0.3447    1.3049   -4.0466 H   0  0  0  0  0  0  0  0  0  0  0  0
    2.5006    1.2762   -3.2684 H   0  0  0  0  0  0  0  0  0  0  0  0
    1.8218    0.3928   -1.8252 H   0  0  0  0  0  0  0  0  0  0  0  0
    2.1681    2.1257   -1.7911 H   0  0  0  0  0  0  0  0  0  0  0  0
    0.6630    2.3435   -0.2416 H   0  0  0  0  0  0  0  0  0  0  0  0
    0.4460    3.5462    1.0221 H   0  0  0  0  0  0  0  0  0  0  0  0
    2.3772    4.2481   -0.3213 H   0  0  0  0  0  0  0  0  0  0  0  0
    1.0503    5.4183   -0.6038 H   0  0  0  0  0  0  0  0  0  0  0  0
    1.4004    4.2176   -1.8475 H   0  0  0  0  0  0  0  0  0  0  0  0
   -1.0618    9.6091    3.0623 H   0  0  0  0  0  0  0  0  0  0  0  0
    4.2712   10.8322    5.0302 H   0  0  0  0  0  0  0  0  0  0  0  0
  1  2  2  3
  2  3  1  0
  3  4  2  0
  3  5  1  0
  5  6  2  0
  6  7  1  0
  7  8  2  0
  8  9  1  0
  9 10  2  0
 10 11  1  0
 11 12  2  3
 12 13  1  0
 13 14  3  0
 12 15  1  0
 15 16  3  0
  8 17  1  0
 17 18  1  0
 18 19  1  0
 19 20  2  0
 20 21  1  0
 21 22  1  0
 21 23  1  0
  1 24  1  0
 24 25  1  0
 25 26  1  0
 26 27  1  0
 27 28  1  0
 28 29  1  0
 29 30  1  0
 30 31  1  0
 31 32  1  0
 32 33  2  0
 33 34  1  0
 34 35  1  0
 32 36  1  0
 36 37  1  0
 37 38  1  0
 38 39  1  0
 39 40  1  0
 40 41  1  0
 41 42  1  0
 40 43  2  0
 43 44  1  0
 44 45  1  0
 45 46  1  0
 46 47  1  0
 47 48  1  0
 48 49  1  0
 49 50  1  0
 50 51  1  0
 51 52  1  0
 52 53  1  0
 53 54  1  0
 54 55  1  0
 53 56  1  0
 56 57  1  0
 50 58  1  0
 58 59  1  0
 47 60  1  0
 60 61  1  0
 43 62  1  0
 62 63  2  3
 63 64  1  0
 64 65  2  0
 64 66  1  0
 66 67  1  0
 67 68  1  0
 68 69  1  0
 68 70  2  0
 70 71  1  0
 71 72  1  0
 72 73  2  3
 73 74  1  0
 74 75  3  0
 73 76  1  0
 76 77  3  0
 11  2  1  0
 23 17  1  0
 55 24  2  0
 72 63  1  0
 10  5  1  0
 22 18  1  0
 54 26  2  0
 71 66  2  0
 23  7  1  0
 52 27  2  0
 51 29  2  0
 49 30  2  0
 35 31  2  0
 48 36  2  0
 46 37  2  0
 45 39  2  0
  1 78  1  0
  6 79  1  0
  9 80  1  0
 17 81  1  0
 18 82  1  0
 19 83  1  0
 20 84  1  0
 21 85  1  0
 22 86  1  0
 22 87  1  0
 23 88  1  0
 41 89  1  0
 41 90  1  0
 42 91  1  0
 42 92  1  0
 42 93  1  0
 55 94  1  0
 56 95  1  0
 56 96  1  0
 57 97  1  0
 57 98  1  0
 57 99  1  0
 58100  1  0
 58101  1  0
 59102  1  0
 59103  1  0
 59104  1  0
 60105  1  0
 60106  1  0
 61107  1  0
 61108  1  0
 61109  1  0
 62110  1  0
 70111  1  0
M  END

