
     RDKit          3D

113128  0  0  0  0  0  0  0  0999 V2000
   -7.5925    2.0150   -2.0027 C   0  0  0  0  0  0  0  0  0  0  0  0
   -7.2732    3.3117   -2.1686 C   0  0  0  0  0  0  0  0  0  0  0  0
   -6.4338    4.0822   -1.2429 C   0  0  0  0  0  0  0  0  0  0  0  0
   -6.2432    3.8184   -0.0263 O   0  0  0  0  0  0  0  0  0  0  0  0
   -5.8269    5.1669   -1.9634 C   0  0  0  0  0  0  0  0  0  0  0  0
   -4.8870    6.0842   -1.4487 C   0  0  0  0  0  0  0  0  0  0  0  0
   -4.4205    6.9896   -2.3628 C   0  0  0  0  0  0  0  0  0  0  0  0
   -4.8300    6.9992   -3.7297 C   0  0  0  0  0  0  0  0  0  0  0  0
   -5.7708    6.1148   -4.2371 C   0  0  0  0  0  0  0  0  0  0  0  0
   -6.2829    5.1622   -3.3021 C   0  0  0  0  0  0  0  0  0  0  0  0
   -7.2661    4.0432   -3.4826 C   0  0  0  0  0  0  0  0  0  0  0  0
   -8.0135    3.7670   -4.5850 C   0  0  0  0  0  0  0  0  0  0  0  0
   -7.8023    4.3835   -5.8732 C   0  0  0  0  0  0  0  0  0  0  0  0
   -7.6442    4.8506   -6.9242 N   0  0  0  0  0  0  0  0  0  0  0  0
   -9.1206    2.8439   -4.5651 C   0  0  0  0  0  0  0  0  0  0  0  0
  -10.0183    2.1036   -4.5682 N   0  0  0  0  0  0  0  0  0  0  0  0
   -3.9182    8.1464   -4.0158 C   0  0  0  0  0  0  0  0  0  0  0  0
   -4.5964    9.5338   -4.2141 C   0  0  0  0  0  0  0  0  0  0  0  0
   -3.4932   10.5449   -4.0748 C   0  0  0  0  0  0  0  0  0  0  0  0
   -3.1658   10.5713   -2.7754 C   0  0  0  0  0  0  0  0  0  0  0  0
   -4.0312    9.5467   -2.0947 C   0  0  0  0  0  0  0  0  0  0  0  0
   -5.3084    9.7673   -2.8913 C   0  0  0  0  0  0  0  0  0  0  0  0
   -3.5247    8.1610   -2.5984 C   0  0  0  0  0  0  0  0  0  0  0  0
   -6.8375    1.1988   -1.0514 C   0  0  0  0  0  0  0  0  0  0  0  0
   -7.2366    0.7150    0.2160 C   0  0  0  0  0  0  0  0  0  0  0  0
   -8.5136    1.0797    0.9134 C   0  0  0  0  0  0  0  0  0  0  0  0
   -9.6493    0.1363    0.5425 C   0  0  0  0  0  0  0  0  0  0  0  0
   -6.2117   -0.0395    0.7951 C   0  0  0  0  0  0  0  0  0  0  0  0
   -5.9515   -0.7281    2.3413 S   0  0  0  0  0  0  0  0  0  0  0  0
   -4.3440   -1.1324    1.9409 C   0  0  0  0  0  0  0  0  0  0  0  0
   -3.1770   -1.4518    2.5867 C   0  0  0  0  0  0  0  0  0  0  0  0
   -2.9456   -1.7852    3.9120 C   0  0  0  0  0  0  0  0  0  0  0  0
   -1.6135   -1.8004    4.4047 C   0  0  0  0  0  0  0  0  0  0  0  0
   -1.4466   -2.0753    5.7148 N   0  0  0  0  0  0  0  0  0  0  0  0
   -3.0274   -2.2610    6.1918 S   0  0  0  0  0  0  0  0  0  0  0  0
   -3.9335   -2.0170    4.8302 N   0  0  0  0  0  0  0  0  0  0  0  0
   -0.5740   -1.4919    3.5173 C   0  0  0  0  0  0  0  0  0  0  0  0
    0.7637   -1.4605    3.7315 C   0  0  0  0  0  0  0  0  0  0  0  0
    1.7505   -2.4660    4.6884 S   0  0  0  0  0  0  0  0  0  0  0  0
    3.0359   -2.3698    3.5994 C   0  0  0  0  0  0  0  0  0  0  0  0
    4.2034   -3.0940    3.4300 C   0  0  0  0  0  0  0  0  0  0  0  0
    4.8372   -4.4733    4.1367 S   0  0  0  0  0  0  0  0  0  0  0  0
    5.9845   -4.7527    2.8986 C   0  0  0  0  0  0  0  0  0  0  0  0
    5.8381   -3.7961    1.8828 C   0  0  0  0  0  0  0  0  0  0  0  0
    6.6922   -3.7244    0.6356 C   0  0  0  0  0  0  0  0  0  0  0  0
    5.9005   -3.8873   -0.6640 C   0  0  0  0  0  0  0  0  0  0  0  0
    4.8246   -2.8867    2.2217 C   0  0  0  0  0  0  0  0  0  0  0  0
    3.8752   -1.8601    1.2730 S   0  0  0  0  0  0  0  0  0  0  0  0
    2.6828   -1.6449    2.4797 C   0  0  0  0  0  0  0  0  0  0  0  0
    1.3520   -1.1977    2.5162 C   0  0  0  0  0  0  0  0  0  0  0  0
    0.4326   -1.1517    1.4980 N   0  0  0  0  0  0  0  0  0  0  0  0
   -0.7733   -1.2440    2.1543 C   0  0  0  0  0  0  0  0  0  0  0  0
   -2.1280   -1.1793    1.6670 C   0  0  0  0  0  0  0  0  0  0  0  0
   -2.6603   -0.6712    0.5111 N   0  0  0  0  0  0  0  0  0  0  0  0
   -4.0061   -0.6936    0.7158 C   0  0  0  0  0  0  0  0  0  0  0  0
   -5.0650   -0.1251    0.0368 C   0  0  0  0  0  0  0  0  0  0  0  0
   -5.2419    0.7174   -1.3854 S   0  0  0  0  0  0  0  0  0  0  0  0
   -2.0426   -0.0758   -0.6793 C   0  0  0  0  0  0  0  0  0  0  0  0
   -2.1877   -1.0399   -1.8762 C   0  0  0  0  0  0  0  0  0  0  0  0
    0.7464   -1.7148    0.1684 C   0  0  0  0  0  0  0  0  0  0  0  0
    0.7563   -3.2501    0.2089 C   0  0  0  0  0  0  0  0  0  0  0  0
    6.6317   -6.0547    2.7253 C   0  0  0  0  0  0  0  0  0  0  0  0
    7.9673   -6.2617    2.6850 C   0  0  0  0  0  0  0  0  0  0  0  0
    8.9984   -5.2031    2.6344 C   0  0  0  0  0  0  0  0  0  0  0  0
    8.8175   -3.9712    2.8122 O   0  0  0  0  0  0  0  0  0  0  0  0
   10.2878   -5.8207    2.4253 C   0  0  0  0  0  0  0  0  0  0  0  0
   11.5331   -5.2121    2.2437 C   0  0  0  0  0  0  0  0  0  0  0  0
   12.7001   -5.9949    2.3242 C   0  0  0  0  0  0  0  0  0  0  0  0
   13.9170   -5.4045    2.2273 F   0  0  0  0  0  0  0  0  0  0  0  0
   12.5856   -7.3661    2.5568 C   0  0  0  0  0  0  0  0  0  0  0  0
   13.7019   -8.1211    2.6695 F   0  0  0  0  0  0  0  0  0  0  0  0
   11.3223   -7.9802    2.6491 C   0  0  0  0  0  0  0  0  0  0  0  0
   10.1679   -7.1850    2.5284 C   0  0  0  0  0  0  0  0  0  0  0  0
    8.7219   -7.5638    2.5883 C   0  0  0  0  0  0  0  0  0  0  0  0
    8.2370   -8.8271    2.4766 C   0  0  0  0  0  0  0  0  0  0  0  0
    9.0622   -9.9520    2.0493 C   0  0  0  0  0  0  0  0  0  0  0  0
    9.7162  -10.8575    1.7014 N   0  0  0  0  0  0  0  0  0  0  0  0
    6.8379   -9.1506    2.6580 C   0  0  0  0  0  0  0  0  0  0  0  0
    5.7324   -9.4710    2.7950 N   0  0  0  0  0  0  0  0  0  0  0  0
   -8.1016    1.4411   -2.7631 H   0  0  0  0  0  0  0  0  0  0  0  0
   -4.5586    6.0792   -0.4143 H   0  0  0  0  0  0  0  0  0  0  0  0
   -6.0739    6.1792   -5.2676 H   0  0  0  0  0  0  0  0  0  0  0  0
   -3.0785    7.9066   -4.7142 H   0  0  0  0  0  0  0  0  0  0  0  0
   -5.2288    9.6293   -5.1189 H   0  0  0  0  0  0  0  0  0  0  0  0
   -3.1343   11.2214   -4.8271 H   0  0  0  0  0  0  0  0  0  0  0  0
   -2.4792   11.2593   -2.3147 H   0  0  0  0  0  0  0  0  0  0  0  0
   -4.1274    9.6539   -0.9940 H   0  0  0  0  0  0  0  0  0  0  0  0
   -6.1320    9.0508   -2.6686 H   0  0  0  0  0  0  0  0  0  0  0  0
   -5.7134   10.7982   -2.7876 H   0  0  0  0  0  0  0  0  0  0  0  0
   -2.4477    7.9437   -2.4065 H   0  0  0  0  0  0  0  0  0  0  0  0
   -8.3600    1.0680    2.0098 H   0  0  0  0  0  0  0  0  0  0  0  0
   -8.7930    2.1187    0.6283 H   0  0  0  0  0  0  0  0  0  0  0  0
   -9.8065    0.1109   -0.5568 H   0  0  0  0  0  0  0  0  0  0  0  0
   -9.4385   -0.8839    0.9104 H   0  0  0  0  0  0  0  0  0  0  0  0
  -10.5843    0.4916    1.0286 H   0  0  0  0  0  0  0  0  0  0  0  0
    7.1893   -2.7208    0.6344 H   0  0  0  0  0  0  0  0  0  0  0  0
    7.4952   -4.4783    0.6341 H   0  0  0  0  0  0  0  0  0  0  0  0
    6.5868   -4.1557   -1.5021 H   0  0  0  0  0  0  0  0  0  0  0  0
    5.4259   -2.9281   -0.9265 H   0  0  0  0  0  0  0  0  0  0  0  0
    5.0946   -4.6658   -0.5738 H   0  0  0  0  0  0  0  0  0  0  0  0
   -2.5783    0.8678   -0.9364 H   0  0  0  0  0  0  0  0  0  0  0  0
   -1.0285    0.2836   -0.4581 H   0  0  0  0  0  0  0  0  0  0  0  0
   -1.7064   -0.6024   -2.7762 H   0  0  0  0  0  0  0  0  0  0  0  0
   -3.2458   -1.2325   -2.1193 H   0  0  0  0  0  0  0  0  0  0  0  0
   -1.7464   -2.0325   -1.6779 H   0  0  0  0  0  0  0  0  0  0  0  0
    1.7200   -1.3406   -0.1809 H   0  0  0  0  0  0  0  0  0  0  0  0
    0.0673   -1.4067   -0.6159 H   0  0  0  0  0  0  0  0  0  0  0  0
    1.1039   -3.6326    1.1939 H   0  0  0  0  0  0  0  0  0  0  0  0
   -0.2760   -3.6474    0.0399 H   0  0  0  0  0  0  0  0  0  0  0  0
    1.4401   -3.6258   -0.5693 H   0  0  0  0  0  0  0  0  0  0  0  0
    5.9248   -6.8551    2.5986 H   0  0  0  0  0  0  0  0  0  0  0  0
   11.6146   -4.1535    2.0749 H   0  0  0  0  0  0  0  0  0  0  0  0
   11.2783   -9.0332    2.8617 H   0  0  0  0  0  0  0  0  0  0  0  0
  1  2  2  3
  2  3  1  0
  3  4  2  0
  3  5  1  0
  5  6  2  0
  6  7  1  0
  7  8  2  0
  8  9  1  0
  9 10  2  0
 10 11  1  0
 11 12  2  3
 12 13  1  0
 13 14  3  0
 12 15  1  0
 15 16  3  0
  8 17  1  0
 17 18  1  0
 18 19  1  0
 19 20  2  0
 20 21  1  0
 21 22  1  0
 21 23  1  0
  1 24  1  0
 24 25  2  0
 25 26  1  0
 26 27  1  0
 25 28  1  0
 28 29  1  0
 29 30  1  0
 30 31  1  0
 31 32  1  0
 32 33  1  0
 33 34  2  0
 34 35  1  0
 35 36  1  0
 33 37  1  0
 37 38  1  0
 38 39  1  0
 39 40  1  0
 40 41  1  0
 41 42  1  0
 42 43  1  0
 43 44  2  0
 44 45  1  0
 45 46  1  0
 44 47  1  0
 47 48  1  0
 48 49  1  0
 49 50  1  0
 50 51  1  0
 51 52  1  0
 52 53  1  0
 53 54  1  0
 54 55  1  0
 55 56  1  0
 56 57  1  0
 54 58  1  0
 58 59  1  0
 51 60  1  0
 60 61  1  0
 43 62  1  0
 62 63  2  3
 63 64  1  0
 64 65  2  0
 64 66  1  0
 66 67  2  0
 67 68  1  0
 68 69  1  0
 68 70  2  0
 70 71  1  0
 70 72  1  0
 72 73  2  0
 73 74  1  0
 74 75  2  3
 75 76  1  0
 76 77  3  0
 75 78  1  0
 78 79  3  0
 11  2  1  0
 23 17  1  0
 57 24  1  0
 74 63  1  0
 10  5  1  0
 22 18  1  0
 56 28  2  0
 73 66  1  0
 23  7  1  0
 55 30  2  0
 53 31  2  0
 36 32  2  0
 52 37  2  0
 50 38  2  0
 49 40  2  0
 47 41  2  0
  1 80  1  0
  6 81  1  0
  9 82  1  0
 17 83  1  0
 18 84  1  0
 19 85  1  0
 20 86  1  0
 21 87  1  0
 22 88  1  0
 22 89  1  0
 23 90  1  0
 26 91  1  0
 26 92  1  0
 27 93  1  0
 27 94  1  0
 27 95  1  0
 45 96  1  0
 45 97  1  0
 46 98  1  0
 46 99  1  0
 46100  1  0
 58101  1  0
 58102  1  0
 59103  1  0
 59104  1  0
 59105  1  0
 60106  1  0
 60107  1  0
 61108  1  0
 61109  1  0
 61110  1  0
 62111  1  0
 67112  1  0
 72113  1  0
M  END

