
     RDKit          3D

112126  0  0  0  0  0  0  0  0999 V2000
   -1.2056    1.4386    5.8277 C   0  0  0  0  0  0  0  0  0  0  0  0
   -0.6405    2.6498    5.9974 C   0  0  0  0  0  0  0  0  0  0  0  0
    0.6207    3.0929    5.3861 C   0  0  0  0  0  0  0  0  0  0  0  0
    1.5034    2.3533    4.8734 O   0  0  0  0  0  0  0  0  0  0  0  0
    0.7045    4.5323    5.4843 C   0  0  0  0  0  0  0  0  0  0  0  0
    1.6776    5.3714    4.8943 C   0  0  0  0  0  0  0  0  0  0  0  0
    1.4120    6.7205    5.0341 C   0  0  0  0  0  0  0  0  0  0  0  0
    0.2511    7.2221    5.7069 C   0  0  0  0  0  0  0  0  0  0  0  0
   -0.7037    6.4057    6.2893 C   0  0  0  0  0  0  0  0  0  0  0  0
   -0.4300    5.0123    6.1878 C   0  0  0  0  0  0  0  0  0  0  0  0
   -1.2448    3.8533    6.6518 C   0  0  0  0  0  0  0  0  0  0  0  0
   -2.1778    3.8717    7.6425 C   0  0  0  0  0  0  0  0  0  0  0  0
   -2.7910    2.6763    8.1584 C   0  0  0  0  0  0  0  0  0  0  0  0
   -3.2899    1.7227    8.5843 N   0  0  0  0  0  0  0  0  0  0  0  0
   -2.4982    5.0709    8.3727 C   0  0  0  0  0  0  0  0  0  0  0  0
   -2.7533    6.0237    8.9744 N   0  0  0  0  0  0  0  0  0  0  0  0
    0.6620    8.6304    5.4021 C   0  0  0  0  0  0  0  0  0  0  0  0
    1.2450    9.4546    6.5863 C   0  0  0  0  0  0  0  0  0  0  0  0
    1.9293   10.6468    5.9639 C   0  0  0  0  0  0  0  0  0  0  0  0
    3.0185   10.1770    5.3430 C   0  0  0  0  0  0  0  0  0  0  0  0
    3.0316    8.6845    5.5687 C   0  0  0  0  0  0  0  0  0  0  0  0
    2.4781    8.6605    6.9837 C   0  0  0  0  0  0  0  0  0  0  0  0
    1.8554    8.1166    4.7206 C   0  0  0  0  0  0  0  0  0  0  0  0
   -0.6144    0.3937    4.9792 C   0  0  0  0  0  0  0  0  0  0  0  0
   -0.0846   -0.8566    5.3782 C   0  0  0  0  0  0  0  0  0  0  0  0
   -0.0188   -1.3901    6.6774 O   0  0  0  0  0  0  0  0  0  0  0  0
   -0.8324   -1.0030    7.7832 C   0  0  0  0  0  0  0  0  0  0  0  0
   -2.2705   -1.4773    7.5832 C   0  0  0  0  0  0  0  0  0  0  0  0
    0.4008   -1.5606    4.2784 C   0  0  0  0  0  0  0  0  0  0  0  0
    1.0532   -3.1262    4.1023 S   0  0  0  0  0  0  0  0  0  0  0  0
    1.1328   -2.9231    2.4166 C   0  0  0  0  0  0  0  0  0  0  0  0
    1.3048   -3.6979    1.3091 C   0  0  0  0  0  0  0  0  0  0  0  0
    1.5928   -5.0606    1.2131 C   0  0  0  0  0  0  0  0  0  0  0  0
    1.5263   -5.6834   -0.0602 C   0  0  0  0  0  0  0  0  0  0  0  0
    1.8019   -7.0109   -0.1149 N   0  0  0  0  0  0  0  0  0  0  0  0
    2.1058   -7.2964    1.4880 S   0  0  0  0  0  0  0  0  0  0  0  0
    1.9163   -5.8477    2.2688 N   0  0  0  0  0  0  0  0  0  0  0  0
    1.1864   -4.9071   -1.1676 C   0  0  0  0  0  0  0  0  0  0  0  0
    1.1151   -5.2467   -2.4843 C   0  0  0  0  0  0  0  0  0  0  0  0
    1.3755   -6.5988   -3.4790 S   0  0  0  0  0  0  0  0  0  0  0  0
    1.0994   -5.6439   -4.8657 C   0  0  0  0  0  0  0  0  0  0  0  0
    1.0859   -5.9154   -6.2312 C   0  0  0  0  0  0  0  0  0  0  0  0
    1.3765   -7.1687   -6.7745 O   0  0  0  0  0  0  0  0  0  0  0  0
    2.6327   -7.4472   -7.3901 C   0  0  0  0  0  0  0  0  0  0  0  0
    3.6953   -7.7215   -6.3321 C   0  0  0  0  0  0  0  0  0  0  0  0
    0.7280   -4.7831   -6.9794 C   0  0  0  0  0  0  0  0  0  0  0  0
    0.5252   -3.4501   -5.9292 S   0  0  0  0  0  0  0  0  0  0  0  0
    0.8396   -4.3365   -4.5414 C   0  0  0  0  0  0  0  0  0  0  0  0
    0.8550   -4.1163   -3.1710 C   0  0  0  0  0  0  0  0  0  0  0  0
    0.7712   -3.0160   -2.3787 N   0  0  0  0  0  0  0  0  0  0  0  0
    0.9276   -3.5192   -1.0989 C   0  0  0  0  0  0  0  0  0  0  0  0
    0.9380   -2.8992    0.2012 C   0  0  0  0  0  0  0  0  0  0  0  0
    0.4992   -1.6665    0.6511 N   0  0  0  0  0  0  0  0  0  0  0  0
    0.6524   -1.7315    1.9989 C   0  0  0  0  0  0  0  0  0  0  0  0
    0.2324   -0.9423    3.0641 C   0  0  0  0  0  0  0  0  0  0  0  0
   -0.5211    0.5384    3.2826 S   0  0  0  0  0  0  0  0  0  0  0  0
   -0.2265   -0.5884   -0.0288 C   0  0  0  0  0  0  0  0  0  0  0  0
   -1.6057   -1.0541   -0.4962 C   0  0  0  0  0  0  0  0  0  0  0  0
    0.9292   -1.6509   -2.8926 C   0  0  0  0  0  0  0  0  0  0  0  0
    2.2812   -1.0595   -2.4896 C   0  0  0  0  0  0  0  0  0  0  0  0
    0.5856   -4.7337   -8.4452 C   0  0  0  0  0  0  0  0  0  0  0  0
   -0.3161   -3.9707   -9.0891 C   0  0  0  0  0  0  0  0  0  0  0  0
   -0.0989   -3.4640  -10.4431 C   0  0  0  0  0  0  0  0  0  0  0  0
    0.7321   -3.9101  -11.2782 O   0  0  0  0  0  0  0  0  0  0  0  0
   -0.9289   -2.2888  -10.6233 C   0  0  0  0  0  0  0  0  0  0  0  0
   -0.9435   -1.3921  -11.6918 C   0  0  0  0  0  0  0  0  0  0  0  0
   -1.7667   -0.2590  -11.6019 C   0  0  0  0  0  0  0  0  0  0  0  0
   -1.8025    0.6319  -12.6227 F   0  0  0  0  0  0  0  0  0  0  0  0
   -2.5322   -0.0309  -10.4432 C   0  0  0  0  0  0  0  0  0  0  0  0
   -2.4985   -0.9432   -9.3753 C   0  0  0  0  0  0  0  0  0  0  0  0
   -1.6983   -2.0906   -9.4879 C   0  0  0  0  0  0  0  0  0  0  0  0
   -1.4721   -3.2080   -8.5326 C   0  0  0  0  0  0  0  0  0  0  0  0
   -2.3687   -3.6762   -7.6277 C   0  0  0  0  0  0  0  0  0  0  0  0
   -3.5414   -2.9335   -7.2471 C   0  0  0  0  0  0  0  0  0  0  0  0
   -4.4878   -2.3423   -6.9324 N   0  0  0  0  0  0  0  0  0  0  0  0
   -2.2856   -5.0137   -7.0962 C   0  0  0  0  0  0  0  0  0  0  0  0
   -2.2285   -6.0894   -6.6715 N   0  0  0  0  0  0  0  0  0  0  0  0
   -2.1874    1.2289    6.2156 H   0  0  0  0  0  0  0  0  0  0  0  0
    2.5310    4.9972    4.3466 H   0  0  0  0  0  0  0  0  0  0  0  0
   -1.5933    6.8231    6.7295 H   0  0  0  0  0  0  0  0  0  0  0  0
   -0.0514    9.1706    4.7414 H   0  0  0  0  0  0  0  0  0  0  0  0
    0.5360    9.6906    7.4065 H   0  0  0  0  0  0  0  0  0  0  0  0
    1.6625   11.6927    6.0771 H   0  0  0  0  0  0  0  0  0  0  0  0
    3.7816   10.7792    4.8643 H   0  0  0  0  0  0  0  0  0  0  0  0
    4.0150    8.1904    5.4229 H   0  0  0  0  0  0  0  0  0  0  0  0
    2.2571    7.6415    7.3700 H   0  0  0  0  0  0  0  0  0  0  0  0
    3.1260    9.1904    7.7234 H   0  0  0  0  0  0  0  0  0  0  0  0
    1.8953    8.3389    3.6303 H   0  0  0  0  0  0  0  0  0  0  0  0
   -0.4302   -1.4920    8.6970 H   0  0  0  0  0  0  0  0  0  0  0  0
   -0.7828    0.0915    7.9578 H   0  0  0  0  0  0  0  0  0  0  0  0
   -2.6994   -1.0511    6.6538 H   0  0  0  0  0  0  0  0  0  0  0  0
   -2.2943   -2.5862    7.5128 H   0  0  0  0  0  0  0  0  0  0  0  0
   -2.8938   -1.1572    8.4443 H   0  0  0  0  0  0  0  0  0  0  0  0
    2.5228   -8.3443   -8.0339 H   0  0  0  0  0  0  0  0  0  0  0  0
    2.9549   -6.5988   -8.0282 H   0  0  0  0  0  0  0  0  0  0  0  0
    4.6596   -7.9690   -6.8264 H   0  0  0  0  0  0  0  0  0  0  0  0
    3.8404   -6.8225   -5.6963 H   0  0  0  0  0  0  0  0  0  0  0  0
    3.3858   -8.5758   -5.6962 H   0  0  0  0  0  0  0  0  0  0  0  0
    0.3900   -0.1325   -0.8111 H   0  0  0  0  0  0  0  0  0  0  0  0
   -0.3820    0.2690    0.6504 H   0  0  0  0  0  0  0  0  0  0  0  0
   -2.2502   -1.2633    0.3876 H   0  0  0  0  0  0  0  0  0  0  0  0
   -1.5360   -1.9764   -1.1140 H   0  0  0  0  0  0  0  0  0  0  0  0
   -2.0791   -0.2501   -1.1033 H   0  0  0  0  0  0  0  0  0  0  0  0
    0.0627   -1.0254   -2.6365 H   0  0  0  0  0  0  0  0  0  0  0  0
    0.9054   -1.6431   -3.9980 H   0  0  0  0  0  0  0  0  0  0  0  0
    2.3427   -0.0022   -2.8193 H   0  0  0  0  0  0  0  0  0  0  0  0
    2.4305   -1.0994   -1.3906 H   0  0  0  0  0  0  0  0  0  0  0  0
    3.0975   -1.6338   -2.9761 H   0  0  0  0  0  0  0  0  0  0  0  0
    1.3454   -5.2344   -9.0303 H   0  0  0  0  0  0  0  0  0  0  0  0
   -0.3269   -1.5589  -12.5657 H   0  0  0  0  0  0  0  0  0  0  0  0
   -3.1490    0.8555  -10.3728 H   0  0  0  0  0  0  0  0  0  0  0  0
   -3.0611   -0.7212   -8.4835 H   0  0  0  0  0  0  0  0  0  0  0  0
  1  2  2  3
  2  3  1  0
  3  4  2  0
  3  5  1  0
  5  6  2  0
  6  7  1  0
  7  8  2  0
  8  9  1  0
  9 10  2  0
 10 11  1  0
 11 12  2  3
 12 13  1  0
 13 14  3  0
 12 15  1  0
 15 16  3  0
  8 17  1  0
 17 18  1  0
 18 19  1  0
 19 20  2  0
 20 21  1  0
 21 22  1  0
 21 23  1  0
  1 24  1  0
 24 25  2  0
 25 26  1  0
 26 27  1  0
 27 28  1  0
 25 29  1  0
 29 30  1  0
 30 31  1  0
 31 32  1  0
 32 33  1  0
 33 34  1  0
 34 35  2  0
 35 36  1  0
 36 37  1  0
 34 38  1  0
 38 39  1  0
 39 40  1  0
 40 41  1  0
 41 42  1  0
 42 43  1  0
 43 44  1  0
 44 45  1  0
 42 46  2  0
 46 47  1  0
 47 48  1  0
 48 49  1  0
 49 50  1  0
 50 51  1  0
 51 52  1  0
 52 53  1  0
 53 54  1  0
 54 55  1  0
 55 56  1  0
 53 57  1  0
 57 58  1  0
 50 59  1  0
 59 60  1  0
 46 61  1  0
 61 62  2  3
 62 63  1  0
 63 64  2  0
 63 65  1  0
 65 66  2  0
 66 67  1  0
 67 68  1  0
 67 69  2  0
 69 70  1  0
 70 71  2  0
 71 72  1  0
 72 73  2  3
 73 74  1  0
 74 75  3  0
 73 76  1  0
 76 77  3  0
 11  2  1  0
 23 17  1  0
 56 24  1  0
 72 62  1  0
 10  5  1  0
 22 18  1  0
 55 29  2  0
 71 65  1  0
 23  7  1  0
 54 31  2  0
 52 32  2  0
 37 33  2  0
 51 38  2  0
 49 39  2  0
 48 41  2  0
  1 78  1  0
  6 79  1  0
  9 80  1  0
 17 81  1  0
 18 82  1  0
 19 83  1  0
 20 84  1  0
 21 85  1  0
 22 86  1  0
 22 87  1  0
 23 88  1  0
 27 89  1  0
 27 90  1  0
 28 91  1  0
 28 92  1  0
 28 93  1  0
 44 94  1  0
 44 95  1  0
 45 96  1  0
 45 97  1  0
 45 98  1  0
 57 99  1  0
 57100  1  0
 58101  1  0
 58102  1  0
 58103  1  0
 59104  1  0
 59105  1  0
 60106  1  0
 60107  1  0
 60108  1  0
 61109  1  0
 66110  1  0
 69111  1  0
 70112  1  0
M  END

