
     RDKit          3D

109119  0  0  0  0  0  0  0  0999 V2000
   -3.6719    3.5135    1.8436 C   0  0  0  0  0  0  0  0  0  0  0  0
   -3.1458    4.2623    0.8517 C   0  0  0  0  0  0  0  0  0  0  0  0
   -1.9135    3.9457    0.1101 C   0  0  0  0  0  0  0  0  0  0  0  0
   -1.0242    3.1184    0.4472 O   0  0  0  0  0  0  0  0  0  0  0  0
   -1.9142    4.6824   -1.1310 C   0  0  0  0  0  0  0  0  0  0  0  0
   -0.9902    4.5509   -2.1921 C   0  0  0  0  0  0  0  0  0  0  0  0
   -1.3415    5.2541   -3.3275 C   0  0  0  0  0  0  0  0  0  0  0  0
   -2.5405    6.0312   -3.4269 C   0  0  0  0  0  0  0  0  0  0  0  0
   -3.4471    6.1665   -2.3890 C   0  0  0  0  0  0  0  0  0  0  0  0
   -3.0862    5.4798   -1.1949 C   0  0  0  0  0  0  0  0  0  0  0  0
   -3.8359    5.3470    0.0880 C   0  0  0  0  0  0  0  0  0  0  0  0
   -4.8006    6.1814    0.5529 C   0  0  0  0  0  0  0  0  0  0  0  0
   -5.3100    6.0946    1.8972 C   0  0  0  0  0  0  0  0  0  0  0  0
   -5.7264    6.0368    2.9766 N   0  0  0  0  0  0  0  0  0  0  0  0
   -5.2912    7.2986   -0.2135 C   0  0  0  0  0  0  0  0  0  0  0  0
   -5.6932    8.2049   -0.8107 N   0  0  0  0  0  0  0  0  0  0  0  0
   -2.2405    6.3377   -4.8639 C   0  0  0  0  0  0  0  0  0  0  0  0
   -3.0552    5.5811   -5.9570 C   0  0  0  0  0  0  0  0  0  0  0  0
   -3.4536    4.2133   -5.4543 C   0  0  0  0  0  0  0  0  0  0  0  0
   -2.3296    3.5017   -5.3575 C   0  0  0  0  0  0  0  0  0  0  0  0
   -1.2053    4.4085   -5.7993 C   0  0  0  0  0  0  0  0  0  0  0  0
   -1.9291    5.1742   -6.8907 C   0  0  0  0  0  0  0  0  0  0  0  0
   -1.0062    5.5520   -4.7576 C   0  0  0  0  0  0  0  0  0  0  0  0
   -3.0131    2.2921    2.3285 C   0  0  0  0  0  0  0  0  0  0  0  0
   -1.8460    2.3736    3.1196 C   0  0  0  0  0  0  0  0  0  0  0  0
   -1.0582    1.2339    3.3332 C   0  0  0  0  0  0  0  0  0  0  0  0
   -1.4522    0.0318    2.7440 C   0  0  0  0  0  0  0  0  0  0  0  0
   -0.7251   -1.2192    2.5860 C   0  0  0  0  0  0  0  0  0  0  0  0
   -1.4811   -2.0638    1.8999 C   0  0  0  0  0  0  0  0  0  0  0  0
   -2.8025   -1.4531    1.4557 C   0  0  0  0  0  0  0  0  0  0  0  0
   -4.0129   -2.1443    2.1358 C   0  0  0  0  0  0  0  0  0  0  0  0
   -4.2082   -3.6105    1.7549 C   0  0  0  0  0  0  0  0  0  0  0  0
   -2.9596   -1.3614   -0.0951 C   0  0  0  0  0  0  0  0  0  0  0  0
   -1.8440   -0.5759   -0.8013 C   0  0  0  0  0  0  0  0  0  0  0  0
   -2.6431   -0.0769    2.0563 C   0  0  0  0  0  0  0  0  0  0  0  0
   -3.4499    1.0461    1.8450 C   0  0  0  0  0  0  0  0  0  0  0  0
   -0.6213   -3.0418    1.2563 C   0  0  0  0  0  0  0  0  0  0  0  0
    0.6874   -2.7199    1.5520 C   0  0  0  0  0  0  0  0  0  0  0  0
    0.7682   -1.5031    2.4607 C   0  0  0  0  0  0  0  0  0  0  0  0
    1.3137   -1.9016    3.8615 C   0  0  0  0  0  0  0  0  0  0  0  0
    2.7329   -2.4728    3.8669 C   0  0  0  0  0  0  0  0  0  0  0  0
    1.5088   -0.3344    1.7106 C   0  0  0  0  0  0  0  0  0  0  0  0
    2.3309    0.6496    2.5566 C   0  0  0  0  0  0  0  0  0  0  0  0
    1.7374   -3.3683    0.8903 C   0  0  0  0  0  0  0  0  0  0  0  0
    1.4488   -4.3884   -0.0407 C   0  0  0  0  0  0  0  0  0  0  0  0
    0.1058   -4.7163   -0.3132 C   0  0  0  0  0  0  0  0  0  0  0  0
   -0.9383   -4.0443    0.3362 C   0  0  0  0  0  0  0  0  0  0  0  0
    2.5231   -4.9861   -0.8668 C   0  0  0  0  0  0  0  0  0  0  0  0
    3.7756   -5.2329   -0.4430 C   0  0  0  0  0  0  0  0  0  0  0  0
    4.9301   -5.2057   -1.3408 C   0  0  0  0  0  0  0  0  0  0  0  0
    4.8972   -5.3082   -2.5970 O   0  0  0  0  0  0  0  0  0  0  0  0
    6.1087   -4.9127   -0.5495 C   0  0  0  0  0  0  0  0  0  0  0  0
    7.3941   -4.6032   -0.9878 C   0  0  0  0  0  0  0  0  0  0  0  0
    8.3426   -4.1979   -0.0360 C   0  0  0  0  0  0  0  0  0  0  0  0
    7.9969   -4.0879    1.3249 C   0  0  0  0  0  0  0  0  0  0  0  0
    8.9761   -3.6391    2.2221 O   0  0  0  0  0  0  0  0  0  0  0  0
    8.7946   -3.5576    3.6349 C   0  0  0  0  0  0  0  0  0  0  0  0
    6.6842   -4.4143    1.7419 C   0  0  0  0  0  0  0  0  0  0  0  0
    5.7571   -4.8484    0.7879 C   0  0  0  0  0  0  0  0  0  0  0  0
    4.3238   -5.2014    0.9412 C   0  0  0  0  0  0  0  0  0  0  0  0
    3.7505   -5.7651    2.0337 C   0  0  0  0  0  0  0  0  0  0  0  0
    2.4683   -6.4175    1.9656 C   0  0  0  0  0  0  0  0  0  0  0  0
    1.4385   -6.9437    1.9177 N   0  0  0  0  0  0  0  0  0  0  0  0
    4.4519   -5.8992    3.2843 C   0  0  0  0  0  0  0  0  0  0  0  0
    5.0171   -6.0108    4.2904 N   0  0  0  0  0  0  0  0  0  0  0  0
   -4.6912    3.6633    2.1623 H   0  0  0  0  0  0  0  0  0  0  0  0
   -0.1194    3.9111   -2.1454 H   0  0  0  0  0  0  0  0  0  0  0  0
   -4.3708    6.6992   -2.5347 H   0  0  0  0  0  0  0  0  0  0  0  0
   -2.0713    7.4190   -5.0713 H   0  0  0  0  0  0  0  0  0  0  0  0
   -3.8769    6.1643   -6.4229 H   0  0  0  0  0  0  0  0  0  0  0  0
   -4.4575    3.8461   -5.2689 H   0  0  0  0  0  0  0  0  0  0  0  0
   -2.2611    2.4555   -5.0812 H   0  0  0  0  0  0  0  0  0  0  0  0
   -0.2781    3.8872   -6.1152 H   0  0  0  0  0  0  0  0  0  0  0  0
   -2.2668    4.5304   -7.7389 H   0  0  0  0  0  0  0  0  0  0  0  0
   -1.3515    6.0400   -7.2913 H   0  0  0  0  0  0  0  0  0  0  0  0
   -0.0831    6.1585   -4.8912 H   0  0  0  0  0  0  0  0  0  0  0  0
   -1.5141    3.3313    3.5037 H   0  0  0  0  0  0  0  0  0  0  0  0
   -0.1582    1.3031    3.9182 H   0  0  0  0  0  0  0  0  0  0  0  0
   -3.8950   -2.0926    3.2403 H   0  0  0  0  0  0  0  0  0  0  0  0
   -4.9427   -1.5931    1.8789 H   0  0  0  0  0  0  0  0  0  0  0  0
   -4.4260   -3.7165    0.6729 H   0  0  0  0  0  0  0  0  0  0  0  0
   -3.3183   -4.2113    2.0277 H   0  0  0  0  0  0  0  0  0  0  0  0
   -5.0763   -4.0190    2.3172 H   0  0  0  0  0  0  0  0  0  0  0  0
   -2.9994   -2.3699   -0.5436 H   0  0  0  0  0  0  0  0  0  0  0  0
   -3.9295   -0.8762   -0.3364 H   0  0  0  0  0  0  0  0  0  0  0  0
   -2.0230   -0.5869   -1.8973 H   0  0  0  0  0  0  0  0  0  0  0  0
   -0.8526   -1.0353   -0.6154 H   0  0  0  0  0  0  0  0  0  0  0  0
   -1.8248    0.4794   -0.4632 H   0  0  0  0  0  0  0  0  0  0  0  0
   -4.3383    0.9769    1.2308 H   0  0  0  0  0  0  0  0  0  0  0  0
    0.6495   -2.6816    4.3039 H   0  0  0  0  0  0  0  0  0  0  0  0
    1.2623   -1.0413    4.5592 H   0  0  0  0  0  0  0  0  0  0  0  0
    3.4399   -1.8386    3.3009 H   0  0  0  0  0  0  0  0  0  0  0  0
    3.0941   -2.5511    4.9126 H   0  0  0  0  0  0  0  0  0  0  0  0
    2.7362   -3.4921    3.4338 H   0  0  0  0  0  0  0  0  0  0  0  0
    0.7671    0.2504    1.1268 H   0  0  0  0  0  0  0  0  0  0  0  0
    2.1963   -0.7376    0.9418 H   0  0  0  0  0  0  0  0  0  0  0  0
    1.9449    0.7998    3.5755 H   0  0  0  0  0  0  0  0  0  0  0  0
    3.3806    0.3088    2.6274 H   0  0  0  0  0  0  0  0  0  0  0  0
    2.3465    1.6436    2.0574 H   0  0  0  0  0  0  0  0  0  0  0  0
    2.7523   -3.0286    1.0416 H   0  0  0  0  0  0  0  0  0  0  0  0
   -0.1297   -5.4723   -1.0519 H   0  0  0  0  0  0  0  0  0  0  0  0
   -1.9597   -4.2870    0.0871 H   0  0  0  0  0  0  0  0  0  0  0  0
    2.3146   -5.0851   -1.9264 H   0  0  0  0  0  0  0  0  0  0  0  0
    7.6479   -4.6429   -2.0385 H   0  0  0  0  0  0  0  0  0  0  0  0
    9.3444   -3.9514   -0.3599 H   0  0  0  0  0  0  0  0  0  0  0  0
    7.9658   -2.8573    3.8815 H   0  0  0  0  0  0  0  0  0  0  0  0
    9.7238   -3.1711    4.0958 H   0  0  0  0  0  0  0  0  0  0  0  0
    8.5795   -4.5690    4.0508 H   0  0  0  0  0  0  0  0  0  0  0  0
    6.3865   -4.2743    2.7689 H   0  0  0  0  0  0  0  0  0  0  0  0
  1  2  2  3
  2  3  1  0
  3  4  2  0
  3  5  1  0
  5  6  2  0
  6  7  1  0
  7  8  2  0
  8  9  1  0
  9 10  2  0
 10 11  1  0
 11 12  2  3
 12 13  1  0
 13 14  3  0
 12 15  1  0
 15 16  3  0
  8 17  1  0
 17 18  1  0
 18 19  1  0
 19 20  2  0
 20 21  1  0
 21 22  1  0
 21 23  1  0
  1 24  1  0
 24 25  2  0
 25 26  1  0
 26 27  2  0
 27 28  1  0
 28 29  2  0
 29 30  1  0
 30 31  1  0
 31 32  1  0
 30 33  1  0
 33 34  1  0
 30 35  1  0
 35 36  2  0
 29 37  1  0
 37 38  2  0
 38 39  1  0
 39 40  1  0
 40 41  1  0
 39 42  1  0
 42 43  1  0
 38 44  1  0
 44 45  2  0
 45 46  1  0
 46 47  2  0
 45 48  1  0
 48 49  2  3
 49 50  1  0
 50 51  2  0
 50 52  1  0
 52 53  2  0
 53 54  1  0
 54 55  2  0
 55 56  1  0
 56 57  1  0
 55 58  1  0
 58 59  2  0
 59 60  1  0
 60 61  2  3
 61 62  1  0
 62 63  3  0
 61 64  1  0
 64 65  3  0
 11  2  1  0
 23 17  1  0
 36 24  1  0
 47 37  1  0
 60 49  1  0
 10  5  1  0
 22 18  1  0
 35 27  1  0
 59 52  1  0
 23  7  1  0
 39 28  1  0
  1 66  1  0
  6 67  1  0
  9 68  1  0
 17 69  1  0
 18 70  1  0
 19 71  1  0
 20 72  1  0
 21 73  1  0
 22 74  1  0
 22 75  1  0
 23 76  1  0
 25 77  1  0
 26 78  1  0
 31 79  1  0
 31 80  1  0
 32 81  1  0
 32 82  1  0
 32 83  1  0
 33 84  1  0
 33 85  1  0
 34 86  1  0
 34 87  1  0
 34 88  1  0
 36 89  1  0
 40 90  1  0
 40 91  1  0
 41 92  1  0
 41 93  1  0
 41 94  1  0
 42 95  1  0
 42 96  1  0
 43 97  1  0
 43 98  1  0
 43 99  1  0
 44100  1  0
 46101  1  0
 47102  1  0
 48103  1  0
 53104  1  0
 54105  1  0
 57106  1  0
 57107  1  0
 57108  1  0
 58109  1  0
M  END

