
     RDKit          3D

 97108  0  0  0  0  0  0  0  0999 V2000
   -2.8330   -1.3885   -4.8037 C   0  0  0  0  0  0  0  0  0  0  0  0
   -2.2374   -0.1888   -4.9907 C   0  0  0  0  0  0  0  0  0  0  0  0
   -1.2698    0.4351   -4.0601 C   0  0  0  0  0  0  0  0  0  0  0  0
   -0.8030   -0.0682   -3.0067 O   0  0  0  0  0  0  0  0  0  0  0  0
   -0.8078    1.6681   -4.6268 C   0  0  0  0  0  0  0  0  0  0  0  0
    0.0466    2.6075   -4.0060 C   0  0  0  0  0  0  0  0  0  0  0  0
    0.2575    3.7485   -4.7538 C   0  0  0  0  0  0  0  0  0  0  0  0
   -0.3191    3.9466   -6.0439 C   0  0  0  0  0  0  0  0  0  0  0  0
   -1.1724    3.0448   -6.6491 C   0  0  0  0  0  0  0  0  0  0  0  0
   -1.3980    1.8549   -5.9031 C   0  0  0  0  0  0  0  0  0  0  0  0
   -2.2819    0.6965   -6.2075 C   0  0  0  0  0  0  0  0  0  0  0  0
   -2.8897    0.4530   -7.4044 C   0  0  0  0  0  0  0  0  0  0  0  0
   -2.4576    1.0908   -8.6180 C   0  0  0  0  0  0  0  0  0  0  0  0
   -2.0940    1.5755   -9.6017 N   0  0  0  0  0  0  0  0  0  0  0  0
   -3.9072   -0.5506   -7.5850 C   0  0  0  0  0  0  0  0  0  0  0  0
   -4.7464   -1.3324   -7.7469 N   0  0  0  0  0  0  0  0  0  0  0  0
    0.3934    5.2536   -6.1844 C   0  0  0  0  0  0  0  0  0  0  0  0
    1.6484    5.2844   -7.1158 C   0  0  0  0  0  0  0  0  0  0  0  0
    2.3840    6.5597   -6.7768 C   0  0  0  0  0  0  0  0  0  0  0  0
    2.9026    6.3850   -5.5552 C   0  0  0  0  0  0  0  0  0  0  0  0
    2.5016    4.9955   -5.1116 C   0  0  0  0  0  0  0  0  0  0  0  0
    2.5930    4.2887   -6.4584 C   0  0  0  0  0  0  0  0  0  0  0  0
    0.9667    5.0564   -4.8457 C   0  0  0  0  0  0  0  0  0  0  0  0
   -2.6204   -2.2076   -3.5914 C   0  0  0  0  0  0  0  0  0  0  0  0
   -1.9163   -3.4319   -3.7121 C   0  0  0  0  0  0  0  0  0  0  0  0
   -1.3773   -4.0540   -2.5728 C   0  0  0  0  0  0  0  0  0  0  0  0
   -1.5495   -3.4264   -1.3315 C   0  0  0  0  0  0  0  0  0  0  0  0
   -0.8534   -3.6668   -0.1915 N   0  0  0  0  0  0  0  0  0  0  0  0
    0.1977   -4.6709    0.0069 C   0  0  0  0  0  0  0  0  0  0  0  0
   -0.4024   -5.9927    0.4601 C   0  0  0  0  0  0  0  0  0  0  0  0
   -1.1934   -2.6568    0.6537 C   0  0  0  0  0  0  0  0  0  0  0  0
   -2.1133   -1.7893    0.0579 C   0  0  0  0  0  0  0  0  0  0  0  0
   -2.3262   -2.2897   -1.2098 C   0  0  0  0  0  0  0  0  0  0  0  0
   -2.9257   -1.6938   -2.3109 C   0  0  0  0  0  0  0  0  0  0  0  0
   -2.4950   -0.5644    0.6406 C   0  0  0  0  0  0  0  0  0  0  0  0
   -1.8885   -0.2506    1.8686 C   0  0  0  0  0  0  0  0  0  0  0  0
   -0.9675   -1.1167    2.4469 C   0  0  0  0  0  0  0  0  0  0  0  0
   -0.5996   -2.3446    1.8828 C   0  0  0  0  0  0  0  0  0  0  0  0
   -0.4220   -0.4369    3.5040 C   0  0  0  0  0  0  0  0  0  0  0  0
    0.7261   -0.7140    4.2338 C   0  0  0  0  0  0  0  0  0  0  0  0
    1.1566    0.2079    5.2049 C   0  0  0  0  0  0  0  0  0  0  0  0
    0.4630    1.4441    5.3187 C   0  0  0  0  0  0  0  0  0  0  0  0
   -0.6387    1.7469    4.4901 C   0  0  0  0  0  0  0  0  0  0  0  0
   -1.0571    0.7803    3.5710 C   0  0  0  0  0  0  0  0  0  0  0  0
   -1.9746    0.9078    2.5729 N   0  0  0  0  0  0  0  0  0  0  0  0
   -2.6630    2.1359    2.1691 C   0  0  0  0  0  0  0  0  0  0  0  0
   -1.7809    2.9543    1.2243 C   0  0  0  0  0  0  0  0  0  0  0  0
    2.4450    0.0399    5.9284 C   0  0  0  0  0  0  0  0  0  0  0  0
    3.1239   -1.1104    6.1011 C   0  0  0  0  0  0  0  0  0  0  0  0
    2.6683   -2.4714    5.8177 C   0  0  0  0  0  0  0  0  0  0  0  0
    1.4884   -2.8921    5.9761 O   0  0  0  0  0  0  0  0  0  0  0  0
    3.8334   -3.3141    5.5848 C   0  0  0  0  0  0  0  0  0  0  0  0
    3.8890   -4.6942    5.3254 C   0  0  0  0  0  0  0  0  0  0  0  0
    2.4360   -5.6270    4.9864 Cl  0  0  0  0  0  0  0  0  0  0  0  0
    5.1469   -5.3091    5.2840 C   0  0  0  0  0  0  0  0  0  0  0  0
    6.3141   -4.5671    5.5266 C   0  0  0  0  0  0  0  0  0  0  0  0
    8.0159   -5.4491    5.6150 Br  0  0  0  0  0  0  0  0  0  0  0  0
    6.2405   -3.1911    5.8057 C   0  0  0  0  0  0  0  0  0  0  0  0
    4.9819   -2.5645    5.8193 C   0  0  0  0  0  0  0  0  0  0  0  0
    4.6002   -1.1824    6.2300 C   0  0  0  0  0  0  0  0  0  0  0  0
    5.3659   -0.2855    6.8849 C   0  0  0  0  0  0  0  0  0  0  0  0
    4.8269    0.3738    8.0434 C   0  0  0  0  0  0  0  0  0  0  0  0
    4.4318    0.8195    9.0289 N   0  0  0  0  0  0  0  0  0  0  0  0
    6.8013   -0.2879    6.8221 C   0  0  0  0  0  0  0  0  0  0  0  0
    7.9636   -0.2764    6.8432 N   0  0  0  0  0  0  0  0  0  0  0  0
   -3.4101   -1.8644   -5.5785 H   0  0  0  0  0  0  0  0  0  0  0  0
    0.5086    2.4325   -3.0379 H   0  0  0  0  0  0  0  0  0  0  0  0
   -1.6138    3.2786   -7.6057 H   0  0  0  0  0  0  0  0  0  0  0  0
   -0.2965    6.1253   -6.2720 H   0  0  0  0  0  0  0  0  0  0  0  0
    1.4418    5.1199   -8.1923 H   0  0  0  0  0  0  0  0  0  0  0  0
    2.5437    7.4204   -7.4183 H   0  0  0  0  0  0  0  0  0  0  0  0
    3.5625    7.0823   -5.0449 H   0  0  0  0  0  0  0  0  0  0  0  0
    3.1208    4.5692   -4.2963 H   0  0  0  0  0  0  0  0  0  0  0  0
    2.2327    3.2361   -6.4524 H   0  0  0  0  0  0  0  0  0  0  0  0
    3.6193    4.2976   -6.9011 H   0  0  0  0  0  0  0  0  0  0  0  0
    0.6356    5.7880   -4.0701 H   0  0  0  0  0  0  0  0  0  0  0  0
   -1.6963   -3.8404   -4.6977 H   0  0  0  0  0  0  0  0  0  0  0  0
   -0.7602   -4.9387   -2.6824 H   0  0  0  0  0  0  0  0  0  0  0  0
    0.9418   -4.3218    0.7530 H   0  0  0  0  0  0  0  0  0  0  0  0
    0.7557   -4.8301   -0.9381 H   0  0  0  0  0  0  0  0  0  0  0  0
    0.4138   -6.7218    0.6633 H   0  0  0  0  0  0  0  0  0  0  0  0
   -1.0586   -6.4041   -0.3397 H   0  0  0  0  0  0  0  0  0  0  0  0
   -0.9939   -5.8444    1.3910 H   0  0  0  0  0  0  0  0  0  0  0  0
   -3.4361   -0.7517   -2.1989 H   0  0  0  0  0  0  0  0  0  0  0  0
   -3.1545    0.1291    0.1306 H   0  0  0  0  0  0  0  0  0  0  0  0
    0.1555   -2.9689    2.3437 H   0  0  0  0  0  0  0  0  0  0  0  0
    1.3023   -1.5786    3.9591 H   0  0  0  0  0  0  0  0  0  0  0  0
    0.8195    2.2018    6.0080 H   0  0  0  0  0  0  0  0  0  0  0  0
   -1.1115    2.7183    4.5487 H   0  0  0  0  0  0  0  0  0  0  0  0
   -2.9153    2.7553    3.0606 H   0  0  0  0  0  0  0  0  0  0  0  0
   -3.6170    1.8860    1.6681 H   0  0  0  0  0  0  0  0  0  0  0  0
   -0.8219    3.1976    1.7237 H   0  0  0  0  0  0  0  0  0  0  0  0
   -2.2965    3.8906    0.9432 H   0  0  0  0  0  0  0  0  0  0  0  0
   -1.5717    2.3575    0.3056 H   0  0  0  0  0  0  0  0  0  0  0  0
    2.9600    0.9727    6.1498 H   0  0  0  0  0  0  0  0  0  0  0  0
    5.2168   -6.3702    5.0789 H   0  0  0  0  0  0  0  0  0  0  0  0
    7.1469   -2.6611    6.0380 H   0  0  0  0  0  0  0  0  0  0  0  0
  1  2  2  3
  2  3  1  0
  3  4  2  0
  3  5  1  0
  5  6  2  0
  6  7  1  0
  7  8  2  0
  8  9  1  0
  9 10  2  0
 10 11  1  0
 11 12  2  3
 12 13  1  0
 13 14  3  0
 12 15  1  0
 15 16  3  0
  8 17  1  0
 17 18  1  0
 18 19  1  0
 19 20  2  0
 20 21  1  0
 21 22  1  0
 21 23  1  0
  1 24  1  0
 24 25  2  0
 25 26  1  0
 26 27  2  0
 27 28  1  0
 28 29  1  0
 29 30  1  0
 28 31  1  0
 31 32  2  0
 32 33  1  0
 33 34  2  0
 32 35  1  0
 35 36  2  0
 36 37  1  0
 37 38  2  0
 37 39  1  0
 39 40  2  0
 40 41  1  0
 41 42  2  0
 42 43  1  0
 43 44  2  0
 44 45  1  0
 45 46  1  0
 46 47  1  0
 41 48  1  0
 48 49  2  3
 49 50  1  0
 50 51  2  0
 50 52  1  0
 52 53  2  0
 53 54  1  0
 53 55  1  0
 55 56  2  0
 56 57  1  0
 56 58  1  0
 58 59  2  0
 59 60  1  0
 60 61  2  3
 61 62  1  0
 62 63  3  0
 61 64  1  0
 64 65  3  0
 11  2  1  0
 23 17  1  0
 34 24  1  0
 45 36  1  0
 60 49  1  0
 10  5  1  0
 22 18  1  0
 33 27  1  0
 44 39  1  0
 59 52  1  0
 23  7  1  0
 38 31  1  0
  1 66  1  0
  6 67  1  0
  9 68  1  0
 17 69  1  0
 18 70  1  0
 19 71  1  0
 20 72  1  0
 21 73  1  0
 22 74  1  0
 22 75  1  0
 23 76  1  0
 25 77  1  0
 26 78  1  0
 29 79  1  0
 29 80  1  0
 30 81  1  0
 30 82  1  0
 30 83  1  0
 34 84  1  0
 35 85  1  0
 38 86  1  0
 40 87  1  0
 42 88  1  0
 43 89  1  0
 46 90  1  0
 46 91  1  0
 47 92  1  0
 47 93  1  0
 47 94  1  0
 48 95  1  0
 55 96  1  0
 58 97  1  0
M  END

