
     RDKit          3D

143159  0  0  0  0  0  0  0  0999 V2000
    7.5001    0.0651    4.0978 C   0  0  0  0  0  0  0  0  0  0  0  0
    6.7961    0.8425    4.9475 C   0  0  0  0  0  0  0  0  0  0  0  0
    5.4076    0.5714    5.3479 C   0  0  0  0  0  0  0  0  0  0  0  0
    4.9057   -0.5606    5.5758 O   0  0  0  0  0  0  0  0  0  0  0  0
    4.6932    1.8180    5.4433 C   0  0  0  0  0  0  0  0  0  0  0  0
    3.2902    1.9801    5.4833 C   0  0  0  0  0  0  0  0  0  0  0  0
    2.8758    3.2820    5.2949 C   0  0  0  0  0  0  0  0  0  0  0  0
    3.7820    4.3757    5.0979 C   0  0  0  0  0  0  0  0  0  0  0  0
    5.1617    4.2227    5.0709 C   0  0  0  0  0  0  0  0  0  0  0  0
    5.6093    2.8827    5.2603 C   0  0  0  0  0  0  0  0  0  0  0  0
    6.9774    2.3155    5.0982 C   0  0  0  0  0  0  0  0  0  0  0  0
    8.1550    2.9749    5.2215 C   0  0  0  0  0  0  0  0  0  0  0  0
    8.2173    4.3725    5.5549 C   0  0  0  0  0  0  0  0  0  0  0  0
    8.2795    5.4947    5.8297 N   0  0  0  0  0  0  0  0  0  0  0  0
    9.4176    2.2829    5.1806 C   0  0  0  0  0  0  0  0  0  0  0  0
   10.4347    1.7321    5.1482 N   0  0  0  0  0  0  0  0  0  0  0  0
    2.6263    5.3183    4.9341 C   0  0  0  0  0  0  0  0  0  0  0  0
    2.3081    6.2584    6.1313 C   0  0  0  0  0  0  0  0  0  0  0  0
    0.9156    6.7922    5.8792 C   0  0  0  0  0  0  0  0  0  0  0  0
    0.0772    5.7628    6.0601 C   0  0  0  0  0  0  0  0  0  0  0  0
    0.9300    4.5730    6.4260 C   0  0  0  0  0  0  0  0  0  0  0  0
    1.9831    5.2877    7.2572 C   0  0  0  0  0  0  0  0  0  0  0  0
    1.7020    4.1942    5.1299 C   0  0  0  0  0  0  0  0  0  0  0  0
    6.8148   -0.9849    3.3298 C   0  0  0  0  0  0  0  0  0  0  0  0
    5.7697   -0.5682    2.0841 S   0  0  0  0  0  0  0  0  0  0  0  0
    4.8239   -1.9472    2.1756 C   0  0  0  0  0  0  0  0  0  0  0  0
    3.4917   -2.1081    1.6034 C   0  0  0  0  0  0  0  0  0  0  0  0
    2.6717   -3.1232    2.1401 C   0  0  0  0  0  0  0  0  0  0  0  0
    3.1880   -4.0182    3.0946 O   0  0  0  0  0  0  0  0  0  0  0  0
    4.5463   -4.0338    3.5918 C   0  0  0  0  0  0  0  0  0  0  0  0
    5.2799   -5.2700    3.0088 C   0  0  0  0  0  0  0  0  0  0  0  0
    5.3907   -5.2559    1.4807 C   0  0  0  0  0  0  0  0  0  0  0  0
    4.4779   -4.1210    5.1417 C   0  0  0  0  0  0  0  0  0  0  0  0
    3.5478   -5.2159    5.6739 C   0  0  0  0  0  0  0  0  0  0  0  0
    5.2959   -2.7623    3.1914 C   0  0  0  0  0  0  0  0  0  0  0  0
    6.4418   -2.2341    3.8255 C   0  0  0  0  0  0  0  0  0  0  0  0
    1.3197   -3.2085    1.7617 C   0  0  0  0  0  0  0  0  0  0  0  0
    0.8221   -2.2683    0.8552 C   0  0  0  0  0  0  0  0  0  0  0  0
   -0.5276   -2.0606    0.3736 C   0  0  0  0  0  0  0  0  0  0  0  0
   -0.5252   -0.9615   -0.4720 C   0  0  0  0  0  0  0  0  0  0  0  0
    0.8641   -0.3688   -0.6174 C   0  0  0  0  0  0  0  0  0  0  0  0
    1.6296   -1.2844    0.3132 C   0  0  0  0  0  0  0  0  0  0  0  0
    2.9752   -1.1954    0.6672 C   0  0  0  0  0  0  0  0  0  0  0  0
    0.9179    1.1121   -0.1364 C   0  0  0  0  0  0  0  0  0  0  0  0
    0.5505    1.3088    1.3401 C   0  0  0  0  0  0  0  0  0  0  0  0
    1.4413   -0.5506   -2.0523 C   0  0  0  0  0  0  0  0  0  0  0  0
    0.6815    0.1703   -3.1699 C   0  0  0  0  0  0  0  0  0  0  0  0
   -1.7207   -0.4823   -1.0112 C   0  0  0  0  0  0  0  0  0  0  0  0
   -2.9121   -1.1649   -0.7205 C   0  0  0  0  0  0  0  0  0  0  0  0
   -4.1679   -0.8476   -1.3932 C   0  0  0  0  0  0  0  0  0  0  0  0
   -5.3470   -1.5179   -1.1019 C   0  0  0  0  0  0  0  0  0  0  0  0
   -5.4317   -2.3740    0.1660 C   0  0  0  0  0  0  0  0  0  0  0  0
   -4.1246   -2.9398    0.4196 O   0  0  0  0  0  0  0  0  0  0  0  0
   -2.9133   -2.2773    0.1456 C   0  0  0  0  0  0  0  0  0  0  0  0
   -1.7077   -2.7336    0.7027 C   0  0  0  0  0  0  0  0  0  0  0  0
   -6.3855   -3.5970   -0.0061 C   0  0  0  0  0  0  0  0  0  0  0  0
   -7.8694   -3.3872    0.3019 C   0  0  0  0  0  0  0  0  0  0  0  0
   -5.7643   -1.4884    1.4116 C   0  0  0  0  0  0  0  0  0  0  0  0
   -6.8479   -0.4133    1.2307 C   0  0  0  0  0  0  0  0  0  0  0  0
   -6.3612   -1.2754   -2.0553 C   0  0  0  0  0  0  0  0  0  0  0  0
   -5.9287   -0.4674   -3.1046 C   0  0  0  0  0  0  0  0  0  0  0  0
   -4.3364    0.0078   -2.8245 S   0  0  0  0  0  0  0  0  0  0  0  0
   -6.6861   -0.1757   -4.3349 C   0  0  0  0  0  0  0  0  0  0  0  0
   -6.1234   -0.2204   -5.5587 C   0  0  0  0  0  0  0  0  0  0  0  0
   -6.5856    0.5925   -6.6844 C   0  0  0  0  0  0  0  0  0  0  0  0
   -7.7299    1.1090   -6.8027 O   0  0  0  0  0  0  0  0  0  0  0  0
   -5.4540    0.8312   -7.5651 C   0  0  0  0  0  0  0  0  0  0  0  0
   -5.3898    1.6916   -8.6883 C   0  0  0  0  0  0  0  0  0  0  0  0
   -4.1136    1.8325   -9.2149 C   0  0  0  0  0  0  0  0  0  0  0  0
   -2.9642    1.1951   -8.6507 C   0  0  0  0  0  0  0  0  0  0  0  0
   -3.0204    0.3399   -7.5648 C   0  0  0  0  0  0  0  0  0  0  0  0
   -4.3277    0.1411   -7.0495 C   0  0  0  0  0  0  0  0  0  0  0  0
   -4.7571   -0.6901   -5.9054 C   0  0  0  0  0  0  0  0  0  0  0  0
   -4.2183   -1.8851   -5.5488 C   0  0  0  0  0  0  0  0  0  0  0  0
   -2.9531   -2.3457   -6.0599 C   0  0  0  0  0  0  0  0  0  0  0  0
   -1.9376   -2.7231   -6.4670 N   0  0  0  0  0  0  0  0  0  0  0  0
   -4.9638   -2.8414   -4.7656 C   0  0  0  0  0  0  0  0  0  0  0  0
   -5.5614   -3.6139   -4.1440 N   0  0  0  0  0  0  0  0  0  0  0  0
   -2.0784    1.8484   -9.6692 C   0  0  0  0  0  0  0  0  0  0  0  0
   -1.5128    0.9538  -10.8115 C   0  0  0  0  0  0  0  0  0  0  0  0
   -2.4787   -0.1697  -11.1083 C   0  0  0  0  0  0  0  0  0  0  0  0
   -3.5597    0.3934  -11.6468 C   0  0  0  0  0  0  0  0  0  0  0  0
   -3.2919    1.8798  -11.7085 C   0  0  0  0  0  0  0  0  0  0  0  0
   -1.8057    1.8412  -12.0094 C   0  0  0  0  0  0  0  0  0  0  0  0
   -3.2605    2.4763  -10.2687 C   0  0  0  0  0  0  0  0  0  0  0  0
    8.4100    0.4469    3.6575 H   0  0  0  0  0  0  0  0  0  0  0  0
    2.5985    1.1512    5.5711 H   0  0  0  0  0  0  0  0  0  0  0  0
    5.8084    5.0531    4.8410 H   0  0  0  0  0  0  0  0  0  0  0  0
    2.5720    5.7876    3.9239 H   0  0  0  0  0  0  0  0  0  0  0  0
    3.0760    7.0287    6.3592 H   0  0  0  0  0  0  0  0  0  0  0  0
    0.6270    7.8193    5.6866 H   0  0  0  0  0  0  0  0  0  0  0  0
   -1.0073    5.8127    6.0366 H   0  0  0  0  0  0  0  0  0  0  0  0
    0.3931    3.7409    6.9275 H   0  0  0  0  0  0  0  0  0  0  0  0
    1.5646    5.7884    8.1666 H   0  0  0  0  0  0  0  0  0  0  0  0
    2.8379    4.6429    7.5626 H   0  0  0  0  0  0  0  0  0  0  0  0
    1.0718    3.9516    4.2444 H   0  0  0  0  0  0  0  0  0  0  0  0
    4.7361   -6.1981    3.2872 H   0  0  0  0  0  0  0  0  0  0  0  0
    6.3066   -5.3421    3.4344 H   0  0  0  0  0  0  0  0  0  0  0  0
    4.3889   -5.1596    1.0123 H   0  0  0  0  0  0  0  0  0  0  0  0
    5.8444   -6.2064    1.1306 H   0  0  0  0  0  0  0  0  0  0  0  0
    6.0395   -4.4233    1.1392 H   0  0  0  0  0  0  0  0  0  0  0  0
    4.1130   -3.1493    5.5411 H   0  0  0  0  0  0  0  0  0  0  0  0
    5.4905   -4.2978    5.5647 H   0  0  0  0  0  0  0  0  0  0  0  0
    3.4964   -5.1449    6.7824 H   0  0  0  0  0  0  0  0  0  0  0  0
    3.9309   -6.2250    5.4174 H   0  0  0  0  0  0  0  0  0  0  0  0
    2.5182   -5.0945    5.2752 H   0  0  0  0  0  0  0  0  0  0  0  0
    6.9020   -2.6732    4.7020 H   0  0  0  0  0  0  0  0  0  0  0  0
    0.6761   -3.9664    2.1904 H   0  0  0  0  0  0  0  0  0  0  0  0
    3.5901   -0.4021    0.2582 H   0  0  0  0  0  0  0  0  0  0  0  0
    1.9370    1.5200   -0.3002 H   0  0  0  0  0  0  0  0  0  0  0  0
    0.2186    1.7271   -0.7397 H   0  0  0  0  0  0  0  0  0  0  0  0
    1.3069    0.8392    2.0008 H   0  0  0  0  0  0  0  0  0  0  0  0
    0.5173    2.3934    1.5731 H   0  0  0  0  0  0  0  0  0  0  0  0
   -0.4471    0.8775    1.5607 H   0  0  0  0  0  0  0  0  0  0  0  0
    1.4728   -1.6336   -2.3048 H   0  0  0  0  0  0  0  0  0  0  0  0
    2.4918   -0.1853   -2.0642 H   0  0  0  0  0  0  0  0  0  0  0  0
    1.2724    0.1030   -4.1086 H   0  0  0  0  0  0  0  0  0  0  0  0
    0.5382    1.2459   -2.9394 H   0  0  0  0  0  0  0  0  0  0  0  0
   -0.2969   -0.3144   -3.3569 H   0  0  0  0  0  0  0  0  0  0  0  0
   -1.7260    0.3972   -1.6447 H   0  0  0  0  0  0  0  0  0  0  0  0
   -1.6947   -3.5806    1.3776 H   0  0  0  0  0  0  0  0  0  0  0  0
   -6.2868   -3.9991   -1.0383 H   0  0  0  0  0  0  0  0  0  0  0  0
   -6.0413   -4.4117    0.6678 H   0  0  0  0  0  0  0  0  0  0  0  0
   -8.0240   -3.2111    1.3859 H   0  0  0  0  0  0  0  0  0  0  0  0
   -8.4276   -4.3067    0.0344 H   0  0  0  0  0  0  0  0  0  0  0  0
   -8.3051   -2.5532   -0.2780 H   0  0  0  0  0  0  0  0  0  0  0  0
   -6.0303   -2.1347    2.2739 H   0  0  0  0  0  0  0  0  0  0  0  0
   -4.8390   -0.9458    1.7078 H   0  0  0  0  0  0  0  0  0  0  0  0
   -7.8636   -0.8508    1.2015 H   0  0  0  0  0  0  0  0  0  0  0  0
   -6.6794    0.2033    0.3226 H   0  0  0  0  0  0  0  0  0  0  0  0
   -6.8145    0.2762    2.1039 H   0  0  0  0  0  0  0  0  0  0  0  0
   -7.3393   -1.7229   -2.0451 H   0  0  0  0  0  0  0  0  0  0  0  0
   -7.6820    0.2374   -4.2244 H   0  0  0  0  0  0  0  0  0  0  0  0
   -6.2465    2.2261   -9.0779 H   0  0  0  0  0  0  0  0  0  0  0  0
   -2.1297   -0.0976   -7.1452 H   0  0  0  0  0  0  0  0  0  0  0  0
   -1.3519    2.5778   -9.2424 H   0  0  0  0  0  0  0  0  0  0  0  0
   -0.4544    0.6432  -10.6931 H   0  0  0  0  0  0  0  0  0  0  0  0
   -2.3157   -1.2339  -10.9673 H   0  0  0  0  0  0  0  0  0  0  0  0
   -4.4286   -0.1334  -12.0246 H   0  0  0  0  0  0  0  0  0  0  0  0
   -3.9107    2.4404  -12.4387 H   0  0  0  0  0  0  0  0  0  0  0  0
   -1.3112    2.8416  -11.9549 H   0  0  0  0  0  0  0  0  0  0  0  0
   -1.5599    1.3598  -12.9860 H   0  0  0  0  0  0  0  0  0  0  0  0
   -3.2435    3.5880  -10.2211 H   0  0  0  0  0  0  0  0  0  0  0  0
  1  2  2  3
  2  3  1  0
  3  4  2  0
  3  5  1  0
  5  6  2  0
  6  7  1  0
  7  8  2  0
  8  9  1  0
  9 10  2  0
 10 11  1  0
 11 12  2  3
 12 13  1  0
 13 14  3  0
 12 15  1  0
 15 16  3  0
  8 17  1  0
 17 18  1  0
 18 19  1  0
 19 20  2  0
 20 21  1  0
 21 22  1  0
 21 23  1  0
  1 24  1  0
 24 25  1  0
 25 26  1  0
 26 27  1  0
 27 28  2  0
 28 29  1  0
 29 30  1  0
 30 31  1  0
 31 32  1  0
 30 33  1  0
 33 34  1  0
 30 35  1  0
 35 36  1  0
 28 37  1  0
 37 38  2  0
 38 39  1  0
 39 40  2  0
 40 41  1  0
 41 42  1  0
 42 43  2  0
 41 44  1  0
 44 45  1  0
 41 46  1  0
 46 47  1  0
 40 48  1  0
 48 49  2  0
 49 50  1  0
 50 51  2  0
 51 52  1  0
 52 53  1  0
 53 54  1  0
 54 55  2  0
 52 56  1  0
 56 57  1  0
 52 58  1  0
 58 59  1  0
 51 60  1  0
 60 61  2  0
 61 62  1  0
 61 63  1  0
 63 64  2  3
 64 65  1  0
 65 66  2  0
 65 67  1  0
 67 68  2  0
 68 69  1  0
 69 70  2  0
 70 71  1  0
 71 72  2  0
 72 73  1  0
 73 74  2  3
 74 75  1  0
 75 76  3  0
 74 77  1  0
 77 78  3  0
 70 79  1  0
 79 80  1  0
 80 81  1  0
 81 82  2  0
 82 83  1  0
 83 84  1  0
 83 85  1  0
 11  2  1  0
 23 17  1  0
 36 24  2  0
 42 38  1  0
 54 49  1  0
 73 64  1  0
 85 79  1  0
 10  5  1  0
 22 18  1  0
 35 26  2  0
 55 39  1  0
 72 67  1  0
 84 80  1  0
 23  7  1  0
 43 27  1  0
 62 50  1  0
 85 69  1  0
  1 86  1  0
  6 87  1  0
  9 88  1  0
 17 89  1  0
 18 90  1  0
 19 91  1  0
 20 92  1  0
 21 93  1  0
 22 94  1  0
 22 95  1  0
 23 96  1  0
 31 97  1  0
 31 98  1  0
 32 99  1  0
 32100  1  0
 32101  1  0
 33102  1  0
 33103  1  0
 34104  1  0
 34105  1  0
 34106  1  0
 36107  1  0
 37108  1  0
 43109  1  0
 44110  1  0
 44111  1  0
 45112  1  0
 45113  1  0
 45114  1  0
 46115  1  0
 46116  1  0
 47117  1  0
 47118  1  0
 47119  1  0
 48120  1  0
 55121  1  0
 56122  1  0
 56123  1  0
 57124  1  0
 57125  1  0
 57126  1  0
 58127  1  0
 58128  1  0
 59129  1  0
 59130  1  0
 59131  1  0
 60132  1  0
 63133  1  0
 68134  1  0
 71135  1  0
 79136  1  0
 80137  1  0
 81138  1  0
 82139  1  0
 83140  1  0
 84141  1  0
 84142  1  0
 85143  1  0
M  END

