
     RDKit          3D

118133  0  0  0  0  0  0  0  0999 V2000
   -2.8317    0.6222    6.3742 C   0  0  0  0  0  0  0  0  0  0  0  0
   -1.8334    1.5110    6.5780 C   0  0  0  0  0  0  0  0  0  0  0  0
   -1.4517    2.6187    5.6965 C   0  0  0  0  0  0  0  0  0  0  0  0
   -2.2406    3.4197    5.1269 O   0  0  0  0  0  0  0  0  0  0  0  0
   -0.0149    2.7714    5.7374 C   0  0  0  0  0  0  0  0  0  0  0  0
    0.7900    3.4939    4.8274 C   0  0  0  0  0  0  0  0  0  0  0  0
    2.1456    3.2779    4.9917 C   0  0  0  0  0  0  0  0  0  0  0  0
    2.6876    2.4200    6.0031 C   0  0  0  0  0  0  0  0  0  0  0  0
    1.9020    1.7202    6.9071 C   0  0  0  0  0  0  0  0  0  0  0  0
    0.5021    1.9280    6.7518 C   0  0  0  0  0  0  0  0  0  0  0  0
   -0.6358    1.2468    7.4305 C   0  0  0  0  0  0  0  0  0  0  0  0
   -0.6273    0.6860    8.6651 C   0  0  0  0  0  0  0  0  0  0  0  0
   -1.8388    0.2594    9.3177 C   0  0  0  0  0  0  0  0  0  0  0  0
   -2.8111   -0.0850    9.8457 N   0  0  0  0  0  0  0  0  0  0  0  0
    0.5627    0.6290    9.4712 C   0  0  0  0  0  0  0  0  0  0  0  0
    1.5122    0.5827   10.1329 N   0  0  0  0  0  0  0  0  0  0  0  0
    4.0787    2.6778    5.4996 C   0  0  0  0  0  0  0  0  0  0  0  0
    4.9963    3.6330    6.3238 C   0  0  0  0  0  0  0  0  0  0  0  0
    4.1583    4.6757    7.0306 C   0  0  0  0  0  0  0  0  0  0  0  0
    3.6600    5.4672    6.0814 C   0  0  0  0  0  0  0  0  0  0  0  0
    4.1711    4.9368    4.7612 C   0  0  0  0  0  0  0  0  0  0  0  0
    5.5550    4.4896    5.2011 C   0  0  0  0  0  0  0  0  0  0  0  0
    3.5223    3.5513    4.4584 C   0  0  0  0  0  0  0  0  0  0  0  0
   -3.6437    0.4921    5.1352 C   0  0  0  0  0  0  0  0  0  0  0  0
   -4.6576   -0.4697    4.9320 C   0  0  0  0  0  0  0  0  0  0  0  0
   -5.0918   -1.3789    5.8998 O   0  0  0  0  0  0  0  0  0  0  0  0
   -4.3129   -2.5120    6.2814 C   0  0  0  0  0  0  0  0  0  0  0  0
   -4.6262   -3.7015    5.3831 C   0  0  0  0  0  0  0  0  0  0  0  0
   -5.1208   -0.4806    3.6117 C   0  0  0  0  0  0  0  0  0  0  0  0
   -6.0366   -1.6218    2.7274 S   0  0  0  0  0  0  0  0  0  0  0  0
   -5.5497   -0.9153    1.2612 C   0  0  0  0  0  0  0  0  0  0  0  0
   -5.4790   -1.2643   -0.0559 C   0  0  0  0  0  0  0  0  0  0  0  0
   -6.1216   -2.2551   -0.8045 C   0  0  0  0  0  0  0  0  0  0  0  0
   -5.8011   -2.3789   -2.1915 C   0  0  0  0  0  0  0  0  0  0  0  0
   -6.4273   -3.3653   -2.8800 N   0  0  0  0  0  0  0  0  0  0  0  0
   -7.3736   -3.9932   -1.6696 S   0  0  0  0  0  0  0  0  0  0  0  0
   -7.0404   -3.1176   -0.3014 N   0  0  0  0  0  0  0  0  0  0  0  0
   -4.8182   -1.5389   -2.7368 C   0  0  0  0  0  0  0  0  0  0  0  0
   -4.1036   -1.6515   -3.8984 C   0  0  0  0  0  0  0  0  0  0  0  0
   -3.9382   -2.8243   -5.1151 S   0  0  0  0  0  0  0  0  0  0  0  0
   -2.3632   -2.2871   -5.4825 C   0  0  0  0  0  0  0  0  0  0  0  0
   -1.3615   -2.6991   -6.3706 C   0  0  0  0  0  0  0  0  0  0  0  0
   -1.4893   -3.6864   -7.3570 O   0  0  0  0  0  0  0  0  0  0  0  0
   -2.0420   -4.9844   -7.1286 C   0  0  0  0  0  0  0  0  0  0  0  0
   -0.9665   -5.9178   -6.5875 C   0  0  0  0  0  0  0  0  0  0  0  0
   -0.1802   -1.9633   -6.1882 C   0  0  0  0  0  0  0  0  0  0  0  0
   -0.4153   -0.7931   -4.9661 S   0  0  0  0  0  0  0  0  0  0  0  0
   -1.9937   -1.2615   -4.6532 C   0  0  0  0  0  0  0  0  0  0  0  0
   -2.9827   -0.8983   -3.7510 C   0  0  0  0  0  0  0  0  0  0  0  0
   -2.9211   -0.2753   -2.5463 N   0  0  0  0  0  0  0  0  0  0  0  0
   -4.1115   -0.6134   -1.9513 C   0  0  0  0  0  0  0  0  0  0  0  0
   -4.5204   -0.4080   -0.6115 C   0  0  0  0  0  0  0  0  0  0  0  0
   -4.0768    0.5195    0.2950 N   0  0  0  0  0  0  0  0  0  0  0  0
   -4.7141    0.1404    1.4349 C   0  0  0  0  0  0  0  0  0  0  0  0
   -4.4710    0.3911    2.7746 C   0  0  0  0  0  0  0  0  0  0  0  0
   -3.2829    1.1920    3.6227 S   0  0  0  0  0  0  0  0  0  0  0  0
   -3.8220    1.9315   -0.0439 C   0  0  0  0  0  0  0  0  0  0  0  0
   -2.6328    2.5139    0.7220 C   0  0  0  0  0  0  0  0  0  0  0  0
   -1.6553    0.0272   -1.8632 C   0  0  0  0  0  0  0  0  0  0  0  0
   -1.0522   -1.2378   -1.2509 C   0  0  0  0  0  0  0  0  0  0  0  0
    1.0465   -2.1367   -6.9914 C   0  0  0  0  0  0  0  0  0  0  0  0
    2.2934   -1.8194   -6.5922 C   0  0  0  0  0  0  0  0  0  0  0  0
    3.3734   -1.5330   -7.5357 C   0  0  0  0  0  0  0  0  0  0  0  0
    3.3721   -1.8516   -8.7545 O   0  0  0  0  0  0  0  0  0  0  0  0
    4.4061   -0.7619   -6.8459 C   0  0  0  0  0  0  0  0  0  0  0  0
    4.0317   -0.6403   -5.5131 C   0  0  0  0  0  0  0  0  0  0  0  0
    4.7636    0.1762   -4.6411 C   0  0  0  0  0  0  0  0  0  0  0  0
    5.9225    0.8084   -5.1064 C   0  0  0  0  0  0  0  0  0  0  0  0
    6.3448    0.6441   -6.4411 C   0  0  0  0  0  0  0  0  0  0  0  0
    7.5137    1.2788   -6.8936 C   0  0  0  0  0  0  0  0  0  0  0  0
    7.9149    1.1430   -8.2237 C   0  0  0  0  0  0  0  0  0  0  0  0
    7.1594    0.3759   -9.1120 C   0  0  0  0  0  0  0  0  0  0  0  0
    5.9941   -0.2620   -8.6796 C   0  0  0  0  0  0  0  0  0  0  0  0
    5.5735   -0.1407   -7.3420 C   0  0  0  0  0  0  0  0  0  0  0  0
    2.7990   -1.4254   -5.2490 C   0  0  0  0  0  0  0  0  0  0  0  0
    2.5066   -2.0475   -4.0773 C   0  0  0  0  0  0  0  0  0  0  0  0
    1.5871   -3.1534   -4.0074 C   0  0  0  0  0  0  0  0  0  0  0  0
    0.8467   -4.0387   -3.9415 N   0  0  0  0  0  0  0  0  0  0  0  0
    3.2066   -1.7610   -2.8508 C   0  0  0  0  0  0  0  0  0  0  0  0
    3.7675   -1.5449   -1.8622 N   0  0  0  0  0  0  0  0  0  0  0  0
   -2.9497   -0.1765    7.0824 H   0  0  0  0  0  0  0  0  0  0  0  0
    0.3882    4.0965    4.0223 H   0  0  0  0  0  0  0  0  0  0  0  0
    2.3391    1.0246    7.6045 H   0  0  0  0  0  0  0  0  0  0  0  0
    4.5862    1.7724    5.0934 H   0  0  0  0  0  0  0  0  0  0  0  0
    5.7531    3.1270    6.9597 H   0  0  0  0  0  0  0  0  0  0  0  0
    4.0458    4.8146    8.1012 H   0  0  0  0  0  0  0  0  0  0  0  0
    3.0707    6.3631    6.2426 H   0  0  0  0  0  0  0  0  0  0  0  0
    4.1488    5.6638    3.9213 H   0  0  0  0  0  0  0  0  0  0  0  0
    6.1992    5.3275    5.5616 H   0  0  0  0  0  0  0  0  0  0  0  0
    6.1012    3.9059    4.4248 H   0  0  0  0  0  0  0  0  0  0  0  0
    3.6885    3.1733    3.4239 H   0  0  0  0  0  0  0  0  0  0  0  0
   -4.5671   -2.7826    7.3280 H   0  0  0  0  0  0  0  0  0  0  0  0
   -3.2256   -2.2884    6.2249 H   0  0  0  0  0  0  0  0  0  0  0  0
   -5.7054   -3.9454    5.4464 H   0  0  0  0  0  0  0  0  0  0  0  0
   -4.3592   -3.4720    4.3333 H   0  0  0  0  0  0  0  0  0  0  0  0
   -4.0375   -4.5831    5.7097 H   0  0  0  0  0  0  0  0  0  0  0  0
   -2.4136   -5.3912   -8.0940 H   0  0  0  0  0  0  0  0  0  0  0  0
   -2.8957   -4.9548   -6.4230 H   0  0  0  0  0  0  0  0  0  0  0  0
   -0.5709   -5.5254   -5.6281 H   0  0  0  0  0  0  0  0  0  0  0  0
   -1.3971   -6.9286   -6.4141 H   0  0  0  0  0  0  0  0  0  0  0  0
   -0.1340   -6.0007   -7.3224 H   0  0  0  0  0  0  0  0  0  0  0  0
   -4.7321    2.5330    0.1677 H   0  0  0  0  0  0  0  0  0  0  0  0
   -3.6391    2.0399   -1.1370 H   0  0  0  0  0  0  0  0  0  0  0  0
   -2.0395    3.1769    0.0544 H   0  0  0  0  0  0  0  0  0  0  0  0
   -2.9953    3.1195    1.5737 H   0  0  0  0  0  0  0  0  0  0  0  0
   -1.9604    1.7073    1.0852 H   0  0  0  0  0  0  0  0  0  0  0  0
   -1.7877    0.7653   -1.0663 H   0  0  0  0  0  0  0  0  0  0  0  0
   -0.9351    0.4800   -2.5732 H   0  0  0  0  0  0  0  0  0  0  0  0
   -0.0738   -1.0025   -0.7880 H   0  0  0  0  0  0  0  0  0  0  0  0
   -0.9037   -2.0157   -2.0287 H   0  0  0  0  0  0  0  0  0  0  0  0
   -1.7245   -1.6365   -0.4598 H   0  0  0  0  0  0  0  0  0  0  0  0
    0.8997   -2.4392   -8.0207 H   0  0  0  0  0  0  0  0  0  0  0  0
    4.4452    0.3563   -3.6265 H   0  0  0  0  0  0  0  0  0  0  0  0
    6.4918    1.4282   -4.4238 H   0  0  0  0  0  0  0  0  0  0  0  0
    8.1073    1.8859   -6.2191 H   0  0  0  0  0  0  0  0  0  0  0  0
    8.8071    1.6438   -8.5678 H   0  0  0  0  0  0  0  0  0  0  0  0
    7.4762    0.2788  -10.1413 H   0  0  0  0  0  0  0  0  0  0  0  0
    5.4428   -0.8481   -9.4000 H   0  0  0  0  0  0  0  0  0  0  0  0
  1  2  2  3
  2  3  1  0
  3  4  2  0
  3  5  1  0
  5  6  2  0
  6  7  1  0
  7  8  2  0
  8  9  1  0
  9 10  2  0
 10 11  1  0
 11 12  2  3
 12 13  1  0
 13 14  3  0
 12 15  1  0
 15 16  3  0
  8 17  1  0
 17 18  1  0
 18 19  1  0
 19 20  2  0
 20 21  1  0
 21 22  1  0
 21 23  1  0
  1 24  1  0
 24 25  2  0
 25 26  1  0
 26 27  1  0
 27 28  1  0
 25 29  1  0
 29 30  1  0
 30 31  1  0
 31 32  1  0
 32 33  1  0
 33 34  1  0
 34 35  2  0
 35 36  1  0
 36 37  1  0
 34 38  1  0
 38 39  1  0
 39 40  1  0
 40 41  1  0
 41 42  1  0
 42 43  1  0
 43 44  1  0
 44 45  1  0
 42 46  2  0
 46 47  1  0
 47 48  1  0
 48 49  1  0
 49 50  1  0
 50 51  1  0
 51 52  1  0
 52 53  1  0
 53 54  1  0
 54 55  1  0
 55 56  1  0
 53 57  1  0
 57 58  1  0
 50 59  1  0
 59 60  1  0
 46 61  1  0
 61 62  2  3
 62 63  1  0
 63 64  2  0
 63 65  1  0
 65 66  2  0
 66 67  1  0
 67 68  2  0
 68 69  1  0
 69 70  2  0
 70 71  1  0
 71 72  2  0
 72 73  1  0
 73 74  2  0
 66 75  1  0
 75 76  2  3
 76 77  1  0
 77 78  3  0
 76 79  1  0
 79 80  3  0
 11  2  1  0
 23 17  1  0
 56 24  1  0
 75 62  1  0
 10  5  1  0
 22 18  1  0
 55 29  2  0
 74 65  1  0
 23  7  1  0
 54 31  2  0
 74 69  1  0
 52 32  2  0
 37 33  2  0
 51 38  2  0
 49 39  2  0
 48 41  2  0
  1 81  1  0
  6 82  1  0
  9 83  1  0
 17 84  1  0
 18 85  1  0
 19 86  1  0
 20 87  1  0
 21 88  1  0
 22 89  1  0
 22 90  1  0
 23 91  1  0
 27 92  1  0
 27 93  1  0
 28 94  1  0
 28 95  1  0
 28 96  1  0
 44 97  1  0
 44 98  1  0
 45 99  1  0
 45100  1  0
 45101  1  0
 57102  1  0
 57103  1  0
 58104  1  0
 58105  1  0
 58106  1  0
 59107  1  0
 59108  1  0
 60109  1  0
 60110  1  0
 60111  1  0
 61112  1  0
 67113  1  0
 68114  1  0
 70115  1  0
 71116  1  0
 72117  1  0
 73118  1  0
M  END

