
     RDKit          3D

115129  0  0  0  0  0  0  0  0999 V2000
    4.5619    1.3540   -1.7440 C   0  0  0  0  0  0  0  0  0  0  0  0
    5.2710    2.4815   -1.5696 C   0  0  0  0  0  0  0  0  0  0  0  0
    5.7674    2.9864   -0.2856 C   0  0  0  0  0  0  0  0  0  0  0  0
    5.4403    2.5731    0.8626 O   0  0  0  0  0  0  0  0  0  0  0  0
    6.7555    4.0072   -0.5476 C   0  0  0  0  0  0  0  0  0  0  0  0
    7.4638    4.7642    0.4127 C   0  0  0  0  0  0  0  0  0  0  0  0
    8.2811    5.7311   -0.1345 C   0  0  0  0  0  0  0  0  0  0  0  0
    8.4163    5.9362   -1.5456 C   0  0  0  0  0  0  0  0  0  0  0  0
    7.7435    5.1863   -2.4932 C   0  0  0  0  0  0  0  0  0  0  0  0
    6.8712    4.1985   -1.9521 C   0  0  0  0  0  0  0  0  0  0  0  0
    5.8834    3.3189   -2.6409 C   0  0  0  0  0  0  0  0  0  0  0  0
    5.3991    3.4692   -3.9037 C   0  0  0  0  0  0  0  0  0  0  0  0
    4.1059    2.9591   -4.2847 C   0  0  0  0  0  0  0  0  0  0  0  0
    3.0516    2.5887   -4.5765 N   0  0  0  0  0  0  0  0  0  0  0  0
    6.0215    4.3185   -4.8863 C   0  0  0  0  0  0  0  0  0  0  0  0
    6.5132    4.9910   -5.6907 N   0  0  0  0  0  0  0  0  0  0  0  0
    9.3185    7.1080   -1.3068 C   0  0  0  0  0  0  0  0  0  0  0  0
    8.7209    8.5331   -1.5310 C   0  0  0  0  0  0  0  0  0  0  0  0
    7.2381    8.5257   -1.2357 C   0  0  0  0  0  0  0  0  0  0  0  0
    7.1158    8.3316    0.0793 C   0  0  0  0  0  0  0  0  0  0  0  0
    8.5163    8.2188    0.6337 C   0  0  0  0  0  0  0  0  0  0  0  0
    9.2117    9.2213   -0.2717 C   0  0  0  0  0  0  0  0  0  0  0  0
    9.1791    6.8982    0.1382 C   0  0  0  0  0  0  0  0  0  0  0  0
    3.8532    0.6859   -0.6488 C   0  0  0  0  0  0  0  0  0  0  0  0
    4.3417   -0.2424    0.3019 C   0  0  0  0  0  0  0  0  0  0  0  0
    5.6414   -0.7616    0.4200 O   0  0  0  0  0  0  0  0  0  0  0  0
    6.6908   -0.6436   -0.5373 C   0  0  0  0  0  0  0  0  0  0  0  0
    6.4332   -1.5521   -1.7352 C   0  0  0  0  0  0  0  0  0  0  0  0
    3.3214   -0.6379    1.1695 C   0  0  0  0  0  0  0  0  0  0  0  0
    3.2147   -1.8700    2.3415 S   0  0  0  0  0  0  0  0  0  0  0  0
    1.5523   -1.5803    2.5446 C   0  0  0  0  0  0  0  0  0  0  0  0
    0.4713   -2.2954    2.9763 C   0  0  0  0  0  0  0  0  0  0  0  0
    0.4318   -3.5699    3.5539 C   0  0  0  0  0  0  0  0  0  0  0  0
   -0.8089   -4.2585    3.6146 C   0  0  0  0  0  0  0  0  0  0  0  0
   -0.7986   -5.5168    4.1261 N   0  0  0  0  0  0  0  0  0  0  0  0
    0.8127   -5.6586    4.4665 S   0  0  0  0  0  0  0  0  0  0  0  0
    1.5237   -4.2376    4.0027 N   0  0  0  0  0  0  0  0  0  0  0  0
   -1.9531   -3.6136    3.1371 C   0  0  0  0  0  0  0  0  0  0  0  0
   -3.2318   -4.0704    2.9938 C   0  0  0  0  0  0  0  0  0  0  0  0
   -4.0519   -5.5551    2.9691 S   0  0  0  0  0  0  0  0  0  0  0  0
   -5.3850   -4.8474    2.1629 C   0  0  0  0  0  0  0  0  0  0  0  0
   -6.4614   -5.3740    1.4362 C   0  0  0  0  0  0  0  0  0  0  0  0
   -6.9375   -6.6908    1.4817 O   0  0  0  0  0  0  0  0  0  0  0  0
   -6.7631   -7.5845    2.5829 C   0  0  0  0  0  0  0  0  0  0  0  0
   -7.4915   -7.0652    3.8220 C   0  0  0  0  0  0  0  0  0  0  0  0
   -6.9988   -4.4164    0.5639 C   0  0  0  0  0  0  0  0  0  0  0  0
   -6.1830   -2.9296    0.7325 S   0  0  0  0  0  0  0  0  0  0  0  0
   -5.1468   -3.5155    1.9118 C   0  0  0  0  0  0  0  0  0  0  0  0
   -3.9312   -3.0817    2.4026 C   0  0  0  0  0  0  0  0  0  0  0  0
   -3.2068   -1.9646    2.1738 N   0  0  0  0  0  0  0  0  0  0  0  0
   -1.9354   -2.3148    2.5834 C   0  0  0  0  0  0  0  0  0  0  0  0
   -0.6680   -1.6618    2.4312 C   0  0  0  0  0  0  0  0  0  0  0  0
   -0.2714   -0.6220    1.6108 N   0  0  0  0  0  0  0  0  0  0  0  0
    1.0820   -0.6164    1.7177 C   0  0  0  0  0  0  0  0  0  0  0  0
    2.0918   -0.0783    0.9252 C   0  0  0  0  0  0  0  0  0  0  0  0
    2.1909    0.9375   -0.4015 S   0  0  0  0  0  0  0  0  0  0  0  0
   -1.0075    0.1194    0.5848 C   0  0  0  0  0  0  0  0  0  0  0  0
   -1.4185   -0.7894   -0.5702 C   0  0  0  0  0  0  0  0  0  0  0  0
   -3.8439   -0.6454    2.0409 C   0  0  0  0  0  0  0  0  0  0  0  0
   -3.4537    0.2888    3.1868 C   0  0  0  0  0  0  0  0  0  0  0  0
   -8.1051   -4.6530   -0.3728 C   0  0  0  0  0  0  0  0  0  0  0  0
   -8.1181   -4.2015   -1.6384 C   0  0  0  0  0  0  0  0  0  0  0  0
   -9.3579   -3.8651   -2.3379 C   0  0  0  0  0  0  0  0  0  0  0  0
  -10.5265   -4.1853   -1.9813 O   0  0  0  0  0  0  0  0  0  0  0  0
   -9.0293   -2.9867   -3.4419 C   0  0  0  0  0  0  0  0  0  0  0  0
   -9.9038   -2.3037   -4.2901 C   0  0  0  0  0  0  0  0  0  0  0  0
   -9.3677   -1.4346   -5.2552 C   0  0  0  0  0  0  0  0  0  0  0  0
  -10.2821   -0.7152   -6.2024 C   0  0  0  0  0  0  0  0  0  0  0  0
   -7.9617   -1.2998   -5.3706 C   0  0  0  0  0  0  0  0  0  0  0  0
   -7.4233   -0.5030   -6.3302 F   0  0  0  0  0  0  0  0  0  0  0  0
   -7.1055   -1.9671   -4.4822 C   0  0  0  0  0  0  0  0  0  0  0  0
   -7.6564   -2.8179   -3.5074 C   0  0  0  0  0  0  0  0  0  0  0  0
   -6.9971   -3.6568   -2.4669 C   0  0  0  0  0  0  0  0  0  0  0  0
   -5.7162   -4.1020   -2.4910 C   0  0  0  0  0  0  0  0  0  0  0  0
   -5.2888   -5.2510   -1.7344 C   0  0  0  0  0  0  0  0  0  0  0  0
   -4.9131   -6.1736   -1.1525 N   0  0  0  0  0  0  0  0  0  0  0  0
   -4.7254   -3.6024   -3.4135 C   0  0  0  0  0  0  0  0  0  0  0  0
   -3.9128   -3.2315   -4.1555 N   0  0  0  0  0  0  0  0  0  0  0  0
    4.3708    0.9712   -2.7358 H   0  0  0  0  0  0  0  0  0  0  0  0
    7.3329    4.6422    1.4785 H   0  0  0  0  0  0  0  0  0  0  0  0
    7.8735    5.3888   -3.5402 H   0  0  0  0  0  0  0  0  0  0  0  0
   10.3552    6.9667   -1.6886 H   0  0  0  0  0  0  0  0  0  0  0  0
    9.0065    9.0205   -2.4889 H   0  0  0  0  0  0  0  0  0  0  0  0
    6.4203    8.7040   -1.9294 H   0  0  0  0  0  0  0  0  0  0  0  0
    6.1844    8.3260    0.6336 H   0  0  0  0  0  0  0  0  0  0  0  0
    8.6035    8.4131    1.7208 H   0  0  0  0  0  0  0  0  0  0  0  0
    8.8272   10.2634   -0.1602 H   0  0  0  0  0  0  0  0  0  0  0  0
   10.3234    9.2227   -0.1647 H   0  0  0  0  0  0  0  0  0  0  0  0
   10.1306    6.6313    0.6468 H   0  0  0  0  0  0  0  0  0  0  0  0
    7.6385   -0.9622   -0.0545 H   0  0  0  0  0  0  0  0  0  0  0  0
    6.8365    0.4062   -0.8517 H   0  0  0  0  0  0  0  0  0  0  0  0
    6.4195   -2.6102   -1.4041 H   0  0  0  0  0  0  0  0  0  0  0  0
    5.4597   -1.3131   -2.2080 H   0  0  0  0  0  0  0  0  0  0  0  0
    7.2457   -1.4227   -2.4818 H   0  0  0  0  0  0  0  0  0  0  0  0
   -7.2043   -8.5660    2.3036 H   0  0  0  0  0  0  0  0  0  0  0  0
   -5.6901   -7.7481    2.7996 H   0  0  0  0  0  0  0  0  0  0  0  0
   -8.5605   -6.8807    3.5786 H   0  0  0  0  0  0  0  0  0  0  0  0
   -7.4256   -7.8148    4.6409 H   0  0  0  0  0  0  0  0  0  0  0  0
   -7.0299   -6.1177    4.1731 H   0  0  0  0  0  0  0  0  0  0  0  0
   -0.3887    0.9396    0.1740 H   0  0  0  0  0  0  0  0  0  0  0  0
   -1.8372    0.6841    1.0286 H   0  0  0  0  0  0  0  0  0  0  0  0
   -0.5199   -1.2478   -1.0299 H   0  0  0  0  0  0  0  0  0  0  0  0
   -2.0900   -1.5989   -0.2230 H   0  0  0  0  0  0  0  0  0  0  0  0
   -1.9487   -0.1953   -1.3434 H   0  0  0  0  0  0  0  0  0  0  0  0
   -4.9472   -0.7547    2.1040 H   0  0  0  0  0  0  0  0  0  0  0  0
   -3.6913   -0.2260    1.0340 H   0  0  0  0  0  0  0  0  0  0  0  0
   -2.3542    0.4309    3.2488 H   0  0  0  0  0  0  0  0  0  0  0  0
   -3.8068   -0.1381    4.1511 H   0  0  0  0  0  0  0  0  0  0  0  0
   -3.9330    1.2839    3.0395 H   0  0  0  0  0  0  0  0  0  0  0  0
   -9.0159   -5.0664    0.0464 H   0  0  0  0  0  0  0  0  0  0  0  0
  -10.9762   -2.4281   -4.1944 H   0  0  0  0  0  0  0  0  0  0  0  0
  -10.4908   -1.3631   -7.0805 H   0  0  0  0  0  0  0  0  0  0  0  0
   -9.8257    0.2326   -6.5541 H   0  0  0  0  0  0  0  0  0  0  0  0
  -11.2429   -0.4765   -5.7010 H   0  0  0  0  0  0  0  0  0  0  0  0
   -6.0503   -1.7751   -4.5492 H   0  0  0  0  0  0  0  0  0  0  0  0
  1  2  2  3
  2  3  1  0
  3  4  2  0
  3  5  1  0
  5  6  2  0
  6  7  1  0
  7  8  2  0
  8  9  1  0
  9 10  2  0
 10 11  1  0
 11 12  2  3
 12 13  1  0
 13 14  3  0
 12 15  1  0
 15 16  3  0
  8 17  1  0
 17 18  1  0
 18 19  1  0
 19 20  2  0
 20 21  1  0
 21 22  1  0
 21 23  1  0
  1 24  1  0
 24 25  2  0
 25 26  1  0
 26 27  1  0
 27 28  1  0
 25 29  1  0
 29 30  1  0
 30 31  1  0
 31 32  1  0
 32 33  1  0
 33 34  1  0
 34 35  2  0
 35 36  1  0
 36 37  1  0
 34 38  1  0
 38 39  1  0
 39 40  1  0
 40 41  1  0
 41 42  1  0
 42 43  1  0
 43 44  1  0
 44 45  1  0
 42 46  2  0
 46 47  1  0
 47 48  1  0
 48 49  1  0
 49 50  1  0
 50 51  1  0
 51 52  1  0
 52 53  1  0
 53 54  1  0
 54 55  1  0
 55 56  1  0
 53 57  1  0
 57 58  1  0
 50 59  1  0
 59 60  1  0
 46 61  1  0
 61 62  2  3
 62 63  1  0
 63 64  2  0
 63 65  1  0
 65 66  2  0
 66 67  1  0
 67 68  1  0
 67 69  2  0
 69 70  1  0
 69 71  1  0
 71 72  2  0
 72 73  1  0
 73 74  2  3
 74 75  1  0
 75 76  3  0
 74 77  1  0
 77 78  3  0
 11  2  1  0
 23 17  1  0
 56 24  1  0
 73 62  1  0
 10  5  1  0
 22 18  1  0
 55 29  2  0
 72 65  1  0
 23  7  1  0
 54 31  2  0
 52 32  2  0
 37 33  2  0
 51 38  2  0
 49 39  2  0
 48 41  2  0
  1 79  1  0
  6 80  1  0
  9 81  1  0
 17 82  1  0
 18 83  1  0
 19 84  1  0
 20 85  1  0
 21 86  1  0
 22 87  1  0
 22 88  1  0
 23 89  1  0
 27 90  1  0
 27 91  1  0
 28 92  1  0
 28 93  1  0
 28 94  1  0
 44 95  1  0
 44 96  1  0
 45 97  1  0
 45 98  1  0
 45 99  1  0
 57100  1  0
 57101  1  0
 58102  1  0
 58103  1  0
 58104  1  0
 59105  1  0
 59106  1  0
 60107  1  0
 60108  1  0
 60109  1  0
 61110  1  0
 66111  1  0
 68112  1  0
 68113  1  0
 68114  1  0
 71115  1  0
M  END

