
     RDKit          3D

115129  0  0  0  0  0  0  0  0999 V2000
   -0.6931    5.8417   -5.0848 C   0  0  0  0  0  0  0  0  0  0  0  0
   -0.9748    5.1288   -6.1950 C   0  0  0  0  0  0  0  0  0  0  0  0
   -1.7047    3.8540   -6.2476 C   0  0  0  0  0  0  0  0  0  0  0  0
   -2.5389    3.4348   -5.4019 O   0  0  0  0  0  0  0  0  0  0  0  0
   -1.3950    3.1953   -7.4969 C   0  0  0  0  0  0  0  0  0  0  0  0
   -1.7534    1.8838   -7.8840 C   0  0  0  0  0  0  0  0  0  0  0  0
   -1.2022    1.4864   -9.0879 C   0  0  0  0  0  0  0  0  0  0  0  0
   -0.3385    2.3226   -9.8676 C   0  0  0  0  0  0  0  0  0  0  0  0
    0.0127    3.6097   -9.4947 C   0  0  0  0  0  0  0  0  0  0  0  0
   -0.5724    4.0500   -8.2750 C   0  0  0  0  0  0  0  0  0  0  0  0
   -0.4063    5.3468   -7.5618 C   0  0  0  0  0  0  0  0  0  0  0  0
   -0.0504    6.5328   -8.1207 C   0  0  0  0  0  0  0  0  0  0  0  0
    0.2983    6.6528   -9.5123 C   0  0  0  0  0  0  0  0  0  0  0  0
    0.5681    6.7676  -10.6315 N   0  0  0  0  0  0  0  0  0  0  0  0
   -0.1653    7.7838   -7.4149 C   0  0  0  0  0  0  0  0  0  0  0  0
   -0.2565    8.7952   -6.8578 N   0  0  0  0  0  0  0  0  0  0  0  0
   -0.1541    1.2246  -10.8722 C   0  0  0  0  0  0  0  0  0  0  0  0
    1.1977    0.4476  -10.8648 C   0  0  0  0  0  0  0  0  0  0  0  0
    1.7646    0.4072   -9.4634 C   0  0  0  0  0  0  0  0  0  0  0  0
    0.9549   -0.3721   -8.7461 C   0  0  0  0  0  0  0  0  0  0  0  0
   -0.1377   -0.8338   -9.6816 C   0  0  0  0  0  0  0  0  0  0  0  0
    0.6799   -0.9759  -10.9530 C   0  0  0  0  0  0  0  0  0  0  0  0
   -1.0447    0.3708  -10.0784 C   0  0  0  0  0  0  0  0  0  0  0  0
   -1.0138    5.4155   -3.7104 C   0  0  0  0  0  0  0  0  0  0  0  0
   -1.3253    6.2996   -2.6638 C   0  0  0  0  0  0  0  0  0  0  0  0
   -1.5356    7.6698   -2.8903 O   0  0  0  0  0  0  0  0  0  0  0  0
   -1.5936    8.6791   -1.8853 C   0  0  0  0  0  0  0  0  0  0  0  0
   -0.2042    8.9571   -1.3171 C   0  0  0  0  0  0  0  0  0  0  0  0
   -1.3803    5.6264   -1.4312 C   0  0  0  0  0  0  0  0  0  0  0  0
   -1.7318    6.0630    0.1902 S   0  0  0  0  0  0  0  0  0  0  0  0
   -1.4393    4.4796    0.7221 C   0  0  0  0  0  0  0  0  0  0  0  0
   -1.5671    3.7098    1.8444 C   0  0  0  0  0  0  0  0  0  0  0  0
   -2.0526    3.9810    3.1284 C   0  0  0  0  0  0  0  0  0  0  0  0
   -2.1747    2.8991    4.0542 C   0  0  0  0  0  0  0  0  0  0  0  0
   -2.6348    3.2003    5.2925 N   0  0  0  0  0  0  0  0  0  0  0  0
   -2.8729    4.8301    5.1118 S   0  0  0  0  0  0  0  0  0  0  0  0
   -2.4263    5.2089    3.5617 N   0  0  0  0  0  0  0  0  0  0  0  0
   -1.7762    1.6156    3.6514 C   0  0  0  0  0  0  0  0  0  0  0  0
   -1.5290    0.4801    4.3707 C   0  0  0  0  0  0  0  0  0  0  0  0
   -1.4396    0.0631    6.0109 S   0  0  0  0  0  0  0  0  0  0  0  0
   -0.4517   -1.2851    5.6649 C   0  0  0  0  0  0  0  0  0  0  0  0
    0.2470   -2.2189    6.4434 C   0  0  0  0  0  0  0  0  0  0  0  0
    0.1821   -2.3735    7.8361 O   0  0  0  0  0  0  0  0  0  0  0  0
   -0.9045   -1.9513    8.6604 C   0  0  0  0  0  0  0  0  0  0  0  0
   -2.1679   -2.7466    8.3401 C   0  0  0  0  0  0  0  0  0  0  0  0
    1.0715   -3.0212    5.6453 C   0  0  0  0  0  0  0  0  0  0  0  0
    0.9633   -2.5482    4.0103 S   0  0  0  0  0  0  0  0  0  0  0  0
   -0.1666   -1.3450    4.3210 C   0  0  0  0  0  0  0  0  0  0  0  0
   -0.7834   -0.3414    3.5838 C   0  0  0  0  0  0  0  0  0  0  0  0
   -0.5159    0.1995    2.3666 N   0  0  0  0  0  0  0  0  0  0  0  0
   -1.2251    1.3726    2.3857 C   0  0  0  0  0  0  0  0  0  0  0  0
   -1.2274    2.4134    1.4356 C   0  0  0  0  0  0  0  0  0  0  0  0
   -1.0323    2.3482    0.0831 N   0  0  0  0  0  0  0  0  0  0  0  0
   -1.1089    3.6467   -0.2927 C   0  0  0  0  0  0  0  0  0  0  0  0
   -1.0874    4.2873   -1.5163 C   0  0  0  0  0  0  0  0  0  0  0  0
   -0.7386    3.8467   -3.0902 S   0  0  0  0  0  0  0  0  0  0  0  0
   -1.3457    1.2099   -0.7951 C   0  0  0  0  0  0  0  0  0  0  0  0
   -2.7949    1.2739   -1.2774 C   0  0  0  0  0  0  0  0  0  0  0  0
    0.7315   -0.0412    1.6181 C   0  0  0  0  0  0  0  0  0  0  0  0
    1.9324    0.5618    2.3489 C   0  0  0  0  0  0  0  0  0  0  0  0
    1.9870   -4.0470    6.1594 C   0  0  0  0  0  0  0  0  0  0  0  0
    1.8725   -5.3540    5.8639 C   0  0  0  0  0  0  0  0  0  0  0  0
    0.7105   -5.9831    5.2225 C   0  0  0  0  0  0  0  0  0  0  0  0
   -0.2109   -5.3966    4.5947 O   0  0  0  0  0  0  0  0  0  0  0  0
    0.7489   -7.4014    5.5097 C   0  0  0  0  0  0  0  0  0  0  0  0
   -0.2049   -8.3678    5.1956 C   0  0  0  0  0  0  0  0  0  0  0  0
   -0.0104   -9.6749    5.6590 C   0  0  0  0  0  0  0  0  0  0  0  0
    1.1135   -9.9923    6.4505 C   0  0  0  0  0  0  0  0  0  0  0  0
    1.3051  -11.3980    6.9372 C   0  0  0  0  0  0  0  0  0  0  0  0
    2.0677   -8.9969    6.7474 C   0  0  0  0  0  0  0  0  0  0  0  0
    1.8797   -7.6961    6.2532 C   0  0  0  0  0  0  0  0  0  0  0  0
    2.6991   -6.4631    6.4276 C   0  0  0  0  0  0  0  0  0  0  0  0
    4.0038   -6.3893    6.7963 C   0  0  0  0  0  0  0  0  0  0  0  0
    4.7716   -5.1802    6.6399 C   0  0  0  0  0  0  0  0  0  0  0  0
    5.3961   -4.2126    6.5073 N   0  0  0  0  0  0  0  0  0  0  0  0
    4.7580   -7.5350    7.2309 C   0  0  0  0  0  0  0  0  0  0  0  0
    5.3806   -8.4461    7.5797 N   0  0  0  0  0  0  0  0  0  0  0  0
   -0.1070    6.7406   -5.1528 H   0  0  0  0  0  0  0  0  0  0  0  0
   -2.3622    1.2300   -7.2758 H   0  0  0  0  0  0  0  0  0  0  0  0
    0.7196    4.1817  -10.0737 H   0  0  0  0  0  0  0  0  0  0  0  0
   -0.5484    1.4668  -11.8836 H   0  0  0  0  0  0  0  0  0  0  0  0
    1.9207    0.7442  -11.6542 H   0  0  0  0  0  0  0  0  0  0  0  0
    2.6882    0.8537   -9.1130 H   0  0  0  0  0  0  0  0  0  0  0  0
    1.1071   -0.6700   -7.7154 H   0  0  0  0  0  0  0  0  0  0  0  0
   -0.6790   -1.7485   -9.3593 H   0  0  0  0  0  0  0  0  0  0  0  0
    0.0616   -1.1693  -11.8611 H   0  0  0  0  0  0  0  0  0  0  0  0
    1.4852   -1.7461  -10.8783 H   0  0  0  0  0  0  0  0  0  0  0  0
   -1.9854    0.0984  -10.6048 H   0  0  0  0  0  0  0  0  0  0  0  0
   -2.3108    8.4049   -1.0853 H   0  0  0  0  0  0  0  0  0  0  0  0
   -1.9704    9.6133   -2.3522 H   0  0  0  0  0  0  0  0  0  0  0  0
    0.4619    9.3301   -2.1243 H   0  0  0  0  0  0  0  0  0  0  0  0
    0.2347    8.0320   -0.8878 H   0  0  0  0  0  0  0  0  0  0  0  0
   -0.2743    9.7253   -0.5190 H   0  0  0  0  0  0  0  0  0  0  0  0
   -1.0832   -0.8628    8.5578 H   0  0  0  0  0  0  0  0  0  0  0  0
   -0.6290   -2.1418    9.7187 H   0  0  0  0  0  0  0  0  0  0  0  0
   -2.5065   -2.5378    7.3052 H   0  0  0  0  0  0  0  0  0  0  0  0
   -2.9790   -2.4636    9.0462 H   0  0  0  0  0  0  0  0  0  0  0  0
   -1.9651   -3.8351    8.4428 H   0  0  0  0  0  0  0  0  0  0  0  0
   -1.2398    0.2462   -0.2598 H   0  0  0  0  0  0  0  0  0  0  0  0
   -0.6573    1.2048   -1.6668 H   0  0  0  0  0  0  0  0  0  0  0  0
   -3.4869    1.2427   -0.4089 H   0  0  0  0  0  0  0  0  0  0  0  0
   -2.9842    2.2051   -1.8490 H   0  0  0  0  0  0  0  0  0  0  0  0
   -3.0021    0.4124   -1.9429 H   0  0  0  0  0  0  0  0  0  0  0  0
    0.8795   -1.1300    1.4701 H   0  0  0  0  0  0  0  0  0  0  0  0
    0.7085    0.4278    0.6223 H   0  0  0  0  0  0  0  0  0  0  0  0
    2.8506    0.4139    1.7447 H   0  0  0  0  0  0  0  0  0  0  0  0
    2.0776    0.0751    3.3328 H   0  0  0  0  0  0  0  0  0  0  0  0
    1.7816    1.6482    2.5083 H   0  0  0  0  0  0  0  0  0  0  0  0
    2.7037   -3.7188    6.8968 H   0  0  0  0  0  0  0  0  0  0  0  0
   -1.0829   -8.1144    4.6152 H   0  0  0  0  0  0  0  0  0  0  0  0
   -0.7412  -10.4362    5.4181 H   0  0  0  0  0  0  0  0  0  0  0  0
    0.3336  -11.8295    7.2596 H   0  0  0  0  0  0  0  0  0  0  0  0
    1.7219  -12.0186    6.1169 H   0  0  0  0  0  0  0  0  0  0  0  0
    2.0007  -11.4310    7.8031 H   0  0  0  0  0  0  0  0  0  0  0  0
    2.9045   -9.2466    7.3776 H   0  0  0  0  0  0  0  0  0  0  0  0
  1  2  2  3
  2  3  1  0
  3  4  2  0
  3  5  1  0
  5  6  2  0
  6  7  1  0
  7  8  2  0
  8  9  1  0
  9 10  2  0
 10 11  1  0
 11 12  2  3
 12 13  1  0
 13 14  3  0
 12 15  1  0
 15 16  3  0
  8 17  1  0
 17 18  1  0
 18 19  1  0
 19 20  2  0
 20 21  1  0
 21 22  1  0
 21 23  1  0
  1 24  1  0
 24 25  2  0
 25 26  1  0
 26 27  1  0
 27 28  1  0
 25 29  1  0
 29 30  1  0
 30 31  1  0
 31 32  1  0
 32 33  1  0
 33 34  1  0
 34 35  2  0
 35 36  1  0
 36 37  1  0
 34 38  1  0
 38 39  1  0
 39 40  1  0
 40 41  1  0
 41 42  1  0
 42 43  1  0
 43 44  1  0
 44 45  1  0
 42 46  2  0
 46 47  1  0
 47 48  1  0
 48 49  1  0
 49 50  1  0
 50 51  1  0
 51 52  1  0
 52 53  1  0
 53 54  1  0
 54 55  1  0
 55 56  1  0
 53 57  1  0
 57 58  1  0
 50 59  1  0
 59 60  1  0
 46 61  1  0
 61 62  2  3
 62 63  1  0
 63 64  2  0
 63 65  1  0
 65 66  2  0
 66 67  1  0
 67 68  2  0
 68 69  1  0
 68 70  1  0
 70 71  2  0
 71 72  1  0
 72 73  2  3
 73 74  1  0
 74 75  3  0
 73 76  1  0
 76 77  3  0
 11  2  1  0
 23 17  1  0
 56 24  1  0
 72 62  1  0
 10  5  1  0
 22 18  1  0
 55 29  2  0
 71 65  1  0
 23  7  1  0
 54 31  2  0
 52 32  2  0
 37 33  2  0
 51 38  2  0
 49 39  2  0
 48 41  2  0
  1 78  1  0
  6 79  1  0
  9 80  1  0
 17 81  1  0
 18 82  1  0
 19 83  1  0
 20 84  1  0
 21 85  1  0
 22 86  1  0
 22 87  1  0
 23 88  1  0
 27 89  1  0
 27 90  1  0
 28 91  1  0
 28 92  1  0
 28 93  1  0
 44 94  1  0
 44 95  1  0
 45 96  1  0
 45 97  1  0
 45 98  1  0
 57 99  1  0
 57100  1  0
 58101  1  0
 58102  1  0
 58103  1  0
 59104  1  0
 59105  1  0
 60106  1  0
 60107  1  0
 60108  1  0
 61109  1  0
 66110  1  0
 67111  1  0
 69112  1  0
 69113  1  0
 69114  1  0
 70115  1  0
M  END

