
     RDKit          3D

112126  0  0  0  0  0  0  0  0999 V2000
    5.0355    4.7180    1.4385 C   0  0  0  0  0  0  0  0  0  0  0  0
    4.3564    5.3906    2.3894 C   0  0  0  0  0  0  0  0  0  0  0  0
    5.0522    6.1375    3.4379 C   0  0  0  0  0  0  0  0  0  0  0  0
    6.2758    6.4345    3.4439 O   0  0  0  0  0  0  0  0  0  0  0  0
    4.1188    6.4377    4.5009 C   0  0  0  0  0  0  0  0  0  0  0  0
    4.4023    7.0653    5.7373 C   0  0  0  0  0  0  0  0  0  0  0  0
    3.3109    7.1535    6.5824 C   0  0  0  0  0  0  0  0  0  0  0  0
    2.0165    6.6453    6.2386 C   0  0  0  0  0  0  0  0  0  0  0  0
    1.7368    6.0204    5.0366 C   0  0  0  0  0  0  0  0  0  0  0  0
    2.8390    5.9458    4.1375 C   0  0  0  0  0  0  0  0  0  0  0  0
    2.8979    5.4106    2.7436 C   0  0  0  0  0  0  0  0  0  0  0  0
    1.8463    5.3867    1.8805 C   0  0  0  0  0  0  0  0  0  0  0  0
    0.4880    5.6058    2.3088 C   0  0  0  0  0  0  0  0  0  0  0  0
   -0.6085    5.7799    2.6414 N   0  0  0  0  0  0  0  0  0  0  0  0
    2.0022    5.2940    0.4521 C   0  0  0  0  0  0  0  0  0  0  0  0
    2.0909    5.2205   -0.7015 N   0  0  0  0  0  0  0  0  0  0  0  0
    1.4694    7.0929    7.5599 C   0  0  0  0  0  0  0  0  0  0  0  0
    0.5788    8.3721    7.5419 C   0  0  0  0  0  0  0  0  0  0  0  0
    0.4788    8.8213    8.9797 C   0  0  0  0  0  0  0  0  0  0  0  0
    1.6913    9.2801    9.3196 C   0  0  0  0  0  0  0  0  0  0  0  0
    2.5622    9.1345    8.0954 C   0  0  0  0  0  0  0  0  0  0  0  0
    1.5238    9.4475    7.0302 C   0  0  0  0  0  0  0  0  0  0  0  0
    2.7973    7.6055    7.9185 C   0  0  0  0  0  0  0  0  0  0  0  0
    4.4964    3.7033    0.5224 C   0  0  0  0  0  0  0  0  0  0  0  0
    4.8291    3.6410   -0.8388 C   0  0  0  0  0  0  0  0  0  0  0  0
    5.7421    4.5277   -1.4303 O   0  0  0  0  0  0  0  0  0  0  0  0
    5.6238    5.0861   -2.7382 C   0  0  0  0  0  0  0  0  0  0  0  0
    4.9425    6.4429   -2.6594 C   0  0  0  0  0  0  0  0  0  0  0  0
    4.1788    2.5735   -1.4658 C   0  0  0  0  0  0  0  0  0  0  0  0
    4.1613    1.9466   -3.0559 S   0  0  0  0  0  0  0  0  0  0  0  0
    3.1048    0.7073   -2.5873 C   0  0  0  0  0  0  0  0  0  0  0  0
    2.5676   -0.4365   -3.0973 C   0  0  0  0  0  0  0  0  0  0  0  0
    2.6489   -1.0267   -4.3624 C   0  0  0  0  0  0  0  0  0  0  0  0
    2.0135   -2.2881   -4.5675 C   0  0  0  0  0  0  0  0  0  0  0  0
    2.0653   -2.8051   -5.8221 N   0  0  0  0  0  0  0  0  0  0  0  0
    2.9440   -1.6197   -6.5775 S   0  0  0  0  0  0  0  0  0  0  0  0
    3.2726   -0.4670   -5.4310 N   0  0  0  0  0  0  0  0  0  0  0  0
    1.3303   -2.8835   -3.4954 C   0  0  0  0  0  0  0  0  0  0  0  0
    0.4330   -3.9116   -3.4761 C   0  0  0  0  0  0  0  0  0  0  0  0
   -0.4414   -4.7550   -4.6639 S   0  0  0  0  0  0  0  0  0  0  0  0
   -1.6567   -5.1392   -3.5395 C   0  0  0  0  0  0  0  0  0  0  0  0
   -2.9278   -5.6887   -3.6776 C   0  0  0  0  0  0  0  0  0  0  0  0
   -3.4429   -6.0678   -4.9230 O   0  0  0  0  0  0  0  0  0  0  0  0
   -4.6906   -5.5932   -5.4328 C   0  0  0  0  0  0  0  0  0  0  0  0
   -4.7230   -4.0681   -5.4677 C   0  0  0  0  0  0  0  0  0  0  0  0
   -3.6318   -5.6673   -2.4516 C   0  0  0  0  0  0  0  0  0  0  0  0
   -2.7235   -4.7957   -1.3010 S   0  0  0  0  0  0  0  0  0  0  0  0
   -1.4112   -4.5685   -2.3176 C   0  0  0  0  0  0  0  0  0  0  0  0
   -0.2286   -3.8426   -2.2852 C   0  0  0  0  0  0  0  0  0  0  0  0
    0.1618   -2.7798   -1.5297 N   0  0  0  0  0  0  0  0  0  0  0  0
    1.2078   -2.2539   -2.2440 C   0  0  0  0  0  0  0  0  0  0  0  0
    1.9149   -1.0485   -2.0187 C   0  0  0  0  0  0  0  0  0  0  0  0
    2.1399   -0.3698   -0.8492 N   0  0  0  0  0  0  0  0  0  0  0  0
    2.8092    0.7367   -1.2659 C   0  0  0  0  0  0  0  0  0  0  0  0
    3.4199    1.8003   -0.6157 C   0  0  0  0  0  0  0  0  0  0  0  0
    3.4737    2.4010    0.9529 S   0  0  0  0  0  0  0  0  0  0  0  0
    2.2714   -0.9617    0.4914 C   0  0  0  0  0  0  0  0  0  0  0  0
    3.7240   -1.3459    0.7771 C   0  0  0  0  0  0  0  0  0  0  0  0
   -0.7716   -2.0016   -0.6985 C   0  0  0  0  0  0  0  0  0  0  0  0
   -1.7692   -1.2348   -1.5667 C   0  0  0  0  0  0  0  0  0  0  0  0
   -4.9935   -6.1554   -2.1815 C   0  0  0  0  0  0  0  0  0  0  0  0
   -5.4615   -7.3695   -2.5297 C   0  0  0  0  0  0  0  0  0  0  0  0
   -4.6620   -8.5144   -2.9927 C   0  0  0  0  0  0  0  0  0  0  0  0
   -3.4600   -8.4865   -3.3532 O   0  0  0  0  0  0  0  0  0  0  0  0
   -5.4690   -9.7178   -2.8779 C   0  0  0  0  0  0  0  0  0  0  0  0
   -5.1087  -11.0524   -3.1121 C   0  0  0  0  0  0  0  0  0  0  0  0
   -3.5344  -11.4912   -3.7557 Cl  0  0  0  0  0  0  0  0  0  0  0  0
   -6.0397  -12.0596   -2.8098 C   0  0  0  0  0  0  0  0  0  0  0  0
   -7.2855  -11.7278   -2.2542 C   0  0  0  0  0  0  0  0  0  0  0  0
   -7.6304  -10.3856   -2.0331 C   0  0  0  0  0  0  0  0  0  0  0  0
   -6.7204   -9.3779   -2.3902 C   0  0  0  0  0  0  0  0  0  0  0  0
   -6.8315   -7.9005   -2.2633 C   0  0  0  0  0  0  0  0  0  0  0  0
   -7.9833   -7.1771   -2.2141 C   0  0  0  0  0  0  0  0  0  0  0  0
   -7.9983   -5.7434   -2.3381 C   0  0  0  0  0  0  0  0  0  0  0  0
   -8.0151   -4.5899   -2.4346 N   0  0  0  0  0  0  0  0  0  0  0  0
   -9.2864   -7.7941   -2.1814 C   0  0  0  0  0  0  0  0  0  0  0  0
  -10.3377   -8.2783   -2.1550 N   0  0  0  0  0  0  0  0  0  0  0  0
    6.0974    4.9133    1.3387 H   0  0  0  0  0  0  0  0  0  0  0  0
    5.3824    7.4342    6.0056 H   0  0  0  0  0  0  0  0  0  0  0  0
    0.7621    5.6026    4.8516 H   0  0  0  0  0  0  0  0  0  0  0  0
    1.1088    6.2612    8.2048 H   0  0  0  0  0  0  0  0  0  0  0  0
   -0.3891    8.2834    7.0035 H   0  0  0  0  0  0  0  0  0  0  0  0
   -0.4085    8.8520    9.6026 H   0  0  0  0  0  0  0  0  0  0  0  0
    1.9524    9.7572   10.2606 H   0  0  0  0  0  0  0  0  0  0  0  0
    3.4733    9.7691    8.0838 H   0  0  0  0  0  0  0  0  0  0  0  0
    1.8779    9.2853    5.9878 H   0  0  0  0  0  0  0  0  0  0  0  0
    1.1067   10.4816    7.1074 H   0  0  0  0  0  0  0  0  0  0  0  0
    3.2780    7.0907    8.7791 H   0  0  0  0  0  0  0  0  0  0  0  0
    5.0613    4.4288   -3.4237 H   0  0  0  0  0  0  0  0  0  0  0  0
    6.6408    5.2236   -3.1548 H   0  0  0  0  0  0  0  0  0  0  0  0
    3.9284    6.3368   -2.2281 H   0  0  0  0  0  0  0  0  0  0  0  0
    4.8580    6.8817   -3.6765 H   0  0  0  0  0  0  0  0  0  0  0  0
    5.5356    7.1270   -2.0160 H   0  0  0  0  0  0  0  0  0  0  0  0
   -4.8153   -5.9772   -6.4662 H   0  0  0  0  0  0  0  0  0  0  0  0
   -5.5391   -5.9714   -4.8290 H   0  0  0  0  0  0  0  0  0  0  0  0
   -5.6496   -3.7217   -5.9714 H   0  0  0  0  0  0  0  0  0  0  0  0
   -3.8412   -3.6827   -6.0241 H   0  0  0  0  0  0  0  0  0  0  0  0
   -4.7064   -3.6562   -4.4353 H   0  0  0  0  0  0  0  0  0  0  0  0
    1.6800   -1.8947    0.5779 H   0  0  0  0  0  0  0  0  0  0  0  0
    1.9109   -0.2421    1.2558 H   0  0  0  0  0  0  0  0  0  0  0  0
    4.3721   -0.4465    0.8152 H   0  0  0  0  0  0  0  0  0  0  0  0
    3.7853   -1.8647    1.7557 H   0  0  0  0  0  0  0  0  0  0  0  0
    4.0982   -2.0309   -0.0152 H   0  0  0  0  0  0  0  0  0  0  0  0
   -0.2479   -1.2557   -0.0778 H   0  0  0  0  0  0  0  0  0  0  0  0
   -1.3103   -2.6785   -0.0035 H   0  0  0  0  0  0  0  0  0  0  0  0
   -2.4153   -0.6037   -0.9201 H   0  0  0  0  0  0  0  0  0  0  0  0
   -2.4189   -1.9295   -2.1394 H   0  0  0  0  0  0  0  0  0  0  0  0
   -1.2290   -0.5742   -2.2768 H   0  0  0  0  0  0  0  0  0  0  0  0
   -5.6053   -5.5072   -1.5735 H   0  0  0  0  0  0  0  0  0  0  0  0
   -5.7893  -13.0989   -2.9776 H   0  0  0  0  0  0  0  0  0  0  0  0
   -7.9791  -12.5129   -1.9867 H   0  0  0  0  0  0  0  0  0  0  0  0
   -8.5673  -10.1654   -1.5527 H   0  0  0  0  0  0  0  0  0  0  0  0
  1  2  2  3
  2  3  1  0
  3  4  2  0
  3  5  1  0
  5  6  2  0
  6  7  1  0
  7  8  2  0
  8  9  1  0
  9 10  2  0
 10 11  1  0
 11 12  2  3
 12 13  1  0
 13 14  3  0
 12 15  1  0
 15 16  3  0
  8 17  1  0
 17 18  1  0
 18 19  1  0
 19 20  2  0
 20 21  1  0
 21 22  1  0
 21 23  1  0
  1 24  1  0
 24 25  2  0
 25 26  1  0
 26 27  1  0
 27 28  1  0
 25 29  1  0
 29 30  1  0
 30 31  1  0
 31 32  1  0
 32 33  1  0
 33 34  1  0
 34 35  2  0
 35 36  1  0
 36 37  1  0
 34 38  1  0
 38 39  1  0
 39 40  1  0
 40 41  1  0
 41 42  1  0
 42 43  1  0
 43 44  1  0
 44 45  1  0
 42 46  2  0
 46 47  1  0
 47 48  1  0
 48 49  1  0
 49 50  1  0
 50 51  1  0
 51 52  1  0
 52 53  1  0
 53 54  1  0
 54 55  1  0
 55 56  1  0
 53 57  1  0
 57 58  1  0
 50 59  1  0
 59 60  1  0
 46 61  1  0
 61 62  2  3
 62 63  1  0
 63 64  2  0
 63 65  1  0
 65 66  2  0
 66 67  1  0
 66 68  1  0
 68 69  2  0
 69 70  1  0
 70 71  2  0
 71 72  1  0
 72 73  2  3
 73 74  1  0
 74 75  3  0
 73 76  1  0
 76 77  3  0
 11  2  1  0
 23 17  1  0
 56 24  1  0
 72 62  1  0
 10  5  1  0
 22 18  1  0
 55 29  2  0
 71 65  1  0
 23  7  1  0
 54 31  2  0
 52 32  2  0
 37 33  2  0
 51 38  2  0
 49 39  2  0
 48 41  2  0
  1 78  1  0
  6 79  1  0
  9 80  1  0
 17 81  1  0
 18 82  1  0
 19 83  1  0
 20 84  1  0
 21 85  1  0
 22 86  1  0
 22 87  1  0
 23 88  1  0
 27 89  1  0
 27 90  1  0
 28 91  1  0
 28 92  1  0
 28 93  1  0
 44 94  1  0
 44 95  1  0
 45 96  1  0
 45 97  1  0
 45 98  1  0
 57 99  1  0
 57100  1  0
 58101  1  0
 58102  1  0
 58103  1  0
 59104  1  0
 59105  1  0
 60106  1  0
 60107  1  0
 60108  1  0
 61109  1  0
 68110  1  0
 69111  1  0
 70112  1  0
M  END

