
     RDKit          3D

115129  0  0  0  0  0  0  0  0999 V2000
    1.9248   -3.4238    5.5344 C   0  0  0  0  0  0  0  0  0  0  0  0
    2.8621   -2.4851    5.7797 C   0  0  0  0  0  0  0  0  0  0  0  0
    4.2898   -2.7946    5.8634 C   0  0  0  0  0  0  0  0  0  0  0  0
    4.7868   -3.9192    6.1403 O   0  0  0  0  0  0  0  0  0  0  0  0
    5.0355   -1.6225    5.4367 C   0  0  0  0  0  0  0  0  0  0  0  0
    6.4227   -1.5304    5.1718 C   0  0  0  0  0  0  0  0  0  0  0  0
    6.8047   -0.3264    4.6009 C   0  0  0  0  0  0  0  0  0  0  0  0
    5.8785    0.7256    4.3017 C   0  0  0  0  0  0  0  0  0  0  0  0
    4.5237    0.6490    4.5721 C   0  0  0  0  0  0  0  0  0  0  0  0
    4.1175   -0.5712    5.1755 C   0  0  0  0  0  0  0  0  0  0  0  0
    2.7588   -1.0225    5.5492 C   0  0  0  0  0  0  0  0  0  0  0  0
    1.7459   -0.2352    5.9866 C   0  0  0  0  0  0  0  0  0  0  0  0
    0.6694   -0.7815    6.7703 C   0  0  0  0  0  0  0  0  0  0  0  0
   -0.1846   -1.2227    7.4138 N   0  0  0  0  0  0  0  0  0  0  0  0
    1.7401    1.1926    5.8045 C   0  0  0  0  0  0  0  0  0  0  0  0
    1.7256    2.3391    5.6522 N   0  0  0  0  0  0  0  0  0  0  0  0
    6.9803    1.5533    3.7125 C   0  0  0  0  0  0  0  0  0  0  0  0
    7.4762    2.7582    4.5645 C   0  0  0  0  0  0  0  0  0  0  0  0
    8.8030    3.1682    3.9690 C   0  0  0  0  0  0  0  0  0  0  0  0
    9.6694    2.1925    4.2690 C   0  0  0  0  0  0  0  0  0  0  0  0
    8.8984    1.1576    5.0558 C   0  0  0  0  0  0  0  0  0  0  0  0
    7.9853    2.0906    5.8316 C   0  0  0  0  0  0  0  0  0  0  0  0
    7.9326    0.4850    4.0343 C   0  0  0  0  0  0  0  0  0  0  0  0
    0.7075   -3.1687    4.7333 C   0  0  0  0  0  0  0  0  0  0  0  0
   -0.4334   -3.9954    4.6488 C   0  0  0  0  0  0  0  0  0  0  0  0
   -0.7245   -5.0851    5.4763 O   0  0  0  0  0  0  0  0  0  0  0  0
   -0.6670   -5.0315    6.9002 C   0  0  0  0  0  0  0  0  0  0  0  0
   -1.9382   -4.3939    7.4511 C   0  0  0  0  0  0  0  0  0  0  0  0
   -1.2625   -3.6144    3.5914 C   0  0  0  0  0  0  0  0  0  0  0  0
   -2.8192   -4.0927    3.0872 S   0  0  0  0  0  0  0  0  0  0  0  0
   -2.8172   -2.9130    1.8606 C   0  0  0  0  0  0  0  0  0  0  0  0
   -3.7413   -2.2488    1.1036 C   0  0  0  0  0  0  0  0  0  0  0  0
   -5.1256   -2.4063    1.0198 C   0  0  0  0  0  0  0  0  0  0  0  0
   -5.8914   -1.4034    0.3586 C   0  0  0  0  0  0  0  0  0  0  0  0
   -7.2312   -1.5981    0.2918 N   0  0  0  0  0  0  0  0  0  0  0  0
   -7.3474   -3.0338    1.1087 S   0  0  0  0  0  0  0  0  0  0  0  0
   -5.8062   -3.4535    1.5476 N   0  0  0  0  0  0  0  0  0  0  0  0
   -5.2301   -0.2976   -0.1894 C   0  0  0  0  0  0  0  0  0  0  0  0
   -5.6759    0.6631   -1.0520 C   0  0  0  0  0  0  0  0  0  0  0  0
   -7.0220    0.8018   -2.0773 S   0  0  0  0  0  0  0  0  0  0  0  0
   -6.1582    1.7659   -3.1853 C   0  0  0  0  0  0  0  0  0  0  0  0
   -6.3929    2.1713   -4.5100 C   0  0  0  0  0  0  0  0  0  0  0  0
   -7.6038    2.0845   -5.2063 O   0  0  0  0  0  0  0  0  0  0  0  0
   -8.8930    2.2284   -4.6066 C   0  0  0  0  0  0  0  0  0  0  0  0
   -9.0768    3.6414   -4.0566 C   0  0  0  0  0  0  0  0  0  0  0  0
   -5.2149    2.6317   -5.1126 C   0  0  0  0  0  0  0  0  0  0  0  0
   -3.9355    2.5805   -3.9923 S   0  0  0  0  0  0  0  0  0  0  0  0
   -4.8559    1.9136   -2.7682 C   0  0  0  0  0  0  0  0  0  0  0  0
   -4.5733    1.2785   -1.5632 C   0  0  0  0  0  0  0  0  0  0  0  0
   -3.4159    0.7627   -1.0749 N   0  0  0  0  0  0  0  0  0  0  0  0
   -3.8324   -0.1657   -0.1531 C   0  0  0  0  0  0  0  0  0  0  0  0
   -3.0781   -1.1213    0.5836 C   0  0  0  0  0  0  0  0  0  0  0  0
   -1.8033   -1.0367    1.0982 N   0  0  0  0  0  0  0  0  0  0  0  0
   -1.6870   -2.1645    1.8482 C   0  0  0  0  0  0  0  0  0  0  0  0
   -0.8129   -2.5531    2.8520 C   0  0  0  0  0  0  0  0  0  0  0  0
    0.6343   -2.0169    3.4756 S   0  0  0  0  0  0  0  0  0  0  0  0
   -0.9859    0.1690    1.2963 C   0  0  0  0  0  0  0  0  0  0  0  0
    0.3993    0.0236    0.6485 C   0  0  0  0  0  0  0  0  0  0  0  0
   -2.1650    0.7306   -1.8452 C   0  0  0  0  0  0  0  0  0  0  0  0
   -2.1956   -0.3626   -2.9103 C   0  0  0  0  0  0  0  0  0  0  0  0
   -5.0888    3.1376   -6.4892 C   0  0  0  0  0  0  0  0  0  0  0  0
   -4.0745    2.8129   -7.3084 C   0  0  0  0  0  0  0  0  0  0  0  0
   -3.7011    3.6444   -8.7182 S   0  0  0  0  0  0  0  0  0  0  0  0
   -2.3362    2.7180   -9.0945 C   0  0  0  0  0  0  0  0  0  0  0  0
   -1.5204    2.9868  -10.1436 C   0  0  0  0  0  0  0  0  0  0  0  0
   -1.7553    4.1393  -10.9791 C   0  0  0  0  0  0  0  0  0  0  0  0
   -1.9233    5.0778  -11.6391 N   0  0  0  0  0  0  0  0  0  0  0  0
   -0.3412    2.2205  -10.4545 C   0  0  0  0  0  0  0  0  0  0  0  0
    0.6070    1.6068  -10.7169 N   0  0  0  0  0  0  0  0  0  0  0  0
   -2.1772    1.7334   -8.1542 N   0  0  0  0  0  0  0  0  0  0  0  0
   -1.1356    0.7400   -8.1195 C   0  0  0  0  0  0  0  0  0  0  0  0
   -1.2097   -0.3924   -8.9429 C   0  0  0  0  0  0  0  0  0  0  0  0
   -0.2119   -1.3703   -8.8819 C   0  0  0  0  0  0  0  0  0  0  0  0
    0.8504   -1.2322   -7.9839 C   0  0  0  0  0  0  0  0  0  0  0  0
    0.9163   -0.1163   -7.1455 C   0  0  0  0  0  0  0  0  0  0  0  0
   -0.0758    0.8651   -7.2073 C   0  0  0  0  0  0  0  0  0  0  0  0
   -3.1397    1.7770   -7.1826 C   0  0  0  0  0  0  0  0  0  0  0  0
   -3.1964    0.9028   -6.2743 O   0  0  0  0  0  0  0  0  0  0  0  0
    2.1645   -4.4609    5.7360 H   0  0  0  0  0  0  0  0  0  0  0  0
    7.1195   -2.3386    5.3491 H   0  0  0  0  0  0  0  0  0  0  0  0
    3.8518    1.4388    4.2824 H   0  0  0  0  0  0  0  0  0  0  0  0
    6.8563    1.7511    2.6240 H   0  0  0  0  0  0  0  0  0  0  0  0
    6.7413    3.5788    4.7096 H   0  0  0  0  0  0  0  0  0  0  0  0
    9.0416    4.1023    3.4743 H   0  0  0  0  0  0  0  0  0  0  0  0
   10.7342    2.2026    4.0620 H   0  0  0  0  0  0  0  0  0  0  0  0
    9.5207    0.4669    5.6635 H   0  0  0  0  0  0  0  0  0  0  0  0
    7.1986    1.5707    6.4225 H   0  0  0  0  0  0  0  0  0  0  0  0
    8.5356    2.7908    6.5058 H   0  0  0  0  0  0  0  0  0  0  0  0
    8.4171    0.0149    3.1494 H   0  0  0  0  0  0  0  0  0  0  0  0
   -0.5913   -6.0680    7.2910 H   0  0  0  0  0  0  0  0  0  0  0  0
    0.2179   -4.4624    7.2556 H   0  0  0  0  0  0  0  0  0  0  0  0
   -2.0041   -3.3329    7.1246 H   0  0  0  0  0  0  0  0  0  0  0  0
   -2.8287   -4.9403    7.0813 H   0  0  0  0  0  0  0  0  0  0  0  0
   -1.9283   -4.4325    8.5574 H   0  0  0  0  0  0  0  0  0  0  0  0
   -9.6586    2.0512   -5.3874 H   0  0  0  0  0  0  0  0  0  0  0  0
   -9.0488    1.4746   -3.8115 H   0  0  0  0  0  0  0  0  0  0  0  0
   -8.8644    4.3814   -4.8622 H   0  0  0  0  0  0  0  0  0  0  0  0
  -10.1246    3.7815   -3.7089 H   0  0  0  0  0  0  0  0  0  0  0  0
   -8.3821    3.8161   -3.2036 H   0  0  0  0  0  0  0  0  0  0  0  0
   -1.5062    1.0658    0.9028 H   0  0  0  0  0  0  0  0  0  0  0  0
   -0.8596    0.3624    2.3844 H   0  0  0  0  0  0  0  0  0  0  0  0
    0.8296    1.0305    0.4547 H   0  0  0  0  0  0  0  0  0  0  0  0
    0.3484   -0.5434   -0.3023 H   0  0  0  0  0  0  0  0  0  0  0  0
    1.1002   -0.5151    1.3040 H   0  0  0  0  0  0  0  0  0  0  0  0
   -1.9751    1.7182   -2.3056 H   0  0  0  0  0  0  0  0  0  0  0  0
   -1.3059    0.5526   -1.2091 H   0  0  0  0  0  0  0  0  0  0  0  0
   -2.3154   -1.3575   -2.4289 H   0  0  0  0  0  0  0  0  0  0  0  0
   -1.2400   -0.3527   -3.4784 H   0  0  0  0  0  0  0  0  0  0  0  0
   -3.0319   -0.1988   -3.6192 H   0  0  0  0  0  0  0  0  0  0  0  0
   -5.8056    3.8832   -6.8082 H   0  0  0  0  0  0  0  0  0  0  0  0
   -2.0403   -0.5111   -9.6301 H   0  0  0  0  0  0  0  0  0  0  0  0
   -0.2675   -2.2398   -9.5258 H   0  0  0  0  0  0  0  0  0  0  0  0
    1.6201   -1.9887   -7.9375 H   0  0  0  0  0  0  0  0  0  0  0  0
    1.7320   -0.0164   -6.4412 H   0  0  0  0  0  0  0  0  0  0  0  0
   -0.0277    1.7217   -6.5456 H   0  0  0  0  0  0  0  0  0  0  0  0
  1  2  2  3
  2  3  1  0
  3  4  2  0
  3  5  1  0
  5  6  2  0
  6  7  1  0
  7  8  2  0
  8  9  1  0
  9 10  2  0
 10 11  1  0
 11 12  2  3
 12 13  1  0
 13 14  3  0
 12 15  1  0
 15 16  3  0
  8 17  1  0
 17 18  1  0
 18 19  1  0
 19 20  2  0
 20 21  1  0
 21 22  1  0
 21 23  1  0
  1 24  1  0
 24 25  2  0
 25 26  1  0
 26 27  1  0
 27 28  1  0
 25 29  1  0
 29 30  1  0
 30 31  1  0
 31 32  1  0
 32 33  1  0
 33 34  1  0
 34 35  2  0
 35 36  1  0
 36 37  1  0
 34 38  1  0
 38 39  1  0
 39 40  1  0
 40 41  1  0
 41 42  1  0
 42 43  1  0
 43 44  1  0
 44 45  1  0
 42 46  2  0
 46 47  1  0
 47 48  1  0
 48 49  1  0
 49 50  1  0
 50 51  1  0
 51 52  1  0
 52 53  1  0
 53 54  1  0
 54 55  1  0
 55 56  1  0
 53 57  1  0
 57 58  1  0
 50 59  1  0
 59 60  1  0
 46 61  1  0
 61 62  2  3
 62 63  1  0
 63 64  1  0
 64 65  2  3
 65 66  1  0
 66 67  3  0
 65 68  1  0
 68 69  3  0
 64 70  1  0
 70 71  1  0
 71 72  2  0
 72 73  1  0
 73 74  2  0
 74 75  1  0
 75 76  2  0
 70 77  1  0
 77 78  2  0
 11  2  1  0
 23 17  1  0
 56 24  1  0
 77 62  1  0
 10  5  1  0
 22 18  1  0
 55 29  2  0
 76 71  1  0
 23  7  1  0
 54 31  2  0
 52 32  2  0
 37 33  2  0
 51 38  2  0
 49 39  2  0
 48 41  2  0
  1 79  1  0
  6 80  1  0
  9 81  1  0
 17 82  1  0
 18 83  1  0
 19 84  1  0
 20 85  1  0
 21 86  1  0
 22 87  1  0
 22 88  1  0
 23 89  1  0
 27 90  1  0
 27 91  1  0
 28 92  1  0
 28 93  1  0
 28 94  1  0
 44 95  1  0
 44 96  1  0
 45 97  1  0
 45 98  1  0
 45 99  1  0
 57100  1  0
 57101  1  0
 58102  1  0
 58103  1  0
 58104  1  0
 59105  1  0
 59106  1  0
 60107  1  0
 60108  1  0
 60109  1  0
 61110  1  0
 72111  1  0
 73112  1  0
 74113  1  0
 75114  1  0
 76115  1  0
M  END

