
     RDKit          3D

116130  0  0  0  0  0  0  0  0999 V2000
   -6.3817    2.5166   -1.4941 C   0  0  0  0  0  0  0  0  0  0  0  0
   -6.8536    1.2754   -1.2639 C   0  0  0  0  0  0  0  0  0  0  0  0
   -6.0758    0.1406   -0.7525 C   0  0  0  0  0  0  0  0  0  0  0  0
   -5.0704    0.2055    0.0059 O   0  0  0  0  0  0  0  0  0  0  0  0
   -6.7155   -1.0842   -1.1776 C   0  0  0  0  0  0  0  0  0  0  0  0
   -6.1704   -2.3860   -1.1338 C   0  0  0  0  0  0  0  0  0  0  0  0
   -6.9333   -3.3316   -1.7910 C   0  0  0  0  0  0  0  0  0  0  0  0
   -8.1719   -3.0259   -2.4408 C   0  0  0  0  0  0  0  0  0  0  0  0
   -8.7166   -1.7528   -2.4829 C   0  0  0  0  0  0  0  0  0  0  0  0
   -7.9424   -0.7637   -1.8109 C   0  0  0  0  0  0  0  0  0  0  0  0
   -8.1447    0.7096   -1.7545 C   0  0  0  0  0  0  0  0  0  0  0  0
   -9.3221    1.3684   -1.8996 C   0  0  0  0  0  0  0  0  0  0  0  0
  -10.5529    0.6805   -2.1930 C   0  0  0  0  0  0  0  0  0  0  0  0
  -11.5461    0.1299   -2.4311 N   0  0  0  0  0  0  0  0  0  0  0  0
   -9.4557    2.7758   -1.6320 C   0  0  0  0  0  0  0  0  0  0  0  0
   -9.5759    3.9075   -1.4232 N   0  0  0  0  0  0  0  0  0  0  0  0
   -8.2900   -4.4455   -2.9152 C   0  0  0  0  0  0  0  0  0  0  0  0
   -8.0106   -4.7298   -4.4205 C   0  0  0  0  0  0  0  0  0  0  0  0
   -7.0138   -3.7311   -4.9590 C   0  0  0  0  0  0  0  0  0  0  0  0
   -5.8492   -3.9960   -4.3667 C   0  0  0  0  0  0  0  0  0  0  0  0
   -6.0904   -5.1745   -3.4475 C   0  0  0  0  0  0  0  0  0  0  0  0
   -7.0967   -5.9365   -4.2947 C   0  0  0  0  0  0  0  0  0  0  0  0
   -7.0130   -4.7523   -2.2625 C   0  0  0  0  0  0  0  0  0  0  0  0
   -4.9789    2.9138   -1.2869 C   0  0  0  0  0  0  0  0  0  0  0  0
   -4.5310    4.1647   -0.8138 C   0  0  0  0  0  0  0  0  0  0  0  0
   -5.3255    5.1788   -0.2649 O   0  0  0  0  0  0  0  0  0  0  0  0
   -6.3525    4.9534    0.6989 C   0  0  0  0  0  0  0  0  0  0  0  0
   -5.7428    4.5489    2.0372 C   0  0  0  0  0  0  0  0  0  0  0  0
   -3.1484    4.2870   -0.9379 C   0  0  0  0  0  0  0  0  0  0  0  0
   -2.0347    5.4848   -0.4475 S   0  0  0  0  0  0  0  0  0  0  0  0
   -0.7392    4.4929   -0.9180 C   0  0  0  0  0  0  0  0  0  0  0  0
    0.6234    4.5069   -0.9586 C   0  0  0  0  0  0  0  0  0  0  0  0
    1.5561    5.5060   -0.6710 C   0  0  0  0  0  0  0  0  0  0  0  0
    2.9410    5.2146   -0.8457 C   0  0  0  0  0  0  0  0  0  0  0  0
    3.8205    6.1979   -0.5322 N   0  0  0  0  0  0  0  0  0  0  0  0
    2.7592    7.3853   -0.0785 S   0  0  0  0  0  0  0  0  0  0  0  0
    1.2360    6.7479   -0.2299 N   0  0  0  0  0  0  0  0  0  0  0  0
    3.3151    3.9264   -1.2591 C   0  0  0  0  0  0  0  0  0  0  0  0
    4.5217    3.2921   -1.1438 C   0  0  0  0  0  0  0  0  0  0  0  0
    5.9878    3.6557   -0.3635 S   0  0  0  0  0  0  0  0  0  0  0  0
    6.3357    2.0018   -0.1631 C   0  0  0  0  0  0  0  0  0  0  0  0
    7.3283    1.3269    0.5421 C   0  0  0  0  0  0  0  0  0  0  0  0
    8.4002    2.0108    1.1379 O   0  0  0  0  0  0  0  0  0  0  0  0
    9.3461    1.4338    2.0312 C   0  0  0  0  0  0  0  0  0  0  0  0
   10.0650    2.5497    2.7821 C   0  0  0  0  0  0  0  0  0  0  0  0
    7.0502   -0.0561    0.6039 C   0  0  0  0  0  0  0  0  0  0  0  0
    5.5787   -0.3783   -0.2011 S   0  0  0  0  0  0  0  0  0  0  0  0
    5.3134    1.2188   -0.6299 C   0  0  0  0  0  0  0  0  0  0  0  0
    4.2781    1.9531   -1.2004 C   0  0  0  0  0  0  0  0  0  0  0  0
    2.9604    1.6697   -1.3778 N   0  0  0  0  0  0  0  0  0  0  0  0
    2.3707    2.9064   -1.4876 C   0  0  0  0  0  0  0  0  0  0  0  0
    0.9941    3.2416   -1.4391 C   0  0  0  0  0  0  0  0  0  0  0  0
   -0.1068    2.5060   -1.8053 N   0  0  0  0  0  0  0  0  0  0  0  0
   -1.1380    3.3028   -1.4276 C   0  0  0  0  0  0  0  0  0  0  0  0
   -2.5158    3.1914   -1.4681 C   0  0  0  0  0  0  0  0  0  0  0  0
   -3.6404    2.0217   -1.8687 S   0  0  0  0  0  0  0  0  0  0  0  0
   -0.1769    1.5539   -2.9247 C   0  0  0  0  0  0  0  0  0  0  0  0
   -0.9047    0.2614   -2.5431 C   0  0  0  0  0  0  0  0  0  0  0  0
    2.3286    0.4371   -0.8938 C   0  0  0  0  0  0  0  0  0  0  0  0
    1.9504    0.5592    0.5805 C   0  0  0  0  0  0  0  0  0  0  0  0
    7.9167   -1.1082    1.1514 C   0  0  0  0  0  0  0  0  0  0  0  0
    7.4940   -2.1209    1.9289 C   0  0  0  0  0  0  0  0  0  0  0  0
    8.1985   -3.3955    1.9842 C   0  0  0  0  0  0  0  0  0  0  0  0
    9.3588   -3.6165    1.5451 O   0  0  0  0  0  0  0  0  0  0  0  0
    7.3219   -4.3850    2.5682 C   0  0  0  0  0  0  0  0  0  0  0  0
    7.6095   -5.7294    2.7954 C   0  0  0  0  0  0  0  0  0  0  0  0
    6.6723   -6.5053    3.4783 C   0  0  0  0  0  0  0  0  0  0  0  0
    5.4924   -5.9232    3.9615 C   0  0  0  0  0  0  0  0  0  0  0  0
    5.2177   -4.5487    3.7534 C   0  0  0  0  0  0  0  0  0  0  0  0
    4.1024   -3.9441    4.3438 O   0  0  0  0  0  0  0  0  0  0  0  0
    3.1662   -4.6086    5.1862 C   0  0  0  0  0  0  0  0  0  0  0  0
    6.1261   -3.7935    2.9657 C   0  0  0  0  0  0  0  0  0  0  0  0
    6.1757   -2.3311    2.6064 C   0  0  0  0  0  0  0  0  0  0  0  0
    5.3360   -1.3540    3.0309 C   0  0  0  0  0  0  0  0  0  0  0  0
    5.8025   -0.0188    3.2925 C   0  0  0  0  0  0  0  0  0  0  0  0
    6.1699    1.0566    3.5181 N   0  0  0  0  0  0  0  0  0  0  0  0
    3.9221   -1.5529    3.1769 C   0  0  0  0  0  0  0  0  0  0  0  0
    2.7762   -1.6877    3.2903 N   0  0  0  0  0  0  0  0  0  0  0  0
   -7.0035    3.2609   -1.9562 H   0  0  0  0  0  0  0  0  0  0  0  0
   -5.2038   -2.6110   -0.7025 H   0  0  0  0  0  0  0  0  0  0  0  0
   -9.5957   -1.5464   -3.0691 H   0  0  0  0  0  0  0  0  0  0  0  0
   -9.1582   -4.9921   -2.4866 H   0  0  0  0  0  0  0  0  0  0  0  0
   -8.9169   -4.8802   -5.0483 H   0  0  0  0  0  0  0  0  0  0  0  0
   -7.1801   -2.9861   -5.7272 H   0  0  0  0  0  0  0  0  0  0  0  0
   -4.9033   -3.5030   -4.5757 H   0  0  0  0  0  0  0  0  0  0  0  0
   -5.1840   -5.7427   -3.1593 H   0  0  0  0  0  0  0  0  0  0  0  0
   -7.5638   -6.7974   -3.7602 H   0  0  0  0  0  0  0  0  0  0  0  0
   -6.6833   -6.2806   -5.2754 H   0  0  0  0  0  0  0  0  0  0  0  0
   -7.0979   -5.4982   -1.4398 H   0  0  0  0  0  0  0  0  0  0  0  0
   -7.0672    4.1771    0.3577 H   0  0  0  0  0  0  0  0  0  0  0  0
   -6.9182    5.8982    0.8363 H   0  0  0  0  0  0  0  0  0  0  0  0
   -5.1658    3.6064    1.9297 H   0  0  0  0  0  0  0  0  0  0  0  0
   -5.0638    5.3565    2.3893 H   0  0  0  0  0  0  0  0  0  0  0  0
   -6.5474    4.3911    2.7852 H   0  0  0  0  0  0  0  0  0  0  0  0
   10.0977    0.8454    1.4565 H   0  0  0  0  0  0  0  0  0  0  0  0
    8.8388    0.7901    2.7794 H   0  0  0  0  0  0  0  0  0  0  0  0
    9.3272    3.1509    3.3562 H   0  0  0  0  0  0  0  0  0  0  0  0
   10.7993    2.1092    3.4867 H   0  0  0  0  0  0  0  0  0  0  0  0
   10.5982    3.2076    2.0637 H   0  0  0  0  0  0  0  0  0  0  0  0
   -0.7009    2.0310   -3.7794 H   0  0  0  0  0  0  0  0  0  0  0  0
    0.8427    1.3175   -3.2961 H   0  0  0  0  0  0  0  0  0  0  0  0
   -1.8893    0.2046   -3.0494 H   0  0  0  0  0  0  0  0  0  0  0  0
   -1.0512    0.1865   -1.4428 H   0  0  0  0  0  0  0  0  0  0  0  0
   -0.3178   -0.6237   -2.8782 H   0  0  0  0  0  0  0  0  0  0  0  0
    3.0072   -0.4234   -1.0366 H   0  0  0  0  0  0  0  0  0  0  0  0
    1.4385    0.1841   -1.4784 H   0  0  0  0  0  0  0  0  0  0  0  0
    1.6199   -0.4256    0.9701 H   0  0  0  0  0  0  0  0  0  0  0  0
    1.1163    1.2829    0.6995 H   0  0  0  0  0  0  0  0  0  0  0  0
    2.8177    0.9126    1.1708 H   0  0  0  0  0  0  0  0  0  0  0  0
    8.9271   -1.1480    0.7569 H   0  0  0  0  0  0  0  0  0  0  0  0
    8.5450   -6.1627    2.4658 H   0  0  0  0  0  0  0  0  0  0  0  0
    6.8753   -7.5512    3.6648 H   0  0  0  0  0  0  0  0  0  0  0  0
    4.8149   -6.5476    4.5278 H   0  0  0  0  0  0  0  0  0  0  0  0
    3.6809   -5.0202    6.0793 H   0  0  0  0  0  0  0  0  0  0  0  0
    2.6608   -5.4249    4.6263 H   0  0  0  0  0  0  0  0  0  0  0  0
    2.4007   -3.8802    5.5223 H   0  0  0  0  0  0  0  0  0  0  0  0
  1  2  2  3
  2  3  1  0
  3  4  2  0
  3  5  1  0
  5  6  2  0
  6  7  1  0
  7  8  2  0
  8  9  1  0
  9 10  2  0
 10 11  1  0
 11 12  2  3
 12 13  1  0
 13 14  3  0
 12 15  1  0
 15 16  3  0
  8 17  1  0
 17 18  1  0
 18 19  1  0
 19 20  2  0
 20 21  1  0
 21 22  1  0
 21 23  1  0
  1 24  1  0
 24 25  2  0
 25 26  1  0
 26 27  1  0
 27 28  1  0
 25 29  1  0
 29 30  1  0
 30 31  1  0
 31 32  1  0
 32 33  1  0
 33 34  1  0
 34 35  2  0
 35 36  1  0
 36 37  1  0
 34 38  1  0
 38 39  1  0
 39 40  1  0
 40 41  1  0
 41 42  1  0
 42 43  1  0
 43 44  1  0
 44 45  1  0
 42 46  2  0
 46 47  1  0
 47 48  1  0
 48 49  1  0
 49 50  1  0
 50 51  1  0
 51 52  1  0
 52 53  1  0
 53 54  1  0
 54 55  1  0
 55 56  1  0
 53 57  1  0
 57 58  1  0
 50 59  1  0
 59 60  1  0
 46 61  1  0
 61 62  2  3
 62 63  1  0
 63 64  2  0
 63 65  1  0
 65 66  2  0
 66 67  1  0
 67 68  2  0
 68 69  1  0
 69 70  1  0
 70 71  1  0
 69 72  2  0
 72 73  1  0
 73 74  2  3
 74 75  1  0
 75 76  3  0
 74 77  1  0
 77 78  3  0
 11  2  1  0
 23 17  1  0
 56 24  1  0
 73 62  1  0
 10  5  1  0
 22 18  1  0
 55 29  2  0
 72 65  1  0
 23  7  1  0
 54 31  2  0
 52 32  2  0
 37 33  2  0
 51 38  2  0
 49 39  2  0
 48 41  2  0
  1 79  1  0
  6 80  1  0
  9 81  1  0
 17 82  1  0
 18 83  1  0
 19 84  1  0
 20 85  1  0
 21 86  1  0
 22 87  1  0
 22 88  1  0
 23 89  1  0
 27 90  1  0
 27 91  1  0
 28 92  1  0
 28 93  1  0
 28 94  1  0
 44 95  1  0
 44 96  1  0
 45 97  1  0
 45 98  1  0
 45 99  1  0
 57100  1  0
 57101  1  0
 58102  1  0
 58103  1  0
 58104  1  0
 59105  1  0
 59106  1  0
 60107  1  0
 60108  1  0
 60109  1  0
 61110  1  0
 66111  1  0
 67112  1  0
 68113  1  0
 71114  1  0
 71115  1  0
 71116  1  0
M  END

