
     RDKit          3D

 99111  0  0  0  0  0  0  0  0999 V2000
   -0.9747   -1.2694    4.4677 C   0  0  0  0  0  0  0  0  0  0  0  0
   -1.8921   -0.9744    5.4097 C   0  0  0  0  0  0  0  0  0  0  0  0
   -2.3111    0.3826    5.7826 C   0  0  0  0  0  0  0  0  0  0  0  0
   -2.0102    1.4488    5.1836 O   0  0  0  0  0  0  0  0  0  0  0  0
   -3.1490    0.3074    6.9568 C   0  0  0  0  0  0  0  0  0  0  0  0
   -3.7525    1.3895    7.6380 C   0  0  0  0  0  0  0  0  0  0  0  0
   -4.5284    1.0111    8.7182 C   0  0  0  0  0  0  0  0  0  0  0  0
   -4.7008   -0.3542    9.1141 C   0  0  0  0  0  0  0  0  0  0  0  0
   -4.1113   -1.4196    8.4563 C   0  0  0  0  0  0  0  0  0  0  0  0
   -3.3134   -1.0548    7.3278 C   0  0  0  0  0  0  0  0  0  0  0  0
   -2.5933   -1.9206    6.3424 C   0  0  0  0  0  0  0  0  0  0  0  0
   -2.6943   -3.2751    6.2238 C   0  0  0  0  0  0  0  0  0  0  0  0
   -2.1709   -4.0077    5.1004 C   0  0  0  0  0  0  0  0  0  0  0  0
   -1.7647   -4.6094    4.1985 N   0  0  0  0  0  0  0  0  0  0  0  0
   -3.4322   -4.0926    7.1511 C   0  0  0  0  0  0  0  0  0  0  0  0
   -4.0167   -4.7748    7.8837 N   0  0  0  0  0  0  0  0  0  0  0  0
   -5.6059    0.0638   10.2335 C   0  0  0  0  0  0  0  0  0  0  0  0
   -7.1292   -0.1851   10.0203 C   0  0  0  0  0  0  0  0  0  0  0  0
   -7.8324    0.6448   11.0677 C   0  0  0  0  0  0  0  0  0  0  0  0
   -7.6647    1.9252   10.7112 C   0  0  0  0  0  0  0  0  0  0  0  0
   -6.8607    1.9133    9.4321 C   0  0  0  0  0  0  0  0  0  0  0  0
   -7.4495    0.6623    8.7993 C   0  0  0  0  0  0  0  0  0  0  0  0
   -5.4252    1.4637    9.8332 C   0  0  0  0  0  0  0  0  0  0  0  0
   -0.3920   -0.2703    3.5635 C   0  0  0  0  0  0  0  0  0  0  0  0
    0.6580    0.6034    3.8797 C   0  0  0  0  0  0  0  0  0  0  0  0
    1.2130    0.6696    5.1665 O   0  0  0  0  0  0  0  0  0  0  0  0
    2.3343    1.4669    5.5183 C   0  0  0  0  0  0  0  0  0  0  0  0
    2.6825    1.2362    6.9801 C   0  0  0  0  0  0  0  0  0  0  0  0
    1.0693    1.3213    2.7464 C   0  0  0  0  0  0  0  0  0  0  0  0
    2.3552    2.3890    2.4054 S   0  0  0  0  0  0  0  0  0  0  0  0
    1.9298    2.4568    0.7646 C   0  0  0  0  0  0  0  0  0  0  0  0
    2.5717    2.7288   -0.4123 C   0  0  0  0  0  0  0  0  0  0  0  0
    3.8838    3.1565   -0.6643 C   0  0  0  0  0  0  0  0  0  0  0  0
    4.4156    3.0126   -1.9843 C   0  0  0  0  0  0  0  0  0  0  0  0
    5.6965    3.4074   -2.1798 N   0  0  0  0  0  0  0  0  0  0  0  0
    6.0737    3.8885   -0.6383 S   0  0  0  0  0  0  0  0  0  0  0  0
    4.7206    3.6453    0.2850 N   0  0  0  0  0  0  0  0  0  0  0  0
    3.5861    2.4965   -2.9862 C   0  0  0  0  0  0  0  0  0  0  0  0
    3.7675    2.2944   -4.3266 C   0  0  0  0  0  0  0  0  0  0  0  0
    4.9850    2.3631   -5.5131 S   0  0  0  0  0  0  0  0  0  0  0  0
    3.8706    1.8676   -6.7112 C   0  0  0  0  0  0  0  0  0  0  0  0
    4.0064    1.4804   -8.0397 C   0  0  0  0  0  0  0  0  0  0  0  0
    5.2365    1.4952   -8.7046 O   0  0  0  0  0  0  0  0  0  0  0  0
    5.7751    0.3597   -9.3787 C   0  0  0  0  0  0  0  0  0  0  0  0
    6.1064   -0.7472   -8.3823 C   0  0  0  0  0  0  0  0  0  0  0  0
    2.7810    1.0229   -8.5688 C   0  0  0  0  0  0  0  0  0  0  0  0
    1.5761    1.0762   -7.3537 S   0  0  0  0  0  0  0  0  0  0  0  0
    2.6177    1.6801   -6.1910 C   0  0  0  0  0  0  0  0  0  0  0  0
    2.5703    1.9094   -4.8306 C   0  0  0  0  0  0  0  0  0  0  0  0
    1.5908    1.8430   -3.8981 N   0  0  0  0  0  0  0  0  0  0  0  0
    2.2558    2.1315   -2.7372 C   0  0  0  0  0  0  0  0  0  0  0  0
    1.7826    2.1304   -1.4079 C   0  0  0  0  0  0  0  0  0  0  0  0
    0.7801    1.3714   -0.8577 N   0  0  0  0  0  0  0  0  0  0  0  0
    0.8758    1.6499    0.4692 C   0  0  0  0  0  0  0  0  0  0  0  0
    0.3895    1.0017    1.5968 C   0  0  0  0  0  0  0  0  0  0  0  0
   -0.7456   -0.1951    1.9017 S   0  0  0  0  0  0  0  0  0  0  0  0
    0.2923    0.0839   -1.3817 C   0  0  0  0  0  0  0  0  0  0  0  0
    1.2792   -1.0427   -1.0656 C   0  0  0  0  0  0  0  0  0  0  0  0
    0.1593    2.0417   -4.1721 C   0  0  0  0  0  0  0  0  0  0  0  0
   -0.0900    3.4054   -4.8165 C   0  0  0  0  0  0  0  0  0  0  0  0
    2.5280    0.6199   -9.9705 C   0  0  0  0  0  0  0  0  0  0  0  0
    1.9243   -0.5504  -10.2812 C   0  0  0  0  0  0  0  0  0  0  0  0
    1.5445   -1.5038   -9.2660 C   0  0  0  0  0  0  0  0  0  0  0  0
    1.2361   -2.2643   -8.4463 N   0  0  0  0  0  0  0  0  0  0  0  0
    1.6797   -0.9344  -11.6534 C   0  0  0  0  0  0  0  0  0  0  0  0
    1.4841   -1.2438  -12.7520 N   0  0  0  0  0  0  0  0  0  0  0  0
    2.9692    1.5221  -11.0133 C   0  0  0  0  0  0  0  0  0  0  0  0
    3.3256    2.2340  -11.8574 N   0  0  0  0  0  0  0  0  0  0  0  0
   -0.6320   -2.2752    4.3116 H   0  0  0  0  0  0  0  0  0  0  0  0
   -3.6311    2.4237    7.3420 H   0  0  0  0  0  0  0  0  0  0  0  0
   -4.2719   -2.4198    8.8133 H   0  0  0  0  0  0  0  0  0  0  0  0
   -5.2110   -0.1839   11.2439 H   0  0  0  0  0  0  0  0  0  0  0  0
   -7.4431   -1.2489    9.9683 H   0  0  0  0  0  0  0  0  0  0  0  0
   -8.4258    0.2879   11.9032 H   0  0  0  0  0  0  0  0  0  0  0  0
   -8.0993    2.7863   11.2103 H   0  0  0  0  0  0  0  0  0  0  0  0
   -6.9276    2.8396    8.8234 H   0  0  0  0  0  0  0  0  0  0  0  0
   -8.5429    0.7434    8.5877 H   0  0  0  0  0  0  0  0  0  0  0  0
   -6.9311    0.3375    7.8702 H   0  0  0  0  0  0  0  0  0  0  0  0
   -4.9130    2.0956   10.5950 H   0  0  0  0  0  0  0  0  0  0  0  0
    2.0868    2.5396    5.3708 H   0  0  0  0  0  0  0  0  0  0  0  0
    3.2105    1.1906    4.8923 H   0  0  0  0  0  0  0  0  0  0  0  0
    1.8423    1.5751    7.6246 H   0  0  0  0  0  0  0  0  0  0  0  0
    3.6000    1.8042    7.2422 H   0  0  0  0  0  0  0  0  0  0  0  0
    2.8635    0.1551    7.1582 H   0  0  0  0  0  0  0  0  0  0  0  0
    6.7088    0.6633   -9.8982 H   0  0  0  0  0  0  0  0  0  0  0  0
    5.0799   -0.0295  -10.1464 H   0  0  0  0  0  0  0  0  0  0  0  0
    6.7930   -0.3551   -7.6007 H   0  0  0  0  0  0  0  0  0  0  0  0
    5.1778   -1.1179   -7.9038 H   0  0  0  0  0  0  0  0  0  0  0  0
    6.5962   -1.5935   -8.9097 H   0  0  0  0  0  0  0  0  0  0  0  0
   -0.6976   -0.1527   -0.9411 H   0  0  0  0  0  0  0  0  0  0  0  0
    0.1679    0.0998   -2.4773 H   0  0  0  0  0  0  0  0  0  0  0  0
    0.9056   -1.9983   -1.4919 H   0  0  0  0  0  0  0  0  0  0  0  0
    2.2733   -0.8172   -1.5103 H   0  0  0  0  0  0  0  0  0  0  0  0
    1.3991   -1.1661    0.0300 H   0  0  0  0  0  0  0  0  0  0  0  0
   -0.2107    1.2355   -4.8414 H   0  0  0  0  0  0  0  0  0  0  0  0
   -0.4285    2.0249   -3.2314 H   0  0  0  0  0  0  0  0  0  0  0  0
   -1.1827    3.5684   -4.9283 H   0  0  0  0  0  0  0  0  0  0  0  0
    0.3295    4.2114   -4.1756 H   0  0  0  0  0  0  0  0  0  0  0  0
    0.3751    3.4593   -5.8232 H   0  0  0  0  0  0  0  0  0  0  0  0
  1  2  2  3
  2  3  1  0
  3  4  2  0
  3  5  1  0
  5  6  2  0
  6  7  1  0
  7  8  2  0
  8  9  1  0
  9 10  2  0
 10 11  1  0
 11 12  2  3
 12 13  1  0
 13 14  3  0
 12 15  1  0
 15 16  3  0
  8 17  1  0
 17 18  1  0
 18 19  1  0
 19 20  2  0
 20 21  1  0
 21 22  1  0
 21 23  1  0
  1 24  1  0
 24 25  2  0
 25 26  1  0
 26 27  1  0
 27 28  1  0
 25 29  1  0
 29 30  1  0
 30 31  1  0
 31 32  1  0
 32 33  1  0
 33 34  1  0
 34 35  2  0
 35 36  1  0
 36 37  1  0
 34 38  1  0
 38 39  1  0
 39 40  1  0
 40 41  1  0
 41 42  1  0
 42 43  1  0
 43 44  1  0
 44 45  1  0
 42 46  2  0
 46 47  1  0
 47 48  1  0
 48 49  1  0
 49 50  1  0
 50 51  1  0
 51 52  1  0
 52 53  1  0
 53 54  1  0
 54 55  1  0
 55 56  1  0
 53 57  1  0
 57 58  1  0
 50 59  1  0
 59 60  1  0
 46 61  1  0
 61 62  2  3
 62 63  1  0
 63 64  3  0
 62 65  1  0
 65 66  3  0
 61 67  1  0
 67 68  3  0
 11  2  1  0
 23 17  1  0
 56 24  1  0
 10  5  1  0
 22 18  1  0
 55 29  2  0
 23  7  1  0
 54 31  2  0
 52 32  2  0
 37 33  2  0
 51 38  2  0
 49 39  2  0
 48 41  2  0
  1 69  1  0
  6 70  1  0
  9 71  1  0
 17 72  1  0
 18 73  1  0
 19 74  1  0
 20 75  1  0
 21 76  1  0
 22 77  1  0
 22 78  1  0
 23 79  1  0
 27 80  1  0
 27 81  1  0
 28 82  1  0
 28 83  1  0
 28 84  1  0
 44 85  1  0
 44 86  1  0
 45 87  1  0
 45 88  1  0
 45 89  1  0
 57 90  1  0
 57 91  1  0
 58 92  1  0
 58 93  1  0
 58 94  1  0
 59 95  1  0
 59 96  1  0
 60 97  1  0
 60 98  1  0
 60 99  1  0
M  END

