
     RDKit          3D

116130  0  0  0  0  0  0  0  0999 V2000
   -3.4251   -1.3233    5.2764 C   0  0  0  0  0  0  0  0  0  0  0  0
   -3.9700   -2.5277    5.0014 C   0  0  0  0  0  0  0  0  0  0  0  0
   -5.4161   -2.7298    4.8794 C   0  0  0  0  0  0  0  0  0  0  0  0
   -6.3117   -1.9710    5.3424 O   0  0  0  0  0  0  0  0  0  0  0  0
   -5.6511   -3.8921    4.0459 C   0  0  0  0  0  0  0  0  0  0  0  0
   -6.8930   -4.3746    3.5728 C   0  0  0  0  0  0  0  0  0  0  0  0
   -6.7810   -5.4557    2.7178 C   0  0  0  0  0  0  0  0  0  0  0  0
   -5.5201   -6.0197    2.3251 C   0  0  0  0  0  0  0  0  0  0  0  0
   -4.2987   -5.5410    2.7745 C   0  0  0  0  0  0  0  0  0  0  0  0
   -4.3968   -4.4598    3.6948 C   0  0  0  0  0  0  0  0  0  0  0  0
   -3.3171   -3.7303    4.4092 C   0  0  0  0  0  0  0  0  0  0  0  0
   -2.1280   -4.2662    4.7927 C   0  0  0  0  0  0  0  0  0  0  0  0
   -1.6856   -5.5592    4.3430 C   0  0  0  0  0  0  0  0  0  0  0  0
   -1.3327   -6.6073    4.0127 N   0  0  0  0  0  0  0  0  0  0  0  0
   -1.3674   -3.7012    5.8854 C   0  0  0  0  0  0  0  0  0  0  0  0
   -0.7484   -3.2825    6.7674 N   0  0  0  0  0  0  0  0  0  0  0  0
   -6.2210   -7.0360    1.4737 C   0  0  0  0  0  0  0  0  0  0  0  0
   -6.2821   -8.5033    1.9995 C   0  0  0  0  0  0  0  0  0  0  0  0
   -6.2779   -8.5090    3.5116 C   0  0  0  0  0  0  0  0  0  0  0  0
   -7.4455   -7.9890    3.8926 C   0  0  0  0  0  0  0  0  0  0  0  0
   -8.2039   -7.6476    2.6311 C   0  0  0  0  0  0  0  0  0  0  0  0
   -7.7492   -8.8083    1.7615 C   0  0  0  0  0  0  0  0  0  0  0  0
   -7.5096   -6.4666    1.8835 C   0  0  0  0  0  0  0  0  0  0  0  0
   -2.0595   -0.9536    4.8678 C   0  0  0  0  0  0  0  0  0  0  0  0
   -1.0314   -0.4138    5.6687 C   0  0  0  0  0  0  0  0  0  0  0  0
   -1.1195    0.0180    6.9989 O   0  0  0  0  0  0  0  0  0  0  0  0
   -2.2931    0.5454    7.6244 C   0  0  0  0  0  0  0  0  0  0  0  0
   -2.7609    1.8236    6.9357 C   0  0  0  0  0  0  0  0  0  0  0  0
    0.1685   -0.3692    4.9656 C   0  0  0  0  0  0  0  0  0  0  0  0
    1.7058    0.2479    5.3414 S   0  0  0  0  0  0  0  0  0  0  0  0
    2.2661   -0.1138    3.7774 C   0  0  0  0  0  0  0  0  0  0  0  0
    3.2372    0.3867    2.9616 C   0  0  0  0  0  0  0  0  0  0  0  0
    4.2327    1.3300    3.2443 C   0  0  0  0  0  0  0  0  0  0  0  0
    4.8996    1.9656    2.1620 C   0  0  0  0  0  0  0  0  0  0  0  0
    5.8366    2.8948    2.4731 N   0  0  0  0  0  0  0  0  0  0  0  0
    5.7279    2.8604    4.1256 S   0  0  0  0  0  0  0  0  0  0  0  0
    4.5732    1.7276    4.4958 N   0  0  0  0  0  0  0  0  0  0  0  0
    4.5695    1.5902    0.8598 C   0  0  0  0  0  0  0  0  0  0  0  0
    5.0587    2.0041   -0.3416 C   0  0  0  0  0  0  0  0  0  0  0  0
    5.9395    3.3042   -0.9606 S   0  0  0  0  0  0  0  0  0  0  0  0
    5.5090    2.8493   -2.5444 C   0  0  0  0  0  0  0  0  0  0  0  0
    5.6193    3.4997   -3.7641 C   0  0  0  0  0  0  0  0  0  0  0  0
    6.2925    4.7101   -3.9347 O   0  0  0  0  0  0  0  0  0  0  0  0
    7.6295    4.7683   -4.4230 C   0  0  0  0  0  0  0  0  0  0  0  0
    8.6118    4.2227   -3.3961 C   0  0  0  0  0  0  0  0  0  0  0  0
    4.8782    2.8556   -4.7639 C   0  0  0  0  0  0  0  0  0  0  0  0
    4.0981    1.4829   -4.1092 S   0  0  0  0  0  0  0  0  0  0  0  0
    4.7096    1.7343   -2.5677 C   0  0  0  0  0  0  0  0  0  0  0  0
    4.4409    1.2659   -1.2934 C   0  0  0  0  0  0  0  0  0  0  0  0
    3.5466    0.3764   -0.7879 N   0  0  0  0  0  0  0  0  0  0  0  0
    3.5884    0.6243    0.5665 C   0  0  0  0  0  0  0  0  0  0  0  0
    2.8327    0.0824    1.6480 C   0  0  0  0  0  0  0  0  0  0  0  0
    1.5787   -0.4875    1.6506 N   0  0  0  0  0  0  0  0  0  0  0  0
    1.2973   -0.6260    2.9750 C   0  0  0  0  0  0  0  0  0  0  0  0
    0.0995   -0.7761    3.6620 C   0  0  0  0  0  0  0  0  0  0  0  0
   -1.4622   -1.2415    3.2972 S   0  0  0  0  0  0  0  0  0  0  0  0
    0.5407   -0.3363    0.6288 C   0  0  0  0  0  0  0  0  0  0  0  0
    0.0654   -1.6980    0.1241 C   0  0  0  0  0  0  0  0  0  0  0  0
    3.0943   -0.8215   -1.5085 C   0  0  0  0  0  0  0  0  0  0  0  0
    3.6653   -2.0959   -0.8996 C   0  0  0  0  0  0  0  0  0  0  0  0
    4.7121    3.3765   -6.1290 C   0  0  0  0  0  0  0  0  0  0  0  0
    3.5396    3.8224   -6.6191 C   0  0  0  0  0  0  0  0  0  0  0  0
    2.2885    3.9791   -5.8573 C   0  0  0  0  0  0  0  0  0  0  0  0
    2.0083    3.4424   -4.7523 O   0  0  0  0  0  0  0  0  0  0  0  0
    1.4294    4.9013   -6.5641 C   0  0  0  0  0  0  0  0  0  0  0  0
    0.1742    5.3761   -6.1780 C   0  0  0  0  0  0  0  0  0  0  0  0
   -0.4321    4.8591   -5.0213 O   0  0  0  0  0  0  0  0  0  0  0  0
   -1.7485    5.1874   -4.5863 C   0  0  0  0  0  0  0  0  0  0  0  0
   -0.4425    6.3500   -6.9955 C   0  0  0  0  0  0  0  0  0  0  0  0
    0.2096    6.8242   -8.1513 C   0  0  0  0  0  0  0  0  0  0  0  0
    1.4569    6.3101   -8.5258 C   0  0  0  0  0  0  0  0  0  0  0  0
    2.0534    5.3086   -7.7331 C   0  0  0  0  0  0  0  0  0  0  0  0
    3.3452    4.5805   -7.8946 C   0  0  0  0  0  0  0  0  0  0  0  0
    4.0426    4.4162   -9.0435 C   0  0  0  0  0  0  0  0  0  0  0  0
    5.1176    3.4625   -9.1571 C   0  0  0  0  0  0  0  0  0  0  0  0
    5.9845    2.7012   -9.2645 N   0  0  0  0  0  0  0  0  0  0  0  0
    3.6984    5.0881  -10.2693 C   0  0  0  0  0  0  0  0  0  0  0  0
    3.4233    5.6243  -11.2573 N   0  0  0  0  0  0  0  0  0  0  0  0
   -4.0700   -0.5338    5.6396 H   0  0  0  0  0  0  0  0  0  0  0  0
   -7.8397   -3.9331    3.8432 H   0  0  0  0  0  0  0  0  0  0  0  0
   -3.3692   -5.9629    2.4204 H   0  0  0  0  0  0  0  0  0  0  0  0
   -6.0026   -6.9288    0.3862 H   0  0  0  0  0  0  0  0  0  0  0  0
   -5.5647   -9.2060    1.5268 H   0  0  0  0  0  0  0  0  0  0  0  0
   -5.5418   -8.9558    4.1669 H   0  0  0  0  0  0  0  0  0  0  0  0
   -7.8068   -7.9226    4.9143 H   0  0  0  0  0  0  0  0  0  0  0  0
   -9.3037   -7.5482    2.7603 H   0  0  0  0  0  0  0  0  0  0  0  0
   -8.0521   -8.7124    0.6936 H   0  0  0  0  0  0  0  0  0  0  0  0
   -8.0717   -9.8029    2.1558 H   0  0  0  0  0  0  0  0  0  0  0  0
   -8.0953   -6.0330    1.0440 H   0  0  0  0  0  0  0  0  0  0  0  0
   -3.1014   -0.2140    7.6586 H   0  0  0  0  0  0  0  0  0  0  0  0
   -2.0381    0.7803    8.6773 H   0  0  0  0  0  0  0  0  0  0  0  0
   -3.0444    1.6176    5.8805 H   0  0  0  0  0  0  0  0  0  0  0  0
   -1.9433    2.5704    6.9420 H   0  0  0  0  0  0  0  0  0  0  0  0
   -3.6395    2.2341    7.4756 H   0  0  0  0  0  0  0  0  0  0  0  0
    7.8805    5.8315   -4.6335 H   0  0  0  0  0  0  0  0  0  0  0  0
    7.7132    4.1984   -5.3736 H   0  0  0  0  0  0  0  0  0  0  0  0
    9.6504    4.4034   -3.7324 H   0  0  0  0  0  0  0  0  0  0  0  0
    8.4599    4.7258   -2.4143 H   0  0  0  0  0  0  0  0  0  0  0  0
    8.4551    3.1292   -3.2629 H   0  0  0  0  0  0  0  0  0  0  0  0
    0.8892    0.3059   -0.1997 H   0  0  0  0  0  0  0  0  0  0  0  0
   -0.3232    0.2174    1.0428 H   0  0  0  0  0  0  0  0  0  0  0  0
   -0.6164   -1.5618   -0.7431 H   0  0  0  0  0  0  0  0  0  0  0  0
   -0.4822   -2.2538    0.9167 H   0  0  0  0  0  0  0  0  0  0  0  0
    0.9150   -2.3379   -0.1921 H   0  0  0  0  0  0  0  0  0  0  0  0
    3.4439   -0.7840   -2.5642 H   0  0  0  0  0  0  0  0  0  0  0  0
    1.9971   -0.8625   -1.5910 H   0  0  0  0  0  0  0  0  0  0  0  0
    3.2856   -2.9727   -1.4572 H   0  0  0  0  0  0  0  0  0  0  0  0
    3.3658   -2.2066    0.1610 H   0  0  0  0  0  0  0  0  0  0  0  0
    4.7739   -2.0864   -0.9732 H   0  0  0  0  0  0  0  0  0  0  0  0
    5.6214    3.5727   -6.6728 H   0  0  0  0  0  0  0  0  0  0  0  0
   -1.9849    4.6099   -3.6687 H   0  0  0  0  0  0  0  0  0  0  0  0
   -1.8038    6.2698   -4.3375 H   0  0  0  0  0  0  0  0  0  0  0  0
   -2.4849    4.9291   -5.3720 H   0  0  0  0  0  0  0  0  0  0  0  0
   -1.4153    6.7548   -6.7410 H   0  0  0  0  0  0  0  0  0  0  0  0
   -0.2582    7.5873   -8.7543 H   0  0  0  0  0  0  0  0  0  0  0  0
    1.9421    6.7149   -9.3955 H   0  0  0  0  0  0  0  0  0  0  0  0
  1  2  2  3
  2  3  1  0
  3  4  2  0
  3  5  1  0
  5  6  2  0
  6  7  1  0
  7  8  2  0
  8  9  1  0
  9 10  2  0
 10 11  1  0
 11 12  2  3
 12 13  1  0
 13 14  3  0
 12 15  1  0
 15 16  3  0
  8 17  1  0
 17 18  1  0
 18 19  1  0
 19 20  2  0
 20 21  1  0
 21 22  1  0
 21 23  1  0
  1 24  1  0
 24 25  2  0
 25 26  1  0
 26 27  1  0
 27 28  1  0
 25 29  1  0
 29 30  1  0
 30 31  1  0
 31 32  1  0
 32 33  1  0
 33 34  1  0
 34 35  2  0
 35 36  1  0
 36 37  1  0
 34 38  1  0
 38 39  1  0
 39 40  1  0
 40 41  1  0
 41 42  1  0
 42 43  1  0
 43 44  1  0
 44 45  1  0
 42 46  2  0
 46 47  1  0
 47 48  1  0
 48 49  1  0
 49 50  1  0
 50 51  1  0
 51 52  1  0
 52 53  1  0
 53 54  1  0
 54 55  1  0
 55 56  1  0
 53 57  1  0
 57 58  1  0
 50 59  1  0
 59 60  1  0
 46 61  1  0
 61 62  2  3
 62 63  1  0
 63 64  2  0
 63 65  1  0
 65 66  2  0
 66 67  1  0
 67 68  1  0
 66 69  1  0
 69 70  2  0
 70 71  1  0
 71 72  2  0
 72 73  1  0
 73 74  2  3
 74 75  1  0
 75 76  3  0
 74 77  1  0
 77 78  3  0
 11  2  1  0
 23 17  1  0
 56 24  1  0
 73 62  1  0
 10  5  1  0
 22 18  1  0
 55 29  2  0
 72 65  1  0
 23  7  1  0
 54 31  2  0
 52 32  2  0
 37 33  2  0
 51 38  2  0
 49 39  2  0
 48 41  2  0
  1 79  1  0
  6 80  1  0
  9 81  1  0
 17 82  1  0
 18 83  1  0
 19 84  1  0
 20 85  1  0
 21 86  1  0
 22 87  1  0
 22 88  1  0
 23 89  1  0
 27 90  1  0
 27 91  1  0
 28 92  1  0
 28 93  1  0
 28 94  1  0
 44 95  1  0
 44 96  1  0
 45 97  1  0
 45 98  1  0
 45 99  1  0
 57100  1  0
 57101  1  0
 58102  1  0
 58103  1  0
 58104  1  0
 59105  1  0
 59106  1  0
 60107  1  0
 60108  1  0
 60109  1  0
 61110  1  0
 68111  1  0
 68112  1  0
 68113  1  0
 69114  1  0
 70115  1  0
 71116  1  0
M  END

