
     RDKit          3D

204226  0  0  0  0  0  0  0  0999 V2000
    0.6502    5.1545   -9.7133 C   0  0  0  0  0  0  0  0  0  0  0  0
    1.4867    4.5296  -10.5714 C   0  0  0  0  0  0  0  0  0  0  0  0
    1.5229    3.0716  -10.7445 C   0  0  0  0  0  0  0  0  0  0  0  0
    0.5142    2.3282  -10.8841 O   0  0  0  0  0  0  0  0  0  0  0  0
    2.8885    2.6122  -10.6243 C   0  0  0  0  0  0  0  0  0  0  0  0
    3.3169    1.2964  -10.3445 C   0  0  0  0  0  0  0  0  0  0  0  0
    4.6484    1.2078   -9.9832 C   0  0  0  0  0  0  0  0  0  0  0  0
    5.5138    2.3459   -9.8864 C   0  0  0  0  0  0  0  0  0  0  0  0
    5.0952    3.6392  -10.1457 C   0  0  0  0  0  0  0  0  0  0  0  0
    3.7339    3.7466  -10.5425 C   0  0  0  0  0  0  0  0  0  0  0  0
    2.9042    4.9676  -10.7007 C   0  0  0  0  0  0  0  0  0  0  0  0
    3.3319    6.1912  -11.0818 C   0  0  0  0  0  0  0  0  0  0  0  0
    2.4065    7.2538  -11.3881 C   0  0  0  0  0  0  0  0  0  0  0  0
    1.6804    8.1205  -11.6594 N   0  0  0  0  0  0  0  0  0  0  0  0
    4.7240    6.4624  -11.3575 C   0  0  0  0  0  0  0  0  0  0  0  0
    5.8313    6.6835  -11.5993 N   0  0  0  0  0  0  0  0  0  0  0  0
    6.6438    1.4722   -9.4360 C   0  0  0  0  0  0  0  0  0  0  0  0
    7.7755    1.1558  -10.4613 C   0  0  0  0  0  0  0  0  0  0  0  0
    7.2181    1.1500  -11.8652 C   0  0  0  0  0  0  0  0  0  0  0  0
    6.4044    0.0926  -11.9534 C   0  0  0  0  0  0  0  0  0  0  0  0
    6.4463   -0.5897  -10.6047 C   0  0  0  0  0  0  0  0  0  0  0  0
    7.9031   -0.3422  -10.2556 C   0  0  0  0  0  0  0  0  0  0  0  0
    5.7588    0.3062   -9.5321 C   0  0  0  0  0  0  0  0  0  0  0  0
    0.1443    4.4950   -8.4794 C   0  0  0  0  0  0  0  0  0  0  0  0
   -0.5804    5.1501   -7.4781 C   0  0  0  0  0  0  0  0  0  0  0  0
   -0.5653    4.4618   -6.2497 C   0  0  0  0  0  0  0  0  0  0  0  0
   -1.1702    4.8799   -5.0595 C   0  0  0  0  0  0  0  0  0  0  0  0
   -1.9501    6.0342   -5.0142 O   0  0  0  0  0  0  0  0  0  0  0  0
   -1.3621    7.2967   -4.7225 C   0  0  0  0  0  0  0  0  0  0  0  0
   -2.4101    8.3824   -4.8599 C   0  0  0  0  0  0  0  0  0  0  0  0
   -0.9897    4.0769   -3.9247 C   0  0  0  0  0  0  0  0  0  0  0  0
   -1.7642    4.2527   -2.4256 S   0  0  0  0  0  0  0  0  0  0  0  0
   -1.0630    2.8622   -1.7878 C   0  0  0  0  0  0  0  0  0  0  0  0
   -1.6052    1.8854   -0.8789 C   0  0  0  0  0  0  0  0  0  0  0  0
   -1.1610    0.6346   -1.3108 C   0  0  0  0  0  0  0  0  0  0  0  0
   -0.0297    0.7641   -2.3123 C   0  0  0  0  0  0  0  0  0  0  0  0
   -0.2891    2.2150   -2.7238 C   0  0  0  0  0  0  0  0  0  0  0  0
   -0.2142    2.9030   -3.9528 C   0  0  0  0  0  0  0  0  0  0  0  0
    0.4223    2.5072   -5.1465 C   0  0  0  0  0  0  0  0  0  0  0  0
    0.1819    3.2835   -6.2798 C   0  0  0  0  0  0  0  0  0  0  0  0
    0.7938    3.0797   -7.8090 S   0  0  0  0  0  0  0  0  0  0  0  0
    1.2744    1.4022   -5.2218 O   0  0  0  0  0  0  0  0  0  0  0  0
    2.6621    1.4782   -4.9162 C   0  0  0  0  0  0  0  0  0  0  0  0
    3.4575    2.0063   -6.1024 C   0  0  0  0  0  0  0  0  0  0  0  0
   -0.2191   -0.2376   -3.4608 C   0  0  0  0  0  0  0  0  0  0  0  0
   -1.3962   -0.1948   -4.2301 C   0  0  0  0  0  0  0  0  0  0  0  0
   -1.5903   -1.0784   -5.2959 C   0  0  0  0  0  0  0  0  0  0  0  0
   -0.6147   -2.0323   -5.6149 C   0  0  0  0  0  0  0  0  0  0  0  0
   -0.8306   -2.9959   -6.7596 C   0  0  0  0  0  0  0  0  0  0  0  0
   -1.6897   -4.1794   -6.3237 C   0  0  0  0  0  0  0  0  0  0  0  0
    0.5511   -2.1056   -4.8413 C   0  0  0  0  0  0  0  0  0  0  0  0
    0.7505   -1.2120   -3.7826 C   0  0  0  0  0  0  0  0  0  0  0  0
    1.2909    0.6382   -1.5002 C   0  0  0  0  0  0  0  0  0  0  0  0
    1.5351   -0.5135   -0.7167 C   0  0  0  0  0  0  0  0  0  0  0  0
    2.5643   -0.5402    0.2319 C   0  0  0  0  0  0  0  0  0  0  0  0
    3.3784    0.5809    0.4262 C   0  0  0  0  0  0  0  0  0  0  0  0
    4.4307    0.5941    1.5052 C   0  0  0  0  0  0  0  0  0  0  0  0
    5.8015    0.2497    0.9320 C   0  0  0  0  0  0  0  0  0  0  0  0
    3.2015    1.6998   -0.3970 C   0  0  0  0  0  0  0  0  0  0  0  0
    2.1755    1.7301   -1.3450 C   0  0  0  0  0  0  0  0  0  0  0  0
   -1.7284   -0.5373   -0.7940 C   0  0  0  0  0  0  0  0  0  0  0  0
   -2.6396   -0.3798    0.2468 C   0  0  0  0  0  0  0  0  0  0  0  0
   -3.3307   -1.3698    1.0095 C   0  0  0  0  0  0  0  0  0  0  0  0
   -3.8939   -0.8177    2.1256 C   0  0  0  0  0  0  0  0  0  0  0  0
   -3.5499    0.6756    2.2126 C   0  0  0  0  0  0  0  0  0  0  0  0
   -2.8981    0.8541    0.8401 C   0  0  0  0  0  0  0  0  0  0  0  0
   -2.4475    2.0360    0.2329 C   0  0  0  0  0  0  0  0  0  0  0  0
   -2.4322    0.9655    3.2531 C   0  0  0  0  0  0  0  0  0  0  0  0
   -1.6606   -0.0833    3.8191 C   0  0  0  0  0  0  0  0  0  0  0  0
   -0.5573    0.1803    4.6251 C   0  0  0  0  0  0  0  0  0  0  0  0
   -0.1806    1.4962    4.9114 C   0  0  0  0  0  0  0  0  0  0  0  0
    1.0392    1.7646    5.7623 C   0  0  0  0  0  0  0  0  0  0  0  0
    0.9004    1.1721    7.1625 C   0  0  0  0  0  0  0  0  0  0  0  0
   -0.9005    2.5481    4.3323 C   0  0  0  0  0  0  0  0  0  0  0  0
   -1.9865    2.2872    3.4875 C   0  0  0  0  0  0  0  0  0  0  0  0
   -4.8296    1.5217    2.3127 C   0  0  0  0  0  0  0  0  0  0  0  0
   -5.7852    1.4341    1.2804 C   0  0  0  0  0  0  0  0  0  0  0  0
   -6.9451    2.2178    1.3060 C   0  0  0  0  0  0  0  0  0  0  0  0
   -7.1723    3.1205    2.3551 C   0  0  0  0  0  0  0  0  0  0  0  0
   -8.4392    3.9327    2.4005 C   0  0  0  0  0  0  0  0  0  0  0  0
   -8.1652    5.4311    2.3005 C   0  0  0  0  0  0  0  0  0  0  0  0
   -6.2317    3.2064    3.3888 C   0  0  0  0  0  0  0  0  0  0  0  0
   -5.0949    2.3916    3.3907 C   0  0  0  0  0  0  0  0  0  0  0  0
   -4.2930   -1.8036    3.0501 C   0  0  0  0  0  0  0  0  0  0  0  0
   -4.7361   -1.6184    4.3728 C   0  0  0  0  0  0  0  0  0  0  0  0
   -5.1913   -0.3753    4.8326 O   0  0  0  0  0  0  0  0  0  0  0  0
   -6.4595   -0.2338    5.4843 C   0  0  0  0  0  0  0  0  0  0  0  0
   -6.5778    1.1188    6.1725 C   0  0  0  0  0  0  0  0  0  0  0  0
   -4.6951   -2.7474    5.2181 C   0  0  0  0  0  0  0  0  0  0  0  0
   -4.3718   -4.0207    4.7514 C   0  0  0  0  0  0  0  0  0  0  0  0
   -4.0621   -4.2324    3.4058 C   0  0  0  0  0  0  0  0  0  0  0  0
   -3.7553   -5.5253    2.9590 O   0  0  0  0  0  0  0  0  0  0  0  0
   -4.4078   -6.1539    1.8486 C   0  0  0  0  0  0  0  0  0  0  0  0
   -5.9029   -6.2799    2.1053 C   0  0  0  0  0  0  0  0  0  0  0  0
   -3.9920   -3.1045    2.5760 C   0  0  0  0  0  0  0  0  0  0  0  0
   -3.2301   -3.0378    1.0716 S   0  0  0  0  0  0  0  0  0  0  0  0
   -4.2337   -4.9823    5.7624 C   0  0  0  0  0  0  0  0  0  0  0  0
   -4.3594   -4.4348    7.0334 C   0  0  0  0  0  0  0  0  0  0  0  0
   -4.7114   -2.7891    6.8995 S   0  0  0  0  0  0  0  0  0  0  0  0
   -3.8569   -5.0620    8.2630 C   0  0  0  0  0  0  0  0  0  0  0  0
   -2.5513   -5.3485    8.4460 C   0  0  0  0  0  0  0  0  0  0  0  0
   -1.4576   -4.9122    7.5613 C   0  0  0  0  0  0  0  0  0  0  0  0
   -1.5669   -4.3442    6.4407 O   0  0  0  0  0  0  0  0  0  0  0  0
   -0.2025   -5.1119    8.2379 C   0  0  0  0  0  0  0  0  0  0  0  0
    1.0704   -4.6990    7.7868 C   0  0  0  0  0  0  0  0  0  0  0  0
    2.0765   -4.8743    8.7148 C   0  0  0  0  0  0  0  0  0  0  0  0
    1.8459   -5.4203   10.0217 C   0  0  0  0  0  0  0  0  0  0  0  0
    0.5973   -5.8222   10.4689 C   0  0  0  0  0  0  0  0  0  0  0  0
   -0.4477   -5.6768    9.5154 C   0  0  0  0  0  0  0  0  0  0  0  0
   -1.9089   -5.9388    9.6619 C   0  0  0  0  0  0  0  0  0  0  0  0
   -2.4984   -6.7471   10.5832 C   0  0  0  0  0  0  0  0  0  0  0  0
   -1.7523   -7.4260   11.6099 C   0  0  0  0  0  0  0  0  0  0  0  0
   -1.1701   -7.9861   12.4392 N   0  0  0  0  0  0  0  0  0  0  0  0
   -3.8943   -7.0993   10.5325 C   0  0  0  0  0  0  0  0  0  0  0  0
   -5.0131   -7.3918   10.5070 N   0  0  0  0  0  0  0  0  0  0  0  0
    3.2832   -5.2025   10.3804 C   0  0  0  0  0  0  0  0  0  0  0  0
    3.5816   -3.9988   11.3271 C   0  0  0  0  0  0  0  0  0  0  0  0
    5.0636   -3.7423   11.2221 C   0  0  0  0  0  0  0  0  0  0  0  0
    5.2717   -3.2350   10.0010 C   0  0  0  0  0  0  0  0  0  0  0  0
    3.9270   -3.1728    9.3179 C   0  0  0  0  0  0  0  0  0  0  0  0
    3.0807   -2.8056   10.5256 C   0  0  0  0  0  0  0  0  0  0  0  0
    3.5184   -4.6512    9.0421 C   0  0  0  0  0  0  0  0  0  0  0  0
    0.6721    6.2357   -9.6632 H   0  0  0  0  0  0  0  0  0  0  0  0
    2.6511    0.4416  -10.3393 H   0  0  0  0  0  0  0  0  0  0  0  0
    5.7518    4.4784   -9.9799 H   0  0  0  0  0  0  0  0  0  0  0  0
    6.9946    1.6863   -8.4020 H   0  0  0  0  0  0  0  0  0  0  0  0
    8.7164    1.7300  -10.3291 H   0  0  0  0  0  0  0  0  0  0  0  0
    7.4583    1.8404  -12.6688 H   0  0  0  0  0  0  0  0  0  0  0  0
    5.8846   -0.2392  -12.8430 H   0  0  0  0  0  0  0  0  0  0  0  0
    6.1219   -1.6509  -10.6097 H   0  0  0  0  0  0  0  0  0  0  0  0
    8.1734   -0.6234   -9.2091 H   0  0  0  0  0  0  0  0  0  0  0  0
    8.6113   -0.8289  -10.9714 H   0  0  0  0  0  0  0  0  0  0  0  0
    5.5629   -0.1923   -8.5544 H   0  0  0  0  0  0  0  0  0  0  0  0
   -1.0275    6.1273   -7.6102 H   0  0  0  0  0  0  0  0  0  0  0  0
   -0.5277    7.4972   -5.4320 H   0  0  0  0  0  0  0  0  0  0  0  0
   -0.9561    7.2993   -3.6850 H   0  0  0  0  0  0  0  0  0  0  0  0
   -1.9478    9.3737   -4.6863 H   0  0  0  0  0  0  0  0  0  0  0  0
   -3.2160    8.2212   -4.1132 H   0  0  0  0  0  0  0  0  0  0  0  0
   -2.8433    8.3656   -5.8831 H   0  0  0  0  0  0  0  0  0  0  0  0
    2.8379    2.1331   -4.0352 H   0  0  0  0  0  0  0  0  0  0  0  0
    3.0292    0.4583   -4.6650 H   0  0  0  0  0  0  0  0  0  0  0  0
    4.5439    1.9162   -5.8941 H   0  0  0  0  0  0  0  0  0  0  0  0
    3.2198    3.0827   -6.2673 H   0  0  0  0  0  0  0  0  0  0  0  0
    3.2202    1.4242   -7.0237 H   0  0  0  0  0  0  0  0  0  0  0  0
   -2.1695    0.5332   -4.0155 H   0  0  0  0  0  0  0  0  0  0  0  0
   -2.5022   -1.0106   -5.8777 H   0  0  0  0  0  0  0  0  0  0  0  0
   -1.3380   -2.4697   -7.5978 H   0  0  0  0  0  0  0  0  0  0  0  0
    0.1464   -3.3654   -7.1442 H   0  0  0  0  0  0  0  0  0  0  0  0
   -1.7971   -4.8874   -7.1757 H   0  0  0  0  0  0  0  0  0  0  0  0
   -1.2207   -4.7132   -5.4732 H   0  0  0  0  0  0  0  0  0  0  0  0
   -2.6980   -3.8256   -6.0273 H   0  0  0  0  0  0  0  0  0  0  0  0
    1.3152   -2.8459   -5.0587 H   0  0  0  0  0  0  0  0  0  0  0  0
    1.6784   -1.2843   -3.2417 H   0  0  0  0  0  0  0  0  0  0  0  0
    0.9019   -1.3814   -0.8064 H   0  0  0  0  0  0  0  0  0  0  0  0
    2.6968   -1.4210    0.8572 H   0  0  0  0  0  0  0  0  0  0  0  0
    4.1720   -0.1233    2.3144 H   0  0  0  0  0  0  0  0  0  0  0  0
    4.4794    1.6058    1.9689 H   0  0  0  0  0  0  0  0  0  0  0  0
    5.7970   -0.7803    0.5183 H   0  0  0  0  0  0  0  0  0  0  0  0
    6.0743    0.9747    0.1370 H   0  0  0  0  0  0  0  0  0  0  0  0
    6.5602    0.3129    1.7433 H   0  0  0  0  0  0  0  0  0  0  0  0
    3.8320    2.5723   -0.2724 H   0  0  0  0  0  0  0  0  0  0  0  0
    2.0610    2.6415   -1.9182 H   0  0  0  0  0  0  0  0  0  0  0  0
   -1.4563   -1.5186   -1.1629 H   0  0  0  0  0  0  0  0  0  0  0  0
   -2.7069    3.0141    0.6129 H   0  0  0  0  0  0  0  0  0  0  0  0
   -1.8602   -1.1243    3.6079 H   0  0  0  0  0  0  0  0  0  0  0  0
    0.0221   -0.6569    5.0058 H   0  0  0  0  0  0  0  0  0  0  0  0
    1.2217    2.8571    5.8570 H   0  0  0  0  0  0  0  0  0  0  0  0
    1.9315    1.3189    5.2632 H   0  0  0  0  0  0  0  0  0  0  0  0
    0.0023    1.5877    7.6692 H   0  0  0  0  0  0  0  0  0  0  0  0
    0.8234    0.0650    7.1107 H   0  0  0  0  0  0  0  0  0  0  0  0
    1.7982    1.4246    7.7654 H   0  0  0  0  0  0  0  0  0  0  0  0
   -0.5947    3.5720    4.4945 H   0  0  0  0  0  0  0  0  0  0  0  0
   -2.4724    3.1230    3.0070 H   0  0  0  0  0  0  0  0  0  0  0  0
   -5.6354    0.7662    0.4419 H   0  0  0  0  0  0  0  0  0  0  0  0
   -7.6616    2.1119    0.5019 H   0  0  0  0  0  0  0  0  0  0  0  0
   -9.1250    3.6411    1.5715 H   0  0  0  0  0  0  0  0  0  0  0  0
   -8.9723    3.7208    3.3499 H   0  0  0  0  0  0  0  0  0  0  0  0
   -7.6637    5.7958    3.2226 H   0  0  0  0  0  0  0  0  0  0  0  0
   -7.5260    5.6473    1.4193 H   0  0  0  0  0  0  0  0  0  0  0  0
   -9.1279    5.9725    2.1881 H   0  0  0  0  0  0  0  0  0  0  0  0
   -6.3966    3.8813    4.2213 H   0  0  0  0  0  0  0  0  0  0  0  0
   -4.4425    2.4493    4.2425 H   0  0  0  0  0  0  0  0  0  0  0  0
   -6.6060   -1.0208    6.2470 H   0  0  0  0  0  0  0  0  0  0  0  0
   -7.2750   -0.3473    4.7329 H   0  0  0  0  0  0  0  0  0  0  0  0
   -7.0219    1.8532    5.4813 H   0  0  0  0  0  0  0  0  0  0  0  0
   -7.2609    1.0355    7.0435 H   0  0  0  0  0  0  0  0  0  0  0  0
   -5.5860    1.4693    6.5156 H   0  0  0  0  0  0  0  0  0  0  0  0
   -3.9798   -7.1700    1.7301 H   0  0  0  0  0  0  0  0  0  0  0  0
   -4.2245   -5.5959    0.9107 H   0  0  0  0  0  0  0  0  0  0  0  0
   -6.3664   -5.2720    2.1721 H   0  0  0  0  0  0  0  0  0  0  0  0
   -6.3801   -6.8421    1.2730 H   0  0  0  0  0  0  0  0  0  0  0  0
   -6.0764   -6.8157    3.0625 H   0  0  0  0  0  0  0  0  0  0  0  0
   -3.9005   -5.9960    5.5836 H   0  0  0  0  0  0  0  0  0  0  0  0
   -4.5706   -5.1761    9.0614 H   0  0  0  0  0  0  0  0  0  0  0  0
    1.2415   -4.2260    6.8271 H   0  0  0  0  0  0  0  0  0  0  0  0
    0.4636   -6.1588   11.4862 H   0  0  0  0  0  0  0  0  0  0  0  0
    3.8299   -6.1466   10.6075 H   0  0  0  0  0  0  0  0  0  0  0  0
    3.1865   -4.0891   12.3574 H   0  0  0  0  0  0  0  0  0  0  0  0
    5.8084   -3.8316   12.0067 H   0  0  0  0  0  0  0  0  0  0  0  0
    6.2107   -2.8452    9.6251 H   0  0  0  0  0  0  0  0  0  0  0  0
    3.8684   -2.4873    8.4481 H   0  0  0  0  0  0  0  0  0  0  0  0
    3.3541   -1.8237   10.9835 H   0  0  0  0  0  0  0  0  0  0  0  0
    1.9843   -2.8110   10.3355 H   0  0  0  0  0  0  0  0  0  0  0  0
    4.2191   -5.2413    8.4119 H   0  0  0  0  0  0  0  0  0  0  0  0
  1  2  2  3
  2  3  1  0
  3  4  2  0
  3  5  1  0
  5  6  2  0
  6  7  1  0
  7  8  2  0
  8  9  1  0
  9 10  2  0
 10 11  1  0
 11 12  2  3
 12 13  1  0
 13 14  3  0
 12 15  1  0
 15 16  3  0
  8 17  1  0
 17 18  1  0
 18 19  1  0
 19 20  2  0
 20 21  1  0
 21 22  1  0
 21 23  1  0
  1 24  1  0
 24 25  2  0
 25 26  1  0
 26 27  2  0
 27 28  1  0
 28 29  1  0
 29 30  1  0
 27 31  1  0
 31 32  1  0
 32 33  1  0
 33 34  1  0
 34 35  2  0
 35 36  1  0
 36 37  1  0
 37 38  1  0
 38 39  1  0
 39 40  2  0
 40 41  1  0
 39 42  1  0
 42 43  1  0
 43 44  1  0
 36 45  1  0
 45 46  2  0
 46 47  1  0
 47 48  2  0
 48 49  1  0
 49 50  1  0
 48 51  1  0
 51 52  2  0
 36 53  1  0
 53 54  2  0
 54 55  1  0
 55 56  2  0
 56 57  1  0
 57 58  1  0
 56 59  1  0
 59 60  2  0
 35 61  1  0
 61 62  2  0
 62 63  1  0
 63 64  2  0
 64 65  1  0
 65 66  1  0
 66 67  2  0
 65 68  1  0
 68 69  2  0
 69 70  1  0
 70 71  2  0
 71 72  1  0
 72 73  1  0
 71 74  1  0
 74 75  2  0
 65 76  1  0
 76 77  2  0
 77 78  1  0
 78 79  2  0
 79 80  1  0
 80 81  1  0
 79 82  1  0
 82 83  2  0
 64 84  1  0
 84 85  2  0
 85 86  1  0
 86 87  1  0
 87 88  1  0
 85 89  1  0
 89 90  2  0
 90 91  1  0
 91 92  1  0
 92 93  1  0
 93 94  1  0
 91 95  2  0
 95 96  1  0
 90 97  1  0
 97 98  2  0
 98 99  1  0
 98100  1  0
100101  2  3
101102  1  0
102103  2  0
102104  1  0
104105  2  0
105106  1  0
106107  2  0
107108  1  0
108109  2  0
109110  1  0
110111  2  3
111112  1  0
112113  3  0
111114  1  0
114115  3  0
107116  1  0
116117  1  0
117118  1  0
118119  2  0
119120  1  0
120121  1  0
120122  1  0
 11  2  1  0
 23 17  1  0
 41 24  1  0
 52 45  1  0
 60 53  1  0
 66 62  1  0
 75 68  1  0
 83 76  1  0
 95 84  1  0
110101  1  0
122116  1  0
 10  5  1  0
 22 18  1  0
 40 26  1  0
 96 63  1  0
109104  1  0
121117  1  0
 23  7  1  0
 38 31  2  0
 99 89  1  0
122106  1  0
 37 33  2  0
 67 34  1  0
  1123  1  0
  6124  1  0
  9125  1  0
 17126  1  0
 18127  1  0
 19128  1  0
 20129  1  0
 21130  1  0
 22131  1  0
 22132  1  0
 23133  1  0
 25134  1  0
 29135  1  0
 29136  1  0
 30137  1  0
 30138  1  0
 30139  1  0
 43140  1  0
 43141  1  0
 44142  1  0
 44143  1  0
 44144  1  0
 46145  1  0
 47146  1  0
 49147  1  0
 49148  1  0
 50149  1  0
 50150  1  0
 50151  1  0
 51152  1  0
 52153  1  0
 54154  1  0
 55155  1  0
 57156  1  0
 57157  1  0
 58158  1  0
 58159  1  0
 58160  1  0
 59161  1  0
 60162  1  0
 61163  1  0
 67164  1  0
 69165  1  0
 70166  1  0
 72167  1  0
 72168  1  0
 73169  1  0
 73170  1  0
 73171  1  0
 74172  1  0
 75173  1  0
 77174  1  0
 78175  1  0
 80176  1  0
 80177  1  0
 81178  1  0
 81179  1  0
 81180  1  0
 82181  1  0
 83182  1  0
 87183  1  0
 87184  1  0
 88185  1  0
 88186  1  0
 88187  1  0
 93188  1  0
 93189  1  0
 94190  1  0
 94191  1  0
 94192  1  0
 97193  1  0
100194  1  0
105195  1  0
108196  1  0
116197  1  0
117198  1  0
118199  1  0
119200  1  0
120201  1  0
121202  1  0
121203  1  0
122204  1  0
M  END

