
     RDKit          3D

111124  0  0  0  0  0  0  0  0999 V2000
   -3.9814    4.3369    2.7828 C   0  0  0  0  0  0  0  0  0  0  0  0
   -3.2883    3.8214    3.8194 C   0  0  0  0  0  0  0  0  0  0  0  0
   -1.8886    3.3720    3.7675 C   0  0  0  0  0  0  0  0  0  0  0  0
   -1.0192    3.7257    2.9235 O   0  0  0  0  0  0  0  0  0  0  0  0
   -1.6639    2.4382    4.8473 C   0  0  0  0  0  0  0  0  0  0  0  0
   -0.5005    1.6713    5.0741 C   0  0  0  0  0  0  0  0  0  0  0  0
   -0.6221    0.7670    6.1102 C   0  0  0  0  0  0  0  0  0  0  0  0
   -1.8166    0.6168    6.8835 C   0  0  0  0  0  0  0  0  0  0  0  0
   -2.9582    1.3730    6.6730 C   0  0  0  0  0  0  0  0  0  0  0  0
   -2.8499    2.3245    5.6185 C   0  0  0  0  0  0  0  0  0  0  0  0
   -3.8667    3.2759    5.0830 C   0  0  0  0  0  0  0  0  0  0  0  0
   -4.9852    3.7196    5.7161 C   0  0  0  0  0  0  0  0  0  0  0  0
   -5.4391    3.1775    6.9728 C   0  0  0  0  0  0  0  0  0  0  0  0
   -5.8180    2.7440    7.9794 N   0  0  0  0  0  0  0  0  0  0  0  0
   -5.7433    4.8457    5.2284 C   0  0  0  0  0  0  0  0  0  0  0  0
   -6.3454    5.7550    4.8474 N   0  0  0  0  0  0  0  0  0  0  0  0
   -1.1801   -0.4855    7.6828 C   0  0  0  0  0  0  0  0  0  0  0  0
   -0.7246   -0.1665    9.1390 C   0  0  0  0  0  0  0  0  0  0  0  0
   -0.3374    1.2889    9.2498 C   0  0  0  0  0  0  0  0  0  0  0  0
    0.7745    1.4435    8.5313 C   0  0  0  0  0  0  0  0  0  0  0  0
    1.1099    0.0852    7.9570 C   0  0  0  0  0  0  0  0  0  0  0  0
    0.6650   -0.7813    9.1210 C   0  0  0  0  0  0  0  0  0  0  0  0
    0.0466   -0.3249    6.8949 C   0  0  0  0  0  0  0  0  0  0  0  0
   -3.3687    4.5811    1.4728 C   0  0  0  0  0  0  0  0  0  0  0  0
   -2.4686    5.6211    1.1450 C   0  0  0  0  0  0  0  0  0  0  0  0
   -2.1903    6.7707    1.8999 O   0  0  0  0  0  0  0  0  0  0  0  0
   -3.1224    7.4438    2.7419 C   0  0  0  0  0  0  0  0  0  0  0  0
   -4.1686    8.1693    1.9032 C   0  0  0  0  0  0  0  0  0  0  0  0
   -1.7691    5.3299   -0.0235 C   0  0  0  0  0  0  0  0  0  0  0  0
   -0.3586    6.0153   -0.6990 S   0  0  0  0  0  0  0  0  0  0  0  0
   -0.1846    4.6694   -1.7217 C   0  0  0  0  0  0  0  0  0  0  0  0
    0.7707    4.1145   -2.5154 C   0  0  0  0  0  0  0  0  0  0  0  0
    1.9514    4.6347   -3.0491 C   0  0  0  0  0  0  0  0  0  0  0  0
    2.7667    3.7898   -3.8550 C   0  0  0  0  0  0  0  0  0  0  0  0
    3.9074    4.3262   -4.3523 N   0  0  0  0  0  0  0  0  0  0  0  0
    3.7789    5.8625   -3.7527 S   0  0  0  0  0  0  0  0  0  0  0  0
    2.3716    5.9088   -2.8746 N   0  0  0  0  0  0  0  0  0  0  0  0
    2.3783    2.4585   -4.0328 C   0  0  0  0  0  0  0  0  0  0  0  0
    3.0569    1.3933   -4.5457 C   0  0  0  0  0  0  0  0  0  0  0  0
    4.5323    1.0440   -5.3114 S   0  0  0  0  0  0  0  0  0  0  0  0
    4.1859   -0.6279   -5.2518 C   0  0  0  0  0  0  0  0  0  0  0  0
    4.8274   -1.7568   -5.7583 C   0  0  0  0  0  0  0  0  0  0  0  0
    6.0568   -1.6782   -6.4206 O   0  0  0  0  0  0  0  0  0  0  0  0
    7.1653   -2.5336   -6.1276 C   0  0  0  0  0  0  0  0  0  0  0  0
    7.6582   -2.3041   -4.7040 C   0  0  0  0  0  0  0  0  0  0  0  0
    4.0740   -2.9313   -5.5415 C   0  0  0  0  0  0  0  0  0  0  0  0
    2.6378   -2.5119   -4.7072 S   0  0  0  0  0  0  0  0  0  0  0  0
    2.9991   -0.8764   -4.6190 C   0  0  0  0  0  0  0  0  0  0  0  0
    2.3498    0.2863   -4.2284 C   0  0  0  0  0  0  0  0  0  0  0  0
    1.2321    0.5461   -3.5063 N   0  0  0  0  0  0  0  0  0  0  0  0
    1.2131    1.9205   -3.4484 C   0  0  0  0  0  0  0  0  0  0  0  0
    0.3429    2.7977   -2.7480 C   0  0  0  0  0  0  0  0  0  0  0  0
   -0.8975    2.5714   -2.2014 N   0  0  0  0  0  0  0  0  0  0  0  0
   -1.1524    3.7371   -1.5537 C   0  0  0  0  0  0  0  0  0  0  0  0
   -2.0730    4.1167   -0.5926 C   0  0  0  0  0  0  0  0  0  0  0  0
   -3.2278    3.3305    0.3252 S   0  0  0  0  0  0  0  0  0  0  0  0
   -1.9545    1.7472   -2.8068 C   0  0  0  0  0  0  0  0  0  0  0  0
   -2.5990    0.7997   -1.7972 C   0  0  0  0  0  0  0  0  0  0  0  0
    0.6121   -0.4226   -2.5885 C   0  0  0  0  0  0  0  0  0  0  0  0
    1.0573   -0.1856   -1.1473 C   0  0  0  0  0  0  0  0  0  0  0  0
    4.2698   -4.1956   -6.2792 C   0  0  0  0  0  0  0  0  0  0  0  0
    3.7043   -5.3742   -5.9653 C   0  0  0  0  0  0  0  0  0  0  0  0
    2.8588   -5.7686   -4.5703 S   0  0  0  0  0  0  0  0  0  0  0  0
    2.4708   -7.3438   -5.0535 C   0  0  0  0  0  0  0  0  0  0  0  0
    1.6950   -8.1645   -4.3040 C   0  0  0  0  0  0  0  0  0  0  0  0
    1.2450   -7.7522   -2.9937 C   0  0  0  0  0  0  0  0  0  0  0  0
    0.8746   -7.4385   -1.9414 N   0  0  0  0  0  0  0  0  0  0  0  0
    1.1043   -9.3877   -4.7838 C   0  0  0  0  0  0  0  0  0  0  0  0
    0.5895  -10.3585   -5.1653 N   0  0  0  0  0  0  0  0  0  0  0  0
    3.0222   -7.5972   -6.2877 N   0  0  0  0  0  0  0  0  0  0  0  0
    2.9532   -8.8512   -7.0598 C   0  0  0  0  0  0  0  0  0  0  0  0
    1.7278   -8.8557   -7.9733 C   0  0  0  0  0  0  0  0  0  0  0  0
    3.6968   -6.5075   -6.7793 C   0  0  0  0  0  0  0  0  0  0  0  0
    4.2671   -6.5240   -7.9049 O   0  0  0  0  0  0  0  0  0  0  0  0
   -5.0572    4.4249    2.8260 H   0  0  0  0  0  0  0  0  0  0  0  0
    0.3919    1.7434    4.4658 H   0  0  0  0  0  0  0  0  0  0  0  0
   -3.8479    1.1923    7.2483 H   0  0  0  0  0  0  0  0  0  0  0  0
   -1.6683   -1.4754    7.5459 H   0  0  0  0  0  0  0  0  0  0  0  0
   -1.4043   -0.5308    9.9374 H   0  0  0  0  0  0  0  0  0  0  0  0
   -0.7984    2.0450    9.8739 H   0  0  0  0  0  0  0  0  0  0  0  0
    1.3705    2.3483    8.4771 H   0  0  0  0  0  0  0  0  0  0  0  0
    2.1667   -0.0416    7.6426 H   0  0  0  0  0  0  0  0  0  0  0  0
    1.2468   -0.5993   10.0593 H   0  0  0  0  0  0  0  0  0  0  0  0
    0.6657   -1.8721    8.8951 H   0  0  0  0  0  0  0  0  0  0  0  0
    0.3142   -1.2194    6.2895 H   0  0  0  0  0  0  0  0  0  0  0  0
   -2.5705    8.1933    3.3434 H   0  0  0  0  0  0  0  0  0  0  0  0
   -3.6162    6.7483    3.4490 H   0  0  0  0  0  0  0  0  0  0  0  0
   -3.6590    8.8772    1.2134 H   0  0  0  0  0  0  0  0  0  0  0  0
   -4.8378    8.7472    2.5760 H   0  0  0  0  0  0  0  0  0  0  0  0
   -4.7711    7.4419    1.3161 H   0  0  0  0  0  0  0  0  0  0  0  0
    6.8987   -3.6006   -6.2657 H   0  0  0  0  0  0  0  0  0  0  0  0
    7.9908   -2.2936   -6.8306 H   0  0  0  0  0  0  0  0  0  0  0  0
    6.8675   -2.5768   -3.9680 H   0  0  0  0  0  0  0  0  0  0  0  0
    7.9266   -1.2364   -4.5572 H   0  0  0  0  0  0  0  0  0  0  0  0
    8.5567   -2.9299   -4.5115 H   0  0  0  0  0  0  0  0  0  0  0  0
   -2.7394    2.4082   -3.2366 H   0  0  0  0  0  0  0  0  0  0  0  0
   -1.5545    1.1813   -3.6730 H   0  0  0  0  0  0  0  0  0  0  0  0
   -1.9185    0.5869   -0.9484 H   0  0  0  0  0  0  0  0  0  0  0  0
   -2.8628   -0.1599   -2.2935 H   0  0  0  0  0  0  0  0  0  0  0  0
   -3.5415    1.2264   -1.4044 H   0  0  0  0  0  0  0  0  0  0  0  0
    0.8977   -1.4546   -2.8666 H   0  0  0  0  0  0  0  0  0  0  0  0
   -0.4777   -0.4108   -2.6701 H   0  0  0  0  0  0  0  0  0  0  0  0
    2.1607   -0.2887   -1.0753 H   0  0  0  0  0  0  0  0  0  0  0  0
    0.5801   -0.9385   -0.4859 H   0  0  0  0  0  0  0  0  0  0  0  0
    0.7632    0.8274   -0.8019 H   0  0  0  0  0  0  0  0  0  0  0  0
    4.8326   -4.1313   -7.2005 H   0  0  0  0  0  0  0  0  0  0  0  0
    3.8579   -8.9591   -7.6940 H   0  0  0  0  0  0  0  0  0  0  0  0
    2.9751   -9.7343   -6.3944 H   0  0  0  0  0  0  0  0  0  0  0  0
    1.6373   -9.8415   -8.4874 H   0  0  0  0  0  0  0  0  0  0  0  0
    0.8046   -8.6838   -7.3863 H   0  0  0  0  0  0  0  0  0  0  0  0
    1.8167   -8.0599   -8.7373 H   0  0  0  0  0  0  0  0  0  0  0  0
  1  2  2  3
  2  3  1  0
  3  4  2  0
  3  5  1  0
  5  6  2  0
  6  7  1  0
  7  8  2  0
  8  9  1  0
  9 10  2  0
 10 11  1  0
 11 12  2  3
 12 13  1  0
 13 14  3  0
 12 15  1  0
 15 16  3  0
  8 17  1  0
 17 18  1  0
 18 19  1  0
 19 20  2  0
 20 21  1  0
 21 22  1  0
 21 23  1  0
  1 24  1  0
 24 25  2  0
 25 26  1  0
 26 27  1  0
 27 28  1  0
 25 29  1  0
 29 30  1  0
 30 31  1  0
 31 32  1  0
 32 33  1  0
 33 34  1  0
 34 35  2  0
 35 36  1  0
 36 37  1  0
 34 38  1  0
 38 39  1  0
 39 40  1  0
 40 41  1  0
 41 42  1  0
 42 43  1  0
 43 44  1  0
 44 45  1  0
 42 46  2  0
 46 47  1  0
 47 48  1  0
 48 49  1  0
 49 50  1  0
 50 51  1  0
 51 52  1  0
 52 53  1  0
 53 54  1  0
 54 55  1  0
 55 56  1  0
 53 57  1  0
 57 58  1  0
 50 59  1  0
 59 60  1  0
 46 61  1  0
 61 62  2  3
 62 63  1  0
 63 64  1  0
 64 65  2  3
 65 66  1  0
 66 67  3  0
 65 68  1  0
 68 69  3  0
 64 70  1  0
 70 71  1  0
 71 72  1  0
 70 73  1  0
 73 74  2  0
 11  2  1  0
 23 17  1  0
 56 24  1  0
 73 62  1  0
 10  5  1  0
 22 18  1  0
 55 29  2  0
 23  7  1  0
 54 31  2  0
 52 32  2  0
 37 33  2  0
 51 38  2  0
 49 39  2  0
 48 41  2  0
  1 75  1  0
  6 76  1  0
  9 77  1  0
 17 78  1  0
 18 79  1  0
 19 80  1  0
 20 81  1  0
 21 82  1  0
 22 83  1  0
 22 84  1  0
 23 85  1  0
 27 86  1  0
 27 87  1  0
 28 88  1  0
 28 89  1  0
 28 90  1  0
 44 91  1  0
 44 92  1  0
 45 93  1  0
 45 94  1  0
 45 95  1  0
 57 96  1  0
 57 97  1  0
 58 98  1  0
 58 99  1  0
 58100  1  0
 59101  1  0
 59102  1  0
 60103  1  0
 60104  1  0
 60105  1  0
 61106  1  0
 71107  1  0
 71108  1  0
 72109  1  0
 72110  1  0
 72111  1  0
M  END

