
     RDKit          3D

118132  0  0  0  0  0  0  0  0999 V2000
    4.8043   -3.6738   -5.1318 C   0  0  0  0  0  0  0  0  0  0  0  0
    5.5185   -2.6396   -5.6154 C   0  0  0  0  0  0  0  0  0  0  0  0
    4.9527   -1.3434   -6.0197 C   0  0  0  0  0  0  0  0  0  0  0  0
    3.7665   -0.9529   -5.8449 O   0  0  0  0  0  0  0  0  0  0  0  0
    5.9482   -0.6180   -6.7724 C   0  0  0  0  0  0  0  0  0  0  0  0
    5.7844    0.6422   -7.3922 C   0  0  0  0  0  0  0  0  0  0  0  0
    6.9014    1.0777   -8.0767 C   0  0  0  0  0  0  0  0  0  0  0  0
    8.1109    0.3173   -8.1624 C   0  0  0  0  0  0  0  0  0  0  0  0
    8.2705   -0.9272   -7.5748 C   0  0  0  0  0  0  0  0  0  0  0  0
    7.1386   -1.3878   -6.8422 C   0  0  0  0  0  0  0  0  0  0  0  0
    6.9504   -2.6457   -6.0548 C   0  0  0  0  0  0  0  0  0  0  0  0
    7.9266   -3.4882   -5.6211 C   0  0  0  0  0  0  0  0  0  0  0  0
    7.6819   -4.5117   -4.6362 C   0  0  0  0  0  0  0  0  0  0  0  0
    7.4971   -5.3320   -3.8415 N   0  0  0  0  0  0  0  0  0  0  0  0
    9.3057   -3.3482   -6.0045 C   0  0  0  0  0  0  0  0  0  0  0  0
   10.4223   -3.2489   -6.2982 N   0  0  0  0  0  0  0  0  0  0  0  0
    8.7570    1.4028   -8.9651 C   0  0  0  0  0  0  0  0  0  0  0  0
    9.7908    2.2929   -8.2133 C   0  0  0  0  0  0  0  0  0  0  0  0
    9.9939    3.5108   -9.0800 C   0  0  0  0  0  0  0  0  0  0  0  0
    8.8603    4.2194   -9.0121 C   0  0  0  0  0  0  0  0  0  0  0  0
    7.9314    3.4584   -8.0989 C   0  0  0  0  0  0  0  0  0  0  0  0
    8.9596    2.9310   -7.1102 C   0  0  0  0  0  0  0  0  0  0  0  0
    7.5148    2.1796   -8.8848 C   0  0  0  0  0  0  0  0  0  0  0  0
    3.4497   -3.5050   -4.5924 C   0  0  0  0  0  0  0  0  0  0  0  0
    2.2661   -4.1848   -4.9678 C   0  0  0  0  0  0  0  0  0  0  0  0
    2.0942   -5.1225   -6.0002 O   0  0  0  0  0  0  0  0  0  0  0  0
    2.9629   -5.3243   -7.1151 C   0  0  0  0  0  0  0  0  0  0  0  0
    2.9720   -4.1091   -8.0353 C   0  0  0  0  0  0  0  0  0  0  0  0
    1.1998   -3.7940   -4.1599 C   0  0  0  0  0  0  0  0  0  0  0  0
   -0.4297   -4.2886   -4.0647 S   0  0  0  0  0  0  0  0  0  0  0  0
   -0.6979   -3.2091   -2.7804 C   0  0  0  0  0  0  0  0  0  0  0  0
   -1.6253   -3.0199   -1.7997 C   0  0  0  0  0  0  0  0  0  0  0  0
   -2.8298   -3.6823   -1.5465 C   0  0  0  0  0  0  0  0  0  0  0  0
   -3.5101   -3.4216   -0.3232 C   0  0  0  0  0  0  0  0  0  0  0  0
   -4.6783   -4.0805   -0.1138 N   0  0  0  0  0  0  0  0  0  0  0  0
   -4.7479   -4.9717   -1.5092 S   0  0  0  0  0  0  0  0  0  0  0  0
   -3.3961   -4.5840   -2.3868 N   0  0  0  0  0  0  0  0  0  0  0  0
   -2.9493   -2.5081    0.5739 C   0  0  0  0  0  0  0  0  0  0  0  0
   -3.4756   -1.9345    1.6916 C   0  0  0  0  0  0  0  0  0  0  0  0
   -4.9904   -1.8855    2.4485 S   0  0  0  0  0  0  0  0  0  0  0  0
   -4.5525   -0.4757    3.3025 C   0  0  0  0  0  0  0  0  0  0  0  0
   -5.2155    0.3627    4.2078 C   0  0  0  0  0  0  0  0  0  0  0  0
   -6.5327    0.2277    4.6649 O   0  0  0  0  0  0  0  0  0  0  0  0
   -7.4265   -0.8096    4.2791 C   0  0  0  0  0  0  0  0  0  0  0  0
   -8.7439   -0.6372    5.0174 C   0  0  0  0  0  0  0  0  0  0  0  0
   -4.3900    1.4266    4.6085 C   0  0  0  0  0  0  0  0  0  0  0  0
   -2.9223    1.3724    3.7494 S   0  0  0  0  0  0  0  0  0  0  0  0
   -3.2905   -0.0561    2.9514 C   0  0  0  0  0  0  0  0  0  0  0  0
   -2.6715   -0.8958    2.0308 C   0  0  0  0  0  0  0  0  0  0  0  0
   -1.6124   -0.7548    1.1875 N   0  0  0  0  0  0  0  0  0  0  0  0
   -1.7604   -1.8058    0.3078 C   0  0  0  0  0  0  0  0  0  0  0  0
   -1.0375   -2.1317   -0.8793 C   0  0  0  0  0  0  0  0  0  0  0  0
    0.2631   -1.8584   -1.2398 N   0  0  0  0  0  0  0  0  0  0  0  0
    0.4101   -2.5181   -2.4168 C   0  0  0  0  0  0  0  0  0  0  0  0
    1.5033   -2.8657   -3.1949 C   0  0  0  0  0  0  0  0  0  0  0  0
    3.1291   -2.4920   -3.2569 S   0  0  0  0  0  0  0  0  0  0  0  0
    1.3791   -1.4790   -0.3679 C   0  0  0  0  0  0  0  0  0  0  0  0
    2.0438   -0.1792   -0.8354 C   0  0  0  0  0  0  0  0  0  0  0  0
   -0.9324    0.5212    0.9359 C   0  0  0  0  0  0  0  0  0  0  0  0
    0.1126    0.8398    2.0102 C   0  0  0  0  0  0  0  0  0  0  0  0
   -4.7500    2.5003    5.5521 C   0  0  0  0  0  0  0  0  0  0  0  0
   -5.3707    2.2906    6.7335 C   0  0  0  0  0  0  0  0  0  0  0  0
   -5.5149    0.9840    7.3939 C   0  0  0  0  0  0  0  0  0  0  0  0
   -5.0229   -0.1112    7.0113 O   0  0  0  0  0  0  0  0  0  0  0  0
   -6.1897    1.1741    8.6541 C   0  0  0  0  0  0  0  0  0  0  0  0
   -6.6539    0.1859    9.5219 C   0  0  0  0  0  0  0  0  0  0  0  0
   -7.3957    0.5681   10.6531 C   0  0  0  0  0  0  0  0  0  0  0  0
   -7.9514   -0.4619   11.5569 C   0  0  0  0  0  0  0  0  0  0  0  0
   -8.5060   -0.1298   12.6384 O   0  0  0  0  0  0  0  0  0  0  0  0
   -7.8829   -1.8119   11.1919 O   0  0  0  0  0  0  0  0  0  0  0  0
   -8.4449   -2.8536   11.9812 C   0  0  0  0  0  0  0  0  0  0  0  0
   -7.6484    1.9406   10.8780 C   0  0  0  0  0  0  0  0  0  0  0  0
   -7.1823    2.9166    9.9799 C   0  0  0  0  0  0  0  0  0  0  0  0
   -6.4237    2.5197    8.8644 C   0  0  0  0  0  0  0  0  0  0  0  0
   -5.9057    3.3080    7.7029 C   0  0  0  0  0  0  0  0  0  0  0  0
   -5.9543    4.6583    7.5586 C   0  0  0  0  0  0  0  0  0  0  0  0
   -5.6999    5.3234    6.3081 C   0  0  0  0  0  0  0  0  0  0  0  0
   -5.5055    5.8712    5.3070 N   0  0  0  0  0  0  0  0  0  0  0  0
   -6.2381    5.5416    8.6599 C   0  0  0  0  0  0  0  0  0  0  0  0
   -6.4494    6.2662    9.5402 N   0  0  0  0  0  0  0  0  0  0  0  0
    5.2198   -4.6663   -5.0947 H   0  0  0  0  0  0  0  0  0  0  0  0
    4.8719    1.2201   -7.3330 H   0  0  0  0  0  0  0  0  0  0  0  0
    9.1885   -1.4727   -7.6981 H   0  0  0  0  0  0  0  0  0  0  0  0
    9.0438    1.0897   -9.9939 H   0  0  0  0  0  0  0  0  0  0  0  0
   10.7191    1.7811   -7.8875 H   0  0  0  0  0  0  0  0  0  0  0  0
   10.9058    3.8187   -9.5826 H   0  0  0  0  0  0  0  0  0  0  0  0
    8.6971    5.1980   -9.4472 H   0  0  0  0  0  0  0  0  0  0  0  0
    7.0967    4.0497   -7.6653 H   0  0  0  0  0  0  0  0  0  0  0  0
    8.5537    2.2055   -6.3708 H   0  0  0  0  0  0  0  0  0  0  0  0
    9.4982    3.7386   -6.5582 H   0  0  0  0  0  0  0  0  0  0  0  0
    7.0089    2.3523   -9.8614 H   0  0  0  0  0  0  0  0  0  0  0  0
    3.9823   -5.5919   -6.7811 H   0  0  0  0  0  0  0  0  0  0  0  0
    2.5799   -6.1920   -7.6916 H   0  0  0  0  0  0  0  0  0  0  0  0
    3.6195   -4.3145   -8.9148 H   0  0  0  0  0  0  0  0  0  0  0  0
    1.9433   -3.8870   -8.3865 H   0  0  0  0  0  0  0  0  0  0  0  0
    3.3667   -3.2226   -7.5049 H   0  0  0  0  0  0  0  0  0  0  0  0
   -7.6134   -0.7612    3.1842 H   0  0  0  0  0  0  0  0  0  0  0  0
   -6.9956   -1.8022    4.5446 H   0  0  0  0  0  0  0  0  0  0  0  0
   -9.2179    0.3240    4.7294 H   0  0  0  0  0  0  0  0  0  0  0  0
   -8.5687   -0.6487    6.1153 H   0  0  0  0  0  0  0  0  0  0  0  0
   -9.4294   -1.4702    4.7558 H   0  0  0  0  0  0  0  0  0  0  0  0
    1.0317   -1.3945    0.6735 H   0  0  0  0  0  0  0  0  0  0  0  0
    2.1351   -2.2935   -0.3525 H   0  0  0  0  0  0  0  0  0  0  0  0
    1.3373    0.4633   -1.4014 H   0  0  0  0  0  0  0  0  0  0  0  0
    2.4270    0.3836    0.0415 H   0  0  0  0  0  0  0  0  0  0  0  0
    2.9093   -0.3925   -1.4884 H   0  0  0  0  0  0  0  0  0  0  0  0
   -0.4688    0.5100   -0.0625 H   0  0  0  0  0  0  0  0  0  0  0  0
   -1.6813    1.3414    0.9002 H   0  0  0  0  0  0  0  0  0  0  0  0
   -0.3558    1.3192    2.8885 H   0  0  0  0  0  0  0  0  0  0  0  0
    0.8569    1.5541    1.6002 H   0  0  0  0  0  0  0  0  0  0  0  0
    0.6352   -0.0708    2.3639 H   0  0  0  0  0  0  0  0  0  0  0  0
   -4.4398    3.4863    5.2579 H   0  0  0  0  0  0  0  0  0  0  0  0
   -6.4648   -0.8564    9.2983 H   0  0  0  0  0  0  0  0  0  0  0  0
   -8.3406   -3.8168   11.4420 H   0  0  0  0  0  0  0  0  0  0  0  0
   -9.5252   -2.6582   12.1547 H   0  0  0  0  0  0  0  0  0  0  0  0
   -7.9130   -2.9220   12.9557 H   0  0  0  0  0  0  0  0  0  0  0  0
   -8.2406    2.2579   11.7272 H   0  0  0  0  0  0  0  0  0  0  0  0
   -7.4624    3.9390   10.1566 H   0  0  0  0  0  0  0  0  0  0  0  0
  1  2  2  3
  2  3  1  0
  3  4  2  0
  3  5  1  0
  5  6  2  0
  6  7  1  0
  7  8  2  0
  8  9  1  0
  9 10  2  0
 10 11  1  0
 11 12  2  3
 12 13  1  0
 13 14  3  0
 12 15  1  0
 15 16  3  0
  8 17  1  0
 17 18  1  0
 18 19  1  0
 19 20  2  0
 20 21  1  0
 21 22  1  0
 21 23  1  0
  1 24  1  0
 24 25  2  0
 25 26  1  0
 26 27  1  0
 27 28  1  0
 25 29  1  0
 29 30  1  0
 30 31  1  0
 31 32  1  0
 32 33  1  0
 33 34  1  0
 34 35  2  0
 35 36  1  0
 36 37  1  0
 34 38  1  0
 38 39  1  0
 39 40  1  0
 40 41  1  0
 41 42  1  0
 42 43  1  0
 43 44  1  0
 44 45  1  0
 42 46  2  0
 46 47  1  0
 47 48  1  0
 48 49  1  0
 49 50  1  0
 50 51  1  0
 51 52  1  0
 52 53  1  0
 53 54  1  0
 54 55  1  0
 55 56  1  0
 53 57  1  0
 57 58  1  0
 50 59  1  0
 59 60  1  0
 46 61  1  0
 61 62  2  3
 62 63  1  0
 63 64  2  0
 63 65  1  0
 65 66  2  0
 66 67  1  0
 67 68  1  0
 68 69  2  0
 68 70  1  0
 70 71  1  0
 67 72  2  0
 72 73  1  0
 73 74  2  0
 74 75  1  0
 75 76  2  3
 76 77  1  0
 77 78  3  0
 76 79  1  0
 79 80  3  0
 11  2  1  0
 23 17  1  0
 56 24  1  0
 75 62  1  0
 10  5  1  0
 22 18  1  0
 55 29  2  0
 74 65  1  0
 23  7  1  0
 54 31  2  0
 52 32  2  0
 37 33  2  0
 51 38  2  0
 49 39  2  0
 48 41  2  0
  1 81  1  0
  6 82  1  0
  9 83  1  0
 17 84  1  0
 18 85  1  0
 19 86  1  0
 20 87  1  0
 21 88  1  0
 22 89  1  0
 22 90  1  0
 23 91  1  0
 27 92  1  0
 27 93  1  0
 28 94  1  0
 28 95  1  0
 28 96  1  0
 44 97  1  0
 44 98  1  0
 45 99  1  0
 45100  1  0
 45101  1  0
 57102  1  0
 57103  1  0
 58104  1  0
 58105  1  0
 58106  1  0
 59107  1  0
 59108  1  0
 60109  1  0
 60110  1  0
 60111  1  0
 61112  1  0
 66113  1  0
 71114  1  0
 71115  1  0
 71116  1  0
 72117  1  0
 73118  1  0
M  END

