
     RDKit          3D

107120  0  0  0  0  0  0  0  0999 V2000
    1.2190    6.2689   -2.2863 C   0  0  0  0  0  0  0  0  0  0  0  0
    2.2106    6.1026   -1.3877 C   0  0  0  0  0  0  0  0  0  0  0  0
    2.6649    4.8101   -0.8539 C   0  0  0  0  0  0  0  0  0  0  0  0
    2.0305    3.7214   -0.8803 O   0  0  0  0  0  0  0  0  0  0  0  0
    4.0228    4.9634   -0.3777 C   0  0  0  0  0  0  0  0  0  0  0  0
    4.8901    3.9335    0.0550 C   0  0  0  0  0  0  0  0  0  0  0  0
    6.1823    4.3569    0.3013 C   0  0  0  0  0  0  0  0  0  0  0  0
    6.6020    5.7169    0.1361 C   0  0  0  0  0  0  0  0  0  0  0  0
    5.7594    6.7293   -0.2895 C   0  0  0  0  0  0  0  0  0  0  0  0
    4.4200    6.3167   -0.5325 C   0  0  0  0  0  0  0  0  0  0  0  0
    3.2653    7.1033   -1.0482 C   0  0  0  0  0  0  0  0  0  0  0  0
    3.1071    8.4509   -0.9990 C   0  0  0  0  0  0  0  0  0  0  0  0
    1.8464    9.0851   -1.2864 C   0  0  0  0  0  0  0  0  0  0  0  0
    0.8386    9.6104   -1.5065 N   0  0  0  0  0  0  0  0  0  0  0  0
    4.1414    9.3365   -0.5273 C   0  0  0  0  0  0  0  0  0  0  0  0
    4.9679   10.0550   -0.1491 N   0  0  0  0  0  0  0  0  0  0  0  0
    8.0006    5.3548    0.5377 C   0  0  0  0  0  0  0  0  0  0  0  0
    8.4872    5.7624    1.9615 C   0  0  0  0  0  0  0  0  0  0  0  0
    7.3179    5.7841    2.9184 C   0  0  0  0  0  0  0  0  0  0  0  0
    6.9280    4.5181    3.0748 C   0  0  0  0  0  0  0  0  0  0  0  0
    7.8426    3.6766    2.2172 C   0  0  0  0  0  0  0  0  0  0  0  0
    9.1302    4.4591    2.4012 C   0  0  0  0  0  0  0  0  0  0  0  0
    7.5720    3.9612    0.7086 C   0  0  0  0  0  0  0  0  0  0  0  0
    0.3012    5.1932   -2.6790 C   0  0  0  0  0  0  0  0  0  0  0  0
    0.2124    4.5554   -3.9351 C   0  0  0  0  0  0  0  0  0  0  0  0
    1.0138    4.7692   -5.0685 O   0  0  0  0  0  0  0  0  0  0  0  0
    2.3441    5.2891   -5.0755 C   0  0  0  0  0  0  0  0  0  0  0  0
    3.3259    4.2836   -4.4814 C   0  0  0  0  0  0  0  0  0  0  0  0
   -0.7836    3.5813   -3.9289 C   0  0  0  0  0  0  0  0  0  0  0  0
   -1.0608    2.2631   -4.9620 S   0  0  0  0  0  0  0  0  0  0  0  0
   -2.1547    1.5726   -3.8612 C   0  0  0  0  0  0  0  0  0  0  0  0
   -2.4701    0.2801   -3.5428 C   0  0  0  0  0  0  0  0  0  0  0  0
   -2.0855   -0.9105   -4.1784 C   0  0  0  0  0  0  0  0  0  0  0  0
   -2.1629   -2.1378   -3.4555 C   0  0  0  0  0  0  0  0  0  0  0  0
   -1.7451   -3.2588   -4.0928 N   0  0  0  0  0  0  0  0  0  0  0  0
   -1.2840   -2.6020   -5.5422 S   0  0  0  0  0  0  0  0  0  0  0  0
   -1.5740   -0.9735   -5.4329 N   0  0  0  0  0  0  0  0  0  0  0  0
   -2.6497   -2.1108   -2.1464 C   0  0  0  0  0  0  0  0  0  0  0  0
   -2.9245   -3.1076   -1.2551 C   0  0  0  0  0  0  0  0  0  0  0  0
   -2.9418   -4.8035   -1.2078 S   0  0  0  0  0  0  0  0  0  0  0  0
   -3.8028   -4.7688    0.2621 C   0  0  0  0  0  0  0  0  0  0  0  0
   -4.3885   -5.7593    1.0358 C   0  0  0  0  0  0  0  0  0  0  0  0
   -4.2926   -7.1174    0.7203 O   0  0  0  0  0  0  0  0  0  0  0  0
   -5.4280   -7.9351    0.4375 C   0  0  0  0  0  0  0  0  0  0  0  0
   -6.1201   -7.4672   -0.8372 C   0  0  0  0  0  0  0  0  0  0  0  0
   -5.1051   -5.2080    2.1164 C   0  0  0  0  0  0  0  0  0  0  0  0
   -5.0760   -3.5058    2.0141 S   0  0  0  0  0  0  0  0  0  0  0  0
   -4.0966   -3.4903    0.6526 C   0  0  0  0  0  0  0  0  0  0  0  0
   -3.5814   -2.5396   -0.2144 C   0  0  0  0  0  0  0  0  0  0  0  0
   -3.7711   -1.2066   -0.3737 N   0  0  0  0  0  0  0  0  0  0  0  0
   -3.1037   -0.9316   -1.5405 C   0  0  0  0  0  0  0  0  0  0  0  0
   -2.9032    0.3044   -2.2061 C   0  0  0  0  0  0  0  0  0  0  0  0
   -2.7318    1.5573   -1.6683 N   0  0  0  0  0  0  0  0  0  0  0  0
   -2.2712    2.2993   -2.7106 C   0  0  0  0  0  0  0  0  0  0  0  0
   -1.4727    3.4431   -2.7502 C   0  0  0  0  0  0  0  0  0  0  0  0
   -0.8537    4.5200   -1.6230 S   0  0  0  0  0  0  0  0  0  0  0  0
   -2.5589    1.9165   -0.2531 C   0  0  0  0  0  0  0  0  0  0  0  0
   -3.5125    3.0471    0.1494 C   0  0  0  0  0  0  0  0  0  0  0  0
   -4.9075   -0.4575    0.1782 C   0  0  0  0  0  0  0  0  0  0  0  0
   -6.2366   -0.9751   -0.3723 C   0  0  0  0  0  0  0  0  0  0  0  0
   -5.9154   -5.9386    3.1021 C   0  0  0  0  0  0  0  0  0  0  0  0
   -5.4981   -7.0031    3.8000 C   0  0  0  0  0  0  0  0  0  0  0  0
   -6.6536   -8.0008    4.7535 S   0  0  0  0  0  0  0  0  0  0  0  0
   -5.3582   -9.2356    4.8975 C   0  0  0  0  0  0  0  0  0  0  0  0
   -5.5843  -10.3872    5.3502 O   0  0  0  0  0  0  0  0  0  0  0  0
   -4.0692   -8.8413    4.4347 N   0  0  0  0  0  0  0  0  0  0  0  0
   -2.8366   -9.5970    4.6688 C   0  0  0  0  0  0  0  0  0  0  0  0
   -2.4096   -9.4785    6.1306 C   0  0  0  0  0  0  0  0  0  0  0  0
   -4.1396   -7.5530    3.8383 C   0  0  0  0  0  0  0  0  0  0  0  0
   -3.1163   -6.9429    3.4294 O   0  0  0  0  0  0  0  0  0  0  0  0
    1.1198    7.1945   -2.8318 H   0  0  0  0  0  0  0  0  0  0  0  0
    4.5840    2.9007    0.1450 H   0  0  0  0  0  0  0  0  0  0  0  0
    6.1370    7.7272   -0.4573 H   0  0  0  0  0  0  0  0  0  0  0  0
    8.7515    5.4921   -0.2727 H   0  0  0  0  0  0  0  0  0  0  0  0
    9.1515    6.6506    2.0029 H   0  0  0  0  0  0  0  0  0  0  0  0
    6.9182    6.6437    3.4428 H   0  0  0  0  0  0  0  0  0  0  0  0
    6.1539    4.1707    3.7488 H   0  0  0  0  0  0  0  0  0  0  0  0
    7.8968    2.6028    2.5004 H   0  0  0  0  0  0  0  0  0  0  0  0
    9.9571    4.1154    1.7342 H   0  0  0  0  0  0  0  0  0  0  0  0
    9.4930    4.4802    3.4580 H   0  0  0  0  0  0  0  0  0  0  0  0
    8.0665    3.2522    0.0083 H   0  0  0  0  0  0  0  0  0  0  0  0
    2.4028    6.2652   -4.5602 H   0  0  0  0  0  0  0  0  0  0  0  0
    2.6317    5.4775   -6.1286 H   0  0  0  0  0  0  0  0  0  0  0  0
    3.3628    3.3700   -5.1115 H   0  0  0  0  0  0  0  0  0  0  0  0
    4.3402    4.7302   -4.4352 H   0  0  0  0  0  0  0  0  0  0  0  0
    3.0170    4.0008   -3.4606 H   0  0  0  0  0  0  0  0  0  0  0  0
   -5.0841   -8.9829    0.2961 H   0  0  0  0  0  0  0  0  0  0  0  0
   -6.1483   -7.9241    1.2782 H   0  0  0  0  0  0  0  0  0  0  0  0
   -6.5350   -6.4486   -0.6954 H   0  0  0  0  0  0  0  0  0  0  0  0
   -5.3983   -7.4538   -1.6786 H   0  0  0  0  0  0  0  0  0  0  0  0
   -6.9500   -8.1606   -1.0870 H   0  0  0  0  0  0  0  0  0  0  0  0
   -2.7123    1.0426    0.4081 H   0  0  0  0  0  0  0  0  0  0  0  0
   -1.5094    2.2368   -0.0724 H   0  0  0  0  0  0  0  0  0  0  0  0
   -3.4130    3.2454    1.2383 H   0  0  0  0  0  0  0  0  0  0  0  0
   -4.5654    2.7798   -0.0644 H   0  0  0  0  0  0  0  0  0  0  0  0
   -3.2813    3.9793   -0.4057 H   0  0  0  0  0  0  0  0  0  0  0  0
   -4.8525    0.5992   -0.1106 H   0  0  0  0  0  0  0  0  0  0  0  0
   -4.9060   -0.5265    1.2822 H   0  0  0  0  0  0  0  0  0  0  0  0
   -7.0687   -0.3326   -0.0090 H   0  0  0  0  0  0  0  0  0  0  0  0
   -6.4344   -2.0150   -0.0393 H   0  0  0  0  0  0  0  0  0  0  0  0
   -6.2292   -0.9486   -1.4797 H   0  0  0  0  0  0  0  0  0  0  0  0
   -6.9309   -5.5944    3.2438 H   0  0  0  0  0  0  0  0  0  0  0  0
   -2.0212   -9.2106    4.0181 H   0  0  0  0  0  0  0  0  0  0  0  0
   -2.9929  -10.6680    4.4064 H   0  0  0  0  0  0  0  0  0  0  0  0
   -1.4518  -10.0164    6.2923 H   0  0  0  0  0  0  0  0  0  0  0  0
   -2.2688   -8.4073    6.3895 H   0  0  0  0  0  0  0  0  0  0  0  0
   -3.1838   -9.9187    6.7947 H   0  0  0  0  0  0  0  0  0  0  0  0
  1  2  2  3
  2  3  1  0
  3  4  2  0
  3  5  1  0
  5  6  2  0
  6  7  1  0
  7  8  2  0
  8  9  1  0
  9 10  2  0
 10 11  1  0
 11 12  2  3
 12 13  1  0
 13 14  3  0
 12 15  1  0
 15 16  3  0
  8 17  1  0
 17 18  1  0
 18 19  1  0
 19 20  2  0
 20 21  1  0
 21 22  1  0
 21 23  1  0
  1 24  1  0
 24 25  2  0
 25 26  1  0
 26 27  1  0
 27 28  1  0
 25 29  1  0
 29 30  1  0
 30 31  1  0
 31 32  1  0
 32 33  1  0
 33 34  1  0
 34 35  2  0
 35 36  1  0
 36 37  1  0
 34 38  1  0
 38 39  1  0
 39 40  1  0
 40 41  1  0
 41 42  1  0
 42 43  1  0
 43 44  1  0
 44 45  1  0
 42 46  2  0
 46 47  1  0
 47 48  1  0
 48 49  1  0
 49 50  1  0
 50 51  1  0
 51 52  1  0
 52 53  1  0
 53 54  1  0
 54 55  1  0
 55 56  1  0
 53 57  1  0
 57 58  1  0
 50 59  1  0
 59 60  1  0
 46 61  1  0
 61 62  2  3
 62 63  1  0
 63 64  1  0
 64 65  2  0
 64 66  1  0
 66 67  1  0
 67 68  1  0
 66 69  1  0
 69 70  2  0
 11  2  1  0
 23 17  1  0
 56 24  1  0
 69 62  1  0
 10  5  1  0
 22 18  1  0
 55 29  2  0
 23  7  1  0
 54 31  2  0
 52 32  2  0
 37 33  2  0
 51 38  2  0
 49 39  2  0
 48 41  2  0
  1 71  1  0
  6 72  1  0
  9 73  1  0
 17 74  1  0
 18 75  1  0
 19 76  1  0
 20 77  1  0
 21 78  1  0
 22 79  1  0
 22 80  1  0
 23 81  1  0
 27 82  1  0
 27 83  1  0
 28 84  1  0
 28 85  1  0
 28 86  1  0
 44 87  1  0
 44 88  1  0
 45 89  1  0
 45 90  1  0
 45 91  1  0
 57 92  1  0
 57 93  1  0
 58 94  1  0
 58 95  1  0
 58 96  1  0
 59 97  1  0
 59 98  1  0
 60 99  1  0
 60100  1  0
 60101  1  0
 61102  1  0
 67103  1  0
 67104  1  0
 68105  1  0
 68106  1  0
 68107  1  0
M  END

