
     RDKit          3D

112126  0  0  0  0  0  0  0  0999 V2000
   -2.5289   -2.2430    5.4896 C   0  0  0  0  0  0  0  0  0  0  0  0
   -3.6543   -2.9618    5.3271 C   0  0  0  0  0  0  0  0  0  0  0  0
   -4.5377   -2.8911    4.1595 C   0  0  0  0  0  0  0  0  0  0  0  0
   -4.2293   -2.4695    3.0112 O   0  0  0  0  0  0  0  0  0  0  0  0
   -5.8417   -3.3695    4.5404 C   0  0  0  0  0  0  0  0  0  0  0  0
   -7.0138   -3.3457    3.7554 C   0  0  0  0  0  0  0  0  0  0  0  0
   -8.1410   -3.7746    4.4262 C   0  0  0  0  0  0  0  0  0  0  0  0
   -8.1287   -4.1821    5.7993 C   0  0  0  0  0  0  0  0  0  0  0  0
   -6.9829   -4.2008    6.5779 C   0  0  0  0  0  0  0  0  0  0  0  0
   -5.8011   -3.8014    5.8924 C   0  0  0  0  0  0  0  0  0  0  0  0
   -4.4009   -3.6945    6.3880 C   0  0  0  0  0  0  0  0  0  0  0  0
   -3.8550   -4.3445    7.4472 C   0  0  0  0  0  0  0  0  0  0  0  0
   -2.4255   -4.4727    7.5977 C   0  0  0  0  0  0  0  0  0  0  0  0
   -1.2818   -4.6029    7.7051 N   0  0  0  0  0  0  0  0  0  0  0  0
   -4.6471   -5.1063    8.3755 C   0  0  0  0  0  0  0  0  0  0  0  0
   -5.2727   -5.7233    9.1299 N   0  0  0  0  0  0  0  0  0  0  0  0
   -9.6127   -4.4066    5.7601 C   0  0  0  0  0  0  0  0  0  0  0  0
  -10.5022   -3.3353    6.4584 C   0  0  0  0  0  0  0  0  0  0  0  0
  -11.9068   -3.5621    5.9460 C   0  0  0  0  0  0  0  0  0  0  0  0
  -11.9078   -3.1842    4.6609 C   0  0  0  0  0  0  0  0  0  0  0  0
  -10.5077   -2.7136    4.3519 C   0  0  0  0  0  0  0  0  0  0  0  0
  -10.1804   -2.0671    5.6871 C   0  0  0  0  0  0  0  0  0  0  0  0
   -9.6199   -3.9922    4.3514 C   0  0  0  0  0  0  0  0  0  0  0  0
   -2.0551   -1.3168    4.4561 C   0  0  0  0  0  0  0  0  0  0  0  0
   -2.5910   -0.0431    4.2361 C   0  0  0  0  0  0  0  0  0  0  0  0
   -3.5066    0.5426    5.1198 O   0  0  0  0  0  0  0  0  0  0  0  0
   -3.6756    1.9553    5.3047 C   0  0  0  0  0  0  0  0  0  0  0  0
   -2.3772    2.6172    5.7590 C   0  0  0  0  0  0  0  0  0  0  0  0
   -2.1233    0.5008    3.0356 C   0  0  0  0  0  0  0  0  0  0  0  0
   -2.4941    1.9007    2.1257 S   0  0  0  0  0  0  0  0  0  0  0  0
   -1.4919    1.3758    0.8598 C   0  0  0  0  0  0  0  0  0  0  0  0
   -0.9924    1.8397   -0.3197 C   0  0  0  0  0  0  0  0  0  0  0  0
   -1.1103    3.0946   -0.9243 C   0  0  0  0  0  0  0  0  0  0  0  0
   -0.2889    3.3894   -2.0462 C   0  0  0  0  0  0  0  0  0  0  0  0
   -0.3865    4.6349   -2.5709 N   0  0  0  0  0  0  0  0  0  0  0  0
   -1.5241    5.2788   -1.5553 S   0  0  0  0  0  0  0  0  0  0  0  0
   -1.9156    4.0889   -0.4741 N   0  0  0  0  0  0  0  0  0  0  0  0
    0.5503    2.3881   -2.5427 C   0  0  0  0  0  0  0  0  0  0  0  0
    1.3914    2.3757   -3.6166 C   0  0  0  0  0  0  0  0  0  0  0  0
    2.0681    3.4522   -4.7459 S   0  0  0  0  0  0  0  0  0  0  0  0
    3.0857    2.2111   -5.3379 C   0  0  0  0  0  0  0  0  0  0  0  0
    4.2086    2.2250   -6.1603 C   0  0  0  0  0  0  0  0  0  0  0  0
    4.6113    3.3651   -6.8650 O   0  0  0  0  0  0  0  0  0  0  0  0
    5.1376    3.3303   -8.1919 C   0  0  0  0  0  0  0  0  0  0  0  0
    4.0446    2.9399   -9.1848 C   0  0  0  0  0  0  0  0  0  0  0  0
    4.9015    0.9988   -6.1033 C   0  0  0  0  0  0  0  0  0  0  0  0
    4.1029   -0.0648   -5.0346 S   0  0  0  0  0  0  0  0  0  0  0  0
    2.8804    1.0274   -4.6775 C   0  0  0  0  0  0  0  0  0  0  0  0
    1.9114    1.1319   -3.6955 C   0  0  0  0  0  0  0  0  0  0  0  0
    1.4487    0.2959   -2.7383 N   0  0  0  0  0  0  0  0  0  0  0  0
    0.6401    1.1046   -1.9670 C   0  0  0  0  0  0  0  0  0  0  0  0
   -0.0836    0.8547   -0.7605 C   0  0  0  0  0  0  0  0  0  0  0  0
    0.0415   -0.1423    0.1879 N   0  0  0  0  0  0  0  0  0  0  0  0
   -0.8752    0.2031    1.1269 C   0  0  0  0  0  0  0  0  0  0  0  0
   -1.2330   -0.3062    2.3672 C   0  0  0  0  0  0  0  0  0  0  0  0
   -1.0064   -1.7513    3.1892 S   0  0  0  0  0  0  0  0  0  0  0  0
    1.1615   -1.0554    0.4494 C   0  0  0  0  0  0  0  0  0  0  0  0
    2.4912   -0.3085    0.5191 C   0  0  0  0  0  0  0  0  0  0  0  0
    1.5440   -1.1670   -2.8249 C   0  0  0  0  0  0  0  0  0  0  0  0
    0.1640   -1.8217   -2.8799 C   0  0  0  0  0  0  0  0  0  0  0  0
    6.3132    0.8201   -6.4655 C   0  0  0  0  0  0  0  0  0  0  0  0
    7.3133    1.3011   -5.6969 C   0  0  0  0  0  0  0  0  0  0  0  0
    7.1256    2.0373   -4.4256 C   0  0  0  0  0  0  0  0  0  0  0  0
    6.0538    2.1750   -3.7744 O   0  0  0  0  0  0  0  0  0  0  0  0
    8.4008    2.5824   -4.0398 C   0  0  0  0  0  0  0  0  0  0  0  0
    9.3638    2.2198   -4.9477 C   0  0  0  0  0  0  0  0  0  0  0  0
   10.6416    2.6928   -4.6379 C   0  0  0  0  0  0  0  0  0  0  0  0
   10.4912    3.5689   -3.1913 S   0  0  0  0  0  0  0  0  0  0  0  0
    8.8275    3.3535   -2.9703 C   0  0  0  0  0  0  0  0  0  0  0  0
    8.0146    3.8274   -1.8124 C   0  0  0  0  0  0  0  0  0  0  0  0
    8.7841    1.3582   -6.0112 C   0  0  0  0  0  0  0  0  0  0  0  0
    9.4789    0.6966   -6.9691 C   0  0  0  0  0  0  0  0  0  0  0  0
    8.8716   -0.2579   -7.8598 C   0  0  0  0  0  0  0  0  0  0  0  0
    8.3882   -1.0233   -8.5817 N   0  0  0  0  0  0  0  0  0  0  0  0
   10.8910    0.9147   -7.1628 C   0  0  0  0  0  0  0  0  0  0  0  0
   12.0268    1.0883   -7.3302 N   0  0  0  0  0  0  0  0  0  0  0  0
   -2.0360   -2.1988    6.4497 H   0  0  0  0  0  0  0  0  0  0  0  0
   -7.0398   -2.9968    2.7300 H   0  0  0  0  0  0  0  0  0  0  0  0
   -7.0266   -4.4706    7.6201 H   0  0  0  0  0  0  0  0  0  0  0  0
   -9.9106   -5.4648    5.9278 H   0  0  0  0  0  0  0  0  0  0  0  0
  -10.4065   -3.2738    7.5637 H   0  0  0  0  0  0  0  0  0  0  0  0
  -12.7705   -3.8899    6.5115 H   0  0  0  0  0  0  0  0  0  0  0  0
  -12.7716   -3.1508    4.0048 H   0  0  0  0  0  0  0  0  0  0  0  0
  -10.4150   -2.0578    3.4603 H   0  0  0  0  0  0  0  0  0  0  0  0
   -9.1241   -1.7334    5.7868 H   0  0  0  0  0  0  0  0  0  0  0  0
  -10.8526   -1.2114    5.9442 H   0  0  0  0  0  0  0  0  0  0  0  0
   -9.9205   -4.7870    3.6293 H   0  0  0  0  0  0  0  0  0  0  0  0
   -4.4420    2.1082    6.0884 H   0  0  0  0  0  0  0  0  0  0  0  0
   -4.0586    2.4182    4.3755 H   0  0  0  0  0  0  0  0  0  0  0  0
   -1.5897    2.5271    4.9835 H   0  0  0  0  0  0  0  0  0  0  0  0
   -2.0091    2.1376    6.6926 H   0  0  0  0  0  0  0  0  0  0  0  0
   -2.5527    3.6962    5.9616 H   0  0  0  0  0  0  0  0  0  0  0  0
    5.5062    4.3474   -8.4530 H   0  0  0  0  0  0  0  0  0  0  0  0
    5.9985    2.6381   -8.2719 H   0  0  0  0  0  0  0  0  0  0  0  0
    3.6839    1.9073   -8.9757 H   0  0  0  0  0  0  0  0  0  0  0  0
    4.4413    2.9836  -10.2202 H   0  0  0  0  0  0  0  0  0  0  0  0
    3.1931    3.6511   -9.0931 H   0  0  0  0  0  0  0  0  0  0  0  0
    1.0314   -1.5527    1.4295 H   0  0  0  0  0  0  0  0  0  0  0  0
    1.1625   -1.8952   -0.2617 H   0  0  0  0  0  0  0  0  0  0  0  0
    3.3103   -1.0271    0.7286 H   0  0  0  0  0  0  0  0  0  0  0  0
    2.4610    0.4436    1.3399 H   0  0  0  0  0  0  0  0  0  0  0  0
    2.7282    0.2146   -0.4290 H   0  0  0  0  0  0  0  0  0  0  0  0
    2.0512   -1.4571   -3.7685 H   0  0  0  0  0  0  0  0  0  0  0  0
    2.1990   -1.5696   -2.0380 H   0  0  0  0  0  0  0  0  0  0  0  0
   -0.4457   -1.5838   -1.9849 H   0  0  0  0  0  0  0  0  0  0  0  0
   -0.3825   -1.4678   -3.7815 H   0  0  0  0  0  0  0  0  0  0  0  0
    0.2790   -2.9244   -2.9447 H   0  0  0  0  0  0  0  0  0  0  0  0
    6.5016    0.3547   -7.4179 H   0  0  0  0  0  0  0  0  0  0  0  0
   11.5622    2.5409   -5.1817 H   0  0  0  0  0  0  0  0  0  0  0  0
    7.5929    2.9557   -1.2717 H   0  0  0  0  0  0  0  0  0  0  0  0
    8.6514    4.4089   -1.1156 H   0  0  0  0  0  0  0  0  0  0  0  0
    7.1863    4.4732   -2.1784 H   0  0  0  0  0  0  0  0  0  0  0  0
  1  2  2  3
  2  3  1  0
  3  4  2  0
  3  5  1  0
  5  6  2  0
  6  7  1  0
  7  8  2  0
  8  9  1  0
  9 10  2  0
 10 11  1  0
 11 12  2  3
 12 13  1  0
 13 14  3  0
 12 15  1  0
 15 16  3  0
  8 17  1  0
 17 18  1  0
 18 19  1  0
 19 20  2  0
 20 21  1  0
 21 22  1  0
 21 23  1  0
  1 24  1  0
 24 25  2  0
 25 26  1  0
 26 27  1  0
 27 28  1  0
 25 29  1  0
 29 30  1  0
 30 31  1  0
 31 32  1  0
 32 33  1  0
 33 34  1  0
 34 35  2  0
 35 36  1  0
 36 37  1  0
 34 38  1  0
 38 39  1  0
 39 40  1  0
 40 41  1  0
 41 42  1  0
 42 43  1  0
 43 44  1  0
 44 45  1  0
 42 46  2  0
 46 47  1  0
 47 48  1  0
 48 49  1  0
 49 50  1  0
 50 51  1  0
 51 52  1  0
 52 53  1  0
 53 54  1  0
 54 55  1  0
 55 56  1  0
 53 57  1  0
 57 58  1  0
 50 59  1  0
 59 60  1  0
 46 61  1  0
 61 62  2  3
 62 63  1  0
 63 64  2  0
 63 65  1  0
 65 66  1  0
 66 67  2  0
 67 68  1  0
 68 69  1  0
 69 70  1  0
 66 71  1  0
 71 72  2  3
 72 73  1  0
 73 74  3  0
 72 75  1  0
 75 76  3  0
 11  2  1  0
 23 17  1  0
 56 24  1  0
 71 62  1  0
 10  5  1  0
 22 18  1  0
 55 29  2  0
 69 65  2  0
 23  7  1  0
 54 31  2  0
 52 32  2  0
 37 33  2  0
 51 38  2  0
 49 39  2  0
 48 41  2  0
  1 77  1  0
  6 78  1  0
  9 79  1  0
 17 80  1  0
 18 81  1  0
 19 82  1  0
 20 83  1  0
 21 84  1  0
 22 85  1  0
 22 86  1  0
 23 87  1  0
 27 88  1  0
 27 89  1  0
 28 90  1  0
 28 91  1  0
 28 92  1  0
 44 93  1  0
 44 94  1  0
 45 95  1  0
 45 96  1  0
 45 97  1  0
 57 98  1  0
 57 99  1  0
 58100  1  0
 58101  1  0
 58102  1  0
 59103  1  0
 59104  1  0
 60105  1  0
 60106  1  0
 60107  1  0
 61108  1  0
 67109  1  0
 70110  1  0
 70111  1  0
 70112  1  0
M  END

