
     RDKit          3D

103115  0  0  0  0  0  0  0  0999 V2000
    2.2917   -3.7650    2.4675 C   0  0  0  0  0  0  0  0  0  0  0  0
    3.5006   -3.2587    2.1486 C   0  0  0  0  0  0  0  0  0  0  0  0
    3.7537   -1.8693    1.7386 C   0  0  0  0  0  0  0  0  0  0  0  0
    2.9544   -0.8995    1.8344 O   0  0  0  0  0  0  0  0  0  0  0  0
    5.0455   -1.8012    1.0965 C   0  0  0  0  0  0  0  0  0  0  0  0
    5.6363   -0.6593    0.5080 C   0  0  0  0  0  0  0  0  0  0  0  0
    6.8715   -0.8979   -0.0605 C   0  0  0  0  0  0  0  0  0  0  0  0
    7.4967   -2.1846   -0.0581 C   0  0  0  0  0  0  0  0  0  0  0  0
    6.9201   -3.3097    0.5074 C   0  0  0  0  0  0  0  0  0  0  0  0
    5.6434   -3.0887    1.1024 C   0  0  0  0  0  0  0  0  0  0  0  0
    4.7375   -4.0381    1.8185 C   0  0  0  0  0  0  0  0  0  0  0  0
    5.0357   -5.2958    2.2391 C   0  0  0  0  0  0  0  0  0  0  0  0
    4.2189   -5.9991    3.1977 C   0  0  0  0  0  0  0  0  0  0  0  0
    3.5647   -6.5597    3.9687 N   0  0  0  0  0  0  0  0  0  0  0  0
    6.2069   -6.0120    1.8015 C   0  0  0  0  0  0  0  0  0  0  0  0
    7.1387   -6.6062    1.4486 N   0  0  0  0  0  0  0  0  0  0  0  0
    8.6740   -1.6324   -0.8076 C   0  0  0  0  0  0  0  0  0  0  0  0
    8.8039   -1.9815   -2.3207 C   0  0  0  0  0  0  0  0  0  0  0  0
    7.4334   -2.1786   -2.9254 C   0  0  0  0  0  0  0  0  0  0  0  0
    6.8444   -0.9830   -2.9316 C   0  0  0  0  0  0  0  0  0  0  0  0
    7.8334   -0.0109   -2.3303 C   0  0  0  0  0  0  0  0  0  0  0  0
    9.1169   -0.6057   -2.8801 C   0  0  0  0  0  0  0  0  0  0  0  0
    8.0298   -0.3156   -0.8140 C   0  0  0  0  0  0  0  0  0  0  0  0
    1.1080   -2.9309    2.7413 C   0  0  0  0  0  0  0  0  0  0  0  0
    1.1274   -1.9733    3.7862 C   0  0  0  0  0  0  0  0  0  0  0  0
    0.0315   -1.1193    3.9993 C   0  0  0  0  0  0  0  0  0  0  0  0
   -1.0830   -1.2575    3.1685 C   0  0  0  0  0  0  0  0  0  0  0  0
   -2.1908   -0.4741    3.1283 N   0  0  0  0  0  0  0  0  0  0  0  0
   -2.4727    0.7075    3.9493 C   0  0  0  0  0  0  0  0  0  0  0  0
   -1.8621    1.9515    3.3169 C   0  0  0  0  0  0  0  0  0  0  0  0
   -2.9170   -0.9392    2.0806 C   0  0  0  0  0  0  0  0  0  0  0  0
   -2.2975   -2.0435    1.4957 C   0  0  0  0  0  0  0  0  0  0  0  0
   -1.1193   -2.2275    2.1849 C   0  0  0  0  0  0  0  0  0  0  0  0
   -0.0466   -3.0859    1.9492 C   0  0  0  0  0  0  0  0  0  0  0  0
   -2.8155   -2.6927    0.3647 C   0  0  0  0  0  0  0  0  0  0  0  0
   -4.0026   -2.1544   -0.1637 C   0  0  0  0  0  0  0  0  0  0  0  0
   -4.5902   -1.0181    0.3909 C   0  0  0  0  0  0  0  0  0  0  0  0
   -4.0804   -0.3768    1.5283 C   0  0  0  0  0  0  0  0  0  0  0  0
   -5.6153   -0.6669   -0.4552 C   0  0  0  0  0  0  0  0  0  0  0  0
   -6.4178    0.4707   -0.4871 C   0  0  0  0  0  0  0  0  0  0  0  0
   -7.2565    0.6533   -1.6054 C   0  0  0  0  0  0  0  0  0  0  0  0
   -7.3273   -0.3401   -2.6100 C   0  0  0  0  0  0  0  0  0  0  0  0
   -6.5072   -1.4809   -2.5499 C   0  0  0  0  0  0  0  0  0  0  0  0
   -5.6347   -1.6105   -1.4646 C   0  0  0  0  0  0  0  0  0  0  0  0
   -4.6613   -2.5404   -1.2870 N   0  0  0  0  0  0  0  0  0  0  0  0
   -4.2964   -3.6260   -2.2023 C   0  0  0  0  0  0  0  0  0  0  0  0
   -3.3440   -3.1173   -3.2785 C   0  0  0  0  0  0  0  0  0  0  0  0
   -8.0068    1.9082   -1.7721 C   0  0  0  0  0  0  0  0  0  0  0  0
   -7.4060    3.0904   -2.0155 C   0  0  0  0  0  0  0  0  0  0  0  0
   -5.9554    3.3198   -2.0522 C   0  0  0  0  0  0  0  0  0  0  0  0
   -5.0560    2.4415   -2.1432 O   0  0  0  0  0  0  0  0  0  0  0  0
   -5.7162    4.7422   -1.9929 C   0  0  0  0  0  0  0  0  0  0  0  0
   -4.4927    5.3973   -1.8710 C   0  0  0  0  0  0  0  0  0  0  0  0
   -4.4892    6.7954   -1.7443 C   0  0  0  0  0  0  0  0  0  0  0  0
   -3.2805    7.4955   -1.6120 C   0  0  0  0  0  0  0  0  0  0  0  0
   -3.2850    8.8847   -1.4718 C   0  0  0  0  0  0  0  0  0  0  0  0
   -4.4935    9.5881   -1.4636 C   0  0  0  0  0  0  0  0  0  0  0  0
   -4.4870   10.9380   -1.3306 F   0  0  0  0  0  0  0  0  0  0  0  0
   -5.7075    8.9056   -1.5901 C   0  0  0  0  0  0  0  0  0  0  0  0
   -5.7213    7.5085   -1.7295 C   0  0  0  0  0  0  0  0  0  0  0  0
   -6.9432    6.8132   -1.8438 C   0  0  0  0  0  0  0  0  0  0  0  0
   -6.9243    5.4175   -2.0024 C   0  0  0  0  0  0  0  0  0  0  0  0
   -8.0444    4.4392   -2.1349 C   0  0  0  0  0  0  0  0  0  0  0  0
   -9.3182    4.7117   -2.5252 C   0  0  0  0  0  0  0  0  0  0  0  0
   -9.7803    6.0513   -2.7830 C   0  0  0  0  0  0  0  0  0  0  0  0
  -10.1654    7.1218   -2.9989 N   0  0  0  0  0  0  0  0  0  0  0  0
  -10.2665    3.6803   -2.8564 C   0  0  0  0  0  0  0  0  0  0  0  0
  -11.0377    2.8604   -3.1284 N   0  0  0  0  0  0  0  0  0  0  0  0
    2.1231   -4.8293    2.4293 H   0  0  0  0  0  0  0  0  0  0  0  0
    5.1638    0.3137    0.4935 H   0  0  0  0  0  0  0  0  0  0  0  0
    7.4277   -4.2550    0.4587 H   0  0  0  0  0  0  0  0  0  0  0  0
    9.6273   -1.6606   -0.2340 H   0  0  0  0  0  0  0  0  0  0  0  0
    9.5406   -2.7758   -2.5605 H   0  0  0  0  0  0  0  0  0  0  0  0
    7.0248   -3.0890   -3.3478 H   0  0  0  0  0  0  0  0  0  0  0  0
    5.8750   -0.7547   -3.3600 H   0  0  0  0  0  0  0  0  0  0  0  0
    7.6549    1.0559   -2.5800 H   0  0  0  0  0  0  0  0  0  0  0  0
   10.0399   -0.1476   -2.4515 H   0  0  0  0  0  0  0  0  0  0  0  0
    9.1751   -0.5843   -3.9945 H   0  0  0  0  0  0  0  0  0  0  0  0
    8.5907    0.4607   -0.2473 H   0  0  0  0  0  0  0  0  0  0  0  0
    2.0052   -1.8684    4.4119 H   0  0  0  0  0  0  0  0  0  0  0  0
    0.0763   -0.3596    4.7688 H   0  0  0  0  0  0  0  0  0  0  0  0
   -3.5697    0.8437    4.0581 H   0  0  0  0  0  0  0  0  0  0  0  0
   -2.0643    0.5693    4.9733 H   0  0  0  0  0  0  0  0  0  0  0  0
   -0.7608    1.8364    3.2414 H   0  0  0  0  0  0  0  0  0  0  0  0
   -2.2840    2.1079    2.3023 H   0  0  0  0  0  0  0  0  0  0  0  0
   -2.0894    2.8405    3.9422 H   0  0  0  0  0  0  0  0  0  0  0  0
   -0.0800   -3.8084    1.1436 H   0  0  0  0  0  0  0  0  0  0  0  0
   -2.3051   -3.5302   -0.0915 H   0  0  0  0  0  0  0  0  0  0  0  0
   -4.5354    0.5200    1.9261 H   0  0  0  0  0  0  0  0  0  0  0  0
   -6.3418    1.2268    0.2846 H   0  0  0  0  0  0  0  0  0  0  0  0
   -7.9770   -0.2004   -3.4660 H   0  0  0  0  0  0  0  0  0  0  0  0
   -6.5275   -2.2074   -3.3512 H   0  0  0  0  0  0  0  0  0  0  0  0
   -5.2082   -4.0437   -2.6794 H   0  0  0  0  0  0  0  0  0  0  0  0
   -3.8160   -4.4551   -1.6419 H   0  0  0  0  0  0  0  0  0  0  0  0
   -2.4182   -2.7170   -2.8126 H   0  0  0  0  0  0  0  0  0  0  0  0
   -3.8320   -2.3162   -3.8732 H   0  0  0  0  0  0  0  0  0  0  0  0
   -3.0721   -3.9514   -3.9589 H   0  0  0  0  0  0  0  0  0  0  0  0
   -9.0754    1.8343   -1.6718 H   0  0  0  0  0  0  0  0  0  0  0  0
   -3.5699    4.8302   -1.8564 H   0  0  0  0  0  0  0  0  0  0  0  0
   -2.3342    6.9680   -1.6144 H   0  0  0  0  0  0  0  0  0  0  0  0
   -2.3493    9.4186   -1.3709 H   0  0  0  0  0  0  0  0  0  0  0  0
   -6.6348    9.4675   -1.5802 H   0  0  0  0  0  0  0  0  0  0  0  0
   -7.8681    7.3598   -1.7694 H   0  0  0  0  0  0  0  0  0  0  0  0
  1  2  2  3
  2  3  1  0
  3  4  2  0
  3  5  1  0
  5  6  2  0
  6  7  1  0
  7  8  2  0
  8  9  1  0
  9 10  2  0
 10 11  1  0
 11 12  2  3
 12 13  1  0
 13 14  3  0
 12 15  1  0
 15 16  3  0
  8 17  1  0
 17 18  1  0
 18 19  1  0
 19 20  2  0
 20 21  1  0
 21 22  1  0
 21 23  1  0
  1 24  1  0
 24 25  2  0
 25 26  1  0
 26 27  2  0
 27 28  1  0
 28 29  1  0
 29 30  1  0
 28 31  1  0
 31 32  2  0
 32 33  1  0
 33 34  2  0
 32 35  1  0
 35 36  2  0
 36 37  1  0
 37 38  2  0
 37 39  1  0
 39 40  2  0
 40 41  1  0
 41 42  2  0
 42 43  1  0
 43 44  2  0
 44 45  1  0
 45 46  1  0
 46 47  1  0
 41 48  1  0
 48 49  2  3
 49 50  1  0
 50 51  2  0
 50 52  1  0
 52 53  2  0
 53 54  1  0
 54 55  2  0
 55 56  1  0
 56 57  2  0
 57 58  1  0
 57 59  1  0
 59 60  2  0
 60 61  1  0
 61 62  2  0
 62 63  1  0
 63 64  2  3
 64 65  1  0
 65 66  3  0
 64 67  1  0
 67 68  3  0
 11  2  1  0
 23 17  1  0
 34 24  1  0
 45 36  1  0
 63 49  1  0
 10  5  1  0
 22 18  1  0
 33 27  1  0
 44 39  1  0
 62 52  1  0
 23  7  1  0
 38 31  1  0
 60 54  1  0
  1 69  1  0
  6 70  1  0
  9 71  1  0
 17 72  1  0
 18 73  1  0
 19 74  1  0
 20 75  1  0
 21 76  1  0
 22 77  1  0
 22 78  1  0
 23 79  1  0
 25 80  1  0
 26 81  1  0
 29 82  1  0
 29 83  1  0
 30 84  1  0
 30 85  1  0
 30 86  1  0
 34 87  1  0
 35 88  1  0
 38 89  1  0
 40 90  1  0
 42 91  1  0
 43 92  1  0
 46 93  1  0
 46 94  1  0
 47 95  1  0
 47 96  1  0
 47 97  1  0
 48 98  1  0
 53 99  1  0
 55100  1  0
 56101  1  0
 59102  1  0
 61103  1  0
M  END

