
     RDKit          3D

 86 99  0  0  0  0  0  0  0  0999 V2000
   -3.7042   -3.7421    0.9119 C   0  0  0  0  0  0  0  0  0  0  0  0
   -4.5284   -2.8070    1.4129 C   0  0  0  0  0  0  0  0  0  0  0  0
   -4.1220   -1.5884    2.1332 C   0  0  0  0  0  0  0  0  0  0  0  0
   -3.0456   -1.4202    2.7747 O   0  0  0  0  0  0  0  0  0  0  0  0
   -5.1380   -0.5727    1.9270 C   0  0  0  0  0  0  0  0  0  0  0  0
   -5.0768    0.7914    2.3027 C   0  0  0  0  0  0  0  0  0  0  0  0
   -6.0908    1.5687    1.7697 C   0  0  0  0  0  0  0  0  0  0  0  0
   -7.0829    1.0456    0.8764 C   0  0  0  0  0  0  0  0  0  0  0  0
   -7.1716   -0.2951    0.5367 C   0  0  0  0  0  0  0  0  0  0  0  0
   -6.1762   -1.1232    1.1321 C   0  0  0  0  0  0  0  0  0  0  0  0
   -5.9150   -2.5727    0.9302 C   0  0  0  0  0  0  0  0  0  0  0  0
   -6.8120   -3.5199    0.5813 C   0  0  0  0  0  0  0  0  0  0  0  0
   -6.5250   -4.9249    0.6750 C   0  0  0  0  0  0  0  0  0  0  0  0
   -6.3140   -6.0616    0.7491 N   0  0  0  0  0  0  0  0  0  0  0  0
   -8.1609   -3.2041    0.1986 C   0  0  0  0  0  0  0  0  0  0  0  0
   -9.2493   -2.9479   -0.1241 N   0  0  0  0  0  0  0  0  0  0  0  0
   -7.6614    2.4208    0.6936 C   0  0  0  0  0  0  0  0  0  0  0  0
   -9.0332    2.7119    1.3735 C   0  0  0  0  0  0  0  0  0  0  0  0
   -9.1843    1.8578    2.6098 C   0  0  0  0  0  0  0  0  0  0  0  0
   -8.2877    2.2981    3.5008 C   0  0  0  0  0  0  0  0  0  0  0  0
   -7.5702    3.4551    2.8360 C   0  0  0  0  0  0  0  0  0  0  0  0
   -8.7269    4.0382    2.0441 C   0  0  0  0  0  0  0  0  0  0  0  0
   -6.6792    2.9444    1.6583 C   0  0  0  0  0  0  0  0  0  0  0  0
   -2.2404   -3.6188    0.9804 C   0  0  0  0  0  0  0  0  0  0  0  0
   -1.5482   -3.2274   -0.1808 C   0  0  0  0  0  0  0  0  0  0  0  0
   -2.2663   -2.9731   -1.3127 F   0  0  0  0  0  0  0  0  0  0  0  0
   -0.1352   -3.1070   -0.1762 C   0  0  0  0  0  0  0  0  0  0  0  0
    0.5661   -2.7018   -1.3271 C   0  0  0  0  0  0  0  0  0  0  0  0
    1.9851   -2.5876   -1.3087 C   0  0  0  0  0  0  0  0  0  0  0  0
    2.5758   -2.2407   -2.4765 N   0  0  0  0  0  0  0  0  0  0  0  0
    1.2544   -2.0658   -3.4578 S   0  0  0  0  0  0  0  0  0  0  0  0
   -0.0454   -2.4150   -2.5107 N   0  0  0  0  0  0  0  0  0  0  0  0
    2.7145   -2.8683   -0.1438 C   0  0  0  0  0  0  0  0  0  0  0  0
    2.0256   -3.3167    0.9954 C   0  0  0  0  0  0  0  0  0  0  0  0
    2.7495   -3.6374    2.1007 F   0  0  0  0  0  0  0  0  0  0  0  0
    0.6081   -3.4127    1.0010 C   0  0  0  0  0  0  0  0  0  0  0  0
   -0.0991   -3.8270    2.1514 C   0  0  0  0  0  0  0  0  0  0  0  0
   -1.5226   -3.9194    2.1382 C   0  0  0  0  0  0  0  0  0  0  0  0
   -2.1214   -4.3399    3.2867 N   0  0  0  0  0  0  0  0  0  0  0  0
   -0.7992   -4.5705    4.2469 S   0  0  0  0  0  0  0  0  0  0  0  0
    0.5081   -4.1742    3.3162 N   0  0  0  0  0  0  0  0  0  0  0  0
    4.1943   -2.8179   -0.1260 C   0  0  0  0  0  0  0  0  0  0  0  0
    4.9494   -1.7758   -0.5353 C   0  0  0  0  0  0  0  0  0  0  0  0
    6.2953   -1.9761   -1.0695 C   0  0  0  0  0  0  0  0  0  0  0  0
    6.9754   -3.0317   -0.9647 O   0  0  0  0  0  0  0  0  0  0  0  0
    6.7048   -0.7866   -1.7867 C   0  0  0  0  0  0  0  0  0  0  0  0
    7.9441   -0.5638   -2.4368 C   0  0  0  0  0  0  0  0  0  0  0  0
    8.1137    0.7252   -2.8938 C   0  0  0  0  0  0  0  0  0  0  0  0
    7.1452    1.7548   -2.6945 C   0  0  0  0  0  0  0  0  0  0  0  0
    5.9221    1.5372   -2.0767 C   0  0  0  0  0  0  0  0  0  0  0  0
    5.6954    0.1996   -1.6534 C   0  0  0  0  0  0  0  0  0  0  0  0
    4.5605   -0.3671   -0.8655 C   0  0  0  0  0  0  0  0  0  0  0  0
    3.4773    0.3094   -0.4210 C   0  0  0  0  0  0  0  0  0  0  0  0
    2.7916   -0.0617    0.7980 C   0  0  0  0  0  0  0  0  0  0  0  0
    2.2477   -0.3314    1.7876 N   0  0  0  0  0  0  0  0  0  0  0  0
    2.9902    1.4919   -1.0989 C   0  0  0  0  0  0  0  0  0  0  0  0
    2.5859    2.4310   -1.6539 N   0  0  0  0  0  0  0  0  0  0  0  0
    8.0703    2.7581   -3.3167 C   0  0  0  0  0  0  0  0  0  0  0  0
    8.8139    3.7161   -2.3320 C   0  0  0  0  0  0  0  0  0  0  0  0
    9.9173    4.3555   -3.1349 C   0  0  0  0  0  0  0  0  0  0  0  0
   10.8075    3.3919   -3.3799 C   0  0  0  0  0  0  0  0  0  0  0  0
   10.2814    2.1362   -2.7230 C   0  0  0  0  0  0  0  0  0  0  0  0
    9.6534    2.7682   -1.4897 C   0  0  0  0  0  0  0  0  0  0  0  0
    9.0460    1.6946   -3.5556 C   0  0  0  0  0  0  0  0  0  0  0  0
   -4.0844   -4.4341    0.1700 H   0  0  0  0  0  0  0  0  0  0  0  0
   -4.2768    1.1935    2.9071 H   0  0  0  0  0  0  0  0  0  0  0  0
   -7.9157   -0.6373   -0.1661 H   0  0  0  0  0  0  0  0  0  0  0  0
   -7.5345    2.8317   -0.3371 H   0  0  0  0  0  0  0  0  0  0  0  0
   -9.9094    2.7170    0.6937 H   0  0  0  0  0  0  0  0  0  0  0  0
   -9.9330    1.0826    2.7857 H   0  0  0  0  0  0  0  0  0  0  0  0
   -8.1473    1.9172    4.5096 H   0  0  0  0  0  0  0  0  0  0  0  0
   -7.0680    4.1529    3.5383 H   0  0  0  0  0  0  0  0  0  0  0  0
   -9.5588    4.4090    2.7004 H   0  0  0  0  0  0  0  0  0  0  0  0
   -8.4066    4.8419    1.3274 H   0  0  0  0  0  0  0  0  0  0  0  0
   -5.9766    3.7013    1.2353 H   0  0  0  0  0  0  0  0  0  0  0  0
    4.6936   -3.7609    0.0919 H   0  0  0  0  0  0  0  0  0  0  0  0
    8.7082   -1.3245   -2.5288 H   0  0  0  0  0  0  0  0  0  0  0  0
    5.2514    2.3554   -1.9069 H   0  0  0  0  0  0  0  0  0  0  0  0
    7.6767    3.2183   -4.2448 H   0  0  0  0  0  0  0  0  0  0  0  0
    8.1781    4.4222   -1.7546 H   0  0  0  0  0  0  0  0  0  0  0  0
   10.0293    5.4166   -3.3669 H   0  0  0  0  0  0  0  0  0  0  0  0
   11.7676    3.5251   -3.8643 H   0  0  0  0  0  0  0  0  0  0  0  0
   11.0441    1.3519   -2.5384 H   0  0  0  0  0  0  0  0  0  0  0  0
   10.3861    3.2989   -0.8330 H   0  0  0  0  0  0  0  0  0  0  0  0
    9.0567    2.0647   -0.8625 H   0  0  0  0  0  0  0  0  0  0  0  0
    9.2337    1.4598   -4.6222 H   0  0  0  0  0  0  0  0  0  0  0  0
  1  2  2  3
  2  3  1  0
  3  4  2  0
  3  5  1  0
  5  6  2  0
  6  7  1  0
  7  8  2  0
  8  9  1  0
  9 10  2  0
 10 11  1  0
 11 12  2  3
 12 13  1  0
 13 14  3  0
 12 15  1  0
 15 16  3  0
  8 17  1  0
 17 18  1  0
 18 19  1  0
 19 20  2  0
 20 21  1  0
 21 22  1  0
 21 23  1  0
  1 24  1  0
 24 25  2  0
 25 26  1  0
 25 27  1  0
 27 28  1  0
 28 29  1  0
 29 30  2  0
 30 31  1  0
 31 32  1  0
 29 33  1  0
 33 34  2  0
 34 35  1  0
 34 36  1  0
 36 37  1  0
 37 38  1  0
 38 39  2  0
 39 40  1  0
 40 41  1  0
 33 42  1  0
 42 43  2  3
 43 44  1  0
 44 45  2  0
 44 46  1  0
 46 47  2  0
 47 48  1  0
 48 49  2  0
 49 50  1  0
 50 51  2  0
 51 52  1  0
 52 53  2  3
 53 54  1  0
 54 55  3  0
 53 56  1  0
 56 57  3  0
 49 58  1  0
 58 59  1  0
 59 60  1  0
 60 61  2  0
 61 62  1  0
 62 63  1  0
 62 64  1  0
 11  2  1  0
 23 17  1  0
 38 24  1  0
 52 43  1  0
 64 58  1  0
 10  5  1  0
 22 18  1  0
 36 27  2  0
 41 37  2  0
 51 46  1  0
 63 59  1  0
 23  7  1  0
 32 28  2  0
 64 48  1  0
  1 65  1  0
  6 66  1  0
  9 67  1  0
 17 68  1  0
 18 69  1  0
 19 70  1  0
 20 71  1  0
 21 72  1  0
 22 73  1  0
 22 74  1  0
 23 75  1  0
 42 76  1  0
 47 77  1  0
 50 78  1  0
 58 79  1  0
 59 80  1  0
 60 81  1  0
 61 82  1  0
 62 83  1  0
 63 84  1  0
 63 85  1  0
 64 86  1  0
M  END

