
     RDKit          3D

112126  0  0  0  0  0  0  0  0999 V2000
   -3.6103   -4.5148   -1.0844 C   0  0  0  0  0  0  0  0  0  0  0  0
   -4.4188   -3.8909   -1.9596 C   0  0  0  0  0  0  0  0  0  0  0  0
   -4.9918   -2.5337   -1.8516 C   0  0  0  0  0  0  0  0  0  0  0  0
   -4.9436   -1.7710   -0.8511 O   0  0  0  0  0  0  0  0  0  0  0  0
   -5.7359   -2.2248   -3.0529 C   0  0  0  0  0  0  0  0  0  0  0  0
   -6.3976   -1.0169   -3.3966 C   0  0  0  0  0  0  0  0  0  0  0  0
   -6.9968   -1.0424   -4.6505 C   0  0  0  0  0  0  0  0  0  0  0  0
   -6.9352   -2.1781   -5.5148 C   0  0  0  0  0  0  0  0  0  0  0  0
   -6.2889   -3.3445   -5.1888 C   0  0  0  0  0  0  0  0  0  0  0  0
   -5.7106   -3.3585   -3.8928 C   0  0  0  0  0  0  0  0  0  0  0  0
   -5.0059   -4.4735   -3.2241 C   0  0  0  0  0  0  0  0  0  0  0  0
   -5.1542   -5.7871   -3.5630 C   0  0  0  0  0  0  0  0  0  0  0  0
   -4.3508   -6.8720   -3.0451 C   0  0  0  0  0  0  0  0  0  0  0  0
   -3.7333   -7.7509   -2.6300 N   0  0  0  0  0  0  0  0  0  0  0  0
   -6.2940   -6.2106   -4.3668 C   0  0  0  0  0  0  0  0  0  0  0  0
   -7.2125   -6.5594   -4.9863 N   0  0  0  0  0  0  0  0  0  0  0  0
   -7.7309   -1.4512   -6.5646 C   0  0  0  0  0  0  0  0  0  0  0  0
   -6.9839   -0.9360   -7.8244 C   0  0  0  0  0  0  0  0  0  0  0  0
   -5.5586   -0.5994   -7.4795 C   0  0  0  0  0  0  0  0  0  0  0  0
   -5.5939    0.4549   -6.6669 C   0  0  0  0  0  0  0  0  0  0  0  0
   -7.0574    0.8266   -6.5052 C   0  0  0  0  0  0  0  0  0  0  0  0
   -7.5470    0.4653   -7.8990 C   0  0  0  0  0  0  0  0  0  0  0  0
   -7.7971   -0.2829   -5.6774 C   0  0  0  0  0  0  0  0  0  0  0  0
   -3.0035   -4.0104    0.1735 C   0  0  0  0  0  0  0  0  0  0  0  0
   -2.4823   -4.8817    1.1534 C   0  0  0  0  0  0  0  0  0  0  0  0
   -2.8336   -6.2496    1.1701 O   0  0  0  0  0  0  0  0  0  0  0  0
   -1.9826   -7.3418    1.5123 C   0  0  0  0  0  0  0  0  0  0  0  0
   -1.0231   -7.6487    0.3573 C   0  0  0  0  0  0  0  0  0  0  0  0
   -1.6988   -4.2199    2.1073 C   0  0  0  0  0  0  0  0  0  0  0  0
   -0.6585   -4.7317    3.3743 S   0  0  0  0  0  0  0  0  0  0  0  0
   -0.2079   -3.1349    3.7031 C   0  0  0  0  0  0  0  0  0  0  0  0
    0.8106   -2.4745    4.3302 C   0  0  0  0  0  0  0  0  0  0  0  0
    1.8526   -2.9920    5.0830 C   0  0  0  0  0  0  0  0  0  0  0  0
    2.8443   -2.1123    5.5887 C   0  0  0  0  0  0  0  0  0  0  0  0
    3.8356   -2.6792    6.3080 N   0  0  0  0  0  0  0  0  0  0  0  0
    3.3553   -4.2607    6.3282 S   0  0  0  0  0  0  0  0  0  0  0  0
    1.9620   -4.2946    5.4381 N   0  0  0  0  0  0  0  0  0  0  0  0
    2.7373   -0.7473    5.2997 C   0  0  0  0  0  0  0  0  0  0  0  0
    3.5028    0.3017    5.7391 C   0  0  0  0  0  0  0  0  0  0  0  0
    5.2002    0.4749    5.8907 S   0  0  0  0  0  0  0  0  0  0  0  0
    5.1618    2.1114    5.4424 C   0  0  0  0  0  0  0  0  0  0  0  0
    6.1376    3.0234    5.0398 C   0  0  0  0  0  0  0  0  0  0  0  0
    7.5039    2.9456    5.3544 O   0  0  0  0  0  0  0  0  0  0  0  0
    7.9767    2.5449    6.6562 C   0  0  0  0  0  0  0  0  0  0  0  0
    7.3012    3.3726    7.7775 C   0  0  0  0  0  0  0  0  0  0  0  0
    5.5809    4.0990    4.3517 C   0  0  0  0  0  0  0  0  0  0  0  0
    3.9043    3.9962    4.4453 S   0  0  0  0  0  0  0  0  0  0  0  0
    3.8859    2.4942    5.1894 C   0  0  0  0  0  0  0  0  0  0  0  0
    2.9728    1.4359    5.1857 C   0  0  0  0  0  0  0  0  0  0  0  0
    2.0054    1.1346    4.2529 N   0  0  0  0  0  0  0  0  0  0  0  0
    1.7707   -0.2166    4.4150 C   0  0  0  0  0  0  0  0  0  0  0  0
    0.7595   -1.1282    3.8884 C   0  0  0  0  0  0  0  0  0  0  0  0
   -0.2911   -0.9897    2.9917 N   0  0  0  0  0  0  0  0  0  0  0  0
   -0.8090   -2.2460    2.8820 C   0  0  0  0  0  0  0  0  0  0  0  0
   -1.6427   -2.8570    1.9508 C   0  0  0  0  0  0  0  0  0  0  0  0
   -2.4997   -2.4350    0.5478 S   0  0  0  0  0  0  0  0  0  0  0  0
   -0.7774    0.1187    2.1564 C   0  0  0  0  0  0  0  0  0  0  0  0
   -0.0475    0.1575    0.8043 C   0  0  0  0  0  0  0  0  0  0  0  0
    2.0060    1.8233    2.9473 C   0  0  0  0  0  0  0  0  0  0  0  0
    3.1750    1.3624    2.0728 C   0  0  0  0  0  0  0  0  0  0  0  0
    6.1395    4.9504    3.3031 C   0  0  0  0  0  0  0  0  0  0  0  0
    6.6127    4.4630    2.1143 C   0  0  0  0  0  0  0  0  0  0  0  0
    7.1186    3.1094    1.8539 C   0  0  0  0  0  0  0  0  0  0  0  0
    7.0162    2.0913    2.6028 O   0  0  0  0  0  0  0  0  0  0  0  0
    7.6350    3.0481    0.5270 C   0  0  0  0  0  0  0  0  0  0  0  0
    8.0958    1.9259   -0.1499 C   0  0  0  0  0  0  0  0  0  0  0  0
    8.3784    2.0372   -1.5177 C   0  0  0  0  0  0  0  0  0  0  0  0
    8.7944    0.9426   -2.2012 F   0  0  0  0  0  0  0  0  0  0  0  0
    8.1853    3.2596   -2.1865 C   0  0  0  0  0  0  0  0  0  0  0  0
    8.3960    3.3174   -3.5251 F   0  0  0  0  0  0  0  0  0  0  0  0
    7.7143    4.3781   -1.4977 C   0  0  0  0  0  0  0  0  0  0  0  0
    7.4984    4.2889   -0.0981 C   0  0  0  0  0  0  0  0  0  0  0  0
    6.8706    5.2550    0.8501 C   0  0  0  0  0  0  0  0  0  0  0  0
    6.5671    6.5563    0.5904 C   0  0  0  0  0  0  0  0  0  0  0  0
    7.2351    7.3358   -0.4532 C   0  0  0  0  0  0  0  0  0  0  0  0
    7.7502    7.9627   -1.2709 N   0  0  0  0  0  0  0  0  0  0  0  0
    5.5741    7.3095    1.3136 C   0  0  0  0  0  0  0  0  0  0  0  0
    4.7463    7.9579    1.8329 N   0  0  0  0  0  0  0  0  0  0  0  0
   -3.3045   -5.5096   -1.3015 H   0  0  0  0  0  0  0  0  0  0  0  0
   -6.4109   -0.1511   -2.7518 H   0  0  0  0  0  0  0  0  0  0  0  0
   -6.2161   -4.1478   -5.9252 H   0  0  0  0  0  0  0  0  0  0  0  0
   -8.7181   -1.9107   -6.7544 H   0  0  0  0  0  0  0  0  0  0  0  0
   -7.1035   -1.5585   -8.7234 H   0  0  0  0  0  0  0  0  0  0  0  0
   -4.6495   -1.0508   -7.8661 H   0  0  0  0  0  0  0  0  0  0  0  0
   -4.7401    1.0038   -6.3044 H   0  0  0  0  0  0  0  0  0  0  0  0
   -7.2477    1.8677   -6.1812 H   0  0  0  0  0  0  0  0  0  0  0  0
   -8.6601    0.4968   -8.0010 H   0  0  0  0  0  0  0  0  0  0  0  0
   -7.0993    1.0973   -8.6962 H   0  0  0  0  0  0  0  0  0  0  0  0
   -8.8257   -0.0374   -5.3577 H   0  0  0  0  0  0  0  0  0  0  0  0
   -1.4298   -7.1402    2.4558 H   0  0  0  0  0  0  0  0  0  0  0  0
   -2.6118   -8.2420    1.6801 H   0  0  0  0  0  0  0  0  0  0  0  0
   -1.6038   -7.9821   -0.5318 H   0  0  0  0  0  0  0  0  0  0  0  0
   -0.3328   -8.4520    0.6598 H   0  0  0  0  0  0  0  0  0  0  0  0
   -0.4496   -6.7425    0.0886 H   0  0  0  0  0  0  0  0  0  0  0  0
    7.7745    1.4597    6.8034 H   0  0  0  0  0  0  0  0  0  0  0  0
    9.0776    2.6907    6.7267 H   0  0  0  0  0  0  0  0  0  0  0  0
    6.3613    2.8574    8.0961 H   0  0  0  0  0  0  0  0  0  0  0  0
    6.9749    4.3467    7.4080 H   0  0  0  0  0  0  0  0  0  0  0  0
    7.9836    3.4875    8.6430 H   0  0  0  0  0  0  0  0  0  0  0  0
   -0.7926    1.0848    2.7115 H   0  0  0  0  0  0  0  0  0  0  0  0
   -1.8520   -0.0236    1.9356 H   0  0  0  0  0  0  0  0  0  0  0  0
    0.8842   -0.4638    0.8389 H   0  0  0  0  0  0  0  0  0  0  0  0
    0.2303    1.1903    0.4885 H   0  0  0  0  0  0  0  0  0  0  0  0
   -0.6859   -0.2567   -0.0188 H   0  0  0  0  0  0  0  0  0  0  0  0
    2.0317    2.9213    3.0721 H   0  0  0  0  0  0  0  0  0  0  0  0
    1.1047    1.6845    2.4112 H   0  0  0  0  0  0  0  0  0  0  0  0
    4.1362    1.4105    2.6330 H   0  0  0  0  0  0  0  0  0  0  0  0
    3.2637    2.0081    1.1684 H   0  0  0  0  0  0  0  0  0  0  0  0
    3.0106    0.3089    1.7649 H   0  0  0  0  0  0  0  0  0  0  0  0
    5.7136    5.9190    3.3088 H   0  0  0  0  0  0  0  0  0  0  0  0
    8.2048    0.9865    0.3618 H   0  0  0  0  0  0  0  0  0  0  0  0
    7.5276    5.2915   -2.0406 H   0  0  0  0  0  0  0  0  0  0  0  0
  1  2  2  3
  2  3  1  0
  3  4  2  0
  3  5  1  0
  5  6  2  0
  6  7  1  0
  7  8  2  0
  8  9  1  0
  9 10  2  0
 10 11  1  0
 11 12  2  3
 12 13  1  0
 13 14  3  0
 12 15  1  0
 15 16  3  0
  8 17  1  0
 17 18  1  0
 18 19  1  0
 19 20  2  0
 20 21  1  0
 21 22  1  0
 21 23  1  0
  1 24  1  0
 24 25  2  0
 25 26  1  0
 26 27  1  0
 27 28  1  0
 25 29  1  0
 29 30  1  0
 30 31  1  0
 31 32  1  0
 32 33  1  0
 33 34  1  0
 34 35  2  0
 35 36  1  0
 36 37  1  0
 34 38  1  0
 38 39  1  0
 39 40  1  0
 40 41  1  0
 41 42  1  0
 42 43  1  0
 43 44  1  0
 44 45  1  0
 42 46  2  0
 46 47  1  0
 47 48  1  0
 48 49  1  0
 49 50  1  0
 50 51  1  0
 51 52  1  0
 52 53  1  0
 53 54  1  0
 54 55  1  0
 55 56  1  0
 53 57  1  0
 57 58  1  0
 50 59  1  0
 59 60  1  0
 46 61  1  0
 61 62  2  3
 62 63  1  0
 63 64  2  0
 63 65  1  0
 65 66  2  0
 66 67  1  0
 67 68  1  0
 67 69  2  0
 69 70  1  0
 69 71  1  0
 71 72  2  0
 72 73  1  0
 73 74  2  3
 74 75  1  0
 75 76  3  0
 74 77  1  0
 77 78  3  0
 11  2  1  0
 23 17  1  0
 56 24  1  0
 73 62  1  0
 10  5  1  0
 22 18  1  0
 55 29  2  0
 72 65  1  0
 23  7  1  0
 54 31  2  0
 52 32  2  0
 37 33  2  0
 51 38  2  0
 49 39  2  0
 48 41  2  0
  1 79  1  0
  6 80  1  0
  9 81  1  0
 17 82  1  0
 18 83  1  0
 19 84  1  0
 20 85  1  0
 21 86  1  0
 22 87  1  0
 22 88  1  0
 23 89  1  0
 27 90  1  0
 27 91  1  0
 28 92  1  0
 28 93  1  0
 28 94  1  0
 44 95  1  0
 44 96  1  0
 45 97  1  0
 45 98  1  0
 45 99  1  0
 57100  1  0
 57101  1  0
 58102  1  0
 58103  1  0
 58104  1  0
 59105  1  0
 59106  1  0
 60107  1  0
 60108  1  0
 60109  1  0
 61110  1  0
 66111  1  0
 71112  1  0
M  END

