
     RDKit          3D

104116  0  0  0  0  0  0  0  0999 V2000
   -2.3081    2.1612    1.4183 C   0  0  0  0  0  0  0  0  0  0  0  0
   -3.5599    1.6730    1.4879 C   0  0  0  0  0  0  0  0  0  0  0  0
   -4.7385    2.5392    1.5148 C   0  0  0  0  0  0  0  0  0  0  0  0
   -4.7417    3.7735    1.7662 O   0  0  0  0  0  0  0  0  0  0  0  0
   -5.8930    1.7626    1.1149 C   0  0  0  0  0  0  0  0  0  0  0  0
   -7.2049    2.2320    0.8737 C   0  0  0  0  0  0  0  0  0  0  0  0
   -8.0729    1.2568    0.4195 C   0  0  0  0  0  0  0  0  0  0  0  0
   -7.6776   -0.1025    0.2014 C   0  0  0  0  0  0  0  0  0  0  0  0
   -6.3947   -0.5671    0.4337 C   0  0  0  0  0  0  0  0  0  0  0  0
   -5.4897    0.4161    0.9183 C   0  0  0  0  0  0  0  0  0  0  0  0
   -4.0514    0.2761    1.2814 C   0  0  0  0  0  0  0  0  0  0  0  0
   -3.4590   -0.8555    1.7485 C   0  0  0  0  0  0  0  0  0  0  0  0
   -4.1240   -2.1316    1.7547 C   0  0  0  0  0  0  0  0  0  0  0  0
   -4.6487   -3.1631    1.7716 N   0  0  0  0  0  0  0  0  0  0  0  0
   -2.2079   -0.8286    2.4591 C   0  0  0  0  0  0  0  0  0  0  0  0
   -1.2053   -0.8110    3.0367 N   0  0  0  0  0  0  0  0  0  0  0  0
   -9.0651   -0.4537   -0.2418 C   0  0  0  0  0  0  0  0  0  0  0  0
   -9.9603   -1.2626    0.7474 C   0  0  0  0  0  0  0  0  0  0  0  0
   -9.5910   -0.9297    2.1738 C   0  0  0  0  0  0  0  0  0  0  0  0
   -9.9561    0.3350    2.3773 C   0  0  0  0  0  0  0  0  0  0  0  0
  -10.5705    0.8205    1.0848 C   0  0  0  0  0  0  0  0  0  0  0  0
  -11.2453   -0.4650    0.6420 C   0  0  0  0  0  0  0  0  0  0  0  0
   -9.4725    0.9381   -0.0163 C   0  0  0  0  0  0  0  0  0  0  0  0
   -1.1681    1.4462    0.8264 C   0  0  0  0  0  0  0  0  0  0  0  0
    0.4322    1.6464    1.3245 S   0  0  0  0  0  0  0  0  0  0  0  0
    1.0809    0.7314    0.0790 C   0  0  0  0  0  0  0  0  0  0  0  0
    2.4129    0.4332   -0.1717 C   0  0  0  0  0  0  0  0  0  0  0  0
    2.7887   -0.2850   -1.3033 C   0  0  0  0  0  0  0  0  0  0  0  0
    1.7948   -0.6892   -2.2296 C   0  0  0  0  0  0  0  0  0  0  0  0
    1.9786   -1.3498   -3.4555 C   0  0  0  0  0  0  0  0  0  0  0  0
    0.4605   -1.7593   -4.0585 S   0  0  0  0  0  0  0  0  0  0  0  0
   -0.4547   -1.0873   -2.8241 C   0  0  0  0  0  0  0  0  0  0  0  0
   -1.8878   -1.3492   -2.6697 C   0  0  0  0  0  0  0  0  0  0  0  0
   -2.4642   -2.0718   -1.6333 C   0  0  0  0  0  0  0  0  0  0  0  0
   -3.8541   -2.1753   -1.7459 C   0  0  0  0  0  0  0  0  0  0  0  0
   -4.3682   -1.5519   -2.8802 C   0  0  0  0  0  0  0  0  0  0  0  0
   -5.8205   -1.3513   -3.2013 C   0  0  0  0  0  0  0  0  0  0  0  0
   -6.6477   -2.6181   -2.9864 C   0  0  0  0  0  0  0  0  0  0  0  0
   -3.0925   -0.8544   -3.7337 S   0  0  0  0  0  0  0  0  0  0  0  0
    0.4181   -0.4969   -1.9024 C   0  0  0  0  0  0  0  0  0  0  0  0
    0.0705    0.2584   -0.7547 C   0  0  0  0  0  0  0  0  0  0  0  0
   -1.2049    0.6841   -0.3427 C   0  0  0  0  0  0  0  0  0  0  0  0
    3.2058   -1.4814   -4.2587 C   0  0  0  0  0  0  0  0  0  0  0  0
    3.4813   -2.5384   -5.1188 C   0  0  0  0  0  0  0  0  0  0  0  0
    4.6037   -2.3266   -5.9260 C   0  0  0  0  0  0  0  0  0  0  0  0
    5.2092   -1.0940   -5.7109 C   0  0  0  0  0  0  0  0  0  0  0  0
    6.3652   -0.5301   -6.4812 C   0  0  0  0  0  0  0  0  0  0  0  0
    7.5859   -1.4424   -6.4072 C   0  0  0  0  0  0  0  0  0  0  0  0
    4.3286   -0.2575   -4.5470 S   0  0  0  0  0  0  0  0  0  0  0  0
    4.1459   -0.6495   -1.2783 C   0  0  0  0  0  0  0  0  0  0  0  0
    4.8327   -0.1585   -0.1650 C   0  0  0  0  0  0  0  0  0  0  0  0
    3.7348    0.6617    0.8295 S   0  0  0  0  0  0  0  0  0  0  0  0
    6.1527   -0.6665    0.2544 C   0  0  0  0  0  0  0  0  0  0  0  0
    7.0049   -0.0487    1.0982 C   0  0  0  0  0  0  0  0  0  0  0  0
    6.8593    1.2942    1.6687 C   0  0  0  0  0  0  0  0  0  0  0  0
    6.2147    2.2522    1.1653 O   0  0  0  0  0  0  0  0  0  0  0  0
    7.6790    1.3777    2.8617 C   0  0  0  0  0  0  0  0  0  0  0  0
    7.7618    2.4199    3.7907 C   0  0  0  0  0  0  0  0  0  0  0  0
    7.0544    3.6093    3.5613 O   0  0  0  0  0  0  0  0  0  0  0  0
    7.0702    4.7301    4.4383 C   0  0  0  0  0  0  0  0  0  0  0  0
    8.5618    2.2172    4.9360 C   0  0  0  0  0  0  0  0  0  0  0  0
    9.2318    0.9991    5.1300 C   0  0  0  0  0  0  0  0  0  0  0  0
    9.1409   -0.0227    4.1741 C   0  0  0  0  0  0  0  0  0  0  0  0
    8.3805    0.1928    3.0148 C   0  0  0  0  0  0  0  0  0  0  0  0
    8.1243   -0.6970    1.8478 C   0  0  0  0  0  0  0  0  0  0  0  0
    8.8891   -1.7436    1.4409 C   0  0  0  0  0  0  0  0  0  0  0  0
    8.7425   -2.3485    0.1419 C   0  0  0  0  0  0  0  0  0  0  0  0
    8.6416   -2.8391   -0.9035 N   0  0  0  0  0  0  0  0  0  0  0  0
    9.9943   -2.2426    2.2157 C   0  0  0  0  0  0  0  0  0  0  0  0
   10.8851   -2.6573    2.8284 N   0  0  0  0  0  0  0  0  0  0  0  0
   -2.1395    3.1977    1.6712 H   0  0  0  0  0  0  0  0  0  0  0  0
   -7.5075    3.2590    1.0216 H   0  0  0  0  0  0  0  0  0  0  0  0
   -6.1324   -1.5891    0.2247 H   0  0  0  0  0  0  0  0  0  0  0  0
   -9.1284   -0.7731   -1.3062 H   0  0  0  0  0  0  0  0  0  0  0  0
  -10.0561   -2.3464    0.5243 H   0  0  0  0  0  0  0  0  0  0  0  0
   -9.1676   -1.5967    2.9146 H   0  0  0  0  0  0  0  0  0  0  0  0
   -9.8922    0.8691    3.3160 H   0  0  0  0  0  0  0  0  0  0  0  0
  -11.2365    1.7026    1.1853 H   0  0  0  0  0  0  0  0  0  0  0  0
  -11.6585   -0.4178   -0.3952 H   0  0  0  0  0  0  0  0  0  0  0  0
  -12.0432   -0.8074    1.3452 H   0  0  0  0  0  0  0  0  0  0  0  0
   -9.7861    1.4662   -0.9449 H   0  0  0  0  0  0  0  0  0  0  0  0
   -1.9009   -2.4961   -0.8120 H   0  0  0  0  0  0  0  0  0  0  0  0
   -4.4589   -2.6969   -1.0216 H   0  0  0  0  0  0  0  0  0  0  0  0
   -5.9217   -1.0393   -4.2615 H   0  0  0  0  0  0  0  0  0  0  0  0
   -6.2242   -0.5353   -2.5667 H   0  0  0  0  0  0  0  0  0  0  0  0
   -6.6795   -2.8895   -1.9099 H   0  0  0  0  0  0  0  0  0  0  0  0
   -7.6906   -2.4426   -3.3232 H   0  0  0  0  0  0  0  0  0  0  0  0
   -6.2248   -3.4607   -3.5715 H   0  0  0  0  0  0  0  0  0  0  0  0
   -2.1185    0.5231   -0.8927 H   0  0  0  0  0  0  0  0  0  0  0  0
    2.8679   -3.4241   -5.1866 H   0  0  0  0  0  0  0  0  0  0  0  0
    4.9421   -3.0408   -6.6651 H   0  0  0  0  0  0  0  0  0  0  0  0
    6.0652   -0.3969   -7.5433 H   0  0  0  0  0  0  0  0  0  0  0  0
    6.6389    0.4655   -6.0730 H   0  0  0  0  0  0  0  0  0  0  0  0
    8.4381   -0.9699   -6.9367 H   0  0  0  0  0  0  0  0  0  0  0  0
    7.3727   -2.4196   -6.8935 H   0  0  0  0  0  0  0  0  0  0  0  0
    7.8769   -1.6104   -5.3491 H   0  0  0  0  0  0  0  0  0  0  0  0
    4.6033   -1.3350   -1.9774 H   0  0  0  0  0  0  0  0  0  0  0  0
    6.3491   -1.6794   -0.0514 H   0  0  0  0  0  0  0  0  0  0  0  0
    8.1092    5.1040    4.5573 H   0  0  0  0  0  0  0  0  0  0  0  0
    6.6477    4.4496    5.4277 H   0  0  0  0  0  0  0  0  0  0  0  0
    6.4505    5.5393    4.0004 H   0  0  0  0  0  0  0  0  0  0  0  0
    8.6589    2.9839    5.6917 H   0  0  0  0  0  0  0  0  0  0  0  0
    9.8192    0.8458    6.0273 H   0  0  0  0  0  0  0  0  0  0  0  0
    9.6214   -0.9637    4.3800 H   0  0  0  0  0  0  0  0  0  0  0  0
  1  2  2  3
  2  3  1  0
  3  4  2  0
  3  5  1  0
  5  6  2  0
  6  7  1  0
  7  8  2  0
  8  9  1  0
  9 10  2  0
 10 11  1  0
 11 12  2  3
 12 13  1  0
 13 14  3  0
 12 15  1  0
 15 16  3  0
  8 17  1  0
 17 18  1  0
 18 19  1  0
 19 20  2  0
 20 21  1  0
 21 22  1  0
 21 23  1  0
  1 24  1  0
 24 25  1  0
 25 26  1  0
 26 27  1  0
 27 28  2  0
 28 29  1  0
 29 30  2  0
 30 31  1  0
 31 32  1  0
 32 33  1  0
 33 34  2  0
 34 35  1  0
 35 36  2  0
 36 37  1  0
 37 38  1  0
 36 39  1  0
 32 40  2  0
 40 41  1  0
 41 42  1  0
 30 43  1  0
 43 44  2  0
 44 45  1  0
 45 46  2  0
 46 47  1  0
 47 48  1  0
 46 49  1  0
 28 50  1  0
 50 51  2  0
 51 52  1  0
 51 53  1  0
 53 54  2  3
 54 55  1  0
 55 56  2  0
 55 57  1  0
 57 58  2  0
 58 59  1  0
 59 60  1  0
 58 61  1  0
 61 62  2  0
 62 63  1  0
 63 64  2  0
 64 65  1  0
 65 66  2  3
 66 67  1  0
 67 68  3  0
 66 69  1  0
 69 70  3  0
 11  2  1  0
 23 17  1  0
 42 24  2  0
 49 43  1  0
 65 54  1  0
 10  5  1  0
 22 18  1  0
 41 26  2  0
 64 57  1  0
 23  7  1  0
 52 27  1  0
 40 29  1  0
 39 33  1  0
  1 71  1  0
  6 72  1  0
  9 73  1  0
 17 74  1  0
 18 75  1  0
 19 76  1  0
 20 77  1  0
 21 78  1  0
 22 79  1  0
 22 80  1  0
 23 81  1  0
 34 82  1  0
 35 83  1  0
 37 84  1  0
 37 85  1  0
 38 86  1  0
 38 87  1  0
 38 88  1  0
 42 89  1  0
 44 90  1  0
 45 91  1  0
 47 92  1  0
 47 93  1  0
 48 94  1  0
 48 95  1  0
 48 96  1  0
 50 97  1  0
 53 98  1  0
 60 99  1  0
 60100  1  0
 60101  1  0
 61102  1  0
 62103  1  0
 63104  1  0
M  END

