
     RDKit          3D

100112  0  0  0  0  0  0  0  0999 V2000
   -4.3434    1.0579    2.5665 C   0  0  0  0  0  0  0  0  0  0  0  0
   -5.4079    1.3159    1.7813 C   0  0  0  0  0  0  0  0  0  0  0  0
   -5.3634    1.8160    0.4007 C   0  0  0  0  0  0  0  0  0  0  0  0
   -4.3291    1.9965   -0.3013 O   0  0  0  0  0  0  0  0  0  0  0  0
   -6.7065    2.1144   -0.0415 C   0  0  0  0  0  0  0  0  0  0  0  0
   -7.0770    2.6955   -1.2755 C   0  0  0  0  0  0  0  0  0  0  0  0
   -8.4063    3.0623   -1.3506 C   0  0  0  0  0  0  0  0  0  0  0  0
   -9.3364    2.8299   -0.2890 C   0  0  0  0  0  0  0  0  0  0  0  0
   -8.9988    2.2033    0.9005 C   0  0  0  0  0  0  0  0  0  0  0  0
   -7.6172    1.8312    1.0060 C   0  0  0  0  0  0  0  0  0  0  0  0
   -6.8668    1.2745    2.1790 C   0  0  0  0  0  0  0  0  0  0  0  0
   -7.4063    0.8833    3.3705 C   0  0  0  0  0  0  0  0  0  0  0  0
   -6.6387    0.6060    4.5533 C   0  0  0  0  0  0  0  0  0  0  0  0
   -6.0331    0.4173    5.5177 N   0  0  0  0  0  0  0  0  0  0  0  0
   -8.8268    0.8277    3.6084 C   0  0  0  0  0  0  0  0  0  0  0  0
   -9.9677    0.8073    3.8417 N   0  0  0  0  0  0  0  0  0  0  0  0
  -10.4239    3.5238   -1.0534 C   0  0  0  0  0  0  0  0  0  0  0  0
  -11.5494    2.6533   -1.6990 C   0  0  0  0  0  0  0  0  0  0  0  0
  -10.9988    1.2934   -2.0509 C   0  0  0  0  0  0  0  0  0  0  0  0
  -10.1264    1.4835   -3.0507 C   0  0  0  0  0  0  0  0  0  0  0  0
  -10.1153    2.9651   -3.3463 C   0  0  0  0  0  0  0  0  0  0  0  0
  -11.5825    3.2678   -3.0887 C   0  0  0  0  0  0  0  0  0  0  0  0
   -9.4726    3.7463   -2.1559 C   0  0  0  0  0  0  0  0  0  0  0  0
   -2.9276    1.3465    2.2479 C   0  0  0  0  0  0  0  0  0  0  0  0
   -2.2099    2.1280    3.1861 C   0  0  0  0  0  0  0  0  0  0  0  0
   -0.8094    2.2122    3.1516 C   0  0  0  0  0  0  0  0  0  0  0  0
   -0.1360    1.4948    2.1654 C   0  0  0  0  0  0  0  0  0  0  0  0
    1.2051    1.3402    2.0352 N   0  0  0  0  0  0  0  0  0  0  0  0
    2.2556    1.8985    2.9001 C   0  0  0  0  0  0  0  0  0  0  0  0
    2.5491    0.9520    4.0678 C   0  0  0  0  0  0  0  0  0  0  0  0
    1.3623    0.4884    0.9936 C   0  0  0  0  0  0  0  0  0  0  0  0
    0.1324    0.1492    0.4286 C   0  0  0  0  0  0  0  0  0  0  0  0
   -0.8286    0.7699    1.2075 C   0  0  0  0  0  0  0  0  0  0  0  0
   -2.2243    0.6556    1.2335 C   0  0  0  0  0  0  0  0  0  0  0  0
    0.0350   -0.6677   -0.7106 C   0  0  0  0  0  0  0  0  0  0  0  0
    1.2522   -1.1576   -1.2292 C   0  0  0  0  0  0  0  0  0  0  0  0
    2.4645   -0.8840   -0.6043 C   0  0  0  0  0  0  0  0  0  0  0  0
    2.5663   -0.0383    0.5064 C   0  0  0  0  0  0  0  0  0  0  0  0
    3.4371   -1.4989   -1.3562 C   0  0  0  0  0  0  0  0  0  0  0  0
    4.8061   -1.6176   -1.1518 C   0  0  0  0  0  0  0  0  0  0  0  0
    5.5647   -2.3337   -2.1044 C   0  0  0  0  0  0  0  0  0  0  0  0
    4.9145   -2.9019   -3.2315 C   0  0  0  0  0  0  0  0  0  0  0  0
    3.5200   -2.7820   -3.4037 C   0  0  0  0  0  0  0  0  0  0  0  0
    2.7986   -2.0827   -2.4285 C   0  0  0  0  0  0  0  0  0  0  0  0
    1.4535   -1.8836   -2.3619 N   0  0  0  0  0  0  0  0  0  0  0  0
    0.4602   -2.2403   -3.3799 C   0  0  0  0  0  0  0  0  0  0  0  0
    0.4447   -1.1730   -4.4650 C   0  0  0  0  0  0  0  0  0  0  0  0
    6.9919   -2.6539   -1.8515 C   0  0  0  0  0  0  0  0  0  0  0  0
    7.8813   -1.7993   -1.2993 C   0  0  0  0  0  0  0  0  0  0  0  0
    7.7222   -0.3405   -1.2250 C   0  0  0  0  0  0  0  0  0  0  0  0
    6.8195    0.3344   -1.7843 O   0  0  0  0  0  0  0  0  0  0  0  0
    8.8309    0.2220   -0.4901 C   0  0  0  0  0  0  0  0  0  0  0  0
    9.0062    1.5500   -0.0743 C   0  0  0  0  0  0  0  0  0  0  0  0
   10.0861    1.8230    0.7697 C   0  0  0  0  0  0  0  0  0  0  0  0
   10.3920    3.0630    1.3415 C   0  0  0  0  0  0  0  0  0  0  0  0
   11.4975    3.0108    2.1922 C   0  0  0  0  0  0  0  0  0  0  0  0
   12.0753    1.4169    2.2437 S   0  0  0  0  0  0  0  0  0  0  0  0
   10.9394    0.7970    1.1724 C   0  0  0  0  0  0  0  0  0  0  0  0
   10.7734   -0.5282    0.7546 C   0  0  0  0  0  0  0  0  0  0  0  0
    9.7102   -0.8000   -0.1362 C   0  0  0  0  0  0  0  0  0  0  0  0
    9.2230   -2.1016   -0.6819 C   0  0  0  0  0  0  0  0  0  0  0  0
    9.8765   -3.2956   -0.6210 C   0  0  0  0  0  0  0  0  0  0  0  0
    9.2850   -4.5492   -0.9997 C   0  0  0  0  0  0  0  0  0  0  0  0
    8.8249   -5.5702   -1.3063 N   0  0  0  0  0  0  0  0  0  0  0  0
   11.2508   -3.3995   -0.2036 C   0  0  0  0  0  0  0  0  0  0  0  0
   12.3555   -3.4939    0.1247 N   0  0  0  0  0  0  0  0  0  0  0  0
   -4.4620    0.7755    3.5922 H   0  0  0  0  0  0  0  0  0  0  0  0
   -6.3673    2.9146   -2.0705 H   0  0  0  0  0  0  0  0  0  0  0  0
   -9.7364    2.1022    1.6687 H   0  0  0  0  0  0  0  0  0  0  0  0
  -10.7832    4.4595   -0.5576 H   0  0  0  0  0  0  0  0  0  0  0  0
  -12.5101    2.6418   -1.1419 H   0  0  0  0  0  0  0  0  0  0  0  0
  -11.2849    0.3398   -1.6141 H   0  0  0  0  0  0  0  0  0  0  0  0
   -9.5972    0.7015   -3.5865 H   0  0  0  0  0  0  0  0  0  0  0  0
   -9.7338    3.2529   -4.3553 H   0  0  0  0  0  0  0  0  0  0  0  0
  -12.2789    2.7347   -3.7789 H   0  0  0  0  0  0  0  0  0  0  0  0
  -11.8182    4.3608   -3.0943 H   0  0  0  0  0  0  0  0  0  0  0  0
   -9.2715    4.8218   -2.3568 H   0  0  0  0  0  0  0  0  0  0  0  0
   -2.7343    2.6271    3.9890 H   0  0  0  0  0  0  0  0  0  0  0  0
   -0.2798    2.7726    3.9162 H   0  0  0  0  0  0  0  0  0  0  0  0
    1.9433    2.8968    3.2906 H   0  0  0  0  0  0  0  0  0  0  0  0
    3.1832    2.0709    2.3079 H   0  0  0  0  0  0  0  0  0  0  0  0
    3.1856    0.1066    3.7214 H   0  0  0  0  0  0  0  0  0  0  0  0
    1.6045    0.5497    4.4995 H   0  0  0  0  0  0  0  0  0  0  0  0
    3.0905    1.4986    4.8667 H   0  0  0  0  0  0  0  0  0  0  0  0
   -2.7330   -0.0065    0.5513 H   0  0  0  0  0  0  0  0  0  0  0  0
   -0.9285   -0.8642   -1.1671 H   0  0  0  0  0  0  0  0  0  0  0  0
    3.5166    0.1922    0.9617 H   0  0  0  0  0  0  0  0  0  0  0  0
    5.2664   -1.2264   -0.2496 H   0  0  0  0  0  0  0  0  0  0  0  0
    5.4821   -3.4726   -3.9592 H   0  0  0  0  0  0  0  0  0  0  0  0
    3.0298   -3.2384   -4.2538 H   0  0  0  0  0  0  0  0  0  0  0  0
   -0.5565   -2.3215   -2.9324 H   0  0  0  0  0  0  0  0  0  0  0  0
    0.6980   -3.2360   -3.8244 H   0  0  0  0  0  0  0  0  0  0  0  0
   -0.3448   -1.3944   -5.2059 H   0  0  0  0  0  0  0  0  0  0  0  0
    1.4176   -1.1464   -4.9917 H   0  0  0  0  0  0  0  0  0  0  0  0
    0.2531   -0.1716   -4.0293 H   0  0  0  0  0  0  0  0  0  0  0  0
    7.2628   -3.6714   -2.0798 H   0  0  0  0  0  0  0  0  0  0  0  0
    8.2986    2.3195   -0.3584 H   0  0  0  0  0  0  0  0  0  0  0  0
    9.8151    3.9632    1.1681 H   0  0  0  0  0  0  0  0  0  0  0  0
   11.8799    3.8544    2.7538 H   0  0  0  0  0  0  0  0  0  0  0  0
   11.4227   -1.2874    1.1569 H   0  0  0  0  0  0  0  0  0  0  0  0
  1  2  2  3
  2  3  1  0
  3  4  2  0
  3  5  1  0
  5  6  2  0
  6  7  1  0
  7  8  2  0
  8  9  1  0
  9 10  2  0
 10 11  1  0
 11 12  2  3
 12 13  1  0
 13 14  3  0
 12 15  1  0
 15 16  3  0
  8 17  1  0
 17 18  1  0
 18 19  1  0
 19 20  2  0
 20 21  1  0
 21 22  1  0
 21 23  1  0
  1 24  1  0
 24 25  2  0
 25 26  1  0
 26 27  2  0
 27 28  1  0
 28 29  1  0
 29 30  1  0
 28 31  1  0
 31 32  2  0
 32 33  1  0
 33 34  2  0
 32 35  1  0
 35 36  2  0
 36 37  1  0
 37 38  2  0
 37 39  1  0
 39 40  2  0
 40 41  1  0
 41 42  2  0
 42 43  1  0
 43 44  2  0
 44 45  1  0
 45 46  1  0
 46 47  1  0
 41 48  1  0
 48 49  2  3
 49 50  1  0
 50 51  2  0
 50 52  1  0
 52 53  2  0
 53 54  1  0
 54 55  1  0
 55 56  2  0
 56 57  1  0
 57 58  1  0
 58 59  1  0
 59 60  2  0
 60 61  1  0
 61 62  2  3
 62 63  1  0
 63 64  3  0
 62 65  1  0
 65 66  3  0
 11  2  1  0
 23 17  1  0
 34 24  1  0
 45 36  1  0
 61 49  1  0
 10  5  1  0
 22 18  1  0
 33 27  1  0
 44 39  1  0
 60 52  1  0
 23  7  1  0
 38 31  1  0
 58 54  2  0
  1 67  1  0
  6 68  1  0
  9 69  1  0
 17 70  1  0
 18 71  1  0
 19 72  1  0
 20 73  1  0
 21 74  1  0
 22 75  1  0
 22 76  1  0
 23 77  1  0
 25 78  1  0
 26 79  1  0
 29 80  1  0
 29 81  1  0
 30 82  1  0
 30 83  1  0
 30 84  1  0
 34 85  1  0
 35 86  1  0
 38 87  1  0
 40 88  1  0
 42 89  1  0
 43 90  1  0
 46 91  1  0
 46 92  1  0
 47 93  1  0
 47 94  1  0
 47 95  1  0
 48 96  1  0
 53 97  1  0
 55 98  1  0
 56 99  1  0
 59100  1  0
M  END

