
     RDKit          3D

108122  0  0  0  0  0  0  0  0999 V2000
    3.8282    5.0666    2.0593 C   0  0  0  0  0  0  0  0  0  0  0  0
    3.0062    5.7577    1.2435 C   0  0  0  0  0  0  0  0  0  0  0  0
    1.7631    5.2587    0.6334 C   0  0  0  0  0  0  0  0  0  0  0  0
    1.4272    4.0540    0.4750 O   0  0  0  0  0  0  0  0  0  0  0  0
    0.9314    6.3887    0.2814 C   0  0  0  0  0  0  0  0  0  0  0  0
   -0.3951    6.3442   -0.2077 C   0  0  0  0  0  0  0  0  0  0  0  0
   -0.9934    7.5844   -0.3147 C   0  0  0  0  0  0  0  0  0  0  0  0
   -0.3333    8.8043    0.0470 C   0  0  0  0  0  0  0  0  0  0  0  0
    0.9672    8.8551    0.5223 C   0  0  0  0  0  0  0  0  0  0  0  0
    1.6124    7.5873    0.6121 C   0  0  0  0  0  0  0  0  0  0  0  0
    2.9779    7.2467    1.0992 C   0  0  0  0  0  0  0  0  0  0  0  0
    4.0442    8.0881    1.1708 C   0  0  0  0  0  0  0  0  0  0  0  0
    3.9529    9.4891    0.8568 C   0  0  0  0  0  0  0  0  0  0  0  0
    3.8965   10.6179    0.6014 N   0  0  0  0  0  0  0  0  0  0  0  0
    5.3762    7.6065    1.4294 C   0  0  0  0  0  0  0  0  0  0  0  0
    6.4459    7.2153    1.6389 N   0  0  0  0  0  0  0  0  0  0  0  0
   -1.5592    9.5911   -0.3065 C   0  0  0  0  0  0  0  0  0  0  0  0
   -1.5069   10.3929   -1.6388 C   0  0  0  0  0  0  0  0  0  0  0  0
   -2.9364   10.7529   -1.9609 C   0  0  0  0  0  0  0  0  0  0  0  0
   -3.5484    9.6122   -2.3086 C   0  0  0  0  0  0  0  0  0  0  0  0
   -2.5091    8.5227   -2.2042 C   0  0  0  0  0  0  0  0  0  0  0  0
   -1.3013    9.3093   -2.6838 C   0  0  0  0  0  0  0  0  0  0  0  0
   -2.2307    8.3434   -0.6834 C   0  0  0  0  0  0  0  0  0  0  0  0
    3.7610    3.6168    2.3073 C   0  0  0  0  0  0  0  0  0  0  0  0
    3.8223    3.0435    3.5807 C   0  0  0  0  0  0  0  0  0  0  0  0
    3.8552    3.8185    4.7473 O   0  0  0  0  0  0  0  0  0  0  0  0
    4.5463    3.4515    5.9431 C   0  0  0  0  0  0  0  0  0  0  0  0
    6.0469    3.3695    5.6881 C   0  0  0  0  0  0  0  0  0  0  0  0
    3.7788    1.6463    3.5190 C   0  0  0  0  0  0  0  0  0  0  0  0
    3.3906    0.4648    4.6724 S   0  0  0  0  0  0  0  0  0  0  0  0
    3.2215   -0.7288    3.4794 C   0  0  0  0  0  0  0  0  0  0  0  0
    2.4059   -1.8190    3.3687 C   0  0  0  0  0  0  0  0  0  0  0  0
    1.5635   -2.3763    4.3408 C   0  0  0  0  0  0  0  0  0  0  0  0
    0.4757   -3.1914    3.9228 C   0  0  0  0  0  0  0  0  0  0  0  0
   -0.3400   -3.6808    4.8891 N   0  0  0  0  0  0  0  0  0  0  0  0
    0.3832   -3.0172    6.2225 S   0  0  0  0  0  0  0  0  0  0  0  0
    1.6748   -2.1394    5.6702 N   0  0  0  0  0  0  0  0  0  0  0  0
    0.3210   -3.4455    2.5616 C   0  0  0  0  0  0  0  0  0  0  0  0
   -0.5653   -4.2348    1.8976 C   0  0  0  0  0  0  0  0  0  0  0  0
   -1.8856   -5.2390    2.2345 S   0  0  0  0  0  0  0  0  0  0  0  0
   -1.9359   -5.7662    0.6096 C   0  0  0  0  0  0  0  0  0  0  0  0
   -2.7159   -6.6876   -0.1007 C   0  0  0  0  0  0  0  0  0  0  0  0
   -3.8448   -7.3759    0.3676 O   0  0  0  0  0  0  0  0  0  0  0  0
   -4.6572   -6.9811    1.4760 C   0  0  0  0  0  0  0  0  0  0  0  0
   -5.3343   -5.6378    1.2121 C   0  0  0  0  0  0  0  0  0  0  0  0
   -2.2216   -6.8677   -1.3978 C   0  0  0  0  0  0  0  0  0  0  0  0
   -0.8963   -5.8328   -1.6821 S   0  0  0  0  0  0  0  0  0  0  0  0
   -0.9169   -5.2039   -0.1265 C   0  0  0  0  0  0  0  0  0  0  0  0
   -0.1554   -4.3056    0.6123 C   0  0  0  0  0  0  0  0  0  0  0  0
    0.9725   -3.5860    0.3752 N   0  0  0  0  0  0  0  0  0  0  0  0
    1.2168   -2.9715    1.5874 C   0  0  0  0  0  0  0  0  0  0  0  0
    2.2087   -2.0271    1.9887 C   0  0  0  0  0  0  0  0  0  0  0  0
    2.7966   -1.0071    1.2730 N   0  0  0  0  0  0  0  0  0  0  0  0
    3.3996   -0.2381    2.2202 C   0  0  0  0  0  0  0  0  0  0  0  0
    3.7136    1.1260    2.2456 C   0  0  0  0  0  0  0  0  0  0  0  0
    3.7083    2.3837    1.1292 S   0  0  0  0  0  0  0  0  0  0  0  0
    2.4888   -0.5473   -0.0863 C   0  0  0  0  0  0  0  0  0  0  0  0
    1.0513   -0.0467   -0.1930 C   0  0  0  0  0  0  0  0  0  0  0  0
    1.8674   -3.8297   -0.7683 C   0  0  0  0  0  0  0  0  0  0  0  0
    3.3104   -4.0882   -0.3336 C   0  0  0  0  0  0  0  0  0  0  0  0
   -2.7909   -7.7983   -2.3805 C   0  0  0  0  0  0  0  0  0  0  0  0
   -2.1142   -8.8482   -2.8649 C   0  0  0  0  0  0  0  0  0  0  0  0
   -0.7584   -9.3138   -2.5212 C   0  0  0  0  0  0  0  0  0  0  0  0
    0.0489   -8.7598   -1.7292 O   0  0  0  0  0  0  0  0  0  0  0  0
   -0.5216  -10.5760   -3.2137 C   0  0  0  0  0  0  0  0  0  0  0  0
    0.5951  -11.4120   -3.1762 C   0  0  0  0  0  0  0  0  0  0  0  0
    0.5538  -12.6088   -3.9120 C   0  0  0  0  0  0  0  0  0  0  0  0
   -0.5930  -12.9480   -4.6600 C   0  0  0  0  0  0  0  0  0  0  0  0
   -1.7081  -12.0918   -4.6827 C   0  0  0  0  0  0  0  0  0  0  0  0
   -1.6424  -10.9060   -3.9502 C   0  0  0  0  0  0  0  0  0  0  0  0
   -2.6543   -9.8675   -3.7707 C   0  0  0  0  0  0  0  0  0  0  0  0
   -3.8019   -9.8628   -4.2885 O   0  0  0  0  0  0  0  0  0  0  0  0
    4.5072    5.6075    2.6993 H   0  0  0  0  0  0  0  0  0  0  0  0
   -0.9106    5.4249   -0.4488 H   0  0  0  0  0  0  0  0  0  0  0  0
    1.4081    9.7907    0.8278 H   0  0  0  0  0  0  0  0  0  0  0  0
   -2.0123   10.1221    0.5609 H   0  0  0  0  0  0  0  0  0  0  0  0
   -0.7837   11.2347   -1.6683 H   0  0  0  0  0  0  0  0  0  0  0  0
   -3.3709   11.7447   -2.0073 H   0  0  0  0  0  0  0  0  0  0  0  0
   -4.5634    9.5182   -2.6787 H   0  0  0  0  0  0  0  0  0  0  0  0
   -2.7335    7.5910   -2.7661 H   0  0  0  0  0  0  0  0  0  0  0  0
   -0.3366    8.7640   -2.5943 H   0  0  0  0  0  0  0  0  0  0  0  0
   -1.4004    9.6775   -3.7340 H   0  0  0  0  0  0  0  0  0  0  0  0
   -3.1126    8.0847   -0.0580 H   0  0  0  0  0  0  0  0  0  0  0  0
    4.3554    4.2336    6.7080 H   0  0  0  0  0  0  0  0  0  0  0  0
    4.1702    2.4901    6.3475 H   0  0  0  0  0  0  0  0  0  0  0  0
    6.4094    4.3343    5.2725 H   0  0  0  0  0  0  0  0  0  0  0  0
    6.5791    3.1605    6.6386 H   0  0  0  0  0  0  0  0  0  0  0  0
    6.2750    2.5561    4.9659 H   0  0  0  0  0  0  0  0  0  0  0  0
   -5.4478   -7.7472    1.6152 H   0  0  0  0  0  0  0  0  0  0  0  0
   -4.0621   -6.9540    2.4092 H   0  0  0  0  0  0  0  0  0  0  0  0
   -6.0820   -5.4353    2.0078 H   0  0  0  0  0  0  0  0  0  0  0  0
   -4.5940   -4.8176    1.2123 H   0  0  0  0  0  0  0  0  0  0  0  0
   -5.8561   -5.6571    0.2334 H   0  0  0  0  0  0  0  0  0  0  0  0
    3.1790    0.2602   -0.3862 H   0  0  0  0  0  0  0  0  0  0  0  0
    2.6999   -1.3279   -0.8195 H   0  0  0  0  0  0  0  0  0  0  0  0
    0.8561    0.7221    0.5832 H   0  0  0  0  0  0  0  0  0  0  0  0
    0.3349   -0.8844   -0.0635 H   0  0  0  0  0  0  0  0  0  0  0  0
    0.8878    0.4019   -1.1948 H   0  0  0  0  0  0  0  0  0  0  0  0
    1.5542   -4.7475   -1.3023 H   0  0  0  0  0  0  0  0  0  0  0  0
    1.7702   -3.0313   -1.5266 H   0  0  0  0  0  0  0  0  0  0  0  0
    3.3353   -4.8904    0.4339 H   0  0  0  0  0  0  0  0  0  0  0  0
    3.9070   -4.4235   -1.2078 H   0  0  0  0  0  0  0  0  0  0  0  0
    3.7908   -3.1814    0.0805 H   0  0  0  0  0  0  0  0  0  0  0  0
   -3.8335   -7.6776   -2.6433 H   0  0  0  0  0  0  0  0  0  0  0  0
    1.4668  -11.1529   -2.5919 H   0  0  0  0  0  0  0  0  0  0  0  0
    1.4033  -13.2798   -3.8982 H   0  0  0  0  0  0  0  0  0  0  0  0
   -0.6187  -13.8785   -5.2127 H   0  0  0  0  0  0  0  0  0  0  0  0
   -2.5949  -12.3503   -5.2477 H   0  0  0  0  0  0  0  0  0  0  0  0
  1  2  2  3
  2  3  1  0
  3  4  2  0
  3  5  1  0
  5  6  2  0
  6  7  1  0
  7  8  2  0
  8  9  1  0
  9 10  2  0
 10 11  1  0
 11 12  2  3
 12 13  1  0
 13 14  3  0
 12 15  1  0
 15 16  3  0
  8 17  1  0
 17 18  1  0
 18 19  1  0
 19 20  2  0
 20 21  1  0
 21 22  1  0
 21 23  1  0
  1 24  1  0
 24 25  2  0
 25 26  1  0
 26 27  1  0
 27 28  1  0
 25 29  1  0
 29 30  1  0
 30 31  1  0
 31 32  1  0
 32 33  1  0
 33 34  1  0
 34 35  2  0
 35 36  1  0
 36 37  1  0
 34 38  1  0
 38 39  1  0
 39 40  1  0
 40 41  1  0
 41 42  1  0
 42 43  1  0
 43 44  1  0
 44 45  1  0
 42 46  2  0
 46 47  1  0
 47 48  1  0
 48 49  1  0
 49 50  1  0
 50 51  1  0
 51 52  1  0
 52 53  1  0
 53 54  1  0
 54 55  1  0
 55 56  1  0
 53 57  1  0
 57 58  1  0
 50 59  1  0
 59 60  1  0
 46 61  1  0
 61 62  2  3
 62 63  1  0
 63 64  2  0
 63 65  1  0
 65 66  2  0
 66 67  1  0
 67 68  2  0
 68 69  1  0
 69 70  2  0
 70 71  1  0
 71 72  2  0
 11  2  1  0
 23 17  1  0
 56 24  1  0
 71 62  1  0
 10  5  1  0
 22 18  1  0
 55 29  2  0
 70 65  1  0
 23  7  1  0
 54 31  2  0
 52 32  2  0
 37 33  2  0
 51 38  2  0
 49 39  2  0
 48 41  2  0
  1 73  1  0
  6 74  1  0
  9 75  1  0
 17 76  1  0
 18 77  1  0
 19 78  1  0
 20 79  1  0
 21 80  1  0
 22 81  1  0
 22 82  1  0
 23 83  1  0
 27 84  1  0
 27 85  1  0
 28 86  1  0
 28 87  1  0
 28 88  1  0
 44 89  1  0
 44 90  1  0
 45 91  1  0
 45 92  1  0
 45 93  1  0
 57 94  1  0
 57 95  1  0
 58 96  1  0
 58 97  1  0
 58 98  1  0
 59 99  1  0
 59100  1  0
 60101  1  0
 60102  1  0
 60103  1  0
 61104  1  0
 66105  1  0
 67106  1  0
 68107  1  0
 69108  1  0
M  END

