
     RDKit          3D

113126  0  0  0  0  0  0  0  0999 V2000
   -5.9121    0.7935    2.1476 C   0  0  0  0  0  0  0  0  0  0  0  0
   -5.3854    2.0327    2.2242 C   0  0  0  0  0  0  0  0  0  0  0  0
   -3.9610    2.3325    2.4307 C   0  0  0  0  0  0  0  0  0  0  0  0
   -3.1292    1.6233    3.0605 O   0  0  0  0  0  0  0  0  0  0  0  0
   -3.6514    3.5884    1.7895 C   0  0  0  0  0  0  0  0  0  0  0  0
   -2.3639    4.1194    1.5512 C   0  0  0  0  0  0  0  0  0  0  0  0
   -2.3571    5.1952    0.6855 C   0  0  0  0  0  0  0  0  0  0  0  0
   -3.5430    5.7214    0.0776 C   0  0  0  0  0  0  0  0  0  0  0  0
   -4.8110    5.2183    0.3254 C   0  0  0  0  0  0  0  0  0  0  0  0
   -4.8426    4.1295    1.2426 C   0  0  0  0  0  0  0  0  0  0  0  0
   -5.9885    3.2630    1.6312 C   0  0  0  0  0  0  0  0  0  0  0  0
   -7.3032    3.5968    1.6019 C   0  0  0  0  0  0  0  0  0  0  0  0
   -8.3178    2.7463    2.1693 C   0  0  0  0  0  0  0  0  0  0  0  0
   -9.1443    2.0746    2.6249 N   0  0  0  0  0  0  0  0  0  0  0  0
   -7.7556    4.8970    1.1787 C   0  0  0  0  0  0  0  0  0  0  0  0
   -8.1310    5.9422    0.8571 N   0  0  0  0  0  0  0  0  0  0  0  0
   -2.7211    6.6776   -0.7334 C   0  0  0  0  0  0  0  0  0  0  0  0
   -2.5207    6.3182   -2.2374 C   0  0  0  0  0  0  0  0  0  0  0  0
   -1.3765    7.1779   -2.7191 C   0  0  0  0  0  0  0  0  0  0  0  0
   -0.2704    6.7008   -2.1341 C   0  0  0  0  0  0  0  0  0  0  0  0
   -0.7061    5.5351   -1.2806 C   0  0  0  0  0  0  0  0  0  0  0  0
   -1.7960    4.9822   -2.1830 C   0  0  0  0  0  0  0  0  0  0  0  0
   -1.5098    6.1497   -0.0958 C   0  0  0  0  0  0  0  0  0  0  0  0
   -5.0549   -0.3930    2.0679 C   0  0  0  0  0  0  0  0  0  0  0  0
   -4.3530   -0.9891    3.1246 C   0  0  0  0  0  0  0  0  0  0  0  0
   -3.3871   -1.8658    2.6296 C   0  0  0  0  0  0  0  0  0  0  0  0
   -2.0816   -2.6555    3.3386 S   0  0  0  0  0  0  0  0  0  0  0  0
   -1.4016   -3.1221    1.8414 C   0  0  0  0  0  0  0  0  0  0  0  0
   -0.1594   -3.7442    1.6174 C   0  0  0  0  0  0  0  0  0  0  0  0
    0.6827   -4.1774    2.7423 C   0  0  0  0  0  0  0  0  0  0  0  0
    1.0674   -5.4867    3.0108 C   0  0  0  0  0  0  0  0  0  0  0  0
    1.8737   -5.6004    4.1489 C   0  0  0  0  0  0  0  0  0  0  0  0
    2.1331   -4.3811    4.7618 C   0  0  0  0  0  0  0  0  0  0  0  0
    2.8874   -4.1868    6.0387 C   0  0  0  0  0  0  0  0  0  0  0  0
    1.9521   -4.3122    7.2359 C   0  0  0  0  0  0  0  0  0  0  0  0
    1.3362   -3.1625    3.9164 S   0  0  0  0  0  0  0  0  0  0  0  0
    0.2483   -3.8863    0.2737 C   0  0  0  0  0  0  0  0  0  0  0  0
   -0.5715   -3.4423   -0.7833 C   0  0  0  0  0  0  0  0  0  0  0  0
   -1.8095   -2.8230   -0.5611 C   0  0  0  0  0  0  0  0  0  0  0  0
   -2.5711   -2.2498   -1.6804 C   0  0  0  0  0  0  0  0  0  0  0  0
   -3.7919   -2.7101   -2.1616 C   0  0  0  0  0  0  0  0  0  0  0  0
   -4.3006   -1.9246   -3.2040 C   0  0  0  0  0  0  0  0  0  0  0  0
   -3.4821   -0.8467   -3.5263 C   0  0  0  0  0  0  0  0  0  0  0  0
   -3.7298    0.1519   -4.6121 C   0  0  0  0  0  0  0  0  0  0  0  0
   -3.2473   -0.3828   -5.9562 C   0  0  0  0  0  0  0  0  0  0  0  0
   -2.1180   -0.8787   -2.5446 S   0  0  0  0  0  0  0  0  0  0  0  0
   -2.2112   -2.6662    0.7807 C   0  0  0  0  0  0  0  0  0  0  0  0
   -3.3172   -1.9665    1.2717 C   0  0  0  0  0  0  0  0  0  0  0  0
   -4.4626   -0.9585    0.5814 S   0  0  0  0  0  0  0  0  0  0  0  0
    0.2228   -3.6301   -2.2815 S   0  0  0  0  0  0  0  0  0  0  0  0
    1.6141   -4.2505   -1.5789 C   0  0  0  0  0  0  0  0  0  0  0  0
    2.8783   -4.5230   -2.0860 C   0  0  0  0  0  0  0  0  0  0  0  0
    3.7898   -4.7912   -1.0522 C   0  0  0  0  0  0  0  0  0  0  0  0
    2.9652   -4.7321    0.4453 S   0  0  0  0  0  0  0  0  0  0  0  0
    1.4825   -4.3234   -0.2247 C   0  0  0  0  0  0  0  0  0  0  0  0
    5.2673   -5.0739   -1.2426 C   0  0  0  0  0  0  0  0  0  0  0  0
    5.8110   -4.3011   -2.4176 C   0  0  0  0  0  0  0  0  0  0  0  0
    6.1675   -3.0186   -2.2933 C   0  0  0  0  0  0  0  0  0  0  0  0
    6.1200   -2.3418   -0.9688 C   0  0  0  0  0  0  0  0  0  0  0  0
    6.0497   -0.9932   -0.8427 C   0  0  0  0  0  0  0  0  0  0  0  0
    6.0761   -0.1705    0.6232 S   0  0  0  0  0  0  0  0  0  0  0  0
    5.9055    1.3798   -0.0226 C   0  0  0  0  0  0  0  0  0  0  0  0
    5.8342    2.4905    0.7579 C   0  0  0  0  0  0  0  0  0  0  0  0
    5.9222    2.3772    2.1956 C   0  0  0  0  0  0  0  0  0  0  0  0
    5.9853    2.2903    3.3470 N   0  0  0  0  0  0  0  0  0  0  0  0
    5.6438    3.8300    0.2671 C   0  0  0  0  0  0  0  0  0  0  0  0
    5.4899    4.9130   -0.1114 N   0  0  0  0  0  0  0  0  0  0  0  0
    5.8352    1.2932   -1.3951 N   0  0  0  0  0  0  0  0  0  0  0  0
    5.6717    2.4063   -2.3485 C   0  0  0  0  0  0  0  0  0  0  0  0
    4.1984    2.7792   -2.5013 C   0  0  0  0  0  0  0  0  0  0  0  0
    5.8903   -0.0091   -1.8350 C   0  0  0  0  0  0  0  0  0  0  0  0
    5.7592   -0.2915   -3.0578 O   0  0  0  0  0  0  0  0  0  0  0  0
    6.1245   -3.2078    0.2847 C   0  0  0  0  0  0  0  0  0  0  0  0
    6.1168   -4.7226   -0.0060 C   0  0  0  0  0  0  0  0  0  0  0  0
   -6.9073    0.6630    1.7553 H   0  0  0  0  0  0  0  0  0  0  0  0
   -1.4565    3.6725    1.9337 H   0  0  0  0  0  0  0  0  0  0  0  0
   -5.6708    5.5863   -0.2130 H   0  0  0  0  0  0  0  0  0  0  0  0
   -2.9320    7.7484   -0.5166 H   0  0  0  0  0  0  0  0  0  0  0  0
   -3.4342    6.3490   -2.8664 H   0  0  0  0  0  0  0  0  0  0  0  0
   -1.4103    7.9653   -3.4664 H   0  0  0  0  0  0  0  0  0  0  0  0
    0.7442    7.0347   -2.3233 H   0  0  0  0  0  0  0  0  0  0  0  0
    0.0990    4.8256   -0.9977 H   0  0  0  0  0  0  0  0  0  0  0  0
   -2.3914    4.1575   -1.7308 H   0  0  0  0  0  0  0  0  0  0  0  0
   -1.4180    4.6400   -3.1774 H   0  0  0  0  0  0  0  0  0  0  0  0
   -0.9581    6.8821    0.5341 H   0  0  0  0  0  0  0  0  0  0  0  0
   -4.4591   -0.7195    4.1679 H   0  0  0  0  0  0  0  0  0  0  0  0
    0.7684   -6.3328    2.4064 H   0  0  0  0  0  0  0  0  0  0  0  0
    2.2526   -6.5460    4.5126 H   0  0  0  0  0  0  0  0  0  0  0  0
    3.6929   -4.9495    6.1149 H   0  0  0  0  0  0  0  0  0  0  0  0
    3.3615   -3.1811    6.0377 H   0  0  0  0  0  0  0  0  0  0  0  0
    1.4953   -5.3249    7.2596 H   0  0  0  0  0  0  0  0  0  0  0  0
    2.5279   -4.1604    8.1735 H   0  0  0  0  0  0  0  0  0  0  0  0
    1.1500   -3.5466    7.1817 H   0  0  0  0  0  0  0  0  0  0  0  0
   -4.3020   -3.5808   -1.7689 H   0  0  0  0  0  0  0  0  0  0  0  0
   -5.2404   -2.1340   -3.7007 H   0  0  0  0  0  0  0  0  0  0  0  0
   -4.8157    0.3788   -4.6702 H   0  0  0  0  0  0  0  0  0  0  0  0
   -3.1922    1.0950   -4.3759 H   0  0  0  0  0  0  0  0  0  0  0  0
   -3.3835    0.3975   -6.7327 H   0  0  0  0  0  0  0  0  0  0  0  0
   -2.1699   -0.6490   -5.9035 H   0  0  0  0  0  0  0  0  0  0  0  0
   -3.8340   -1.2814   -6.2447 H   0  0  0  0  0  0  0  0  0  0  0  0
    3.1330   -4.4530   -3.1365 H   0  0  0  0  0  0  0  0  0  0  0  0
    5.3787   -6.1590   -1.4521 H   0  0  0  0  0  0  0  0  0  0  0  0
    5.8831   -4.7859   -3.3829 H   0  0  0  0  0  0  0  0  0  0  0  0
    6.5436   -2.5122   -3.1695 H   0  0  0  0  0  0  0  0  0  0  0  0
    6.2929    3.2749   -2.0634 H   0  0  0  0  0  0  0  0  0  0  0  0
    6.0596    2.1209   -3.3516 H   0  0  0  0  0  0  0  0  0  0  0  0
    4.1083    3.6826   -3.1401 H   0  0  0  0  0  0  0  0  0  0  0  0
    3.7350    2.9916   -1.5170 H   0  0  0  0  0  0  0  0  0  0  0  0
    3.6470    1.9445   -2.9816 H   0  0  0  0  0  0  0  0  0  0  0  0
    5.2321   -2.9598    0.9005 H   0  0  0  0  0  0  0  0  0  0  0  0
    7.0254   -2.9728    0.8944 H   0  0  0  0  0  0  0  0  0  0  0  0
    7.1636   -5.0530   -0.1915 H   0  0  0  0  0  0  0  0  0  0  0  0
    5.7596   -5.2805    0.8871 H   0  0  0  0  0  0  0  0  0  0  0  0
  1  2  2  3
  2  3  1  0
  3  4  2  0
  3  5  1  0
  5  6  2  0
  6  7  1  0
  7  8  2  0
  8  9  1  0
  9 10  2  0
 10 11  1  0
 11 12  2  3
 12 13  1  0
 13 14  3  0
 12 15  1  0
 15 16  3  0
  8 17  1  0
 17 18  1  0
 18 19  1  0
 19 20  2  0
 20 21  1  0
 21 22  1  0
 21 23  1  0
  1 24  1  0
 24 25  2  0
 25 26  1  0
 26 27  1  0
 27 28  1  0
 28 29  2  0
 29 30  1  0
 30 31  2  0
 31 32  1  0
 32 33  2  0
 33 34  1  0
 34 35  1  0
 33 36  1  0
 29 37  1  0
 37 38  2  0
 38 39  1  0
 39 40  1  0
 40 41  2  0
 41 42  1  0
 42 43  2  0
 43 44  1  0
 44 45  1  0
 43 46  1  0
 39 47  2  0
 47 48  1  0
 48 49  1  0
 38 50  1  0
 50 51  1  0
 51 52  1  0
 52 53  2  0
 53 54  1  0
 54 55  1  0
 53 56  1  0
 56 57  1  0
 57 58  2  0
 58 59  1  0
 59 60  2  3
 60 61  1  0
 61 62  1  0
 62 63  2  3
 63 64  1  0
 64 65  3  0
 63 66  1  0
 66 67  3  0
 62 68  1  0
 68 69  1  0
 69 70  1  0
 68 71  1  0
 71 72  2  0
 59 73  1  0
 73 74  1  0
 11  2  1  0
 23 17  1  0
 49 24  1  0
 55 51  2  0
 74 56  1  0
 10  5  1  0
 22 18  1  0
 48 26  2  0
 71 60  1  0
 23  7  1  0
 47 28  1  0
 36 30  1  0
 55 37  1  0
 46 40  1  0
  1 75  1  0
  6 76  1  0
  9 77  1  0
 17 78  1  0
 18 79  1  0
 19 80  1  0
 20 81  1  0
 21 82  1  0
 22 83  1  0
 22 84  1  0
 23 85  1  0
 25 86  1  0
 31 87  1  0
 32 88  1  0
 34 89  1  0
 34 90  1  0
 35 91  1  0
 35 92  1  0
 35 93  1  0
 41 94  1  0
 42 95  1  0
 44 96  1  0
 44 97  1  0
 45 98  1  0
 45 99  1  0
 45100  1  0
 52101  1  0
 56102  1  0
 57103  1  0
 58104  1  0
 69105  1  0
 69106  1  0
 70107  1  0
 70108  1  0
 70109  1  0
 73110  1  0
 73111  1  0
 74112  1  0
 74113  1  0
M  END

