
     RDKit          3D

244271  0  0  0  0  0  0  0  0999 V2000
    0.2559   -6.3500   -9.9302 C   0  0  0  0  0  0  0  0  0  0  0  0
    0.1168   -7.5484   -9.2384 C   0  0  0  0  0  0  0  0  0  0  0  0
   -0.3716   -7.9818   -8.0166 C   0  0  0  0  0  0  0  0  0  0  0  0
   -1.5658   -7.5343   -7.6204 O   0  0  0  0  0  0  0  0  0  0  0  0
    0.3885   -8.8308   -7.1904 C   0  0  0  0  0  0  0  0  0  0  0  0
    0.4130   -9.4164   -5.9673 C   0  0  0  0  0  0  0  0  0  0  0  0
    1.3087  -10.1178   -5.3432 C   0  0  0  0  0  0  0  0  0  0  0  0
    2.5339  -10.3403   -6.0627 C   0  0  0  0  0  0  0  0  0  0  0  0
    2.6264   -9.8122   -7.3361 C   0  0  0  0  0  0  0  0  0  0  0  0
    1.6156   -9.0605   -7.9329 C   0  0  0  0  0  0  0  0  0  0  0  0
    1.5402   -8.3319   -9.1645 C   0  0  0  0  0  0  0  0  0  0  0  0
    2.4295   -8.1065  -10.0558 C   0  0  0  0  0  0  0  0  0  0  0  0
    3.8025   -8.9165   -9.9231 C   0  0  0  0  0  0  0  0  0  0  0  0
    4.8714   -9.5586   -9.8134 N   0  0  0  0  0  0  0  0  0  0  0  0
    2.5964   -7.3083  -11.0257 C   0  0  0  0  0  0  0  0  0  0  0  0
    2.7849   -6.3981  -12.1391 N   0  0  0  0  0  0  0  0  0  0  0  0
    3.1502  -10.9837   -4.8960 C   0  0  0  0  0  0  0  0  0  0  0  0
    3.4958  -12.4171   -5.1394 C   0  0  0  0  0  0  0  0  0  0  0  0
    2.6457  -12.8716   -6.2646 C   0  0  0  0  0  0  0  0  0  0  0  0
    1.3826  -12.5819   -5.8808 C   0  0  0  0  0  0  0  0  0  0  0  0
    1.3643  -12.3911   -4.3923 C   0  0  0  0  0  0  0  0  0  0  0  0
    2.6473  -13.0658   -3.9801 C   0  0  0  0  0  0  0  0  0  0  0  0
    1.8370  -10.9331   -4.2162 C   0  0  0  0  0  0  0  0  0  0  0  0
   -0.1795   -5.2331   -9.1875 C   0  0  0  0  0  0  0  0  0  0  0  0
   -0.9295   -3.5141   -9.3978 Se  0  0  0  0  0  2  0  0  0  0  0  0
   -0.3640   -2.9958   -7.3355 C   0  0  0  0  0  0  0  0  0  0  0  0
   -0.5701   -1.9158   -6.5038 C   0  0  0  0  0  0  0  0  0  0  0  0
   -0.2617   -2.6174   -5.3969 C   0  0  0  0  0  0  0  0  0  0  0  0
    0.4626   -3.8361   -5.7625 C   0  0  0  0  0  0  0  0  0  0  0  0
   -0.1062   -3.9194   -7.5484 C   0  0  0  0  0  0  0  0  0  0  0  0
    0.2896   -5.2005   -7.7381 C   0  0  0  0  0  0  0  0  0  0  0  0
    1.8609   -3.6979   -5.9221 C   0  0  0  0  0  0  0  0  0  0  0  0
    2.3221   -3.5444   -7.4564 C   0  0  0  0  0  0  0  0  0  0  0  0
    3.7167   -3.5714   -7.2510 C   0  0  0  0  0  0  0  0  0  0  0  0
    4.6382   -3.6404   -6.6165 C   0  0  0  0  0  0  0  0  0  0  0  0
    6.0934   -3.7903   -6.7855 C   0  0  0  0  0  0  0  0  0  0  0  0
    6.7421   -2.6039   -7.4355 C   0  0  0  0  0  0  0  0  0  0  0  0
    4.2148   -3.7758   -5.0857 C   0  0  0  0  0  0  0  0  0  0  0  0
    2.8428   -3.7781   -5.0889 C   0  0  0  0  0  0  0  0  0  0  0  0
   -0.1063   -4.9027   -5.0551 C   0  0  0  0  0  0  0  0  0  0  0  0
    0.6268   -6.0518   -4.6421 C   0  0  0  0  0  0  0  0  0  0  0  0
    0.0552   -6.9791   -3.7883 C   0  0  0  0  0  0  0  0  0  0  0  0
   -1.2851   -6.7642   -3.3349 C   0  0  0  0  0  0  0  0  0  0  0  0
   -1.8203   -7.7066   -2.2690 C   0  0  0  0  0  0  0  0  0  0  0  0
   -1.6773   -6.9602   -0.9231 C   0  0  0  0  0  0  0  0  0  0  0  0
   -1.9484   -5.7410   -3.7348 C   0  0  0  0  0  0  0  0  0  0  0  0
   -1.3749   -4.7960   -4.5925 C   0  0  0  0  0  0  0  0  0  0  0  0
   -0.3607   -2.1278   -4.1395 C   0  0  0  0  0  0  0  0  0  0  0  0
   -0.7815   -0.8114   -4.1023 C   0  0  0  0  0  0  0  0  0  0  0  0
   -1.0112   -0.0005   -2.9238 C   0  0  0  0  0  0  0  0  0  0  0  0
   -1.3038    1.2533   -3.1249 C   0  0  0  0  0  0  0  0  0  0  0  0
   -1.1435    1.3867   -4.6670 C   0  0  0  0  0  0  0  0  0  0  0  0
   -1.0624   -0.0218   -5.1870 C   0  0  0  0  0  0  0  0  0  0  0  0
   -0.9897   -0.5905   -6.4512 C   0  0  0  0  0  0  0  0  0  0  0  0
    0.2885    1.8988   -4.8697 C   0  0  0  0  0  0  0  0  0  0  0  0
    0.5946    3.0901   -4.1212 C   0  0  0  0  0  0  0  0  0  0  0  0
    1.9194    3.5286   -4.3602 C   0  0  0  0  0  0  0  0  0  0  0  0
    2.8524    3.0165   -5.1214 C   0  0  0  0  0  0  0  0  0  0  0  0
    4.1940    3.4868   -5.3526 C   0  0  0  0  0  0  0  0  0  0  0  0
    5.2541    3.0554   -4.4209 C   0  0  0  0  0  0  0  0  0  0  0  0
    2.4789    1.7756   -5.8782 C   0  0  0  0  0  0  0  0  0  0  0  0
    1.1625    1.3950   -5.6036 C   0  0  0  0  0  0  0  0  0  0  0  0
   -2.0562    2.2825   -5.2739 C   0  0  0  0  0  0  0  0  0  0  0  0
   -1.5820    2.9365   -6.4525 C   0  0  0  0  0  0  0  0  0  0  0  0
   -2.3146    3.8955   -7.1044 C   0  0  0  0  0  0  0  0  0  0  0  0
   -3.5842    4.2847   -6.6421 C   0  0  0  0  0  0  0  0  0  0  0  0
   -4.3161    5.3550   -7.3280 C   0  0  0  0  0  0  0  0  0  0  0  0
   -3.9111    6.6674   -6.7331 C   0  0  0  0  0  0  0  0  0  0  0  0
   -4.0213    3.6709   -5.5303 C   0  0  0  0  0  0  0  0  0  0  0  0
   -3.3304    2.6821   -4.8316 C   0  0  0  0  0  0  0  0  0  0  0  0
   -1.7430    1.9784   -2.1145 C   0  0  0  0  0  0  0  0  0  0  0  0
   -1.8804    3.6699   -1.5466 S   0  0  0  0  0  0  0  0  0  0  0  0
   -2.1167    3.4293    0.1245 C   0  0  0  0  0  0  0  0  0  0  0  0
   -2.2352    3.9763    1.5061 C   0  0  0  0  0  0  0  0  0  0  0  0
   -1.7873    5.2700    1.8903 C   0  0  0  0  0  0  0  0  0  0  0  0
   -1.5710    5.2116    3.2644 C   0  0  0  0  0  0  0  0  0  0  0  0
   -0.6814    6.2552    4.1016 C   0  0  0  0  0  0  0  0  0  0  0  0
   -0.0319    7.1433    3.3065 C   0  0  0  0  0  0  0  0  0  0  0  0
    1.3626    7.0692    3.1427 C   0  0  0  0  0  0  0  0  0  0  0  0
    2.1128    7.7658    2.2770 C   0  0  0  0  0  0  0  0  0  0  0  0
    1.5213    8.6712    1.4302 C   0  0  0  0  0  0  0  0  0  0  0  0
    2.3961    9.2770    0.3996 C   0  0  0  0  0  0  0  0  0  0  0  0
    2.8020    8.1025   -0.5319 C   0  0  0  0  0  0  0  0  0  0  0  0
    0.1450    8.8195    1.5568 C   0  0  0  0  0  0  0  0  0  0  0  0
   -0.6371    8.1148    2.4421 C   0  0  0  0  0  0  0  0  0  0  0  0
    0.4724    5.2459    4.7079 C   0  0  0  0  0  0  0  0  0  0  0  0
    0.7173    4.1438    4.4492 C   0  0  0  0  0  0  0  0  0  0  0  0
    1.7083    3.2577    5.0720 C   0  0  0  0  0  0  0  0  0  0  0  0
    2.3851    3.9844    6.0799 C   0  0  0  0  0  0  0  0  0  0  0  0
    3.4625    3.2116    6.8430 C   0  0  0  0  0  0  0  0  0  0  0  0
    4.7643    3.4484    6.0916 C   0  0  0  0  0  0  0  0  0  0  0  0
    2.1288    5.2219    6.3731 C   0  0  0  0  0  0  0  0  0  0  0  0
    1.1446    6.0293    5.7431 C   0  0  0  0  0  0  0  0  0  0  0  0
   -1.5468    6.3115    5.3408 C   0  0  0  0  0  0  0  0  0  0  0  0
   -1.7313    5.0193    5.4326 C   0  0  0  0  0  0  0  0  0  0  0  0
   -1.7131    4.3470    4.0529 C   0  0  0  0  0  0  0  0  0  0  0  0
   -2.1546    2.9795    3.7677 C   0  0  0  0  0  0  0  0  0  0  0  0
   -2.4033    2.8951    2.4058 C   0  0  0  0  0  0  0  0  0  0  0  0
   -2.9199    1.8621    1.5461 C   0  0  0  0  0  0  0  0  0  0  0  0
   -3.0800    0.4882    1.8745 C   0  0  0  0  0  0  0  0  0  0  0  0
   -4.3830    0.0393    2.1409 C   0  0  0  0  0  0  0  0  0  0  0  0
   -4.6963   -1.2919    2.1997 C   0  0  0  0  0  0  0  0  0  0  0  0
   -3.7038   -2.2600    1.9904 C   0  0  0  0  0  0  0  0  0  0  0  0
   -4.1356   -3.6846    1.8747 C   0  0  0  0  0  0  0  0  0  0  0  0
   -4.2804   -4.4268    3.1520 C   0  0  0  0  0  0  0  0  0  0  0  0
   -2.4481   -1.8026    1.7682 C   0  0  0  0  0  0  0  0  0  0  0  0
   -2.1002   -0.4279    1.6967 C   0  0  0  0  0  0  0  0  0  0  0  0
   -4.3342    2.4575    1.2158 C   0  0  0  0  0  0  0  0  0  0  0  0
   -4.8512    2.2747   -0.1013 C   0  0  0  0  0  0  0  0  0  0  0  0
   -6.1362    2.7321   -0.4319 C   0  0  0  0  0  0  0  0  0  0  0  0
   -6.8861    3.3555    0.5904 C   0  0  0  0  0  0  0  0  0  0  0  0
   -8.3598    3.7023    0.3119 C   0  0  0  0  0  0  0  0  0  0  0  0
   -9.2073    2.5713    0.8265 C   0  0  0  0  0  0  0  0  0  0  0  0
   -6.4056    3.5254    1.7925 C   0  0  0  0  0  0  0  0  0  0  0  0
   -5.1211    3.0732    2.0544 C   0  0  0  0  0  0  0  0  0  0  0  0
   -2.1121    2.1301    0.1641 C   0  0  0  0  0  0  0  0  0  0  0  0
   -1.9058    1.3377   -0.8665 C   0  0  0  0  0  0  0  0  0  0  0  0
   -1.3817   -0.2650   -1.2462 S   0  0  0  0  0  0  0  0  0  0  0  0
   -2.3394    4.7909    7.1648 Se  0  0  0  0  0  2  0  0  0  0  0  0
   -2.2664    6.7427    7.5006 C   0  0  0  0  0  0  0  0  0  0  0  0
   -1.8198    7.1935    6.3232 C   0  0  0  0  0  0  0  0  0  0  0  0
   -2.7588    7.0271    8.8495 C   0  0  0  0  0  0  0  0  0  0  0  0
   -1.8787    6.3560    9.7117 C   0  0  0  0  0  0  0  0  0  0  0  0
   -0.6471    5.6419    9.2596 C   0  0  0  0  0  0  0  0  0  0  0  0
    0.1290    6.1463    8.4182 O   0  0  0  0  0  0  0  0  0  0  0  0
   -0.5010    4.3669    9.9029 C   0  0  0  0  0  0  0  0  0  0  0  0
    0.3938    3.3982    9.8019 C   0  0  0  0  0  0  0  0  0  0  0  0
    0.4188    2.2308   10.3850 C   0  0  0  0  0  0  0  0  0  0  0  0
   -0.6727    1.9587   11.2738 C   0  0  0  0  0  0  0  0  0  0  0  0
   -1.6434    2.9571   11.4349 C   0  0  0  0  0  0  0  0  0  0  0  0
   -1.5938    4.1527   10.7738 C   0  0  0  0  0  0  0  0  0  0  0  0
   -2.4219    5.3472   10.6565 C   0  0  0  0  0  0  0  0  0  0  0  0
   -3.4892    5.6920   11.4092 C   0  0  0  0  0  0  0  0  0  0  0  0
   -3.9805    4.6388   12.3765 C   0  0  0  0  0  0  0  0  0  0  0  0
   -4.3697    3.7926   13.1740 N   0  0  0  0  0  0  0  0  0  0  0  0
   -3.9955    6.8413   11.5338 C   0  0  0  0  0  0  0  0  0  0  0  0
   -4.5829    8.1215   11.6640 N   0  0  0  0  0  0  0  0  0  0  0  0
   -0.1649    0.6156   11.5431 C   0  0  0  0  0  0  0  0  0  0  0  0
    0.5374    0.3572   12.8342 C   0  0  0  0  0  0  0  0  0  0  0  0
    1.4858   -0.7667   12.6254 C   0  0  0  0  0  0  0  0  0  0  0  0
    2.5403   -0.3450   12.0238 C   0  0  0  0  0  0  0  0  0  0  0  0
    2.2410    1.0503   11.5756 C   0  0  0  0  0  0  0  0  0  0  0  0
    1.5468    1.5439   12.8149 C   0  0  0  0  0  0  0  0  0  0  0  0
    1.0820    0.9079   10.6463 C   0  0  0  0  0  0  0  0  0  0  0  0
    0.5149   -6.2760  -10.9276 H   0  0  0  0  0  0  0  0  0  0  0  0
   -0.6092   -9.2231   -5.4084 H   0  0  0  0  0  0  0  0  0  0  0  0
    3.5382  -10.0238   -7.8573 H   0  0  0  0  0  0  0  0  0  0  0  0
    3.9585  -10.4206   -4.3605 H   0  0  0  0  0  0  0  0  0  0  0  0
    4.4957  -12.7636   -5.1094 H   0  0  0  0  0  0  0  0  0  0  0  0
    2.8871  -13.2713   -7.1895 H   0  0  0  0  0  0  0  0  0  0  0  0
    0.5109  -12.5046   -6.4622 H   0  0  0  0  0  0  0  0  0  0  0  0
    0.4839  -12.6143   -3.8769 H   0  0  0  0  0  0  0  0  0  0  0  0
    3.0466  -12.7197   -3.0342 H   0  0  0  0  0  0  0  0  0  0  0  0
    2.6656  -14.1828   -4.1676 H   0  0  0  0  0  0  0  0  0  0  0  0
    1.7650  -10.5048   -3.2286 H   0  0  0  0  0  0  0  0  0  0  0  0
    0.7420   -6.0442   -7.3387 H   0  0  0  0  0  0  0  0  0  0  0  0
    1.7655   -3.4799   -8.1888 H   0  0  0  0  0  0  0  0  0  0  0  0
    4.0731   -3.4665   -8.5087 H   0  0  0  0  0  0  0  0  0  0  0  0
    6.6049   -4.0543   -5.8829 H   0  0  0  0  0  0  0  0  0  0  0  0
    6.3039   -4.6655   -7.4840 H   0  0  0  0  0  0  0  0  0  0  0  0
    7.7841   -2.3884   -7.0564 H   0  0  0  0  0  0  0  0  0  0  0  0
    6.9612   -2.8955   -8.5389 H   0  0  0  0  0  0  0  0  0  0  0  0
    6.1248   -1.6778   -7.4634 H   0  0  0  0  0  0  0  0  0  0  0  0
    4.9554   -3.8514   -4.4348 H   0  0  0  0  0  0  0  0  0  0  0  0
    2.4535   -3.8950   -3.9613 H   0  0  0  0  0  0  0  0  0  0  0  0
    1.6141   -6.1693   -5.0038 H   0  0  0  0  0  0  0  0  0  0  0  0
    0.5368   -7.8572   -3.4343 H   0  0  0  0  0  0  0  0  0  0  0  0
   -1.3131   -8.6517   -2.2781 H   0  0  0  0  0  0  0  0  0  0  0  0
   -2.9067   -7.8061   -2.4039 H   0  0  0  0  0  0  0  0  0  0  0  0
   -1.3786   -5.9267   -1.1501 H   0  0  0  0  0  0  0  0  0  0  0  0
   -2.6963   -6.9564   -0.4449 H   0  0  0  0  0  0  0  0  0  0  0  0
   -0.8994   -7.4324   -0.3606 H   0  0  0  0  0  0  0  0  0  0  0  0
   -3.0120   -5.5388   -3.4150 H   0  0  0  0  0  0  0  0  0  0  0  0
   -1.9895   -3.9326   -4.9250 H   0  0  0  0  0  0  0  0  0  0  0  0
   -0.1253   -2.6487   -3.2354 H   0  0  0  0  0  0  0  0  0  0  0  0
   -1.2308   -0.1122   -7.3592 H   0  0  0  0  0  0  0  0  0  0  0  0
   -0.0616    3.5836   -3.4833 H   0  0  0  0  0  0  0  0  0  0  0  0
    2.1084    4.4692   -3.7666 H   0  0  0  0  0  0  0  0  0  0  0  0
    4.4615    3.2775   -6.4047 H   0  0  0  0  0  0  0  0  0  0  0  0
    4.1443    4.6234   -5.2907 H   0  0  0  0  0  0  0  0  0  0  0  0
    5.1337    1.9862   -4.0993 H   0  0  0  0  0  0  0  0  0  0  0  0
    5.4332    3.7446   -3.5688 H   0  0  0  0  0  0  0  0  0  0  0  0
    6.2355    3.0345   -4.9967 H   0  0  0  0  0  0  0  0  0  0  0  0
    3.1640    1.3556   -6.4722 H   0  0  0  0  0  0  0  0  0  0  0  0
    0.9795    0.4425   -6.1929 H   0  0  0  0  0  0  0  0  0  0  0  0
   -0.6023    2.6538   -6.8243 H   0  0  0  0  0  0  0  0  0  0  0  0
   -1.9678    4.4058   -7.9776 H   0  0  0  0  0  0  0  0  0  0  0  0
   -3.9806    5.3424   -8.4052 H   0  0  0  0  0  0  0  0  0  0  0  0
   -5.4065    5.2108   -7.3113 H   0  0  0  0  0  0  0  0  0  0  0  0
   -2.9447    6.6437   -6.2096 H   0  0  0  0  0  0  0  0  0  0  0  0
   -4.7034    7.0271   -6.0323 H   0  0  0  0  0  0  0  0  0  0  0  0
   -3.7848    7.4585   -7.5313 H   0  0  0  0  0  0  0  0  0  0  0  0
   -5.0147    3.9724   -5.0949 H   0  0  0  0  0  0  0  0  0  0  0  0
   -3.7250    2.2273   -3.9923 H   0  0  0  0  0  0  0  0  0  0  0  0
   -1.6770    6.0219    1.2142 H   0  0  0  0  0  0  0  0  0  0  0  0
    1.8872    6.3279    3.7259 H   0  0  0  0  0  0  0  0  0  0  0  0
    3.1908    7.6470    2.2290 H   0  0  0  0  0  0  0  0  0  0  0  0
    3.3267    9.6968    0.7844 H   0  0  0  0  0  0  0  0  0  0  0  0
    1.7857    9.9327   -0.1891 H   0  0  0  0  0  0  0  0  0  0  0  0
    3.8306    8.2509   -0.9393 H   0  0  0  0  0  0  0  0  0  0  0  0
    2.7591    7.1811    0.0773 H   0  0  0  0  0  0  0  0  0  0  0  0
    2.1420    7.9914   -1.3802 H   0  0  0  0  0  0  0  0  0  0  0  0
   -0.3061    9.5534    0.8689 H   0  0  0  0  0  0  0  0  0  0  0  0
   -1.6883    8.1947    2.5861 H   0  0  0  0  0  0  0  0  0  0  0  0
    0.2985    3.5280    3.5981 H   0  0  0  0  0  0  0  0  0  0  0  0
    1.8914    2.3088    4.8374 H   0  0  0  0  0  0  0  0  0  0  0  0
    3.2409    2.1652    7.0332 H   0  0  0  0  0  0  0  0  0  0  0  0
    3.5154    3.7601    7.8215 H   0  0  0  0  0  0  0  0  0  0  0  0
    4.7645    2.7348    5.2849 H   0  0  0  0  0  0  0  0  0  0  0  0
    5.5709    3.1154    6.8333 H   0  0  0  0  0  0  0  0  0  0  0  0
    4.8182    4.5115    5.8687 H   0  0  0  0  0  0  0  0  0  0  0  0
    2.7483    5.7247    7.1834 H   0  0  0  0  0  0  0  0  0  0  0  0
    0.9722    6.9740    6.0167 H   0  0  0  0  0  0  0  0  0  0  0  0
   -2.2809    2.2951    4.4792 H   0  0  0  0  0  0  0  0  0  0  0  0
   -5.1125    0.8225    2.3356 H   0  0  0  0  0  0  0  0  0  0  0  0
   -5.7021   -1.6137    2.3729 H   0  0  0  0  0  0  0  0  0  0  0  0
   -3.4467   -4.2465    1.1941 H   0  0  0  0  0  0  0  0  0  0  0  0
   -5.0934   -3.6537    1.3065 H   0  0  0  0  0  0  0  0  0  0  0  0
   -5.0887   -3.9783    3.7679 H   0  0  0  0  0  0  0  0  0  0  0  0
   -4.5709   -5.4925    2.9056 H   0  0  0  0  0  0  0  0  0  0  0  0
   -3.2995   -4.4751    3.6239 H   0  0  0  0  0  0  0  0  0  0  0  0
   -1.6251   -2.5094    1.6143 H   0  0  0  0  0  0  0  0  0  0  0  0
   -1.0733   -0.0982    1.5485 H   0  0  0  0  0  0  0  0  0  0  0  0
   -4.2508    1.7827   -0.8159 H   0  0  0  0  0  0  0  0  0  0  0  0
   -6.5451    2.6185   -1.4019 H   0  0  0  0  0  0  0  0  0  0  0  0
   -8.5165    3.7681   -0.7841 H   0  0  0  0  0  0  0  0  0  0  0  0
   -8.5984    4.6302    0.8275 H   0  0  0  0  0  0  0  0  0  0  0  0
   -8.7642    2.0435    1.7230 H   0  0  0  0  0  0  0  0  0  0  0  0
   -9.4818    1.8623    0.0689 H   0  0  0  0  0  0  0  0  0  0  0  0
  -10.1517    3.0151    1.2506 H   0  0  0  0  0  0  0  0  0  0  0  0
   -6.9565    4.0549    2.5761 H   0  0  0  0  0  0  0  0  0  0  0  0
   -4.7489    3.2496    3.1125 H   0  0  0  0  0  0  0  0  0  0  0  0
   -1.7291    8.3363    6.2907 H   0  0  0  0  0  0  0  0  0  0  0  0
   -3.4735    7.6179    9.1539 H   0  0  0  0  0  0  0  0  0  0  0  0
    1.2865    3.6335    9.1132 H   0  0  0  0  0  0  0  0  0  0  0  0
   -2.4784    2.7426   12.0721 H   0  0  0  0  0  0  0  0  0  0  0  0
   -0.7367   -0.2453   11.0877 H   0  0  0  0  0  0  0  0  0  0  0  0
   -0.0622    0.3097   13.7208 H   0  0  0  0  0  0  0  0  0  0  0  0
    1.3185   -1.7768   12.9507 H   0  0  0  0  0  0  0  0  0  0  0  0
    3.5373   -0.7875   11.7885 H   0  0  0  0  0  0  0  0  0  0  0  0
    3.0516    1.5896   11.1782 H   0  0  0  0  0  0  0  0  0  0  0  0
    1.1173    2.5423   12.7722 H   0  0  0  0  0  0  0  0  0  0  0  0
    2.1726    1.4298   13.7487 H   0  0  0  0  0  0  0  0  0  0  0  0
    1.1930    0.2314    9.8113 H   0  0  0  0  0  0  0  0  0  0  0  0
  1  2  2  3
  2  3  1  0
  3  4  2  0
  3  5  1  0
  5  6  2  0
  6  7  1  0
  7  8  2  0
  8  9  1  0
  9 10  2  0
 10 11  1  0
 11 12  2  3
 12 13  1  0
 13 14  3  0
 12 15  1  0
 15 16  3  0
  8 17  1  0
 17 18  1  0
 18 19  1  0
 19 20  2  0
 20 21  1  0
 21 22  1  0
 21 23  1  0
  1 24  1  0
 24 25  1  0
 25 26  1  0
 26 27  1  0
 27 28  2  0
 28 29  1  0
 29 30  1  0
 30 31  1  0
 29 32  1  0
 32 33  2  0
 33 34  1  0
 34 35  2  0
 35 36  1  0
 36 37  1  0
 35 38  1  0
 38 39  2  0
 29 40  1  0
 40 41  2  0
 41 42  1  0
 42 43  2  0
 43 44  1  0
 44 45  1  0
 43 46  1  0
 46 47  2  0
 28 48  1  0
 48 49  2  0
 49 50  1  0
 50 51  2  0
 51 52  1  0
 52 53  1  0
 53 54  2  0
 52 55  1  0
 55 56  2  0
 56 57  1  0
 57 58  2  0
 58 59  1  0
 59 60  1  0
 58 61  1  0
 61 62  2  0
 52 63  1  0
 63 64  2  0
 64 65  1  0
 65 66  2  0
 66 67  1  0
 67 68  1  0
 66 69  1  0
 69 70  2  0
 51 71  1  0
 71 72  1  0
 72 73  1  0
 73 74  1  0
 74 75  2  0
 75 76  1  0
 76 77  1  0
 77 78  1  0
 78 79  2  0
 79 80  1  0
 80 81  2  0
 81 82  1  0
 82 83  1  0
 81 84  1  0
 84 85  2  0
 77 86  1  0
 86 87  2  0
 87 88  1  0
 88 89  2  0
 89 90  1  0
 90 91  1  0
 89 92  1  0
 92 93  2  0
 77 94  1  0
 94 95  2  0
 95 96  1  0
 96 97  1  0
 97 98  2  0
 98 99  1  0
 99100  1  0
100101  2  0
101102  1  0
102103  2  0
103104  1  0
104105  1  0
103106  1  0
106107  2  0
 99108  1  0
108109  2  0
109110  1  0
110111  2  0
111112  1  0
112113  1  0
111114  1  0
114115  2  0
 99116  1  0
116117  1  0
117118  1  0
 95119  1  0
119120  1  0
120121  2  0
120122  1  0
122123  2  3
123124  1  0
124125  2  0
124126  1  0
126127  2  0
127128  1  0
128129  2  0
129130  1  0
130131  2  0
131132  1  0
132133  2  3
133134  1  0
134135  3  0
133136  1  0
136137  3  0
129138  1  0
138139  1  0
139140  1  0
140141  2  0
141142  1  0
142143  1  0
142144  1  0
 11  2  1  0
 23 17  1  0
 31 24  2  0
 39 32  1  0
 47 40  1  0
 53 49  1  0
 62 55  1  0
 70 63  1  0
117 71  2  0
132123  1  0
144138  1  0
 10  5  1  0
 22 18  1  0
 30 26  2  0
118 50  1  0
131126  1  0
143139  1  0
 23  7  1  0
 54 27  1  0
116 73  2  0
144128  1  0
 98 74  1  0
107100  1  0
115108  1  0
 96 76  2  0
 85 78  1  0
 93 86  1  0
121 94  1  0
  1145  1  0
  6146  1  0
  9147  1  0
 17148  1  0
 18149  1  0
 19150  1  0
 20151  1  0
 21152  1  0
 22153  1  0
 22154  1  0
 23155  1  0
 31156  1  0
 33157  1  0
 34158  1  0
 36159  1  0
 36160  1  0
 37161  1  0
 37162  1  0
 37163  1  0
 38164  1  0
 39165  1  0
 41166  1  0
 42167  1  0
 44168  1  0
 44169  1  0
 45170  1  0
 45171  1  0
 45172  1  0
 46173  1  0
 47174  1  0
 48175  1  0
 54176  1  0
 56177  1  0
 57178  1  0
 59179  1  0
 59180  1  0
 60181  1  0
 60182  1  0
 60183  1  0
 61184  1  0
 62185  1  0
 64186  1  0
 65187  1  0
 67188  1  0
 67189  1  0
 68190  1  0
 68191  1  0
 68192  1  0
 69193  1  0
 70194  1  0
 75195  1  0
 79196  1  0
 80197  1  0
 82198  1  0
 82199  1  0
 83200  1  0
 83201  1  0
 83202  1  0
 84203  1  0
 85204  1  0
 87205  1  0
 88206  1  0
 90207  1  0
 90208  1  0
 91209  1  0
 91210  1  0
 91211  1  0
 92212  1  0
 93213  1  0
 97214  1  0
101215  1  0
102216  1  0
104217  1  0
104218  1  0
105219  1  0
105220  1  0
105221  1  0
106222  1  0
107223  1  0
109224  1  0
110225  1  0
112226  1  0
112227  1  0
113228  1  0
113229  1  0
113230  1  0
114231  1  0
115232  1  0
121233  1  0
122234  1  0
127235  1  0
130236  1  0
138237  1  0
139238  1  0
140239  1  0
141240  1  0
142241  1  0
143242  1  0
143243  1  0
144244  1  0
M  END

