
     RDKit          3D

215238  0  0  0  0  0  0  0  0999 V2000
    8.8318    0.2122    0.2413 C   0  0  0  0  0  0  0  0  0  0  0  0
    8.8621    1.4180    0.8393 C   0  0  0  0  0  0  0  0  0  0  0  0
    7.7583    2.0634    1.5558 C   0  0  0  0  0  0  0  0  0  0  0  0
    6.5229    1.8712    1.3663 O   0  0  0  0  0  0  0  0  0  0  0  0
    8.3142    3.0410    2.4658 C   0  0  0  0  0  0  0  0  0  0  0  0
    7.6359    3.7342    3.4967 C   0  0  0  0  0  0  0  0  0  0  0  0
    8.4749    4.4326    4.3446 C   0  0  0  0  0  0  0  0  0  0  0  0
    9.9009    4.4506    4.1929 C   0  0  0  0  0  0  0  0  0  0  0  0
   10.5705    3.8072    3.1692 C   0  0  0  0  0  0  0  0  0  0  0  0
    9.7204    3.1017    2.2737 C   0  0  0  0  0  0  0  0  0  0  0  0
   10.0857    2.2107    1.1396 C   0  0  0  0  0  0  0  0  0  0  0  0
   11.1956    2.3092    0.3648 C   0  0  0  0  0  0  0  0  0  0  0  0
   11.2960    1.6482   -0.9150 C   0  0  0  0  0  0  0  0  0  0  0  0
   11.3779    1.1308   -1.9455 N   0  0  0  0  0  0  0  0  0  0  0  0
   12.2974    3.1725    0.6941 C   0  0  0  0  0  0  0  0  0  0  0  0
   13.1892    3.8597    0.9474 N   0  0  0  0  0  0  0  0  0  0  0  0
   10.0453    5.2106    5.4755 C   0  0  0  0  0  0  0  0  0  0  0  0
   10.5143    4.3893    6.7146 C   0  0  0  0  0  0  0  0  0  0  0  0
   10.2139    5.2505    7.9196 C   0  0  0  0  0  0  0  0  0  0  0  0
    8.8839    5.2844    8.0437 C   0  0  0  0  0  0  0  0  0  0  0  0
    8.3310    4.4327    6.9273 C   0  0  0  0  0  0  0  0  0  0  0  0
    9.4092    3.3607    6.8926 C   0  0  0  0  0  0  0  0  0  0  0  0
    8.5860    5.2218    5.6112 C   0  0  0  0  0  0  0  0  0  0  0  0
    7.6415   -0.6407    0.1446 C   0  0  0  0  0  0  0  0  0  0  0  0
    7.2218   -1.2560   -1.0239 C   0  0  0  0  0  0  0  0  0  0  0  0
    6.0598   -2.0224   -0.8528 C   0  0  0  0  0  0  0  0  0  0  0  0
    5.2847   -2.5592   -1.8870 C   0  0  0  0  0  0  0  0  0  0  0  0
    5.7239   -2.4768   -3.2975 C   0  0  0  0  0  0  0  0  0  0  0  0
    6.9178   -2.9935   -3.7916 C   0  0  0  0  0  0  0  0  0  0  0  0
    7.0577   -2.8457   -5.1755 C   0  0  0  0  0  0  0  0  0  0  0  0
    5.9834   -2.1969   -5.7709 C   0  0  0  0  0  0  0  0  0  0  0  0
    5.8040   -1.9609   -7.2393 C   0  0  0  0  0  0  0  0  0  0  0  0
    5.7641   -0.4702   -7.5605 C   0  0  0  0  0  0  0  0  0  0  0  0
    4.8525   -1.8142   -4.5820 S   0  0  0  0  0  0  0  0  0  0  0  0
    4.0564   -3.1443   -1.5328 C   0  0  0  0  0  0  0  0  0  0  0  0
    2.7789   -3.4174   -2.5811 S   0  0  0  0  0  0  0  0  0  0  0  0
    1.7431   -3.9089   -1.3692 C   0  0  0  0  0  0  0  0  0  0  0  0
    0.4397   -3.3601   -1.0810 C   0  0  0  0  0  0  0  0  0  0  0  0
   -0.3681   -2.6214   -1.9465 C   0  0  0  0  0  0  0  0  0  0  0  0
   -1.4382   -1.9191   -1.3842 C   0  0  0  0  0  0  0  0  0  0  0  0
   -2.4589   -1.0319   -2.1042 C   0  0  0  0  0  0  0  0  0  0  0  0
   -1.7044    0.2285   -2.6067 C   0  0  0  0  0  0  0  0  0  0  0  0
   -0.7758    0.1368   -3.6661 C   0  0  0  0  0  0  0  0  0  0  0  0
   -0.0054    1.2391   -4.0568 C   0  0  0  0  0  0  0  0  0  0  0  0
   -0.1275    2.4625   -3.3911 C   0  0  0  0  0  0  0  0  0  0  0  0
    0.7470    3.6314   -3.7617 C   0  0  0  0  0  0  0  0  0  0  0  0
    1.9952    3.6669   -2.8843 C   0  0  0  0  0  0  0  0  0  0  0  0
   -1.0194    2.5668   -2.3182 C   0  0  0  0  0  0  0  0  0  0  0  0
   -1.7798    1.4669   -1.9197 C   0  0  0  0  0  0  0  0  0  0  0  0
   -3.2072   -1.8747   -3.1517 C   0  0  0  0  0  0  0  0  0  0  0  0
   -3.2831   -1.5288   -4.5188 C   0  0  0  0  0  0  0  0  0  0  0  0
   -3.9688   -2.3392   -5.4269 C   0  0  0  0  0  0  0  0  0  0  0  0
   -4.6192   -3.4995   -4.9943 C   0  0  0  0  0  0  0  0  0  0  0  0
   -5.3556   -4.3684   -5.9707 C   0  0  0  0  0  0  0  0  0  0  0  0
   -4.4490   -5.4741   -6.5014 C   0  0  0  0  0  0  0  0  0  0  0  0
   -4.5401   -3.8634   -3.6468 C   0  0  0  0  0  0  0  0  0  0  0  0
   -3.8469   -3.0653   -2.7374 C   0  0  0  0  0  0  0  0  0  0  0  0
   -3.3858   -0.7258   -0.9241 C   0  0  0  0  0  0  0  0  0  0  0  0
   -2.8757   -1.2464    0.2285 C   0  0  0  0  0  0  0  0  0  0  0  0
   -1.6842   -2.0034   -0.0192 C   0  0  0  0  0  0  0  0  0  0  0  0
   -0.8977   -2.7695    0.8557 C   0  0  0  0  0  0  0  0  0  0  0  0
    0.2238   -3.4293    0.3052 C   0  0  0  0  0  0  0  0  0  0  0  0
    1.2845   -4.3825    0.8844 C   0  0  0  0  0  0  0  0  0  0  0  0
    1.7755   -4.4293    2.3386 C   0  0  0  0  0  0  0  0  0  0  0  0
    2.9546   -5.1699    2.6045 C   0  0  0  0  0  0  0  0  0  0  0  0
    3.3598   -5.4522    3.9093 C   0  0  0  0  0  0  0  0  0  0  0  0
    2.5983   -5.0154    4.9970 C   0  0  0  0  0  0  0  0  0  0  0  0
    3.0674   -5.2701    6.4025 C   0  0  0  0  0  0  0  0  0  0  0  0
    2.5167   -6.5913    6.9286 C   0  0  0  0  0  0  0  0  0  0  0  0
    1.3855   -4.3558    4.7545 C   0  0  0  0  0  0  0  0  0  0  0  0
    0.9702   -4.0845    3.4464 C   0  0  0  0  0  0  0  0  0  0  0  0
    0.7539   -5.8144    0.6377 C   0  0  0  0  0  0  0  0  0  0  0  0
   -0.5549   -6.1630    1.0428 C   0  0  0  0  0  0  0  0  0  0  0  0
   -1.0603   -7.4427    0.8020 C   0  0  0  0  0  0  0  0  0  0  0  0
   -0.2608   -8.4219    0.2034 C   0  0  0  0  0  0  0  0  0  0  0  0
   -0.8170   -9.7913   -0.0984 C   0  0  0  0  0  0  0  0  0  0  0  0
   -1.0582   -9.9688   -1.5939 C   0  0  0  0  0  0  0  0  0  0  0  0
    1.0629   -8.1115   -0.1346 C   0  0  0  0  0  0  0  0  0  0  0  0
    1.5679   -6.8239    0.0840 C   0  0  0  0  0  0  0  0  0  0  0  0
    2.3750   -4.0195   -0.1536 C   0  0  0  0  0  0  0  0  0  0  0  0
    3.6407   -3.3341   -0.1923 C   0  0  0  0  0  0  0  0  0  0  0  0
    4.3831   -2.6741    0.8380 C   0  0  0  0  0  0  0  0  0  0  0  0
    5.6002   -2.0651    0.4668 C   0  0  0  0  0  0  0  0  0  0  0  0
    6.6222   -1.1028    1.4052 S   0  0  0  0  0  0  0  0  0  0  0  0
    3.8125   -2.2817    2.1417 C   0  0  0  0  0  0  0  0  0  0  0  0
    4.4161   -2.4857    3.3793 C   0  0  0  0  0  0  0  0  0  0  0  0
    3.7249   -1.8995    4.4432 C   0  0  0  0  0  0  0  0  0  0  0  0
    2.6019   -1.1823    4.0405 C   0  0  0  0  0  0  0  0  0  0  0  0
    1.5757   -0.5785    4.9518 C   0  0  0  0  0  0  0  0  0  0  0  0
    2.2070    0.3788    5.9595 C   0  0  0  0  0  0  0  0  0  0  0  0
    2.4663   -1.2856    2.3627 S   0  0  0  0  0  0  0  0  0  0  0  0
   -3.6305   -0.6583    1.6001 S   0  0  0  0  0  0  0  0  0  0  0  0
   -4.7217    0.2816    0.6982 C   0  0  0  0  0  0  0  0  0  0  0  0
   -5.7052    1.1475    1.2133 C   0  0  0  0  0  0  0  0  0  0  0  0
   -5.7214    1.4779    2.6521 C   0  0  0  0  0  0  0  0  0  0  0  0
   -4.6287    1.9656    3.3616 C   0  0  0  0  0  0  0  0  0  0  0  0
   -4.9159    2.2447    4.7001 C   0  0  0  0  0  0  0  0  0  0  0  0
   -6.2308    1.9679    5.0461 C   0  0  0  0  0  0  0  0  0  0  0  0
   -6.8672    2.3079    6.3571 C   0  0  0  0  0  0  0  0  0  0  0  0
   -7.2434    3.7846    6.4020 C   0  0  0  0  0  0  0  0  0  0  0  0
   -7.0519    1.3997    3.6844 S   0  0  0  0  0  0  0  0  0  0  0  0
   -6.5546    1.7780    0.2820 C   0  0  0  0  0  0  0  0  0  0  0  0
   -7.6299    2.6403    0.5655 C   0  0  0  0  0  0  0  0  0  0  0  0
   -8.2786    3.0916   -0.5816 C   0  0  0  0  0  0  0  0  0  0  0  0
   -7.5467    2.4271   -1.9393 S   0  0  0  0  0  0  0  0  0  0  0  0
   -6.3680    1.5795   -1.0913 C   0  0  0  0  0  0  0  0  0  0  0  0
   -5.3295    0.7874   -1.6180 C   0  0  0  0  0  0  0  0  0  0  0  0
   -5.2133    0.6546   -3.0782 C   0  0  0  0  0  0  0  0  0  0  0  0
   -6.0788   -0.1046   -3.8597 C   0  0  0  0  0  0  0  0  0  0  0  0
   -6.0173    0.2083   -5.2228 C   0  0  0  0  0  0  0  0  0  0  0  0
   -5.1230    1.2358   -5.5113 C   0  0  0  0  0  0  0  0  0  0  0  0
   -4.8615    1.8134   -6.8678 C   0  0  0  0  0  0  0  0  0  0  0  0
   -3.4408    1.5024   -7.3267 C   0  0  0  0  0  0  0  0  0  0  0  0
   -4.4492    1.7805   -4.0680 S   0  0  0  0  0  0  0  0  0  0  0  0
   -4.4999    0.1132   -0.6906 C   0  0  0  0  0  0  0  0  0  0  0  0
   -9.5233    3.8790   -0.6418 C   0  0  0  0  0  0  0  0  0  0  0  0
   -9.7151    5.0639   -0.0341 C   0  0  0  0  0  0  0  0  0  0  0  0
   -8.6721    5.8738    0.6142 C   0  0  0  0  0  0  0  0  0  0  0  0
   -7.5579    5.4694    1.0456 O   0  0  0  0  0  0  0  0  0  0  0  0
   -9.0980    7.2564    0.6046 C   0  0  0  0  0  0  0  0  0  0  0  0
   -8.3894    8.3742    1.0451 C   0  0  0  0  0  0  0  0  0  0  0  0
   -8.9688    9.6401    0.8774 C   0  0  0  0  0  0  0  0  0  0  0  0
  -10.2289    9.7651    0.2687 C   0  0  0  0  0  0  0  0  0  0  0  0
  -10.7752   10.9937    0.1000 F   0  0  0  0  0  0  0  0  0  0  0  0
  -10.9321    8.6255   -0.1590 C   0  0  0  0  0  0  0  0  0  0  0  0
  -10.3516    7.3583    0.0238 C   0  0  0  0  0  0  0  0  0  0  0  0
  -10.8473    5.9967   -0.3096 C   0  0  0  0  0  0  0  0  0  0  0  0
  -12.1105    5.6440   -0.6606 C   0  0  0  0  0  0  0  0  0  0  0  0
  -12.5674    4.2750   -0.5993 C   0  0  0  0  0  0  0  0  0  0  0  0
  -12.9513    3.1838   -0.5545 N   0  0  0  0  0  0  0  0  0  0  0  0
  -13.1002    6.6017   -1.0734 C   0  0  0  0  0  0  0  0  0  0  0  0
  -13.8976    7.3635   -1.4369 N   0  0  0  0  0  0  0  0  0  0  0  0
    9.7331   -0.2020   -0.1844 H   0  0  0  0  0  0  0  0  0  0  0  0
    6.5697    3.6352    3.6744 H   0  0  0  0  0  0  0  0  0  0  0  0
   11.6492    3.7944    3.1320 H   0  0  0  0  0  0  0  0  0  0  0  0
   10.5102    6.2132    5.3517 H   0  0  0  0  0  0  0  0  0  0  0  0
   11.5424    3.9774    6.6615 H   0  0  0  0  0  0  0  0  0  0  0  0
   10.9277    5.6742    8.6219 H   0  0  0  0  0  0  0  0  0  0  0  0
    8.3368    5.7425    8.8582 H   0  0  0  0  0  0  0  0  0  0  0  0
    7.2933    4.0632    7.0760 H   0  0  0  0  0  0  0  0  0  0  0  0
    9.3201    2.6414    6.0484 H   0  0  0  0  0  0  0  0  0  0  0  0
    9.4875    2.7803    7.8425 H   0  0  0  0  0  0  0  0  0  0  0  0
    8.1199    6.2329    5.5658 H   0  0  0  0  0  0  0  0  0  0  0  0
    7.7047   -1.0836   -1.9767 H   0  0  0  0  0  0  0  0  0  0  0  0
    7.6462   -3.4927   -3.1704 H   0  0  0  0  0  0  0  0  0  0  0  0
    7.9121   -3.2210   -5.7262 H   0  0  0  0  0  0  0  0  0  0  0  0
    4.8554   -2.4322   -7.5726 H   0  0  0  0  0  0  0  0  0  0  0  0
    6.6363   -2.4347   -7.8042 H   0  0  0  0  0  0  0  0  0  0  0  0
    6.7064    0.0213   -7.2295 H   0  0  0  0  0  0  0  0  0  0  0  0
    4.8983    0.0094   -7.0562 H   0  0  0  0  0  0  0  0  0  0  0  0
    5.6562   -0.3332   -8.6610 H   0  0  0  0  0  0  0  0  0  0  0  0
   -0.1486   -2.5821   -2.9968 H   0  0  0  0  0  0  0  0  0  0  0  0
   -0.6374   -0.7872   -4.2048 H   0  0  0  0  0  0  0  0  0  0  0  0
    0.6977    1.1273   -4.8740 H   0  0  0  0  0  0  0  0  0  0  0  0
    1.0492    3.5639   -4.8306 H   0  0  0  0  0  0  0  0  0  0  0  0
    0.1821    4.5785   -3.6365 H   0  0  0  0  0  0  0  0  0  0  0  0
    2.6030    2.7491   -3.0425 H   0  0  0  0  0  0  0  0  0  0  0  0
    2.6064    4.5563   -3.1422 H   0  0  0  0  0  0  0  0  0  0  0  0
    1.7128    3.7286   -1.8097 H   0  0  0  0  0  0  0  0  0  0  0  0
   -1.1001    3.4923   -1.7656 H   0  0  0  0  0  0  0  0  0  0  0  0
   -2.4043    1.6061   -1.0519 H   0  0  0  0  0  0  0  0  0  0  0  0
   -2.8503   -0.6187   -4.9041 H   0  0  0  0  0  0  0  0  0  0  0  0
   -4.0103   -2.0416   -6.4676 H   0  0  0  0  0  0  0  0  0  0  0  0
   -5.7321   -3.7606   -6.8232 H   0  0  0  0  0  0  0  0  0  0  0  0
   -6.2387   -4.8272   -5.4747 H   0  0  0  0  0  0  0  0  0  0  0  0
   -3.6016   -5.0367   -7.0699 H   0  0  0  0  0  0  0  0  0  0  0  0
   -4.0493   -6.0854   -5.6636 H   0  0  0  0  0  0  0  0  0  0  0  0
   -5.0283   -6.1381   -7.1769 H   0  0  0  0  0  0  0  0  0  0  0  0
   -5.0178   -4.7724   -3.2977 H   0  0  0  0  0  0  0  0  0  0  0  0
   -3.8035   -3.3847   -1.7047 H   0  0  0  0  0  0  0  0  0  0  0  0
   -1.1951   -2.8332    1.8854 H   0  0  0  0  0  0  0  0  0  0  0  0
    3.5679   -5.5387    1.7941 H   0  0  0  0  0  0  0  0  0  0  0  0
    4.2809   -5.9986    4.0711 H   0  0  0  0  0  0  0  0  0  0  0  0
    4.1783   -5.3053    6.4351 H   0  0  0  0  0  0  0  0  0  0  0  0
    2.7472   -4.4421    7.0733 H   0  0  0  0  0  0  0  0  0  0  0  0
    2.8188   -7.4277    6.2622 H   0  0  0  0  0  0  0  0  0  0  0  0
    2.9204   -6.7853    7.9431 H   0  0  0  0  0  0  0  0  0  0  0  0
    1.4085   -6.5556    6.9855 H   0  0  0  0  0  0  0  0  0  0  0  0
    0.7578   -4.0556    5.5861 H   0  0  0  0  0  0  0  0  0  0  0  0
    0.0123   -3.6269    3.3347 H   0  0  0  0  0  0  0  0  0  0  0  0
   -1.1943   -5.4363    1.5237 H   0  0  0  0  0  0  0  0  0  0  0  0
   -2.0821   -7.6649    1.0811 H   0  0  0  0  0  0  0  0  0  0  0  0
   -0.1052  -10.5658    0.2557 H   0  0  0  0  0  0  0  0  0  0  0  0
   -1.7762   -9.9481    0.4381 H   0  0  0  0  0  0  0  0  0  0  0  0
   -1.5143  -10.9620   -1.7822 H   0  0  0  0  0  0  0  0  0  0  0  0
   -1.7489   -9.1822   -1.9674 H   0  0  0  0  0  0  0  0  0  0  0  0
   -0.0966   -9.9094   -2.1510 H   0  0  0  0  0  0  0  0  0  0  0  0
    1.6994   -8.8632   -0.5813 H   0  0  0  0  0  0  0  0  0  0  0  0
    2.5950   -6.6270   -0.1914 H   0  0  0  0  0  0  0  0  0  0  0  0
    5.3133   -3.0759    3.5131 H   0  0  0  0  0  0  0  0  0  0  0  0
    4.0142   -2.0314    5.4752 H   0  0  0  0  0  0  0  0  0  0  0  0
    0.8192   -0.0321    4.3533 H   0  0  0  0  0  0  0  0  0  0  0  0
    1.0552   -1.3918    5.5034 H   0  0  0  0  0  0  0  0  0  0  0  0
    1.4100    0.8594    6.5642 H   0  0  0  0  0  0  0  0  0  0  0  0
    2.7778    1.1716    5.4305 H   0  0  0  0  0  0  0  0  0  0  0  0
    2.8859   -0.1659    6.6492 H   0  0  0  0  0  0  0  0  0  0  0  0
   -3.6541    2.1370    2.9206 H   0  0  0  0  0  0  0  0  0  0  0  0
   -4.1869    2.6577    5.3897 H   0  0  0  0  0  0  0  0  0  0  0  0
   -6.1583    2.0852    7.1818 H   0  0  0  0  0  0  0  0  0  0  0  0
   -7.7756    1.6864    6.5034 H   0  0  0  0  0  0  0  0  0  0  0  0
   -7.7544    4.0116    7.3637 H   0  0  0  0  0  0  0  0  0  0  0  0
   -7.9336    4.0352    5.5642 H   0  0  0  0  0  0  0  0  0  0  0  0
   -6.3334    4.4188    6.3205 H   0  0  0  0  0  0  0  0  0  0  0  0
   -7.9551    2.9110    1.5595 H   0  0  0  0  0  0  0  0  0  0  0  0
   -6.7712   -0.8320   -3.4506 H   0  0  0  0  0  0  0  0  0  0  0  0
   -6.6199   -0.2875   -5.9726 H   0  0  0  0  0  0  0  0  0  0  0  0
   -5.0125    2.9140   -6.8322 H   0  0  0  0  0  0  0  0  0  0  0  0
   -5.5790    1.3885   -7.6057 H   0  0  0  0  0  0  0  0  0  0  0  0
   -3.2828    1.9021   -8.3520 H   0  0  0  0  0  0  0  0  0  0  0  0
   -3.2738    0.4039   -7.3418 H   0  0  0  0  0  0  0  0  0  0  0  0
   -2.6997    1.9745   -6.6466 H   0  0  0  0  0  0  0  0  0  0  0  0
  -10.2520    3.5356   -1.3602 H   0  0  0  0  0  0  0  0  0  0  0  0
   -7.4140    8.2723    1.5026 H   0  0  0  0  0  0  0  0  0  0  0  0
   -8.4323   10.5255    1.2022 H   0  0  0  0  0  0  0  0  0  0  0  0
  -11.8855    8.7626   -0.6327 H   0  0  0  0  0  0  0  0  0  0  0  0
  1  2  2  3
  2  3  1  0
  3  4  2  0
  3  5  1  0
  5  6  2  0
  6  7  1  0
  7  8  2  0
  8  9  1  0
  9 10  2  0
 10 11  1  0
 11 12  2  3
 12 13  1  0
 13 14  3  0
 12 15  1  0
 15 16  3  0
  8 17  1  0
 17 18  1  0
 18 19  1  0
 19 20  2  0
 20 21  1  0
 21 22  1  0
 21 23  1  0
  1 24  1  0
 24 25  2  0
 25 26  1  0
 26 27  2  0
 27 28  1  0
 28 29  2  0
 29 30  1  0
 30 31  2  0
 31 32  1  0
 32 33  1  0
 31 34  1  0
 27 35  1  0
 35 36  1  0
 36 37  1  0
 37 38  1  0
 38 39  2  0
 39 40  1  0
 40 41  1  0
 41 42  1  0
 42 43  2  0
 43 44  1  0
 44 45  2  0
 45 46  1  0
 46 47  1  0
 45 48  1  0
 48 49  2  0
 41 50  1  0
 50 51  2  0
 51 52  1  0
 52 53  2  0
 53 54  1  0
 54 55  1  0
 53 56  1  0
 56 57  2  0
 41 58  1  0
 58 59  2  0
 59 60  1  0
 60 61  1  0
 61 62  2  0
 62 63  1  0
 63 64  1  0
 64 65  2  0
 65 66  1  0
 66 67  2  0
 67 68  1  0
 68 69  1  0
 67 70  1  0
 70 71  2  0
 63 72  1  0
 72 73  2  0
 73 74  1  0
 74 75  2  0
 75 76  1  0
 76 77  1  0
 75 78  1  0
 78 79  2  0
 63 80  1  0
 80 81  1  0
 81 82  1  0
 82 83  2  0
 83 84  1  0
 82 85  1  0
 85 86  2  0
 86 87  1  0
 87 88  2  0
 88 89  1  0
 89 90  1  0
 88 91  1  0
 59 92  1  0
 92 93  1  0
 93 94  2  0
 94 95  1  0
 95 96  2  0
 96 97  1  0
 97 98  2  0
 98 99  1  0
 99100  1  0
 98101  1  0
 94102  1  0
102103  1  0
103104  2  0
104105  1  0
105106  1  0
106107  1  0
107108  1  0
108109  2  0
109110  1  0
110111  2  0
111112  1  0
112113  1  0
111114  1  0
107115  2  0
104116  1  0
116117  2  3
117118  1  0
118119  2  0
118120  1  0
120121  2  0
121122  1  0
122123  2  0
123124  1  0
123125  1  0
125126  2  0
126127  1  0
127128  2  3
128129  1  0
129130  3  0
128131  1  0
131132  3  0
 11  2  1  0
 23 17  1  0
 84 24  1  0
 91 85  1  0
115 93  1  0
127117  1  0
 10  5  1  0
 22 18  1  0
 83 26  1  0
101 95  1  0
106102  2  0
114108  1  0
126120  1  0
 23  7  1  0
 34 28  1  0
 81 35  2  0
 80 37  2  0
 62 38  1  0
 71 64  1  0
 79 72  1  0
 60 40  2  0
 49 42  1  0
 57 50  1  0
115 58  1  0
  1133  1  0
  6134  1  0
  9135  1  0
 17136  1  0
 18137  1  0
 19138  1  0
 20139  1  0
 21140  1  0
 22141  1  0
 22142  1  0
 23143  1  0
 25144  1  0
 29145  1  0
 30146  1  0
 32147  1  0
 32148  1  0
 33149  1  0
 33150  1  0
 33151  1  0
 39152  1  0
 43153  1  0
 44154  1  0
 46155  1  0
 46156  1  0
 47157  1  0
 47158  1  0
 47159  1  0
 48160  1  0
 49161  1  0
 51162  1  0
 52163  1  0
 54164  1  0
 54165  1  0
 55166  1  0
 55167  1  0
 55168  1  0
 56169  1  0
 57170  1  0
 61171  1  0
 65172  1  0
 66173  1  0
 68174  1  0
 68175  1  0
 69176  1  0
 69177  1  0
 69178  1  0
 70179  1  0
 71180  1  0
 73181  1  0
 74182  1  0
 76183  1  0
 76184  1  0
 77185  1  0
 77186  1  0
 77187  1  0
 78188  1  0
 79189  1  0
 86190  1  0
 87191  1  0
 89192  1  0
 89193  1  0
 90194  1  0
 90195  1  0
 90196  1  0
 96197  1  0
 97198  1  0
 99199  1  0
 99200  1  0
100201  1  0
100202  1  0
100203  1  0
103204  1  0
109205  1  0
110206  1  0
112207  1  0
112208  1  0
113209  1  0
113210  1  0
113211  1  0
116212  1  0
121213  1  0
122214  1  0
125215  1  0
M  END

