
     RDKit          3D

215238  0  0  0  0  0  0  0  0999 V2000
    6.3026    3.7153    3.1553 C   0  0  0  0  0  0  0  0  0  0  0  0
    5.7536    4.4740    2.1762 C   0  0  0  0  0  0  0  0  0  0  0  0
    4.6045    4.0834    1.3577 C   0  0  0  0  0  0  0  0  0  0  0  0
    4.1895    2.9077    1.1757 O   0  0  0  0  0  0  0  0  0  0  0  0
    4.0237    5.2607    0.7582 C   0  0  0  0  0  0  0  0  0  0  0  0
    2.9055    5.3076   -0.1023 C   0  0  0  0  0  0  0  0  0  0  0  0
    2.6033    6.5729   -0.5669 C   0  0  0  0  0  0  0  0  0  0  0  0
    3.3448    7.7387   -0.1936 C   0  0  0  0  0  0  0  0  0  0  0  0
    4.4534    7.6976    0.6417 C   0  0  0  0  0  0  0  0  0  0  0  0
    4.7888    6.3964    1.1274 C   0  0  0  0  0  0  0  0  0  0  0  0
    5.9397    5.9467    1.9719 C   0  0  0  0  0  0  0  0  0  0  0  0
    6.9715    6.7093    2.4126 C   0  0  0  0  0  0  0  0  0  0  0  0
    8.1970    6.1402    2.9002 C   0  0  0  0  0  0  0  0  0  0  0  0
    9.2129    5.7160    3.2688 N   0  0  0  0  0  0  0  0  0  0  0  0
    6.8937    8.1448    2.4749 C   0  0  0  0  0  0  0  0  0  0  0  0
    6.8395    9.2989    2.5561 N   0  0  0  0  0  0  0  0  0  0  0  0
    2.4563    8.5953   -1.0525 C   0  0  0  0  0  0  0  0  0  0  0  0
    3.0272    9.1275   -2.4034 C   0  0  0  0  0  0  0  0  0  0  0  0
    4.0611    8.1624   -2.9350 C   0  0  0  0  0  0  0  0  0  0  0  0
    3.4051    7.0514   -3.2821 C   0  0  0  0  0  0  0  0  0  0  0  0
    1.9460    7.3069   -2.9897 C   0  0  0  0  0  0  0  0  0  0  0  0
    1.8809    8.7822   -3.3441 C   0  0  0  0  0  0  0  0  0  0  0  0
    1.7157    7.3964   -1.4492 C   0  0  0  0  0  0  0  0  0  0  0  0
    5.6603    2.4724    3.6078 C   0  0  0  0  0  0  0  0  0  0  0  0
    5.9563    1.1764    3.1947 C   0  0  0  0  0  0  0  0  0  0  0  0
    4.9593    0.2429    3.5668 C   0  0  0  0  0  0  0  0  0  0  0  0
    4.8605   -1.0805    3.1069 C   0  0  0  0  0  0  0  0  0  0  0  0
    5.9628   -1.7025    2.3435 C   0  0  0  0  0  0  0  0  0  0  0  0
    7.2717   -1.8349    2.7990 C   0  0  0  0  0  0  0  0  0  0  0  0
    8.1228   -2.4470    1.8732 C   0  0  0  0  0  0  0  0  0  0  0  0
    7.4839   -2.7863    0.6873 C   0  0  0  0  0  0  0  0  0  0  0  0
    8.1351   -3.4219   -0.5017 C   0  0  0  0  0  0  0  0  0  0  0  0
    8.7080   -2.3570   -1.4323 C   0  0  0  0  0  0  0  0  0  0  0  0
    5.8669   -2.3187    0.7777 S   0  0  0  0  0  0  0  0  0  0  0  0
    3.6701   -1.7756    3.3961 C   0  0  0  0  0  0  0  0  0  0  0  0
    3.1292   -3.1747    2.6234 S   0  0  0  0  0  0  0  0  0  0  0  0
    1.6425   -3.2106    3.4038 C   0  0  0  0  0  0  0  0  0  0  0  0
    0.3239   -3.2363    2.7653 C   0  0  0  0  0  0  0  0  0  0  0  0
    0.0460   -3.6034    1.4413 C   0  0  0  0  0  0  0  0  0  0  0  0
   -0.8978   -2.8239    0.7482 C   0  0  0  0  0  0  0  0  0  0  0  0
   -1.4955   -2.9857   -0.6577 C   0  0  0  0  0  0  0  0  0  0  0  0
   -0.6081   -3.6856   -1.6984 C   0  0  0  0  0  0  0  0  0  0  0  0
    0.7987   -3.6806   -1.6148 C   0  0  0  0  0  0  0  0  0  0  0  0
    1.5590   -4.5520   -2.4057 C   0  0  0  0  0  0  0  0  0  0  0  0
    0.9341   -5.3917   -3.3421 C   0  0  0  0  0  0  0  0  0  0  0  0
    1.7145   -6.4620   -4.0632 C   0  0  0  0  0  0  0  0  0  0  0  0
    1.4734   -7.8280   -3.4247 C   0  0  0  0  0  0  0  0  0  0  0  0
   -0.4483   -5.2979   -3.5261 C   0  0  0  0  0  0  0  0  0  0  0  0
   -1.2077   -4.4473   -2.7249 C   0  0  0  0  0  0  0  0  0  0  0  0
   -2.7853   -3.8083   -0.4066 C   0  0  0  0  0  0  0  0  0  0  0  0
   -2.6780   -5.1110    0.1259 C   0  0  0  0  0  0  0  0  0  0  0  0
   -3.8099   -5.8034    0.5637 C   0  0  0  0  0  0  0  0  0  0  0  0
   -5.0815   -5.2198    0.4751 C   0  0  0  0  0  0  0  0  0  0  0  0
   -6.2847   -5.9353    1.0345 C   0  0  0  0  0  0  0  0  0  0  0  0
   -6.8116   -6.9752    0.0542 C   0  0  0  0  0  0  0  0  0  0  0  0
   -5.2119   -3.9718   -0.1424 C   0  0  0  0  0  0  0  0  0  0  0  0
   -4.0817   -3.2772   -0.5834 C   0  0  0  0  0  0  0  0  0  0  0  0
   -1.8048   -1.5045   -0.9157 C   0  0  0  0  0  0  0  0  0  0  0  0
   -1.9714   -0.8889    0.2928 C   0  0  0  0  0  0  0  0  0  0  0  0
   -1.4328   -1.6899    1.3552 C   0  0  0  0  0  0  0  0  0  0  0  0
   -1.2586   -1.4026    2.7099 C   0  0  0  0  0  0  0  0  0  0  0  0
   -0.4686   -2.3027    3.4555 C   0  0  0  0  0  0  0  0  0  0  0  0
    0.1251   -2.1628    4.8493 C   0  0  0  0  0  0  0  0  0  0  0  0
   -0.2928   -1.0600    5.8142 C   0  0  0  0  0  0  0  0  0  0  0  0
    0.5086   -0.8394    6.9548 C   0  0  0  0  0  0  0  0  0  0  0  0
    0.0606   -0.0284    8.0019 C   0  0  0  0  0  0  0  0  0  0  0  0
   -1.1954    0.5818    7.9348 C   0  0  0  0  0  0  0  0  0  0  0  0
   -1.6788    1.4558    9.0577 C   0  0  0  0  0  0  0  0  0  0  0  0
   -2.4977    0.6427   10.0586 C   0  0  0  0  0  0  0  0  0  0  0  0
   -2.0361    0.2982    6.8498 C   0  0  0  0  0  0  0  0  0  0  0  0
   -1.6076   -0.5521    5.8291 C   0  0  0  0  0  0  0  0  0  0  0  0
   -0.2178   -3.4595    5.6260 C   0  0  0  0  0  0  0  0  0  0  0  0
   -1.5340   -3.9647    5.6223 C   0  0  0  0  0  0  0  0  0  0  0  0
   -1.8483   -5.1509    6.2926 C   0  0  0  0  0  0  0  0  0  0  0  0
   -0.8610   -5.8505    7.0001 C   0  0  0  0  0  0  0  0  0  0  0  0
   -1.1942   -7.1338    7.7170 C   0  0  0  0  0  0  0  0  0  0  0  0
   -1.3907   -6.8909    9.2109 C   0  0  0  0  0  0  0  0  0  0  0  0
    0.4376   -5.3235    7.0621 C   0  0  0  0  0  0  0  0  0  0  0  0
    0.7541   -4.1351    6.3962 C   0  0  0  0  0  0  0  0  0  0  0  0
    1.5772   -2.2028    4.3603 C   0  0  0  0  0  0  0  0  0  0  0  0
    2.6356   -1.2456    4.1992 C   0  0  0  0  0  0  0  0  0  0  0  0
    2.6968    0.1411    4.5467 C   0  0  0  0  0  0  0  0  0  0  0  0
    3.9034    0.8164    4.2785 C   0  0  0  0  0  0  0  0  0  0  0  0
    4.2045    2.4651    4.4327 S   0  0  0  0  0  0  0  0  0  0  0  0
    1.5087    0.9935    4.7419 C   0  0  0  0  0  0  0  0  0  0  0  0
    0.5376    1.2250    3.7681 C   0  0  0  0  0  0  0  0  0  0  0  0
   -0.3654    2.2362    4.1101 C   0  0  0  0  0  0  0  0  0  0  0  0
   -0.0833    2.8326    5.3334 C   0  0  0  0  0  0  0  0  0  0  0  0
   -0.8390    3.9674    5.9493 C   0  0  0  0  0  0  0  0  0  0  0  0
   -0.2810    5.3013    5.4771 C   0  0  0  0  0  0  0  0  0  0  0  0
    1.3059    2.1401    5.9688 S   0  0  0  0  0  0  0  0  0  0  0  0
   -2.8818    0.5098    0.2079 S   0  0  0  0  0  0  0  0  0  0  0  0
   -3.0483    0.3833   -1.4809 C   0  0  0  0  0  0  0  0  0  0  0  0
   -3.7075    1.2939   -2.3214 C   0  0  0  0  0  0  0  0  0  0  0  0
   -4.3368    2.5073   -1.7772 C   0  0  0  0  0  0  0  0  0  0  0  0
   -3.9634    3.8085   -2.0892 C   0  0  0  0  0  0  0  0  0  0  0  0
   -4.7072    4.7767   -1.4077 C   0  0  0  0  0  0  0  0  0  0  0  0
   -5.6647    4.2315   -0.5607 C   0  0  0  0  0  0  0  0  0  0  0  0
   -6.6021    5.0064    0.3163 C   0  0  0  0  0  0  0  0  0  0  0  0
   -5.8332    5.7819    1.3833 C   0  0  0  0  0  0  0  0  0  0  0  0
   -5.5820    2.5522   -0.6466 S   0  0  0  0  0  0  0  0  0  0  0  0
   -3.6301    1.0588   -3.7061 C   0  0  0  0  0  0  0  0  0  0  0  0
   -4.1920    1.8663   -4.7167 C   0  0  0  0  0  0  0  0  0  0  0  0
   -3.8237    1.4803   -6.0031 C   0  0  0  0  0  0  0  0  0  0  0  0
   -2.7653    0.1813   -5.8690 S   0  0  0  0  0  0  0  0  0  0  0  0
   -2.8343    0.0186   -4.2010 C   0  0  0  0  0  0  0  0  0  0  0  0
   -2.1189   -0.8710   -3.3702 C   0  0  0  0  0  0  0  0  0  0  0  0
   -0.8851   -1.4922   -3.9004 C   0  0  0  0  0  0  0  0  0  0  0  0
    0.3900   -1.1404   -3.4583 C   0  0  0  0  0  0  0  0  0  0  0  0
    1.4142   -1.5279   -4.3247 C   0  0  0  0  0  0  0  0  0  0  0  0
    0.9568   -2.1686   -5.4680 C   0  0  0  0  0  0  0  0  0  0  0  0
    1.7945   -2.5123   -6.6647 C   0  0  0  0  0  0  0  0  0  0  0  0
    2.5775   -3.7986   -6.4429 C   0  0  0  0  0  0  0  0  0  0  0  0
   -0.7189   -2.2685   -5.3918 S   0  0  0  0  0  0  0  0  0  0  0  0
   -2.3417   -0.7405   -1.9772 C   0  0  0  0  0  0  0  0  0  0  0  0
   -4.1215    2.2564   -7.2264 C   0  0  0  0  0  0  0  0  0  0  0  0
   -4.0075    1.7989   -8.4919 C   0  0  0  0  0  0  0  0  0  0  0  0
   -3.6419    0.4444   -8.9198 C   0  0  0  0  0  0  0  0  0  0  0  0
   -3.9830   -0.6275   -8.3522 O   0  0  0  0  0  0  0  0  0  0  0  0
   -3.0214    0.5304  -10.2304 C   0  0  0  0  0  0  0  0  0  0  0  0
   -3.1503    1.8264  -10.6915 C   0  0  0  0  0  0  0  0  0  0  0  0
   -2.4966    2.2299  -11.8641 C   0  0  0  0  0  0  0  0  0  0  0  0
   -1.7536    1.2832  -12.5802 C   0  0  0  0  0  0  0  0  0  0  0  0
   -1.6600   -0.0483  -12.1322 C   0  0  0  0  0  0  0  0  0  0  0  0
   -0.6179   -1.2890  -13.1529 Br  0  0  0  0  0  0  0  0  0  0  0  0
   -2.2965   -0.4388  -10.9359 C   0  0  0  0  0  0  0  0  0  0  0  0
   -2.1433   -2.0788  -10.3120 Cl  0  0  0  0  0  0  0  0  0  0  0  0
   -3.9256    2.6370   -9.7194 C   0  0  0  0  0  0  0  0  0  0  0  0
   -4.7103    3.6974  -10.0258 C   0  0  0  0  0  0  0  0  0  0  0  0
   -5.6506    4.2396   -9.0763 C   0  0  0  0  0  0  0  0  0  0  0  0
   -6.4255    4.6578   -8.3207 N   0  0  0  0  0  0  0  0  0  0  0  0
   -4.9089    4.0891  -11.3966 C   0  0  0  0  0  0  0  0  0  0  0  0
   -5.0956    4.3489  -12.5052 N   0  0  0  0  0  0  0  0  0  0  0  0
    7.0525    4.1174    3.8158 H   0  0  0  0  0  0  0  0  0  0  0  0
    2.3320    4.4376   -0.3906 H   0  0  0  0  0  0  0  0  0  0  0  0
    5.0087    8.5913    0.8395 H   0  0  0  0  0  0  0  0  0  0  0  0
    1.8377    9.3323   -0.4901 H   0  0  0  0  0  0  0  0  0  0  0  0
    3.3394   10.1961   -2.4039 H   0  0  0  0  0  0  0  0  0  0  0  0
    5.1200    8.3508   -3.0760 H   0  0  0  0  0  0  0  0  0  0  0  0
    3.8333    6.1896   -3.7762 H   0  0  0  0  0  0  0  0  0  0  0  0
    1.2363    6.6457   -3.5326 H   0  0  0  0  0  0  0  0  0  0  0  0
    2.1067    8.9875   -4.4189 H   0  0  0  0  0  0  0  0  0  0  0  0
    0.9125    9.2659   -3.0688 H   0  0  0  0  0  0  0  0  0  0  0  0
    0.6467    7.4000   -1.1435 H   0  0  0  0  0  0  0  0  0  0  0  0
    6.7958    0.9435    2.5523 H   0  0  0  0  0  0  0  0  0  0  0  0
    7.6023   -1.5034    3.7750 H   0  0  0  0  0  0  0  0  0  0  0  0
    9.1693   -2.6324    2.0656 H   0  0  0  0  0  0  0  0  0  0  0  0
    7.3867   -4.0312   -1.0542 H   0  0  0  0  0  0  0  0  0  0  0  0
    8.9518   -4.0980   -0.1647 H   0  0  0  0  0  0  0  0  0  0  0  0
    7.9081   -1.6656   -1.7675 H   0  0  0  0  0  0  0  0  0  0  0  0
    9.1433   -2.8441   -2.3267 H   0  0  0  0  0  0  0  0  0  0  0  0
    9.5038   -1.7754   -0.9153 H   0  0  0  0  0  0  0  0  0  0  0  0
    0.6090   -4.3890    0.9571 H   0  0  0  0  0  0  0  0  0  0  0  0
    1.3109   -3.0521   -0.8956 H   0  0  0  0  0  0  0  0  0  0  0  0
    2.6325   -4.5973   -2.2657 H   0  0  0  0  0  0  0  0  0  0  0  0
    1.3920   -6.5112   -5.1262 H   0  0  0  0  0  0  0  0  0  0  0  0
    2.8062   -6.2324   -4.0512 H   0  0  0  0  0  0  0  0  0  0  0  0
    1.6441   -7.7865   -2.3289 H   0  0  0  0  0  0  0  0  0  0  0  0
    0.4300   -8.1508   -3.6275 H   0  0  0  0  0  0  0  0  0  0  0  0
    2.1517   -8.5813   -3.8792 H   0  0  0  0  0  0  0  0  0  0  0  0
   -0.9513   -5.9164   -4.2635 H   0  0  0  0  0  0  0  0  0  0  0  0
   -2.2813   -4.4317   -2.8712 H   0  0  0  0  0  0  0  0  0  0  0  0
   -1.7094   -5.5729    0.2455 H   0  0  0  0  0  0  0  0  0  0  0  0
   -3.6920   -6.7831    1.0082 H   0  0  0  0  0  0  0  0  0  0  0  0
   -6.0069   -6.4385    1.9844 H   0  0  0  0  0  0  0  0  0  0  0  0
   -7.0903   -5.2089    1.2725 H   0  0  0  0  0  0  0  0  0  0  0  0
   -7.1489   -6.4839   -0.8816 H   0  0  0  0  0  0  0  0  0  0  0  0
   -6.0168   -7.7135   -0.1799 H   0  0  0  0  0  0  0  0  0  0  0  0
   -7.6706   -7.5152    0.5055 H   0  0  0  0  0  0  0  0  0  0  0  0
   -6.1880   -3.5135   -0.2590 H   0  0  0  0  0  0  0  0  0  0  0  0
   -4.2453   -2.3020   -1.0124 H   0  0  0  0  0  0  0  0  0  0  0  0
   -1.6280   -0.4689    3.1037 H   0  0  0  0  0  0  0  0  0  0  0  0
    1.4774   -1.3092    7.0469 H   0  0  0  0  0  0  0  0  0  0  0  0
    0.7051    0.1292    8.8613 H   0  0  0  0  0  0  0  0  0  0  0  0
   -2.3095    2.2819    8.6556 H   0  0  0  0  0  0  0  0  0  0  0  0
   -0.8155    1.9215    9.5861 H   0  0  0  0  0  0  0  0  0  0  0  0
   -3.4295    0.2802    9.5773 H   0  0  0  0  0  0  0  0  0  0  0  0
   -2.7764    1.2866   10.9185 H   0  0  0  0  0  0  0  0  0  0  0  0
   -1.9107   -0.2222   10.4289 H   0  0  0  0  0  0  0  0  0  0  0  0
   -3.0442    0.6929    6.8200 H   0  0  0  0  0  0  0  0  0  0  0  0
   -2.3383   -0.8619    5.1022 H   0  0  0  0  0  0  0  0  0  0  0  0
   -2.3147   -3.4520    5.0725 H   0  0  0  0  0  0  0  0  0  0  0  0
   -2.8662   -5.5215    6.2612 H   0  0  0  0  0  0  0  0  0  0  0  0
   -0.3857   -7.8768    7.5633 H   0  0  0  0  0  0  0  0  0  0  0  0
   -2.1202   -7.5831    7.3018 H   0  0  0  0  0  0  0  0  0  0  0  0
   -2.2425   -6.2025    9.3876 H   0  0  0  0  0  0  0  0  0  0  0  0
   -1.5896   -7.8629    9.7117 H   0  0  0  0  0  0  0  0  0  0  0  0
   -0.4765   -6.4496    9.6573 H   0  0  0  0  0  0  0  0  0  0  0  0
    1.2129   -5.8385    7.6227 H   0  0  0  0  0  0  0  0  0  0  0  0
    1.7668   -3.7593    6.4607 H   0  0  0  0  0  0  0  0  0  0  0  0
    0.5228    0.7110    2.8177 H   0  0  0  0  0  0  0  0  0  0  0  0
   -1.1794    2.5469    3.4693 H   0  0  0  0  0  0  0  0  0  0  0  0
   -0.7612    3.9026    7.0548 H   0  0  0  0  0  0  0  0  0  0  0  0
   -1.9146    3.8994    5.6764 H   0  0  0  0  0  0  0  0  0  0  0  0
    0.7840    5.4025    5.7825 H   0  0  0  0  0  0  0  0  0  0  0  0
   -0.3563    5.3824    4.3721 H   0  0  0  0  0  0  0  0  0  0  0  0
   -0.8617    6.1314    5.9333 H   0  0  0  0  0  0  0  0  0  0  0  0
   -3.1669    4.0528   -2.7813 H   0  0  0  0  0  0  0  0  0  0  0  0
   -4.5389    5.8411   -1.5185 H   0  0  0  0  0  0  0  0  0  0  0  0
   -7.3102    4.3098    0.8107 H   0  0  0  0  0  0  0  0  0  0  0  0
   -7.1862    5.7180   -0.3043 H   0  0  0  0  0  0  0  0  0  0  0  0
   -5.2428    6.5988    0.9156 H   0  0  0  0  0  0  0  0  0  0  0  0
   -6.5451    6.2301    2.1054 H   0  0  0  0  0  0  0  0  0  0  0  0
   -5.1508    5.1026    1.9362 H   0  0  0  0  0  0  0  0  0  0  0  0
   -4.8249    2.7280   -4.5250 H   0  0  0  0  0  0  0  0  0  0  0  0
    0.5698   -0.5488   -2.5679 H   0  0  0  0  0  0  0  0  0  0  0  0
    2.4536   -1.2911   -4.1530 H   0  0  0  0  0  0  0  0  0  0  0  0
    2.5034   -1.6800   -6.8635 H   0  0  0  0  0  0  0  0  0  0  0  0
    1.1450   -2.6276   -7.5581 H   0  0  0  0  0  0  0  0  0  0  0  0
    3.1734   -3.7411   -5.5069 H   0  0  0  0  0  0  0  0  0  0  0  0
    3.2722   -3.9629   -7.2984 H   0  0  0  0  0  0  0  0  0  0  0  0
    1.8816   -4.6584   -6.3952 H   0  0  0  0  0  0  0  0  0  0  0  0
   -4.3389    3.3025   -7.0684 H   0  0  0  0  0  0  0  0  0  0  0  0
   -2.5164    3.2583  -12.1935 H   0  0  0  0  0  0  0  0  0  0  0  0
   -1.2283    1.5906  -13.4743 H   0  0  0  0  0  0  0  0  0  0  0  0
  1  2  2  3
  2  3  1  0
  3  4  2  0
  3  5  1  0
  5  6  2  0
  6  7  1  0
  7  8  2  0
  8  9  1  0
  9 10  2  0
 10 11  1  0
 11 12  2  3
 12 13  1  0
 13 14  3  0
 12 15  1  0
 15 16  3  0
  8 17  1  0
 17 18  1  0
 18 19  1  0
 19 20  2  0
 20 21  1  0
 21 22  1  0
 21 23  1  0
  1 24  1  0
 24 25  2  0
 25 26  1  0
 26 27  2  0
 27 28  1  0
 28 29  2  0
 29 30  1  0
 30 31  2  0
 31 32  1  0
 32 33  1  0
 31 34  1  0
 27 35  1  0
 35 36  1  0
 36 37  1  0
 37 38  1  0
 38 39  2  0
 39 40  1  0
 40 41  1  0
 41 42  1  0
 42 43  2  0
 43 44  1  0
 44 45  2  0
 45 46  1  0
 46 47  1  0
 45 48  1  0
 48 49  2  0
 41 50  1  0
 50 51  2  0
 51 52  1  0
 52 53  2  0
 53 54  1  0
 54 55  1  0
 53 56  1  0
 56 57  2  0
 41 58  1  0
 58 59  2  0
 59 60  1  0
 60 61  1  0
 61 62  2  0
 62 63  1  0
 63 64  1  0
 64 65  2  0
 65 66  1  0
 66 67  2  0
 67 68  1  0
 68 69  1  0
 67 70  1  0
 70 71  2  0
 63 72  1  0
 72 73  2  0
 73 74  1  0
 74 75  2  0
 75 76  1  0
 76 77  1  0
 75 78  1  0
 78 79  2  0
 63 80  1  0
 80 81  1  0
 81 82  1  0
 82 83  2  0
 83 84  1  0
 82 85  1  0
 85 86  2  0
 86 87  1  0
 87 88  2  0
 88 89  1  0
 89 90  1  0
 88 91  1  0
 59 92  1  0
 92 93  1  0
 93 94  2  0
 94 95  1  0
 95 96  2  0
 96 97  1  0
 97 98  2  0
 98 99  1  0
 99100  1  0
 98101  1  0
 94102  1  0
102103  1  0
103104  2  0
104105  1  0
105106  1  0
106107  1  0
107108  1  0
108109  2  0
109110  1  0
110111  2  0
111112  1  0
112113  1  0
111114  1  0
107115  2  0
104116  1  0
116117  2  3
117118  1  0
118119  2  0
118120  1  0
120121  2  0
121122  1  0
122123  2  0
123124  1  0
124125  1  0
124126  2  0
126127  1  0
121128  1  0
128129  2  3
129130  1  0
130131  3  0
129132  1  0
132133  3  0
 11  2  1  0
 23 17  1  0
 84 24  1  0
 91 85  1  0
115 93  1  0
128117  1  0
 10  5  1  0
 22 18  1  0
 83 26  1  0
101 95  1  0
106102  2  0
114108  1  0
126120  1  0
 23  7  1  0
 34 28  1  0
 81 35  2  0
 80 37  2  0
 62 38  1  0
 71 64  1  0
 79 72  1  0
 60 40  2  0
 49 42  1  0
 57 50  1  0
115 58  1  0
  1134  1  0
  6135  1  0
  9136  1  0
 17137  1  0
 18138  1  0
 19139  1  0
 20140  1  0
 21141  1  0
 22142  1  0
 22143  1  0
 23144  1  0
 25145  1  0
 29146  1  0
 30147  1  0
 32148  1  0
 32149  1  0
 33150  1  0
 33151  1  0
 33152  1  0
 39153  1  0
 43154  1  0
 44155  1  0
 46156  1  0
 46157  1  0
 47158  1  0
 47159  1  0
 47160  1  0
 48161  1  0
 49162  1  0
 51163  1  0
 52164  1  0
 54165  1  0
 54166  1  0
 55167  1  0
 55168  1  0
 55169  1  0
 56170  1  0
 57171  1  0
 61172  1  0
 65173  1  0
 66174  1  0
 68175  1  0
 68176  1  0
 69177  1  0
 69178  1  0
 69179  1  0
 70180  1  0
 71181  1  0
 73182  1  0
 74183  1  0
 76184  1  0
 76185  1  0
 77186  1  0
 77187  1  0
 77188  1  0
 78189  1  0
 79190  1  0
 86191  1  0
 87192  1  0
 89193  1  0
 89194  1  0
 90195  1  0
 90196  1  0
 90197  1  0
 96198  1  0
 97199  1  0
 99200  1  0
 99201  1  0
100202  1  0
100203  1  0
100204  1  0
103205  1  0
109206  1  0
110207  1  0
112208  1  0
112209  1  0
113210  1  0
113211  1  0
113212  1  0
116213  1  0
122214  1  0
123215  1  0
M  END

