
     RDKit          3D

228254  0  0  0  0  0  0  0  0999 V2000
   -4.5216    3.4319    7.0296 C   0  0  0  0  0  0  0  0  0  0  0  0
   -4.2015    4.7323    7.2034 C   0  0  0  0  0  0  0  0  0  0  0  0
   -3.6838    5.6298    6.1635 C   0  0  0  0  0  0  0  0  0  0  0  0
   -3.9354    5.5662    4.9281 O   0  0  0  0  0  0  0  0  0  0  0  0
   -2.8696    6.6377    6.7917 C   0  0  0  0  0  0  0  0  0  0  0  0
   -1.9960    7.5374    6.1422 C   0  0  0  0  0  0  0  0  0  0  0  0
   -1.1810    8.2409    7.0039 C   0  0  0  0  0  0  0  0  0  0  0  0
   -1.2185    8.0788    8.4278 C   0  0  0  0  0  0  0  0  0  0  0  0
   -2.0837    7.2091    9.0719 C   0  0  0  0  0  0  0  0  0  0  0  0
   -2.9458    6.4862    8.1989 C   0  0  0  0  0  0  0  0  0  0  0  0
   -3.9101    5.3968    8.5112 C   0  0  0  0  0  0  0  0  0  0  0  0
   -4.5767    5.2089    9.6748 C   0  0  0  0  0  0  0  0  0  0  0  0
   -5.7007    4.3141    9.7647 C   0  0  0  0  0  0  0  0  0  0  0  0
   -6.6082    3.6020    9.8478 N   0  0  0  0  0  0  0  0  0  0  0  0
   -4.2952    5.9878   10.8548 C   0  0  0  0  0  0  0  0  0  0  0  0
   -4.0685    6.6106   11.8095 N   0  0  0  0  0  0  0  0  0  0  0  0
   -0.0704    9.0299    8.5793 C   0  0  0  0  0  0  0  0  0  0  0  0
    1.3187    8.3974    8.9072 C   0  0  0  0  0  0  0  0  0  0  0  0
    2.3430    9.4682    8.6102 C   0  0  0  0  0  0  0  0  0  0  0  0
    2.3670    9.6124    7.2803 C   0  0  0  0  0  0  0  0  0  0  0  0
    1.3606    8.6345    6.7256 C   0  0  0  0  0  0  0  0  0  0  0  0
    1.5733    7.4932    7.7102 C   0  0  0  0  0  0  0  0  0  0  0  0
   -0.0336    9.1939    7.1216 C   0  0  0  0  0  0  0  0  0  0  0  0
   -4.2899    2.7376    5.7527 C   0  0  0  0  0  0  0  0  0  0  0  0
   -3.1061    2.8090    5.0178 C   0  0  0  0  0  0  0  0  0  0  0  0
   -3.2329    2.2964    3.7168 C   0  0  0  0  0  0  0  0  0  0  0  0
   -2.3001    2.4865    2.6859 C   0  0  0  0  0  0  0  0  0  0  0  0
   -0.9123    2.8910    2.9866 C   0  0  0  0  0  0  0  0  0  0  0  0
   -0.0872    2.2328    3.8944 C   0  0  0  0  0  0  0  0  0  0  0  0
    1.1697    2.8294    4.0404 C   0  0  0  0  0  0  0  0  0  0  0  0
    1.3270    3.9796    3.2680 C   0  0  0  0  0  0  0  0  0  0  0  0
    2.5521    4.8551    3.1753 C   0  0  0  0  0  0  0  0  0  0  0  0
    3.6082    4.5541    4.2427 C   0  0  0  0  0  0  0  0  0  0  0  0
   -0.0857    4.2202    2.3715 S   0  0  0  0  0  0  0  0  0  0  0  0
   -2.7237    2.1561    1.3901 C   0  0  0  0  0  0  0  0  0  0  0  0
   -1.8853    2.3925   -0.0474 S   0  0  0  0  0  0  0  0  0  0  0  0
   -3.0317    1.6194   -0.9915 C   0  0  0  0  0  0  0  0  0  0  0  0
   -2.7548    0.8162   -2.1387 C   0  0  0  0  0  0  0  0  0  0  0  0
   -1.8583    1.0703   -3.1691 C   0  0  0  0  0  0  0  0  0  0  0  0
   -1.5993    0.0242   -4.0662 C   0  0  0  0  0  0  0  0  0  0  0  0
   -0.6077    0.0236   -5.2119 C   0  0  0  0  0  0  0  0  0  0  0  0
   -1.3991    0.5328   -6.4366 C   0  0  0  0  0  0  0  0  0  0  0  0
   -1.7523   -0.3201   -7.5080 C   0  0  0  0  0  0  0  0  0  0  0  0
   -2.6291    0.1014   -8.5114 C   0  0  0  0  0  0  0  0  0  0  0  0
   -3.2051    1.3761   -8.4615 C   0  0  0  0  0  0  0  0  0  0  0  0
   -4.2420    1.7836   -9.4735 C   0  0  0  0  0  0  0  0  0  0  0  0
   -5.6378    1.3660   -9.0101 C   0  0  0  0  0  0  0  0  0  0  0  0
   -2.8844    2.2276   -7.4010 C   0  0  0  0  0  0  0  0  0  0  0  0
   -1.9968    1.8156   -6.4056 C   0  0  0  0  0  0  0  0  0  0  0  0
    0.6242    0.8549   -4.8093 C   0  0  0  0  0  0  0  0  0  0  0  0
    0.9933    2.0453   -5.4756 C   0  0  0  0  0  0  0  0  0  0  0  0
    1.9996    2.8701   -4.9659 C   0  0  0  0  0  0  0  0  0  0  0  0
    2.6835    2.5166   -3.7960 C   0  0  0  0  0  0  0  0  0  0  0  0
    3.7767    3.3953   -3.2642 C   0  0  0  0  0  0  0  0  0  0  0  0
    5.1471    2.9058   -3.7260 C   0  0  0  0  0  0  0  0  0  0  0  0
    2.3629    1.3167   -3.1504 C   0  0  0  0  0  0  0  0  0  0  0  0
    1.3416    0.5012   -3.6423 C   0  0  0  0  0  0  0  0  0  0  0  0
   -0.3378   -1.4872   -5.2812 C   0  0  0  0  0  0  0  0  0  0  0  0
   -1.3460   -2.1750   -4.6194 C   0  0  0  0  0  0  0  0  0  0  0  0
   -2.1441   -1.2364   -3.8578 C   0  0  0  0  0  0  0  0  0  0  0  0
   -3.0859   -1.4769   -2.8447 C   0  0  0  0  0  0  0  0  0  0  0  0
   -3.4210   -0.3908   -2.0062 C   0  0  0  0  0  0  0  0  0  0  0  0
   -4.3711   -0.3586   -0.8053 C   0  0  0  0  0  0  0  0  0  0  0  0
   -5.8350   -0.3374   -1.3017 C   0  0  0  0  0  0  0  0  0  0  0  0
   -6.8809   -0.9580   -0.5858 C   0  0  0  0  0  0  0  0  0  0  0  0
   -8.1768   -1.0155   -1.1105 C   0  0  0  0  0  0  0  0  0  0  0  0
   -8.4656   -0.4253   -2.3459 C   0  0  0  0  0  0  0  0  0  0  0  0
   -9.8389   -0.5483   -2.9537 C   0  0  0  0  0  0  0  0  0  0  0  0
  -10.8180    0.4339   -2.3221 C   0  0  0  0  0  0  0  0  0  0  0  0
   -7.4632    0.2896   -3.0136 C   0  0  0  0  0  0  0  0  0  0  0  0
   -6.1735    0.3425   -2.4945 C   0  0  0  0  0  0  0  0  0  0  0  0
   -3.9736   -1.5588    0.0880 C   0  0  0  0  0  0  0  0  0  0  0  0
   -4.5110   -2.8439   -0.1612 C   0  0  0  0  0  0  0  0  0  0  0  0
   -4.0409   -3.9690    0.5197 C   0  0  0  0  0  0  0  0  0  0  0  0
   -2.9821   -3.8571    1.4240 C   0  0  0  0  0  0  0  0  0  0  0  0
   -2.4109   -5.0817    2.0915 C   0  0  0  0  0  0  0  0  0  0  0  0
   -1.2019   -5.6073    1.3223 C   0  0  0  0  0  0  0  0  0  0  0  0
   -2.3879   -2.6067    1.6317 C   0  0  0  0  0  0  0  0  0  0  0  0
   -2.8579   -1.4807    0.9559 C   0  0  0  0  0  0  0  0  0  0  0  0
   -4.0040    1.0275   -0.2114 C   0  0  0  0  0  0  0  0  0  0  0  0
   -3.9227    1.4577    1.1391 C   0  0  0  0  0  0  0  0  0  0  0  0
   -4.8661    1.2781    2.1791 C   0  0  0  0  0  0  0  0  0  0  0  0
   -4.4917    1.7405    3.4577 C   0  0  0  0  0  0  0  0  0  0  0  0
   -5.4647    1.9543    4.8316 S   0  0  0  0  0  0  0  0  0  0  0  0
   -6.2806    1.0136    1.9013 C   0  0  0  0  0  0  0  0  0  0  0  0
   -7.1083    0.1694    2.6321 C   0  0  0  0  0  0  0  0  0  0  0  0
   -8.4693    0.3362    2.3369 C   0  0  0  0  0  0  0  0  0  0  0  0
   -8.7091    1.3340    1.4004 C   0  0  0  0  0  0  0  0  0  0  0  0
  -10.0535    1.8407    0.9901 C   0  0  0  0  0  0  0  0  0  0  0  0
  -10.5458    2.9125    1.9554 C   0  0  0  0  0  0  0  0  0  0  0  0
   -7.2382    2.0173    0.9449 S   0  0  0  0  0  0  0  0  0  0  0  0
   -0.7984   -3.6711   -4.1017 S   0  0  0  0  0  0  0  0  0  0  0  0
    0.7486   -3.4911   -4.7652 C   0  0  0  0  0  0  0  0  0  0  0  0
    1.8495   -4.3348   -4.5395 C   0  0  0  0  0  0  0  0  0  0  0  0
    1.7138   -5.5901   -3.7787 C   0  0  0  0  0  0  0  0  0  0  0  0
    1.4030   -5.6894   -2.4304 C   0  0  0  0  0  0  0  0  0  0  0  0
    1.4707   -7.0039   -1.9451 C   0  0  0  0  0  0  0  0  0  0  0  0
    1.8605   -7.9317   -2.9098 C   0  0  0  0  0  0  0  0  0  0  0  0
    2.0071   -9.4216   -2.7509 C   0  0  0  0  0  0  0  0  0  0  0  0
    2.1058   -9.8678   -1.2953 C   0  0  0  0  0  0  0  0  0  0  0  0
    2.1054   -7.1176   -4.3595 S   0  0  0  0  0  0  0  0  0  0  0  0
    3.1114   -3.8459   -4.9116 C   0  0  0  0  0  0  0  0  0  0  0  0
    4.3487   -4.4339   -4.5814 C   0  0  0  0  0  0  0  0  0  0  0  0
    5.4374   -3.6144   -4.8709 C   0  0  0  0  0  0  0  0  0  0  0  0
    4.8786   -2.2516   -5.6806 S   0  0  0  0  0  0  0  0  0  0  0  0
    3.2374   -2.6110   -5.5568 C   0  0  0  0  0  0  0  0  0  0  0  0
    2.1314   -1.8106   -5.9033 C   0  0  0  0  0  0  0  0  0  0  0  0
    2.2864   -0.6813   -6.8437 C   0  0  0  0  0  0  0  0  0  0  0  0
    1.5348   -0.4928   -7.9967 C   0  0  0  0  0  0  0  0  0  0  0  0
    1.9453    0.6025   -8.7656 C   0  0  0  0  0  0  0  0  0  0  0  0
    3.0476    1.2657   -8.2383 C   0  0  0  0  0  0  0  0  0  0  0  0
    3.7752    2.3866   -8.9213 C   0  0  0  0  0  0  0  0  0  0  0  0
    4.7071    3.1468   -7.9786 C   0  0  0  0  0  0  0  0  0  0  0  0
    3.5190    0.4676   -6.8331 S   0  0  0  0  0  0  0  0  0  0  0  0
    0.8658   -2.2362   -5.4074 C   0  0  0  0  0  0  0  0  0  0  0  0
    6.8549   -3.8050   -4.5085 C   0  0  0  0  0  0  0  0  0  0  0  0
    7.3275   -4.3300   -3.3541 C   0  0  0  0  0  0  0  0  0  0  0  0
    6.5297   -4.6774   -2.1610 C   0  0  0  0  0  0  0  0  0  0  0  0
    5.2938   -4.5083   -2.0041 O   0  0  0  0  0  0  0  0  0  0  0  0
    7.4209   -5.0392   -1.0896 C   0  0  0  0  0  0  0  0  0  0  0  0
    7.0416   -5.5617    0.1685 C   0  0  0  0  0  0  0  0  0  0  0  0
    8.1084   -5.8242    1.0024 C   0  0  0  0  0  0  0  0  0  0  0  0
    9.4724   -5.5717    0.6364 C   0  0  0  0  0  0  0  0  0  0  0  0
    9.8487   -5.0917   -0.6070 C   0  0  0  0  0  0  0  0  0  0  0  0
    8.7645   -4.8308   -1.4981 C   0  0  0  0  0  0  0  0  0  0  0  0
    8.7728   -4.4178   -2.9348 C   0  0  0  0  0  0  0  0  0  0  0  0
    9.8749   -4.2409   -3.7174 C   0  0  0  0  0  0  0  0  0  0  0  0
   11.2028   -4.0987   -3.1777 C   0  0  0  0  0  0  0  0  0  0  0  0
   12.2746   -3.9580   -2.7592 N   0  0  0  0  0  0  0  0  0  0  0  0
    9.8183   -4.1975   -5.1505 C   0  0  0  0  0  0  0  0  0  0  0  0
    9.7896   -4.1669   -6.3067 N   0  0  0  0  0  0  0  0  0  0  0  0
    9.9388   -6.0297    1.9881 C   0  0  0  0  0  0  0  0  0  0  0  0
   10.3535   -4.9479    3.0339 C   0  0  0  0  0  0  0  0  0  0  0  0
    9.5394   -3.6883    2.8350 C   0  0  0  0  0  0  0  0  0  0  0  0
    8.2865   -3.9835    3.1822 C   0  0  0  0  0  0  0  0  0  0  0  0
    8.2861   -5.4344    3.5938 C   0  0  0  0  0  0  0  0  0  0  0  0
    9.6471   -5.4924    4.2566 C   0  0  0  0  0  0  0  0  0  0  0  0
    8.5465   -6.3335    2.3470 C   0  0  0  0  0  0  0  0  0  0  0  0
   -4.8202    2.8181    7.8636 H   0  0  0  0  0  0  0  0  0  0  0  0
   -1.9077    7.6099    5.0649 H   0  0  0  0  0  0  0  0  0  0  0  0
   -2.0293    7.0547   10.1357 H   0  0  0  0  0  0  0  0  0  0  0  0
   -0.3208    9.9550    9.1488 H   0  0  0  0  0  0  0  0  0  0  0  0
    1.4091    7.9218    9.9042 H   0  0  0  0  0  0  0  0  0  0  0  0
    2.9960    9.9649    9.3146 H   0  0  0  0  0  0  0  0  0  0  0  0
    3.0627   10.2355    6.7183 H   0  0  0  0  0  0  0  0  0  0  0  0
    1.4913    8.3768    5.6518 H   0  0  0  0  0  0  0  0  0  0  0  0
    0.8455    6.6570    7.6049 H   0  0  0  0  0  0  0  0  0  0  0  0
    2.6068    7.0727    7.6853 H   0  0  0  0  0  0  0  0  0  0  0  0
   -0.2668   10.2186    6.7642 H   0  0  0  0  0  0  0  0  0  0  0  0
   -2.2245    3.3253    5.3774 H   0  0  0  0  0  0  0  0  0  0  0  0
   -0.3788    1.3390    4.4260 H   0  0  0  0  0  0  0  0  0  0  0  0
    1.9359    2.4200    4.6807 H   0  0  0  0  0  0  0  0  0  0  0  0
    3.0090    4.7281    2.1693 H   0  0  0  0  0  0  0  0  0  0  0  0
    2.2436    5.9209    3.2795 H   0  0  0  0  0  0  0  0  0  0  0  0
    4.0295    3.5397    4.0891 H   0  0  0  0  0  0  0  0  0  0  0  0
    4.4351    5.2892    4.1590 H   0  0  0  0  0  0  0  0  0  0  0  0
    3.1705    4.6261    5.2570 H   0  0  0  0  0  0  0  0  0  0  0  0
   -1.3431    2.0191   -3.2361 H   0  0  0  0  0  0  0  0  0  0  0  0
   -1.3971   -1.3378   -7.5667 H   0  0  0  0  0  0  0  0  0  0  0  0
   -2.8922   -0.5786   -9.3102 H   0  0  0  0  0  0  0  0  0  0  0  0
   -4.0258    1.3182  -10.4620 H   0  0  0  0  0  0  0  0  0  0  0  0
   -4.2188    2.8866   -9.6255 H   0  0  0  0  0  0  0  0  0  0  0  0
   -6.3880    1.6678   -9.7756 H   0  0  0  0  0  0  0  0  0  0  0  0
   -5.8917    1.8567   -8.0431 H   0  0  0  0  0  0  0  0  0  0  0  0
   -5.6943    0.2615   -8.8911 H   0  0  0  0  0  0  0  0  0  0  0  0
   -3.3441    3.2042   -7.3261 H   0  0  0  0  0  0  0  0  0  0  0  0
   -1.8005    2.4945   -5.5852 H   0  0  0  0  0  0  0  0  0  0  0  0
    0.5261    2.3368   -6.4013 H   0  0  0  0  0  0  0  0  0  0  0  0
    2.2471    3.7813   -5.4947 H   0  0  0  0  0  0  0  0  0  0  0  0
    3.6331    4.4456   -3.6048 H   0  0  0  0  0  0  0  0  0  0  0  0
    3.7474    3.4151   -2.1541 H   0  0  0  0  0  0  0  0  0  0  0  0
    5.9340    3.5876   -3.3273 H   0  0  0  0  0  0  0  0  0  0  0  0
    5.3376    1.8749   -3.3534 H   0  0  0  0  0  0  0  0  0  0  0  0
    5.2013    2.9074   -4.8359 H   0  0  0  0  0  0  0  0  0  0  0  0
    2.8920    1.0143   -2.2561 H   0  0  0  0  0  0  0  0  0  0  0  0
    1.0927   -0.4029   -3.1010 H   0  0  0  0  0  0  0  0  0  0  0  0
   -3.5002   -2.4619   -2.6858 H   0  0  0  0  0  0  0  0  0  0  0  0
   -6.6952   -1.4222    0.3690 H   0  0  0  0  0  0  0  0  0  0  0  0
   -8.9506   -1.5264   -0.5554 H   0  0  0  0  0  0  0  0  0  0  0  0
   -9.7994   -0.3525   -4.0503 H   0  0  0  0  0  0  0  0  0  0  0  0
  -10.2180   -1.5853   -2.8212 H   0  0  0  0  0  0  0  0  0  0  0  0
  -11.8047    0.3498   -2.8261 H   0  0  0  0  0  0  0  0  0  0  0  0
  -10.4513    1.4781   -2.4257 H   0  0  0  0  0  0  0  0  0  0  0  0
  -10.9549    0.1862   -1.2500 H   0  0  0  0  0  0  0  0  0  0  0  0
   -7.6796    0.7919   -3.9529 H   0  0  0  0  0  0  0  0  0  0  0  0
   -5.4278    0.9020   -3.0479 H   0  0  0  0  0  0  0  0  0  0  0  0
   -5.2696   -2.9911   -0.9201 H   0  0  0  0  0  0  0  0  0  0  0  0
   -4.4754   -4.9361    0.2999 H   0  0  0  0  0  0  0  0  0  0  0  0
   -2.1025   -4.8327    3.1310 H   0  0  0  0  0  0  0  0  0  0  0  0
   -3.1815   -5.8883    2.1586 H   0  0  0  0  0  0  0  0  0  0  0  0
   -0.4350   -4.8078    1.2193 H   0  0  0  0  0  0  0  0  0  0  0  0
   -0.7489   -6.4545    1.8777 H   0  0  0  0  0  0  0  0  0  0  0  0
   -1.5061   -5.9553    0.3152 H   0  0  0  0  0  0  0  0  0  0  0  0
   -1.5247   -2.5154    2.2746 H   0  0  0  0  0  0  0  0  0  0  0  0
   -2.2988   -0.5672    1.0768 H   0  0  0  0  0  0  0  0  0  0  0  0
   -6.7459   -0.5206    3.3821 H   0  0  0  0  0  0  0  0  0  0  0  0
   -9.2534   -0.2189    2.8331 H   0  0  0  0  0  0  0  0  0  0  0  0
  -10.7779    1.0017    0.9779 H   0  0  0  0  0  0  0  0  0  0  0  0
   -9.9882    2.2720   -0.0317 H   0  0  0  0  0  0  0  0  0  0  0  0
  -11.5269    3.2949    1.6131 H   0  0  0  0  0  0  0  0  0  0  0  0
  -10.6685    2.4836    2.9733 H   0  0  0  0  0  0  0  0  0  0  0  0
   -9.8253    3.7599    2.0001 H   0  0  0  0  0  0  0  0  0  0  0  0
    1.1411   -4.8428   -1.8081 H   0  0  0  0  0  0  0  0  0  0  0  0
    1.2358   -7.2518   -0.9173 H   0  0  0  0  0  0  0  0  0  0  0  0
    1.1425   -9.9140   -3.2361 H   0  0  0  0  0  0  0  0  0  0  0  0
    2.9319   -9.7423   -3.2804 H   0  0  0  0  0  0  0  0  0  0  0  0
    2.9361   -9.3333   -0.7834 H   0  0  0  0  0  0  0  0  0  0  0  0
    1.1475   -9.6652   -0.7622 H   0  0  0  0  0  0  0  0  0  0  0  0
    2.3062  -10.9600   -1.2584 H   0  0  0  0  0  0  0  0  0  0  0  0
    4.4439   -5.4025   -4.1052 H   0  0  0  0  0  0  0  0  0  0  0  0
    0.7519   -1.1647   -8.3136 H   0  0  0  0  0  0  0  0  0  0  0  0
    1.4810    0.8744   -9.7060 H   0  0  0  0  0  0  0  0  0  0  0  0
    4.3705    1.9693   -9.7608 H   0  0  0  0  0  0  0  0  0  0  0  0
    3.0358    3.1016   -9.3467 H   0  0  0  0  0  0  0  0  0  0  0  0
    4.1345    3.5664   -7.1267 H   0  0  0  0  0  0  0  0  0  0  0  0
    5.5038    2.4757   -7.5965 H   0  0  0  0  0  0  0  0  0  0  0  0
    5.1887    3.9830   -8.5290 H   0  0  0  0  0  0  0  0  0  0  0  0
    7.5367   -3.3272   -5.1890 H   0  0  0  0  0  0  0  0  0  0  0  0
    6.0164   -5.7457    0.4576 H   0  0  0  0  0  0  0  0  0  0  0  0
   10.8897   -4.9582   -0.8392 H   0  0  0  0  0  0  0  0  0  0  0  0
   10.6004   -6.9268    1.9554 H   0  0  0  0  0  0  0  0  0  0  0  0
   11.4452   -4.7891    3.1327 H   0  0  0  0  0  0  0  0  0  0  0  0
    9.8975   -2.7112    2.5335 H   0  0  0  0  0  0  0  0  0  0  0  0
    7.4452   -3.2932    3.2039 H   0  0  0  0  0  0  0  0  0  0  0  0
    7.4240   -5.7448    4.2255 H   0  0  0  0  0  0  0  0  0  0  0  0
    9.9607   -6.5318    4.5268 H   0  0  0  0  0  0  0  0  0  0  0  0
    9.7342   -4.8309    5.1535 H   0  0  0  0  0  0  0  0  0  0  0  0
    8.3502   -7.4167    2.4977 H   0  0  0  0  0  0  0  0  0  0  0  0
  1  2  2  3
  2  3  1  0
  3  4  2  0
  3  5  1  0
  5  6  2  0
  6  7  1  0
  7  8  2  0
  8  9  1  0
  9 10  2  0
 10 11  1  0
 11 12  2  3
 12 13  1  0
 13 14  3  0
 12 15  1  0
 15 16  3  0
  8 17  1  0
 17 18  1  0
 18 19  1  0
 19 20  2  0
 20 21  1  0
 21 22  1  0
 21 23  1  0
  1 24  1  0
 24 25  2  0
 25 26  1  0
 26 27  2  0
 27 28  1  0
 28 29  2  0
 29 30  1  0
 30 31  2  0
 31 32  1  0
 32 33  1  0
 31 34  1  0
 27 35  1  0
 35 36  1  0
 36 37  1  0
 37 38  1  0
 38 39  2  0
 39 40  1  0
 40 41  1  0
 41 42  1  0
 42 43  2  0
 43 44  1  0
 44 45  2  0
 45 46  1  0
 46 47  1  0
 45 48  1  0
 48 49  2  0
 41 50  1  0
 50 51  2  0
 51 52  1  0
 52 53  2  0
 53 54  1  0
 54 55  1  0
 53 56  1  0
 56 57  2  0
 41 58  1  0
 58 59  2  0
 59 60  1  0
 60 61  1  0
 61 62  2  0
 62 63  1  0
 63 64  1  0
 64 65  2  0
 65 66  1  0
 66 67  2  0
 67 68  1  0
 68 69  1  0
 67 70  1  0
 70 71  2  0
 63 72  1  0
 72 73  2  0
 73 74  1  0
 74 75  2  0
 75 76  1  0
 76 77  1  0
 75 78  1  0
 78 79  2  0
 63 80  1  0
 80 81  1  0
 81 82  1  0
 82 83  2  0
 83 84  1  0
 82 85  1  0
 85 86  2  0
 86 87  1  0
 87 88  2  0
 88 89  1  0
 89 90  1  0
 88 91  1  0
 59 92  1  0
 92 93  1  0
 93 94  2  0
 94 95  1  0
 95 96  2  0
 96 97  1  0
 97 98  2  0
 98 99  1  0
 99100  1  0
 98101  1  0
 94102  1  0
102103  1  0
103104  2  0
104105  1  0
105106  1  0
106107  1  0
107108  1  0
108109  2  0
109110  1  0
110111  2  0
111112  1  0
112113  1  0
111114  1  0
107115  2  0
104116  1  0
116117  2  3
117118  1  0
118119  2  0
118120  1  0
120121  2  0
121122  1  0
122123  2  0
123124  1  0
124125  2  0
125126  1  0
126127  2  3
127128  1  0
128129  3  0
127130  1  0
130131  3  0
123132  1  0
132133  1  0
133134  1  0
134135  2  0
135136  1  0
136137  1  0
136138  1  0
 11  2  1  0
 23 17  1  0
 84 24  1  0
 91 85  1  0
115 93  1  0
126117  1  0
138132  1  0
 10  5  1  0
 22 18  1  0
 83 26  1  0
101 95  1  0
106102  2  0
114108  1  0
125120  1  0
137133  1  0
 23  7  1  0
 34 28  1  0
 81 35  2  0
138122  1  0
 80 37  2  0
 62 38  1  0
 71 64  1  0
 79 72  1  0
 60 40  2  0
 49 42  1  0
 57 50  1  0
115 58  1  0
  1139  1  0
  6140  1  0
  9141  1  0
 17142  1  0
 18143  1  0
 19144  1  0
 20145  1  0
 21146  1  0
 22147  1  0
 22148  1  0
 23149  1  0
 25150  1  0
 29151  1  0
 30152  1  0
 32153  1  0
 32154  1  0
 33155  1  0
 33156  1  0
 33157  1  0
 39158  1  0
 43159  1  0
 44160  1  0
 46161  1  0
 46162  1  0
 47163  1  0
 47164  1  0
 47165  1  0
 48166  1  0
 49167  1  0
 51168  1  0
 52169  1  0
 54170  1  0
 54171  1  0
 55172  1  0
 55173  1  0
 55174  1  0
 56175  1  0
 57176  1  0
 61177  1  0
 65178  1  0
 66179  1  0
 68180  1  0
 68181  1  0
 69182  1  0
 69183  1  0
 69184  1  0
 70185  1  0
 71186  1  0
 73187  1  0
 74188  1  0
 76189  1  0
 76190  1  0
 77191  1  0
 77192  1  0
 77193  1  0
 78194  1  0
 79195  1  0
 86196  1  0
 87197  1  0
 89198  1  0
 89199  1  0
 90200  1  0
 90201  1  0
 90202  1  0
 96203  1  0
 97204  1  0
 99205  1  0
 99206  1  0
100207  1  0
100208  1  0
100209  1  0
103210  1  0
109211  1  0
110212  1  0
112213  1  0
112214  1  0
113215  1  0
113216  1  0
113217  1  0
116218  1  0
121219  1  0
124220  1  0
132221  1  0
133222  1  0
134223  1  0
135224  1  0
136225  1  0
137226  1  0
137227  1  0
138228  1  0
M  END

