
     RDKit          3D

144160  0  0  0  0  0  0  0  0999 V2000
   -3.9759   -1.0465   -4.5285 C   0  0  0  0  0  0  0  0  0  0  0  0
   -4.0943   -2.3699   -4.3038 C   0  0  0  0  0  0  0  0  0  0  0  0
   -3.9333   -3.0071   -2.9838 C   0  0  0  0  0  0  0  0  0  0  0  0
   -3.6096   -2.4291   -1.9125 O   0  0  0  0  0  0  0  0  0  0  0  0
   -4.2158   -4.4174   -3.1024 C   0  0  0  0  0  0  0  0  0  0  0  0
   -4.1634   -5.3830   -2.0671 C   0  0  0  0  0  0  0  0  0  0  0  0
   -4.3631   -6.6791   -2.5016 C   0  0  0  0  0  0  0  0  0  0  0  0
   -4.5665   -7.0171   -3.8786 C   0  0  0  0  0  0  0  0  0  0  0  0
   -4.6335   -6.0697   -4.8926 C   0  0  0  0  0  0  0  0  0  0  0  0
   -4.5035   -4.7190   -4.4568 C   0  0  0  0  0  0  0  0  0  0  0  0
   -4.5005   -3.4546   -5.2585 C   0  0  0  0  0  0  0  0  0  0  0  0
   -4.7965   -3.3362   -6.5804 C   0  0  0  0  0  0  0  0  0  0  0  0
   -4.5792   -2.1287   -7.3336 C   0  0  0  0  0  0  0  0  0  0  0  0
   -4.4118   -1.1721   -7.9633 N   0  0  0  0  0  0  0  0  0  0  0  0
   -5.3907   -4.4053   -7.3426 C   0  0  0  0  0  0  0  0  0  0  0  0
   -5.8679   -5.2481   -7.9767 N   0  0  0  0  0  0  0  0  0  0  0  0
   -4.5842   -8.4773   -3.5329 C   0  0  0  0  0  0  0  0  0  0  0  0
   -3.3075   -9.3219   -3.8366 C   0  0  0  0  0  0  0  0  0  0  0  0
   -2.0661   -8.4669   -3.7080 C   0  0  0  0  0  0  0  0  0  0  0  0
   -1.9372   -8.1739   -2.4132 C   0  0  0  0  0  0  0  0  0  0  0  0
   -3.1001   -8.8256   -1.7045 C   0  0  0  0  0  0  0  0  0  0  0  0
   -3.2014  -10.0926   -2.5330 C   0  0  0  0  0  0  0  0  0  0  0  0
   -4.4298   -8.1270   -2.1149 C   0  0  0  0  0  0  0  0  0  0  0  0
   -3.2867   -0.1655   -3.5800 C   0  0  0  0  0  0  0  0  0  0  0  0
   -1.6240   -0.2334   -3.2974 S   0  0  0  0  0  0  0  0  0  0  0  0
   -1.6682    0.8222   -1.9991 C   0  0  0  0  0  0  0  0  0  0  0  0
   -0.6254    1.0498   -1.0208 C   0  0  0  0  0  0  0  0  0  0  0  0
   -0.9914    1.4763    0.2467 C   0  0  0  0  0  0  0  0  0  0  0  0
   -2.3201    1.8442    0.5285 O   0  0  0  0  0  0  0  0  0  0  0  0
   -3.2505    2.1590   -0.5453 C   0  0  0  0  0  0  0  0  0  0  0  0
   -2.9722    1.2125   -1.7264 C   0  0  0  0  0  0  0  0  0  0  0  0
   -3.8960    0.6770   -2.6484 C   0  0  0  0  0  0  0  0  0  0  0  0
   -4.6855    1.9900   -0.0489 C   0  0  0  0  0  0  0  0  0  0  0  0
   -5.7549    2.6561   -0.6871 C   0  0  0  0  0  0  0  0  0  0  0  0
   -7.0699    2.4792   -0.2558 C   0  0  0  0  0  0  0  0  0  0  0  0
   -7.3504    1.6257    0.8168 C   0  0  0  0  0  0  0  0  0  0  0  0
   -8.7635    1.4940    1.3173 C   0  0  0  0  0  0  0  0  0  0  0  0
   -9.1527    2.7133    2.1518 C   0  0  0  0  0  0  0  0  0  0  0  0
   -6.3031    0.9312    1.4412 C   0  0  0  0  0  0  0  0  0  0  0  0
   -4.9860    1.0969    0.9996 C   0  0  0  0  0  0  0  0  0  0  0  0
   -2.9988    3.6204   -0.9412 C   0  0  0  0  0  0  0  0  0  0  0  0
   -3.0635    4.0627   -2.2824 C   0  0  0  0  0  0  0  0  0  0  0  0
   -2.8417    5.4059   -2.6032 C   0  0  0  0  0  0  0  0  0  0  0  0
   -2.5484    6.3395   -1.5998 C   0  0  0  0  0  0  0  0  0  0  0  0
   -2.3305    7.7884   -1.9457 C   0  0  0  0  0  0  0  0  0  0  0  0
   -3.6444    8.5623   -1.8899 C   0  0  0  0  0  0  0  0  0  0  0  0
   -2.5170    5.9172   -0.2616 C   0  0  0  0  0  0  0  0  0  0  0  0
   -2.7525    4.5763    0.0644 C   0  0  0  0  0  0  0  0  0  0  0  0
    0.0927    1.4452    1.1142 C   0  0  0  0  0  0  0  0  0  0  0  0
    0.3545    1.7395    2.7661 S   0  0  0  0  0  0  0  0  0  0  0  0
    2.0315    1.4026    2.6342 C   0  0  0  0  0  0  0  0  0  0  0  0
    3.1006    1.3487    3.6297 C   0  0  0  0  0  0  0  0  0  0  0  0
    2.9858    0.9624    5.2622 S   0  0  0  0  0  0  0  0  0  0  0  0
    4.6305    0.5984    5.4486 C   0  0  0  0  0  0  0  0  0  0  0  0
    5.2854    0.8029    4.2330 C   0  0  0  0  0  0  0  0  0  0  0  0
    4.4210    1.1989    3.2016 C   0  0  0  0  0  0  0  0  0  0  0  0
    4.7672    1.3840    1.7134 C   0  0  0  0  0  0  0  0  0  0  0  0
    6.0762    0.6939    1.3241 C   0  0  0  0  0  0  0  0  0  0  0  0
    6.0757   -0.4944    0.5590 C   0  0  0  0  0  0  0  0  0  0  0  0
    7.2779   -1.0639    0.1271 C   0  0  0  0  0  0  0  0  0  0  0  0
    8.5044   -0.4843    0.4765 C   0  0  0  0  0  0  0  0  0  0  0  0
    9.7917   -1.0548   -0.0644 C   0  0  0  0  0  0  0  0  0  0  0  0
   10.0651   -0.5187   -1.4690 C   0  0  0  0  0  0  0  0  0  0  0  0
    8.5170    0.6736    1.2693 C   0  0  0  0  0  0  0  0  0  0  0  0
    7.3179    1.2530    1.6923 C   0  0  0  0  0  0  0  0  0  0  0  0
    4.8483    2.8703    1.3330 C   0  0  0  0  0  0  0  0  0  0  0  0
    5.1421    3.8814    2.2730 C   0  0  0  0  0  0  0  0  0  0  0  0
    5.1578    5.2262    1.8889 C   0  0  0  0  0  0  0  0  0  0  0  0
    4.8907    5.5915    0.5598 C   0  0  0  0  0  0  0  0  0  0  0  0
    4.8389    7.0412    0.1622 C   0  0  0  0  0  0  0  0  0  0  0  0
    3.4763    7.6417    0.5098 C   0  0  0  0  0  0  0  0  0  0  0  0
    4.6231    4.5909   -0.3830 C   0  0  0  0  0  0  0  0  0  0  0  0
    4.6272    3.2476   -0.0090 C   0  0  0  0  0  0  0  0  0  0  0  0
    3.6796    0.8226    0.9498 O   0  0  0  0  0  0  0  0  0  0  0  0
    2.3559    1.0703    1.3305 C   0  0  0  0  0  0  0  0  0  0  0  0
    1.2554    1.0671    0.5051 C   0  0  0  0  0  0  0  0  0  0  0  0
    1.0288    0.6775   -1.1144 S   0  0  0  0  0  0  0  0  0  0  0  0
    5.2363    0.0278    6.6622 C   0  0  0  0  0  0  0  0  0  0  0  0
    6.1626   -0.9492    6.6361 C   0  0  0  0  0  0  0  0  0  0  0  0
    7.1148   -1.2054    7.7305 C   0  0  0  0  0  0  0  0  0  0  0  0
    6.9947   -0.8404    8.9298 O   0  0  0  0  0  0  0  0  0  0  0  0
    8.1856   -2.0177    7.1902 C   0  0  0  0  0  0  0  0  0  0  0  0
    9.2595   -2.7029    7.7531 C   0  0  0  0  0  0  0  0  0  0  0  0
    9.8369   -3.5561    6.8141 C   0  0  0  0  0  0  0  0  0  0  0  0
   11.1792   -4.6384    7.1206 Cl  0  0  0  0  0  0  0  0  0  0  0  0
    8.9934   -3.4803    5.3412 S   0  0  0  0  0  0  0  0  0  0  0  0
    7.9312   -2.2911    5.8838 C   0  0  0  0  0  0  0  0  0  0  0  0
    6.6186   -1.7759    5.4709 C   0  0  0  0  0  0  0  0  0  0  0  0
    5.8561   -2.3140    4.4937 C   0  0  0  0  0  0  0  0  0  0  0  0
    4.4195   -2.3441    4.6086 C   0  0  0  0  0  0  0  0  0  0  0  0
    3.2756   -2.4052    4.7478 N   0  0  0  0  0  0  0  0  0  0  0  0
    6.4397   -3.0572    3.4042 C   0  0  0  0  0  0  0  0  0  0  0  0
    6.9147   -3.6382    2.5241 N   0  0  0  0  0  0  0  0  0  0  0  0
   -4.3139   -0.5886   -5.4330 H   0  0  0  0  0  0  0  0  0  0  0  0
   -3.9644   -5.1384   -1.0316 H   0  0  0  0  0  0  0  0  0  0  0  0
   -4.7266   -6.3816   -5.9165 H   0  0  0  0  0  0  0  0  0  0  0  0
   -5.5467   -8.9818   -3.7693 H   0  0  0  0  0  0  0  0  0  0  0  0
   -3.3568   -9.9430   -4.7566 H   0  0  0  0  0  0  0  0  0  0  0  0
   -1.3523   -8.2237   -4.4882 H   0  0  0  0  0  0  0  0  0  0  0  0
   -1.1038   -7.6430   -1.9630 H   0  0  0  0  0  0  0  0  0  0  0  0
   -2.9619   -8.9761   -0.6159 H   0  0  0  0  0  0  0  0  0  0  0  0
   -2.2894  -10.7348   -2.4672 H   0  0  0  0  0  0  0  0  0  0  0  0
   -4.1022  -10.7129   -2.3048 H   0  0  0  0  0  0  0  0  0  0  0  0
   -5.3140   -8.3828   -1.4872 H   0  0  0  0  0  0  0  0  0  0  0  0
   -4.9679    0.8374   -2.6068 H   0  0  0  0  0  0  0  0  0  0  0  0
   -5.5818    3.3072   -1.5342 H   0  0  0  0  0  0  0  0  0  0  0  0
   -7.8686    3.0185   -0.7562 H   0  0  0  0  0  0  0  0  0  0  0  0
   -9.4622    1.4009    0.4550 H   0  0  0  0  0  0  0  0  0  0  0  0
   -8.8778    0.5775    1.9400 H   0  0  0  0  0  0  0  0  0  0  0  0
   -9.1259    3.6335    1.5276 H   0  0  0  0  0  0  0  0  0  0  0  0
   -8.4538    2.8379    3.0069 H   0  0  0  0  0  0  0  0  0  0  0  0
  -10.1790    2.5746    2.5457 H   0  0  0  0  0  0  0  0  0  0  0  0
   -6.5083    0.2670    2.2700 H   0  0  0  0  0  0  0  0  0  0  0  0
   -4.2029    0.5230    1.4858 H   0  0  0  0  0  0  0  0  0  0  0  0
   -3.2961    3.3794   -3.0915 H   0  0  0  0  0  0  0  0  0  0  0  0
   -2.9065    5.7177   -3.6382 H   0  0  0  0  0  0  0  0  0  0  0  0
   -1.8980    7.8782   -2.9672 H   0  0  0  0  0  0  0  0  0  0  0  0
   -1.6053    8.2449   -1.2353 H   0  0  0  0  0  0  0  0  0  0  0  0
   -4.0745    8.5202   -0.8667 H   0  0  0  0  0  0  0  0  0  0  0  0
   -4.3702    8.1366   -2.6170 H   0  0  0  0  0  0  0  0  0  0  0  0
   -3.4644    9.6247   -2.1521 H   0  0  0  0  0  0  0  0  0  0  0  0
   -2.3127    6.6291    0.5322 H   0  0  0  0  0  0  0  0  0  0  0  0
   -2.7349    4.2885    1.1078 H   0  0  0  0  0  0  0  0  0  0  0  0
    6.3416    0.6223    4.0968 H   0  0  0  0  0  0  0  0  0  0  0  0
    5.1507   -0.9753    0.2680 H   0  0  0  0  0  0  0  0  0  0  0  0
    7.2463   -1.9449   -0.5024 H   0  0  0  0  0  0  0  0  0  0  0  0
   10.6442   -0.7948    0.6030 H   0  0  0  0  0  0  0  0  0  0  0  0
    9.7293   -2.1667   -0.0996 H   0  0  0  0  0  0  0  0  0  0  0  0
   11.0412   -0.9100   -1.8317 H   0  0  0  0  0  0  0  0  0  0  0  0
    9.2690   -0.8541   -2.1632 H   0  0  0  0  0  0  0  0  0  0  0  0
   10.1055    0.5886   -1.4567 H   0  0  0  0  0  0  0  0  0  0  0  0
    9.4535    1.1452    1.5354 H   0  0  0  0  0  0  0  0  0  0  0  0
    7.3608    2.1492    2.3012 H   0  0  0  0  0  0  0  0  0  0  0  0
    5.3391    3.6429    3.3066 H   0  0  0  0  0  0  0  0  0  0  0  0
    5.3650    5.9887    2.6308 H   0  0  0  0  0  0  0  0  0  0  0  0
    5.0107    7.1613   -0.9331 H   0  0  0  0  0  0  0  0  0  0  0  0
    5.6381    7.6045    0.6990 H   0  0  0  0  0  0  0  0  0  0  0  0
    3.2791    7.5492    1.6037 H   0  0  0  0  0  0  0  0  0  0  0  0
    3.4644    8.7144    0.2360 H   0  0  0  0  0  0  0  0  0  0  0  0
    2.6708    7.1214   -0.0550 H   0  0  0  0  0  0  0  0  0  0  0  0
    4.4212    4.8511   -1.4142 H   0  0  0  0  0  0  0  0  0  0  0  0
    4.4291    2.5008   -0.7666 H   0  0  0  0  0  0  0  0  0  0  0  0
    4.9940    0.5044    7.6053 H   0  0  0  0  0  0  0  0  0  0  0  0
    9.5657   -2.6274    8.7859 H   0  0  0  0  0  0  0  0  0  0  0  0
  1  2  2  3
  2  3  1  0
  3  4  2  0
  3  5  1  0
  5  6  2  0
  6  7  1  0
  7  8  2  0
  8  9  1  0
  9 10  2  0
 10 11  1  0
 11 12  2  3
 12 13  1  0
 13 14  3  0
 12 15  1  0
 15 16  3  0
  8 17  1  0
 17 18  1  0
 18 19  1  0
 19 20  2  0
 20 21  1  0
 21 22  1  0
 21 23  1  0
  1 24  1  0
 24 25  1  0
 25 26  1  0
 26 27  1  0
 27 28  2  0
 28 29  1  0
 29 30  1  0
 30 31  1  0
 31 32  1  0
 30 33  1  0
 33 34  2  0
 34 35  1  0
 35 36  2  0
 36 37  1  0
 37 38  1  0
 36 39  1  0
 39 40  2  0
 30 41  1  0
 41 42  2  0
 42 43  1  0
 43 44  2  0
 44 45  1  0
 45 46  1  0
 44 47  1  0
 47 48  2  0
 28 49  1  0
 49 50  1  0
 50 51  1  0
 51 52  1  0
 52 53  1  0
 53 54  1  0
 54 55  2  0
 55 56  1  0
 56 57  1  0
 57 58  1  0
 58 59  2  0
 59 60  1  0
 60 61  2  0
 61 62  1  0
 62 63  1  0
 61 64  1  0
 64 65  2  0
 57 66  1  0
 66 67  2  0
 67 68  1  0
 68 69  2  0
 69 70  1  0
 70 71  1  0
 69 72  1  0
 72 73  2  0
 57 74  1  0
 74 75  1  0
 75 76  1  0
 76 77  1  0
 54 78  1  0
 78 79  2  3
 79 80  1  0
 80 81  2  0
 80 82  1  0
 82 83  1  0
 83 84  2  0
 84 85  1  0
 84 86  1  0
 86 87  1  0
 87 88  1  0
 88 89  2  3
 89 90  1  0
 90 91  3  0
 89 92  1  0
 92 93  3  0
 11  2  1  0
 23 17  1  0
 32 24  2  0
 40 33  1  0
 48 41  1  0
 76 49  2  0
 88 79  1  0
 10  5  1  0
 22 18  1  0
 31 26  2  0
 75 51  2  0
 87 82  2  0
 23  7  1  0
 77 27  1  0
 56 52  2  0
 65 58  1  0
 73 66  1  0
  1 94  1  0
  6 95  1  0
  9 96  1  0
 17 97  1  0
 18 98  1  0
 19 99  1  0
 20100  1  0
 21101  1  0
 22102  1  0
 22103  1  0
 23104  1  0
 32105  1  0
 34106  1  0
 35107  1  0
 37108  1  0
 37109  1  0
 38110  1  0
 38111  1  0
 38112  1  0
 39113  1  0
 40114  1  0
 42115  1  0
 43116  1  0
 45117  1  0
 45118  1  0
 46119  1  0
 46120  1  0
 46121  1  0
 47122  1  0
 48123  1  0
 55124  1  0
 59125  1  0
 60126  1  0
 62127  1  0
 62128  1  0
 63129  1  0
 63130  1  0
 63131  1  0
 64132  1  0
 65133  1  0
 67134  1  0
 68135  1  0
 70136  1  0
 70137  1  0
 71138  1  0
 71139  1  0
 71140  1  0
 72141  1  0
 73142  1  0
 78143  1  0
 83144  1  0
M  END

