
     RDKit          3D

158176  0  0  0  0  0  0  0  0999 V2000
   -2.1318   -6.8183    0.2890 C   0  0  0  0  0  0  0  0  0  0  0  0
   -2.5261   -6.3994   -1.0913 C   0  0  0  0  0  0  0  0  0  0  0  0
   -2.2264   -5.1942   -1.6160 C   0  0  0  0  0  0  0  0  0  0  0  0
   -2.1658   -4.0207   -1.0272 O   0  0  0  0  0  0  0  0  0  0  0  0
   -1.9912   -5.4110   -3.0187 C   0  0  0  0  0  0  0  0  0  0  0  0
   -1.5161   -4.5516   -4.0238 C   0  0  0  0  0  0  0  0  0  0  0  0
   -1.2082   -4.9552   -5.2450 C   0  0  0  0  0  0  0  0  0  0  0  0
   -1.3893   -6.3033   -5.5376 C   0  0  0  0  0  0  0  0  0  0  0  0
   -1.8855   -7.1961   -4.5611 C   0  0  0  0  0  0  0  0  0  0  0  0
   -2.1391   -6.6589   -3.3215 C   0  0  0  0  0  0  0  0  0  0  0  0
   -2.5922   -7.5550   -1.8668 C   0  0  0  0  0  0  0  0  0  0  0  0
   -2.9568   -8.5838   -2.4740 C   0  0  0  0  0  0  0  0  0  0  0  0
   -1.3072   -9.0366   -3.0540 C   0  0  0  0  0  0  0  0  0  0  0  0
   -0.3165   -9.3007   -3.4037 N   0  0  0  0  0  0  0  0  0  0  0  0
   -3.6420   -9.3086   -2.9234 C   0  0  0  0  0  0  0  0  0  0  0  0
   -4.5762  -10.3108   -3.5650 N   0  0  0  0  0  0  0  0  0  0  0  0
   -0.8307   -6.1842   -6.8894 C   0  0  0  0  0  0  0  0  0  0  0  0
    0.6166   -6.6599   -6.9995 C   0  0  0  0  0  0  0  0  0  0  0  0
    1.2190   -6.1110   -8.2096 C   0  0  0  0  0  0  0  0  0  0  0  0
    1.2736   -4.7767   -8.0251 C   0  0  0  0  0  0  0  0  0  0  0  0
    0.7733   -4.4659   -6.7149 C   0  0  0  0  0  0  0  0  0  0  0  0
    1.2529   -5.7194   -5.9347 C   0  0  0  0  0  0  0  0  0  0  0  0
   -0.7171   -4.7256   -6.6528 C   0  0  0  0  0  0  0  0  0  0  0  0
   -1.3072   -5.7441    0.8458 C   0  0  0  0  0  0  0  0  0  0  0  0
   -1.0073   -4.9829    1.7695 C   0  0  0  0  0  0  0  0  0  0  0  0
   -0.1281   -3.9289    1.7650 C   0  0  0  0  0  0  0  0  0  0  0  0
    0.4941   -2.9211    2.7443 C   0  0  0  0  0  0  0  0  0  0  0  0
    1.8941   -3.3685    3.0979 C   0  0  0  0  0  0  0  0  0  0  0  0
    2.2439   -4.5409    3.6565 C   0  0  0  0  0  0  0  0  0  0  0  0
    3.5471   -4.9628    3.9834 C   0  0  0  0  0  0  0  0  0  0  0  0
    4.5824   -4.0088    3.6457 C   0  0  0  0  0  0  0  0  0  0  0  0
    6.0053   -4.3875    3.8780 C   0  0  0  0  0  0  0  0  0  0  0  0
    6.5980   -4.8465    2.5529 C   0  0  0  0  0  0  0  0  0  0  0  0
    4.2285   -2.8750    3.1062 C   0  0  0  0  0  0  0  0  0  0  0  0
    2.9444   -2.4643    2.7983 C   0  0  0  0  0  0  0  0  0  0  0  0
   -0.3801   -2.6804    3.8955 C   0  0  0  0  0  0  0  0  0  0  0  0
   -1.5613   -1.9925    3.7505 C   0  0  0  0  0  0  0  0  0  0  0  0
   -2.3788   -1.7619    4.8354 C   0  0  0  0  0  0  0  0  0  0  0  0
   -1.9417   -2.2544    6.1043 C   0  0  0  0  0  0  0  0  0  0  0  0
   -2.7666   -1.9940    7.3345 C   0  0  0  0  0  0  0  0  0  0  0  0
   -2.2420   -0.8643    8.1595 C   0  0  0  0  0  0  0  0  0  0  0  0
   -0.8082   -2.9125    6.2238 C   0  0  0  0  0  0  0  0  0  0  0  0
    0.0283   -3.1572    5.1339 C   0  0  0  0  0  0  0  0  0  0  0  0
    0.7149   -1.7521    1.8694 C   0  0  0  0  0  0  0  0  0  0  0  0
    1.0567   -2.2324    0.6444 C   0  0  0  0  0  0  0  0  0  0  0  0
    0.5096   -3.6075    0.6531 C   0  0  0  0  0  0  0  0  0  0  0  0
   -0.0530   -4.8722   -0.6201 Se  0  0  0  0  0  2  0  0  0  0  0  0
    1.3707   -1.4433   -0.4243 C   0  0  0  0  0  0  0  0  0  0  0  0
    1.3206   -0.0490   -0.2963 C   0  0  0  0  0  0  0  0  0  0  0  0
    1.3727    1.0389   -1.3418 C   0  0  0  0  0  0  0  0  0  0  0  0
    2.6651    1.0008   -2.0261 C   0  0  0  0  0  0  0  0  0  0  0  0
    3.1041    1.4921   -3.0818 C   0  0  0  0  0  0  0  0  0  0  0  0
    4.3076    1.5995   -3.8380 C   0  0  0  0  0  0  0  0  0  0  0  0
    5.3201    0.8092   -2.9289 C   0  0  0  0  0  0  0  0  0  0  0  0
    6.7009    0.7838   -3.4870 C   0  0  0  0  0  0  0  0  0  0  0  0
    6.9596   -0.5387   -4.1565 C   0  0  0  0  0  0  0  0  0  0  0  0
    4.9104    0.3324   -1.9133 C   0  0  0  0  0  0  0  0  0  0  0  0
    3.6905    0.2467   -1.2040 C   0  0  0  0  0  0  0  0  0  0  0  0
    0.1139    0.9109   -2.1302 C   0  0  0  0  0  0  0  0  0  0  0  0
   -0.1991    1.6160   -3.2496 C   0  0  0  0  0  0  0  0  0  0  0  0
   -1.4483    1.4528   -3.8755 C   0  0  0  0  0  0  0  0  0  0  0  0
   -2.4004    0.5918   -3.3903 C   0  0  0  0  0  0  0  0  0  0  0  0
   -3.6982    0.4041   -4.0610 C   0  0  0  0  0  0  0  0  0  0  0  0
   -4.6864    1.3998   -3.5276 C   0  0  0  0  0  0  0  0  0  0  0  0
   -2.1154   -0.1496   -2.2265 C   0  0  0  0  0  0  0  0  0  0  0  0
   -0.8888    0.0271   -1.6560 C   0  0  0  0  0  0  0  0  0  0  0  0
    1.2005    2.2972   -0.4992 C   0  0  0  0  0  0  0  0  0  0  0  0
    0.9380    1.9131    0.7973 C   0  0  0  0  0  0  0  0  0  0  0  0
    0.9884    0.4106    0.9365 C   0  0  0  0  0  0  0  0  0  0  0  0
    0.6911   -0.3410    2.0154 C   0  0  0  0  0  0  0  0  0  0  0  0
    0.7315    3.4167    1.5421 S   0  0  0  0  0  0  0  0  0  0  0  0
    0.9476    4.4801    0.2625 C   0  0  0  0  0  0  0  0  0  0  0  0
    1.1995    3.5980   -0.7767 C   0  0  0  0  0  0  0  0  0  0  0  0
    0.8946    5.9371    0.0963 C   0  0  0  0  0  0  0  0  0  0  0  0
    0.2092    6.6692    0.9685 C   0  0  0  0  0  0  0  0  0  0  0  0
   -0.5406    6.6144    2.0533 C   0  0  0  0  0  0  0  0  0  0  0  0
   -0.8118    5.4268    2.6937 O   0  0  0  0  0  0  0  0  0  0  0  0
   -1.0525    7.7932    2.5723 C   0  0  0  0  0  0  0  0  0  0  0  0
   -1.6412    8.1403    3.7631 C   0  0  0  0  0  0  0  0  0  0  0  0
   -1.7980    9.4419    4.1600 C   0  0  0  0  0  0  0  0  0  0  0  0
   -1.3869   10.4254    3.3670 C   0  0  0  0  0  0  0  0  0  0  0  0
   -0.7893   10.1604    2.1303 C   0  0  0  0  0  0  0  0  0  0  0  0
   -0.5979    8.8487    1.6945 C   0  0  0  0  0  0  0  0  0  0  0  0
    0.2589    8.1794    0.6059 C   0  0  0  0  0  0  0  0  0  0  0  0
    1.3161    8.9166    0.1645 C   0  0  0  0  0  0  0  0  0  0  0  0
    2.4518    8.5142    0.0291 C   0  0  0  0  0  0  0  0  0  0  0  0
    3.8570    8.0435   -0.1320 N   0  0  0  0  0  0  0  0  0  0  0  0
    0.9041   10.2718   -0.2442 C   0  0  0  0  0  0  0  0  0  0  0  0
    0.5285   11.4405   -0.6011 N   0  0  0  0  0  0  0  0  0  0  0  0
   -1.7066   11.5283    4.3587 C   0  0  0  0  0  0  0  0  0  0  0  0
   -0.4620   12.0386    5.0482 C   0  0  0  0  0  0  0  0  0  0  0  0
   -0.7814   12.6250    6.3317 C   0  0  0  0  0  0  0  0  0  0  0  0
   -1.2643   11.6180    7.1018 C   0  0  0  0  0  0  0  0  0  0  0  0
   -1.1327   10.3569    6.3818 C   0  0  0  0  0  0  0  0  0  0  0  0
    0.1145   10.6757    5.5077 C   0  0  0  0  0  0  0  0  0  0  0  0
   -2.1682   10.3808    5.2538 C   0  0  0  0  0  0  0  0  0  0  0  0
   -2.4324   -7.6619    0.6174 H   0  0  0  0  0  0  0  0  0  0  0  0
   -1.4255   -3.4934   -3.7063 H   0  0  0  0  0  0  0  0  0  0  0  0
   -2.0931   -8.1730   -4.8874 H   0  0  0  0  0  0  0  0  0  0  0  0
   -1.4815   -6.5213   -7.7113 H   0  0  0  0  0  0  0  0  0  0  0  0
    0.7799   -7.7281   -6.7521 H   0  0  0  0  0  0  0  0  0  0  0  0
    1.5668   -6.5843   -9.0965 H   0  0  0  0  0  0  0  0  0  0  0  0
    1.6640   -4.0494   -8.7792 H   0  0  0  0  0  0  0  0  0  0  0  0
    1.1268   -3.5542   -6.2117 H   0  0  0  0  0  0  0  0  0  0  0  0
    2.3387   -5.8269   -5.9602 H   0  0  0  0  0  0  0  0  0  0  0  0
    0.8059   -5.8225   -4.9567 H   0  0  0  0  0  0  0  0  0  0  0  0
   -1.3352   -4.0356   -7.1761 H   0  0  0  0  0  0  0  0  0  0  0  0
   -1.6053   -5.1949    2.7541 H   0  0  0  0  0  0  0  0  0  0  0  0
    1.4555   -5.3011    3.8757 H   0  0  0  0  0  0  0  0  0  0  0  0
    3.8152   -5.8731    4.4451 H   0  0  0  0  0  0  0  0  0  0  0  0
    6.5543   -3.4945    4.1734 H   0  0  0  0  0  0  0  0  0  0  0  0
    6.1033   -5.2092    4.6266 H   0  0  0  0  0  0  0  0  0  0  0  0
    7.6788   -4.5373    2.4341 H   0  0  0  0  0  0  0  0  0  0  0  0
    6.0584   -4.3236    1.7293 H   0  0  0  0  0  0  0  0  0  0  0  0
    6.5937   -5.9269    2.3978 H   0  0  0  0  0  0  0  0  0  0  0  0
    5.0276   -2.1390    2.8239 H   0  0  0  0  0  0  0  0  0  0  0  0
    2.7312   -1.5446    2.3986 H   0  0  0  0  0  0  0  0  0  0  0  0
   -1.8384   -1.6753    2.7481 H   0  0  0  0  0  0  0  0  0  0  0  0
   -3.2866   -1.2403    4.7509 H   0  0  0  0  0  0  0  0  0  0  0  0
   -2.8201   -2.9043    7.9962 H   0  0  0  0  0  0  0  0  0  0  0  0
   -3.8127   -1.7313    7.0390 H   0  0  0  0  0  0  0  0  0  0  0  0
   -2.0639    0.0497    7.5368 H   0  0  0  0  0  0  0  0  0  0  0  0
   -1.2214   -1.1160    8.6201 H   0  0  0  0  0  0  0  0  0  0  0  0
   -2.8788   -0.6722    9.0587 H   0  0  0  0  0  0  0  0  0  0  0  0
   -0.5055   -3.3264    7.1918 H   0  0  0  0  0  0  0  0  0  0  0  0
    0.9472   -3.6646    5.3385 H   0  0  0  0  0  0  0  0  0  0  0  0
    1.6486   -1.8606   -1.3632 H   0  0  0  0  0  0  0  0  0  0  0  0
    2.3373    2.1094   -3.7217 H   0  0  0  0  0  0  0  0  0  0  0  0
    4.6711    1.9739   -4.6305 H   0  0  0  0  0  0  0  0  0  0  0  0
    6.7703    1.5669   -4.3118 H   0  0  0  0  0  0  0  0  0  0  0  0
    7.3993    1.0413   -2.6561 H   0  0  0  0  0  0  0  0  0  0  0  0
    7.6303   -1.0878   -3.4315 H   0  0  0  0  0  0  0  0  0  0  0  0
    7.4627   -0.4617   -5.1604 H   0  0  0  0  0  0  0  0  0  0  0  0
    6.0097   -1.0876   -4.1695 H   0  0  0  0  0  0  0  0  0  0  0  0
    5.6655   -0.2786   -1.2179 H   0  0  0  0  0  0  0  0  0  0  0  0
    3.4201   -0.1802   -0.3407 H   0  0  0  0  0  0  0  0  0  0  0  0
    0.4263    2.3288   -3.7130 H   0  0  0  0  0  0  0  0  0  0  0  0
   -1.6662    1.9979   -4.7836 H   0  0  0  0  0  0  0  0  0  0  0  0
   -3.5829    0.4716   -5.1715 H   0  0  0  0  0  0  0  0  0  0  0  0
   -4.1086   -0.6082   -3.8677 H   0  0  0  0  0  0  0  0  0  0  0  0
   -4.7332    2.2526   -4.2586 H   0  0  0  0  0  0  0  0  0  0  0  0
   -4.3842    1.7713   -2.5524 H   0  0  0  0  0  0  0  0  0  0  0  0
   -5.7128    0.9613   -3.4625 H   0  0  0  0  0  0  0  0  0  0  0  0
   -2.8643   -0.8383   -1.7933 H   0  0  0  0  0  0  0  0  0  0  0  0
   -0.6705   -0.5281   -0.7930 H   0  0  0  0  0  0  0  0  0  0  0  0
    0.4509    0.0759    2.9460 H   0  0  0  0  0  0  0  0  0  0  0  0
    1.3526    4.0655   -1.7942 H   0  0  0  0  0  0  0  0  0  0  0  0
    1.4119    6.3883   -0.7194 H   0  0  0  0  0  0  0  0  0  0  0  0
   -2.0194    7.3576    4.4081 H   0  0  0  0  0  0  0  0  0  0  0  0
   -0.4890   10.9815    1.5492 H   0  0  0  0  0  0  0  0  0  0  0  0
   -2.4475   12.2175    4.0141 H   0  0  0  0  0  0  0  0  0  0  0  0
    0.2362   12.5728    4.4242 H   0  0  0  0  0  0  0  0  0  0  0  0
   -0.6848   13.6231    6.7248 H   0  0  0  0  0  0  0  0  0  0  0  0
   -1.6695   11.7303    8.0919 H   0  0  0  0  0  0  0  0  0  0  0  0
   -1.0526    9.4563    6.9140 H   0  0  0  0  0  0  0  0  0  0  0  0
    1.0132   10.7744    6.1017 H   0  0  0  0  0  0  0  0  0  0  0  0
    0.1640    9.9807    4.6432 H   0  0  0  0  0  0  0  0  0  0  0  0
   -3.1943   10.3369    5.5312 H   0  0  0  0  0  0  0  0  0  0  0  0
  1  2  2  3
  2  3  1  0
  3  4  2  0
  3  5  1  0
  5  6  2  0
  6  7  1  0
  7  8  2  0
  8  9  1  0
  9 10  2  0
 10 11  1  0
 11 12  2  3
 12 13  1  0
 13 14  3  0
 12 15  1  0
 15 16  3  0
  8 17  1  0
 17 18  1  0
 18 19  1  0
 19 20  2  0
 20 21  1  0
 21 22  1  0
 21 23  1  0
  1 24  1  0
 24 25  2  0
 25 26  1  0
 26 27  1  0
 27 28  1  0
 28 29  2  0
 29 30  1  0
 30 31  2  0
 31 32  1  0
 32 33  1  0
 31 34  1  0
 34 35  2  0
 27 36  1  0
 36 37  2  0
 37 38  1  0
 38 39  2  0
 39 40  1  0
 40 41  1  0
 39 42  1  0
 42 43  2  0
 27 44  1  0
 44 45  2  0
 45 46  1  0
 46 47  1  0
 45 48  1  0
 48 49  2  0
 49 50  1  0
 50 51  1  0
 51 52  2  0
 52 53  1  0
 53 54  2  0
 54 55  1  0
 55 56  1  0
 54 57  1  0
 57 58  2  0
 50 59  1  0
 59 60  2  0
 60 61  1  0
 61 62  2  0
 62 63  1  0
 63 64  1  0
 62 65  1  0
 65 66  2  0
 50 67  1  0
 67 68  2  0
 68 69  1  0
 69 70  2  0
 68 71  1  0
 71 72  1  0
 72 73  2  0
 72 74  1  0
 74 75  2  3
 75 76  1  0
 76 77  2  0
 76 78  1  0
 78 79  2  0
 79 80  1  0
 80 81  2  0
 81 82  1  0
 82 83  2  0
 83 84  1  0
 84 85  2  3
 85 86  1  0
 86 87  3  0
 85 88  1  0
 88 89  3  0
 81 90  1  0
 90 91  1  0
 91 92  1  0
 92 93  2  0
 93 94  1  0
 94 95  1  0
 94 96  1  0
 11  2  1  0
 23 17  1  0
 47 24  1  0
 69 49  1  0
 84 75  1  0
 96 90  1  0
 10  5  1  0
 22 18  1  0
 46 26  2  0
 58 51  1  0
 66 59  1  0
 73 67  1  0
 83 78  1  0
 95 91  1  0
 23  7  1  0
 35 28  1  0
 43 36  1  0
 70 44  1  0
 96 80  1  0
  1 97  1  0
  6 98  1  0
  9 99  1  0
 17100  1  0
 18101  1  0
 19102  1  0
 20103  1  0
 21104  1  0
 22105  1  0
 22106  1  0
 23107  1  0
 25108  1  0
 29109  1  0
 30110  1  0
 32111  1  0
 32112  1  0
 33113  1  0
 33114  1  0
 33115  1  0
 34116  1  0
 35117  1  0
 37118  1  0
 38119  1  0
 40120  1  0
 40121  1  0
 41122  1  0
 41123  1  0
 41124  1  0
 42125  1  0
 43126  1  0
 48127  1  0
 52128  1  0
 53129  1  0
 55130  1  0
 55131  1  0
 56132  1  0
 56133  1  0
 56134  1  0
 57135  1  0
 58136  1  0
 60137  1  0
 61138  1  0
 63139  1  0
 63140  1  0
 64141  1  0
 64142  1  0
 64143  1  0
 65144  1  0
 66145  1  0
 70146  1  0
 73147  1  0
 74148  1  0
 79149  1  0
 82150  1  0
 90151  1  0
 91152  1  0
 92153  1  0
 93154  1  0
 94155  1  0
 95156  1  0
 95157  1  0
 96158  1  0
M  END

