
     RDKit          3D

159174  0  0  0  0  0  0  0  0999 V2000
   -0.4740   -4.3895   -2.6632 C   0  0  0  0  0  0  0  0  0  0  0  0
    0.4562   -5.1442   -2.0748 C   0  0  0  0  0  0  0  0  0  0  0  0
    1.2188   -4.8447   -0.8598 C   0  0  0  0  0  0  0  0  0  0  0  0
    1.3864   -3.6644   -0.3823 O   0  0  0  0  0  0  0  0  0  0  0  0
    2.0002   -5.9291   -0.4250 C   0  0  0  0  0  0  0  0  0  0  0  0
    2.9497   -5.9895    0.6157 C   0  0  0  0  0  0  0  0  0  0  0  0
    3.4766   -7.2210    0.8398 C   0  0  0  0  0  0  0  0  0  0  0  0
    3.1789   -8.3597   -0.0068 C   0  0  0  0  0  0  0  0  0  0  0  0
    2.3636   -8.3279   -1.1398 C   0  0  0  0  0  0  0  0  0  0  0  0
    1.7631   -7.0339   -1.3250 C   0  0  0  0  0  0  0  0  0  0  0  0
    0.8615   -6.5442   -2.4295 C   0  0  0  0  0  0  0  0  0  0  0  0
    0.7414   -7.1512   -3.6615 C   0  0  0  0  0  0  0  0  0  0  0  0
    0.9851   -8.6119   -3.8963 C   0  0  0  0  0  0  0  0  0  0  0  0
    1.1118   -9.7347   -4.0133 N   0  0  0  0  0  0  0  0  0  0  0  0
    0.2425   -6.4382   -4.7938 C   0  0  0  0  0  0  0  0  0  0  0  0
   -0.1525   -5.9325   -5.7523 N   0  0  0  0  0  0  0  0  0  0  0  0
    3.9246   -9.2551    0.9422 C   0  0  0  0  0  0  0  0  0  0  0  0
    3.0769  -10.1715    1.8992 C   0  0  0  0  0  0  0  0  0  0  0  0
    1.7633   -9.5058    2.2807 C   0  0  0  0  0  0  0  0  0  0  0  0
    2.1034   -8.4505    2.9893 C   0  0  0  0  0  0  0  0  0  0  0  0
    3.5930   -8.4364    3.1339 C   0  0  0  0  0  0  0  0  0  0  0  0
    3.8407   -9.9344    3.1889 C   0  0  0  0  0  0  0  0  0  0  0  0
    4.2447   -8.1111    1.7736 C   0  0  0  0  0  0  0  0  0  0  0  0
   -1.0887   -3.2245   -2.0488 C   0  0  0  0  0  0  0  0  0  0  0  0
   -1.9915   -2.3672   -2.6799 C   0  0  0  0  0  0  0  0  0  0  0  0
   -2.0264   -2.2187   -4.0545 O   0  0  0  0  0  0  0  0  0  0  0  0
   -3.2834   -2.5905   -4.6887 C   0  0  0  0  0  0  0  0  0  0  0  0
   -3.1450   -2.7435   -6.1625 C   0  0  0  0  0  0  0  0  0  0  0  0
   -2.7163   -1.5455   -1.7831 C   0  0  0  0  0  0  0  0  0  0  0  0
   -3.1998   -0.0623   -2.0033 C   0  0  0  0  0  0  0  0  0  0  0  0
   -3.6606    0.6047   -3.3264 C   0  0  0  0  0  0  0  0  0  0  0  0
   -4.8690    1.4511   -3.3189 C   0  0  0  0  0  0  0  0  0  0  0  0
   -5.1346    2.3304   -4.3639 C   0  0  0  0  0  0  0  0  0  0  0  0
   -4.2487    2.4665   -5.4115 C   0  0  0  0  0  0  0  0  0  0  0  0
   -4.4767    3.6620   -6.2591 C   0  0  0  0  0  0  0  0  0  0  0  0
   -3.6663    4.8435   -5.6657 C   0  0  0  0  0  0  0  0  0  0  0  0
   -3.1030    1.6404   -5.4706 C   0  0  0  0  0  0  0  0  0  0  0  0
   -2.8159    0.7036   -4.4680 C   0  0  0  0  0  0  0  0  0  0  0  0
   -4.4001    0.0579   -0.9827 C   0  0  0  0  0  0  0  0  0  0  0  0
   -4.6234    1.2382   -0.2102 C   0  0  0  0  0  0  0  0  0  0  0  0
   -5.4708    1.1930    0.9179 C   0  0  0  0  0  0  0  0  0  0  0  0
   -6.3024    0.0723    1.1335 C   0  0  0  0  0  0  0  0  0  0  0  0
   -7.0214   -0.0227    2.4377 C   0  0  0  0  0  0  0  0  0  0  0  0
   -6.2454   -0.9500    3.3556 C   0  0  0  0  0  0  0  0  0  0  0  0
   -6.3704   -0.9291    0.1456 C   0  0  0  0  0  0  0  0  0  0  0  0
   -5.4453   -0.9069   -0.9404 C   0  0  0  0  0  0  0  0  0  0  0  0
   -1.9673    0.4812   -1.4173 C   0  0  0  0  0  0  0  0  0  0  0  0
   -1.7217   -0.3619   -0.3738 C   0  0  0  0  0  0  0  0  0  0  0  0
   -2.2471   -1.6638   -0.5150 C   0  0  0  0  0  0  0  0  0  0  0  0
   -1.2775   -2.9698   -0.4063 S   0  0  0  0  0  0  0  0  0  0  0  0
   -1.4145    0.2504    0.8390 C   0  0  0  0  0  0  0  0  0  0  0  0
   -0.9418    1.5830    0.7829 C   0  0  0  0  0  0  0  0  0  0  0  0
    0.1862    2.0312    1.6611 C   0  0  0  0  0  0  0  0  0  0  0  0
    1.3609    1.0213    1.4661 C   0  0  0  0  0  0  0  0  0  0  0  0
    1.5073    0.2361    0.2942 C   0  0  0  0  0  0  0  0  0  0  0  0
    2.5184   -0.6762    0.1846 C   0  0  0  0  0  0  0  0  0  0  0  0
    3.5581   -0.7363    1.1299 C   0  0  0  0  0  0  0  0  0  0  0  0
    4.7720   -1.4516    0.6811 C   0  0  0  0  0  0  0  0  0  0  0  0
    5.7628   -0.4180    0.1188 C   0  0  0  0  0  0  0  0  0  0  0  0
    3.5240    0.1085    2.2735 C   0  0  0  0  0  0  0  0  0  0  0  0
    2.4229    0.9578    2.3919 C   0  0  0  0  0  0  0  0  0  0  0  0
   -0.3726    2.1528    3.0495 C   0  0  0  0  0  0  0  0  0  0  0  0
   -1.0555    3.3000    3.4851 C   0  0  0  0  0  0  0  0  0  0  0  0
   -1.4094    3.4675    4.8217 C   0  0  0  0  0  0  0  0  0  0  0  0
   -1.1305    2.4421    5.7385 C   0  0  0  0  0  0  0  0  0  0  0  0
   -1.2576    2.6910    7.1839 C   0  0  0  0  0  0  0  0  0  0  0  0
    0.1354    2.8471    7.7930 C   0  0  0  0  0  0  0  0  0  0  0  0
   -0.6188    1.2258    5.2621 C   0  0  0  0  0  0  0  0  0  0  0  0
   -0.2524    1.0795    3.9480 C   0  0  0  0  0  0  0  0  0  0  0  0
    0.5195    3.3436    0.9844 C   0  0  0  0  0  0  0  0  0  0  0  0
    1.0039    4.5766    1.5654 C   0  0  0  0  0  0  0  0  0  0  0  0
    1.4958    4.6514    2.8944 O   0  0  0  0  0  0  0  0  0  0  0  0
    2.9432    4.4611    3.0906 C   0  0  0  0  0  0  0  0  0  0  0  0
    3.2143    4.1774    4.5421 C   0  0  0  0  0  0  0  0  0  0  0  0
    0.8695    5.6558    0.7365 C   0  0  0  0  0  0  0  0  0  0  0  0
    0.2440    4.9697   -0.7222 S   0  0  0  0  0  0  0  0  0  0  0  0
    0.0861    3.3644   -0.2541 C   0  0  0  0  0  0  0  0  0  0  0  0
   -0.9236    2.3310   -0.4067 C   0  0  0  0  0  0  0  0  0  0  0  0
   -1.3600    1.6973   -1.5831 C   0  0  0  0  0  0  0  0  0  0  0  0
    1.6641    6.8530    0.8827 C   0  0  0  0  0  0  0  0  0  0  0  0
    1.1541    8.1176    0.9301 C   0  0  0  0  0  0  0  0  0  0  0  0
    0.3003    8.6725    2.0133 C   0  0  0  0  0  0  0  0  0  0  0  0
   -0.0898    8.0017    3.0134 O   0  0  0  0  0  0  0  0  0  0  0  0
    0.1760   10.1337    1.8382 C   0  0  0  0  0  0  0  0  0  0  0  0
    0.9256   10.4949    0.7165 C   0  0  0  0  0  0  0  0  0  0  0  0
    0.8720   11.8482    0.2877 C   0  0  0  0  0  0  0  0  0  0  0  0
    0.1199   12.7945    1.0009 C   0  0  0  0  0  0  0  0  0  0  0  0
   -0.5829   12.4441    2.1460 C   0  0  0  0  0  0  0  0  0  0  0  0
   -1.5338   13.8266    3.0669 Br  0  0  0  0  0  0  0  0  0  0  0  0
   -0.5539   11.0953    2.5916 C   0  0  0  0  0  0  0  0  0  0  0  0
   -1.4382   10.6275    4.0745 Cl  0  0  0  0  0  0  0  0  0  0  0  0
    1.5835    9.2980    0.1439 C   0  0  0  0  0  0  0  0  0  0  0  0
    2.3186    9.2829   -1.0030 C   0  0  0  0  0  0  0  0  0  0  0  0
    2.5638   10.5201   -1.9122 C   0  0  0  0  0  0  0  0  0  0  0  0
    2.7489   11.4356   -2.5758 N   0  0  0  0  0  0  0  0  0  0  0  0
    2.8916    8.0936   -1.5571 C   0  0  0  0  0  0  0  0  0  0  0  0
    3.4103    7.1873   -2.1224 N   0  0  0  0  0  0  0  0  0  0  0  0
   -0.9721   -4.6782   -3.5707 H   0  0  0  0  0  0  0  0  0  0  0  0
    3.0632   -5.1652    1.3112 H   0  0  0  0  0  0  0  0  0  0  0  0
    2.1060   -9.2517   -1.6587 H   0  0  0  0  0  0  0  0  0  0  0  0
    4.7755   -9.7553    0.4960 H   0  0  0  0  0  0  0  0  0  0  0  0
    2.9997  -11.2244    1.6136 H   0  0  0  0  0  0  0  0  0  0  0  0
    0.7893   -9.6947    1.8891 H   0  0  0  0  0  0  0  0  0  0  0  0
    1.3948   -7.6789    3.2975 H   0  0  0  0  0  0  0  0  0  0  0  0
    4.0089   -7.8623    3.9969 H   0  0  0  0  0  0  0  0  0  0  0  0
    3.3963  -10.4357    4.0925 H   0  0  0  0  0  0  0  0  0  0  0  0
    4.9161  -10.2362    3.1859 H   0  0  0  0  0  0  0  0  0  0  0  0
    5.3204   -7.8754    1.7619 H   0  0  0  0  0  0  0  0  0  0  0  0
   -3.6307   -3.5746   -4.2747 H   0  0  0  0  0  0  0  0  0  0  0  0
   -4.0621   -1.8137   -4.4621 H   0  0  0  0  0  0  0  0  0  0  0  0
   -2.2674   -3.3401   -6.4630 H   0  0  0  0  0  0  0  0  0  0  0  0
   -3.1523   -1.7510   -6.6623 H   0  0  0  0  0  0  0  0  0  0  0  0
   -4.0569   -3.3469   -6.5156 H   0  0  0  0  0  0  0  0  0  0  0  0
   -5.6128    1.5357   -2.5141 H   0  0  0  0  0  0  0  0  0  0  0  0
   -5.9764    3.0219   -4.2788 H   0  0  0  0  0  0  0  0  0  0  0  0
   -4.1702    3.4090   -7.2915 H   0  0  0  0  0  0  0  0  0  0  0  0
   -5.5583    3.9281   -6.3095 H   0  0  0  0  0  0  0  0  0  0  0  0
   -3.8050    5.7045   -6.3478 H   0  0  0  0  0  0  0  0  0  0  0  0
   -4.0301    5.1575   -4.6666 H   0  0  0  0  0  0  0  0  0  0  0  0
   -2.5912    4.5571   -5.6168 H   0  0  0  0  0  0  0  0  0  0  0  0
   -2.4062    1.7743   -6.3185 H   0  0  0  0  0  0  0  0  0  0  0  0
   -1.8736    0.1708   -4.4632 H   0  0  0  0  0  0  0  0  0  0  0  0
   -4.0493    2.1320   -0.2367 H   0  0  0  0  0  0  0  0  0  0  0  0
   -5.3786    1.9927    1.6718 H   0  0  0  0  0  0  0  0  0  0  0  0
   -8.0348   -0.4354    2.1822 H   0  0  0  0  0  0  0  0  0  0  0  0
   -7.1199    0.9915    2.8899 H   0  0  0  0  0  0  0  0  0  0  0  0
   -5.2044   -0.5927    3.4801 H   0  0  0  0  0  0  0  0  0  0  0  0
   -6.7555   -0.9627    4.3310 H   0  0  0  0  0  0  0  0  0  0  0  0
   -6.2123   -1.9564    2.9005 H   0  0  0  0  0  0  0  0  0  0  0  0
   -6.9802   -1.8636    0.3242 H   0  0  0  0  0  0  0  0  0  0  0  0
   -5.5018   -1.7487   -1.5875 H   0  0  0  0  0  0  0  0  0  0  0  0
   -1.6481   -0.1538    1.7945 H   0  0  0  0  0  0  0  0  0  0  0  0
    0.9013    0.2215   -0.6134 H   0  0  0  0  0  0  0  0  0  0  0  0
    2.5705   -1.3038   -0.6824 H   0  0  0  0  0  0  0  0  0  0  0  0
    4.5336   -2.1744   -0.1241 H   0  0  0  0  0  0  0  0  0  0  0  0
    5.1968   -2.0115    1.5456 H   0  0  0  0  0  0  0  0  0  0  0  0
    5.2790    0.2721   -0.6168 H   0  0  0  0  0  0  0  0  0  0  0  0
    6.1433    0.2296    0.9391 H   0  0  0  0  0  0  0  0  0  0  0  0
    6.5834   -0.9420   -0.3831 H   0  0  0  0  0  0  0  0  0  0  0  0
    4.3309    0.1042    2.9835 H   0  0  0  0  0  0  0  0  0  0  0  0
    2.4239    1.5932    3.3090 H   0  0  0  0  0  0  0  0  0  0  0  0
   -1.3413    4.0826    2.8056 H   0  0  0  0  0  0  0  0  0  0  0  0
   -1.7803    4.4657    5.1561 H   0  0  0  0  0  0  0  0  0  0  0  0
   -1.7663    1.8200    7.6217 H   0  0  0  0  0  0  0  0  0  0  0  0
   -1.8898    3.5934    7.3582 H   0  0  0  0  0  0  0  0  0  0  0  0
    0.7227    1.9198    7.6901 H   0  0  0  0  0  0  0  0  0  0  0  0
    0.0349    3.0809    8.8640 H   0  0  0  0  0  0  0  0  0  0  0  0
    0.6883    3.6677    7.2865 H   0  0  0  0  0  0  0  0  0  0  0  0
   -0.3591    0.3912    5.9627 H   0  0  0  0  0  0  0  0  0  0  0  0
    0.1152    0.0985    3.6814 H   0  0  0  0  0  0  0  0  0  0  0  0
    3.2860    3.5807    2.4769 H   0  0  0  0  0  0  0  0  0  0  0  0
    3.5235    5.3595    2.7815 H   0  0  0  0  0  0  0  0  0  0  0  0
    2.4867    3.4840    5.0238 H   0  0  0  0  0  0  0  0  0  0  0  0
    3.2246    5.1075    5.1539 H   0  0  0  0  0  0  0  0  0  0  0  0
    4.2362    3.7150    4.6199 H   0  0  0  0  0  0  0  0  0  0  0  0
   -0.9942    1.9078   -2.5442 H   0  0  0  0  0  0  0  0  0  0  0  0
    2.6748    6.6754    0.5728 H   0  0  0  0  0  0  0  0  0  0  0  0
    1.3769   12.2190   -0.5898 H   0  0  0  0  0  0  0  0  0  0  0  0
    0.1180   13.8226    0.6120 H   0  0  0  0  0  0  0  0  0  0  0  0
  1  2  2  3
  2  3  1  0
  3  4  2  0
  3  5  1  0
  5  6  2  0
  6  7  1  0
  7  8  2  0
  8  9  1  0
  9 10  2  0
 10 11  1  0
 11 12  2  3
 12 13  1  0
 13 14  3  0
 12 15  1  0
 15 16  3  0
  8 17  1  0
 17 18  1  0
 18 19  1  0
 19 20  2  0
 20 21  1  0
 21 22  1  0
 21 23  1  0
  1 24  1  0
 24 25  2  0
 25 26  1  0
 26 27  1  0
 27 28  1  0
 25 29  1  0
 29 30  1  0
 30 31  1  0
 31 32  2  0
 32 33  1  0
 33 34  2  0
 34 35  1  0
 35 36  1  0
 34 37  1  0
 37 38  2  0
 30 39  1  0
 39 40  2  0
 40 41  1  0
 41 42  2  0
 42 43  1  0
 43 44  1  0
 42 45  1  0
 45 46  2  0
 30 47  1  0
 47 48  2  0
 48 49  1  0
 49 50  1  0
 48 51  1  0
 51 52  2  0
 52 53  1  0
 53 54  1  0
 54 55  2  0
 55 56  1  0
 56 57  2  0
 57 58  1  0
 58 59  1  0
 57 60  1  0
 60 61  2  0
 53 62  1  0
 62 63  2  0
 63 64  1  0
 64 65  2  0
 65 66  1  0
 66 67  1  0
 65 68  1  0
 68 69  2  0
 53 70  1  0
 70 71  1  0
 71 72  1  0
 72 73  1  0
 73 74  1  0
 71 75  2  0
 75 76  1  0
 76 77  1  0
 77 78  1  0
 78 79  2  0
 75 80  1  0
 80 81  2  3
 81 82  1  0
 82 83  2  0
 82 84  1  0
 84 85  2  0
 85 86  1  0
 86 87  2  0
 87 88  1  0
 88 89  1  0
 88 90  2  0
 90 91  1  0
 85 92  1  0
 92 93  2  3
 93 94  1  0
 94 95  3  0
 93 96  1  0
 96 97  3  0
 11  2  1  0
 23 17  1  0
 50 24  1  0
 78 52  1  0
 92 81  1  0
 10  5  1  0
 22 18  1  0
 49 29  2  0
 61 54  1  0
 69 62  1  0
 77 70  2  0
 90 84  1  0
 23  7  1  0
 38 31  1  0
 46 39  1  0
 79 47  1  0
  1 98  1  0
  6 99  1  0
  9100  1  0
 17101  1  0
 18102  1  0
 19103  1  0
 20104  1  0
 21105  1  0
 22106  1  0
 22107  1  0
 23108  1  0
 27109  1  0
 27110  1  0
 28111  1  0
 28112  1  0
 28113  1  0
 32114  1  0
 33115  1  0
 35116  1  0
 35117  1  0
 36118  1  0
 36119  1  0
 36120  1  0
 37121  1  0
 38122  1  0
 40123  1  0
 41124  1  0
 43125  1  0
 43126  1  0
 44127  1  0
 44128  1  0
 44129  1  0
 45130  1  0
 46131  1  0
 51132  1  0
 55133  1  0
 56134  1  0
 58135  1  0
 58136  1  0
 59137  1  0
 59138  1  0
 59139  1  0
 60140  1  0
 61141  1  0
 63142  1  0
 64143  1  0
 66144  1  0
 66145  1  0
 67146  1  0
 67147  1  0
 67148  1  0
 68149  1  0
 69150  1  0
 73151  1  0
 73152  1  0
 74153  1  0
 74154  1  0
 74155  1  0
 79156  1  0
 80157  1  0
 86158  1  0
 87159  1  0
M  END

