
     RDKit          3D

148164  0  0  0  0  0  0  0  0999 V2000
   -1.6861    5.7550   -1.8142 C   0  0  0  0  0  0  0  0  0  0  0  0
   -1.3209    5.6795   -3.1165 C   0  0  0  0  0  0  0  0  0  0  0  0
   -2.2698    5.3150   -4.1863 C   0  0  0  0  0  0  0  0  0  0  0  0
   -3.5326    5.2215   -4.0643 O   0  0  0  0  0  0  0  0  0  0  0  0
   -1.5142    4.8558   -5.3322 C   0  0  0  0  0  0  0  0  0  0  0  0
   -2.0334    4.3059   -6.5294 C   0  0  0  0  0  0  0  0  0  0  0  0
   -1.0638    4.0089   -7.4741 C   0  0  0  0  0  0  0  0  0  0  0  0
    0.3359    4.2747   -7.2708 C   0  0  0  0  0  0  0  0  0  0  0  0
    0.8476    4.7873   -6.0900 C   0  0  0  0  0  0  0  0  0  0  0  0
   -0.1164    5.0635   -5.0840 C   0  0  0  0  0  0  0  0  0  0  0  0
    0.0417    5.6022   -3.7095 C   0  0  0  0  0  0  0  0  0  0  0  0
    1.1860    6.1120   -3.1834 C   0  0  0  0  0  0  0  0  0  0  0  0
    1.2162    6.9644   -2.0205 C   0  0  0  0  0  0  0  0  0  0  0  0
    1.3710    7.6751   -1.1030 N   0  0  0  0  0  0  0  0  0  0  0  0
    2.5108    5.7186   -3.6950 C   0  0  0  0  0  0  0  0  0  0  0  0
    3.5678    5.4132   -4.0821 N   0  0  0  0  0  0  0  0  0  0  0  0
    0.6599    3.6553   -8.5992 C   0  0  0  0  0  0  0  0  0  0  0  0
    1.3443    2.2496   -8.5592 C   0  0  0  0  0  0  0  0  0  0  0  0
    1.1970    1.6820   -9.9585 C   0  0  0  0  0  0  0  0  0  0  0  0
   -0.1029    1.3893  -10.1001 C   0  0  0  0  0  0  0  0  0  0  0  0
   -0.7880    1.7823   -8.8133 C   0  0  0  0  0  0  0  0  0  0  0  0
    0.3180    1.3829   -7.8355 C   0  0  0  0  0  0  0  0  0  0  0  0
   -0.7660    3.3501   -8.7902 C   0  0  0  0  0  0  0  0  0  0  0  0
   -0.8636    5.1885   -0.7203 C   0  0  0  0  0  0  0  0  0  0  0  0
   -1.1804    5.2604    0.6313 C   0  0  0  0  0  0  0  0  0  0  0  0
   -0.6438    4.1803    1.3425 C   0  0  0  0  0  0  0  0  0  0  0  0
   -1.5922    3.0273    2.1933 S   0  0  0  0  0  0  0  0  0  0  0  0
   -0.6660    1.6810    1.7322 C   0  0  0  0  0  0  0  0  0  0  0  0
   -0.3589    0.4240    2.3786 C   0  0  0  0  0  0  0  0  0  0  0  0
   -1.1822   -0.5677    2.9138 C   0  0  0  0  0  0  0  0  0  0  0  0
   -0.5671   -1.8103    3.2036 C   0  0  0  0  0  0  0  0  0  0  0  0
   -1.1926   -3.1000    3.7180 C   0  0  0  0  0  0  0  0  0  0  0  0
   -2.6138   -3.2543    3.1635 C   0  0  0  0  0  0  0  0  0  0  0  0
   -3.6835   -2.6683    3.8702 C   0  0  0  0  0  0  0  0  0  0  0  0
   -5.0042   -2.9647    3.5524 C   0  0  0  0  0  0  0  0  0  0  0  0
   -5.2785   -3.8460    2.4922 C   0  0  0  0  0  0  0  0  0  0  0  0
   -6.6663   -4.3716    2.2892 C   0  0  0  0  0  0  0  0  0  0  0  0
   -6.8476   -5.6752    3.0683 C   0  0  0  0  0  0  0  0  0  0  0  0
   -4.2263   -4.3109    1.6831 C   0  0  0  0  0  0  0  0  0  0  0  0
   -2.9042   -3.9513    1.9799 C   0  0  0  0  0  0  0  0  0  0  0  0
   -1.1500   -3.2284    5.2532 C   0  0  0  0  0  0  0  0  0  0  0  0
   -1.8586   -4.2760    5.8841 C   0  0  0  0  0  0  0  0  0  0  0  0
   -1.7628   -4.4799    7.2598 C   0  0  0  0  0  0  0  0  0  0  0  0
   -0.9054   -3.6866    8.0332 C   0  0  0  0  0  0  0  0  0  0  0  0
   -0.7471   -3.9593    9.5016 C   0  0  0  0  0  0  0  0  0  0  0  0
   -1.8429   -3.2483   10.2934 C   0  0  0  0  0  0  0  0  0  0  0  0
   -0.1971   -2.6394    7.4273 C   0  0  0  0  0  0  0  0  0  0  0  0
   -0.3131   -2.4142    6.0543 C   0  0  0  0  0  0  0  0  0  0  0  0
   -0.1305   -4.0658    3.2158 C   0  0  0  0  0  0  0  0  0  0  0  0
    1.0481   -3.4292    2.9685 C   0  0  0  0  0  0  0  0  0  0  0  0
    0.7931   -2.0120    2.9086 C   0  0  0  0  0  0  0  0  0  0  0  0
    1.6317   -0.9805    2.4918 C   0  0  0  0  0  0  0  0  0  0  0  0
    1.0272    0.2582    2.2643 C   0  0  0  0  0  0  0  0  0  0  0  0
    1.6517    1.5994    2.0183 C   0  0  0  0  0  0  0  0  0  0  0  0
    2.9667    1.5494    1.2747 C   0  0  0  0  0  0  0  0  0  0  0  0
    4.1519    2.0924    1.8346 C   0  0  0  0  0  0  0  0  0  0  0  0
    5.3004    2.2135    1.0676 C   0  0  0  0  0  0  0  0  0  0  0  0
    5.3127    1.7588   -0.2550 C   0  0  0  0  0  0  0  0  0  0  0  0
    6.4901    2.0707   -1.1266 C   0  0  0  0  0  0  0  0  0  0  0  0
    6.3645    3.4960   -1.6600 C   0  0  0  0  0  0  0  0  0  0  0  0
    4.1752    1.1279   -0.7882 C   0  0  0  0  0  0  0  0  0  0  0  0
    3.0179    1.0173   -0.0224 C   0  0  0  0  0  0  0  0  0  0  0  0
    1.7099    2.3392    3.3977 C   0  0  0  0  0  0  0  0  0  0  0  0
    1.6948    3.7504    3.4458 C   0  0  0  0  0  0  0  0  0  0  0  0
    1.2372    4.4154    4.5826 C   0  0  0  0  0  0  0  0  0  0  0  0
    0.9175    3.6852    5.7422 C   0  0  0  0  0  0  0  0  0  0  0  0
    0.1890    4.3587    6.8757 C   0  0  0  0  0  0  0  0  0  0  0  0
   -1.3195    4.2778    6.6421 C   0  0  0  0  0  0  0  0  0  0  0  0
    1.1606    2.3039    5.7758 C   0  0  0  0  0  0  0  0  0  0  0  0
    1.5837    1.6435    4.6262 C   0  0  0  0  0  0  0  0  0  0  0  0
    0.5022    2.1598    1.1741 C   0  0  0  0  0  0  0  0  0  0  0  0
    0.3656    3.4750    0.7167 C   0  0  0  0  0  0  0  0  0  0  0  0
    0.1827    3.8860   -0.9132 S   0  0  0  0  0  0  0  0  0  0  0  0
    2.0652   -4.4196    2.0734 S   0  0  0  0  0  0  0  0  0  0  0  0
    0.9419   -5.6804    1.9572 C   0  0  0  0  0  0  0  0  0  0  0  0
   -0.1881   -5.3771    2.7116 C   0  0  0  0  0  0  0  0  0  0  0  0
    1.0376   -6.7988    0.9868 C   0  0  0  0  0  0  0  0  0  0  0  0
    1.5034   -6.6157   -0.2602 C   0  0  0  0  0  0  0  0  0  0  0  0
    1.6742   -7.6864   -1.2580 C   0  0  0  0  0  0  0  0  0  0  0  0
    1.1353   -8.8275   -1.1715 O   0  0  0  0  0  0  0  0  0  0  0  0
    2.1118   -7.0636   -2.4923 C   0  0  0  0  0  0  0  0  0  0  0  0
    2.4273   -7.6527   -3.7367 C   0  0  0  0  0  0  0  0  0  0  0  0
    2.5915   -6.8119   -4.8548 C   0  0  0  0  0  0  0  0  0  0  0  0
    2.9827   -7.5241   -6.4076 Cl  0  0  0  0  0  0  0  0  0  0  0  0
    2.4263   -5.4073   -4.7041 C   0  0  0  0  0  0  0  0  0  0  0  0
    2.3264   -4.3553   -6.1242 Cl  0  0  0  0  0  0  0  0  0  0  0  0
    2.2372   -4.8487   -3.4383 C   0  0  0  0  0  0  0  0  0  0  0  0
    2.0731   -5.6918   -2.3313 C   0  0  0  0  0  0  0  0  0  0  0  0
    1.6947   -5.3090   -0.9502 C   0  0  0  0  0  0  0  0  0  0  0  0
    0.7833   -4.3332   -0.7980 C   0  0  0  0  0  0  0  0  0  0  0  0
    1.1555   -2.9534   -0.9917 C   0  0  0  0  0  0  0  0  0  0  0  0
    1.4315   -1.8297   -1.1252 N   0  0  0  0  0  0  0  0  0  0  0  0
   -0.5994   -4.6610   -1.0359 C   0  0  0  0  0  0  0  0  0  0  0  0
   -1.7167   -4.9545   -1.1884 N   0  0  0  0  0  0  0  0  0  0  0  0
   -2.7184    6.0113   -1.5516 H   0  0  0  0  0  0  0  0  0  0  0  0
   -3.0799    4.0556   -6.6826 H   0  0  0  0  0  0  0  0  0  0  0  0
    1.9163    4.8978   -5.9799 H   0  0  0  0  0  0  0  0  0  0  0  0
    1.0894    4.3685   -9.3425 H   0  0  0  0  0  0  0  0  0  0  0  0
    2.3840    2.2192   -8.1477 H   0  0  0  0  0  0  0  0  0  0  0  0
    1.9935    1.4801  -10.6641 H   0  0  0  0  0  0  0  0  0  0  0  0
   -0.5511    0.9030  -10.9585 H   0  0  0  0  0  0  0  0  0  0  0  0
   -1.7829    1.3158   -8.6481 H   0  0  0  0  0  0  0  0  0  0  0  0
    0.5652    0.2947   -7.8689 H   0  0  0  0  0  0  0  0  0  0  0  0
    0.1451    1.6478   -6.7637 H   0  0  0  0  0  0  0  0  0  0  0  0
   -1.2120    3.8582   -9.6869 H   0  0  0  0  0  0  0  0  0  0  0  0
   -2.0394    5.8063    0.9947 H   0  0  0  0  0  0  0  0  0  0  0  0
   -2.2451   -0.4270    3.0477 H   0  0  0  0  0  0  0  0  0  0  0  0
   -3.5075   -2.0661    4.7462 H   0  0  0  0  0  0  0  0  0  0  0  0
   -5.8025   -2.6021    4.1945 H   0  0  0  0  0  0  0  0  0  0  0  0
   -7.4135   -3.6252    2.6325 H   0  0  0  0  0  0  0  0  0  0  0  0
   -6.8521   -4.5694    1.2012 H   0  0  0  0  0  0  0  0  0  0  0  0
   -7.8363   -6.1106    2.8397 H   0  0  0  0  0  0  0  0  0  0  0  0
   -6.7669   -5.4868    4.1636 H   0  0  0  0  0  0  0  0  0  0  0  0
   -6.0607   -6.3974    2.7707 H   0  0  0  0  0  0  0  0  0  0  0  0
   -4.4241   -4.9725    0.8433 H   0  0  0  0  0  0  0  0  0  0  0  0
   -2.1188   -4.2864    1.3409 H   0  0  0  0  0  0  0  0  0  0  0  0
   -2.4953   -4.9534    5.3196 H   0  0  0  0  0  0  0  0  0  0  0  0
   -2.3486   -5.2653    7.7204 H   0  0  0  0  0  0  0  0  0  0  0  0
    0.2485   -3.6232    9.8537 H   0  0  0  0  0  0  0  0  0  0  0  0
   -0.8108   -5.0567    9.6772 H   0  0  0  0  0  0  0  0  0  0  0  0
   -1.7764   -3.5594   11.3544 H   0  0  0  0  0  0  0  0  0  0  0  0
   -1.7217   -2.1487   10.2366 H   0  0  0  0  0  0  0  0  0  0  0  0
   -2.8364   -3.5341    9.9006 H   0  0  0  0  0  0  0  0  0  0  0  0
    0.4635   -2.0056    8.0191 H   0  0  0  0  0  0  0  0  0  0  0  0
    0.2812   -1.6064    5.6420 H   0  0  0  0  0  0  0  0  0  0  0  0
    2.6937   -1.1280    2.3746 H   0  0  0  0  0  0  0  0  0  0  0  0
    4.1885    2.4542    2.8496 H   0  0  0  0  0  0  0  0  0  0  0  0
    6.1628    2.7047    1.5008 H   0  0  0  0  0  0  0  0  0  0  0  0
    6.5386    1.3593   -1.9808 H   0  0  0  0  0  0  0  0  0  0  0  0
    7.4303    1.9647   -0.5436 H   0  0  0  0  0  0  0  0  0  0  0  0
    5.4011    3.6249   -2.2074 H   0  0  0  0  0  0  0  0  0  0  0  0
    6.4031    4.2236   -0.8166 H   0  0  0  0  0  0  0  0  0  0  0  0
    7.2001    3.7066   -2.3588 H   0  0  0  0  0  0  0  0  0  0  0  0
    4.1819    0.7545   -1.8066 H   0  0  0  0  0  0  0  0  0  0  0  0
    2.1449    0.5684   -0.4619 H   0  0  0  0  0  0  0  0  0  0  0  0
    1.9135    4.3383    2.5651 H   0  0  0  0  0  0  0  0  0  0  0  0
    1.0645    5.4876    4.5359 H   0  0  0  0  0  0  0  0  0  0  0  0
    0.4973    5.4174    6.9481 H   0  0  0  0  0  0  0  0  0  0  0  0
    0.4501    3.8611    7.8363 H   0  0  0  0  0  0  0  0  0  0  0  0
   -1.5832    4.7132    5.6556 H   0  0  0  0  0  0  0  0  0  0  0  0
   -1.8497    4.8567    7.4181 H   0  0  0  0  0  0  0  0  0  0  0  0
   -1.6732    3.2249    6.6722 H   0  0  0  0  0  0  0  0  0  0  0  0
    0.9286    1.7308    6.6646 H   0  0  0  0  0  0  0  0  0  0  0  0
    1.6813    0.5705    4.7017 H   0  0  0  0  0  0  0  0  0  0  0  0
   -1.0874   -5.9711    2.6748 H   0  0  0  0  0  0  0  0  0  0  0  0
    0.4310   -7.6673    1.1906 H   0  0  0  0  0  0  0  0  0  0  0  0
    2.5815   -8.7323   -3.8191 H   0  0  0  0  0  0  0  0  0  0  0  0
    2.0758   -3.7791   -3.3379 H   0  0  0  0  0  0  0  0  0  0  0  0
  1  2  2  3
  2  3  1  0
  3  4  2  0
  3  5  1  0
  5  6  2  0
  6  7  1  0
  7  8  2  0
  8  9  1  0
  9 10  2  0
 10 11  1  0
 11 12  2  3
 12 13  1  0
 13 14  3  0
 12 15  1  0
 15 16  3  0
  8 17  1  0
 17 18  1  0
 18 19  1  0
 19 20  2  0
 20 21  1  0
 21 22  1  0
 21 23  1  0
  1 24  1  0
 24 25  2  0
 25 26  1  0
 26 27  1  0
 27 28  1  0
 28 29  1  0
 29 30  2  0
 30 31  1  0
 31 32  1  0
 32 33  1  0
 33 34  2  0
 34 35  1  0
 35 36  2  0
 36 37  1  0
 37 38  1  0
 36 39  1  0
 39 40  2  0
 32 41  1  0
 41 42  2  0
 42 43  1  0
 43 44  2  0
 44 45  1  0
 45 46  1  0
 44 47  1  0
 47 48  2  0
 32 49  1  0
 49 50  2  0
 50 51  1  0
 51 52  1  0
 52 53  2  0
 53 54  1  0
 54 55  1  0
 55 56  2  0
 56 57  1  0
 57 58  2  0
 58 59  1  0
 59 60  1  0
 58 61  1  0
 61 62  2  0
 54 63  1  0
 63 64  2  0
 64 65  1  0
 65 66  2  0
 66 67  1  0
 67 68  1  0
 66 69  1  0
 69 70  2  0
 54 71  1  0
 71 72  1  0
 72 73  1  0
 50 74  1  0
 74 75  1  0
 75 76  2  0
 75 77  1  0
 77 78  2  3
 78 79  1  0
 79 80  2  0
 79 81  1  0
 81 82  2  0
 82 83  1  0
 83 84  1  0
 83 85  2  0
 85 86  1  0
 85 87  1  0
 87 88  2  0
 88 89  1  0
 89 90  2  3
 90 91  1  0
 91 92  3  0
 90 93  1  0
 93 94  3  0
 11  2  1  0
 23 17  1  0
 73 24  1  0
 89 78  1  0
 10  5  1  0
 22 18  1  0
 72 26  2  0
 88 81  1  0
 23  7  1  0
 71 28  2  0
 53 29  1  0
 62 55  1  0
 70 63  1  0
 51 31  2  0
 40 33  1  0
 48 41  1  0
 76 49  1  0
  1 95  1  0
  6 96  1  0
  9 97  1  0
 17 98  1  0
 18 99  1  0
 19100  1  0
 20101  1  0
 21102  1  0
 22103  1  0
 22104  1  0
 23105  1  0
 25106  1  0
 30107  1  0
 34108  1  0
 35109  1  0
 37110  1  0
 37111  1  0
 38112  1  0
 38113  1  0
 38114  1  0
 39115  1  0
 40116  1  0
 42117  1  0
 43118  1  0
 45119  1  0
 45120  1  0
 46121  1  0
 46122  1  0
 46123  1  0
 47124  1  0
 48125  1  0
 52126  1  0
 56127  1  0
 57128  1  0
 59129  1  0
 59130  1  0
 60131  1  0
 60132  1  0
 60133  1  0
 61134  1  0
 62135  1  0
 64136  1  0
 65137  1  0
 67138  1  0
 67139  1  0
 68140  1  0
 68141  1  0
 68142  1  0
 69143  1  0
 70144  1  0
 76145  1  0
 77146  1  0
 82147  1  0
 87148  1  0
M  END

