
     RDKit          3D

158175  0  0  0  0  0  0  0  0999 V2000
   -2.4916    2.7111    3.6828 C   0  0  0  0  0  0  0  0  0  0  0  0
   -1.2768    2.5982    4.2558 C   0  0  0  0  0  0  0  0  0  0  0  0
   -0.0609    2.0901    3.6108 C   0  0  0  0  0  0  0  0  0  0  0  0
   -0.0088    1.2370    2.6828 O   0  0  0  0  0  0  0  0  0  0  0  0
    1.0866    2.6456    4.2899 C   0  0  0  0  0  0  0  0  0  0  0  0
    2.4311    2.5986    3.8598 C   0  0  0  0  0  0  0  0  0  0  0  0
    3.2892    3.3621    4.6274 C   0  0  0  0  0  0  0  0  0  0  0  0
    2.8573    4.1373    5.7493 C   0  0  0  0  0  0  0  0  0  0  0  0
    1.5379    4.1864    6.1787 C   0  0  0  0  0  0  0  0  0  0  0  0
    0.6420    3.3874    5.4142 C   0  0  0  0  0  0  0  0  0  0  0  0
   -0.8367    3.2514    5.5245 C   0  0  0  0  0  0  0  0  0  0  0  0
   -1.5853    3.4392    6.6400 C   0  0  0  0  0  0  0  0  0  0  0  0
   -2.9497    2.9774    6.7318 C   0  0  0  0  0  0  0  0  0  0  0  0
   -4.0393    2.5952    6.8039 N   0  0  0  0  0  0  0  0  0  0  0  0
   -1.0340    3.9588    7.8638 C   0  0  0  0  0  0  0  0  0  0  0  0
   -0.6073    4.3782    8.8567 N   0  0  0  0  0  0  0  0  0  0  0  0
    4.2498    4.6636    5.9422 C   0  0  0  0  0  0  0  0  0  0  0  0
    4.5085    6.1312    5.4917 C   0  0  0  0  0  0  0  0  0  0  0  0
    6.0098    6.2795    5.4111 C   0  0  0  0  0  0  0  0  0  0  0  0
    6.4061    5.5562    4.3575 C   0  0  0  0  0  0  0  0  0  0  0  0
    5.1618    4.9423    3.7662 C   0  0  0  0  0  0  0  0  0  0  0  0
    4.1983    6.0930    4.0054 C   0  0  0  0  0  0  0  0  0  0  0  0
    4.6900    3.8693    4.7906 C   0  0  0  0  0  0  0  0  0  0  0  0
   -2.7689    2.3675    2.2784 C   0  0  0  0  0  0  0  0  0  0  0  0
   -1.8302    2.8388    0.9441 S   0  0  0  0  0  0  0  0  0  0  0  0
   -2.7547    1.9990   -0.1726 C   0  0  0  0  0  0  0  0  0  0  0  0
   -2.3579    1.2632   -1.3459 C   0  0  0  0  0  0  0  0  0  0  0  0
   -3.1843    0.1443   -1.4390 C   0  0  0  0  0  0  0  0  0  0  0  0
   -4.2720    0.1594   -0.3620 C   0  0  0  0  0  0  0  0  0  0  0  0
   -5.6237    0.4881   -1.0211 C   0  0  0  0  0  0  0  0  0  0  0  0
   -6.4172    1.5812   -0.5977 C   0  0  0  0  0  0  0  0  0  0  0  0
   -7.5977    1.9107   -1.2679 C   0  0  0  0  0  0  0  0  0  0  0  0
   -8.0376    1.1429   -2.3520 C   0  0  0  0  0  0  0  0  0  0  0  0
   -9.2713    1.5474   -3.1141 C   0  0  0  0  0  0  0  0  0  0  0  0
   -8.9224    2.5506   -4.2094 C   0  0  0  0  0  0  0  0  0  0  0  0
   -7.2844    0.0317   -2.7556 C   0  0  0  0  0  0  0  0  0  0  0  0
   -6.1005   -0.3019   -2.0873 C   0  0  0  0  0  0  0  0  0  0  0  0
   -4.2692   -1.1305    0.4677 C   0  0  0  0  0  0  0  0  0  0  0  0
   -3.0431   -1.6567    0.9288 C   0  0  0  0  0  0  0  0  0  0  0  0
   -3.0076   -2.8120    1.7110 C   0  0  0  0  0  0  0  0  0  0  0  0
   -4.1949   -3.4607    2.0714 C   0  0  0  0  0  0  0  0  0  0  0  0
   -4.1524   -4.6797    2.9525 C   0  0  0  0  0  0  0  0  0  0  0  0
   -4.1349   -4.2845    4.4272 C   0  0  0  0  0  0  0  0  0  0  0  0
   -5.4226   -2.9272    1.6531 C   0  0  0  0  0  0  0  0  0  0  0  0
   -5.4619   -1.7671    0.8678 C   0  0  0  0  0  0  0  0  0  0  0  0
   -3.7517    1.3188    0.4675 C   0  0  0  0  0  0  0  0  0  0  0  0
   -3.8048    1.5362    1.8511 C   0  0  0  0  0  0  0  0  0  0  0  0
   -2.7956   -0.9531   -2.2243 C   0  0  0  0  0  0  0  0  0  0  0  0
   -1.5880   -0.8563   -2.9190 C   0  0  0  0  0  0  0  0  0  0  0  0
   -0.7841   -1.9422   -3.4108 C   0  0  0  0  0  0  0  0  0  0  0  0
    0.5028   -1.4952   -3.6600 C   0  0  0  0  0  0  0  0  0  0  0  0
    0.6053    0.0197   -3.4522 C   0  0  0  0  0  0  0  0  0  0  0  0
   -0.7796    0.2761   -2.8593 C   0  0  0  0  0  0  0  0  0  0  0  0
   -1.1478    1.3576   -2.0384 C   0  0  0  0  0  0  0  0  0  0  0  0
    1.6616    0.4021   -2.4077 C   0  0  0  0  0  0  0  0  0  0  0  0
    2.5044    1.5212   -2.5744 C   0  0  0  0  0  0  0  0  0  0  0  0
    3.4321    1.8662   -1.5908 C   0  0  0  0  0  0  0  0  0  0  0  0
    3.5314    1.1173   -0.4088 C   0  0  0  0  0  0  0  0  0  0  0  0
    4.5702    1.4663    0.6230 C   0  0  0  0  0  0  0  0  0  0  0  0
    5.9673    1.0618    0.1550 C   0  0  0  0  0  0  0  0  0  0  0  0
    2.6761    0.0246   -0.2167 C   0  0  0  0  0  0  0  0  0  0  0  0
    1.7401   -0.3188   -1.1949 C   0  0  0  0  0  0  0  0  0  0  0  0
    0.7424    0.7299   -4.8181 C   0  0  0  0  0  0  0  0  0  0  0  0
    1.3996    0.1092   -5.9046 C   0  0  0  0  0  0  0  0  0  0  0  0
    1.4540    0.7246   -7.1606 C   0  0  0  0  0  0  0  0  0  0  0  0
    0.8765    1.9851   -7.3611 C   0  0  0  0  0  0  0  0  0  0  0  0
    0.8754    2.6085   -8.7317 C   0  0  0  0  0  0  0  0  0  0  0  0
   -0.2475    2.0241   -9.5906 C   0  0  0  0  0  0  0  0  0  0  0  0
    0.2578    2.6300   -6.2833 C   0  0  0  0  0  0  0  0  0  0  0  0
    0.2006    2.0193   -5.0271 C   0  0  0  0  0  0  0  0  0  0  0  0
    1.4280   -2.5598   -3.5904 C   0  0  0  0  0  0  0  0  0  0  0  0
    0.8209   -3.7460   -3.2455 C   0  0  0  0  0  0  0  0  0  0  0  0
   -0.8217   -3.5717   -2.9377 S   0  0  0  0  0  0  0  0  0  0  0  0
    1.7932   -4.5280   -2.6948 C   0  0  0  0  0  0  0  0  0  0  0  0
    1.8581   -5.7009   -1.5038 S   0  0  0  0  0  0  0  0  0  0  0  0
    3.4805   -5.3324   -1.1055 C   0  0  0  0  0  0  0  0  0  0  0  0
    3.9473   -4.2561   -1.8764 C   0  0  0  0  0  0  0  0  0  0  0  0
    2.9473   -3.8123   -2.7460 C   0  0  0  0  0  0  0  0  0  0  0  0
    2.7681   -2.5960   -3.3248 N   0  0  0  0  0  0  0  0  0  0  0  0
    3.7990   -1.5764   -3.5434 C   0  0  0  0  0  0  0  0  0  0  0  0
    4.8726   -2.1001   -4.4911 C   0  0  0  0  0  0  0  0  0  0  0  0
    4.2538   -6.0128   -0.0582 C   0  0  0  0  0  0  0  0  0  0  0  0
    3.8330   -6.1094    1.2170 C   0  0  0  0  0  0  0  0  0  0  0  0
    2.6353   -5.4847    1.7858 C   0  0  0  0  0  0  0  0  0  0  0  0
    2.0301   -4.4825    1.3100 O   0  0  0  0  0  0  0  0  0  0  0  0
    2.2989   -6.1677    3.0206 C   0  0  0  0  0  0  0  0  0  0  0  0
    1.1316   -6.0662    3.7868 C   0  0  0  0  0  0  0  0  0  0  0  0
   -0.0593   -4.8097    3.4503 Cl  0  0  0  0  0  0  0  0  0  0  0  0
    0.9180   -7.0066    4.8096 C   0  0  0  0  0  0  0  0  0  0  0  0
   -0.5475   -6.9146    5.7942 Cl  0  0  0  0  0  0  0  0  0  0  0  0
    1.8436   -8.0608    5.0096 C   0  0  0  0  0  0  0  0  0  0  0  0
    1.5062   -9.2998    6.2208 Cl  0  0  0  0  0  0  0  0  0  0  0  0
    3.0072   -8.1515    4.2120 C   0  0  0  0  0  0  0  0  0  0  0  0
    3.9757   -9.6298    4.2601 Cl  0  0  0  0  0  0  0  0  0  0  0  0
    3.2672   -7.1278    3.2797 C   0  0  0  0  0  0  0  0  0  0  0  0
    4.3697   -6.9954    2.2849 C   0  0  0  0  0  0  0  0  0  0  0  0
    5.6876   -7.2145    2.5348 C   0  0  0  0  0  0  0  0  0  0  0  0
    6.1654   -7.5307    3.8591 C   0  0  0  0  0  0  0  0  0  0  0  0
    6.5531   -7.7425    4.9288 N   0  0  0  0  0  0  0  0  0  0  0  0
    6.7140   -6.9252    1.5675 C   0  0  0  0  0  0  0  0  0  0  0  0
    7.5492   -6.6993    0.8011 N   0  0  0  0  0  0  0  0  0  0  0  0
   -3.3082    3.1587    4.2235 H   0  0  0  0  0  0  0  0  0  0  0  0
    2.7545    2.0670    2.9784 H   0  0  0  0  0  0  0  0  0  0  0  0
    1.2378    4.8402    6.9804 H   0  0  0  0  0  0  0  0  0  0  0  0
    4.7120    4.3658    6.9103 H   0  0  0  0  0  0  0  0  0  0  0  0
    3.9850    6.9149    6.0753 H   0  0  0  0  0  0  0  0  0  0  0  0
    6.6409    6.9164    6.0193 H   0  0  0  0  0  0  0  0  0  0  0  0
    7.4174    5.5076    3.9632 H   0  0  0  0  0  0  0  0  0  0  0  0
    5.2523    4.5959    2.7155 H   0  0  0  0  0  0  0  0  0  0  0  0
    3.1372    5.8620    3.7667 H   0  0  0  0  0  0  0  0  0  0  0  0
    4.4886    7.0304    3.4694 H   0  0  0  0  0  0  0  0  0  0  0  0
    5.4297    3.0720    5.0342 H   0  0  0  0  0  0  0  0  0  0  0  0
   -6.1253    2.2022    0.2377 H   0  0  0  0  0  0  0  0  0  0  0  0
   -8.1646    2.7765   -0.9461 H   0  0  0  0  0  0  0  0  0  0  0  0
  -10.0120    2.0014   -2.4224 H   0  0  0  0  0  0  0  0  0  0  0  0
   -9.7501    0.6539   -3.5730 H   0  0  0  0  0  0  0  0  0  0  0  0
   -8.2138    2.0979   -4.9351 H   0  0  0  0  0  0  0  0  0  0  0  0
   -8.4624    3.4607   -3.7671 H   0  0  0  0  0  0  0  0  0  0  0  0
   -9.8456    2.8491   -4.7491 H   0  0  0  0  0  0  0  0  0  0  0  0
   -7.6113   -0.5774   -3.5901 H   0  0  0  0  0  0  0  0  0  0  0  0
   -5.5521   -1.1728   -2.4148 H   0  0  0  0  0  0  0  0  0  0  0  0
   -2.1067   -1.1657    0.6890 H   0  0  0  0  0  0  0  0  0  0  0  0
   -2.0514   -3.1915    2.0443 H   0  0  0  0  0  0  0  0  0  0  0  0
   -3.2453   -5.2804    2.7291 H   0  0  0  0  0  0  0  0  0  0  0  0
   -5.0372   -5.3261    2.7597 H   0  0  0  0  0  0  0  0  0  0  0  0
   -3.2315   -3.6770    4.6570 H   0  0  0  0  0  0  0  0  0  0  0  0
   -5.0459   -3.6997    4.6815 H   0  0  0  0  0  0  0  0  0  0  0  0
   -4.1154   -5.1995    5.0555 H   0  0  0  0  0  0  0  0  0  0  0  0
   -6.3521   -3.4004    1.9430 H   0  0  0  0  0  0  0  0  0  0  0  0
   -6.4284   -1.3739    0.5826 H   0  0  0  0  0  0  0  0  0  0  0  0
   -4.4734    1.0094    2.5207 H   0  0  0  0  0  0  0  0  0  0  0  0
   -3.3319   -1.8917   -2.1843 H   0  0  0  0  0  0  0  0  0  0  0  0
   -0.4666    2.1769   -1.8490 H   0  0  0  0  0  0  0  0  0  0  0  0
    2.4629    2.1290   -3.4679 H   0  0  0  0  0  0  0  0  0  0  0  0
    4.0803    2.7195   -1.7510 H   0  0  0  0  0  0  0  0  0  0  0  0
    4.3560    0.9558    1.5855 H   0  0  0  0  0  0  0  0  0  0  0  0
    4.5515    2.5611    0.8148 H   0  0  0  0  0  0  0  0  0  0  0  0
    6.0027   -0.0304   -0.0476 H   0  0  0  0  0  0  0  0  0  0  0  0
    6.7081    1.3012    0.9480 H   0  0  0  0  0  0  0  0  0  0  0  0
    6.2437    1.6153   -0.7672 H   0  0  0  0  0  0  0  0  0  0  0  0
    2.7296   -0.5640    0.6928 H   0  0  0  0  0  0  0  0  0  0  0  0
    1.0797   -1.1562   -1.0090 H   0  0  0  0  0  0  0  0  0  0  0  0
    1.8543   -0.8669   -5.8028 H   0  0  0  0  0  0  0  0  0  0  0  0
    1.9363    0.2107   -7.9844 H   0  0  0  0  0  0  0  0  0  0  0  0
    1.8531    2.4241   -9.2299 H   0  0  0  0  0  0  0  0  0  0  0  0
    0.7395    3.7123   -8.6583 H   0  0  0  0  0  0  0  0  0  0  0  0
   -1.2335    2.2308   -9.1240 H   0  0  0  0  0  0  0  0  0  0  0  0
   -0.2219    2.4922  -10.5979 H   0  0  0  0  0  0  0  0  0  0  0  0
   -0.1172    0.9257   -9.7052 H   0  0  0  0  0  0  0  0  0  0  0  0
   -0.1890    3.6067   -6.4166 H   0  0  0  0  0  0  0  0  0  0  0  0
   -0.2733    2.5630   -4.2257 H   0  0  0  0  0  0  0  0  0  0  0  0
    4.8954   -3.7607   -1.7170 H   0  0  0  0  0  0  0  0  0  0  0  0
    4.2587   -1.2924   -2.5733 H   0  0  0  0  0  0  0  0  0  0  0  0
    3.3647   -0.6788   -4.0188 H   0  0  0  0  0  0  0  0  0  0  0  0
    4.4108   -2.3873   -5.4595 H   0  0  0  0  0  0  0  0  0  0  0  0
    5.3857   -2.9865   -4.0569 H   0  0  0  0  0  0  0  0  0  0  0  0
    5.6276   -1.3087   -4.6786 H   0  0  0  0  0  0  0  0  0  0  0  0
    5.1354   -6.5366   -0.3914 H   0  0  0  0  0  0  0  0  0  0  0  0
  1  2  2  3
  2  3  1  0
  3  4  2  0
  3  5  1  0
  5  6  2  0
  6  7  1  0
  7  8  2  0
  8  9  1  0
  9 10  2  0
 10 11  1  0
 11 12  2  3
 12 13  1  0
 13 14  3  0
 12 15  1  0
 15 16  3  0
  8 17  1  0
 17 18  1  0
 18 19  1  0
 19 20  2  0
 20 21  1  0
 21 22  1  0
 21 23  1  0
  1 24  1  0
 24 25  1  0
 25 26  1  0
 26 27  1  0
 27 28  2  0
 28 29  1  0
 29 30  1  0
 30 31  2  0
 31 32  1  0
 32 33  2  0
 33 34  1  0
 34 35  1  0
 33 36  1  0
 36 37  2  0
 29 38  1  0
 38 39  2  0
 39 40  1  0
 40 41  2  0
 41 42  1  0
 42 43  1  0
 41 44  1  0
 44 45  2  0
 29 46  1  0
 46 47  1  0
 28 48  1  0
 48 49  2  0
 49 50  1  0
 50 51  2  0
 51 52  1  0
 52 53  1  0
 53 54  2  0
 52 55  1  0
 55 56  2  0
 56 57  1  0
 57 58  2  0
 58 59  1  0
 59 60  1  0
 58 61  1  0
 61 62  2  0
 52 63  1  0
 63 64  2  0
 64 65  1  0
 65 66  2  0
 66 67  1  0
 67 68  1  0
 66 69  1  0
 69 70  2  0
 51 71  1  0
 71 72  2  0
 72 73  1  0
 72 74  1  0
 74 75  1  0
 75 76  1  0
 76 77  2  0
 77 78  1  0
 78 79  1  0
 79 80  1  0
 80 81  1  0
 76 82  1  0
 82 83  2  3
 83 84  1  0
 84 85  2  0
 84 86  1  0
 86 87  2  0
 87 88  1  0
 87 89  1  0
 89 90  1  0
 89 91  2  0
 91 92  1  0
 91 93  1  0
 93 94  1  0
 93 95  2  0
 95 96  1  0
 96 97  2  3
 97 98  1  0
 98 99  3  0
 97100  1  0
100101  3  0
 11  2  1  0
 23 17  1  0
 47 24  2  0
 53 49  1  0
 62 55  1  0
 70 63  1  0
 79 71  1  0
 96 83  1  0
 10  5  1  0
 22 18  1  0
 46 26  2  0
 73 50  1  0
 78 74  2  0
 95 86  1  0
 23  7  1  0
 54 27  1  0
 37 30  1  0
 45 38  1  0
  1102  1  0
  6103  1  0
  9104  1  0
 17105  1  0
 18106  1  0
 19107  1  0
 20108  1  0
 21109  1  0
 22110  1  0
 22111  1  0
 23112  1  0
 31113  1  0
 32114  1  0
 34115  1  0
 34116  1  0
 35117  1  0
 35118  1  0
 35119  1  0
 36120  1  0
 37121  1  0
 39122  1  0
 40123  1  0
 42124  1  0
 42125  1  0
 43126  1  0
 43127  1  0
 43128  1  0
 44129  1  0
 45130  1  0
 47131  1  0
 48132  1  0
 54133  1  0
 56134  1  0
 57135  1  0
 59136  1  0
 59137  1  0
 60138  1  0
 60139  1  0
 60140  1  0
 61141  1  0
 62142  1  0
 64143  1  0
 65144  1  0
 67145  1  0
 67146  1  0
 68147  1  0
 68148  1  0
 68149  1  0
 69150  1  0
 70151  1  0
 77152  1  0
 80153  1  0
 80154  1  0
 81155  1  0
 81156  1  0
 81157  1  0
 82158  1  0
M  END

