
     RDKit          3D

170192  0  0  0  0  0  0  0  0999 V2000
   -4.9069    3.1312    7.9214 C   0  0  0  0  0  0  0  0  0  0  0  0
   -6.1942    3.4689    7.7501 C   0  0  0  0  0  0  0  0  0  0  0  0
   -6.7075    4.0946    6.5275 C   0  0  0  0  0  0  0  0  0  0  0  0
   -6.0190    4.5135    5.5583 O   0  0  0  0  0  0  0  0  0  0  0  0
   -8.1356    4.2363    6.6468 C   0  0  0  0  0  0  0  0  0  0  0  0
   -9.0099    4.7724    5.6729 C   0  0  0  0  0  0  0  0  0  0  0  0
  -10.3433    4.6888    6.0108 C   0  0  0  0  0  0  0  0  0  0  0  0
  -10.8045    4.1218    7.2427 C   0  0  0  0  0  0  0  0  0  0  0  0
   -9.9548    3.6353    8.2218 C   0  0  0  0  0  0  0  0  0  0  0  0
   -8.5663    3.6822    7.8864 C   0  0  0  0  0  0  0  0  0  0  0  0
   -7.3721    3.1807    8.6412 C   0  0  0  0  0  0  0  0  0  0  0  0
   -7.3795    2.4195    9.7726 C   0  0  0  0  0  0  0  0  0  0  0  0
   -8.5943    1.9602   10.3982 C   0  0  0  0  0  0  0  0  0  0  0  0
   -9.5507    1.5367   10.8991 N   0  0  0  0  0  0  0  0  0  0  0  0
   -6.1995    1.8028   10.3133 C   0  0  0  0  0  0  0  0  0  0  0  0
   -5.2553    1.2897   10.7472 N   0  0  0  0  0  0  0  0  0  0  0  0
  -12.2307    4.3269    6.8183 C   0  0  0  0  0  0  0  0  0  0  0  0
  -13.0349    3.0787    6.3534 C   0  0  0  0  0  0  0  0  0  0  0  0
  -12.1082    2.0677    5.7121 C   0  0  0  0  0  0  0  0  0  0  0  0
  -11.6816    2.6108    4.5708 C   0  0  0  0  0  0  0  0  0  0  0  0
  -12.3292    3.9711    4.4718 C   0  0  0  0  0  0  0  0  0  0  0  0
  -13.6755    3.6428    5.0966 C   0  0  0  0  0  0  0  0  0  0  0  0
  -11.7550    4.9231    5.5649 C   0  0  0  0  0  0  0  0  0  0  0  0
   -4.1466    2.6004    6.7906 C   0  0  0  0  0  0  0  0  0  0  0  0
   -4.4196    1.3508    6.2237 C   0  0  0  0  0  0  0  0  0  0  0  0
   -3.5274    1.0752    5.2016 C   0  0  0  0  0  0  0  0  0  0  0  0
   -3.2811   -0.2995    4.2319 S   0  0  0  0  0  0  0  0  0  0  0  0
   -1.9560    0.4438    3.4681 C   0  0  0  0  0  0  0  0  0  0  0  0
   -1.0185    0.0275    2.5404 C   0  0  0  0  0  0  0  0  0  0  0  0
   -0.6207   -1.3173    1.9661 C   0  0  0  0  0  0  0  0  0  0  0  0
   -0.3831   -2.2967    3.1281 C   0  0  0  0  0  0  0  0  0  0  0  0
    0.8560   -2.3356    3.8165 C   0  0  0  0  0  0  0  0  0  0  0  0
    1.0655   -3.2501    4.8493 C   0  0  0  0  0  0  0  0  0  0  0  0
    0.0416   -4.1158    5.2515 C   0  0  0  0  0  0  0  0  0  0  0  0
    0.2875   -5.1048    6.3587 C   0  0  0  0  0  0  0  0  0  0  0  0
    0.3174   -4.4124    7.7176 C   0  0  0  0  0  0  0  0  0  0  0  0
   -1.2139   -4.0299    4.6346 C   0  0  0  0  0  0  0  0  0  0  0  0
   -1.4240   -3.1249    3.5918 C   0  0  0  0  0  0  0  0  0  0  0  0
   -1.5951   -1.8750    0.9133 C   0  0  0  0  0  0  0  0  0  0  0  0
   -1.3852   -3.1684    0.4009 C   0  0  0  0  0  0  0  0  0  0  0  0
   -2.2484   -3.7177   -0.5472 C   0  0  0  0  0  0  0  0  0  0  0  0
   -3.3439   -2.9853   -1.0191 C   0  0  0  0  0  0  0  0  0  0  0  0
   -4.2830   -3.5963   -2.0261 C   0  0  0  0  0  0  0  0  0  0  0  0
   -5.5435   -4.1200   -1.3413 C   0  0  0  0  0  0  0  0  0  0  0  0
   -3.5637   -1.6905   -0.5225 C   0  0  0  0  0  0  0  0  0  0  0  0
   -2.6935   -1.1358    0.4238 C   0  0  0  0  0  0  0  0  0  0  0  0
    0.6866   -0.8911    1.2923 C   0  0  0  0  0  0  0  0  0  0  0  0
    0.9976    0.4504    1.5438 C   0  0  0  0  0  0  0  0  0  0  0  0
   -0.0835    0.9999    2.3178 C   0  0  0  0  0  0  0  0  0  0  0  0
   -0.3060    2.3790    3.2909 S   0  0  0  0  0  0  0  0  0  0  0  0
   -1.7109    1.7043    3.9605 C   0  0  0  0  0  0  0  0  0  0  0  0
   -2.6035    2.0536    4.9617 C   0  0  0  0  0  0  0  0  0  0  0  0
   -2.7982    3.3358    6.0326 S   0  0  0  0  0  0  0  0  0  0  0  0
    2.2230    1.0266    1.1742 C   0  0  0  0  0  0  0  0  0  0  0  0
    3.1454    0.1901    0.5234 C   0  0  0  0  0  0  0  0  0  0  0  0
    4.5386    0.5450    0.0083 C   0  0  0  0  0  0  0  0  0  0  0  0
    4.3888    1.6244   -1.0776 C   0  0  0  0  0  0  0  0  0  0  0  0
    3.9929    1.2838   -2.3904 C   0  0  0  0  0  0  0  0  0  0  0  0
    3.8244    2.2678   -3.3627 C   0  0  0  0  0  0  0  0  0  0  0  0
    4.0063    3.6229   -3.0492 C   0  0  0  0  0  0  0  0  0  0  0  0
    3.8612    4.6783   -4.1095 C   0  0  0  0  0  0  0  0  0  0  0  0
    5.2260    5.0623   -4.6821 C   0  0  0  0  0  0  0  0  0  0  0  0
    4.3515    3.9757   -1.7377 C   0  0  0  0  0  0  0  0  0  0  0  0
    4.5087    2.9900   -0.7568 C   0  0  0  0  0  0  0  0  0  0  0  0
    5.5344    0.8959    1.1242 C   0  0  0  0  0  0  0  0  0  0  0  0
    6.7804    1.4679    0.7966 C   0  0  0  0  0  0  0  0  0  0  0  0
    7.7240    1.7455    1.7865 C   0  0  0  0  0  0  0  0  0  0  0  0
    7.4593    1.4285    3.1256 C   0  0  0  0  0  0  0  0  0  0  0  0
    8.4901    1.6964    4.1889 C   0  0  0  0  0  0  0  0  0  0  0  0
    9.5188    0.5694    4.2363 C   0  0  0  0  0  0  0  0  0  0  0  0
    6.2524    0.8023    3.4566 C   0  0  0  0  0  0  0  0  0  0  0  0
    5.3031    0.5315    2.4690 C   0  0  0  0  0  0  0  0  0  0  0  0
    4.9353   -0.8105   -0.5418 C   0  0  0  0  0  0  0  0  0  0  0  0
    3.9647   -1.7566   -0.3615 C   0  0  0  0  0  0  0  0  0  0  0  0
    2.8316   -1.1513    0.2752 C   0  0  0  0  0  0  0  0  0  0  0  0
    1.6157   -1.7235    0.6442 C   0  0  0  0  0  0  0  0  0  0  0  0
    4.1585   -3.1213   -1.3521 S   0  0  0  0  0  0  0  0  0  0  0  0
    5.6154   -2.5004   -1.9522 C   0  0  0  0  0  0  0  0  0  0  0  0
    5.8884   -1.2477   -1.4510 C   0  0  0  0  0  0  0  0  0  0  0  0
    7.0612   -0.4479   -2.3842 S   0  0  0  0  0  0  0  0  0  0  0  0
    7.2244   -1.7837   -3.4171 C   0  0  0  0  0  0  0  0  0  0  0  0
    7.7872   -1.9121   -4.6829 C   0  0  0  0  0  0  0  0  0  0  0  0
    7.3137   -3.0586   -5.3325 C   0  0  0  0  0  0  0  0  0  0  0  0
    6.2589   -3.9200   -4.3019 S   0  0  0  0  0  0  0  0  0  0  0  0
    6.3865   -2.8030   -3.0595 C   0  0  0  0  0  0  0  0  0  0  0  0
    7.6036   -3.3320   -6.7503 C   0  0  0  0  0  0  0  0  0  0  0  0
    6.6674   -3.4247   -7.7164 C   0  0  0  0  0  0  0  0  0  0  0  0
    5.2051   -3.3663   -7.5356 C   0  0  0  0  0  0  0  0  0  0  0  0
    4.5400   -3.8876   -6.6016 O   0  0  0  0  0  0  0  0  0  0  0  0
    4.6158   -2.7088   -8.6829 C   0  0  0  0  0  0  0  0  0  0  0  0
    3.2734   -2.3040   -8.8387 C   0  0  0  0  0  0  0  0  0  0  0  0
    3.0463   -1.5668   -9.9842 C   0  0  0  0  0  0  0  0  0  0  0  0
    4.0823   -1.2231  -10.9182 C   0  0  0  0  0  0  0  0  0  0  0  0
    5.4006   -1.6301  -10.7734 C   0  0  0  0  0  0  0  0  0  0  0  0
    5.6400   -2.4338   -9.6219 C   0  0  0  0  0  0  0  0  0  0  0  0
    6.9131   -3.0293   -9.1366 C   0  0  0  0  0  0  0  0  0  0  0  0
    7.9923   -3.3546   -9.8867 C   0  0  0  0  0  0  0  0  0  0  0  0
    8.0670   -3.0635  -11.2975 C   0  0  0  0  0  0  0  0  0  0  0  0
    8.1345   -2.8365  -12.4304 N   0  0  0  0  0  0  0  0  0  0  0  0
    9.0837   -4.1329   -9.3560 C   0  0  0  0  0  0  0  0  0  0  0  0
    9.9612   -4.7536   -8.9309 N   0  0  0  0  0  0  0  0  0  0  0  0
    3.1027   -0.4551  -11.7499 C   0  0  0  0  0  0  0  0  0  0  0  0
    2.6443   -1.0944  -13.0972 C   0  0  0  0  0  0  0  0  0  0  0  0
    2.6812   -2.6022  -12.9905 C   0  0  0  0  0  0  0  0  0  0  0  0
    1.7194   -2.9461  -12.1329 C   0  0  0  0  0  0  0  0  0  0  0  0
    1.0586   -1.6618  -11.6847 C   0  0  0  0  0  0  0  0  0  0  0  0
    1.1461   -0.8796  -12.9884 C   0  0  0  0  0  0  0  0  0  0  0  0
    2.0365   -0.8219  -10.8100 C   0  0  0  0  0  0  0  0  0  0  0  0
   -4.5093    2.9111    8.8937 H   0  0  0  0  0  0  0  0  0  0  0  0
   -8.6704    5.1879    4.7298 H   0  0  0  0  0  0  0  0  0  0  0  0
  -10.3626    3.2225    9.1309 H   0  0  0  0  0  0  0  0  0  0  0  0
  -12.7961    5.0363    7.4668 H   0  0  0  0  0  0  0  0  0  0  0  0
  -13.7383    2.6608    7.1030 H   0  0  0  0  0  0  0  0  0  0  0  0
  -11.8824    1.0651    6.0576 H   0  0  0  0  0  0  0  0  0  0  0  0
  -11.0508    2.1239    3.8377 H   0  0  0  0  0  0  0  0  0  0  0  0
  -12.3727    4.3983    3.4463 H   0  0  0  0  0  0  0  0  0  0  0  0
  -14.2614    2.8859    4.5204 H   0  0  0  0  0  0  0  0  0  0  0  0
  -14.3095    4.5422    5.2813 H   0  0  0  0  0  0  0  0  0  0  0  0
  -12.0199    5.9989    5.4431 H   0  0  0  0  0  0  0  0  0  0  0  0
   -5.1956    0.6742    6.5588 H   0  0  0  0  0  0  0  0  0  0  0  0
    1.6660   -1.6718    3.5530 H   0  0  0  0  0  0  0  0  0  0  0  0
    2.0313   -3.2851    5.3372 H   0  0  0  0  0  0  0  0  0  0  0  0
   -0.4988   -5.8923    6.3691 H   0  0  0  0  0  0  0  0  0  0  0  0
    1.2594   -5.6176    6.1923 H   0  0  0  0  0  0  0  0  0  0  0  0
    0.4971   -5.1658    8.5142 H   0  0  0  0  0  0  0  0  0  0  0  0
    1.1352   -3.6594    7.7499 H   0  0  0  0  0  0  0  0  0  0  0  0
   -0.6521   -3.9059    7.9159 H   0  0  0  0  0  0  0  0  0  0  0  0
   -2.0261   -4.6709    4.9471 H   0  0  0  0  0  0  0  0  0  0  0  0
   -2.4068   -3.0836    3.1404 H   0  0  0  0  0  0  0  0  0  0  0  0
   -0.5690   -3.7758    0.7644 H   0  0  0  0  0  0  0  0  0  0  0  0
   -2.0544   -4.7167   -0.9164 H   0  0  0  0  0  0  0  0  0  0  0  0
   -4.5642   -2.8426   -2.7946 H   0  0  0  0  0  0  0  0  0  0  0  0
   -3.7933   -4.4504   -2.5572 H   0  0  0  0  0  0  0  0  0  0  0  0
   -6.1773   -4.6430   -2.0874 H   0  0  0  0  0  0  0  0  0  0  0  0
   -5.2831   -4.8401   -0.5386 H   0  0  0  0  0  0  0  0  0  0  0  0
   -6.1239   -3.2778   -0.9107 H   0  0  0  0  0  0  0  0  0  0  0  0
   -4.4145   -1.1157   -0.8703 H   0  0  0  0  0  0  0  0  0  0  0  0
   -2.9012   -0.1365    0.7776 H   0  0  0  0  0  0  0  0  0  0  0  0
    2.4540    2.0600    1.3959 H   0  0  0  0  0  0  0  0  0  0  0  0
    3.8138    0.2553   -2.6702 H   0  0  0  0  0  0  0  0  0  0  0  0
    3.5441    1.9746   -4.3690 H   0  0  0  0  0  0  0  0  0  0  0  0
    3.2112    4.3131   -4.9374 H   0  0  0  0  0  0  0  0  0  0  0  0
    3.3834    5.5899   -3.6755 H   0  0  0  0  0  0  0  0  0  0  0  0
    5.8505    5.5410   -3.9006 H   0  0  0  0  0  0  0  0  0  0  0  0
    5.7506    4.1705   -5.0829 H   0  0  0  0  0  0  0  0  0  0  0  0
    5.0877    5.7916   -5.5069 H   0  0  0  0  0  0  0  0  0  0  0  0
    4.4866    5.0144   -1.4731 H   0  0  0  0  0  0  0  0  0  0  0  0
    4.7408    3.3069    0.2505 H   0  0  0  0  0  0  0  0  0  0  0  0
    7.0200    1.7117   -0.2287 H   0  0  0  0  0  0  0  0  0  0  0  0
    8.6666    2.2005    1.5075 H   0  0  0  0  0  0  0  0  0  0  0  0
    9.0073    2.6592    3.9847 H   0  0  0  0  0  0  0  0  0  0  0  0
    7.9984    1.7832    5.1843 H   0  0  0  0  0  0  0  0  0  0  0  0
   10.2368    0.7552    5.0642 H   0  0  0  0  0  0  0  0  0  0  0  0
    9.0194   -0.4058    4.4155 H   0  0  0  0  0  0  0  0  0  0  0  0
   10.0834    0.5241    3.2818 H   0  0  0  0  0  0  0  0  0  0  0  0
    6.0468    0.5170    4.4811 H   0  0  0  0  0  0  0  0  0  0  0  0
    4.3918    0.0275    2.7653 H   0  0  0  0  0  0  0  0  0  0  0  0
    1.4317   -2.7772    0.4780 H   0  0  0  0  0  0  0  0  0  0  0  0
    8.3902   -1.1495   -5.1600 H   0  0  0  0  0  0  0  0  0  0  0  0
    8.6204   -3.1172   -7.0487 H   0  0  0  0  0  0  0  0  0  0  0  0
    2.4978   -2.5120   -8.1099 H   0  0  0  0  0  0  0  0  0  0  0  0
    6.1640   -1.3141  -11.4680 H   0  0  0  0  0  0  0  0  0  0  0  0
    3.2991    0.6417  -11.7930 H   0  0  0  0  0  0  0  0  0  0  0  0
    3.1206   -0.6735  -14.0100 H   0  0  0  0  0  0  0  0  0  0  0  0
    3.3033   -3.2907  -13.5569 H   0  0  0  0  0  0  0  0  0  0  0  0
    1.4214   -3.9585  -11.8820 H   0  0  0  0  0  0  0  0  0  0  0  0
    0.0363   -1.7804  -11.2682 H   0  0  0  0  0  0  0  0  0  0  0  0
    0.8592    0.1933  -12.8868 H   0  0  0  0  0  0  0  0  0  0  0  0
    0.5678   -1.3454  -13.8235 H   0  0  0  0  0  0  0  0  0  0  0  0
    1.5798    0.0485  -10.2887 H   0  0  0  0  0  0  0  0  0  0  0  0
  1  2  2  3
  2  3  1  0
  3  4  2  0
  3  5  1  0
  5  6  2  0
  6  7  1  0
  7  8  2  0
  8  9  1  0
  9 10  2  0
 10 11  1  0
 11 12  2  3
 12 13  1  0
 13 14  3  0
 12 15  1  0
 15 16  3  0
  8 17  1  0
 17 18  1  0
 18 19  1  0
 19 20  2  0
 20 21  1  0
 21 22  1  0
 21 23  1  0
  1 24  1  0
 24 25  2  0
 25 26  1  0
 26 27  1  0
 27 28  1  0
 28 29  1  0
 29 30  1  0
 30 31  1  0
 31 32  2  0
 32 33  1  0
 33 34  2  0
 34 35  1  0
 35 36  1  0
 34 37  1  0
 37 38  2  0
 30 39  1  0
 39 40  2  0
 40 41  1  0
 41 42  2  0
 42 43  1  0
 43 44  1  0
 42 45  1  0
 45 46  2  0
 30 47  1  0
 47 48  2  0
 48 49  1  0
 49 50  1  0
 50 51  1  0
 51 52  1  0
 52 53  1  0
 48 54  1  0
 54 55  2  0
 55 56  1  0
 56 57  1  0
 57 58  2  0
 58 59  1  0
 59 60  2  0
 60 61  1  0
 61 62  1  0
 60 63  1  0
 63 64  2  0
 56 65  1  0
 65 66  2  0
 66 67  1  0
 67 68  2  0
 68 69  1  0
 69 70  1  0
 68 71  1  0
 71 72  2  0
 56 73  1  0
 73 74  2  0
 74 75  1  0
 75 76  2  0
 74 77  1  0
 77 78  1  0
 78 79  2  0
 79 80  1  0
 80 81  1  0
 81 82  1  0
 82 83  2  0
 83 84  1  0
 84 85  1  0
 83 86  1  0
 86 87  2  3
 87 88  1  0
 88 89  2  0
 88 90  1  0
 90 91  2  0
 91 92  1  0
 92 93  2  0
 93 94  1  0
 94 95  2  0
 95 96  1  0
 96 97  2  3
 97 98  1  0
 98 99  3  0
 97100  1  0
100101  3  0
 93102  1  0
102103  1  0
103104  1  0
104105  2  0
105106  1  0
106107  1  0
106108  1  0
 11  2  1  0
 23 17  1  0
 53 24  1  0
 75 55  1  0
 85 78  1  0
 96 87  1  0
108102  1  0
 10  5  1  0
 22 18  1  0
 52 26  2  0
 64 57  1  0
 72 65  1  0
 79 73  1  0
 85 81  2  0
 95 90  1  0
107103  1  0
 23  7  1  0
 51 28  2  0
108 92  1  0
 49 29  2  0
 38 31  1  0
 46 39  1  0
 76 47  1  0
  1109  1  0
  6110  1  0
  9111  1  0
 17112  1  0
 18113  1  0
 19114  1  0
 20115  1  0
 21116  1  0
 22117  1  0
 22118  1  0
 23119  1  0
 25120  1  0
 32121  1  0
 33122  1  0
 35123  1  0
 35124  1  0
 36125  1  0
 36126  1  0
 36127  1  0
 37128  1  0
 38129  1  0
 40130  1  0
 41131  1  0
 43132  1  0
 43133  1  0
 44134  1  0
 44135  1  0
 44136  1  0
 45137  1  0
 46138  1  0
 54139  1  0
 58140  1  0
 59141  1  0
 61142  1  0
 61143  1  0
 62144  1  0
 62145  1  0
 62146  1  0
 63147  1  0
 64148  1  0
 66149  1  0
 67150  1  0
 69151  1  0
 69152  1  0
 70153  1  0
 70154  1  0
 70155  1  0
 71156  1  0
 72157  1  0
 76158  1  0
 82159  1  0
 86160  1  0
 91161  1  0
 94162  1  0
102163  1  0
103164  1  0
104165  1  0
105166  1  0
106167  1  0
107168  1  0
107169  1  0
108170  1  0
M  END

