
     RDKit          3D

131146  0  0  0  0  0  0  0  0999 V2000
    7.3255   -2.8573   -0.4486 C   0  0  0  0  0  0  0  0  0  0  0  0
    6.8185   -3.9489    0.1590 C   0  0  0  0  0  0  0  0  0  0  0  0
    5.5377   -3.9721    0.8759 C   0  0  0  0  0  0  0  0  0  0  0  0
    5.0232   -3.0149    1.5137 O   0  0  0  0  0  0  0  0  0  0  0  0
    4.9330   -5.2696    0.7080 C   0  0  0  0  0  0  0  0  0  0  0  0
    3.5893   -5.6066    0.9817 C   0  0  0  0  0  0  0  0  0  0  0  0
    3.2086   -6.8287    0.4662 C   0  0  0  0  0  0  0  0  0  0  0  0
    4.0943   -7.6831   -0.2663 C   0  0  0  0  0  0  0  0  0  0  0  0
    5.4176   -7.3630   -0.5279 C   0  0  0  0  0  0  0  0  0  0  0  0
    5.8343   -6.1080   -0.0002 C   0  0  0  0  0  0  0  0  0  0  0  0
    7.1014   -5.3609   -0.2389 C   0  0  0  0  0  0  0  0  0  0  0  0
    8.3048   -5.8763   -0.5878 C   0  0  0  0  0  0  0  0  0  0  0  0
    8.4910   -7.2757   -0.8684 C   0  0  0  0  0  0  0  0  0  0  0  0
    8.6482   -8.4001   -1.1044 N   0  0  0  0  0  0  0  0  0  0  0  0
    9.5021   -5.0767   -0.5971 C   0  0  0  0  0  0  0  0  0  0  0  0
   10.4695   -4.4401   -0.6023 N   0  0  0  0  0  0  0  0  0  0  0  0
    2.9736   -8.6471   -0.5238 C   0  0  0  0  0  0  0  0  0  0  0  0
    2.3753   -8.6418   -1.9640 C   0  0  0  0  0  0  0  0  0  0  0  0
    1.0497   -9.3585   -1.8661 C   0  0  0  0  0  0  0  0  0  0  0  0
    0.2275   -8.5466   -1.1876 C   0  0  0  0  0  0  0  0  0  0  0  0
    1.0293   -7.3146   -0.8466 C   0  0  0  0  0  0  0  0  0  0  0  0
    1.8585   -7.2203   -2.1169 C   0  0  0  0  0  0  0  0  0  0  0  0
    2.0687   -7.7677    0.2236 C   0  0  0  0  0  0  0  0  0  0  0  0
    6.5165   -1.6399   -0.5793 C   0  0  0  0  0  0  0  0  0  0  0  0
    6.4689   -0.6068    0.3651 C   0  0  0  0  0  0  0  0  0  0  0  0
    5.3136    0.1561    0.2015 C   0  0  0  0  0  0  0  0  0  0  0  0
    4.5228    1.2531    1.2274 S   0  0  0  0  0  0  0  0  0  0  0  0
    3.1142    1.1940    0.2758 C   0  0  0  0  0  0  0  0  0  0  0  0
    1.7295    1.4939    0.5183 C   0  0  0  0  0  0  0  0  0  0  0  0
    1.1582    2.3857    1.4321 C   0  0  0  0  0  0  0  0  0  0  0  0
   -0.2389    2.5591    1.3794 C   0  0  0  0  0  0  0  0  0  0  0  0
   -1.1283    3.5339    2.1784 C   0  0  0  0  0  0  0  0  0  0  0  0
   -1.0809    3.2627    3.7005 C   0  0  0  0  0  0  0  0  0  0  0  0
   -2.1932    2.7378    4.4048 C   0  0  0  0  0  0  0  0  0  0  0  0
   -2.1482    2.5401    5.7867 C   0  0  0  0  0  0  0  0  0  0  0  0
   -0.9958    2.8664    6.5129 C   0  0  0  0  0  0  0  0  0  0  0  0
   -0.9588    2.6782    8.0076 C   0  0  0  0  0  0  0  0  0  0  0  0
   -0.3069    1.3490    8.3770 C   0  0  0  0  0  0  0  0  0  0  0  0
    0.1349    3.3241    5.8272 C   0  0  0  0  0  0  0  0  0  0  0  0
    0.0976    3.5045    4.4408 C   0  0  0  0  0  0  0  0  0  0  0  0
   -0.9029    5.0293    1.7738 C   0  0  0  0  0  0  0  0  0  0  0  0
    0.4216    5.6910    2.1513 C   0  0  0  0  0  0  0  0  0  0  0  0
   -2.4642    3.1446    1.5677 C   0  0  0  0  0  0  0  0  0  0  0  0
   -2.3597    2.1886    0.6051 C   0  0  0  0  0  0  0  0  0  0  0  0
   -0.9886    1.8144    0.4541 C   0  0  0  0  0  0  0  0  0  0  0  0
   -0.4159    0.9233   -0.4568 C   0  0  0  0  0  0  0  0  0  0  0  0
    0.9757    0.7648   -0.4049 C   0  0  0  0  0  0  0  0  0  0  0  0
    1.8590   -0.1305   -1.2824 C   0  0  0  0  0  0  0  0  0  0  0  0
    1.6036   -1.6291   -0.9240 C   0  0  0  0  0  0  0  0  0  0  0  0
    0.2535   -2.1834   -1.3911 C   0  0  0  0  0  0  0  0  0  0  0  0
    1.7717    0.1952   -2.7828 C   0  0  0  0  0  0  0  0  0  0  0  0
    1.3000    1.4469   -3.2359 C   0  0  0  0  0  0  0  0  0  0  0  0
    1.2550    1.7491   -4.5993 C   0  0  0  0  0  0  0  0  0  0  0  0
    1.7117    0.8242   -5.5460 C   0  0  0  0  0  0  0  0  0  0  0  0
    1.6473    1.1513   -7.0132 C   0  0  0  0  0  0  0  0  0  0  0  0
    0.2564    0.8681   -7.5764 C   0  0  0  0  0  0  0  0  0  0  0  0
    2.2137   -0.4076   -5.1124 C   0  0  0  0  0  0  0  0  0  0  0  0
    2.2582   -0.7144   -3.7486 C   0  0  0  0  0  0  0  0  0  0  0  0
    3.2128    0.2993   -0.7554 C   0  0  0  0  0  0  0  0  0  0  0  0
    4.4805   -0.2630   -0.8017 C   0  0  0  0  0  0  0  0  0  0  0  0
    5.1245   -1.6046   -1.5579 S   0  0  0  0  0  0  0  0  0  0  0  0
   -3.7979    1.9575   -0.2729 S   0  0  0  0  0  0  0  0  0  0  0  0
   -4.5865    3.1331    0.6624 C   0  0  0  0  0  0  0  0  0  0  0  0
   -5.8605    3.6833    0.6305 C   0  0  0  0  0  0  0  0  0  0  0  0
   -5.9751    4.7183    1.5719 C   0  0  0  0  0  0  0  0  0  0  0  0
   -4.5225    4.8907    2.4468 S   0  0  0  0  0  0  0  0  0  0  0  0
   -3.7443    3.6810    1.5882 C   0  0  0  0  0  0  0  0  0  0  0  0
   -7.2066    5.4613    1.8763 C   0  0  0  0  0  0  0  0  0  0  0  0
   -7.9461    6.1044    0.9525 C   0  0  0  0  0  0  0  0  0  0  0  0
   -7.6111    6.2243   -0.4730 C   0  0  0  0  0  0  0  0  0  0  0  0
   -6.5086    5.9471   -1.0151 O   0  0  0  0  0  0  0  0  0  0  0  0
   -8.7471    6.7776   -1.1686 C   0  0  0  0  0  0  0  0  0  0  0  0
   -8.8915    6.9935   -2.5393 C   0  0  0  0  0  0  0  0  0  0  0  0
  -10.1101    7.4938   -3.0124 C   0  0  0  0  0  0  0  0  0  0  0  0
  -11.1629    7.7492   -2.1165 C   0  0  0  0  0  0  0  0  0  0  0  0
  -12.6985    8.3429   -2.7266 Cl  0  0  0  0  0  0  0  0  0  0  0  0
  -10.9975    7.5210   -0.7383 C   0  0  0  0  0  0  0  0  0  0  0  0
   -9.7548    7.0629   -0.2631 C   0  0  0  0  0  0  0  0  0  0  0  0
   -9.2878    6.7585    1.1245 C   0  0  0  0  0  0  0  0  0  0  0  0
   -9.8911    7.1416    2.2846 C   0  0  0  0  0  0  0  0  0  0  0  0
   -9.3008    6.9537    3.5841 C   0  0  0  0  0  0  0  0  0  0  0  0
   -8.8343    6.8156    4.6354 N   0  0  0  0  0  0  0  0  0  0  0  0
  -11.1318    7.8739    2.3100 C   0  0  0  0  0  0  0  0  0  0  0  0
  -12.1259    8.4676    2.3465 N   0  0  0  0  0  0  0  0  0  0  0  0
    8.1499   -2.9528   -1.1407 H   0  0  0  0  0  0  0  0  0  0  0  0
    2.8944   -4.9326    1.4652 H   0  0  0  0  0  0  0  0  0  0  0  0
    6.0237   -7.9916   -1.1553 H   0  0  0  0  0  0  0  0  0  0  0  0
    3.1309   -9.6491   -0.0684 H   0  0  0  0  0  0  0  0  0  0  0  0
    3.0519   -9.0017   -2.7681 H   0  0  0  0  0  0  0  0  0  0  0  0
    0.7736  -10.2974   -2.3335 H   0  0  0  0  0  0  0  0  0  0  0  0
   -0.8272   -8.7213   -1.0039 H   0  0  0  0  0  0  0  0  0  0  0  0
    0.4289   -6.4165   -0.5879 H   0  0  0  0  0  0  0  0  0  0  0  0
    2.6510   -6.4397   -2.0877 H   0  0  0  0  0  0  0  0  0  0  0  0
    1.2483   -7.0688   -3.0387 H   0  0  0  0  0  0  0  0  0  0  0  0
    1.6475   -8.2057    1.1540 H   0  0  0  0  0  0  0  0  0  0  0  0
    7.1491   -0.5103    1.1999 H   0  0  0  0  0  0  0  0  0  0  0  0
    1.7928    2.9242    2.1165 H   0  0  0  0  0  0  0  0  0  0  0  0
   -3.1122    2.4671    3.9056 H   0  0  0  0  0  0  0  0  0  0  0  0
   -3.0186    2.1403    6.2934 H   0  0  0  0  0  0  0  0  0  0  0  0
   -1.9867    2.7104    8.4267 H   0  0  0  0  0  0  0  0  0  0  0  0
   -0.3871    3.5101    8.4764 H   0  0  0  0  0  0  0  0  0  0  0  0
    0.7566    1.3394    8.0577 H   0  0  0  0  0  0  0  0  0  0  0  0
   -0.8452    0.5052    7.8908 H   0  0  0  0  0  0  0  0  0  0  0  0
   -0.3525    1.2056    9.4764 H   0  0  0  0  0  0  0  0  0  0  0  0
    1.0452    3.5483    6.3690 H   0  0  0  0  0  0  0  0  0  0  0  0
    1.0026    3.8401    3.9663 H   0  0  0  0  0  0  0  0  0  0  0  0
   -1.7076    5.6518    2.2203 H   0  0  0  0  0  0  0  0  0  0  0  0
   -1.0049    5.1196    0.6692 H   0  0  0  0  0  0  0  0  0  0  0  0
    0.4874    6.6750    1.6377 H   0  0  0  0  0  0  0  0  0  0  0  0
    0.4675    5.9010    3.2390 H   0  0  0  0  0  0  0  0  0  0  0  0
    1.2935    5.0950    1.8225 H   0  0  0  0  0  0  0  0  0  0  0  0
   -1.0225    0.4082   -1.1872 H   0  0  0  0  0  0  0  0  0  0  0  0
    1.6718   -1.7650    0.1783 H   0  0  0  0  0  0  0  0  0  0  0  0
    2.3987   -2.2731   -1.3492 H   0  0  0  0  0  0  0  0  0  0  0  0
    0.0416   -1.9060   -2.4440 H   0  0  0  0  0  0  0  0  0  0  0  0
   -0.5650   -1.8202   -0.7375 H   0  0  0  0  0  0  0  0  0  0  0  0
    0.2699   -3.2932   -1.3216 H   0  0  0  0  0  0  0  0  0  0  0  0
    0.9692    2.2065   -2.5410 H   0  0  0  0  0  0  0  0  0  0  0  0
    0.8646    2.7076   -4.9161 H   0  0  0  0  0  0  0  0  0  0  0  0
    2.3950    0.5545   -7.5807 H   0  0  0  0  0  0  0  0  0  0  0  0
    1.8994    2.2245   -7.1709 H   0  0  0  0  0  0  0  0  0  0  0  0
    0.2249    1.1556   -8.6509 H   0  0  0  0  0  0  0  0  0  0  0  0
    0.0254   -0.2147   -7.4909 H   0  0  0  0  0  0  0  0  0  0  0  0
   -0.5159    1.4491   -7.0293 H   0  0  0  0  0  0  0  0  0  0  0  0
    2.5781   -1.1339   -5.8283 H   0  0  0  0  0  0  0  0  0  0  0  0
    2.6762   -1.6677   -3.4625 H   0  0  0  0  0  0  0  0  0  0  0  0
   -6.6512    3.3536   -0.0288 H   0  0  0  0  0  0  0  0  0  0  0  0
   -7.4973    5.4314    2.9082 H   0  0  0  0  0  0  0  0  0  0  0  0
   -8.0858    6.7693   -3.2273 H   0  0  0  0  0  0  0  0  0  0  0  0
  -10.2442    7.6646   -4.0741 H   0  0  0  0  0  0  0  0  0  0  0  0
  -11.8413    7.6800   -0.0891 H   0  0  0  0  0  0  0  0  0  0  0  0
  1  2  2  3
  2  3  1  0
  3  4  2  0
  3  5  1  0
  5  6  2  0
  6  7  1  0
  7  8  2  0
  8  9  1  0
  9 10  2  0
 10 11  1  0
 11 12  2  3
 12 13  1  0
 13 14  3  0
 12 15  1  0
 15 16  3  0
  8 17  1  0
 17 18  1  0
 18 19  1  0
 19 20  2  0
 20 21  1  0
 21 22  1  0
 21 23  1  0
  1 24  1  0
 24 25  2  0
 25 26  1  0
 26 27  1  0
 27 28  1  0
 28 29  1  0
 29 30  2  0
 30 31  1  0
 31 32  1  0
 32 33  1  0
 33 34  2  0
 34 35  1  0
 35 36  2  0
 36 37  1  0
 37 38  1  0
 36 39  1  0
 39 40  2  0
 32 41  1  0
 41 42  1  0
 32 43  1  0
 43 44  2  0
 44 45  1  0
 45 46  1  0
 46 47  2  0
 47 48  1  0
 48 49  1  0
 49 50  1  0
 48 51  1  0
 51 52  2  0
 52 53  1  0
 53 54  2  0
 54 55  1  0
 55 56  1  0
 54 57  1  0
 57 58  2  0
 48 59  1  0
 59 60  1  0
 60 61  1  0
 44 62  1  0
 62 63  1  0
 63 64  1  0
 64 65  2  0
 65 66  1  0
 66 67  1  0
 65 68  1  0
 68 69  2  3
 69 70  1  0
 70 71  2  0
 70 72  1  0
 72 73  2  0
 73 74  1  0
 74 75  2  0
 75 76  1  0
 75 77  1  0
 77 78  2  0
 78 79  1  0
 79 80  2  3
 80 81  1  0
 81 82  3  0
 80 83  1  0
 83 84  3  0
 11  2  1  0
 23 17  1  0
 61 24  1  0
 67 63  2  0
 79 69  1  0
 10  5  1  0
 22 18  1  0
 60 26  2  0
 78 72  1  0
 23  7  1  0
 59 28  2  0
 47 29  1  0
 58 51  1  0
 45 31  2  0
 40 33  1  0
 67 43  1  0
  1 85  1  0
  6 86  1  0
  9 87  1  0
 17 88  1  0
 18 89  1  0
 19 90  1  0
 20 91  1  0
 21 92  1  0
 22 93  1  0
 22 94  1  0
 23 95  1  0
 25 96  1  0
 30 97  1  0
 34 98  1  0
 35 99  1  0
 37100  1  0
 37101  1  0
 38102  1  0
 38103  1  0
 38104  1  0
 39105  1  0
 40106  1  0
 41107  1  0
 41108  1  0
 42109  1  0
 42110  1  0
 42111  1  0
 46112  1  0
 49113  1  0
 49114  1  0
 50115  1  0
 50116  1  0
 50117  1  0
 52118  1  0
 53119  1  0
 55120  1  0
 55121  1  0
 56122  1  0
 56123  1  0
 56124  1  0
 57125  1  0
 58126  1  0
 64127  1  0
 68128  1  0
 73129  1  0
 74130  1  0
 77131  1  0
M  END

