
     RDKit          3D

131146  0  0  0  0  0  0  0  0999 V2000
    4.7629   -1.5149    3.1146 C   0  0  0  0  0  0  0  0  0  0  0  0
    4.7240   -0.8294    1.9499 C   0  0  0  0  0  0  0  0  0  0  0  0
    3.5364   -0.6991    1.0874 C   0  0  0  0  0  0  0  0  0  0  0  0
    2.3515   -1.0031    1.3821 O   0  0  0  0  0  0  0  0  0  0  0  0
    3.9329   -0.1595   -0.1947 C   0  0  0  0  0  0  0  0  0  0  0  0
    3.0972    0.0524   -1.3177 C   0  0  0  0  0  0  0  0  0  0  0  0
    3.7436    0.6307   -2.3958 C   0  0  0  0  0  0  0  0  0  0  0  0
    5.1254    1.0163   -2.3625 C   0  0  0  0  0  0  0  0  0  0  0  0
    5.9645    0.7669   -1.2903 C   0  0  0  0  0  0  0  0  0  0  0  0
    5.3236    0.1463   -0.1664 C   0  0  0  0  0  0  0  0  0  0  0  0
    5.8694   -0.2110    1.1898 C   0  0  0  0  0  0  0  0  0  0  0  0
    7.1161    0.0806    1.6689 C   0  0  0  0  0  0  0  0  0  0  0  0
    8.1653    0.6438    0.8467 C   0  0  0  0  0  0  0  0  0  0  0  0
    9.0234    1.0879    0.2124 N   0  0  0  0  0  0  0  0  0  0  0  0
    7.4619   -0.0631    3.0591 C   0  0  0  0  0  0  0  0  0  0  0  0
    7.7526   -0.1446    4.1808 N   0  0  0  0  0  0  0  0  0  0  0  0
    5.0194    1.5454   -3.7631 C   0  0  0  0  0  0  0  0  0  0  0  0
    5.6949    0.6947   -4.8715 C   0  0  0  0  0  0  0  0  0  0  0  0
    5.1270    1.1902   -6.1763 C   0  0  0  0  0  0  0  0  0  0  0  0
    3.8572    0.7708   -6.2188 C   0  0  0  0  0  0  0  0  0  0  0  0
    3.6094    0.0278   -4.9290 C   0  0  0  0  0  0  0  0  0  0  0  0
    4.9721   -0.6382   -4.7790 C   0  0  0  0  0  0  0  0  0  0  0  0
    3.6276    1.1139   -3.8095 C   0  0  0  0  0  0  0  0  0  0  0  0
    3.5496   -2.0081    3.7866 C   0  0  0  0  0  0  0  0  0  0  0  0
    2.7332   -1.2075    4.5829 C   0  0  0  0  0  0  0  0  0  0  0  0
    1.4700   -1.7744    4.7187 C   0  0  0  0  0  0  0  0  0  0  0  0
   -0.0195   -1.0432    5.0315 S   0  0  0  0  0  0  0  0  0  0  0  0
   -0.9243   -2.3083    4.3621 C   0  0  0  0  0  0  0  0  0  0  0  0
   -1.9511   -2.1304    3.3607 C   0  0  0  0  0  0  0  0  0  0  0  0
   -2.9740   -1.1772    3.3321 C   0  0  0  0  0  0  0  0  0  0  0  0
   -3.6649   -1.0184    2.1149 C   0  0  0  0  0  0  0  0  0  0  0  0
   -4.6342    0.0928    1.7539 C   0  0  0  0  0  0  0  0  0  0  0  0
   -4.1502    1.4244    2.3483 C   0  0  0  0  0  0  0  0  0  0  0  0
   -4.9786    2.2387    3.1506 C   0  0  0  0  0  0  0  0  0  0  0  0
   -4.4638    3.3551    3.8087 C   0  0  0  0  0  0  0  0  0  0  0  0
   -3.1096    3.6874    3.6620 C   0  0  0  0  0  0  0  0  0  0  0  0
   -2.5159    4.7628    4.5198 C   0  0  0  0  0  0  0  0  0  0  0  0
   -2.1676    4.2201    5.9099 C   0  0  0  0  0  0  0  0  0  0  0  0
   -2.2981    2.9292    2.8099 C   0  0  0  0  0  0  0  0  0  0  0  0
   -2.8209    1.8185    2.1420 C   0  0  0  0  0  0  0  0  0  0  0  0
   -6.0969   -0.2879    2.1626 C   0  0  0  0  0  0  0  0  0  0  0  0
   -6.5670   -1.6719    1.7337 C   0  0  0  0  0  0  0  0  0  0  0  0
   -4.5034    0.0467    0.2489 C   0  0  0  0  0  0  0  0  0  0  0  0
   -3.7912   -1.0503   -0.1823 C   0  0  0  0  0  0  0  0  0  0  0  0
   -3.2689   -1.7443    0.9788 C   0  0  0  0  0  0  0  0  0  0  0  0
   -2.3498   -2.7980    1.0545 C   0  0  0  0  0  0  0  0  0  0  0  0
   -1.6985   -2.9998    2.2965 C   0  0  0  0  0  0  0  0  0  0  0  0
   -0.7354   -4.0848    2.7661 C   0  0  0  0  0  0  0  0  0  0  0  0
   -1.6308   -5.2078    3.3970 C   0  0  0  0  0  0  0  0  0  0  0  0
   -2.3080   -6.1292    2.3601 C   0  0  0  0  0  0  0  0  0  0  0  0
    0.2593   -4.6611    1.7517 C   0  0  0  0  0  0  0  0  0  0  0  0
    0.8833   -5.8996    2.0232 C   0  0  0  0  0  0  0  0  0  0  0  0
    1.7601   -6.4749    1.1116 C   0  0  0  0  0  0  0  0  0  0  0  0
    2.0650   -5.8151   -0.0823 C   0  0  0  0  0  0  0  0  0  0  0  0
    2.9340   -6.4989   -1.1048 C   0  0  0  0  0  0  0  0  0  0  0  0
    4.3991   -6.5206   -0.6520 C   0  0  0  0  0  0  0  0  0  0  0  0
    1.5559   -4.5185   -0.3033 C   0  0  0  0  0  0  0  0  0  0  0  0
    0.6616   -3.9440    0.6047 C   0  0  0  0  0  0  0  0  0  0  0  0
   -0.0842   -3.3152    3.9002 C   0  0  0  0  0  0  0  0  0  0  0  0
    1.2761   -2.9742    4.0957 C   0  0  0  0  0  0  0  0  0  0  0  0
    2.6979   -3.3949    3.2993 S   0  0  0  0  0  0  0  0  0  0  0  0
   -3.1190   -0.7492   -1.7275 S   0  0  0  0  0  0  0  0  0  0  0  0
   -3.8835    0.7618   -1.8517 C   0  0  0  0  0  0  0  0  0  0  0  0
   -3.7156    1.8304   -2.7304 C   0  0  0  0  0  0  0  0  0  0  0  0
   -4.2445    3.0126   -2.1790 C   0  0  0  0  0  0  0  0  0  0  0  0
   -4.9637    2.6813   -0.6688 S   0  0  0  0  0  0  0  0  0  0  0  0
   -4.5537    1.0590   -0.7069 C   0  0  0  0  0  0  0  0  0  0  0  0
   -4.2007    4.3608   -2.7547 C   0  0  0  0  0  0  0  0  0  0  0  0
   -3.1139    4.9570   -3.2688 C   0  0  0  0  0  0  0  0  0  0  0  0
   -1.7225    4.4999   -3.1835 C   0  0  0  0  0  0  0  0  0  0  0  0
   -1.3229    3.3248   -2.9784 O   0  0  0  0  0  0  0  0  0  0  0  0
   -0.8497    5.6525   -3.2869 C   0  0  0  0  0  0  0  0  0  0  0  0
    0.5397    5.7061   -3.1187 C   0  0  0  0  0  0  0  0  0  0  0  0
    1.4871    4.2128   -2.9276 Cl  0  0  0  0  0  0  0  0  0  0  0  0
    1.1741    6.9601   -3.0432 C   0  0  0  0  0  0  0  0  0  0  0  0
    2.9417    7.0485   -2.8763 Cl  0  0  0  0  0  0  0  0  0  0  0  0
    0.3843    8.1355   -3.0481 C   0  0  0  0  0  0  0  0  0  0  0  0
    1.1881    9.7088   -2.8566 Cl  0  0  0  0  0  0  0  0  0  0  0  0
   -1.0288    8.0473   -3.1518 C   0  0  0  0  0  0  0  0  0  0  0  0
   -1.9744    9.4725   -2.7311 Cl  0  0  0  0  0  0  0  0  0  0  0  0
   -1.6160    6.7996   -3.4094 C   0  0  0  0  0  0  0  0  0  0  0  0
   -3.0420    6.3981   -3.6188 C   0  0  0  0  0  0  0  0  0  0  0  0
   -3.9920    7.0251   -4.3923 C   0  0  0  0  0  0  0  0  0  0  0  0
   -3.8197    8.3772   -4.8816 C   0  0  0  0  0  0  0  0  0  0  0  0
   -3.6937    9.4680   -5.2811 N   0  0  0  0  0  0  0  0  0  0  0  0
   -5.1756    6.3556   -4.8450 C   0  0  0  0  0  0  0  0  0  0  0  0
   -6.1250    5.7950   -5.2091 N   0  0  0  0  0  0  0  0  0  0  0  0
    5.6983   -1.7501    3.5705 H   0  0  0  0  0  0  0  0  0  0  0  0
    2.0436   -0.2237   -1.3278 H   0  0  0  0  0  0  0  0  0  0  0  0
    7.0018    1.0359   -1.3524 H   0  0  0  0  0  0  0  0  0  0  0  0
    5.1788    2.6351   -3.8293 H   0  0  0  0  0  0  0  0  0  0  0  0
    6.8124    0.6421   -4.8290 H   0  0  0  0  0  0  0  0  0  0  0  0
    5.6522    1.6943   -6.9770 H   0  0  0  0  0  0  0  0  0  0  0  0
    3.1827    0.8821   -7.0576 H   0  0  0  0  0  0  0  0  0  0  0  0
    2.7253   -0.6449   -4.9333 H   0  0  0  0  0  0  0  0  0  0  0  0
    5.1102   -1.1727   -3.8080 H   0  0  0  0  0  0  0  0  0  0  0  0
    5.2118   -1.3388   -5.6087 H   0  0  0  0  0  0  0  0  0  0  0  0
    2.8853    1.9386   -3.9336 H   0  0  0  0  0  0  0  0  0  0  0  0
    2.9594   -0.1987    4.8658 H   0  0  0  0  0  0  0  0  0  0  0  0
   -3.1690   -0.5229    4.1667 H   0  0  0  0  0  0  0  0  0  0  0  0
   -6.0211    2.0168    3.3145 H   0  0  0  0  0  0  0  0  0  0  0  0
   -5.0970    3.9073    4.4791 H   0  0  0  0  0  0  0  0  0  0  0  0
   -1.5976    5.1737    4.0508 H   0  0  0  0  0  0  0  0  0  0  0  0
   -3.2486    5.5979    4.6237 H   0  0  0  0  0  0  0  0  0  0  0  0
   -1.1956    3.6755    5.8892 H   0  0  0  0  0  0  0  0  0  0  0  0
   -2.9430    3.4989    6.2516 H   0  0  0  0  0  0  0  0  0  0  0  0
   -2.1237    5.0382    6.6514 H   0  0  0  0  0  0  0  0  0  0  0  0
   -1.2334    3.1540    2.7010 H   0  0  0  0  0  0  0  0  0  0  0  0
   -2.1573    1.2495    1.5116 H   0  0  0  0  0  0  0  0  0  0  0  0
   -6.7906    0.4627    1.7186 H   0  0  0  0  0  0  0  0  0  0  0  0
   -6.2048   -0.2590    3.2699 H   0  0  0  0  0  0  0  0  0  0  0  0
   -6.1893   -2.4508    2.4474 H   0  0  0  0  0  0  0  0  0  0  0  0
   -7.6837   -1.7008    1.7003 H   0  0  0  0  0  0  0  0  0  0  0  0
   -6.1922   -1.9347    0.7046 H   0  0  0  0  0  0  0  0  0  0  0  0
   -2.1019   -3.3900    0.1856 H   0  0  0  0  0  0  0  0  0  0  0  0
   -1.0460   -5.8091    4.1211 H   0  0  0  0  0  0  0  0  0  0  0  0
   -2.4320   -4.7364    4.0228 H   0  0  0  0  0  0  0  0  0  0  0  0
   -3.3429   -6.3940    2.7081 H   0  0  0  0  0  0  0  0  0  0  0  0
   -1.7209   -7.0676    2.2881 H   0  0  0  0  0  0  0  0  0  0  0  0
   -2.3456   -5.6539    1.3614 H   0  0  0  0  0  0  0  0  0  0  0  0
    0.7326   -6.4237    2.9486 H   0  0  0  0  0  0  0  0  0  0  0  0
    2.1736   -7.4496    1.3324 H   0  0  0  0  0  0  0  0  0  0  0  0
    2.5770   -7.5385   -1.2520 H   0  0  0  0  0  0  0  0  0  0  0  0
    2.8563   -5.9743   -2.0840 H   0  0  0  0  0  0  0  0  0  0  0  0
    4.5201   -7.1926    0.2234 H   0  0  0  0  0  0  0  0  0  0  0  0
    5.0201   -6.8924   -1.4857 H   0  0  0  0  0  0  0  0  0  0  0  0
    4.7409   -5.4968   -0.3824 H   0  0  0  0  0  0  0  0  0  0  0  0
    1.8715   -3.9684   -1.1885 H   0  0  0  0  0  0  0  0  0  0  0  0
    0.3041   -2.9522    0.3982 H   0  0  0  0  0  0  0  0  0  0  0  0
   -3.1829    1.7671   -3.6583 H   0  0  0  0  0  0  0  0  0  0  0  0
   -5.0828    4.9601   -2.5941 H   0  0  0  0  0  0  0  0  0  0  0  0
  1  2  2  3
  2  3  1  0
  3  4  2  0
  3  5  1  0
  5  6  2  0
  6  7  1  0
  7  8  2  0
  8  9  1  0
  9 10  2  0
 10 11  1  0
 11 12  2  3
 12 13  1  0
 13 14  3  0
 12 15  1  0
 15 16  3  0
  8 17  1  0
 17 18  1  0
 18 19  1  0
 19 20  2  0
 20 21  1  0
 21 22  1  0
 21 23  1  0
  1 24  1  0
 24 25  2  0
 25 26  1  0
 26 27  1  0
 27 28  1  0
 28 29  1  0
 29 30  2  0
 30 31  1  0
 31 32  1  0
 32 33  1  0
 33 34  2  0
 34 35  1  0
 35 36  2  0
 36 37  1  0
 37 38  1  0
 36 39  1  0
 39 40  2  0
 32 41  1  0
 41 42  1  0
 32 43  1  0
 43 44  2  0
 44 45  1  0
 45 46  1  0
 46 47  2  0
 47 48  1  0
 48 49  1  0
 49 50  1  0
 48 51  1  0
 51 52  2  0
 52 53  1  0
 53 54  2  0
 54 55  1  0
 55 56  1  0
 54 57  1  0
 57 58  2  0
 48 59  1  0
 59 60  1  0
 60 61  1  0
 44 62  1  0
 62 63  1  0
 63 64  1  0
 64 65  2  0
 65 66  1  0
 66 67  1  0
 65 68  1  0
 68 69  2  3
 69 70  1  0
 70 71  2  0
 70 72  1  0
 72 73  2  0
 73 74  1  0
 73 75  1  0
 75 76  1  0
 75 77  2  0
 77 78  1  0
 77 79  1  0
 79 80  1  0
 79 81  2  0
 81 82  1  0
 82 83  2  3
 83 84  1  0
 84 85  3  0
 83 86  1  0
 86 87  3  0
 11  2  1  0
 23 17  1  0
 61 24  1  0
 67 63  2  0
 82 69  1  0
 10  5  1  0
 22 18  1  0
 60 26  2  0
 81 72  1  0
 23  7  1  0
 59 28  2  0
 47 29  1  0
 58 51  1  0
 45 31  2  0
 40 33  1  0
 67 43  1  0
  1 88  1  0
  6 89  1  0
  9 90  1  0
 17 91  1  0
 18 92  1  0
 19 93  1  0
 20 94  1  0
 21 95  1  0
 22 96  1  0
 22 97  1  0
 23 98  1  0
 25 99  1  0
 30100  1  0
 34101  1  0
 35102  1  0
 37103  1  0
 37104  1  0
 38105  1  0
 38106  1  0
 38107  1  0
 39108  1  0
 40109  1  0
 41110  1  0
 41111  1  0
 42112  1  0
 42113  1  0
 42114  1  0
 46115  1  0
 49116  1  0
 49117  1  0
 50118  1  0
 50119  1  0
 50120  1  0
 52121  1  0
 53122  1  0
 55123  1  0
 55124  1  0
 56125  1  0
 56126  1  0
 56127  1  0
 57128  1  0
 58129  1  0
 64130  1  0
 68131  1  0
M  END

