
     RDKit          3D

116131  0  0  0  0  0  0  0  0999 V2000
    0.8216   -5.2356    4.4592 C   0  0  0  0  0  0  0  0  0  0  0  0
    1.7349   -5.5677    3.5205 C   0  0  0  0  0  0  0  0  0  0  0  0
    2.2975   -4.6520    2.5219 C   0  0  0  0  0  0  0  0  0  0  0  0
    2.4636   -3.4126    2.6570 O   0  0  0  0  0  0  0  0  0  0  0  0
    2.7368   -5.4216    1.3826 C   0  0  0  0  0  0  0  0  0  0  0  0
    3.1524   -4.9199    0.1280 C   0  0  0  0  0  0  0  0  0  0  0  0
    3.3686   -5.9015   -0.8191 C   0  0  0  0  0  0  0  0  0  0  0  0
    3.1730   -7.2972   -0.5620 C   0  0  0  0  0  0  0  0  0  0  0  0
    2.7675   -7.7943    0.6692 C   0  0  0  0  0  0  0  0  0  0  0  0
    2.5765   -6.7989    1.6710 C   0  0  0  0  0  0  0  0  0  0  0  0
    2.0999   -6.9455    3.0760 C   0  0  0  0  0  0  0  0  0  0  0  0
    2.2080   -8.0511    3.8514 C   0  0  0  0  0  0  0  0  0  0  0  0
    1.9310   -8.0220    5.2655 C   0  0  0  0  0  0  0  0  0  0  0  0
    1.7242   -8.0005    6.4037 N   0  0  0  0  0  0  0  0  0  0  0  0
    2.7684   -9.2801    3.3599 C   0  0  0  0  0  0  0  0  0  0  0  0
    3.2315  -10.2717    2.9723 N   0  0  0  0  0  0  0  0  0  0  0  0
    3.5166   -7.6245   -1.9859 C   0  0  0  0  0  0  0  0  0  0  0  0
    2.3333   -7.9922   -2.9306 C   0  0  0  0  0  0  0  0  0  0  0  0
    2.8705   -7.8774   -4.3379 C   0  0  0  0  0  0  0  0  0  0  0  0
    3.0629   -6.5746   -4.5691 C   0  0  0  0  0  0  0  0  0  0  0  0
    2.6437   -5.8515   -3.3114 C   0  0  0  0  0  0  0  0  0  0  0  0
    1.4751   -6.7363   -2.9120 C   0  0  0  0  0  0  0  0  0  0  0  0
    3.7253   -6.1945   -2.2441 C   0  0  0  0  0  0  0  0  0  0  0  0
    0.1029   -3.9466    4.4507 C   0  0  0  0  0  0  0  0  0  0  0  0
   -0.1737   -3.1178    5.5596 C   0  0  0  0  0  0  0  0  0  0  0  0
    0.3368   -3.3486    6.9563 C   0  0  0  0  0  0  0  0  0  0  0  0
    1.7751   -2.8613    7.0980 C   0  0  0  0  0  0  0  0  0  0  0  0
   -0.9100   -1.9955    5.1658 C   0  0  0  0  0  0  0  0  0  0  0  0
   -1.3398   -0.5329    5.9370 S   0  0  0  0  0  0  0  0  0  0  0  0
   -1.9939    0.0856    4.4896 C   0  0  0  0  0  0  0  0  0  0  0  0
   -2.2054    1.3302    3.9611 C   0  0  0  0  0  0  0  0  0  0  0  0
   -2.1166    2.5903    4.5611 C   0  0  0  0  0  0  0  0  0  0  0  0
   -2.0820    3.7488    3.7301 C   0  0  0  0  0  0  0  0  0  0  0  0
   -1.9634    4.9530    4.3446 N   0  0  0  0  0  0  0  0  0  0  0  0
   -1.8959    4.4506    5.9212 S   0  0  0  0  0  0  0  0  0  0  0  0
   -2.0083    2.7984    5.8975 N   0  0  0  0  0  0  0  0  0  0  0  0
   -2.1570    3.5782    2.3458 C   0  0  0  0  0  0  0  0  0  0  0  0
   -2.1503    4.4797    1.3197 C   0  0  0  0  0  0  0  0  0  0  0  0
   -1.9696    6.1437    1.0326 S   0  0  0  0  0  0  0  0  0  0  0  0
   -2.0389    5.8857   -0.6588 C   0  0  0  0  0  0  0  0  0  0  0  0
   -1.7645    6.6898   -1.7711 C   0  0  0  0  0  0  0  0  0  0  0  0
   -1.5887    8.1827   -1.7105 C   0  0  0  0  0  0  0  0  0  0  0  0
   -2.9216    8.8813   -1.4598 C   0  0  0  0  0  0  0  0  0  0  0  0
   -1.6374    5.8926   -2.9289 C   0  0  0  0  0  0  0  0  0  0  0  0
   -1.9277    4.2544   -2.5603 S   0  0  0  0  0  0  0  0  0  0  0  0
   -2.2027    4.5576   -0.9464 C   0  0  0  0  0  0  0  0  0  0  0  0
   -2.2835    3.7689    0.1813 C   0  0  0  0  0  0  0  0  0  0  0  0
   -2.4270    2.4385    0.3765 N   0  0  0  0  0  0  0  0  0  0  0  0
   -2.2708    2.3125    1.7383 C   0  0  0  0  0  0  0  0  0  0  0  0
   -2.2231    1.1582    2.5630 C   0  0  0  0  0  0  0  0  0  0  0  0
   -1.9318   -0.1463    2.2400 N   0  0  0  0  0  0  0  0  0  0  0  0
   -1.8409   -0.7688    3.4441 C   0  0  0  0  0  0  0  0  0  0  0  0
   -1.2267   -1.9511    3.8333 C   0  0  0  0  0  0  0  0  0  0  0  0
   -0.6136   -3.2917    3.0536 S   0  0  0  0  0  0  0  0  0  0  0  0
   -1.3009   -0.6547    1.0174 C   0  0  0  0  0  0  0  0  0  0  0  0
   -2.2054   -1.6803    0.3274 C   0  0  0  0  0  0  0  0  0  0  0  0
   -3.2297    1.6007   -0.5354 C   0  0  0  0  0  0  0  0  0  0  0  0
   -4.6203    1.3365    0.0393 C   0  0  0  0  0  0  0  0  0  0  0  0
   -1.2109    6.3276   -4.2719 C   0  0  0  0  0  0  0  0  0  0  0  0
   -0.1869    5.7160   -4.8976 C   0  0  0  0  0  0  0  0  0  0  0  0
   -0.2297    5.3415   -6.3130 C   0  0  0  0  0  0  0  0  0  0  0  0
   -0.9674    5.8572   -7.1983 O   0  0  0  0  0  0  0  0  0  0  0  0
    0.6161    4.1670   -6.4904 C   0  0  0  0  0  0  0  0  0  0  0  0
    0.7740    3.3690   -7.6245 C   0  0  0  0  0  0  0  0  0  0  0  0
    1.5974    2.2279   -7.5394 C   0  0  0  0  0  0  0  0  0  0  0  0
    1.8052    1.4112   -8.6619 C   0  0  0  0  0  0  0  0  0  0  0  0
    2.6348    0.2884   -8.5713 C   0  0  0  0  0  0  0  0  0  0  0  0
    3.2633   -0.0293   -7.3631 C   0  0  0  0  0  0  0  0  0  0  0  0
    4.0806   -1.1100   -7.2860 F   0  0  0  0  0  0  0  0  0  0  0  0
    3.0501    0.7627   -6.2306 C   0  0  0  0  0  0  0  0  0  0  0  0
    2.2221    1.8950   -6.3043 C   0  0  0  0  0  0  0  0  0  0  0  0
    2.0122    2.6967   -5.1667 C   0  0  0  0  0  0  0  0  0  0  0  0
    1.2293    3.8549   -5.2851 C   0  0  0  0  0  0  0  0  0  0  0  0
    0.8804    4.8749   -4.2717 C   0  0  0  0  0  0  0  0  0  0  0  0
    1.6388    5.2292   -3.2008 C   0  0  0  0  0  0  0  0  0  0  0  0
    2.8202    4.5071   -2.8193 C   0  0  0  0  0  0  0  0  0  0  0  0
    3.7806    3.9383   -2.5139 N   0  0  0  0  0  0  0  0  0  0  0  0
    1.5106    6.5387   -2.6032 C   0  0  0  0  0  0  0  0  0  0  0  0
    1.4401    7.5964   -2.1306 N   0  0  0  0  0  0  0  0  0  0  0  0
    0.4340   -5.9787    5.1365 H   0  0  0  0  0  0  0  0  0  0  0  0
    3.2392   -3.8607   -0.0921 H   0  0  0  0  0  0  0  0  0  0  0  0
    2.5650   -8.8469    0.8070 H   0  0  0  0  0  0  0  0  0  0  0  0
    4.4295   -8.2520   -2.0892 H   0  0  0  0  0  0  0  0  0  0  0  0
    1.8075   -8.9408   -2.6990 H   0  0  0  0  0  0  0  0  0  0  0  0
    3.0002   -8.6768   -5.0599 H   0  0  0  0  0  0  0  0  0  0  0  0
    3.3671   -6.1304   -5.5116 H   0  0  0  0  0  0  0  0  0  0  0  0
    2.4177   -4.7716   -3.4378 H   0  0  0  0  0  0  0  0  0  0  0  0
    1.0389   -6.4970   -1.9160 H   0  0  0  0  0  0  0  0  0  0  0  0
    0.6582   -6.7496   -3.6707 H   0  0  0  0  0  0  0  0  0  0  0  0
    4.7700   -5.9182   -2.5087 H   0  0  0  0  0  0  0  0  0  0  0  0
   -0.3071   -2.8151    7.6865 H   0  0  0  0  0  0  0  0  0  0  0  0
    0.2906   -4.4333    7.1920 H   0  0  0  0  0  0  0  0  0  0  0  0
    2.4311   -3.3677    6.3548 H   0  0  0  0  0  0  0  0  0  0  0  0
    1.8232   -1.7609    6.9422 H   0  0  0  0  0  0  0  0  0  0  0  0
    2.1447   -3.0936    8.1203 H   0  0  0  0  0  0  0  0  0  0  0  0
   -1.1637    8.5557   -2.6687 H   0  0  0  0  0  0  0  0  0  0  0  0
   -0.8805    8.4377   -0.8933 H   0  0  0  0  0  0  0  0  0  0  0  0
   -3.6532    8.6246   -2.2576 H   0  0  0  0  0  0  0  0  0  0  0  0
   -2.7644    9.9818   -1.4544 H   0  0  0  0  0  0  0  0  0  0  0  0
   -3.3314    8.5805   -0.4723 H   0  0  0  0  0  0  0  0  0  0  0  0
   -1.0186    0.1709    0.3373 H   0  0  0  0  0  0  0  0  0  0  0  0
   -0.3310   -1.1341    1.2627 H   0  0  0  0  0  0  0  0  0  0  0  0
   -2.2713   -2.6109    0.9267 H   0  0  0  0  0  0  0  0  0  0  0  0
   -3.2360   -1.2926    0.2035 H   0  0  0  0  0  0  0  0  0  0  0  0
   -1.7839   -1.9360   -0.6654 H   0  0  0  0  0  0  0  0  0  0  0  0
   -3.3703    2.1190   -1.5089 H   0  0  0  0  0  0  0  0  0  0  0  0
   -2.7292    0.6629   -0.8028 H   0  0  0  0  0  0  0  0  0  0  0  0
   -5.1118    2.3057    0.2911 H   0  0  0  0  0  0  0  0  0  0  0  0
   -4.5633    0.7011    0.9455 H   0  0  0  0  0  0  0  0  0  0  0  0
   -5.2400    0.8184   -0.7187 H   0  0  0  0  0  0  0  0  0  0  0  0
   -1.9237    6.9056   -4.8524 H   0  0  0  0  0  0  0  0  0  0  0  0
    0.2689    3.6256   -8.5474 H   0  0  0  0  0  0  0  0  0  0  0  0
    1.3325    1.6424   -9.6086 H   0  0  0  0  0  0  0  0  0  0  0  0
    2.7958   -0.3319   -9.4425 H   0  0  0  0  0  0  0  0  0  0  0  0
    3.5421    0.4985   -5.2987 H   0  0  0  0  0  0  0  0  0  0  0  0
    2.4344    2.3996   -4.2211 H   0  0  0  0  0  0  0  0  0  0  0  0
  1  2  2  3
  2  3  1  0
  3  4  2  0
  3  5  1  0
  5  6  2  0
  6  7  1  0
  7  8  2  0
  8  9  1  0
  9 10  2  0
 10 11  1  0
 11 12  2  3
 12 13  1  0
 13 14  3  0
 12 15  1  0
 15 16  3  0
  8 17  1  0
 17 18  1  0
 18 19  1  0
 19 20  2  0
 20 21  1  0
 21 22  1  0
 21 23  1  0
  1 24  1  0
 24 25  2  0
 25 26  1  0
 26 27  1  0
 25 28  1  0
 28 29  1  0
 29 30  1  0
 30 31  1  0
 31 32  1  0
 32 33  1  0
 33 34  2  0
 34 35  1  0
 35 36  1  0
 33 37  1  0
 37 38  1  0
 38 39  1  0
 39 40  1  0
 40 41  1  0
 41 42  1  0
 42 43  1  0
 41 44  2  0
 44 45  1  0
 45 46  1  0
 46 47  1  0
 47 48  1  0
 48 49  1  0
 49 50  1  0
 50 51  1  0
 51 52  1  0
 52 53  1  0
 53 54  1  0
 51 55  1  0
 55 56  1  0
 48 57  1  0
 57 58  1  0
 44 59  1  0
 59 60  2  3
 60 61  1  0
 61 62  2  0
 61 63  1  0
 63 64  2  0
 64 65  1  0
 65 66  2  0
 66 67  1  0
 67 68  2  0
 68 69  1  0
 68 70  1  0
 70 71  2  0
 71 72  1  0
 72 73  2  0
 73 74  1  0
 74 75  2  3
 75 76  1  0
 76 77  3  0
 75 78  1  0
 78 79  3  0
 11  2  1  0
 23 17  1  0
 54 24  1  0
 74 60  1  0
 10  5  1  0
 22 18  1  0
 53 28  2  0
 73 63  1  0
 23  7  1  0
 52 30  2  0
 71 65  1  0
 50 31  2  0
 36 32  2  0
 49 37  2  0
 47 38  2  0
 46 40  2  0
  1 80  1  0
  6 81  1  0
  9 82  1  0
 17 83  1  0
 18 84  1  0
 19 85  1  0
 20 86  1  0
 21 87  1  0
 22 88  1  0
 22 89  1  0
 23 90  1  0
 26 91  1  0
 26 92  1  0
 27 93  1  0
 27 94  1  0
 27 95  1  0
 42 96  1  0
 42 97  1  0
 43 98  1  0
 43 99  1  0
 43100  1  0
 55101  1  0
 55102  1  0
 56103  1  0
 56104  1  0
 56105  1  0
 57106  1  0
 57107  1  0
 58108  1  0
 58109  1  0
 58110  1  0
 59111  1  0
 64112  1  0
 66113  1  0
 67114  1  0
 70115  1  0
 72116  1  0
M  END

