
     RDKit          3D

155172  0  0  0  0  0  0  0  0999 V2000
   -1.8948    1.8300   -5.4108 C   0  0  0  0  0  0  0  0  0  0  0  0
   -2.4319    0.9900   -6.3002 C   0  0  0  0  0  0  0  0  0  0  0  0
   -2.6428   -0.4527   -6.0833 C   0  0  0  0  0  0  0  0  0  0  0  0
   -2.8990   -1.0129   -4.9856 O   0  0  0  0  0  0  0  0  0  0  0  0
   -2.4173   -1.1484   -7.3344 C   0  0  0  0  0  0  0  0  0  0  0  0
   -2.1982   -2.5340   -7.4926 C   0  0  0  0  0  0  0  0  0  0  0  0
   -1.6301   -2.8729   -8.7088 C   0  0  0  0  0  0  0  0  0  0  0  0
   -1.3124   -1.9102   -9.7225 C   0  0  0  0  0  0  0  0  0  0  0  0
   -1.5636   -0.5499   -9.5898 C   0  0  0  0  0  0  0  0  0  0  0  0
   -2.1401   -0.1868   -8.3402 C   0  0  0  0  0  0  0  0  0  0  0  0
   -2.3300    1.1667   -7.7718 C   0  0  0  0  0  0  0  0  0  0  0  0
   -2.6176    2.3011   -8.4449 C   0  0  0  0  0  0  0  0  0  0  0  0
   -2.7033    2.3305   -9.8812 C   0  0  0  0  0  0  0  0  0  0  0  0
   -2.7860    2.3613  -11.0341 N   0  0  0  0  0  0  0  0  0  0  0  0
   -3.0646    3.4873   -7.7501 C   0  0  0  0  0  0  0  0  0  0  0  0
   -3.4416    4.4265   -7.1905 N   0  0  0  0  0  0  0  0  0  0  0  0
   -0.6470   -2.9780  -10.5378 C   0  0  0  0  0  0  0  0  0  0  0  0
    0.9151   -2.9881  -10.5229 C   0  0  0  0  0  0  0  0  0  0  0  0
    1.3334   -4.3439  -11.0570 C   0  0  0  0  0  0  0  0  0  0  0  0
    1.0057   -5.2365  -10.1043 C   0  0  0  0  0  0  0  0  0  0  0  0
    0.3843   -4.4535   -8.9765 C   0  0  0  0  0  0  0  0  0  0  0  0
    1.2521   -3.2060   -9.0568 C   0  0  0  0  0  0  0  0  0  0  0  0
   -0.9932   -3.9621   -9.5077 C   0  0  0  0  0  0  0  0  0  0  0  0
   -1.5885    1.4102   -4.0429 C   0  0  0  0  0  0  0  0  0  0  0  0
   -2.5175    1.2146   -3.0140 C   0  0  0  0  0  0  0  0  0  0  0  0
   -1.9024    0.6561   -1.8980 C   0  0  0  0  0  0  0  0  0  0  0  0
   -2.4522    0.2013   -0.3535 S   0  0  0  0  0  0  0  0  0  0  0  0
   -0.8943   -0.3394    0.0702 C   0  0  0  0  0  0  0  0  0  0  0  0
   -0.1963   -0.6359    1.2949 C   0  0  0  0  0  0  0  0  0  0  0  0
   -0.6783   -0.7753    2.5969 C   0  0  0  0  0  0  0  0  0  0  0  0
    0.2602   -0.6063    3.6288 C   0  0  0  0  0  0  0  0  0  0  0  0
    0.1010   -0.7684    5.1320 C   0  0  0  0  0  0  0  0  0  0  0  0
    0.5428   -2.2097    5.4553 C   0  0  0  0  0  0  0  0  0  0  0  0
   -0.0752   -3.2929    4.8031 C   0  0  0  0  0  0  0  0  0  0  0  0
    0.3306   -4.6086    5.0450 C   0  0  0  0  0  0  0  0  0  0  0  0
    1.3621   -4.8812    5.9619 C   0  0  0  0  0  0  0  0  0  0  0  0
    1.8210   -6.1804    6.2318 O   0  0  0  0  0  0  0  0  0  0  0  0
    1.2881   -7.3785    5.6716 C   0  0  0  0  0  0  0  0  0  0  0  0
    0.0035   -7.7882    6.3792 C   0  0  0  0  0  0  0  0  0  0  0  0
    1.9603   -3.8127    6.6412 C   0  0  0  0  0  0  0  0  0  0  0  0
    1.5644   -2.4920    6.3930 C   0  0  0  0  0  0  0  0  0  0  0  0
   -1.2972   -0.4738    5.6831 C   0  0  0  0  0  0  0  0  0  0  0  0
   -1.7453   -1.1456    6.8444 C   0  0  0  0  0  0  0  0  0  0  0  0
   -3.0450   -0.9767    7.3239 C   0  0  0  0  0  0  0  0  0  0  0  0
   -3.9181   -0.0872    6.6751 C   0  0  0  0  0  0  0  0  0  0  0  0
   -5.2580    0.0615    7.0763 O   0  0  0  0  0  0  0  0  0  0  0  0
   -5.8441   -0.6599    8.1595 C   0  0  0  0  0  0  0  0  0  0  0  0
   -7.3175   -0.2929    8.2852 C   0  0  0  0  0  0  0  0  0  0  0  0
   -3.4513    0.6668    5.5870 C   0  0  0  0  0  0  0  0  0  0  0  0
   -2.1454    0.4972    5.1064 C   0  0  0  0  0  0  0  0  0  0  0  0
    1.1564    0.2534    5.5514 C   0  0  0  0  0  0  0  0  0  0  0  0
    2.0789    0.4603    4.5302 C   0  0  0  0  0  0  0  0  0  0  0  0
    1.5430   -0.1568    3.3347 C   0  0  0  0  0  0  0  0  0  0  0  0
    2.0556   -0.1483    2.0316 C   0  0  0  0  0  0  0  0  0  0  0  0
    1.1697   -0.5132    1.0058 C   0  0  0  0  0  0  0  0  0  0  0  0
    1.4117   -0.5745   -0.5052 C   0  0  0  0  0  0  0  0  0  0  0  0
    1.5126   -2.0197   -1.0336 C   0  0  0  0  0  0  0  0  0  0  0  0
    1.4949   -3.1399   -0.1728 C   0  0  0  0  0  0  0  0  0  0  0  0
    1.2707   -4.4250   -0.6797 C   0  0  0  0  0  0  0  0  0  0  0  0
    1.0262   -4.6185   -2.0454 C   0  0  0  0  0  0  0  0  0  0  0  0
    0.6436   -5.8977   -2.4895 O   0  0  0  0  0  0  0  0  0  0  0  0
   -0.0321   -6.1439   -3.7247 C   0  0  0  0  0  0  0  0  0  0  0  0
   -0.4994   -7.5916   -3.7775 C   0  0  0  0  0  0  0  0  0  0  0  0
    1.1617   -3.5301   -2.9225 C   0  0  0  0  0  0  0  0  0  0  0  0
    1.4339   -2.2531   -2.4220 C   0  0  0  0  0  0  0  0  0  0  0  0
    2.5969    0.2816   -0.9516 C   0  0  0  0  0  0  0  0  0  0  0  0
    2.4590    1.6190   -1.3666 C   0  0  0  0  0  0  0  0  0  0  0  0
    3.5526    2.3078   -1.9040 C   0  0  0  0  0  0  0  0  0  0  0  0
    4.8169    1.7031   -1.9474 C   0  0  0  0  0  0  0  0  0  0  0  0
    5.9119    2.3184   -2.5791 O   0  0  0  0  0  0  0  0  0  0  0  0
    5.8397    2.8126   -3.9139 C   0  0  0  0  0  0  0  0  0  0  0  0
    5.6281    1.6589   -4.8897 C   0  0  0  0  0  0  0  0  0  0  0  0
    4.9919    0.4379   -1.3815 C   0  0  0  0  0  0  0  0  0  0  0  0
    3.8960   -0.2724   -0.8970 C   0  0  0  0  0  0  0  0  0  0  0  0
    0.0281   -0.1215   -0.9166 C   0  0  0  0  0  0  0  0  0  0  0  0
   -0.5652    0.4308   -2.0426 C   0  0  0  0  0  0  0  0  0  0  0  0
   -0.0383    0.9135   -3.5516 S   0  0  0  0  0  0  0  0  0  0  0  0
    2.6939    2.0461    4.6098 S   0  0  0  0  0  0  0  0  0  0  0  0
    1.8257    2.4310    5.9981 C   0  0  0  0  0  0  0  0  0  0  0  0
    1.5034    3.6581    6.5788 C   0  0  0  0  0  0  0  0  0  0  0  0
    0.4046    3.5297    7.4397 C   0  0  0  0  0  0  0  0  0  0  0  0
   -0.1178    1.9121    7.4818 S   0  0  0  0  0  0  0  0  0  0  0  0
    1.0429    1.3781    6.3808 C   0  0  0  0  0  0  0  0  0  0  0  0
   -0.2718    4.6287    8.1511 C   0  0  0  0  0  0  0  0  0  0  0  0
   -0.6895    5.7701    7.5626 C   0  0  0  0  0  0  0  0  0  0  0  0
   -0.8346    5.9906    6.1147 C   0  0  0  0  0  0  0  0  0  0  0  0
   -0.4661    5.2119    5.1946 O   0  0  0  0  0  0  0  0  0  0  0  0
   -1.6596    7.1654    5.9146 C   0  0  0  0  0  0  0  0  0  0  0  0
   -2.0988    7.7060    4.7031 C   0  0  0  0  0  0  0  0  0  0  0  0
   -2.9412    8.8273    4.7406 C   0  0  0  0  0  0  0  0  0  0  0  0
   -3.3668    9.3880    3.5800 F   0  0  0  0  0  0  0  0  0  0  0  0
   -3.3357    9.3729    5.9763 C   0  0  0  0  0  0  0  0  0  0  0  0
   -4.1542   10.4531    6.0064 F   0  0  0  0  0  0  0  0  0  0  0  0
   -2.8861    8.8052    7.1819 C   0  0  0  0  0  0  0  0  0  0  0  0
   -2.0246    7.6990    7.1385 C   0  0  0  0  0  0  0  0  0  0  0  0
   -1.3722    6.9255    8.2318 C   0  0  0  0  0  0  0  0  0  0  0  0
   -1.2278    7.3074    9.5315 C   0  0  0  0  0  0  0  0  0  0  0  0
   -0.3432    6.6197   10.4368 C   0  0  0  0  0  0  0  0  0  0  0  0
    0.3691    6.0777   11.1698 N   0  0  0  0  0  0  0  0  0  0  0  0
   -1.8180    8.5084   10.0580 C   0  0  0  0  0  0  0  0  0  0  0  0
   -2.2718    9.4768   10.5064 N   0  0  0  0  0  0  0  0  0  0  0  0
   -1.4388    2.7444   -5.7568 H   0  0  0  0  0  0  0  0  0  0  0  0
   -2.3377   -3.2527   -6.6983 H   0  0  0  0  0  0  0  0  0  0  0  0
   -1.2280    0.1669  -10.3211 H   0  0  0  0  0  0  0  0  0  0  0  0
   -1.1197   -3.1455  -11.5300 H   0  0  0  0  0  0  0  0  0  0  0  0
    1.4072   -2.1202  -11.0148 H   0  0  0  0  0  0  0  0  0  0  0  0
    1.8879   -4.5512  -11.9644 H   0  0  0  0  0  0  0  0  0  0  0  0
    1.2401   -6.2981  -10.1164 H   0  0  0  0  0  0  0  0  0  0  0  0
    0.3689   -4.9658   -7.9925 H   0  0  0  0  0  0  0  0  0  0  0  0
    2.3381   -3.4043   -8.8719 H   0  0  0  0  0  0  0  0  0  0  0  0
    0.9238   -2.3860   -8.3876 H   0  0  0  0  0  0  0  0  0  0  0  0
   -1.7070   -4.7548   -9.8273 H   0  0  0  0  0  0  0  0  0  0  0  0
   -3.5775    1.4232   -3.0859 H   0  0  0  0  0  0  0  0  0  0  0  0
   -1.7284   -0.9538    2.8000 H   0  0  0  0  0  0  0  0  0  0  0  0
   -0.8878   -3.1220    4.1133 H   0  0  0  0  0  0  0  0  0  0  0  0
   -0.1688   -5.4035    4.5085 H   0  0  0  0  0  0  0  0  0  0  0  0
    2.0352   -8.1897    5.7996 H   0  0  0  0  0  0  0  0  0  0  0  0
    1.1138   -7.2699    4.5755 H   0  0  0  0  0  0  0  0  0  0  0  0
   -0.7819   -7.0178    6.2519 H   0  0  0  0  0  0  0  0  0  0  0  0
    0.2036   -7.9318    7.4698 H   0  0  0  0  0  0  0  0  0  0  0  0
   -0.3659   -8.7452    5.9526 H   0  0  0  0  0  0  0  0  0  0  0  0
    2.7468   -3.9997    7.3668 H   0  0  0  0  0  0  0  0  0  0  0  0
    2.0516   -1.7057    6.9491 H   0  0  0  0  0  0  0  0  0  0  0  0
   -1.1086   -1.8453    7.3706 H   0  0  0  0  0  0  0  0  0  0  0  0
   -3.3444   -1.5461    8.1951 H   0  0  0  0  0  0  0  0  0  0  0  0
   -5.7713   -1.7575    7.9657 H   0  0  0  0  0  0  0  0  0  0  0  0
   -5.3168   -0.4211    9.1067 H   0  0  0  0  0  0  0  0  0  0  0  0
   -7.7669   -0.8471    9.1380 H   0  0  0  0  0  0  0  0  0  0  0  0
   -7.8580   -0.5497    7.3522 H   0  0  0  0  0  0  0  0  0  0  0  0
   -7.4231    0.8014    8.4698 H   0  0  0  0  0  0  0  0  0  0  0  0
   -4.1047    1.3874    5.1192 H   0  0  0  0  0  0  0  0  0  0  0  0
   -1.8050    1.1086    4.2785 H   0  0  0  0  0  0  0  0  0  0  0  0
    3.0636    0.1949    1.8212 H   0  0  0  0  0  0  0  0  0  0  0  0
    1.5722   -3.0309    0.8983 H   0  0  0  0  0  0  0  0  0  0  0  0
    1.1905   -5.2597    0.0010 H   0  0  0  0  0  0  0  0  0  0  0  0
    0.6572   -5.9537   -4.5753 H   0  0  0  0  0  0  0  0  0  0  0  0
   -0.9200   -5.4765   -3.8053 H   0  0  0  0  0  0  0  0  0  0  0  0
    0.3748   -8.2756   -3.7107 H   0  0  0  0  0  0  0  0  0  0  0  0
   -1.0496   -7.7819   -4.7285 H   0  0  0  0  0  0  0  0  0  0  0  0
   -1.1923   -7.7936   -2.9331 H   0  0  0  0  0  0  0  0  0  0  0  0
    1.0267   -3.6589   -3.9890 H   0  0  0  0  0  0  0  0  0  0  0  0
    1.4980   -1.4268   -3.1208 H   0  0  0  0  0  0  0  0  0  0  0  0
    1.5036    2.1232   -1.3153 H   0  0  0  0  0  0  0  0  0  0  0  0
    3.4150    3.3173   -2.2652 H   0  0  0  0  0  0  0  0  0  0  0  0
    6.7968    3.3153   -4.1616 H   0  0  0  0  0  0  0  0  0  0  0  0
    5.0194    3.5547   -4.0256 H   0  0  0  0  0  0  0  0  0  0  0  0
    4.6487    1.1669   -4.7044 H   0  0  0  0  0  0  0  0  0  0  0  0
    5.6364    2.0354   -5.9332 H   0  0  0  0  0  0  0  0  0  0  0  0
    6.4360    0.9010   -4.7647 H   0  0  0  0  0  0  0  0  0  0  0  0
    5.9756   -0.0253   -1.3801 H   0  0  0  0  0  0  0  0  0  0  0  0
    4.0567   -1.2676   -0.5040 H   0  0  0  0  0  0  0  0  0  0  0  0
    1.9710    4.5934    6.3069 H   0  0  0  0  0  0  0  0  0  0  0  0
   -0.5193    4.4346    9.1789 H   0  0  0  0  0  0  0  0  0  0  0  0
   -1.8040    7.2683    3.7575 H   0  0  0  0  0  0  0  0  0  0  0  0
   -3.2457    9.2231    8.1064 H   0  0  0  0  0  0  0  0  0  0  0  0
  1  2  2  3
  2  3  1  0
  3  4  2  0
  3  5  1  0
  5  6  2  0
  6  7  1  0
  7  8  2  0
  8  9  1  0
  9 10  2  0
 10 11  1  0
 11 12  2  3
 12 13  1  0
 13 14  3  0
 12 15  1  0
 15 16  3  0
  8 17  1  0
 17 18  1  0
 18 19  1  0
 19 20  2  0
 20 21  1  0
 21 22  1  0
 21 23  1  0
  1 24  1  0
 24 25  2  0
 25 26  1  0
 26 27  1  0
 27 28  1  0
 28 29  1  0
 29 30  2  0
 30 31  1  0
 31 32  1  0
 32 33  1  0
 33 34  2  0
 34 35  1  0
 35 36  2  0
 36 37  1  0
 37 38  1  0
 38 39  1  0
 36 40  1  0
 40 41  2  0
 32 42  1  0
 42 43  2  0
 43 44  1  0
 44 45  2  0
 45 46  1  0
 46 47  1  0
 47 48  1  0
 45 49  1  0
 49 50  2  0
 32 51  1  0
 51 52  2  0
 52 53  1  0
 53 54  1  0
 54 55  2  0
 55 56  1  0
 56 57  1  0
 57 58  2  0
 58 59  1  0
 59 60  2  0
 60 61  1  0
 61 62  1  0
 62 63  1  0
 60 64  1  0
 64 65  2  0
 56 66  1  0
 66 67  2  0
 67 68  1  0
 68 69  2  0
 69 70  1  0
 70 71  1  0
 71 72  1  0
 69 73  1  0
 73 74  2  0
 56 75  1  0
 75 76  1  0
 76 77  1  0
 52 78  1  0
 78 79  1  0
 79 80  1  0
 80 81  2  0
 81 82  1  0
 82 83  1  0
 81 84  1  0
 84 85  2  3
 85 86  1  0
 86 87  2  0
 86 88  1  0
 88 89  2  0
 89 90  1  0
 90 91  1  0
 90 92  2  0
 92 93  1  0
 92 94  1  0
 94 95  2  0
 95 96  1  0
 96 97  2  3
 97 98  1  0
 98 99  3  0
 97100  1  0
100101  3  0
 11  2  1  0
 23 17  1  0
 77 24  1  0
 83 79  2  0
 96 85  1  0
 10  5  1  0
 22 18  1  0
 76 26  2  0
 95 88  1  0
 23  7  1  0
 75 28  2  0
 55 29  1  0
 65 57  1  0
 74 66  1  0
 53 31  2  0
 41 33  1  0
 50 42  1  0
 83 51  1  0
  1102  1  0
  6103  1  0
  9104  1  0
 17105  1  0
 18106  1  0
 19107  1  0
 20108  1  0
 21109  1  0
 22110  1  0
 22111  1  0
 23112  1  0
 25113  1  0
 30114  1  0
 34115  1  0
 35116  1  0
 38117  1  0
 38118  1  0
 39119  1  0
 39120  1  0
 39121  1  0
 40122  1  0
 41123  1  0
 43124  1  0
 44125  1  0
 47126  1  0
 47127  1  0
 48128  1  0
 48129  1  0
 48130  1  0
 49131  1  0
 50132  1  0
 54133  1  0
 58134  1  0
 59135  1  0
 62136  1  0
 62137  1  0
 63138  1  0
 63139  1  0
 63140  1  0
 64141  1  0
 65142  1  0
 67143  1  0
 68144  1  0
 71145  1  0
 71146  1  0
 72147  1  0
 72148  1  0
 72149  1  0
 73150  1  0
 74151  1  0
 80152  1  0
 84153  1  0
 89154  1  0
 94155  1  0
M  END

