
     RDKit          3D

131146  0  0  0  0  0  0  0  0999 V2000
   -5.3517    1.8249   -3.9787 C   0  0  0  0  0  0  0  0  0  0  0  0
   -4.3047    2.0193   -4.8030 C   0  0  0  0  0  0  0  0  0  0  0  0
   -2.8955    1.7850   -4.4535 C   0  0  0  0  0  0  0  0  0  0  0  0
   -2.4212    1.6324   -3.2945 O   0  0  0  0  0  0  0  0  0  0  0  0
   -2.1342    1.6598   -5.6791 C   0  0  0  0  0  0  0  0  0  0  0  0
   -0.7777    1.2766   -5.8011 C   0  0  0  0  0  0  0  0  0  0  0  0
   -0.3568    1.1158   -7.1074 C   0  0  0  0  0  0  0  0  0  0  0  0
   -1.2118    1.3189   -8.2347 C   0  0  0  0  0  0  0  0  0  0  0  0
   -2.5433    1.6786   -8.1239 C   0  0  0  0  0  0  0  0  0  0  0  0
   -2.9977    1.8639   -6.7876 C   0  0  0  0  0  0  0  0  0  0  0  0
   -4.3606    2.1957   -6.2865 C   0  0  0  0  0  0  0  0  0  0  0  0
   -5.3711    2.7658   -6.9944 C   0  0  0  0  0  0  0  0  0  0  0  0
   -5.2789    3.0350   -8.4068 C   0  0  0  0  0  0  0  0  0  0  0  0
   -5.2190    3.2633   -9.5403 N   0  0  0  0  0  0  0  0  0  0  0  0
   -6.5644    3.2715   -6.3621 C   0  0  0  0  0  0  0  0  0  0  0  0
   -7.5239    3.6827   -5.8611 N   0  0  0  0  0  0  0  0  0  0  0  0
   -0.1010    0.9390   -9.1690 C   0  0  0  0  0  0  0  0  0  0  0  0
   -0.1746   -0.4623   -9.8464 C   0  0  0  0  0  0  0  0  0  0  0  0
   -0.9024   -1.4327   -8.9451 C   0  0  0  0  0  0  0  0  0  0  0  0
   -0.1137   -1.6354   -7.8900 C   0  0  0  0  0  0  0  0  0  0  0  0
    1.1258   -0.7983   -8.1087 C   0  0  0  0  0  0  0  0  0  0  0  0
    1.2476   -0.9423   -9.6153 C   0  0  0  0  0  0  0  0  0  0  0  0
    0.7709    0.7166   -8.0129 C   0  0  0  0  0  0  0  0  0  0  0  0
   -5.2119    1.6537   -2.5281 C   0  0  0  0  0  0  0  0  0  0  0  0
   -5.5297    0.4810   -1.8287 C   0  0  0  0  0  0  0  0  0  0  0  0
   -5.2805    0.6416   -0.4712 C   0  0  0  0  0  0  0  0  0  0  0  0
   -5.1746   -0.4508    0.8213 S   0  0  0  0  0  0  0  0  0  0  0  0
   -4.5805    0.7582    1.8601 C   0  0  0  0  0  0  0  0  0  0  0  0
   -3.7686    0.7424    3.0498 C   0  0  0  0  0  0  0  0  0  0  0  0
   -3.3753   -0.3508    3.8312 C   0  0  0  0  0  0  0  0  0  0  0  0
   -2.3403   -0.1367    4.7595 C   0  0  0  0  0  0  0  0  0  0  0  0
   -1.5332   -1.2054    5.4873 C   0  0  0  0  0  0  0  0  0  0  0  0
   -1.0024   -2.2161    4.4554 C   0  0  0  0  0  0  0  0  0  0  0  0
   -1.3898   -3.5721    4.4407 C   0  0  0  0  0  0  0  0  0  0  0  0
   -0.9046   -4.4439    3.4606 C   0  0  0  0  0  0  0  0  0  0  0  0
   -0.0332   -3.9846    2.4675 C   0  0  0  0  0  0  0  0  0  0  0  0
    0.4366   -4.9128    1.3787 C   0  0  0  0  0  0  0  0  0  0  0  0
   -0.5153   -4.8688    0.1870 C   0  0  0  0  0  0  0  0  0  0  0  0
    0.3345   -2.6351    2.4508 C   0  0  0  0  0  0  0  0  0  0  0  0
   -0.1417   -1.7635    3.4302 C   0  0  0  0  0  0  0  0  0  0  0  0
   -2.3856   -1.7830    6.6532 C   0  0  0  0  0  0  0  0  0  0  0  0
   -1.5832   -2.6146    7.6606 C   0  0  0  0  0  0  0  0  0  0  0  0
   -0.4196   -0.3356    6.0375 C   0  0  0  0  0  0  0  0  0  0  0  0
   -0.5979    0.9914    5.7309 C   0  0  0  0  0  0  0  0  0  0  0  0
   -1.7619    1.1291    4.8960 C   0  0  0  0  0  0  0  0  0  0  0  0
   -2.1084    2.1983    4.0700 C   0  0  0  0  0  0  0  0  0  0  0  0
   -3.1377    1.9902    3.1384 C   0  0  0  0  0  0  0  0  0  0  0  0
   -3.4810    2.8927    1.9556 C   0  0  0  0  0  0  0  0  0  0  0  0
   -4.3158    4.1566    2.3502 C   0  0  0  0  0  0  0  0  0  0  0  0
   -3.9454    4.7986    3.6922 C   0  0  0  0  0  0  0  0  0  0  0  0
   -2.2014    3.1607    1.1422 C   0  0  0  0  0  0  0  0  0  0  0  0
   -1.5299    4.4021    1.1828 C   0  0  0  0  0  0  0  0  0  0  0  0
   -0.3029    4.5751    0.5343 C   0  0  0  0  0  0  0  0  0  0  0  0
    0.2876    3.5177   -0.1701 C   0  0  0  0  0  0  0  0  0  0  0  0
    1.6319    3.6858   -0.8287 C   0  0  0  0  0  0  0  0  0  0  0  0
    2.7103    2.9087   -0.0711 C   0  0  0  0  0  0  0  0  0  0  0  0
   -0.3777    2.2874   -0.2349 C   0  0  0  0  0  0  0  0  0  0  0  0
   -1.5864    2.1024    0.4331 C   0  0  0  0  0  0  0  0  0  0  0  0
   -4.4016    1.9502    1.2098 C   0  0  0  0  0  0  0  0  0  0  0  0
   -4.8089    1.8717   -0.1129 C   0  0  0  0  0  0  0  0  0  0  0  0
   -4.6320    2.8534   -1.4581 S   0  0  0  0  0  0  0  0  0  0  0  0
    0.8659    1.8544    5.7572 S   0  0  0  0  0  0  0  0  0  0  0  0
    1.7289    0.4896    6.2573 C   0  0  0  0  0  0  0  0  0  0  0  0
    3.0899    0.2195    6.2901 C   0  0  0  0  0  0  0  0  0  0  0  0
    3.3209   -1.1618    6.3507 C   0  0  0  0  0  0  0  0  0  0  0  0
    1.8389   -2.0031    6.4071 S   0  0  0  0  0  0  0  0  0  0  0  0
    0.9128   -0.6046    6.3336 C   0  0  0  0  0  0  0  0  0  0  0  0
    4.6401   -1.8160    6.3205 C   0  0  0  0  0  0  0  0  0  0  0  0
    5.6371   -1.4586    5.4853 C   0  0  0  0  0  0  0  0  0  0  0  0
    5.4775   -0.6216    4.2842 C   0  0  0  0  0  0  0  0  0  0  0  0
    4.3982   -0.1532    3.8295 O   0  0  0  0  0  0  0  0  0  0  0  0
    6.7414   -0.5619    3.5915 C   0  0  0  0  0  0  0  0  0  0  0  0
    7.0350    0.1333    2.4180 C   0  0  0  0  0  0  0  0  0  0  0  0
    8.3309    0.0486    1.8973 C   0  0  0  0  0  0  0  0  0  0  0  0
    9.2995   -0.7364    2.5433 C   0  0  0  0  0  0  0  0  0  0  0  0
   10.5530   -0.8154    2.0288 F   0  0  0  0  0  0  0  0  0  0  0  0
    8.9799   -1.4385    3.7180 C   0  0  0  0  0  0  0  0  0  0  0  0
    7.6796   -1.3403    4.2491 C   0  0  0  0  0  0  0  0  0  0  0  0
    7.0642   -1.9386    5.4788 C   0  0  0  0  0  0  0  0  0  0  0  0
    7.7025   -2.6559    6.4451 C   0  0  0  0  0  0  0  0  0  0  0  0
    7.0819   -3.0283    7.6882 C   0  0  0  0  0  0  0  0  0  0  0  0
    6.6003   -3.3368    8.6963 N   0  0  0  0  0  0  0  0  0  0  0  0
    9.0833   -3.0495    6.3438 C   0  0  0  0  0  0  0  0  0  0  0  0
   10.1966   -3.3717    6.2806 N   0  0  0  0  0  0  0  0  0  0  0  0
   -6.3477    1.7129   -4.3784 H   0  0  0  0  0  0  0  0  0  0  0  0
   -0.1331    1.0886   -4.9532 H   0  0  0  0  0  0  0  0  0  0  0  0
   -3.1653    1.7425   -8.9998 H   0  0  0  0  0  0  0  0  0  0  0  0
    0.2380    1.7646   -9.8329 H   0  0  0  0  0  0  0  0  0  0  0  0
   -0.5096   -0.4621  -10.9048 H   0  0  0  0  0  0  0  0  0  0  0  0
   -1.8430   -1.9349   -9.1415 H   0  0  0  0  0  0  0  0  0  0  0  0
   -0.3027   -2.3357   -7.0842 H   0  0  0  0  0  0  0  0  0  0  0  0
    2.0157   -1.1144   -7.5250 H   0  0  0  0  0  0  0  0  0  0  0  0
    2.0195   -0.2766  -10.0666 H   0  0  0  0  0  0  0  0  0  0  0  0
    1.4187   -1.9930   -9.9490 H   0  0  0  0  0  0  0  0  0  0  0  0
    1.6478    1.4015   -7.9733 H   0  0  0  0  0  0  0  0  0  0  0  0
   -5.8628   -0.4388   -2.2904 H   0  0  0  0  0  0  0  0  0  0  0  0
   -3.7748   -1.3412    3.6520 H   0  0  0  0  0  0  0  0  0  0  0  0
   -2.0831   -3.9750    5.1625 H   0  0  0  0  0  0  0  0  0  0  0  0
   -1.2295   -5.4782    3.4714 H   0  0  0  0  0  0  0  0  0  0  0  0
    0.4955   -5.9546    1.7632 H   0  0  0  0  0  0  0  0  0  0  0  0
    1.4591   -4.6252    1.0478 H   0  0  0  0  0  0  0  0  0  0  0  0
   -1.5154   -5.2479    0.4859 H   0  0  0  0  0  0  0  0  0  0  0  0
   -0.1209   -5.5055   -0.6311 H   0  0  0  0  0  0  0  0  0  0  0  0
   -0.6183   -3.8294   -0.1909 H   0  0  0  0  0  0  0  0  0  0  0  0
    0.9904   -2.2556    1.6756 H   0  0  0  0  0  0  0  0  0  0  0  0
    0.1591   -0.7246    3.3800 H   0  0  0  0  0  0  0  0  0  0  0  0
   -2.8497   -0.9442    7.2179 H   0  0  0  0  0  0  0  0  0  0  0  0
   -3.2249   -2.3870    6.2514 H   0  0  0  0  0  0  0  0  0  0  0  0
   -2.2811   -3.0991    8.3759 H   0  0  0  0  0  0  0  0  0  0  0  0
   -0.9876   -3.4028    7.1591 H   0  0  0  0  0  0  0  0  0  0  0  0
   -0.8967   -1.9618    8.2404 H   0  0  0  0  0  0  0  0  0  0  0  0
   -1.5342    3.1157    4.0850 H   0  0  0  0  0  0  0  0  0  0  0  0
   -5.3949    3.8958    2.4240 H   0  0  0  0  0  0  0  0  0  0  0  0
   -4.2466    4.9162    1.5465 H   0  0  0  0  0  0  0  0  0  0  0  0
   -4.1700    4.1046    4.5296 H   0  0  0  0  0  0  0  0  0  0  0  0
   -2.8764    5.0850    3.7366 H   0  0  0  0  0  0  0  0  0  0  0  0
   -4.5583    5.7155    3.8446 H   0  0  0  0  0  0  0  0  0  0  0  0
   -1.9303    5.2453    1.7223 H   0  0  0  0  0  0  0  0  0  0  0  0
    0.1971    5.5358    0.6026 H   0  0  0  0  0  0  0  0  0  0  0  0
    1.5782    3.3210   -1.8783 H   0  0  0  0  0  0  0  0  0  0  0  0
    1.9223    4.7607   -0.8553 H   0  0  0  0  0  0  0  0  0  0  0  0
    3.6922    3.0651   -0.5663 H   0  0  0  0  0  0  0  0  0  0  0  0
    2.4810    1.8228   -0.0724 H   0  0  0  0  0  0  0  0  0  0  0  0
    2.7771    3.2722    0.9757 H   0  0  0  0  0  0  0  0  0  0  0  0
    0.0583    1.4547   -0.7727 H   0  0  0  0  0  0  0  0  0  0  0  0
   -2.0344    1.1175    0.4039 H   0  0  0  0  0  0  0  0  0  0  0  0
    3.8611    0.9704    6.1847 H   0  0  0  0  0  0  0  0  0  0  0  0
    4.7518   -2.6477    6.9903 H   0  0  0  0  0  0  0  0  0  0  0  0
    6.2807    0.7298    1.9217 H   0  0  0  0  0  0  0  0  0  0  0  0
    8.5849    0.5859    0.9923 H   0  0  0  0  0  0  0  0  0  0  0  0
    9.7518   -2.0314    4.1687 H   0  0  0  0  0  0  0  0  0  0  0  0
  1  2  2  3
  2  3  1  0
  3  4  2  0
  3  5  1  0
  5  6  2  0
  6  7  1  0
  7  8  2  0
  8  9  1  0
  9 10  2  0
 10 11  1  0
 11 12  2  3
 12 13  1  0
 13 14  3  0
 12 15  1  0
 15 16  3  0
  8 17  1  0
 17 18  1  0
 18 19  1  0
 19 20  2  0
 20 21  1  0
 21 22  1  0
 21 23  1  0
  1 24  1  0
 24 25  2  0
 25 26  1  0
 26 27  1  0
 27 28  1  0
 28 29  1  0
 29 30  2  0
 30 31  1  0
 31 32  1  0
 32 33  1  0
 33 34  2  0
 34 35  1  0
 35 36  2  0
 36 37  1  0
 37 38  1  0
 36 39  1  0
 39 40  2  0
 32 41  1  0
 41 42  1  0
 32 43  1  0
 43 44  2  0
 44 45  1  0
 45 46  1  0
 46 47  2  0
 47 48  1  0
 48 49  1  0
 49 50  1  0
 48 51  1  0
 51 52  2  0
 52 53  1  0
 53 54  2  0
 54 55  1  0
 55 56  1  0
 54 57  1  0
 57 58  2  0
 48 59  1  0
 59 60  1  0
 60 61  1  0
 44 62  1  0
 62 63  1  0
 63 64  1  0
 64 65  2  0
 65 66  1  0
 66 67  1  0
 65 68  1  0
 68 69  2  3
 69 70  1  0
 70 71  2  0
 70 72  1  0
 72 73  2  0
 73 74  1  0
 74 75  2  0
 75 76  1  0
 75 77  1  0
 77 78  2  0
 78 79  1  0
 79 80  2  3
 80 81  1  0
 81 82  3  0
 80 83  1  0
 83 84  3  0
 11  2  1  0
 23 17  1  0
 61 24  1  0
 67 63  2  0
 79 69  1  0
 10  5  1  0
 22 18  1  0
 60 26  2  0
 78 72  1  0
 23  7  1  0
 59 28  2  0
 47 29  1  0
 58 51  1  0
 45 31  2  0
 40 33  1  0
 67 43  1  0
  1 85  1  0
  6 86  1  0
  9 87  1  0
 17 88  1  0
 18 89  1  0
 19 90  1  0
 20 91  1  0
 21 92  1  0
 22 93  1  0
 22 94  1  0
 23 95  1  0
 25 96  1  0
 30 97  1  0
 34 98  1  0
 35 99  1  0
 37100  1  0
 37101  1  0
 38102  1  0
 38103  1  0
 38104  1  0
 39105  1  0
 40106  1  0
 41107  1  0
 41108  1  0
 42109  1  0
 42110  1  0
 42111  1  0
 46112  1  0
 49113  1  0
 49114  1  0
 50115  1  0
 50116  1  0
 50117  1  0
 52118  1  0
 53119  1  0
 55120  1  0
 55121  1  0
 56122  1  0
 56123  1  0
 56124  1  0
 57125  1  0
 58126  1  0
 64127  1  0
 68128  1  0
 73129  1  0
 74130  1  0
 77131  1  0
M  END

