
     RDKit          3D

148165  0  0  0  0  0  0  0  0999 V2000
   -1.6320   -5.2436    2.9205 C   0  0  0  0  0  0  0  0  0  0  0  0
   -2.2145   -6.3061    2.3211 C   0  0  0  0  0  0  0  0  0  0  0  0
   -2.1133   -6.6047    0.8851 C   0  0  0  0  0  0  0  0  0  0  0  0
   -1.5452   -5.8990    0.0077 O   0  0  0  0  0  0  0  0  0  0  0  0
   -2.6832   -7.9065    0.6393 C   0  0  0  0  0  0  0  0  0  0  0  0
   -2.7187   -8.5841   -0.6007 C   0  0  0  0  0  0  0  0  0  0  0  0
   -3.2951   -9.8313   -0.5329 C   0  0  0  0  0  0  0  0  0  0  0  0
   -3.7938  -10.4030    0.6819 C   0  0  0  0  0  0  0  0  0  0  0  0
   -3.7292   -9.7610    1.9035 C   0  0  0  0  0  0  0  0  0  0  0  0
   -3.1659   -8.4480    1.8603 C   0  0  0  0  0  0  0  0  0  0  0  0
   -2.9373   -7.4585    2.9585 C   0  0  0  0  0  0  0  0  0  0  0  0
   -3.4909   -7.5030    4.2030 C   0  0  0  0  0  0  0  0  0  0  0  0
   -4.3578   -8.5643    4.6407 C   0  0  0  0  0  0  0  0  0  0  0  0
   -5.0775   -9.3952    5.0095 N   0  0  0  0  0  0  0  0  0  0  0  0
   -3.3109   -6.4598    5.1730 C   0  0  0  0  0  0  0  0  0  0  0  0
   -3.1799   -5.6241    5.9691 N   0  0  0  0  0  0  0  0  0  0  0  0
   -4.2051  -11.6478   -0.0497 C   0  0  0  0  0  0  0  0  0  0  0  0
   -3.3550  -12.9344    0.1585 C   0  0  0  0  0  0  0  0  0  0  0  0
   -1.9249  -12.5674    0.4607 C   0  0  0  0  0  0  0  0  0  0  0  0
   -1.4297  -12.0304   -0.6534 C   0  0  0  0  0  0  0  0  0  0  0  0
   -2.5339  -12.0593   -1.6825 C   0  0  0  0  0  0  0  0  0  0  0  0
   -3.1853  -13.3698   -1.2911 C   0  0  0  0  0  0  0  0  0  0  0  0
   -3.6663  -11.0694   -1.2904 C   0  0  0  0  0  0  0  0  0  0  0  0
   -1.1238   -4.1070    2.1495 C   0  0  0  0  0  0  0  0  0  0  0  0
    0.2182   -3.7414    2.0324 C   0  0  0  0  0  0  0  0  0  0  0  0
    0.3419   -2.6463    1.1783 C   0  0  0  0  0  0  0  0  0  0  0  0
    1.6577   -1.6704    0.7126 S   0  0  0  0  0  0  0  0  0  0  0  0
    0.6563   -0.6687   -0.2158 C   0  0  0  0  0  0  0  0  0  0  0  0
    0.7264    0.7215   -0.6356 C   0  0  0  0  0  0  0  0  0  0  0  0
    1.8239    1.5858   -0.7241 C   0  0  0  0  0  0  0  0  0  0  0  0
    1.5382    2.9603   -0.7979 C   0  0  0  0  0  0  0  0  0  0  0  0
    2.4578    4.1627   -1.0639 C   0  0  0  0  0  0  0  0  0  0  0  0
    2.4860    4.4973   -2.5727 C   0  0  0  0  0  0  0  0  0  0  0  0
    3.1264    5.6709   -3.0059 C   0  0  0  0  0  0  0  0  0  0  0  0
    3.2172    5.9786   -4.3707 C   0  0  0  0  0  0  0  0  0  0  0  0
    2.6723    5.1141   -5.3298 C   0  0  0  0  0  0  0  0  0  0  0  0
    2.7534    5.4343   -6.8004 C   0  0  0  0  0  0  0  0  0  0  0  0
    3.9881    4.7821   -7.4341 C   0  0  0  0  0  0  0  0  0  0  0  0
    2.0833    3.9105   -4.9075 C   0  0  0  0  0  0  0  0  0  0  0  0
    1.9803    3.6083   -3.5532 C   0  0  0  0  0  0  0  0  0  0  0  0
    3.8876    3.9257   -0.5696 C   0  0  0  0  0  0  0  0  0  0  0  0
    4.4210    4.5301    0.5859 C   0  0  0  0  0  0  0  0  0  0  0  0
    5.8108    4.5932    0.7682 C   0  0  0  0  0  0  0  0  0  0  0  0
    6.6906    3.9990   -0.1556 C   0  0  0  0  0  0  0  0  0  0  0  0
    8.1928    4.1293    0.0059 C   0  0  0  0  0  0  0  0  0  0  0  0
    6.1565    3.2588   -1.2203 C   0  0  0  0  0  0  0  0  0  0  0  0
    4.7757    3.2051   -1.4109 C   0  0  0  0  0  0  0  0  0  0  0  0
    1.5972    5.2463   -0.3871 C   0  0  0  0  0  0  0  0  0  0  0  0
    0.2975    4.8036   -0.2834 C   0  0  0  0  0  0  0  0  0  0  0  0
    0.2358    3.4067   -0.5938 C   0  0  0  0  0  0  0  0  0  0  0  0
   -0.8680    2.5504   -0.6411 C   0  0  0  0  0  0  0  0  0  0  0  0
   -0.5931    1.1773   -0.7425 C   0  0  0  0  0  0  0  0  0  0  0  0
   -1.5862    0.0128   -0.7299 C   0  0  0  0  0  0  0  0  0  0  0  0
   -2.8576    0.3861    0.0355 C   0  0  0  0  0  0  0  0  0  0  0  0
   -3.9801    0.8974   -0.6606 C   0  0  0  0  0  0  0  0  0  0  0  0
   -5.0989    1.3841    0.0202 C   0  0  0  0  0  0  0  0  0  0  0  0
   -5.1127    1.4224    1.4186 C   0  0  0  0  0  0  0  0  0  0  0  0
   -6.2821    2.0305    2.1541 C   0  0  0  0  0  0  0  0  0  0  0  0
   -7.5269    1.1504    2.0434 C   0  0  0  0  0  0  0  0  0  0  0  0
   -4.0180    0.8957    2.1293 C   0  0  0  0  0  0  0  0  0  0  0  0
   -2.8932    0.4194    1.4447 C   0  0  0  0  0  0  0  0  0  0  0  0
   -1.8985   -0.5084   -2.1440 C   0  0  0  0  0  0  0  0  0  0  0  0
   -1.5173    0.1841   -3.3149 C   0  0  0  0  0  0  0  0  0  0  0  0
   -1.6869   -0.3959   -4.5839 C   0  0  0  0  0  0  0  0  0  0  0  0
   -2.2522   -1.6737   -4.7032 C   0  0  0  0  0  0  0  0  0  0  0  0
   -2.3088   -2.3525   -6.0543 C   0  0  0  0  0  0  0  0  0  0  0  0
   -0.9879   -3.0609   -6.3473 C   0  0  0  0  0  0  0  0  0  0  0  0
   -2.6818   -2.3475   -3.5546 C   0  0  0  0  0  0  0  0  0  0  0  0
   -2.5433   -1.7579   -2.2924 C   0  0  0  0  0  0  0  0  0  0  0  0
   -0.6704   -1.0102   -0.0940 C   0  0  0  0  0  0  0  0  0  0  0  0
   -0.8252   -2.1613    0.6653 C   0  0  0  0  0  0  0  0  0  0  0  0
   -2.1175   -3.0480    1.2556 S   0  0  0  0  0  0  0  0  0  0  0  0
   -0.6389    5.7389    0.7706 S   0  0  0  0  0  0  0  0  0  0  0  0
    0.6252    6.8339    0.9958 C   0  0  0  0  0  0  0  0  0  0  0  0
    0.7775    7.8922    1.8752 C   0  0  0  0  0  0  0  0  0  0  0  0
    2.0645    8.4147    1.8237 C   0  0  0  0  0  0  0  0  0  0  0  0
    2.9975    7.5280    0.6921 S   0  0  0  0  0  0  0  0  0  0  0  0
    1.7491    6.4614    0.3083 C   0  0  0  0  0  0  0  0  0  0  0  0
    2.5731    9.4319    2.7725 C   0  0  0  0  0  0  0  0  0  0  0  0
    2.7000    9.1579    4.0886 C   0  0  0  0  0  0  0  0  0  0  0  0
    2.5745   10.1383    5.1661 C   0  0  0  0  0  0  0  0  0  0  0  0
    2.7660   11.3844    5.0744 O   0  0  0  0  0  0  0  0  0  0  0  0
    2.2178    9.4202    6.3787 C   0  0  0  0  0  0  0  0  0  0  0  0
    1.9290    9.9274    7.6456 C   0  0  0  0  0  0  0  0  0  0  0  0
    1.5857    9.0285    8.6670 C   0  0  0  0  0  0  0  0  0  0  0  0
    1.2917    9.4886    9.9090 F   0  0  0  0  0  0  0  0  0  0  0  0
    1.4796    7.6450    8.3856 C   0  0  0  0  0  0  0  0  0  0  0  0
    1.0487    6.7909    9.3525 F   0  0  0  0  0  0  0  0  0  0  0  0
    1.7661    7.1526    7.1020 C   0  0  0  0  0  0  0  0  0  0  0  0
    2.1539    8.0599    6.1086 C   0  0  0  0  0  0  0  0  0  0  0  0
    2.6316    7.8130    4.7257 C   0  0  0  0  0  0  0  0  0  0  0  0
    3.4932    6.8251    4.3968 C   0  0  0  0  0  0  0  0  0  0  0  0
    3.5769    5.5851    5.1314 C   0  0  0  0  0  0  0  0  0  0  0  0
    3.6622    4.5907    5.7163 N   0  0  0  0  0  0  0  0  0  0  0  0
    4.5996    7.1012    3.5235 C   0  0  0  0  0  0  0  0  0  0  0  0
    5.4985    7.3422    2.8339 N   0  0  0  0  0  0  0  0  0  0  0  0
   -1.5119   -5.1934    3.9885 H   0  0  0  0  0  0  0  0  0  0  0  0
   -2.3130   -8.1710   -1.5152 H   0  0  0  0  0  0  0  0  0  0  0  0
   -4.0571  -10.2657    2.7974 H   0  0  0  0  0  0  0  0  0  0  0  0
   -5.3059  -11.8011   -0.0778 H   0  0  0  0  0  0  0  0  0  0  0  0
   -3.8018  -13.6901    0.8341 H   0  0  0  0  0  0  0  0  0  0  0  0
   -1.3886  -12.7231    1.3912 H   0  0  0  0  0  0  0  0  0  0  0  0
   -0.4118  -11.6704   -0.7790 H   0  0  0  0  0  0  0  0  0  0  0  0
   -2.1901  -11.9996   -2.7292 H   0  0  0  0  0  0  0  0  0  0  0  0
   -2.5170  -14.2537   -1.4055 H   0  0  0  0  0  0  0  0  0  0  0  0
   -4.1576  -13.5535   -1.8073 H   0  0  0  0  0  0  0  0  0  0  0  0
   -4.4403  -10.9067   -2.0747 H   0  0  0  0  0  0  0  0  0  0  0  0
    1.0460   -4.2246    2.5303 H   0  0  0  0  0  0  0  0  0  0  0  0
    2.8281    1.2059   -0.7124 H   0  0  0  0  0  0  0  0  0  0  0  0
    3.5846    6.3484   -2.2874 H   0  0  0  0  0  0  0  0  0  0  0  0
    3.7093    6.8895   -4.6836 H   0  0  0  0  0  0  0  0  0  0  0  0
    2.7854    6.5319   -6.9525 H   0  0  0  0  0  0  0  0  0  0  0  0
    1.8399    5.0693   -7.3149 H   0  0  0  0  0  0  0  0  0  0  0  0
    4.9020    5.2067   -6.9809 H   0  0  0  0  0  0  0  0  0  0  0  0
    3.9783    3.6887   -7.2530 H   0  0  0  0  0  0  0  0  0  0  0  0
    3.9966    4.9669   -8.5288 H   0  0  0  0  0  0  0  0  0  0  0  0
    1.6791    3.2082   -5.6291 H   0  0  0  0  0  0  0  0  0  0  0  0
    1.5042    2.6647   -3.2951 H   0  0  0  0  0  0  0  0  0  0  0  0
    3.7652    4.9773    1.3194 H   0  0  0  0  0  0  0  0  0  0  0  0
    6.1991    5.1375    1.6127 H   0  0  0  0  0  0  0  0  0  0  0  0
    8.6310    4.5269   -0.9497 H   0  0  0  0  0  0  0  0  0  0  0  0
    8.6289    3.1277    0.2198 H   0  0  0  0  0  0  0  0  0  0  0  0
    8.4658    4.8369    0.8192 H   0  0  0  0  0  0  0  0  0  0  0  0
    6.8080    2.7940   -1.9580 H   0  0  0  0  0  0  0  0  0  0  0  0
    4.4018    2.6694   -2.2770 H   0  0  0  0  0  0  0  0  0  0  0  0
   -1.8851    2.9362   -0.5591 H   0  0  0  0  0  0  0  0  0  0  0  0
   -3.9866    0.9461   -1.7456 H   0  0  0  0  0  0  0  0  0  0  0  0
   -5.9337    1.7851   -0.5505 H   0  0  0  0  0  0  0  0  0  0  0  0
   -6.5004    3.0304    1.7195 H   0  0  0  0  0  0  0  0  0  0  0  0
   -6.0344    2.1856    3.2227 H   0  0  0  0  0  0  0  0  0  0  0  0
   -8.3704    1.5897    2.6246 H   0  0  0  0  0  0  0  0  0  0  0  0
   -7.3092    0.1338    2.4485 H   0  0  0  0  0  0  0  0  0  0  0  0
   -7.8395    1.0663    0.9787 H   0  0  0  0  0  0  0  0  0  0  0  0
   -4.0246    0.8974    3.2136 H   0  0  0  0  0  0  0  0  0  0  0  0
   -2.0384    0.0946    2.0213 H   0  0  0  0  0  0  0  0  0  0  0  0
   -1.0773    1.1711   -3.2552 H   0  0  0  0  0  0  0  0  0  0  0  0
   -1.3614    0.1421   -5.4585 H   0  0  0  0  0  0  0  0  0  0  0  0
   -2.5116   -1.5975   -6.8467 H   0  0  0  0  0  0  0  0  0  0  0  0
   -3.1351   -3.0940   -6.0786 H   0  0  0  0  0  0  0  0  0  0  0  0
   -0.1340   -2.3570   -6.2427 H   0  0  0  0  0  0  0  0  0  0  0  0
   -0.9944   -3.4521   -7.3924 H   0  0  0  0  0  0  0  0  0  0  0  0
   -0.8380   -3.9150   -5.6603 H   0  0  0  0  0  0  0  0  0  0  0  0
   -3.1161   -3.3367   -3.6359 H   0  0  0  0  0  0  0  0  0  0  0  0
   -2.8901   -2.3103   -1.4346 H   0  0  0  0  0  0  0  0  0  0  0  0
    0.0180    8.2222    2.5646 H   0  0  0  0  0  0  0  0  0  0  0  0
    2.5321   10.4582    2.4507 H   0  0  0  0  0  0  0  0  0  0  0  0
    2.0005   10.9878    7.8523 H   0  0  0  0  0  0  0  0  0  0  0  0
    1.6553    6.0939    6.9063 H   0  0  0  0  0  0  0  0  0  0  0  0
  1  2  2  3
  2  3  1  0
  3  4  2  0
  3  5  1  0
  5  6  2  0
  6  7  1  0
  7  8  2  0
  8  9  1  0
  9 10  2  0
 10 11  1  0
 11 12  2  3
 12 13  1  0
 13 14  3  0
 12 15  1  0
 15 16  3  0
  8 17  1  0
 17 18  1  0
 18 19  1  0
 19 20  2  0
 20 21  1  0
 21 22  1  0
 21 23  1  0
  1 24  1  0
 24 25  2  0
 25 26  1  0
 26 27  1  0
 27 28  1  0
 28 29  1  0
 29 30  2  0
 30 31  1  0
 31 32  1  0
 32 33  1  0
 33 34  2  0
 34 35  1  0
 35 36  2  0
 36 37  1  0
 37 38  1  0
 36 39  1  0
 39 40  2  0
 32 41  1  0
 41 42  2  0
 42 43  1  0
 43 44  2  0
 44 45  1  0
 44 46  1  0
 46 47  2  0
 32 48  1  0
 48 49  2  0
 49 50  1  0
 50 51  1  0
 51 52  2  0
 52 53  1  0
 53 54  1  0
 54 55  2  0
 55 56  1  0
 56 57  2  0
 57 58  1  0
 58 59  1  0
 57 60  1  0
 60 61  2  0
 53 62  1  0
 62 63  2  0
 63 64  1  0
 64 65  2  0
 65 66  1  0
 66 67  1  0
 65 68  1  0
 68 69  2  0
 53 70  1  0
 70 71  1  0
 71 72  1  0
 49 73  1  0
 73 74  1  0
 74 75  1  0
 75 76  2  0
 76 77  1  0
 77 78  1  0
 76 79  1  0
 79 80  2  3
 80 81  1  0
 81 82  2  0
 81 83  1  0
 83 84  2  0
 84 85  1  0
 85 86  1  0
 85 87  2  0
 87 88  1  0
 87 89  1  0
 89 90  2  0
 90 91  1  0
 91 92  2  3
 92 93  1  0
 93 94  3  0
 92 95  1  0
 95 96  3  0
 11  2  1  0
 23 17  1  0
 72 24  1  0
 78 74  2  0
 91 80  1  0
 10  5  1  0
 22 18  1  0
 71 26  2  0
 90 83  1  0
 23  7  1  0
 70 28  2  0
 52 29  1  0
 61 54  1  0
 69 62  1  0
 50 31  2  0
 40 33  1  0
 47 41  1  0
 78 48  1  0
  1 97  1  0
  6 98  1  0
  9 99  1  0
 17100  1  0
 18101  1  0
 19102  1  0
 20103  1  0
 21104  1  0
 22105  1  0
 22106  1  0
 23107  1  0
 25108  1  0
 30109  1  0
 34110  1  0
 35111  1  0
 37112  1  0
 37113  1  0
 38114  1  0
 38115  1  0
 38116  1  0
 39117  1  0
 40118  1  0
 42119  1  0
 43120  1  0
 45121  1  0
 45122  1  0
 45123  1  0
 46124  1  0
 47125  1  0
 51126  1  0
 55127  1  0
 56128  1  0
 58129  1  0
 58130  1  0
 59131  1  0
 59132  1  0
 59133  1  0
 60134  1  0
 61135  1  0
 63136  1  0
 64137  1  0
 66138  1  0
 66139  1  0
 67140  1  0
 67141  1  0
 67142  1  0
 68143  1  0
 69144  1  0
 75145  1  0
 79146  1  0
 84147  1  0
 89148  1  0
M  END

