
     RDKit          3D

131146  0  0  0  0  0  0  0  0999 V2000
    6.7665   -3.8981    1.2009 C   0  0  0  0  0  0  0  0  0  0  0  0
    6.7041   -4.0988    2.5319 C   0  0  0  0  0  0  0  0  0  0  0  0
    5.7107   -3.4947    3.4203 C   0  0  0  0  0  0  0  0  0  0  0  0
    5.1903   -2.3522    3.2845 O   0  0  0  0  0  0  0  0  0  0  0  0
    5.4813   -4.3802    4.5313 C   0  0  0  0  0  0  0  0  0  0  0  0
    4.4482   -4.2821    5.4898 C   0  0  0  0  0  0  0  0  0  0  0  0
    4.3913   -5.3548    6.3552 C   0  0  0  0  0  0  0  0  0  0  0  0
    5.2968   -6.4649    6.2964 C   0  0  0  0  0  0  0  0  0  0  0  0
    6.3149   -6.5650    5.3587 C   0  0  0  0  0  0  0  0  0  0  0  0
    6.3905   -5.4682    4.4499 C   0  0  0  0  0  0  0  0  0  0  0  0
    7.2884   -5.2527    3.2764 C   0  0  0  0  0  0  0  0  0  0  0  0
    8.4816   -5.8437    3.0328 C   0  0  0  0  0  0  0  0  0  0  0  0
    9.4065   -5.3087    2.0668 C   0  0  0  0  0  0  0  0  0  0  0  0
   10.1582   -4.8682    1.3042 N   0  0  0  0  0  0  0  0  0  0  0  0
    8.9702   -6.9605    3.8017 C   0  0  0  0  0  0  0  0  0  0  0  0
    9.3708   -7.8615    4.4028 N   0  0  0  0  0  0  0  0  0  0  0  0
    4.5982   -7.1156    7.4540 C   0  0  0  0  0  0  0  0  0  0  0  0
    5.3156   -7.0504    8.8351 C   0  0  0  0  0  0  0  0  0  0  0  0
    4.2626   -7.3994    9.8643 C   0  0  0  0  0  0  0  0  0  0  0  0
    3.4114   -6.3665    9.9054 C   0  0  0  0  0  0  0  0  0  0  0  0
    3.9177   -5.3561    8.9055 C   0  0  0  0  0  0  0  0  0  0  0  0
    5.4116   -5.5574    9.1068 C   0  0  0  0  0  0  0  0  0  0  0  0
    3.6644   -5.9837    7.5044 C   0  0  0  0  0  0  0  0  0  0  0  0
    5.7240   -3.1419    0.4871 C   0  0  0  0  0  0  0  0  0  0  0  0
    5.9284   -1.9816   -0.2750 C   0  0  0  0  0  0  0  0  0  0  0  0
    4.7046   -1.4284   -0.6534 C   0  0  0  0  0  0  0  0  0  0  0  0
    4.2650    0.0981   -1.2586 S   0  0  0  0  0  0  0  0  0  0  0  0
    2.6151   -0.2137   -0.9839 C   0  0  0  0  0  0  0  0  0  0  0  0
    1.4660    0.6255   -0.7788 C   0  0  0  0  0  0  0  0  0  0  0  0
    1.1533    1.8635   -1.3508 C   0  0  0  0  0  0  0  0  0  0  0  0
   -0.1201    2.3919   -1.0755 C   0  0  0  0  0  0  0  0  0  0  0  0
   -0.8181    3.5601   -1.7862 C   0  0  0  0  0  0  0  0  0  0  0  0
   -0.9070    3.3058   -3.3025 C   0  0  0  0  0  0  0  0  0  0  0  0
   -1.2720    2.0193   -3.7642 C   0  0  0  0  0  0  0  0  0  0  0  0
   -1.4453    1.7629   -5.1255 C   0  0  0  0  0  0  0  0  0  0  0  0
   -1.2695    2.7849   -6.0653 C   0  0  0  0  0  0  0  0  0  0  0  0
   -1.4438    2.5061   -7.5328 C   0  0  0  0  0  0  0  0  0  0  0  0
   -0.1099    2.1386   -8.1802 C   0  0  0  0  0  0  0  0  0  0  0  0
   -0.9072    4.0636   -5.6251 C   0  0  0  0  0  0  0  0  0  0  0  0
   -0.7440    4.3288   -4.2612 C   0  0  0  0  0  0  0  0  0  0  0  0
   -0.2339    4.9302   -1.3397 C   0  0  0  0  0  0  0  0  0  0  0  0
    1.2482    5.1310   -1.6670 C   0  0  0  0  0  0  0  0  0  0  0  0
   -2.1965    3.4094   -1.1891 C   0  0  0  0  0  0  0  0  0  0  0  0
   -2.2807    2.3585   -0.3229 C   0  0  0  0  0  0  0  0  0  0  0  0
   -1.0144    1.6837   -0.2608 C   0  0  0  0  0  0  0  0  0  0  0  0
   -0.7285    0.4156    0.2482 C   0  0  0  0  0  0  0  0  0  0  0  0
    0.5470   -0.1041   -0.0142 C   0  0  0  0  0  0  0  0  0  0  0  0
    1.0700   -1.5009    0.3255 C   0  0  0  0  0  0  0  0  0  0  0  0
    1.2739   -1.6283    1.8663 C   0  0  0  0  0  0  0  0  0  0  0  0
   -0.0225   -1.6493    2.6808 C   0  0  0  0  0  0  0  0  0  0  0  0
    0.2415   -2.6198   -0.3263 C   0  0  0  0  0  0  0  0  0  0  0  0
    0.2359   -3.9326    0.1959 C   0  0  0  0  0  0  0  0  0  0  0  0
   -0.5040   -4.9467   -0.4187 C   0  0  0  0  0  0  0  0  0  0  0  0
   -1.2405   -4.6845   -1.5845 C   0  0  0  0  0  0  0  0  0  0  0  0
   -2.0232   -5.7833   -2.2539 C   0  0  0  0  0  0  0  0  0  0  0  0
   -1.1432   -6.5529   -3.2317 C   0  0  0  0  0  0  0  0  0  0  0  0
   -1.1888   -3.4030   -2.1514 C   0  0  0  0  0  0  0  0  0  0  0  0
   -0.4531   -2.3883   -1.5364 C   0  0  0  0  0  0  0  0  0  0  0  0
    2.4100   -1.4206   -0.3707 C   0  0  0  0  0  0  0  0  0  0  0  0
    3.6021   -2.1129   -0.2207 C   0  0  0  0  0  0  0  0  0  0  0  0
    4.0561   -3.4652    0.6462 S   0  0  0  0  0  0  0  0  0  0  0  0
   -3.8871    1.9204    0.0320 S   0  0  0  0  0  0  0  0  0  0  0  0
   -4.4737    3.1979   -0.9128 C   0  0  0  0  0  0  0  0  0  0  0  0
   -5.7506    3.5525   -1.3238 C   0  0  0  0  0  0  0  0  0  0  0  0
   -5.7029    4.5886   -2.2673 C   0  0  0  0  0  0  0  0  0  0  0  0
   -4.0754    4.9734   -2.6330 S   0  0  0  0  0  0  0  0  0  0  0  0
   -3.4577    3.8844   -1.5156 C   0  0  0  0  0  0  0  0  0  0  0  0
   -6.8877    5.0467   -3.0056 C   0  0  0  0  0  0  0  0  0  0  0  0
   -7.2073    6.3343   -3.2431 C   0  0  0  0  0  0  0  0  0  0  0  0
   -6.3967    7.5119   -2.9156 C   0  0  0  0  0  0  0  0  0  0  0  0
   -5.4443    7.5657   -2.0920 O   0  0  0  0  0  0  0  0  0  0  0  0
   -6.9229    8.6422   -3.6518 C   0  0  0  0  0  0  0  0  0  0  0  0
   -6.4178    9.9421   -3.7088 C   0  0  0  0  0  0  0  0  0  0  0  0
   -7.0716   10.8757   -4.5267 C   0  0  0  0  0  0  0  0  0  0  0  0
   -6.4756   12.5251   -4.6085 Cl  0  0  0  0  0  0  0  0  0  0  0  0
   -8.1992   10.4916   -5.2799 C   0  0  0  0  0  0  0  0  0  0  0  0
   -8.8240   11.3905   -6.0843 F   0  0  0  0  0  0  0  0  0  0  0  0
   -8.6843    9.1762   -5.2100 C   0  0  0  0  0  0  0  0  0  0  0  0
   -8.0476    8.2550   -4.3630 C   0  0  0  0  0  0  0  0  0  0  0  0
   -8.3675    6.8331   -4.0488 C   0  0  0  0  0  0  0  0  0  0  0  0
   -9.5713    6.2198   -4.2106 C   0  0  0  0  0  0  0  0  0  0  0  0
  -10.6611    6.8181   -4.9318 C   0  0  0  0  0  0  0  0  0  0  0  0
  -11.5458    7.2903   -5.5092 N   0  0  0  0  0  0  0  0  0  0  0  0
   -9.9041    4.9939   -3.5362 C   0  0  0  0  0  0  0  0  0  0  0  0
  -10.1778    4.0144   -2.9876 N   0  0  0  0  0  0  0  0  0  0  0  0
    7.4732   -4.4449    0.5880 H   0  0  0  0  0  0  0  0  0  0  0  0
    3.7389   -3.4673    5.5228 H   0  0  0  0  0  0  0  0  0  0  0  0
    6.9412   -7.4394    5.3155 H   0  0  0  0  0  0  0  0  0  0  0  0
    4.1275   -8.0934    7.2035 H   0  0  0  0  0  0  0  0  0  0  0  0
    6.2642   -7.6221    8.9157 H   0  0  0  0  0  0  0  0  0  0  0  0
    4.2378   -8.2709   10.5147 H   0  0  0  0  0  0  0  0  0  0  0  0
    2.5730   -6.2550   10.5875 H   0  0  0  0  0  0  0  0  0  0  0  0
    3.5410   -4.3207    9.0457 H   0  0  0  0  0  0  0  0  0  0  0  0
    6.0475   -5.0004    8.3800 H   0  0  0  0  0  0  0  0  0  0  0  0
    5.7543   -5.3113   10.1418 H   0  0  0  0  0  0  0  0  0  0  0  0
    2.6046   -6.2425    7.2766 H   0  0  0  0  0  0  0  0  0  0  0  0
    6.8929   -1.5202   -0.4477 H   0  0  0  0  0  0  0  0  0  0  0  0
    1.8309    2.3438   -2.0433 H   0  0  0  0  0  0  0  0  0  0  0  0
   -1.4511    1.2084   -3.0711 H   0  0  0  0  0  0  0  0  0  0  0  0
   -1.7234    0.7659   -5.4422 H   0  0  0  0  0  0  0  0  0  0  0  0
   -2.1641    1.6645   -7.6757 H   0  0  0  0  0  0  0  0  0  0  0  0
   -1.8722    3.3957   -8.0482 H   0  0  0  0  0  0  0  0  0  0  0  0
    0.3681    1.2912   -7.6360 H   0  0  0  0  0  0  0  0  0  0  0  0
    0.5664    3.0223   -8.1795 H   0  0  0  0  0  0  0  0  0  0  0  0
   -0.2870    1.8315   -9.2373 H   0  0  0  0  0  0  0  0  0  0  0  0
   -0.7663    4.8670   -6.3398 H   0  0  0  0  0  0  0  0  0  0  0  0
   -0.4990    5.3415   -3.9748 H   0  0  0  0  0  0  0  0  0  0  0  0
   -0.3512    5.0384   -0.2396 H   0  0  0  0  0  0  0  0  0  0  0  0
   -0.8292    5.7544   -1.7897 H   0  0  0  0  0  0  0  0  0  0  0  0
    1.5085    6.2045   -1.5374 H   0  0  0  0  0  0  0  0  0  0  0  0
    1.4819    4.8369   -2.7118 H   0  0  0  0  0  0  0  0  0  0  0  0
    1.8827    4.5433   -0.9679 H   0  0  0  0  0  0  0  0  0  0  0  0
   -1.4819   -0.1600    0.7675 H   0  0  0  0  0  0  0  0  0  0  0  0
    1.8477   -2.5423    2.1104 H   0  0  0  0  0  0  0  0  0  0  0  0
    1.8980   -0.7807    2.2273 H   0  0  0  0  0  0  0  0  0  0  0  0
   -0.3858   -0.6118    2.8580 H   0  0  0  0  0  0  0  0  0  0  0  0
   -0.8186   -2.2371    2.1790 H   0  0  0  0  0  0  0  0  0  0  0  0
    0.1702   -2.1108    3.6744 H   0  0  0  0  0  0  0  0  0  0  0  0
    0.8036   -4.1922    1.0772 H   0  0  0  0  0  0  0  0  0  0  0  0
   -0.5022   -5.9448    0.0112 H   0  0  0  0  0  0  0  0  0  0  0  0
   -2.4208   -6.4882   -1.4918 H   0  0  0  0  0  0  0  0  0  0  0  0
   -2.8932   -5.3579   -2.7999 H   0  0  0  0  0  0  0  0  0  0  0  0
   -1.7469   -7.3266   -3.7533 H   0  0  0  0  0  0  0  0  0  0  0  0
   -0.3144   -7.0560   -2.6917 H   0  0  0  0  0  0  0  0  0  0  0  0
   -0.7122   -5.8634   -3.9929 H   0  0  0  0  0  0  0  0  0  0  0  0
   -1.7222   -3.1886   -3.0711 H   0  0  0  0  0  0  0  0  0  0  0  0
   -0.4282   -1.4227   -2.0218 H   0  0  0  0  0  0  0  0  0  0  0  0
   -6.6554    3.0512   -1.0017 H   0  0  0  0  0  0  0  0  0  0  0  0
   -7.5329    4.2596   -3.3585 H   0  0  0  0  0  0  0  0  0  0  0  0
   -5.5398   10.2211   -3.1413 H   0  0  0  0  0  0  0  0  0  0  0  0
   -9.5207    8.9058   -5.8301 H   0  0  0  0  0  0  0  0  0  0  0  0
  1  2  2  3
  2  3  1  0
  3  4  2  0
  3  5  1  0
  5  6  2  0
  6  7  1  0
  7  8  2  0
  8  9  1  0
  9 10  2  0
 10 11  1  0
 11 12  2  3
 12 13  1  0
 13 14  3  0
 12 15  1  0
 15 16  3  0
  8 17  1  0
 17 18  1  0
 18 19  1  0
 19 20  2  0
 20 21  1  0
 21 22  1  0
 21 23  1  0
  1 24  1  0
 24 25  2  0
 25 26  1  0
 26 27  1  0
 27 28  1  0
 28 29  1  0
 29 30  2  0
 30 31  1  0
 31 32  1  0
 32 33  1  0
 33 34  2  0
 34 35  1  0
 35 36  2  0
 36 37  1  0
 37 38  1  0
 36 39  1  0
 39 40  2  0
 32 41  1  0
 41 42  1  0
 32 43  1  0
 43 44  2  0
 44 45  1  0
 45 46  1  0
 46 47  2  0
 47 48  1  0
 48 49  1  0
 49 50  1  0
 48 51  1  0
 51 52  2  0
 52 53  1  0
 53 54  2  0
 54 55  1  0
 55 56  1  0
 54 57  1  0
 57 58  2  0
 48 59  1  0
 59 60  1  0
 60 61  1  0
 44 62  1  0
 62 63  1  0
 63 64  1  0
 64 65  2  0
 65 66  1  0
 66 67  1  0
 65 68  1  0
 68 69  2  3
 69 70  1  0
 70 71  2  0
 70 72  1  0
 72 73  2  0
 73 74  1  0
 74 75  1  0
 74 76  2  0
 76 77  1  0
 76 78  1  0
 78 79  2  0
 79 80  1  0
 80 81  2  3
 81 82  1  0
 82 83  3  0
 81 84  1  0
 84 85  3  0
 11  2  1  0
 23 17  1  0
 61 24  1  0
 67 63  2  0
 80 69  1  0
 10  5  1  0
 22 18  1  0
 60 26  2  0
 79 72  1  0
 23  7  1  0
 59 28  2  0
 47 29  1  0
 58 51  1  0
 45 31  2  0
 40 33  1  0
 67 43  1  0
  1 86  1  0
  6 87  1  0
  9 88  1  0
 17 89  1  0
 18 90  1  0
 19 91  1  0
 20 92  1  0
 21 93  1  0
 22 94  1  0
 22 95  1  0
 23 96  1  0
 25 97  1  0
 30 98  1  0
 34 99  1  0
 35100  1  0
 37101  1  0
 37102  1  0
 38103  1  0
 38104  1  0
 38105  1  0
 39106  1  0
 40107  1  0
 41108  1  0
 41109  1  0
 42110  1  0
 42111  1  0
 42112  1  0
 46113  1  0
 49114  1  0
 49115  1  0
 50116  1  0
 50117  1  0
 50118  1  0
 52119  1  0
 53120  1  0
 55121  1  0
 55122  1  0
 56123  1  0
 56124  1  0
 56125  1  0
 57126  1  0
 58127  1  0
 64128  1  0
 68129  1  0
 73130  1  0
 78131  1  0
M  END

