
     RDKit          3D

181202  0  0  0  0  0  0  0  0999 V2000
    6.5158    1.1799    2.5324 C   0  0  0  0  0  0  0  0  0  0  0  0
    6.5844    2.0544    1.5086 C   0  0  0  0  0  0  0  0  0  0  0  0
    5.5020    2.3098    0.5470 C   0  0  0  0  0  0  0  0  0  0  0  0
    4.4845    1.5922    0.3560 O   0  0  0  0  0  0  0  0  0  0  0  0
    5.8173    3.4990   -0.2073 C   0  0  0  0  0  0  0  0  0  0  0  0
    5.0052    4.1306   -1.1793 C   0  0  0  0  0  0  0  0  0  0  0  0
    5.5525    5.2845   -1.7014 C   0  0  0  0  0  0  0  0  0  0  0  0
    6.8129    5.8064   -1.2764 C   0  0  0  0  0  0  0  0  0  0  0  0
    7.6079    5.2022   -0.3190 C   0  0  0  0  0  0  0  0  0  0  0  0
    7.0853    3.9860    0.2043 C   0  0  0  0  0  0  0  0  0  0  0  0
    7.6702    3.0465    1.2083 C   0  0  0  0  0  0  0  0  0  0  0  0
    8.9622    3.0207    1.6436 C   0  0  0  0  0  0  0  0  0  0  0  0
    9.4862    1.9687    2.4720 C   0  0  0  0  0  0  0  0  0  0  0  0
    9.9247    1.1349    3.1475 N   0  0  0  0  0  0  0  0  0  0  0  0
    9.9425    3.9909    1.2414 C   0  0  0  0  0  0  0  0  0  0  0  0
   10.7439    4.7656    0.9282 N   0  0  0  0  0  0  0  0  0  0  0  0
    6.6667    6.9693   -2.2078 C   0  0  0  0  0  0  0  0  0  0  0  0
    6.2896    8.3323   -1.5622 C   0  0  0  0  0  0  0  0  0  0  0  0
    5.8416    9.2156   -2.7019 C   0  0  0  0  0  0  0  0  0  0  0  0
    4.6672    8.7279   -3.1158 C   0  0  0  0  0  0  0  0  0  0  0  0
    4.3599    7.5352   -2.2424 C   0  0  0  0  0  0  0  0  0  0  0  0
    4.9308    8.0597   -0.9364 C   0  0  0  0  0  0  0  0  0  0  0  0
    5.3795    6.4326   -2.6539 C   0  0  0  0  0  0  0  0  0  0  0  0
    5.2889    0.4499    2.8651 C   0  0  0  0  0  0  0  0  0  0  0  0
    5.0964   -0.9287    2.7147 C   0  0  0  0  0  0  0  0  0  0  0  0
    3.7643   -1.2799    2.9604 C   0  0  0  0  0  0  0  0  0  0  0  0
    2.9378   -2.4851    2.5479 C   0  0  0  0  0  0  0  0  0  0  0  0
    3.1488   -3.5819    3.5959 C   0  0  0  0  0  0  0  0  0  0  0  0
    2.1503   -3.9445    4.5282 C   0  0  0  0  0  0  0  0  0  0  0  0
    2.3726   -4.9690    5.4489 C   0  0  0  0  0  0  0  0  0  0  0  0
    3.5979   -5.6483    5.4730 C   0  0  0  0  0  0  0  0  0  0  0  0
    3.7992   -6.8057    6.4144 C   0  0  0  0  0  0  0  0  0  0  0  0
    3.2395   -8.0882    5.8076 C   0  0  0  0  0  0  0  0  0  0  0  0
    4.6045   -5.2820    4.5690 C   0  0  0  0  0  0  0  0  0  0  0  0
    4.3878   -4.2526    3.6507 C   0  0  0  0  0  0  0  0  0  0  0  0
    3.2219   -2.9607    1.1146 C   0  0  0  0  0  0  0  0  0  0  0  0
    2.9954   -4.3036    0.7467 C   0  0  0  0  0  0  0  0  0  0  0  0
    3.2481   -4.7405   -0.5528 C   0  0  0  0  0  0  0  0  0  0  0  0
    3.6992   -3.8417   -1.5278 C   0  0  0  0  0  0  0  0  0  0  0  0
    4.0367   -4.3358   -2.9080 C   0  0  0  0  0  0  0  0  0  0  0  0
    5.3940   -5.0360   -2.9108 C   0  0  0  0  0  0  0  0  0  0  0  0
    3.8510   -2.4892   -1.1950 C   0  0  0  0  0  0  0  0  0  0  0  0
    3.5884   -2.0496    0.1048 C   0  0  0  0  0  0  0  0  0  0  0  0
    1.5495   -1.8518    2.5933 C   0  0  0  0  0  0  0  0  0  0  0  0
    1.6062   -0.5420    3.0735 C   0  0  0  0  0  0  0  0  0  0  0  0
    2.9802   -0.2325    3.3323 C   0  0  0  0  0  0  0  0  0  0  0  0
    3.8276    1.2058    3.2999 S   0  0  0  0  0  0  0  0  0  0  0  0
    0.5139    0.3232    3.0287 C   0  0  0  0  0  0  0  0  0  0  0  0
   -0.6873   -0.1838    2.5081 C   0  0  0  0  0  0  0  0  0  0  0  0
   -1.9510    0.6133    2.1828 C   0  0  0  0  0  0  0  0  0  0  0  0
   -2.8035    0.8526    3.4493 C   0  0  0  0  0  0  0  0  0  0  0  0
   -4.1349    1.2931    3.3195 C   0  0  0  0  0  0  0  0  0  0  0  0
   -4.9721    1.4213    4.4262 C   0  0  0  0  0  0  0  0  0  0  0  0
   -4.5024    1.1087    5.7067 C   0  0  0  0  0  0  0  0  0  0  0  0
   -5.4109    1.2174    6.9012 C   0  0  0  0  0  0  0  0  0  0  0  0
   -5.2070    2.5514    7.6117 C   0  0  0  0  0  0  0  0  0  0  0  0
   -3.1683    0.7162    5.8660 C   0  0  0  0  0  0  0  0  0  0  0  0
   -2.3281    0.5867    4.7557 C   0  0  0  0  0  0  0  0  0  0  0  0
   -1.5463    1.8731    1.4075 C   0  0  0  0  0  0  0  0  0  0  0  0
   -1.8171    3.1723    1.8869 C   0  0  0  0  0  0  0  0  0  0  0  0
   -1.2853    4.2946    1.2457 C   0  0  0  0  0  0  0  0  0  0  0  0
   -0.4667    4.1484    0.1195 C   0  0  0  0  0  0  0  0  0  0  0  0
    0.1524    5.3555   -0.5320 C   0  0  0  0  0  0  0  0  0  0  0  0
    1.5255    5.6485    0.0654 C   0  0  0  0  0  0  0  0  0  0  0  0
   -0.1825    2.8640   -0.3589 C   0  0  0  0  0  0  0  0  0  0  0  0
   -0.7246    1.7419    0.2670 C   0  0  0  0  0  0  0  0  0  0  0  0
   -2.6458   -0.4221    1.3091 C   0  0  0  0  0  0  0  0  0  0  0  0
   -2.0071   -1.6367    1.3650 C   0  0  0  0  0  0  0  0  0  0  0  0
   -0.7543   -1.5027    2.0479 C   0  0  0  0  0  0  0  0  0  0  0  0
    0.3484   -2.3667    2.0688 C   0  0  0  0  0  0  0  0  0  0  0  0
   -2.8248   -2.8953    0.5660 S   0  0  0  0  0  0  0  0  0  0  0  0
   -4.0980   -1.8326    0.2366 C   0  0  0  0  0  0  0  0  0  0  0  0
   -5.1082   -1.7762   -0.6696 C   0  0  0  0  0  0  0  0  0  0  0  0
   -5.4023   -0.4600   -0.8497 C   0  0  0  0  0  0  0  0  0  0  0  0
   -4.6385    0.3513   -0.0692 N   0  0  0  0  0  0  0  0  0  0  0  0
   -4.3090    1.7006   -0.4279 C   0  0  0  0  0  0  0  0  0  0  0  0
   -3.3608    1.9414   -1.4310 C   0  0  0  0  0  0  0  0  0  0  0  0
   -3.1084    3.2482   -1.8641 C   0  0  0  0  0  0  0  0  0  0  0  0
   -3.8011    4.3260   -1.2961 C   0  0  0  0  0  0  0  0  0  0  0  0
   -3.5494    5.7323   -1.7753 C   0  0  0  0  0  0  0  0  0  0  0  0
   -4.6128    6.1518   -2.7872 C   0  0  0  0  0  0  0  0  0  0  0  0
   -4.7857    4.0770   -0.3256 C   0  0  0  0  0  0  0  0  0  0  0  0
   -5.0528    2.7685    0.0853 C   0  0  0  0  0  0  0  0  0  0  0  0
   -3.8536   -0.5383    0.6126 C   0  0  0  0  0  0  0  0  0  0  0  0
   -6.0782   -0.1777   -2.0433 C   0  0  0  0  0  0  0  0  0  0  0  0
   -6.2689   -1.3510   -2.7809 C   0  0  0  0  0  0  0  0  0  0  0  0
   -5.5796   -2.6958   -1.9718 S   0  0  0  0  0  0  0  0  0  0  0  0
   -6.8884   -1.4273   -4.1149 C   0  0  0  0  0  0  0  0  0  0  0  0
   -6.3426   -2.1658   -5.0941 C   0  0  0  0  0  0  0  0  0  0  0  0
   -7.1481   -3.0974   -5.8811 C   0  0  0  0  0  0  0  0  0  0  0  0
   -8.3645   -2.9511   -6.1777 O   0  0  0  0  0  0  0  0  0  0  0  0
   -6.3711   -4.3105   -6.0782 C   0  0  0  0  0  0  0  0  0  0  0  0
   -6.8757   -5.5913   -6.4139 C   0  0  0  0  0  0  0  0  0  0  0  0
   -5.9926   -6.6263   -6.1566 C   0  0  0  0  0  0  0  0  0  0  0  0
   -4.6885   -6.4234   -5.6030 C   0  0  0  0  0  0  0  0  0  0  0  0
   -4.1808   -5.1786   -5.2850 C   0  0  0  0  0  0  0  0  0  0  0  0
   -5.0682   -4.1033   -5.5502 C   0  0  0  0  0  0  0  0  0  0  0  0
   -4.9617   -2.7110   -5.0807 C   0  0  0  0  0  0  0  0  0  0  0  0
   -3.8328   -1.9846   -4.9076 C   0  0  0  0  0  0  0  0  0  0  0  0
   -3.8877   -0.5603   -4.6907 C   0  0  0  0  0  0  0  0  0  0  0  0
   -3.9271    0.5830   -4.5173 N   0  0  0  0  0  0  0  0  0  0  0  0
   -2.5180   -2.5615   -5.0424 C   0  0  0  0  0  0  0  0  0  0  0  0
   -1.4566   -3.0142   -5.1435 N   0  0  0  0  0  0  0  0  0  0  0  0
   -4.4850   -7.9029   -5.4874 C   0  0  0  0  0  0  0  0  0  0  0  0
   -4.6095   -8.4968   -4.0530 C   0  0  0  0  0  0  0  0  0  0  0  0
   -4.7672   -9.9888   -4.2367 C   0  0  0  0  0  0  0  0  0  0  0  0
   -5.9790  -10.1819   -4.7654 C   0  0  0  0  0  0  0  0  0  0  0  0
   -6.6035   -8.8174   -4.9158 C   0  0  0  0  0  0  0  0  0  0  0  0
   -6.0399   -8.1605   -3.6649 C   0  0  0  0  0  0  0  0  0  0  0  0
   -5.8176   -8.1129   -6.0636 C   0  0  0  0  0  0  0  0  0  0  0  0
    7.3206    1.0501    3.2268 H   0  0  0  0  0  0  0  0  0  0  0  0
    4.0377    3.7520   -1.4804 H   0  0  0  0  0  0  0  0  0  0  0  0
    8.5272    5.6652   -0.0141 H   0  0  0  0  0  0  0  0  0  0  0  0
    7.4559    7.0123   -2.9933 H   0  0  0  0  0  0  0  0  0  0  0  0
    7.0556    8.7736   -0.8884 H   0  0  0  0  0  0  0  0  0  0  0  0
    6.3109   10.1259   -3.0551 H   0  0  0  0  0  0  0  0  0  0  0  0
    4.0206    9.1756   -3.8637 H   0  0  0  0  0  0  0  0  0  0  0  0
    3.2976    7.2232   -2.2238 H   0  0  0  0  0  0  0  0  0  0  0  0
    4.4221    8.9808   -0.5686 H   0  0  0  0  0  0  0  0  0  0  0  0
    4.9492    7.3145   -0.1111 H   0  0  0  0  0  0  0  0  0  0  0  0
    5.3495    6.1278   -3.7229 H   0  0  0  0  0  0  0  0  0  0  0  0
    5.8406   -1.6075    2.3121 H   0  0  0  0  0  0  0  0  0  0  0  0
    1.1904   -3.4472    4.5525 H   0  0  0  0  0  0  0  0  0  0  0  0
    1.5837   -5.2431    6.1375 H   0  0  0  0  0  0  0  0  0  0  0  0
    3.2830   -6.6007    7.3799 H   0  0  0  0  0  0  0  0  0  0  0  0
    4.8829   -6.9429    6.6353 H   0  0  0  0  0  0  0  0  0  0  0  0
    3.3646   -8.9241    6.5273 H   0  0  0  0  0  0  0  0  0  0  0  0
    3.7824   -8.3418    4.8716 H   0  0  0  0  0  0  0  0  0  0  0  0
    2.1560   -7.9722    5.5850 H   0  0  0  0  0  0  0  0  0  0  0  0
    5.5525   -5.8035    4.5641 H   0  0  0  0  0  0  0  0  0  0  0  0
    5.1789   -3.9938    2.9560 H   0  0  0  0  0  0  0  0  0  0  0  0
    2.6304   -5.0222    1.4682 H   0  0  0  0  0  0  0  0  0  0  0  0
    3.0996   -5.7837   -0.7948 H   0  0  0  0  0  0  0  0  0  0  0  0
    3.2542   -5.0463   -3.2530 H   0  0  0  0  0  0  0  0  0  0  0  0
    4.0679   -3.4889   -3.6285 H   0  0  0  0  0  0  0  0  0  0  0  0
    6.1884   -4.3407   -2.5638 H   0  0  0  0  0  0  0  0  0  0  0  0
    5.6386   -5.3670   -3.9402 H   0  0  0  0  0  0  0  0  0  0  0  0
    5.3736   -5.9285   -2.2473 H   0  0  0  0  0  0  0  0  0  0  0  0
    4.1759   -1.7750   -1.9426 H   0  0  0  0  0  0  0  0  0  0  0  0
    3.6811   -0.9936    0.3208 H   0  0  0  0  0  0  0  0  0  0  0  0
    0.6078    1.3605    3.3215 H   0  0  0  0  0  0  0  0  0  0  0  0
   -4.5326    1.5231    2.3511 H   0  0  0  0  0  0  0  0  0  0  0  0
   -5.9973    1.7434    4.2809 H   0  0  0  0  0  0  0  0  0  0  0  0
   -5.1996    0.3845    7.6094 H   0  0  0  0  0  0  0  0  0  0  0  0
   -6.4739    1.1263    6.5905 H   0  0  0  0  0  0  0  0  0  0  0  0
   -5.4723    3.3914    6.9347 H   0  0  0  0  0  0  0  0  0  0  0  0
   -4.1493    2.6595    7.9348 H   0  0  0  0  0  0  0  0  0  0  0  0
   -5.8580    2.5958    8.5094 H   0  0  0  0  0  0  0  0  0  0  0  0
   -2.7806    0.4865    6.8519 H   0  0  0  0  0  0  0  0  0  0  0  0
   -1.3188    0.2512    4.9418 H   0  0  0  0  0  0  0  0  0  0  0  0
   -2.4116    3.3305    2.7754 H   0  0  0  0  0  0  0  0  0  0  0  0
   -1.4950    5.2790    1.6398 H   0  0  0  0  0  0  0  0  0  0  0  0
    0.2589    5.1875   -1.6245 H   0  0  0  0  0  0  0  0  0  0  0  0
   -0.5014    6.2441   -0.3994 H   0  0  0  0  0  0  0  0  0  0  0  0
    2.2276    4.8166   -0.1556 H   0  0  0  0  0  0  0  0  0  0  0  0
    1.9338    6.5825   -0.3717 H   0  0  0  0  0  0  0  0  0  0  0  0
    1.4512    5.7825    1.1664 H   0  0  0  0  0  0  0  0  0  0  0  0
    0.4630    2.7330   -1.2205 H   0  0  0  0  0  0  0  0  0  0  0  0
   -0.4757    0.7622   -0.1207 H   0  0  0  0  0  0  0  0  0  0  0  0
    0.3044   -3.3501    1.6244 H   0  0  0  0  0  0  0  0  0  0  0  0
   -2.8242    1.1178   -1.8817 H   0  0  0  0  0  0  0  0  0  0  0  0
   -2.3686    3.4188   -2.6384 H   0  0  0  0  0  0  0  0  0  0  0  0
   -2.5461    5.8046   -2.2500 H   0  0  0  0  0  0  0  0  0  0  0  0
   -3.5599    6.4315   -0.9134 H   0  0  0  0  0  0  0  0  0  0  0  0
   -4.4011    7.1765   -3.1491 H   0  0  0  0  0  0  0  0  0  0  0  0
   -5.6170    6.1403   -2.3180 H   0  0  0  0  0  0  0  0  0  0  0  0
   -4.6105    5.4584   -3.6542 H   0  0  0  0  0  0  0  0  0  0  0  0
   -5.3608    4.8948    0.0899 H   0  0  0  0  0  0  0  0  0  0  0  0
   -5.8494    2.5880    0.7911 H   0  0  0  0  0  0  0  0  0  0  0  0
   -6.3082    0.8175   -2.3979 H   0  0  0  0  0  0  0  0  0  0  0  0
   -7.9268   -1.1348   -4.1862 H   0  0  0  0  0  0  0  0  0  0  0  0
   -7.9009   -5.7661   -6.7172 H   0  0  0  0  0  0  0  0  0  0  0  0
   -3.2493   -5.0739   -4.7534 H   0  0  0  0  0  0  0  0  0  0  0  0
   -3.6434   -8.2910   -6.1023 H   0  0  0  0  0  0  0  0  0  0  0  0
   -3.8255   -8.1916   -3.3314 H   0  0  0  0  0  0  0  0  0  0  0  0
   -4.0855  -10.7670   -3.9070 H   0  0  0  0  0  0  0  0  0  0  0  0
   -6.4526  -11.1456   -4.9341 H   0  0  0  0  0  0  0  0  0  0  0  0
   -7.7080   -8.8118   -5.0136 H   0  0  0  0  0  0  0  0  0  0  0  0
   -6.2448   -7.0697   -3.5864 H   0  0  0  0  0  0  0  0  0  0  0  0
   -6.3712   -8.6510   -2.7140 H   0  0  0  0  0  0  0  0  0  0  0  0
   -5.8203   -8.6352   -7.0472 H   0  0  0  0  0  0  0  0  0  0  0  0
  1  2  2  3
  2  3  1  0
  3  4  2  0
  3  5  1  0
  5  6  2  0
  6  7  1  0
  7  8  2  0
  8  9  1  0
  9 10  2  0
 10 11  1  0
 11 12  2  3
 12 13  1  0
 13 14  3  0
 12 15  1  0
 15 16  3  0
  8 17  1  0
 17 18  1  0
 18 19  1  0
 19 20  2  0
 20 21  1  0
 21 22  1  0
 21 23  1  0
  1 24  1  0
 24 25  2  0
 25 26  1  0
 26 27  1  0
 27 28  1  0
 28 29  2  0
 29 30  1  0
 30 31  2  0
 31 32  1  0
 32 33  1  0
 31 34  1  0
 34 35  2  0
 27 36  1  0
 36 37  2  0
 37 38  1  0
 38 39  2  0
 39 40  1  0
 40 41  1  0
 39 42  1  0
 42 43  2  0
 27 44  1  0
 44 45  2  0
 45 46  1  0
 46 47  1  0
 45 48  1  0
 48 49  2  0
 49 50  1  0
 50 51  1  0
 51 52  2  0
 52 53  1  0
 53 54  2  0
 54 55  1  0
 55 56  1  0
 54 57  1  0
 57 58  2  0
 50 59  1  0
 59 60  2  0
 60 61  1  0
 61 62  2  0
 62 63  1  0
 63 64  1  0
 62 65  1  0
 65 66  2  0
 50 67  1  0
 67 68  2  0
 68 69  1  0
 69 70  2  0
 68 71  1  0
 71 72  1  0
 72 73  1  0
 73 74  2  0
 74 75  1  0
 75 76  1  0
 76 77  2  0
 77 78  1  0
 78 79  2  0
 79 80  1  0
 80 81  1  0
 79 82  1  0
 82 83  2  0
 75 84  1  0
 74 85  1  0
 85 86  2  0
 86 87  1  0
 86 88  1  0
 88 89  2  3
 89 90  1  0
 90 91  2  0
 90 92  1  0
 92 93  2  0
 93 94  1  0
 94 95  2  0
 95 96  1  0
 96 97  2  0
 97 98  1  0
 98 99  2  3
 99100  1  0
100101  3  0
 99102  1  0
102103  3  0
 95104  1  0
104105  1  0
105106  1  0
106107  2  0
107108  1  0
108109  1  0
108110  1  0
 11  2  1  0
 23 17  1  0
 47 24  1  0
 69 49  1  0
 84 72  2  0
 98 89  1  0
110104  1  0
 10  5  1  0
 22 18  1  0
 46 26  2  0
 58 51  1  0
 66 59  1  0
 84 67  1  0
 97 92  1  0
109105  1  0
 23  7  1  0
 35 28  1  0
 43 36  1  0
 70 44  1  0
 87 73  1  0
110 94  1  0
 83 76  1  0
  1111  1  0
  6112  1  0
  9113  1  0
 17114  1  0
 18115  1  0
 19116  1  0
 20117  1  0
 21118  1  0
 22119  1  0
 22120  1  0
 23121  1  0
 25122  1  0
 29123  1  0
 30124  1  0
 32125  1  0
 32126  1  0
 33127  1  0
 33128  1  0
 33129  1  0
 34130  1  0
 35131  1  0
 37132  1  0
 38133  1  0
 40134  1  0
 40135  1  0
 41136  1  0
 41137  1  0
 41138  1  0
 42139  1  0
 43140  1  0
 48141  1  0
 52142  1  0
 53143  1  0
 55144  1  0
 55145  1  0
 56146  1  0
 56147  1  0
 56148  1  0
 57149  1  0
 58150  1  0
 60151  1  0
 61152  1  0
 63153  1  0
 63154  1  0
 64155  1  0
 64156  1  0
 64157  1  0
 65158  1  0
 66159  1  0
 70160  1  0
 77161  1  0
 78162  1  0
 80163  1  0
 80164  1  0
 81165  1  0
 81166  1  0
 81167  1  0
 82168  1  0
 83169  1  0
 85170  1  0
 88171  1  0
 93172  1  0
 96173  1  0
104174  1  0
105175  1  0
106176  1  0
107177  1  0
108178  1  0
109179  1  0
109180  1  0
110181  1  0
M  END

