
     RDKit          3D

178199  0  0  0  0  0  0  0  0999 V2000
    4.1265   -4.5496    6.8475 C   0  0  0  0  0  0  0  0  0  0  0  0
    3.7584   -3.9040    7.9712 C   0  0  0  0  0  0  0  0  0  0  0  0
    3.3971   -2.4802    7.9746 C   0  0  0  0  0  0  0  0  0  0  0  0
    4.0428   -1.5583    7.4026 O   0  0  0  0  0  0  0  0  0  0  0  0
    2.1632   -2.2945    8.6995 C   0  0  0  0  0  0  0  0  0  0  0  0
    1.3361   -1.1506    8.6757 C   0  0  0  0  0  0  0  0  0  0  0  0
    0.0751   -1.3674    9.1971 C   0  0  0  0  0  0  0  0  0  0  0  0
   -0.3585   -2.6363    9.7063 C   0  0  0  0  0  0  0  0  0  0  0  0
    0.4576   -3.7557    9.7457 C   0  0  0  0  0  0  0  0  0  0  0  0
    1.7698   -3.5438    9.2414 C   0  0  0  0  0  0  0  0  0  0  0  0
    2.8375   -4.5405    8.9553 C   0  0  0  0  0  0  0  0  0  0  0  0
    3.0118   -5.7459    9.5456 C   0  0  0  0  0  0  0  0  0  0  0  0
    2.0984   -6.2621   10.5274 C   0  0  0  0  0  0  0  0  0  0  0  0
    1.3671   -6.6911   11.3172 N   0  0  0  0  0  0  0  0  0  0  0  0
    4.1878   -6.5436    9.2950 C   0  0  0  0  0  0  0  0  0  0  0  0
    5.1265   -7.1876    9.0949 N   0  0  0  0  0  0  0  0  0  0  0  0
   -1.7463   -2.1008    9.9032 C   0  0  0  0  0  0  0  0  0  0  0  0
   -2.8412   -2.5249    8.8763 C   0  0  0  0  0  0  0  0  0  0  0  0
   -2.2155   -2.7749    7.5217 C   0  0  0  0  0  0  0  0  0  0  0  0
   -1.8114   -1.5911    7.0630 C   0  0  0  0  0  0  0  0  0  0  0  0
   -2.1702   -0.5742    8.1241 C   0  0  0  0  0  0  0  0  0  0  0  0
   -3.4810   -1.1769    8.5965 C   0  0  0  0  0  0  0  0  0  0  0  0
   -1.2952   -0.7970    9.3977 C   0  0  0  0  0  0  0  0  0  0  0  0
    3.5937   -4.0893    5.5580 C   0  0  0  0  0  0  0  0  0  0  0  0
    2.0762   -4.6541    4.9909 S   0  0  0  0  0  0  0  0  0  0  0  0
    1.9916   -3.4478    3.8526 C   0  0  0  0  0  0  0  0  0  0  0  0
    1.2124   -3.0362    2.8218 C   0  0  0  0  0  0  0  0  0  0  0  0
   -0.1023   -3.6293    1.9491 S   0  0  0  0  0  0  0  0  0  0  0  0
    0.1788   -2.4205    0.7855 C   0  0  0  0  0  0  0  0  0  0  0  0
   -0.3038   -2.2082   -0.5436 C   0  0  0  0  0  0  0  0  0  0  0  0
   -1.4643   -2.6960   -1.1583 C   0  0  0  0  0  0  0  0  0  0  0  0
   -1.7248   -2.2516   -2.4680 C   0  0  0  0  0  0  0  0  0  0  0  0
   -3.0160   -2.3850   -3.2695 C   0  0  0  0  0  0  0  0  0  0  0  0
   -3.2598   -3.8707   -3.5515 C   0  0  0  0  0  0  0  0  0  0  0  0
   -3.8153   -4.6898   -2.5453 C   0  0  0  0  0  0  0  0  0  0  0  0
   -3.9794   -6.0595   -2.7446 C   0  0  0  0  0  0  0  0  0  0  0  0
   -3.6014   -6.6469   -3.9582 C   0  0  0  0  0  0  0  0  0  0  0  0
   -3.7527   -8.1317   -4.1554 C   0  0  0  0  0  0  0  0  0  0  0  0
   -2.4669   -8.8582   -3.7754 C   0  0  0  0  0  0  0  0  0  0  0  0
   -3.0169   -5.8531   -4.9547 C   0  0  0  0  0  0  0  0  0  0  0  0
   -2.8427   -4.4798   -4.7541 C   0  0  0  0  0  0  0  0  0  0  0  0
   -4.1978   -1.6823   -2.5812 C   0  0  0  0  0  0  0  0  0  0  0  0
   -3.9959   -0.5398   -1.7736 C   0  0  0  0  0  0  0  0  0  0  0  0
   -5.0777    0.1735   -1.2507 C   0  0  0  0  0  0  0  0  0  0  0  0
   -6.3919   -0.2188   -1.5454 C   0  0  0  0  0  0  0  0  0  0  0  0
   -7.5563    0.5461   -0.9722 C   0  0  0  0  0  0  0  0  0  0  0  0
   -7.7820    0.1811    0.4924 C   0  0  0  0  0  0  0  0  0  0  0  0
   -6.6062   -1.3362   -2.3627 C   0  0  0  0  0  0  0  0  0  0  0  0
   -5.5249   -2.0414   -2.8956 C   0  0  0  0  0  0  0  0  0  0  0  0
   -2.6375   -1.5668   -4.4918 C   0  0  0  0  0  0  0  0  0  0  0  0
   -1.3771   -1.0575   -4.3809 C   0  0  0  0  0  0  0  0  0  0  0  0
   -0.8179   -1.4069   -3.1124 C   0  0  0  0  0  0  0  0  0  0  0  0
    0.2774   -0.8383   -2.4582 C   0  0  0  0  0  0  0  0  0  0  0  0
    0.5174   -1.2518   -1.1396 C   0  0  0  0  0  0  0  0  0  0  0  0
    1.5240   -0.6692   -0.1437 C   0  0  0  0  0  0  0  0  0  0  0  0
    1.0612    0.7428    0.2878 C   0  0  0  0  0  0  0  0  0  0  0  0
    1.9634    1.7968    0.5450 C   0  0  0  0  0  0  0  0  0  0  0  0
    1.5151    3.0233    1.0413 C   0  0  0  0  0  0  0  0  0  0  0  0
    0.1544    3.2444    1.2833 C   0  0  0  0  0  0  0  0  0  0  0  0
   -0.3136    4.5267    1.9202 C   0  0  0  0  0  0  0  0  0  0  0  0
   -0.3688    4.3724    3.4382 C   0  0  0  0  0  0  0  0  0  0  0  0
   -0.7569    2.2138    1.0321 C   0  0  0  0  0  0  0  0  0  0  0  0
   -0.3129    0.9824    0.5485 C   0  0  0  0  0  0  0  0  0  0  0  0
    2.9197   -0.7723   -0.7714 C   0  0  0  0  0  0  0  0  0  0  0  0
    3.7230   -1.9147   -0.5979 C   0  0  0  0  0  0  0  0  0  0  0  0
    4.9890   -1.9989   -1.1887 C   0  0  0  0  0  0  0  0  0  0  0  0
    5.4519   -0.9722   -2.0296 C   0  0  0  0  0  0  0  0  0  0  0  0
    6.8259   -1.0375   -2.6374 C   0  0  0  0  0  0  0  0  0  0  0  0
    7.7282    0.0591   -2.0749 C   0  0  0  0  0  0  0  0  0  0  0  0
    4.6058    0.1109   -2.3043 C   0  0  0  0  0  0  0  0  0  0  0  0
    3.3534    0.2004   -1.6999 C   0  0  0  0  0  0  0  0  0  0  0  0
    1.2763   -1.6195    1.0185 C   0  0  0  0  0  0  0  0  0  0  0  0
    1.8690   -1.9836    2.2360 C   0  0  0  0  0  0  0  0  0  0  0  0
    3.0483   -1.7149    2.8746 N   0  0  0  0  0  0  0  0  0  0  0  0
    3.0832   -2.6523    3.8561 C   0  0  0  0  0  0  0  0  0  0  0  0
    4.0396   -2.9792    4.8150 C   0  0  0  0  0  0  0  0  0  0  0  0
    4.1445   -0.8945    2.4652 C   0  0  0  0  0  0  0  0  0  0  0  0
    5.3630   -1.3748    2.0098 C   0  0  0  0  0  0  0  0  0  0  0  0
    6.2779   -0.3512    1.7361 C   0  0  0  0  0  0  0  0  0  0  0  0
    5.7767    0.9167    2.0104 C   0  0  0  0  0  0  0  0  0  0  0  0
    6.5374    2.1977    1.8595 C   0  0  0  0  0  0  0  0  0  0  0  0
    7.3649    2.4805    3.1059 C   0  0  0  0  0  0  0  0  0  0  0  0
    4.2247    0.7713    2.6508 S   0  0  0  0  0  0  0  0  0  0  0  0
   -1.1798    0.2914   -5.3344 S   0  0  0  0  0  0  0  0  0  0  0  0
   -2.7534    0.2031   -5.9709 C   0  0  0  0  0  0  0  0  0  0  0  0
   -3.4367   -0.8831   -5.4178 C   0  0  0  0  0  0  0  0  0  0  0  0
   -3.3080    1.1616   -6.9431 C   0  0  0  0  0  0  0  0  0  0  0  0
   -3.0447    2.4813   -6.8932 C   0  0  0  0  0  0  0  0  0  0  0  0
   -2.6302    3.2144   -5.6876 C   0  0  0  0  0  0  0  0  0  0  0  0
   -2.5974    2.7590   -4.5132 O   0  0  0  0  0  0  0  0  0  0  0  0
   -2.5028    4.6135   -6.0155 C   0  0  0  0  0  0  0  0  0  0  0  0
   -1.9732    5.6264   -5.1804 C   0  0  0  0  0  0  0  0  0  0  0  0
   -1.8147    6.8424   -5.8117 C   0  0  0  0  0  0  0  0  0  0  0  0
   -2.1600    7.0594   -7.1838 C   0  0  0  0  0  0  0  0  0  0  0  0
   -2.6901    6.0775   -8.0019 C   0  0  0  0  0  0  0  0  0  0  0  0
   -2.8808    4.8143   -7.3674 C   0  0  0  0  0  0  0  0  0  0  0  0
   -3.2647    3.5060   -7.9648 C   0  0  0  0  0  0  0  0  0  0  0  0
   -3.6457    3.2870   -9.2494 C   0  0  0  0  0  0  0  0  0  0  0  0
   -4.1321    4.3436  -10.0970 C   0  0  0  0  0  0  0  0  0  0  0  0
   -4.5303    5.1923  -10.7784 N   0  0  0  0  0  0  0  0  0  0  0  0
   -3.5473    1.9935   -9.8685 C   0  0  0  0  0  0  0  0  0  0  0  0
   -3.4456    0.9613  -10.3808 N   0  0  0  0  0  0  0  0  0  0  0  0
   -1.6544    8.4712   -7.1049 C   0  0  0  0  0  0  0  0  0  0  0  0
   -0.2863    8.7925   -7.7802 C   0  0  0  0  0  0  0  0  0  0  0  0
    0.6046    7.5716   -7.7540 C   0  0  0  0  0  0  0  0  0  0  0  0
    0.9247    7.3605   -6.4765 C   0  0  0  0  0  0  0  0  0  0  0  0
    0.2434    8.4483   -5.6783 C   0  0  0  0  0  0  0  0  0  0  0  0
    0.3693    9.5912   -6.6709 C   0  0  0  0  0  0  0  0  0  0  0  0
   -1.3015    8.2458   -5.6994 C   0  0  0  0  0  0  0  0  0  0  0  0
    4.2184   -5.6252    6.8926 H   0  0  0  0  0  0  0  0  0  0  0  0
    1.6154   -0.2253    8.1892 H   0  0  0  0  0  0  0  0  0  0  0  0
    0.0660   -4.7168   10.0403 H   0  0  0  0  0  0  0  0  0  0  0  0
   -2.0802   -2.0801   10.9603 H   0  0  0  0  0  0  0  0  0  0  0  0
   -3.5408   -3.3177    9.2217 H   0  0  0  0  0  0  0  0  0  0  0  0
   -2.1614   -3.7175    6.9874 H   0  0  0  0  0  0  0  0  0  0  0  0
   -1.3730   -1.4009    6.0898 H   0  0  0  0  0  0  0  0  0  0  0  0
   -2.2297    0.4767    7.7678 H   0  0  0  0  0  0  0  0  0  0  0  0
   -4.2674   -1.2103    7.7975 H   0  0  0  0  0  0  0  0  0  0  0  0
   -3.8962   -0.6793    9.5071 H   0  0  0  0  0  0  0  0  0  0  0  0
   -1.3417    0.0224   10.1484 H   0  0  0  0  0  0  0  0  0  0  0  0
   -2.1525   -3.3319   -0.6232 H   0  0  0  0  0  0  0  0  0  0  0  0
   -4.1201   -4.2683   -1.5968 H   0  0  0  0  0  0  0  0  0  0  0  0
   -4.4046   -6.6647   -1.9529 H   0  0  0  0  0  0  0  0  0  0  0  0
   -4.5889   -8.5204   -3.5341 H   0  0  0  0  0  0  0  0  0  0  0  0
   -4.0000   -8.3522   -5.2158 H   0  0  0  0  0  0  0  0  0  0  0  0
   -2.6227   -9.9549   -3.8536 H   0  0  0  0  0  0  0  0  0  0  0  0
   -2.1736   -8.6158   -2.7288 H   0  0  0  0  0  0  0  0  0  0  0  0
   -1.6401   -8.5651   -4.4567 H   0  0  0  0  0  0  0  0  0  0  0  0
   -2.6862   -6.3011   -5.8841 H   0  0  0  0  0  0  0  0  0  0  0  0
   -2.3697   -3.9080   -5.5368 H   0  0  0  0  0  0  0  0  0  0  0  0
   -2.9979   -0.1783   -1.5561 H   0  0  0  0  0  0  0  0  0  0  0  0
   -4.8880    1.0384   -0.6245 H   0  0  0  0  0  0  0  0  0  0  0  0
   -7.3644    1.6367   -1.0564 H   0  0  0  0  0  0  0  0  0  0  0  0
   -8.4826    0.3257   -1.5466 H   0  0  0  0  0  0  0  0  0  0  0  0
   -8.0209   -0.9005    0.5875 H   0  0  0  0  0  0  0  0  0  0  0  0
   -8.6347    0.7707    0.8920 H   0  0  0  0  0  0  0  0  0  0  0  0
   -6.8788    0.4148    1.0936 H   0  0  0  0  0  0  0  0  0  0  0  0
   -7.6144   -1.6487   -2.6081 H   0  0  0  0  0  0  0  0  0  0  0  0
   -5.7303   -2.8646   -3.5676 H   0  0  0  0  0  0  0  0  0  0  0  0
    0.8747   -0.0729   -2.9372 H   0  0  0  0  0  0  0  0  0  0  0  0
    3.0206    1.6800    0.3827 H   0  0  0  0  0  0  0  0  0  0  0  0
    2.2415    3.8043    1.2540 H   0  0  0  0  0  0  0  0  0  0  0  0
    0.3718    5.3606    1.6613 H   0  0  0  0  0  0  0  0  0  0  0  0
   -1.3256    4.7921    1.5427 H   0  0  0  0  0  0  0  0  0  0  0  0
   -1.0491    3.5369    3.7111 H   0  0  0  0  0  0  0  0  0  0  0  0
   -0.7562    5.3059    3.8976 H   0  0  0  0  0  0  0  0  0  0  0  0
    0.6444    4.1646    3.8421 H   0  0  0  0  0  0  0  0  0  0  0  0
   -1.8142    2.3524    1.2340 H   0  0  0  0  0  0  0  0  0  0  0  0
   -1.0554    0.2090    0.4048 H   0  0  0  0  0  0  0  0  0  0  0  0
    3.3952   -2.7422    0.0142 H   0  0  0  0  0  0  0  0  0  0  0  0
    5.6095   -2.8660   -0.9888 H   0  0  0  0  0  0  0  0  0  0  0  0
    6.7426   -0.9143   -3.7397 H   0  0  0  0  0  0  0  0  0  0  0  0
    7.2949   -2.0253   -2.4424 H   0  0  0  0  0  0  0  0  0  0  0  0
    7.7887   -0.0124   -0.9683 H   0  0  0  0  0  0  0  0  0  0  0  0
    8.7505   -0.0478   -2.4927 H   0  0  0  0  0  0  0  0  0  0  0  0
    7.3369    1.0639   -2.3495 H   0  0  0  0  0  0  0  0  0  0  0  0
    4.9176    0.8898   -2.9926 H   0  0  0  0  0  0  0  0  0  0  0  0
    2.7251    1.0478   -1.9479 H   0  0  0  0  0  0  0  0  0  0  0  0
    4.9528   -2.4275    4.9979 H   0  0  0  0  0  0  0  0  0  0  0  0
    5.5824   -2.4251    1.8696 H   0  0  0  0  0  0  0  0  0  0  0  0
    7.2716   -0.5334    1.3551 H   0  0  0  0  0  0  0  0  0  0  0  0
    5.8224    3.0339    1.6861 H   0  0  0  0  0  0  0  0  0  0  0  0
    7.2077    2.1288    0.9775 H   0  0  0  0  0  0  0  0  0  0  0  0
    7.9479    3.4133    2.9586 H   0  0  0  0  0  0  0  0  0  0  0  0
    6.7044    2.6049    3.9891 H   0  0  0  0  0  0  0  0  0  0  0  0
    8.0748    1.6442    3.2874 H   0  0  0  0  0  0  0  0  0  0  0  0
   -4.4924   -1.0792   -5.5758 H   0  0  0  0  0  0  0  0  0  0  0  0
   -3.9085    0.7389   -7.7352 H   0  0  0  0  0  0  0  0  0  0  0  0
   -1.6583    5.4515   -4.1604 H   0  0  0  0  0  0  0  0  0  0  0  0
   -2.8625    6.2706   -9.0476 H   0  0  0  0  0  0  0  0  0  0  0  0
   -2.4424    9.2428   -7.2484 H   0  0  0  0  0  0  0  0  0  0  0  0
   -0.3489    9.3050   -8.7630 H   0  0  0  0  0  0  0  0  0  0  0  0
    0.9817    7.0186   -8.6098 H   0  0  0  0  0  0  0  0  0  0  0  0
    1.6135    6.6061   -6.1124 H   0  0  0  0  0  0  0  0  0  0  0  0
    0.6851    8.6398   -4.6779 H   0  0  0  0  0  0  0  0  0  0  0  0
   -0.1993   10.5030   -6.3742 H   0  0  0  0  0  0  0  0  0  0  0  0
    1.4298    9.8674   -6.8912 H   0  0  0  0  0  0  0  0  0  0  0  0
   -1.8705    8.8804   -4.9827 H   0  0  0  0  0  0  0  0  0  0  0  0
  1  2  2  3
  2  3  1  0
  3  4  2  0
  3  5  1  0
  5  6  2  0
  6  7  1  0
  7  8  2  0
  8  9  1  0
  9 10  2  0
 10 11  1  0
 11 12  2  3
 12 13  1  0
 13 14  3  0
 12 15  1  0
 15 16  3  0
  8 17  1  0
 17 18  1  0
 18 19  1  0
 19 20  2  0
 20 21  1  0
 21 22  1  0
 21 23  1  0
  1 24  1  0
 24 25  1  0
 25 26  1  0
 26 27  1  0
 27 28  1  0
 28 29  1  0
 29 30  1  0
 30 31  2  0
 31 32  1  0
 32 33  1  0
 33 34  1  0
 34 35  2  0
 35 36  1  0
 36 37  2  0
 37 38  1  0
 38 39  1  0
 37 40  1  0
 40 41  2  0
 33 42  1  0
 42 43  2  0
 43 44  1  0
 44 45  2  0
 45 46  1  0
 46 47  1  0
 45 48  1  0
 48 49  2  0
 33 50  1  0
 50 51  2  0
 51 52  1  0
 52 53  1  0
 53 54  2  0
 54 55  1  0
 55 56  1  0
 56 57  2  0
 57 58  1  0
 58 59  2  0
 59 60  1  0
 60 61  1  0
 59 62  1  0
 62 63  2  0
 55 64  1  0
 64 65  2  0
 65 66  1  0
 66 67  2  0
 67 68  1  0
 68 69  1  0
 67 70  1  0
 70 71  2  0
 55 72  1  0
 72 73  1  0
 73 74  1  0
 74 75  1  0
 75 76  1  0
 74 77  1  0
 77 78  2  0
 78 79  1  0
 79 80  2  0
 80 81  1  0
 81 82  1  0
 80 83  1  0
 51 84  1  0
 84 85  1  0
 85 86  2  0
 85 87  1  0
 87 88  2  3
 88 89  1  0
 89 90  2  0
 89 91  1  0
 91 92  2  0
 92 93  1  0
 93 94  2  0
 94 95  1  0
 95 96  2  0
 96 97  1  0
 97 98  2  3
 98 99  1  0
 99100  3  0
 98101  1  0
101102  3  0
 94103  1  0
103104  1  0
104105  1  0
105106  2  0
106107  1  0
107108  1  0
107109  1  0
 11  2  1  0
 23 17  1  0
 76 24  2  0
 83 77  1  0
 97 88  1  0
109103  1  0
 10  5  1  0
 22 18  1  0
 75 26  2  0
 96 91  1  0
108104  1  0
 23  7  1  0
 73 27  2  0
109 93  1  0
 72 29  2  0
 54 30  1  0
 63 56  1  0
 71 64  1  0
 52 32  2  0
 41 34  1  0
 49 42  1  0
 86 50  1  0
  1110  1  0
  6111  1  0
  9112  1  0
 17113  1  0
 18114  1  0
 19115  1  0
 20116  1  0
 21117  1  0
 22118  1  0
 22119  1  0
 23120  1  0
 31121  1  0
 35122  1  0
 36123  1  0
 38124  1  0
 38125  1  0
 39126  1  0
 39127  1  0
 39128  1  0
 40129  1  0
 41130  1  0
 43131  1  0
 44132  1  0
 46133  1  0
 46134  1  0
 47135  1  0
 47136  1  0
 47137  1  0
 48138  1  0
 49139  1  0
 53140  1  0
 57141  1  0
 58142  1  0
 60143  1  0
 60144  1  0
 61145  1  0
 61146  1  0
 61147  1  0
 62148  1  0
 63149  1  0
 65150  1  0
 66151  1  0
 68152  1  0
 68153  1  0
 69154  1  0
 69155  1  0
 69156  1  0
 70157  1  0
 71158  1  0
 76159  1  0
 78160  1  0
 79161  1  0
 81162  1  0
 81163  1  0
 82164  1  0
 82165  1  0
 82166  1  0
 86167  1  0
 87168  1  0
 92169  1  0
 95170  1  0
103171  1  0
104172  1  0
105173  1  0
106174  1  0
107175  1  0
108176  1  0
108177  1  0
109178  1  0
M  END

