
     RDKit          3D

168187  0  0  0  0  0  0  0  0999 V2000
   -4.0317    5.6350    2.8612 C   0  0  0  0  0  0  0  0  0  0  0  0
   -3.5075    6.6505    2.1525 C   0  0  0  0  0  0  0  0  0  0  0  0
   -3.5209    6.6721    0.6814 C   0  0  0  0  0  0  0  0  0  0  0  0
   -4.3765    6.0923   -0.0391 O   0  0  0  0  0  0  0  0  0  0  0  0
   -2.3091    7.3268    0.1913 C   0  0  0  0  0  0  0  0  0  0  0  0
   -1.9224    7.5724   -1.1549 C   0  0  0  0  0  0  0  0  0  0  0  0
   -0.6461    8.1004   -1.2686 C   0  0  0  0  0  0  0  0  0  0  0  0
    0.1855    8.4366   -0.1325 C   0  0  0  0  0  0  0  0  0  0  0  0
   -0.2277    8.2738    1.1816 C   0  0  0  0  0  0  0  0  0  0  0  0
   -1.5185    7.6822    1.3162 C   0  0  0  0  0  0  0  0  0  0  0  0
   -2.2673    7.3832    2.5589 C   0  0  0  0  0  0  0  0  0  0  0  0
   -1.7797    7.3948    3.8122 C   0  0  0  0  0  0  0  0  0  0  0  0
   -2.6483    7.8796    4.8812 C   0  0  0  0  0  0  0  0  0  0  0  0
   -3.3525    8.3164    5.6913 N   0  0  0  0  0  0  0  0  0  0  0  0
   -0.4331    6.9543    4.1371 C   0  0  0  0  0  0  0  0  0  0  0  0
    0.6359    6.5905    4.3876 N   0  0  0  0  0  0  0  0  0  0  0  0
    1.3327    8.7538   -1.0478 C   0  0  0  0  0  0  0  0  0  0  0  0
    1.7569   10.2433   -1.2704 C   0  0  0  0  0  0  0  0  0  0  0  0
    0.5673   11.1603   -1.1079 C   0  0  0  0  0  0  0  0  0  0  0  0
   -0.2445   10.8834   -2.1243 C   0  0  0  0  0  0  0  0  0  0  0  0
    0.4208    9.8228   -2.9674 C   0  0  0  0  0  0  0  0  0  0  0  0
    1.8636   10.2500   -2.7885 C   0  0  0  0  0  0  0  0  0  0  0  0
    0.4796    8.4603   -2.2070 C   0  0  0  0  0  0  0  0  0  0  0  0
   -3.5044    4.2539    2.6427 C   0  0  0  0  0  0  0  0  0  0  0  0
   -1.9582    3.7392    3.1742 S   0  0  0  0  0  0  0  0  0  0  0  0
   -2.2754    2.1050    2.9358 C   0  0  0  0  0  0  0  0  0  0  0  0
   -1.6406    0.8868    2.8804 C   0  0  0  0  0  0  0  0  0  0  0  0
    0.0254    0.5903    2.8904 S   0  0  0  0  0  0  0  0  0  0  0  0
   -0.1148   -0.0855    1.3755 C   0  0  0  0  0  0  0  0  0  0  0  0
    0.5218   -1.2478    0.8297 C   0  0  0  0  0  0  0  0  0  0  0  0
    1.6596   -1.9211    1.2974 C   0  0  0  0  0  0  0  0  0  0  0  0
    2.2553   -2.8468    0.4176 C   0  0  0  0  0  0  0  0  0  0  0  0
    3.7436   -3.2213    0.3600 C   0  0  0  0  0  0  0  0  0  0  0  0
    4.5447   -1.8995    0.5224 C   0  0  0  0  0  0  0  0  0  0  0  0
    4.1194   -0.7109   -0.1393 C   0  0  0  0  0  0  0  0  0  0  0  0
    4.7631    0.5225    0.0787 C   0  0  0  0  0  0  0  0  0  0  0  0
    5.9059    0.5871    0.8761 C   0  0  0  0  0  0  0  0  0  0  0  0
    6.7295    1.8436    0.9120 C   0  0  0  0  0  0  0  0  0  0  0  0
    8.0486    1.6033    0.1953 C   0  0  0  0  0  0  0  0  0  0  0  0
    6.3582   -0.5622    1.5397 C   0  0  0  0  0  0  0  0  0  0  0  0
    5.6765   -1.7713    1.3851 C   0  0  0  0  0  0  0  0  0  0  0  0
    4.0808   -4.2811    1.4327 C   0  0  0  0  0  0  0  0  0  0  0  0
    3.1725   -4.6273    2.4590 C   0  0  0  0  0  0  0  0  0  0  0  0
    3.6294   -5.2546    3.6230 C   0  0  0  0  0  0  0  0  0  0  0  0
    5.0006   -5.5198    3.7801 C   0  0  0  0  0  0  0  0  0  0  0  0
    5.5880   -5.7744    5.1463 C   0  0  0  0  0  0  0  0  0  0  0  0
    6.3143   -7.1144    5.2342 C   0  0  0  0  0  0  0  0  0  0  0  0
    5.8400   -5.4112    2.6662 C   0  0  0  0  0  0  0  0  0  0  0  0
    5.3800   -4.8190    1.4876 C   0  0  0  0  0  0  0  0  0  0  0  0
    3.7887   -3.8663   -1.0408 C   0  0  0  0  0  0  0  0  0  0  0  0
    2.5582   -3.8673   -1.5927 C   0  0  0  0  0  0  0  0  0  0  0  0
    1.6010   -3.2252   -0.7386 C   0  0  0  0  0  0  0  0  0  0  0  0
    0.4112   -2.6195   -1.1406 C   0  0  0  0  0  0  0  0  0  0  0  0
   -0.1051   -1.5579   -0.3603 C   0  0  0  0  0  0  0  0  0  0  0  0
   -0.8913   -0.3186   -0.8030 C   0  0  0  0  0  0  0  0  0  0  0  0
    0.4050    0.3267   -1.8773 C   0  0  0  0  0  0  0  0  0  0  0  0
    0.2466   -0.2095   -3.1617 C   0  0  0  0  0  0  0  0  0  0  0  0
   -0.4289    0.5677   -4.1094 C   0  0  0  0  0  0  0  0  0  0  0  0
   -0.2281    1.9439   -4.0647 C   0  0  0  0  0  0  0  0  0  0  0  0
   -1.1818    2.9578   -4.6196 C   0  0  0  0  0  0  0  0  0  0  0  0
   -1.9784    3.5764   -3.4592 C   0  0  0  0  0  0  0  0  0  0  0  0
    0.9089    2.3847   -3.3509 C   0  0  0  0  0  0  0  0  0  0  0  0
    1.3731    1.5196   -2.2913 C   0  0  0  0  0  0  0  0  0  0  0  0
   -2.2153   -0.7331   -1.5954 C   0  0  0  0  0  0  0  0  0  0  0  0
   -2.2634   -1.5837   -2.7513 C   0  0  0  0  0  0  0  0  0  0  0  0
   -3.4484   -1.9251   -3.4078 C   0  0  0  0  0  0  0  0  0  0  0  0
   -4.6818   -1.7023   -2.7930 C   0  0  0  0  0  0  0  0  0  0  0  0
   -5.9786   -2.2921   -3.3328 C   0  0  0  0  0  0  0  0  0  0  0  0
   -5.8557   -3.2375   -4.5456 C   0  0  0  0  0  0  0  0  0  0  0  0
   -4.6915   -0.9241   -1.6337 C   0  0  0  0  0  0  0  0  0  0  0  0
   -3.4978   -0.4622   -1.0604 C   0  0  0  0  0  0  0  0  0  0  0  0
   -1.3520    0.1483    0.7791 C   0  0  0  0  0  0  0  0  0  0  0  0
   -2.4247    0.1541    1.9659 C   0  0  0  0  0  0  0  0  0  0  0  0
   -3.8887    0.6153    2.2266 N   0  0  0  0  0  0  0  0  0  0  0  0
   -3.5267    1.9238    2.4309 C   0  0  0  0  0  0  0  0  0  0  0  0
   -4.2457    3.1381    2.2330 C   0  0  0  0  0  0  0  0  0  0  0  0
   -4.8209   -0.0540    3.2509 C   0  0  0  0  0  0  0  0  0  0  0  0
   -4.8877   -1.5686    3.3376 C   0  0  0  0  0  0  0  0  0  0  0  0
   -5.9108   -1.7753    2.4834 C   0  0  0  0  0  0  0  0  0  0  0  0
   -6.7477   -3.2508    2.1507 S   0  0  0  0  0  0  0  0  0  0  0  0
   -8.2955   -2.5627    1.8634 C   0  0  0  0  0  0  0  0  0  0  0  0
   -9.6236   -3.2412    2.0990 C   0  0  0  0  0  0  0  0  0  0  0  0
   -9.7506   -3.6990    3.5716 C   0  0  0  0  0  0  0  0  0  0  0  0
   -8.1202   -1.1646    2.0855 C   0  0  0  0  0  0  0  0  0  0  0  0
   -6.8803   -0.8767    2.7904 C   0  0  0  0  0  0  0  0  0  0  0  0
   -6.7100    0.7222    3.7775 S   0  0  0  0  0  0  0  0  0  0  0  0
    2.3587   -5.0646   -2.7353 S   0  0  0  0  0  0  0  0  0  0  0  0
    4.0084   -5.4966   -2.7328 C   0  0  0  0  0  0  0  0  0  0  0  0
    4.6537   -4.7657   -1.7001 C   0  0  0  0  0  0  0  0  0  0  0  0
    4.6427   -6.6589   -3.4573 C   0  0  0  0  0  0  0  0  0  0  0  0
    3.9628   -7.8219   -3.4693 C   0  0  0  0  0  0  0  0  0  0  0  0
    4.1739   -8.7432   -2.3370 C   0  0  0  0  0  0  0  0  0  0  0  0
    5.2831   -8.9392   -1.7701 O   0  0  0  0  0  0  0  0  0  0  0  0
    2.8882   -9.2907   -1.9095 C   0  0  0  0  0  0  0  0  0  0  0  0
    2.5776   -9.7023   -0.6016 C   0  0  0  0  0  0  0  0  0  0  0  0
    3.8321  -10.2835    0.5019 Cl  0  0  0  0  0  0  0  0  0  0  0  0
    1.2481   -9.5906   -0.1540 C   0  0  0  0  0  0  0  0  0  0  0  0
    0.8288  -10.0968    1.4914 Cl  0  0  0  0  0  0  0  0  0  0  0  0
    0.2875   -8.9201   -0.9526 C   0  0  0  0  0  0  0  0  0  0  0  0
   -1.3302   -8.6185   -0.3109 Cl  0  0  0  0  0  0  0  0  0  0  0  0
    0.6339   -8.4698   -2.2498 C   0  0  0  0  0  0  0  0  0  0  0  0
   -0.4848   -7.4197   -3.1335 Cl  0  0  0  0  0  0  0  0  0  0  0  0
    1.9180   -8.7494   -2.7526 C   0  0  0  0  0  0  0  0  0  0  0  0
    2.5444   -8.0378   -3.8804 C   0  0  0  0  0  0  0  0  0  0  0  0
    2.1830   -8.1464   -5.1888 C   0  0  0  0  0  0  0  0  0  0  0  0
    2.8654   -7.3885   -6.2070 C   0  0  0  0  0  0  0  0  0  0  0  0
    3.3804   -6.7466   -7.0205 N   0  0  0  0  0  0  0  0  0  0  0  0
    1.0774   -8.9461   -5.6066 C   0  0  0  0  0  0  0  0  0  0  0  0
    0.1590   -9.6023   -5.9289 N   0  0  0  0  0  0  0  0  0  0  0  0
   -4.1712    5.7934    3.9182 H   0  0  0  0  0  0  0  0  0  0  0  0
   -2.4861    7.2181   -2.0059 H   0  0  0  0  0  0  0  0  0  0  0  0
    0.4124    8.4859    2.0225 H   0  0  0  0  0  0  0  0  0  0  0  0
    2.1953    8.0539   -0.9314 H   0  0  0  0  0  0  0  0  0  0  0  0
    2.6716   10.5463   -0.7111 H   0  0  0  0  0  0  0  0  0  0  0  0
    0.4101   11.8900   -0.3187 H   0  0  0  0  0  0  0  0  0  0  0  0
   -1.1660   11.4069   -2.3413 H   0  0  0  0  0  0  0  0  0  0  0  0
    0.0343    9.7902   -4.0254 H   0  0  0  0  0  0  0  0  0  0  0  0
    2.0898   11.2621   -3.2134 H   0  0  0  0  0  0  0  0  0  0  0  0
    2.6170    9.5274   -3.1663 H   0  0  0  0  0  0  0  0  0  0  0  0
    0.7952    7.6017   -2.8411 H   0  0  0  0  0  0  0  0  0  0  0  0
    2.1355   -1.6375    2.2257 H   0  0  0  0  0  0  0  0  0  0  0  0
    3.2625   -0.7214   -0.8024 H   0  0  0  0  0  0  0  0  0  0  0  0
    4.3424    1.4156   -0.3690 H   0  0  0  0  0  0  0  0  0  0  0  0
    6.1826    2.6647    0.3829 H   0  0  0  0  0  0  0  0  0  0  0  0
    6.9007    2.1849    1.9634 H   0  0  0  0  0  0  0  0  0  0  0  0
    8.5937    2.5638    0.0754 H   0  0  0  0  0  0  0  0  0  0  0  0
    7.8645    1.1696   -0.8121 H   0  0  0  0  0  0  0  0  0  0  0  0
    8.6876    0.8888    0.7586 H   0  0  0  0  0  0  0  0  0  0  0  0
    7.2501   -0.5486    2.1531 H   0  0  0  0  0  0  0  0  0  0  0  0
    6.1150   -2.5958    1.9065 H   0  0  0  0  0  0  0  0  0  0  0  0
    2.1213   -4.3731    2.4012 H   0  0  0  0  0  0  0  0  0  0  0  0
    2.9241   -5.4345    4.4169 H   0  0  0  0  0  0  0  0  0  0  0  0
    4.7905   -5.7390    5.9237 H   0  0  0  0  0  0  0  0  0  0  0  0
    6.3055   -4.9543    5.3831 H   0  0  0  0  0  0  0  0  0  0  0  0
    5.6281   -7.9560    4.9838 H   0  0  0  0  0  0  0  0  0  0  0  0
    6.6913   -7.2507    6.2716 H   0  0  0  0  0  0  0  0  0  0  0  0
    7.1889   -7.1408    4.5427 H   0  0  0  0  0  0  0  0  0  0  0  0
    6.8900   -5.6612    2.7528 H   0  0  0  0  0  0  0  0  0  0  0  0
    6.0943   -4.5967    0.7112 H   0  0  0  0  0  0  0  0  0  0  0  0
    0.0525   -2.8752   -2.1235 H   0  0  0  0  0  0  0  0  0  0  0  0
    0.4621   -1.2316   -3.3822 H   0  0  0  0  0  0  0  0  0  0  0  0
   -1.0098    0.1253   -4.9170 H   0  0  0  0  0  0  0  0  0  0  0  0
   -0.6174    3.7546   -5.1622 H   0  0  0  0  0  0  0  0  0  0  0  0
   -1.8842    2.4874   -5.3302 H   0  0  0  0  0  0  0  0  0  0  0  0
   -2.8366    4.1593   -3.8308 H   0  0  0  0  0  0  0  0  0  0  0  0
   -2.3723    2.7908   -2.7854 H   0  0  0  0  0  0  0  0  0  0  0  0
   -1.3340    4.2418   -2.8361 H   0  0  0  0  0  0  0  0  0  0  0  0
    1.2265    3.4439   -3.4183 H   0  0  0  0  0  0  0  0  0  0  0  0
    2.4941    1.5141   -2.5039 H   0  0  0  0  0  0  0  0  0  0  0  0
   -1.4240   -1.9691   -3.2652 H   0  0  0  0  0  0  0  0  0  0  0  0
   -3.3692   -2.4893   -4.3236 H   0  0  0  0  0  0  0  0  0  0  0  0
   -6.6895   -1.4506   -3.5585 H   0  0  0  0  0  0  0  0  0  0  0  0
   -6.4207   -2.9021   -2.5199 H   0  0  0  0  0  0  0  0  0  0  0  0
   -5.2557   -2.8446   -5.3987 H   0  0  0  0  0  0  0  0  0  0  0  0
   -6.8750   -3.4107   -4.9614 H   0  0  0  0  0  0  0  0  0  0  0  0
   -5.4244   -4.2070   -4.2144 H   0  0  0  0  0  0  0  0  0  0  0  0
   -5.6299   -0.7023   -1.1337 H   0  0  0  0  0  0  0  0  0  0  0  0
   -3.6172    0.2751   -0.2862 H   0  0  0  0  0  0  0  0  0  0  0  0
   -5.2520    3.1817    1.8408 H   0  0  0  0  0  0  0  0  0  0  0  0
   -3.9758   -2.3221    2.9828 H   0  0  0  0  0  0  0  0  0  0  0  0
   -9.7634   -4.1107    1.4125 H   0  0  0  0  0  0  0  0  0  0  0  0
  -10.4404   -2.5238    1.8552 H   0  0  0  0  0  0  0  0  0  0  0  0
   -9.1471   -3.0538    4.2568 H   0  0  0  0  0  0  0  0  0  0  0  0
  -10.8228   -3.6965    3.9021 H   0  0  0  0  0  0  0  0  0  0  0  0
   -9.3820   -4.7397    3.6917 H   0  0  0  0  0  0  0  0  0  0  0  0
   -8.9914   -0.4896    2.1167 H   0  0  0  0  0  0  0  0  0  0  0  0
    5.7385   -4.8925   -1.5178 H   0  0  0  0  0  0  0  0  0  0  0  0
    5.7023   -6.7570   -3.2802 H   0  0  0  0  0  0  0  0  0  0  0  0
  1  2  2  3
  2  3  1  0
  3  4  2  0
  3  5  1  0
  5  6  2  0
  6  7  1  0
  7  8  2  0
  8  9  1  0
  9 10  2  0
 10 11  1  0
 11 12  2  3
 12 13  1  0
 13 14  3  0
 12 15  1  0
 15 16  3  0
  8 17  1  0
 17 18  1  0
 18 19  1  0
 19 20  2  0
 20 21  1  0
 21 22  1  0
 21 23  1  0
  1 24  1  0
 24 25  1  0
 25 26  1  0
 26 27  1  0
 27 28  1  0
 28 29  1  0
 29 30  1  0
 30 31  2  0
 31 32  1  0
 32 33  1  0
 33 34  1  0
 34 35  2  0
 35 36  1  0
 36 37  2  0
 37 38  1  0
 38 39  1  0
 37 40  1  0
 40 41  2  0
 33 42  1  0
 42 43  2  0
 43 44  1  0
 44 45  2  0
 45 46  1  0
 46 47  1  0
 45 48  1  0
 48 49  2  0
 33 50  1  0
 50 51  2  0
 51 52  1  0
 52 53  1  0
 53 54  2  0
 54 55  1  0
 55 56  1  0
 56 57  2  0
 57 58  1  0
 58 59  2  0
 59 60  1  0
 60 61  1  0
 59 62  1  0
 62 63  2  0
 55 64  1  0
 64 65  2  0
 65 66  1  0
 66 67  2  0
 67 68  1  0
 68 69  1  0
 67 70  1  0
 70 71  2  0
 55 72  1  0
 72 73  1  0
 73 74  1  0
 74 75  1  0
 75 76  1  0
 74 77  1  0
 77 78  2  0
 78 79  1  0
 79 80  1  0
 80 81  1  0
 81 82  1  0
 82 83  1  0
 81 84  2  0
 84 85  1  0
 85 86  1  0
 51 87  1  0
 87 88  1  0
 88 89  2  0
 88 90  1  0
 90 91  2  3
 91 92  1  0
 92 93  2  0
 92 94  1  0
 94 95  2  0
 95 96  1  0
 95 97  1  0
 97 98  1  0
 97 99  2  0
 99100  1  0
 99101  1  0
101102  1  0
101103  2  0
103104  1  0
104105  2  3
105106  1  0
106107  3  0
105108  1  0
108109  3  0
 11  2  1  0
 23 17  1  0
 76 24  2  0
 86 77  1  0
104 91  1  0
 10  5  1  0
 22 18  1  0
 75 26  2  0
 85 79  2  0
103 94  1  0
 23  7  1  0
 73 27  2  0
 72 29  2  0
 54 30  1  0
 63 56  1  0
 71 64  1  0
 52 32  2  0
 41 34  1  0
 49 42  1  0
 89 50  1  0
  1110  1  0
  6111  1  0
  9112  1  0
 17113  1  0
 18114  1  0
 19115  1  0
 20116  1  0
 21117  1  0
 22118  1  0
 22119  1  0
 23120  1  0
 31121  1  0
 35122  1  0
 36123  1  0
 38124  1  0
 38125  1  0
 39126  1  0
 39127  1  0
 39128  1  0
 40129  1  0
 41130  1  0
 43131  1  0
 44132  1  0
 46133  1  0
 46134  1  0
 47135  1  0
 47136  1  0
 47137  1  0
 48138  1  0
 49139  1  0
 53140  1  0
 57141  1  0
 58142  1  0
 60143  1  0
 60144  1  0
 61145  1  0
 61146  1  0
 61147  1  0
 62148  1  0
 63149  1  0
 65150  1  0
 66151  1  0
 68152  1  0
 68153  1  0
 69154  1  0
 69155  1  0
 69156  1  0
 70157  1  0
 71158  1  0
 76159  1  0
 78160  1  0
 82161  1  0
 82162  1  0
 83163  1  0
 83164  1  0
 83165  1  0
 84166  1  0
 89167  1  0
 90168  1  0
M  END

