
     RDKit          3D

103116  0  0  0  0  0  0  0  0999 V2000
   -1.4761    0.2379    5.2874 C   0  0  0  0  0  0  0  0  0  0  0  0
   -0.8578    1.4332    5.2144 C   0  0  0  0  0  0  0  0  0  0  0  0
   -0.1806    1.9642    4.0224 C   0  0  0  0  0  0  0  0  0  0  0  0
   -0.2061    1.4677    2.8653 O   0  0  0  0  0  0  0  0  0  0  0  0
    0.6112    3.1114    4.4014 C   0  0  0  0  0  0  0  0  0  0  0  0
    1.3991    3.9229    3.5527 C   0  0  0  0  0  0  0  0  0  0  0  0
    1.9885    4.9976    4.1873 C   0  0  0  0  0  0  0  0  0  0  0  0
    1.8130    5.2738    5.5799 C   0  0  0  0  0  0  0  0  0  0  0  0
    1.0525    4.4787    6.4249 C   0  0  0  0  0  0  0  0  0  0  0  0
    0.4479    3.3476    5.7919 C   0  0  0  0  0  0  0  0  0  0  0  0
   -0.5040    2.3383    6.3524 C   0  0  0  0  0  0  0  0  0  0  0  0
   -1.0501    2.3303    7.5976 C   0  0  0  0  0  0  0  0  0  0  0  0
   -2.2267    1.5581    7.9205 C   0  0  0  0  0  0  0  0  0  0  0  0
   -3.1767    0.9483    8.1760 N   0  0  0  0  0  0  0  0  0  0  0  0
   -0.5526    3.1364    8.6752 C   0  0  0  0  0  0  0  0  0  0  0  0
   -0.1572    3.7806    9.5495 N   0  0  0  0  0  0  0  0  0  0  0  0
    2.6397    6.5264    5.4534 C   0  0  0  0  0  0  0  0  0  0  0  0
    1.8949    7.8981    5.4403 C   0  0  0  0  0  0  0  0  0  0  0  0
    0.5125    7.7258    4.8513 C   0  0  0  0  0  0  0  0  0  0  0  0
    0.6797    7.4558    3.5545 C   0  0  0  0  0  0  0  0  0  0  0  0
    2.1710    7.4482    3.3032 C   0  0  0  0  0  0  0  0  0  0  0  0
    2.5777    8.5572    4.2547 C   0  0  0  0  0  0  0  0  0  0  0  0
    2.8312    6.2313    4.0250 C   0  0  0  0  0  0  0  0  0  0  0  0
   -1.7947   -0.5559    4.0945 C   0  0  0  0  0  0  0  0  0  0  0  0
   -2.6717   -0.1553    3.0762 C   0  0  0  0  0  0  0  0  0  0  0  0
   -2.5765   -1.0191    1.9931 C   0  0  0  0  0  0  0  0  0  0  0  0
   -3.1668   -0.9488    0.4218 S   0  0  0  0  0  0  0  0  0  0  0  0
   -2.2125   -2.2575   -0.1080 C   0  0  0  0  0  0  0  0  0  0  0  0
   -2.0782   -2.7404   -1.4227 C   0  0  0  0  0  0  0  0  0  0  0  0
   -2.9294   -2.2327   -2.5094 C   0  0  0  0  0  0  0  0  0  0  0  0
   -2.7198   -0.7616   -3.2927 S   0  0  0  0  0  0  0  0  0  0  0  0
   -4.1264   -0.8514   -4.2131 C   0  0  0  0  0  0  0  0  0  0  0  0
   -4.6002    0.2354   -5.1318 C   0  0  0  0  0  0  0  0  0  0  0  0
   -5.2126    1.3802   -4.3230 C   0  0  0  0  0  0  0  0  0  0  0  0
   -4.7959   -2.0349   -3.8936 C   0  0  0  0  0  0  0  0  0  0  0  0
   -6.3532   -2.4777   -4.5593 Cl  0  0  0  0  0  0  0  0  0  0  0  0
   -4.1225   -2.8080   -2.9385 C   0  0  0  0  0  0  0  0  0  0  0  0
   -4.7316   -4.3394   -2.3249 Cl  0  0  0  0  0  0  0  0  0  0  0  0
   -1.0823   -3.7132   -1.6388 C   0  0  0  0  0  0  0  0  0  0  0  0
   -0.3289   -4.2369   -0.5714 C   0  0  0  0  0  0  0  0  0  0  0  0
   -0.5027   -3.7951    0.7480 C   0  0  0  0  0  0  0  0  0  0  0  0
    0.2658   -4.3904    1.8480 C   0  0  0  0  0  0  0  0  0  0  0  0
   -0.2981   -5.6128    2.8539 S   0  0  0  0  0  0  0  0  0  0  0  0
    1.0733   -5.6753    3.8306 C   0  0  0  0  0  0  0  0  0  0  0  0
    1.2119   -6.5573    5.0342 C   0  0  0  0  0  0  0  0  0  0  0  0
    0.7192   -5.8448    6.2944 C   0  0  0  0  0  0  0  0  0  0  0  0
    1.9830   -4.7160    3.3909 C   0  0  0  0  0  0  0  0  0  0  0  0
    1.5331   -3.9993    2.2713 C   0  0  0  0  0  0  0  0  0  0  0  0
    2.4361   -2.6986    1.5240 Cl  0  0  0  0  0  0  0  0  0  0  0  0
    3.5283   -4.4208    4.1691 Cl  0  0  0  0  0  0  0  0  0  0  0  0
   -1.4421   -2.7634    0.9584 C   0  0  0  0  0  0  0  0  0  0  0  0
   -1.6734   -2.0319    2.1252 C   0  0  0  0  0  0  0  0  0  0  0  0
   -0.9231   -1.9386    3.6227 S   0  0  0  0  0  0  0  0  0  0  0  0
    0.8496   -5.3223   -1.1535 S   0  0  0  0  0  0  0  0  0  0  0  0
    0.4023   -5.1080   -2.7624 C   0  0  0  0  0  0  0  0  0  0  0  0
    0.9470   -5.5385   -3.9703 C   0  0  0  0  0  0  0  0  0  0  0  0
    0.2879   -4.9270   -5.0390 C   0  0  0  0  0  0  0  0  0  0  0  0
   -0.9542   -3.9069   -4.4682 S   0  0  0  0  0  0  0  0  0  0  0  0
   -0.6354   -4.2308   -2.8563 C   0  0  0  0  0  0  0  0  0  0  0  0
    0.6044   -5.1473   -6.4540 C   0  0  0  0  0  0  0  0  0  0  0  0
    0.9224   -4.1515   -7.3074 C   0  0  0  0  0  0  0  0  0  0  0  0
    1.0322   -2.7341   -6.9484 C   0  0  0  0  0  0  0  0  0  0  0  0
    1.1870   -2.2532   -5.7957 O   0  0  0  0  0  0  0  0  0  0  0  0
    1.0275   -1.9574   -8.1618 C   0  0  0  0  0  0  0  0  0  0  0  0
    1.1394   -0.5704   -8.2840 C   0  0  0  0  0  0  0  0  0  0  0  0
    1.2418   -0.0171   -9.5695 C   0  0  0  0  0  0  0  0  0  0  0  0
    1.3852    1.3301   -9.7192 F   0  0  0  0  0  0  0  0  0  0  0  0
    1.2342   -0.8538  -10.7003 C   0  0  0  0  0  0  0  0  0  0  0  0
    1.3800   -0.3121  -11.9409 F   0  0  0  0  0  0  0  0  0  0  0  0
    1.1285   -2.2509  -10.5528 C   0  0  0  0  0  0  0  0  0  0  0  0
    1.0174   -2.8035   -9.2572 C   0  0  0  0  0  0  0  0  0  0  0  0
    1.0276   -4.2220   -8.8016 C   0  0  0  0  0  0  0  0  0  0  0  0
    1.1618   -5.3378   -9.5564 C   0  0  0  0  0  0  0  0  0  0  0  0
    1.5898   -6.5830   -8.9806 C   0  0  0  0  0  0  0  0  0  0  0  0
    1.9911   -7.5884   -8.5520 N   0  0  0  0  0  0  0  0  0  0  0  0
    1.1566   -5.3311  -10.9961 C   0  0  0  0  0  0  0  0  0  0  0  0
    1.1897   -5.3482  -12.1507 N   0  0  0  0  0  0  0  0  0  0  0  0
   -1.6873   -0.2217    6.2447 H   0  0  0  0  0  0  0  0  0  0  0  0
    1.5171    3.7286    2.5032 H   0  0  0  0  0  0  0  0  0  0  0  0
    0.9328    4.7604    7.4608 H   0  0  0  0  0  0  0  0  0  0  0  0
    3.5851    6.5247    6.0482 H   0  0  0  0  0  0  0  0  0  0  0  0
    1.9279    8.4728    6.3927 H   0  0  0  0  0  0  0  0  0  0  0  0
   -0.4432    7.8630    5.3534 H   0  0  0  0  0  0  0  0  0  0  0  0
   -0.1057    7.3269    2.8149 H   0  0  0  0  0  0  0  0  0  0  0  0
    2.4828    7.6024    2.2429 H   0  0  0  0  0  0  0  0  0  0  0  0
    2.1372    9.5495    3.9873 H   0  0  0  0  0  0  0  0  0  0  0  0
    3.6829    8.6631    4.3763 H   0  0  0  0  0  0  0  0  0  0  0  0
    3.8923    6.0161    3.7459 H   0  0  0  0  0  0  0  0  0  0  0  0
   -3.2776    0.7414    3.1048 H   0  0  0  0  0  0  0  0  0  0  0  0
   -3.7402    0.6091   -5.7270 H   0  0  0  0  0  0  0  0  0  0  0  0
   -5.3572   -0.1698   -5.8401 H   0  0  0  0  0  0  0  0  0  0  0  0
   -4.4515    1.8256   -3.6508 H   0  0  0  0  0  0  0  0  0  0  0  0
   -6.0652    1.0080   -3.7143 H   0  0  0  0  0  0  0  0  0  0  0  0
   -5.5947    2.1722   -5.0062 H   0  0  0  0  0  0  0  0  0  0  0  0
    0.6100   -7.4749    4.8819 H   0  0  0  0  0  0  0  0  0  0  0  0
    2.2720   -6.8631    5.1612 H   0  0  0  0  0  0  0  0  0  0  0  0
   -0.3455   -5.5362    6.1662 H   0  0  0  0  0  0  0  0  0  0  0  0
    0.7925   -6.5162    7.1740 H   0  0  0  0  0  0  0  0  0  0  0  0
    1.3246   -4.9360    6.4827 H   0  0  0  0  0  0  0  0  0  0  0  0
    1.7992   -6.1974   -4.0677 H   0  0  0  0  0  0  0  0  0  0  0  0
    0.4979   -6.1629   -6.7866 H   0  0  0  0  0  0  0  0  0  0  0  0
    1.1858    0.0741   -7.4158 H   0  0  0  0  0  0  0  0  0  0  0  0
    1.1442   -2.8566  -11.4397 H   0  0  0  0  0  0  0  0  0  0  0  0
  1  2  2  3
  2  3  1  0
  3  4  2  0
  3  5  1  0
  5  6  2  0
  6  7  1  0
  7  8  2  0
  8  9  1  0
  9 10  2  0
 10 11  1  0
 11 12  2  3
 12 13  1  0
 13 14  3  0
 12 15  1  0
 15 16  3  0
  8 17  1  0
 17 18  1  0
 18 19  1  0
 19 20  2  0
 20 21  1  0
 21 22  1  0
 21 23  1  0
  1 24  1  0
 24 25  2  0
 25 26  1  0
 26 27  1  0
 27 28  1  0
 28 29  2  0
 29 30  1  0
 30 31  1  0
 31 32  1  0
 32 33  1  0
 33 34  1  0
 32 35  2  0
 35 36  1  0
 35 37  1  0
 37 38  1  0
 29 39  1  0
 39 40  2  0
 40 41  1  0
 41 42  1  0
 42 43  1  0
 43 44  1  0
 44 45  1  0
 45 46  1  0
 44 47  2  0
 47 48  1  0
 48 49  1  0
 47 50  1  0
 41 51  2  0
 51 52  1  0
 52 53  1  0
 40 54  1  0
 54 55  1  0
 55 56  1  0
 56 57  2  0
 57 58  1  0
 58 59  1  0
 57 60  1  0
 60 61  2  3
 61 62  1  0
 62 63  2  0
 62 64  1  0
 64 65  2  0
 65 66  1  0
 66 67  1  0
 66 68  2  0
 68 69  1  0
 68 70  1  0
 70 71  2  0
 71 72  1  0
 72 73  2  3
 73 74  1  0
 74 75  3  0
 73 76  1  0
 76 77  3  0
 11  2  1  0
 23 17  1  0
 53 24  1  0
 59 55  2  0
 72 61  1  0
 10  5  1  0
 22 18  1  0
 52 26  2  0
 71 64  1  0
 23  7  1  0
 51 28  1  0
 37 30  2  0
 59 39  1  0
 48 42  2  0
  1 78  1  0
  6 79  1  0
  9 80  1  0
 17 81  1  0
 18 82  1  0
 19 83  1  0
 20 84  1  0
 21 85  1  0
 22 86  1  0
 22 87  1  0
 23 88  1  0
 25 89  1  0
 33 90  1  0
 33 91  1  0
 34 92  1  0
 34 93  1  0
 34 94  1  0
 45 95  1  0
 45 96  1  0
 46 97  1  0
 46 98  1  0
 46 99  1  0
 56100  1  0
 60101  1  0
 65102  1  0
 70103  1  0
M  END

