
     RDKit          3D

184205  0  0  0  0  0  0  0  0999 V2000
   -2.1113    8.9425    4.2728 C   0  0  0  0  0  0  0  0  0  0  0  0
   -2.6873   10.0204    3.7026 C   0  0  0  0  0  0  0  0  0  0  0  0
   -3.0383   10.1525    2.2813 C   0  0  0  0  0  0  0  0  0  0  0  0
   -2.8547    9.2851    1.3815 O   0  0  0  0  0  0  0  0  0  0  0  0
   -3.3474   11.5393    2.0088 C   0  0  0  0  0  0  0  0  0  0  0  0
   -3.5217   12.1340    0.7412 C   0  0  0  0  0  0  0  0  0  0  0  0
   -3.5127   13.5109    0.7537 C   0  0  0  0  0  0  0  0  0  0  0  0
   -3.3430   14.2775    1.9495 C   0  0  0  0  0  0  0  0  0  0  0  0
   -3.1845   13.7055    3.1993 C   0  0  0  0  0  0  0  0  0  0  0  0
   -3.2209   12.2837    3.2090 C   0  0  0  0  0  0  0  0  0  0  0  0
   -2.9533   11.3507    4.3370 C   0  0  0  0  0  0  0  0  0  0  0  0
   -3.1324   11.6295    5.6575 C   0  0  0  0  0  0  0  0  0  0  0  0
   -2.9844   10.6383    6.6910 C   0  0  0  0  0  0  0  0  0  0  0  0
   -2.8599    9.8587    7.5364 N   0  0  0  0  0  0  0  0  0  0  0  0
   -3.5231   12.9285    6.1310 C   0  0  0  0  0  0  0  0  0  0  0  0
   -3.8256   13.9696    6.5373 N   0  0  0  0  0  0  0  0  0  0  0  0
   -3.3333   15.5433    1.1518 C   0  0  0  0  0  0  0  0  0  0  0  0
   -1.9507   16.2340    0.9529 C   0  0  0  0  0  0  0  0  0  0  0  0
   -2.1295   17.2135   -0.1841 C   0  0  0  0  0  0  0  0  0  0  0  0
   -2.2835   16.4848   -1.2972 C   0  0  0  0  0  0  0  0  0  0  0  0
   -2.1998   15.0385   -0.8723 C   0  0  0  0  0  0  0  0  0  0  0  0
   -1.1414   15.1726    0.2165 C   0  0  0  0  0  0  0  0  0  0  0  0
   -3.5068   14.7581   -0.0748 C   0  0  0  0  0  0  0  0  0  0  0  0
   -1.8040    7.6932    3.5636 C   0  0  0  0  0  0  0  0  0  0  0  0
   -0.8778    7.5591    2.5236 C   0  0  0  0  0  0  0  0  0  0  0  0
   -0.6708    6.2138    2.2104 C   0  0  0  0  0  0  0  0  0  0  0  0
    0.2924    5.4696    1.2988 C   0  0  0  0  0  0  0  0  0  0  0  0
    1.6622    6.1342    1.1731 C   0  0  0  0  0  0  0  0  0  0  0  0
    2.2273    6.8850    2.2239 C   0  0  0  0  0  0  0  0  0  0  0  0
    3.3400    7.7066    1.9912 C   0  0  0  0  0  0  0  0  0  0  0  0
    3.9265    7.7641    0.7114 C   0  0  0  0  0  0  0  0  0  0  0  0
    5.0750    8.6996    0.4246 C   0  0  0  0  0  0  0  0  0  0  0  0
    6.4117    8.0203    0.6969 C   0  0  0  0  0  0  0  0  0  0  0  0
    3.4449    6.9188   -0.2987 C   0  0  0  0  0  0  0  0  0  0  0  0
    2.3485    6.0893   -0.0606 C   0  0  0  0  0  0  0  0  0  0  0  0
   -0.4666    5.4219   -0.0485 C   0  0  0  0  0  0  0  0  0  0  0  0
   -1.1141    4.2606   -0.5249 C   0  0  0  0  0  0  0  0  0  0  0  0
   -2.0100    4.3303   -1.5964 C   0  0  0  0  0  0  0  0  0  0  0  0
   -2.2495    5.5420   -2.2536 C   0  0  0  0  0  0  0  0  0  0  0  0
   -3.3352    5.6359   -3.3098 C   0  0  0  0  0  0  0  0  0  0  0  0
   -4.6937    5.8828   -2.6589 C   0  0  0  0  0  0  0  0  0  0  0  0
   -1.5678    6.6894   -1.8335 C   0  0  0  0  0  0  0  0  0  0  0  0
   -0.6858    6.6314   -0.7456 C   0  0  0  0  0  0  0  0  0  0  0  0
    0.2991    4.1307    2.0761 C   0  0  0  0  0  0  0  0  0  0  0  0
   -0.8350    4.0626    2.8532 C   0  0  0  0  0  0  0  0  0  0  0  0
   -1.4387    5.3550    2.9301 C   0  0  0  0  0  0  0  0  0  0  0  0
   -2.2852    6.1584    4.1287 S   0  0  0  0  0  0  0  0  0  0  0  0
   -1.4824    2.5195    2.8831 S   0  0  0  0  0  0  0  0  0  0  0  0
   -0.1366    1.8559    2.0894 C   0  0  0  0  0  0  0  0  0  0  0  0
    0.0994    0.5112    1.8008 C   0  0  0  0  0  0  0  0  0  0  0  0
    1.4329    0.1205    1.5605 C   0  0  0  0  0  0  0  0  0  0  0  0
    2.4413    1.0980    1.4092 C   0  0  0  0  0  0  0  0  0  0  0  0
    2.1259    2.4851    1.4608 C   0  0  0  0  0  0  0  0  0  0  0  0
    3.1169    3.4685    1.3037 O   0  0  0  0  0  0  0  0  0  0  0  0
    4.5147    3.1788    1.2503 C   0  0  0  0  0  0  0  0  0  0  0  0
    5.3175    4.4616    1.1179 C   0  0  0  0  0  0  0  0  0  0  0  0
    0.8026    2.8506    1.7830 C   0  0  0  0  0  0  0  0  0  0  0  0
    1.6942   -1.2527    1.4718 C   0  0  0  0  0  0  0  0  0  0  0  0
    0.6658   -2.1829    1.2506 C   0  0  0  0  0  0  0  0  0  0  0  0
   -0.6796   -1.7951    1.4103 C   0  0  0  0  0  0  0  0  0  0  0  0
   -0.9407   -0.4386    1.7380 C   0  0  0  0  0  0  0  0  0  0  0  0
   -1.7192   -2.7435    1.3623 O   0  0  0  0  0  0  0  0  0  0  0  0
   -3.0725   -2.4428    1.7273 C   0  0  0  0  0  0  0  0  0  0  0  0
   -3.9496   -3.6812    1.6633 C   0  0  0  0  0  0  0  0  0  0  0  0
    1.1841   -3.4887    1.1130 C   0  0  0  0  0  0  0  0  0  0  0  0
    2.4992   -3.5689    1.5204 C   0  0  0  0  0  0  0  0  0  0  0  0
    3.1863   -2.0410    1.6730 S   0  0  0  0  0  0  0  0  0  0  0  0
    3.0434   -4.8460    1.1614 C   0  0  0  0  0  0  0  0  0  0  0  0
    4.0475   -5.9171    1.9757 S   0  0  0  0  0  0  0  0  0  0  0  0
    3.3063   -7.3046    1.3247 C   0  0  0  0  0  0  0  0  0  0  0  0
    2.1865   -6.9260    0.5762 C   0  0  0  0  0  0  0  0  0  0  0  0
    2.0531   -5.5367    0.5356 C   0  0  0  0  0  0  0  0  0  0  0  0
    0.8887   -4.6425    0.1357 C   0  0  0  0  0  0  0  0  0  0  0  0
    1.1942   -4.3268   -1.3464 C   0  0  0  0  0  0  0  0  0  0  0  0
    1.1657   -5.3866   -2.2835 C   0  0  0  0  0  0  0  0  0  0  0  0
    1.6915   -5.2303   -3.5663 C   0  0  0  0  0  0  0  0  0  0  0  0
    2.2730   -4.0172   -3.9525 C   0  0  0  0  0  0  0  0  0  0  0  0
    2.9401   -3.8926   -5.2997 C   0  0  0  0  0  0  0  0  0  0  0  0
    1.9578   -3.4236   -6.3665 C   0  0  0  0  0  0  0  0  0  0  0  0
    2.2552   -2.9405   -3.0627 C   0  0  0  0  0  0  0  0  0  0  0  0
    1.7168   -3.0859   -1.7782 C   0  0  0  0  0  0  0  0  0  0  0  0
   -0.4752   -5.3007    0.3552 C   0  0  0  0  0  0  0  0  0  0  0  0
   -0.7334   -6.0748    1.5048 C   0  0  0  0  0  0  0  0  0  0  0  0
   -1.9129   -6.8225    1.6116 C   0  0  0  0  0  0  0  0  0  0  0  0
   -2.8697   -6.7918    0.5788 C   0  0  0  0  0  0  0  0  0  0  0  0
   -4.1268   -7.6146    0.6714 C   0  0  0  0  0  0  0  0  0  0  0  0
   -4.1829   -8.6796   -0.4251 C   0  0  0  0  0  0  0  0  0  0  0  0
   -2.6609   -5.9510   -0.5200 C   0  0  0  0  0  0  0  0  0  0  0  0
   -1.4934   -5.1915   -0.6190 C   0  0  0  0  0  0  0  0  0  0  0  0
    3.6001   -8.6815    1.7619 C   0  0  0  0  0  0  0  0  0  0  0  0
    3.3867   -9.7773    1.0093 C   0  0  0  0  0  0  0  0  0  0  0  0
    3.2961   -9.7922   -0.4565 C   0  0  0  0  0  0  0  0  0  0  0  0
    3.3404   -8.7906   -1.2221 O   0  0  0  0  0  0  0  0  0  0  0  0
    3.3056  -11.1634   -0.9073 C   0  0  0  0  0  0  0  0  0  0  0  0
    3.1703  -11.6110   -2.2443 C   0  0  0  0  0  0  0  0  0  0  0  0
    3.1408  -12.9891   -2.3753 C   0  0  0  0  0  0  0  0  0  0  0  0
    3.2406  -13.8775   -1.2603 C   0  0  0  0  0  0  0  0  0  0  0  0
    3.3790  -13.4470    0.0529 C   0  0  0  0  0  0  0  0  0  0  0  0
    3.4163  -12.0311    0.2090 C   0  0  0  0  0  0  0  0  0  0  0  0
    3.4548  -11.2054    1.4547 C   0  0  0  0  0  0  0  0  0  0  0  0
    3.3828  -11.6585    2.7359 C   0  0  0  0  0  0  0  0  0  0  0  0
    3.6536  -13.0287    3.0896 C   0  0  0  0  0  0  0  0  0  0  0  0
    3.8807  -14.1199    3.3977 N   0  0  0  0  0  0  0  0  0  0  0  0
    2.9913  -10.8144    3.8275 C   0  0  0  0  0  0  0  0  0  0  0  0
    2.6820  -10.1438    4.7218 N   0  0  0  0  0  0  0  0  0  0  0  0
    3.0852  -15.0589   -2.1731 C   0  0  0  0  0  0  0  0  0  0  0  0
    1.7096  -15.7967   -2.1685 C   0  0  0  0  0  0  0  0  0  0  0  0
    0.5972  -14.8163   -1.8461 C   0  0  0  0  0  0  0  0  0  0  0  0
    0.5005  -13.9905   -2.8913 C   0  0  0  0  0  0  0  0  0  0  0  0
    1.5535  -14.4313   -3.8848 C   0  0  0  0  0  0  0  0  0  0  0  0
    1.4786  -15.9327   -3.6628 C   0  0  0  0  0  0  0  0  0  0  0  0
    2.9814  -14.1463   -3.3120 C   0  0  0  0  0  0  0  0  0  0  0  0
   -1.8422    8.9529    5.3140 H   0  0  0  0  0  0  0  0  0  0  0  0
   -3.5564   11.5662   -0.1806 H   0  0  0  0  0  0  0  0  0  0  0  0
   -2.9307   14.3078    4.0523 H   0  0  0  0  0  0  0  0  0  0  0  0
   -4.1787   16.2298    1.3862 H   0  0  0  0  0  0  0  0  0  0  0  0
   -1.4789   16.6469    1.8671 H   0  0  0  0  0  0  0  0  0  0  0  0
   -1.9819   18.2822   -0.1521 H   0  0  0  0  0  0  0  0  0  0  0  0
   -2.3104   16.8608   -2.3146 H   0  0  0  0  0  0  0  0  0  0  0  0
   -1.9607   14.3191   -1.6838 H   0  0  0  0  0  0  0  0  0  0  0  0
   -0.9775   14.2409    0.7924 H   0  0  0  0  0  0  0  0  0  0  0  0
   -0.1643   15.5474   -0.1655 H   0  0  0  0  0  0  0  0  0  0  0  0
   -4.4586   14.9439   -0.6158 H   0  0  0  0  0  0  0  0  0  0  0  0
   -0.3251    8.3802    2.0796 H   0  0  0  0  0  0  0  0  0  0  0  0
    1.7781    6.8824    3.2133 H   0  0  0  0  0  0  0  0  0  0  0  0
    3.7255    8.3284    2.7914 H   0  0  0  0  0  0  0  0  0  0  0  0
    4.9921    9.6096    1.0595 H   0  0  0  0  0  0  0  0  0  0  0  0
    5.0427    9.0328   -0.6348 H   0  0  0  0  0  0  0  0  0  0  0  0
    6.4825    7.7273    1.7656 H   0  0  0  0  0  0  0  0  0  0  0  0
    6.5193    7.1217    0.0524 H   0  0  0  0  0  0  0  0  0  0  0  0
    7.2386    8.7301    0.4639 H   0  0  0  0  0  0  0  0  0  0  0  0
    3.9147    6.9015   -1.2747 H   0  0  0  0  0  0  0  0  0  0  0  0
    2.0027    5.4537   -0.8622 H   0  0  0  0  0  0  0  0  0  0  0  0
   -0.9896    3.3049   -0.0487 H   0  0  0  0  0  0  0  0  0  0  0  0
   -2.5389    3.4329   -1.9002 H   0  0  0  0  0  0  0  0  0  0  0  0
   -3.1163    6.4682   -4.0155 H   0  0  0  0  0  0  0  0  0  0  0  0
   -3.3753    4.6918   -3.8933 H   0  0  0  0  0  0  0  0  0  0  0  0
   -4.6786    6.8240   -2.0739 H   0  0  0  0  0  0  0  0  0  0  0  0
   -5.4769    5.9695   -3.4448 H   0  0  0  0  0  0  0  0  0  0  0  0
   -4.9697    5.0412   -1.9891 H   0  0  0  0  0  0  0  0  0  0  0  0
   -1.7464    7.6363   -2.3224 H   0  0  0  0  0  0  0  0  0  0  0  0
   -0.2164    7.5506   -0.4094 H   0  0  0  0  0  0  0  0  0  0  0  0
    3.4577    0.7677    1.2123 H   0  0  0  0  0  0  0  0  0  0  0  0
    4.8156    2.6641    2.1884 H   0  0  0  0  0  0  0  0  0  0  0  0
    4.7393    2.5255    0.3783 H   0  0  0  0  0  0  0  0  0  0  0  0
    6.3950    4.2387    1.2474 H   0  0  0  0  0  0  0  0  0  0  0  0
    5.0083    5.1946    1.8910 H   0  0  0  0  0  0  0  0  0  0  0  0
    5.1731    4.8876    0.1052 H   0  0  0  0  0  0  0  0  0  0  0  0
   -1.9549   -0.1034    1.9062 H   0  0  0  0  0  0  0  0  0  0  0  0
   -3.0909   -2.0530    2.7635 H   0  0  0  0  0  0  0  0  0  0  0  0
   -3.4954   -1.6719    1.0463 H   0  0  0  0  0  0  0  0  0  0  0  0
   -4.0699   -4.0019    0.6121 H   0  0  0  0  0  0  0  0  0  0  0  0
   -3.5074   -4.4966    2.2698 H   0  0  0  0  0  0  0  0  0  0  0  0
   -4.9566   -3.4445    2.0696 H   0  0  0  0  0  0  0  0  0  0  0  0
    1.4390   -7.6106    0.2002 H   0  0  0  0  0  0  0  0  0  0  0  0
    0.7836   -6.3637   -1.9936 H   0  0  0  0  0  0  0  0  0  0  0  0
    1.6782   -6.0660   -4.2496 H   0  0  0  0  0  0  0  0  0  0  0  0
    3.7832   -3.1693   -5.2434 H   0  0  0  0  0  0  0  0  0  0  0  0
    3.3767   -4.8708   -5.6060 H   0  0  0  0  0  0  0  0  0  0  0  0
    1.5128   -2.4481   -6.0756 H   0  0  0  0  0  0  0  0  0  0  0  0
    1.1480   -4.1735   -6.4994 H   0  0  0  0  0  0  0  0  0  0  0  0
    2.4884   -3.3015   -7.3311 H   0  0  0  0  0  0  0  0  0  0  0  0
    2.6866   -1.9839   -3.3522 H   0  0  0  0  0  0  0  0  0  0  0  0
    1.7725   -2.2363   -1.1238 H   0  0  0  0  0  0  0  0  0  0  0  0
   -0.0052   -6.1308    2.3048 H   0  0  0  0  0  0  0  0  0  0  0  0
   -2.0747   -7.4335    2.4930 H   0  0  0  0  0  0  0  0  0  0  0  0
   -4.1994   -8.1187    1.6558 H   0  0  0  0  0  0  0  0  0  0  0  0
   -5.0129   -6.9502    0.5843 H   0  0  0  0  0  0  0  0  0  0  0  0
   -3.3188   -9.3710   -0.3335 H   0  0  0  0  0  0  0  0  0  0  0  0
   -5.1213   -9.2658   -0.3294 H   0  0  0  0  0  0  0  0  0  0  0  0
   -4.1727   -8.2082   -1.4305 H   0  0  0  0  0  0  0  0  0  0  0  0
   -3.4094   -5.8672   -1.2983 H   0  0  0  0  0  0  0  0  0  0  0  0
   -1.3753   -4.5377   -1.4746 H   0  0  0  0  0  0  0  0  0  0  0  0
    3.9906   -8.7857    2.7598 H   0  0  0  0  0  0  0  0  0  0  0  0
    3.0671  -10.9405   -3.0912 H   0  0  0  0  0  0  0  0  0  0  0  0
    3.4157  -14.1669    0.8534 H   0  0  0  0  0  0  0  0  0  0  0  0
    3.9739  -15.7271   -2.2038 H   0  0  0  0  0  0  0  0  0  0  0  0
    1.6774  -16.7433   -1.5906 H   0  0  0  0  0  0  0  0  0  0  0  0
   -0.0650  -14.8337   -0.9837 H   0  0  0  0  0  0  0  0  0  0  0  0
   -0.2439  -13.2185   -3.0265 H   0  0  0  0  0  0  0  0  0  0  0  0
    1.3841  -14.0907   -4.9262 H   0  0  0  0  0  0  0  0  0  0  0  0
    2.2856  -16.5024   -4.1885 H   0  0  0  0  0  0  0  0  0  0  0  0
    0.4821  -16.3690   -3.9143 H   0  0  0  0  0  0  0  0  0  0  0  0
    3.8095  -14.2532   -4.0558 H   0  0  0  0  0  0  0  0  0  0  0  0
  1  2  2  3
  2  3  1  0
  3  4  2  0
  3  5  1  0
  5  6  2  0
  6  7  1  0
  7  8  2  0
  8  9  1  0
  9 10  2  0
 10 11  1  0
 11 12  2  3
 12 13  1  0
 13 14  3  0
 12 15  1  0
 15 16  3  0
  8 17  1  0
 17 18  1  0
 18 19  1  0
 19 20  2  0
 20 21  1  0
 21 22  1  0
 21 23  1  0
  1 24  1  0
 24 25  2  0
 25 26  1  0
 26 27  1  0
 27 28  1  0
 28 29  2  0
 29 30  1  0
 30 31  2  0
 31 32  1  0
 32 33  1  0
 31 34  1  0
 34 35  2  0
 27 36  1  0
 36 37  2  0
 37 38  1  0
 38 39  2  0
 39 40  1  0
 40 41  1  0
 39 42  1  0
 42 43  2  0
 27 44  1  0
 44 45  2  0
 45 46  1  0
 46 47  1  0
 45 48  1  0
 48 49  1  0
 49 50  2  0
 50 51  1  0
 51 52  2  0
 52 53  1  0
 53 54  1  0
 54 55  1  0
 55 56  1  0
 53 57  2  0
 51 58  1  0
 58 59  2  0
 59 60  1  0
 60 61  2  0
 60 62  1  0
 62 63  1  0
 63 64  1  0
 59 65  1  0
 65 66  2  0
 66 67  1  0
 66 68  1  0
 68 69  1  0
 69 70  1  0
 70 71  2  0
 71 72  1  0
 72 73  1  0
 73 74  1  0
 74 75  2  0
 75 76  1  0
 76 77  2  0
 77 78  1  0
 78 79  1  0
 77 80  1  0
 80 81  2  0
 73 82  1  0
 82 83  2  0
 83 84  1  0
 84 85  2  0
 85 86  1  0
 86 87  1  0
 85 88  1  0
 88 89  2  0
 70 90  1  0
 90 91  2  3
 91 92  1  0
 92 93  2  0
 92 94  1  0
 94 95  2  0
 95 96  1  0
 96 97  2  0
 97 98  1  0
 98 99  2  0
 99100  1  0
100101  2  3
101102  1  0
102103  3  0
101104  1  0
104105  3  0
 97106  1  0
106107  1  0
107108  1  0
108109  2  0
109110  1  0
110111  1  0
110112  1  0
 11  2  1  0
 23 17  1  0
 47 24  1  0
 57 49  1  0
 67 58  1  0
 72 68  2  0
 81 74  1  0
 89 82  1  0
100 91  1  0
112106  1  0
 10  5  1  0
 22 18  1  0
 46 26  2  0
 61 50  1  0
 73 65  1  0
 99 94  1  0
111107  1  0
 23  7  1  0
 35 28  1  0
 43 36  1  0
 57 44  1  0
112 96  1  0
  1113  1  0
  6114  1  0
  9115  1  0
 17116  1  0
 18117  1  0
 19118  1  0
 20119  1  0
 21120  1  0
 22121  1  0
 22122  1  0
 23123  1  0
 25124  1  0
 29125  1  0
 30126  1  0
 32127  1  0
 32128  1  0
 33129  1  0
 33130  1  0
 33131  1  0
 34132  1  0
 35133  1  0
 37134  1  0
 38135  1  0
 40136  1  0
 40137  1  0
 41138  1  0
 41139  1  0
 41140  1  0
 42141  1  0
 43142  1  0
 52143  1  0
 55144  1  0
 55145  1  0
 56146  1  0
 56147  1  0
 56148  1  0
 61149  1  0
 63150  1  0
 63151  1  0
 64152  1  0
 64153  1  0
 64154  1  0
 71155  1  0
 75156  1  0
 76157  1  0
 78158  1  0
 78159  1  0
 79160  1  0
 79161  1  0
 79162  1  0
 80163  1  0
 81164  1  0
 83165  1  0
 84166  1  0
 86167  1  0
 86168  1  0
 87169  1  0
 87170  1  0
 87171  1  0
 88172  1  0
 89173  1  0
 90174  1  0
 95175  1  0
 98176  1  0
106177  1  0
107178  1  0
108179  1  0
109180  1  0
110181  1  0
111182  1  0
111183  1  0
112184  1  0
M  END

