
     RDKit          3D

168187  0  0  0  0  0  0  0  0999 V2000
    6.3690   -0.7936    2.8663 C   0  0  0  0  0  0  0  0  0  0  0  0
    6.1816   -2.0665    3.2637 C   0  0  0  0  0  0  0  0  0  0  0  0
    7.2010   -2.8190    3.9990 C   0  0  0  0  0  0  0  0  0  0  0  0
    8.0976   -2.3227    4.7336 O   0  0  0  0  0  0  0  0  0  0  0  0
    7.0942   -4.2181    3.6191 C   0  0  0  0  0  0  0  0  0  0  0  0
    8.0290   -5.2496    3.8683 C   0  0  0  0  0  0  0  0  0  0  0  0
    7.7728   -6.4164    3.1629 C   0  0  0  0  0  0  0  0  0  0  0  0
    6.6778   -6.5562    2.2479 C   0  0  0  0  0  0  0  0  0  0  0  0
    5.7505   -5.5577    2.0116 C   0  0  0  0  0  0  0  0  0  0  0  0
    5.9812   -4.3675    2.7518 C   0  0  0  0  0  0  0  0  0  0  0  0
    5.2721   -3.0741    2.6545 C   0  0  0  0  0  0  0  0  0  0  0  0
    3.9497   -2.8987    2.4073 C   0  0  0  0  0  0  0  0  0  0  0  0
    3.3000   -1.6412    2.6843 C   0  0  0  0  0  0  0  0  0  0  0  0
    2.7760   -0.6355    2.9030 N   0  0  0  0  0  0  0  0  0  0  0  0
    3.0977   -3.9652    1.9605 C   0  0  0  0  0  0  0  0  0  0  0  0
    2.3993   -4.8124    1.5906 N   0  0  0  0  0  0  0  0  0  0  0  0
    7.1270   -7.9437    1.8940 C   0  0  0  0  0  0  0  0  0  0  0  0
    6.2993   -9.1368    2.4568 C   0  0  0  0  0  0  0  0  0  0  0  0
    5.6754   -8.7540    3.7785 C   0  0  0  0  0  0  0  0  0  0  0  0
    6.6778   -8.6262    4.6500 C   0  0  0  0  0  0  0  0  0  0  0  0
    7.9493   -8.9316    3.8948 C   0  0  0  0  0  0  0  0  0  0  0  0
    7.4227  -10.0163    2.9713 C   0  0  0  0  0  0  0  0  0  0  0  0
    8.2343   -7.8101    2.8491 C   0  0  0  0  0  0  0  0  0  0  0  0
    5.8659   -0.2754    1.5801 C   0  0  0  0  0  0  0  0  0  0  0  0
    5.6713   -1.2076    0.1707 S   0  0  0  0  0  0  0  0  0  0  0  0
    5.0297    0.0534   -0.7138 C   0  0  0  0  0  0  0  0  0  0  0  0
    4.0153    0.0819   -1.6150 C   0  0  0  0  0  0  0  0  0  0  0  0
    2.9414   -1.1541   -2.0667 S   0  0  0  0  0  0  0  0  0  0  0  0
    1.6928   -0.0242   -2.2281 C   0  0  0  0  0  0  0  0  0  0  0  0
    0.3050   -0.0723   -2.5758 C   0  0  0  0  0  0  0  0  0  0  0  0
   -0.5670   -1.1515   -2.4267 C   0  0  0  0  0  0  0  0  0  0  0  0
   -1.9368   -0.8613   -2.3413 C   0  0  0  0  0  0  0  0  0  0  0  0
   -3.0473   -1.7892   -1.8541 C   0  0  0  0  0  0  0  0  0  0  0  0
   -2.6401   -2.3126   -0.4658 C   0  0  0  0  0  0  0  0  0  0  0  0
   -1.8744   -3.4929   -0.3439 C   0  0  0  0  0  0  0  0  0  0  0  0
   -1.3869   -3.9126    0.8970 C   0  0  0  0  0  0  0  0  0  0  0  0
   -1.6162   -3.1438    2.0455 C   0  0  0  0  0  0  0  0  0  0  0  0
   -1.0858   -3.5923    3.3800 C   0  0  0  0  0  0  0  0  0  0  0  0
   -2.0572   -4.5597    4.0475 C   0  0  0  0  0  0  0  0  0  0  0  0
   -2.3610   -1.9650    1.9394 C   0  0  0  0  0  0  0  0  0  0  0  0
   -2.8630   -1.5498    0.7039 C   0  0  0  0  0  0  0  0  0  0  0  0
   -3.4183   -2.8933   -2.8522 C   0  0  0  0  0  0  0  0  0  0  0  0
   -3.0206   -2.8328   -4.2065 C   0  0  0  0  0  0  0  0  0  0  0  0
   -3.3997   -3.8334   -5.1061 C   0  0  0  0  0  0  0  0  0  0  0  0
   -4.2089   -4.8997   -4.6846 C   0  0  0  0  0  0  0  0  0  0  0  0
   -4.5726   -5.9971   -5.6471 C   0  0  0  0  0  0  0  0  0  0  0  0
   -3.5440   -7.1254   -5.5972 C   0  0  0  0  0  0  0  0  0  0  0  0
   -4.6287   -4.9558   -3.3478 C   0  0  0  0  0  0  0  0  0  0  0  0
   -4.2574   -3.9524   -2.4503 C   0  0  0  0  0  0  0  0  0  0  0  0
   -4.1878   -0.7954   -1.7991 C   0  0  0  0  0  0  0  0  0  0  0  0
   -3.7882    0.4562   -2.1506 C   0  0  0  0  0  0  0  0  0  0  0  0
   -2.3877    0.4587   -2.4681 C   0  0  0  0  0  0  0  0  0  0  0  0
   -1.5156    1.5416   -2.6181 C   0  0  0  0  0  0  0  0  0  0  0  0
   -0.1375    1.2539   -2.6228 C   0  0  0  0  0  0  0  0  0  0  0  0
    1.0395    2.2422   -2.4793 C   0  0  0  0  0  0  0  0  0  0  0  0
    1.4762    2.6863   -3.8966 C   0  0  0  0  0  0  0  0  0  0  0  0
    0.5230    2.9128   -4.9176 C   0  0  0  0  0  0  0  0  0  0  0  0
    0.9245    3.1915   -6.2291 C   0  0  0  0  0  0  0  0  0  0  0  0
    2.2835    3.3098   -6.5468 C   0  0  0  0  0  0  0  0  0  0  0  0
    2.7183    3.5252   -7.9714 C   0  0  0  0  0  0  0  0  0  0  0  0
    3.1352    2.2019   -8.6129 C   0  0  0  0  0  0  0  0  0  0  0  0
    3.2376    3.1775   -5.5297 C   0  0  0  0  0  0  0  0  0  0  0  0
    2.8373    2.8876   -4.2219 C   0  0  0  0  0  0  0  0  0  0  0  0
    0.7383    3.4283   -1.5507 C   0  0  0  0  0  0  0  0  0  0  0  0
    1.3778    4.6735   -1.7302 C   0  0  0  0  0  0  0  0  0  0  0  0
    1.0606    5.7700   -0.9229 C   0  0  0  0  0  0  0  0  0  0  0  0
    0.1123    5.6444    0.0993 C   0  0  0  0  0  0  0  0  0  0  0  0
   -0.2569    6.8339    0.9409 C   0  0  0  0  0  0  0  0  0  0  0  0
   -1.4640    7.5536    0.3496 C   0  0  0  0  0  0  0  0  0  0  0  0
   -0.5103    4.4056    0.3083 C   0  0  0  0  0  0  0  0  0  0  0  0
   -0.1769    3.3049   -0.4802 C   0  0  0  0  0  0  0  0  0  0  0  0
    2.0503    1.2520   -1.9004 C   0  0  0  0  0  0  0  0  0  0  0  0
    3.3767    1.2992   -1.4498 C   0  0  0  0  0  0  0  0  0  0  0  0
    3.8851    1.9733   -0.3746 N   0  0  0  0  0  0  0  0  0  0  0  0
    4.9033    1.1766    0.0513 C   0  0  0  0  0  0  0  0  0  0  0  0
    5.3982    1.0264    1.3596 C   0  0  0  0  0  0  0  0  0  0  0  0
    3.1060    2.7371    0.5514 C   0  0  0  0  0  0  0  0  0  0  0  0
    2.0931    2.1863    1.3462 C   0  0  0  0  0  0  0  0  0  0  0  0
    1.6993    3.0920    2.3191 C   0  0  0  0  0  0  0  0  0  0  0  0
    0.5278    3.0812    3.5136 S   0  0  0  0  0  0  0  0  0  0  0  0
    0.8771    4.6715    4.0237 C   0  0  0  0  0  0  0  0  0  0  0  0
    0.1705    5.3893    5.1350 C   0  0  0  0  0  0  0  0  0  0  0  0
   -1.3477    5.2911    4.9873 C   0  0  0  0  0  0  0  0  0  0  0  0
    1.9266    5.2053    3.2596 C   0  0  0  0  0  0  0  0  0  0  0  0
    2.3526    4.2830    2.3109 C   0  0  0  0  0  0  0  0  0  0  0  0
    3.5242    4.2986    1.1024 S   0  0  0  0  0  0  0  0  0  0  0  0
   -4.9246    1.6098   -1.7240 S   0  0  0  0  0  0  0  0  0  0  0  0
   -6.0015    0.4410   -1.1028 C   0  0  0  0  0  0  0  0  0  0  0  0
   -5.4562   -0.8416   -1.2244 C   0  0  0  0  0  0  0  0  0  0  0  0
   -7.3366    0.7206   -0.5572 C   0  0  0  0  0  0  0  0  0  0  0  0
   -7.5846    1.6056    0.4274 C   0  0  0  0  0  0  0  0  0  0  0  0
   -6.5897    2.1942    1.3352 C   0  0  0  0  0  0  0  0  0  0  0  0
   -5.3392    2.1665    1.1984 O   0  0  0  0  0  0  0  0  0  0  0  0
   -7.2843    2.7085    2.4985 C   0  0  0  0  0  0  0  0  0  0  0  0
   -6.7374    3.2547    3.6623 C   0  0  0  0  0  0  0  0  0  0  0  0
   -7.5929    3.5733    4.7241 C   0  0  0  0  0  0  0  0  0  0  0  0
   -6.9094    4.2599    6.1899 Cl  0  0  0  0  0  0  0  0  0  0  0  0
   -8.9781    3.3232    4.6129 C   0  0  0  0  0  0  0  0  0  0  0  0
  -10.0720    3.6648    5.9468 Cl  0  0  0  0  0  0  0  0  0  0  0  0
   -9.5062    2.7755    3.4294 C   0  0  0  0  0  0  0  0  0  0  0  0
   -8.6457    2.5001    2.3551 C   0  0  0  0  0  0  0  0  0  0  0  0
   -8.9245    1.9092    1.0178 C   0  0  0  0  0  0  0  0  0  0  0  0
  -10.1142    1.9054    0.3656 C   0  0  0  0  0  0  0  0  0  0  0  0
  -11.3291    2.3782    0.9683 C   0  0  0  0  0  0  0  0  0  0  0  0
  -12.3159    2.7592    1.4394 N   0  0  0  0  0  0  0  0  0  0  0  0
  -10.2134    1.5851   -1.0340 C   0  0  0  0  0  0  0  0  0  0  0  0
  -10.2970    1.3322   -2.1626 N   0  0  0  0  0  0  0  0  0  0  0  0
    7.0790   -0.1729    3.3997 H   0  0  0  0  0  0  0  0  0  0  0  0
    8.8981   -5.1258    4.4940 H   0  0  0  0  0  0  0  0  0  0  0  0
    4.9689   -5.6755    1.2747 H   0  0  0  0  0  0  0  0  0  0  0  0
    7.4597   -8.0577    0.8360 H   0  0  0  0  0  0  0  0  0  0  0  0
    5.6067   -9.6152    1.7340 H   0  0  0  0  0  0  0  0  0  0  0  0
    4.6193   -8.6530    4.0050 H   0  0  0  0  0  0  0  0  0  0  0  0
    6.5761   -8.4082    5.7091 H   0  0  0  0  0  0  0  0  0  0  0  0
    8.8155   -9.2200    4.5259 H   0  0  0  0  0  0  0  0  0  0  0  0
    7.0579  -10.9247    3.5147 H   0  0  0  0  0  0  0  0  0  0  0  0
    8.1502  -10.3233    2.1798 H   0  0  0  0  0  0  0  0  0  0  0  0
    9.2415   -7.8568    2.3754 H   0  0  0  0  0  0  0  0  0  0  0  0
   -0.1963   -2.1527   -2.2635 H   0  0  0  0  0  0  0  0  0  0  0  0
   -1.6359   -4.0904   -1.2162 H   0  0  0  0  0  0  0  0  0  0  0  0
   -0.8106   -4.8273    0.9545 H   0  0  0  0  0  0  0  0  0  0  0  0
   -0.1001   -4.0878    3.2514 H   0  0  0  0  0  0  0  0  0  0  0  0
   -0.9351   -2.7149    4.0490 H   0  0  0  0  0  0  0  0  0  0  0  0
   -3.0325   -4.0586    4.2170 H   0  0  0  0  0  0  0  0  0  0  0  0
   -1.6483   -4.8811    5.0324 H   0  0  0  0  0  0  0  0  0  0  0  0
   -2.2007   -5.4582    3.4123 H   0  0  0  0  0  0  0  0  0  0  0  0
   -2.5510   -1.3567    2.8182 H   0  0  0  0  0  0  0  0  0  0  0  0
   -3.4058   -0.6100    0.6679 H   0  0  0  0  0  0  0  0  0  0  0  0
   -2.4220   -2.0143   -4.5795 H   0  0  0  0  0  0  0  0  0  0  0  0
   -3.0690   -3.7721   -6.1352 H   0  0  0  0  0  0  0  0  0  0  0  0
   -5.5779   -6.4036   -5.3992 H   0  0  0  0  0  0  0  0  0  0  0  0
   -4.6230   -5.5949   -6.6826 H   0  0  0  0  0  0  0  0  0  0  0  0
   -3.6259   -7.6626   -4.6272 H   0  0  0  0  0  0  0  0  0  0  0  0
   -3.7400   -7.8422   -6.4207 H   0  0  0  0  0  0  0  0  0  0  0  0
   -2.5130   -6.7246   -5.7066 H   0  0  0  0  0  0  0  0  0  0  0  0
   -5.2497   -5.7733   -3.0052 H   0  0  0  0  0  0  0  0  0  0  0  0
   -4.6192   -4.0069   -1.4333 H   0  0  0  0  0  0  0  0  0  0  0  0
   -1.8801    2.5602   -2.6058 H   0  0  0  0  0  0  0  0  0  0  0  0
   -0.5365    2.8359   -4.7207 H   0  0  0  0  0  0  0  0  0  0  0  0
    0.1684    3.3030   -6.9961 H   0  0  0  0  0  0  0  0  0  0  0  0
    3.5706    4.2396   -8.0035 H   0  0  0  0  0  0  0  0  0  0  0  0
    1.8894    3.9731   -8.5637 H   0  0  0  0  0  0  0  0  0  0  0  0
    4.0472    1.8044   -8.1195 H   0  0  0  0  0  0  0  0  0  0  0  0
    2.3165    1.4568   -8.5333 H   0  0  0  0  0  0  0  0  0  0  0  0
    3.3583    2.3692   -9.6859 H   0  0  0  0  0  0  0  0  0  0  0  0
    4.2946    3.2850   -5.7486 H   0  0  0  0  0  0  0  0  0  0  0  0
    3.6077    2.8163   -3.4728 H   0  0  0  0  0  0  0  0  0  0  0  0
    2.1268    4.8165   -2.4947 H   0  0  0  0  0  0  0  0  0  0  0  0
    1.5626    6.7144   -1.0955 H   0  0  0  0  0  0  0  0  0  0  0  0
   -0.4935    6.5092    1.9717 H   0  0  0  0  0  0  0  0  0  0  0  0
    0.5971    7.5400    1.0085 H   0  0  0  0  0  0  0  0  0  0  0  0
   -1.2442    7.8766   -0.6927 H   0  0  0  0  0  0  0  0  0  0  0  0
   -1.6990    8.4555    0.9559 H   0  0  0  0  0  0  0  0  0  0  0  0
   -2.3477    6.8792    0.3470 H   0  0  0  0  0  0  0  0  0  0  0  0
   -1.2427    4.2876    1.0989 H   0  0  0  0  0  0  0  0  0  0  0  0
   -0.6319    2.3509   -0.2451 H   0  0  0  0  0  0  0  0  0  0  0  0
    5.2880    1.7655    2.1438 H   0  0  0  0  0  0  0  0  0  0  0  0
    1.6830    1.1892    1.2293 H   0  0  0  0  0  0  0  0  0  0  0  0
    0.4599    6.4659    5.1357 H   0  0  0  0  0  0  0  0  0  0  0  0
    0.4742    4.9490    6.1088 H   0  0  0  0  0  0  0  0  0  0  0  0
   -1.6688    5.5816    3.9628 H   0  0  0  0  0  0  0  0  0  0  0  0
   -1.8463    5.9719    5.7154 H   0  0  0  0  0  0  0  0  0  0  0  0
   -1.6875    4.2564    5.2000 H   0  0  0  0  0  0  0  0  0  0  0  0
    2.3396    6.1999    3.3790 H   0  0  0  0  0  0  0  0  0  0  0  0
   -5.9181   -1.7412   -0.8389 H   0  0  0  0  0  0  0  0  0  0  0  0
   -8.1414    0.1062   -0.9388 H   0  0  0  0  0  0  0  0  0  0  0  0
   -5.6658    3.4080    3.7484 H   0  0  0  0  0  0  0  0  0  0  0  0
  -10.5590    2.5486    3.3849 H   0  0  0  0  0  0  0  0  0  0  0  0
  1  2  2  3
  2  3  1  0
  3  4  2  0
  3  5  1  0
  5  6  2  0
  6  7  1  0
  7  8  2  0
  8  9  1  0
  9 10  2  0
 10 11  1  0
 11 12  2  3
 12 13  1  0
 13 14  3  0
 12 15  1  0
 15 16  3  0
  8 17  1  0
 17 18  1  0
 18 19  1  0
 19 20  2  0
 20 21  1  0
 21 22  1  0
 21 23  1  0
  1 24  1  0
 24 25  1  0
 25 26  1  0
 26 27  1  0
 27 28  1  0
 28 29  1  0
 29 30  1  0
 30 31  2  0
 31 32  1  0
 32 33  1  0
 33 34  1  0
 34 35  2  0
 35 36  1  0
 36 37  2  0
 37 38  1  0
 38 39  1  0
 37 40  1  0
 40 41  2  0
 33 42  1  0
 42 43  2  0
 43 44  1  0
 44 45  2  0
 45 46  1  0
 46 47  1  0
 45 48  1  0
 48 49  2  0
 33 50  1  0
 50 51  2  0
 51 52  1  0
 52 53  1  0
 53 54  2  0
 54 55  1  0
 55 56  1  0
 56 57  2  0
 57 58  1  0
 58 59  2  0
 59 60  1  0
 60 61  1  0
 59 62  1  0
 62 63  2  0
 55 64  1  0
 64 65  2  0
 65 66  1  0
 66 67  2  0
 67 68  1  0
 68 69  1  0
 67 70  1  0
 70 71  2  0
 55 72  1  0
 72 73  1  0
 73 74  1  0
 74 75  1  0
 75 76  1  0
 74 77  1  0
 77 78  2  0
 78 79  1  0
 79 80  1  0
 80 81  1  0
 81 82  1  0
 82 83  1  0
 81 84  2  0
 84 85  1  0
 85 86  1  0
 51 87  1  0
 87 88  1  0
 88 89  2  0
 88 90  1  0
 90 91  2  3
 91 92  1  0
 92 93  2  0
 92 94  1  0
 94 95  2  0
 95 96  1  0
 96 97  1  0
 96 98  2  0
 98 99  1  0
 98100  1  0
100101  2  0
101102  1  0
102103  2  3
103104  1  0
104105  3  0
103106  1  0
106107  3  0
 11  2  1  0
 23 17  1  0
 76 24  2  0
 86 77  1  0
102 91  1  0
 10  5  1  0
 22 18  1  0
 75 26  2  0
 85 79  2  0
101 94  1  0
 23  7  1  0
 73 27  2  0
 72 29  2  0
 54 30  1  0
 63 56  1  0
 71 64  1  0
 52 32  2  0
 41 34  1  0
 49 42  1  0
 89 50  1  0
  1108  1  0
  6109  1  0
  9110  1  0
 17111  1  0
 18112  1  0
 19113  1  0
 20114  1  0
 21115  1  0
 22116  1  0
 22117  1  0
 23118  1  0
 31119  1  0
 35120  1  0
 36121  1  0
 38122  1  0
 38123  1  0
 39124  1  0
 39125  1  0
 39126  1  0
 40127  1  0
 41128  1  0
 43129  1  0
 44130  1  0
 46131  1  0
 46132  1  0
 47133  1  0
 47134  1  0
 47135  1  0
 48136  1  0
 49137  1  0
 53138  1  0
 57139  1  0
 58140  1  0
 60141  1  0
 60142  1  0
 61143  1  0
 61144  1  0
 61145  1  0
 62146  1  0
 63147  1  0
 65148  1  0
 66149  1  0
 68150  1  0
 68151  1  0
 69152  1  0
 69153  1  0
 69154  1  0
 70155  1  0
 71156  1  0
 76157  1  0
 78158  1  0
 82159  1  0
 82160  1  0
 83161  1  0
 83162  1  0
 83163  1  0
 84164  1  0
 89165  1  0
 90166  1  0
 95167  1  0
100168  1  0
M  END

