
     RDKit          3D

181203  0  0  0  0  0  0  0  0999 V2000
   -2.1317   -6.2475    4.8014 C   0  0  0  0  0  0  0  0  0  0  0  0
   -2.1228   -7.5279    4.3789 C   0  0  0  0  0  0  0  0  0  0  0  0
   -2.7782   -8.0683    3.1817 C   0  0  0  0  0  0  0  0  0  0  0  0
   -3.9614   -7.8439    2.8167 O   0  0  0  0  0  0  0  0  0  0  0  0
   -1.9084   -9.0664    2.5947 C   0  0  0  0  0  0  0  0  0  0  0  0
   -1.9611   -9.5661    1.2738 C   0  0  0  0  0  0  0  0  0  0  0  0
   -0.8304  -10.2655    0.8987 C   0  0  0  0  0  0  0  0  0  0  0  0
    0.2854  -10.4815    1.7744 C   0  0  0  0  0  0  0  0  0  0  0  0
    0.3317  -10.0175    3.0774 C   0  0  0  0  0  0  0  0  0  0  0  0
   -0.8240   -9.2962    3.4809 C   0  0  0  0  0  0  0  0  0  0  0  0
   -1.0264   -8.4841    4.7038 C   0  0  0  0  0  0  0  0  0  0  0  0
   -0.4707   -8.7038    5.9232 C   0  0  0  0  0  0  0  0  0  0  0  0
    0.4267   -9.8028    6.1636 C   0  0  0  0  0  0  0  0  0  0  0  0
    1.1336  -10.6928    6.3689 N   0  0  0  0  0  0  0  0  0  0  0  0
   -0.8996   -7.9791    7.0939 C   0  0  0  0  0  0  0  0  0  0  0  0
   -1.2391   -7.4058    8.0411 N   0  0  0  0  0  0  0  0  0  0  0  0
    1.0557  -11.1174    0.6593 C   0  0  0  0  0  0  0  0  0  0  0  0
    2.1843  -10.2461    0.0322 C   0  0  0  0  0  0  0  0  0  0  0  0
    2.5404  -10.9061   -1.2759 C   0  0  0  0  0  0  0  0  0  0  0  0
    1.5016  -10.7080   -2.0957 C   0  0  0  0  0  0  0  0  0  0  0  0
    0.4807   -9.9205   -1.3118 C   0  0  0  0  0  0  0  0  0  0  0  0
    1.4308   -9.0443   -0.5131 C   0  0  0  0  0  0  0  0  0  0  0  0
   -0.0835  -10.8975   -0.2381 C   0  0  0  0  0  0  0  0  0  0  0  0
   -2.7546   -5.0783    4.1342 C   0  0  0  0  0  0  0  0  0  0  0  0
   -3.5245   -5.0181    2.6032 S   0  0  0  0  0  0  0  0  0  0  0  0
   -3.6244   -3.3494    2.5900 C   0  0  0  0  0  0  0  0  0  0  0  0
   -3.6609   -2.3770    1.6406 C   0  0  0  0  0  0  0  0  0  0  0  0
   -3.7504   -2.3176   -0.0488 S   0  0  0  0  0  0  0  0  0  0  0  0
   -3.1462   -0.7297   -0.0150 C   0  0  0  0  0  0  0  0  0  0  0  0
   -2.6889    0.2010   -1.0074 C   0  0  0  0  0  0  0  0  0  0  0  0
   -2.4575   -0.0130   -2.3740 C   0  0  0  0  0  0  0  0  0  0  0  0
   -1.6826    0.9470   -3.0505 C   0  0  0  0  0  0  0  0  0  0  0  0
   -1.0466    0.8454   -4.4436 C   0  0  0  0  0  0  0  0  0  0  0  0
   -2.1661    0.9684   -5.4817 C   0  0  0  0  0  0  0  0  0  0  0  0
   -2.9679   -0.1528   -5.7808 C   0  0  0  0  0  0  0  0  0  0  0  0
   -4.0503   -0.0480   -6.6546 C   0  0  0  0  0  0  0  0  0  0  0  0
   -4.3642    1.1785   -7.2560 C   0  0  0  0  0  0  0  0  0  0  0  0
   -5.5698    1.3032   -8.1424 C   0  0  0  0  0  0  0  0  0  0  0  0
   -6.8257    1.5592   -7.3144 C   0  0  0  0  0  0  0  0  0  0  0  0
   -3.5890    2.3080   -6.9493 C   0  0  0  0  0  0  0  0  0  0  0  0
   -2.5073    2.2063   -6.0719 C   0  0  0  0  0  0  0  0  0  0  0  0
   -0.1760   -0.4046   -4.6231 C   0  0  0  0  0  0  0  0  0  0  0  0
    0.4315   -1.0442   -3.5203 C   0  0  0  0  0  0  0  0  0  0  0  0
    1.2533   -2.1599   -3.7038 C   0  0  0  0  0  0  0  0  0  0  0  0
    1.5055   -2.6526   -4.9918 C   0  0  0  0  0  0  0  0  0  0  0  0
    2.4073   -3.8399   -5.1936 C   0  0  0  0  0  0  0  0  0  0  0  0
    3.8489   -3.3955   -5.4238 C   0  0  0  0  0  0  0  0  0  0  0  0
    0.9643   -1.9803   -6.0982 C   0  0  0  0  0  0  0  0  0  0  0  0
    0.1486   -0.8633   -5.9188 C   0  0  0  0  0  0  0  0  0  0  0  0
   -0.1404    2.0638   -4.3860 C   0  0  0  0  0  0  0  0  0  0  0  0
   -0.3399    2.7734   -3.2473 C   0  0  0  0  0  0  0  0  0  0  0  0
   -1.2355    2.0812   -2.3763 C   0  0  0  0  0  0  0  0  0  0  0  0
   -1.4044    2.2592   -1.0079 C   0  0  0  0  0  0  0  0  0  0  0  0
   -2.1531    1.2952   -0.3175 C   0  0  0  0  0  0  0  0  0  0  0  0
   -2.2164    1.1193    1.2027 C   0  0  0  0  0  0  0  0  0  0  0  0
   -0.7876    1.1896    1.7541 C   0  0  0  0  0  0  0  0  0  0  0  0
   -0.3554    2.2531    2.5723 C   0  0  0  0  0  0  0  0  0  0  0  0
    0.9770    2.3416    2.9839 C   0  0  0  0  0  0  0  0  0  0  0  0
    1.9102    1.3765    2.5835 C   0  0  0  0  0  0  0  0  0  0  0  0
    3.3325    1.4384    3.0665 C   0  0  0  0  0  0  0  0  0  0  0  0
    4.2583    1.9995    1.9929 C   0  0  0  0  0  0  0  0  0  0  0  0
    1.5037    0.3456    1.7253 C   0  0  0  0  0  0  0  0  0  0  0  0
    0.1734    0.2535    1.3129 C   0  0  0  0  0  0  0  0  0  0  0  0
   -3.1949    2.1189    1.8604 C   0  0  0  0  0  0  0  0  0  0  0  0
   -3.7765    1.8308    3.1115 C   0  0  0  0  0  0  0  0  0  0  0  0
   -4.5678    2.7661    3.7812 C   0  0  0  0  0  0  0  0  0  0  0  0
   -4.8041    4.0256    3.2149 C   0  0  0  0  0  0  0  0  0  0  0  0
   -5.6427    5.0423    3.9355 C   0  0  0  0  0  0  0  0  0  0  0  0
   -7.0832    5.0101    3.4353 C   0  0  0  0  0  0  0  0  0  0  0  0
   -4.2690    4.3183    1.9572 C   0  0  0  0  0  0  0  0  0  0  0  0
   -3.4620    3.3895    1.2956 C   0  0  0  0  0  0  0  0  0  0  0  0
   -2.7930   -0.2909    1.2401 C   0  0  0  0  0  0  0  0  0  0  0  0
   -3.0604   -1.2770    2.1961 C   0  0  0  0  0  0  0  0  0  0  0  0
   -2.5732   -1.5388    3.4490 N   0  0  0  0  0  0  0  0  0  0  0  0
   -2.9837   -2.8199    3.6604 C   0  0  0  0  0  0  0  0  0  0  0  0
   -2.4949   -3.7674    4.5629 C   0  0  0  0  0  0  0  0  0  0  0  0
   -1.3501   -1.0263    3.9947 C   0  0  0  0  0  0  0  0  0  0  0  0
   -1.2530    0.0210    4.9235 C   0  0  0  0  0  0  0  0  0  0  0  0
    0.0441    0.0935    5.4318 C   0  0  0  0  0  0  0  0  0  0  0  0
    0.8016    1.0458    6.5897 S   0  0  0  0  0  0  0  0  0  0  0  0
    2.2770    0.1929    6.4986 C   0  0  0  0  0  0  0  0  0  0  0  0
    3.4590    0.4400    7.3916 C   0  0  0  0  0  0  0  0  0  0  0  0
    4.7580    0.5529    6.6023 C   0  0  0  0  0  0  0  0  0  0  0  0
    2.1659   -0.8546    5.5734 C   0  0  0  0  0  0  0  0  0  0  0  0
    0.9038   -0.8600    4.9949 C   0  0  0  0  0  0  0  0  0  0  0  0
    0.1347   -1.8718    3.9085 S   0  0  0  0  0  0  0  0  0  0  0  0
    0.9145    3.8241   -2.9686 S   0  0  0  0  0  0  0  0  0  0  0  0
    1.7120    3.4641   -4.4285 C   0  0  0  0  0  0  0  0  0  0  0  0
    1.0262    2.4244   -5.0789 C   0  0  0  0  0  0  0  0  0  0  0  0
    3.0977    3.8919   -4.7141 C   0  0  0  0  0  0  0  0  0  0  0  0
    3.5879    5.0413   -4.2164 C   0  0  0  0  0  0  0  0  0  0  0  0
    4.8322    5.0727   -3.4437 C   0  0  0  0  0  0  0  0  0  0  0  0
    5.8112    4.2968   -3.5939 O   0  0  0  0  0  0  0  0  0  0  0  0
    4.6716    6.0247   -2.3540 C   0  0  0  0  0  0  0  0  0  0  0  0
    5.4560    6.1113   -1.1791 C   0  0  0  0  0  0  0  0  0  0  0  0
    4.8837    6.8812   -0.1810 C   0  0  0  0  0  0  0  0  0  0  0  0
    3.6221    7.5444   -0.3268 C   0  0  0  0  0  0  0  0  0  0  0  0
    2.8535    7.4708   -1.4719 C   0  0  0  0  0  0  0  0  0  0  0  0
    3.4204    6.6797   -2.5032 C   0  0  0  0  0  0  0  0  0  0  0  0
    2.7797    6.1975   -3.7450 C   0  0  0  0  0  0  0  0  0  0  0  0
    1.8004    6.8035   -4.4584 C   0  0  0  0  0  0  0  0  0  0  0  0
    1.0931    7.9612   -3.9730 C   0  0  0  0  0  0  0  0  0  0  0  0
    0.5082    8.8859   -3.5926 N   0  0  0  0  0  0  0  0  0  0  0  0
    1.4425    6.3434   -5.7760 C   0  0  0  0  0  0  0  0  0  0  0  0
    1.1582    5.9790   -6.8373 N   0  0  0  0  0  0  0  0  0  0  0  0
    3.6687    7.9965    1.0993 C   0  0  0  0  0  0  0  0  0  0  0  0
    2.7295    7.2390    2.0866 C   0  0  0  0  0  0  0  0  0  0  0  0
    3.2264    7.5724    3.4693 C   0  0  0  0  0  0  0  0  0  0  0  0
    4.4021    6.9493    3.6125 C   0  0  0  0  0  0  0  0  0  0  0  0
    4.6554    6.2114    2.3184 C   0  0  0  0  0  0  0  0  0  0  0  0
    3.2242    5.8066    1.9980 C   0  0  0  0  0  0  0  0  0  0  0  0
    4.9584    7.3091    1.2532 C   0  0  0  0  0  0  0  0  0  0  0  0
   -1.4689   -5.9799    5.6116 H   0  0  0  0  0  0  0  0  0  0  0  0
   -2.7526   -9.3228    0.5782 H   0  0  0  0  0  0  0  0  0  0  0  0
    1.2284  -10.1056    3.6753 H   0  0  0  0  0  0  0  0  0  0  0  0
    1.3085  -12.1859    0.8369 H   0  0  0  0  0  0  0  0  0  0  0  0
    3.0415  -10.0202    0.6991 H   0  0  0  0  0  0  0  0  0  0  0  0
    3.4870  -11.3637   -1.5459 H   0  0  0  0  0  0  0  0  0  0  0  0
    1.4625  -10.9770   -3.1462 H   0  0  0  0  0  0  0  0  0  0  0  0
   -0.2753   -9.3849   -1.9223 H   0  0  0  0  0  0  0  0  0  0  0  0
    0.9359   -8.4211    0.2633 H   0  0  0  0  0  0  0  0  0  0  0  0
    2.0612   -8.3754   -1.1493 H   0  0  0  0  0  0  0  0  0  0  0  0
   -0.5608  -11.8254   -0.6273 H   0  0  0  0  0  0  0  0  0  0  0  0
   -2.7553   -0.9370   -2.8526 H   0  0  0  0  0  0  0  0  0  0  0  0
   -2.7594   -1.1117   -5.3258 H   0  0  0  0  0  0  0  0  0  0  0  0
   -4.6548   -0.9245   -6.8582 H   0  0  0  0  0  0  0  0  0  0  0  0
   -5.7031    0.3713   -8.7335 H   0  0  0  0  0  0  0  0  0  0  0  0
   -5.4347    2.1385   -8.8644 H   0  0  0  0  0  0  0  0  0  0  0  0
   -7.0019    0.7189   -6.6080 H   0  0  0  0  0  0  0  0  0  0  0  0
   -6.7228    2.5040   -6.7378 H   0  0  0  0  0  0  0  0  0  0  0  0
   -7.7058    1.6474   -7.9853 H   0  0  0  0  0  0  0  0  0  0  0  0
   -3.8330    3.2695   -7.3823 H   0  0  0  0  0  0  0  0  0  0  0  0
   -1.9525    3.1052   -5.8508 H   0  0  0  0  0  0  0  0  0  0  0  0
    0.2778   -0.6865   -2.5116 H   0  0  0  0  0  0  0  0  0  0  0  0
    1.6918   -2.6410   -2.8383 H   0  0  0  0  0  0  0  0  0  0  0  0
    2.3668   -4.5118   -4.3086 H   0  0  0  0  0  0  0  0  0  0  0  0
    2.0621   -4.4320   -6.0723 H   0  0  0  0  0  0  0  0  0  0  0  0
    4.2407   -2.8748   -4.5252 H   0  0  0  0  0  0  0  0  0  0  0  0
    3.9121   -2.7166   -6.3011 H   0  0  0  0  0  0  0  0  0  0  0  0
    4.4831   -4.2860   -5.6249 H   0  0  0  0  0  0  0  0  0  0  0  0
    1.1735   -2.3273   -7.1012 H   0  0  0  0  0  0  0  0  0  0  0  0
   -0.2350   -0.3571   -6.7944 H   0  0  0  0  0  0  0  0  0  0  0  0
   -0.9001    3.0602   -0.4815 H   0  0  0  0  0  0  0  0  0  0  0  0
   -1.0374    3.0250    2.8985 H   0  0  0  0  0  0  0  0  0  0  0  0
    1.2760    3.1597    3.6254 H   0  0  0  0  0  0  0  0  0  0  0  0
    3.6766    0.4173    3.3483 H   0  0  0  0  0  0  0  0  0  0  0  0
    3.4030    2.0756    3.9749 H   0  0  0  0  0  0  0  0  0  0  0  0
    3.9550    3.0321    1.7243 H   0  0  0  0  0  0  0  0  0  0  0  0
    4.2283    1.3607    1.0828 H   0  0  0  0  0  0  0  0  0  0  0  0
    5.2983    2.0203    2.3760 H   0  0  0  0  0  0  0  0  0  0  0  0
    2.2140   -0.3987    1.3900 H   0  0  0  0  0  0  0  0  0  0  0  0
   -0.1072   -0.5474    0.6420 H   0  0  0  0  0  0  0  0  0  0  0  0
   -3.6176    0.8833    3.5895 H   0  0  0  0  0  0  0  0  0  0  0  0
   -4.9918    2.5092    4.7424 H   0  0  0  0  0  0  0  0  0  0  0  0
   -5.6322    4.8471    5.0327 H   0  0  0  0  0  0  0  0  0  0  0  0
   -5.2206    6.0581    3.7803 H   0  0  0  0  0  0  0  0  0  0  0  0
   -7.5303    4.0086    3.6188 H   0  0  0  0  0  0  0  0  0  0  0  0
   -7.6757    5.7744    3.9760 H   0  0  0  0  0  0  0  0  0  0  0  0
   -7.1151    5.2344    2.3448 H   0  0  0  0  0  0  0  0  0  0  0  0
   -4.4535    5.2818    1.4947 H   0  0  0  0  0  0  0  0  0  0  0  0
   -3.0569    3.6882    0.3442 H   0  0  0  0  0  0  0  0  0  0  0  0
   -1.8857   -3.5222    5.4228 H   0  0  0  0  0  0  0  0  0  0  0  0
   -2.0680    0.6521    5.2486 H   0  0  0  0  0  0  0  0  0  0  0  0
    3.2988    1.3814    7.9627 H   0  0  0  0  0  0  0  0  0  0  0  0
    3.5427   -0.3968    8.1203 H   0  0  0  0  0  0  0  0  0  0  0  0
    4.9860   -0.4030    6.0823 H   0  0  0  0  0  0  0  0  0  0  0  0
    4.6904    1.3708    5.8561 H   0  0  0  0  0  0  0  0  0  0  0  0
    5.5954    0.7825    7.2950 H   0  0  0  0  0  0  0  0  0  0  0  0
    2.9308   -1.5874    5.3712 H   0  0  0  0  0  0  0  0  0  0  0  0
    1.4044    1.9010   -5.9476 H   0  0  0  0  0  0  0  0  0  0  0  0
    3.7830    3.1233   -5.0419 H   0  0  0  0  0  0  0  0  0  0  0  0
    6.3602    5.5394   -1.0217 H   0  0  0  0  0  0  0  0  0  0  0  0
    1.8527    7.8816   -1.4978 H   0  0  0  0  0  0  0  0  0  0  0  0
    3.7107    9.1023    1.2190 H   0  0  0  0  0  0  0  0  0  0  0  0
    1.6402    7.3841    1.9229 H   0  0  0  0  0  0  0  0  0  0  0  0
    2.6999    8.1173    4.2438 H   0  0  0  0  0  0  0  0  0  0  0  0
    4.9915    6.9026    4.5209 H   0  0  0  0  0  0  0  0  0  0  0  0
    5.3937    5.3840    2.3774 H   0  0  0  0  0  0  0  0  0  0  0  0
    2.7712    5.1323    2.7650 H   0  0  0  0  0  0  0  0  0  0  0  0
    3.0966    5.3383    0.9955 H   0  0  0  0  0  0  0  0  0  0  0  0
    5.8187    7.9762    1.4784 H   0  0  0  0  0  0  0  0  0  0  0  0
  1  2  2  3
  2  3  1  0
  3  4  2  0
  3  5  1  0
  5  6  2  0
  6  7  1  0
  7  8  2  0
  8  9  1  0
  9 10  2  0
 10 11  1  0
 11 12  2  3
 12 13  1  0
 13 14  3  0
 12 15  1  0
 15 16  3  0
  8 17  1  0
 17 18  1  0
 18 19  1  0
 19 20  2  0
 20 21  1  0
 21 22  1  0
 21 23  1  0
  1 24  1  0
 24 25  1  0
 25 26  1  0
 26 27  1  0
 27 28  1  0
 28 29  1  0
 29 30  1  0
 30 31  2  0
 31 32  1  0
 32 33  1  0
 33 34  1  0
 34 35  2  0
 35 36  1  0
 36 37  2  0
 37 38  1  0
 38 39  1  0
 37 40  1  0
 40 41  2  0
 33 42  1  0
 42 43  2  0
 43 44  1  0
 44 45  2  0
 45 46  1  0
 46 47  1  0
 45 48  1  0
 48 49  2  0
 33 50  1  0
 50 51  2  0
 51 52  1  0
 52 53  1  0
 53 54  2  0
 54 55  1  0
 55 56  1  0
 56 57  2  0
 57 58  1  0
 58 59  2  0
 59 60  1  0
 60 61  1  0
 59 62  1  0
 62 63  2  0
 55 64  1  0
 64 65  2  0
 65 66  1  0
 66 67  2  0
 67 68  1  0
 68 69  1  0
 67 70  1  0
 70 71  2  0
 55 72  1  0
 72 73  1  0
 73 74  1  0
 74 75  1  0
 75 76  1  0
 74 77  1  0
 77 78  2  0
 78 79  1  0
 79 80  1  0
 80 81  1  0
 81 82  1  0
 82 83  1  0
 81 84  2  0
 84 85  1  0
 85 86  1  0
 51 87  1  0
 87 88  1  0
 88 89  2  0
 88 90  1  0
 90 91  2  3
 91 92  1  0
 92 93  2  0
 92 94  1  0
 94 95  2  0
 95 96  1  0
 96 97  2  0
 97 98  1  0
 98 99  2  0
 99100  1  0
100101  2  3
101102  1  0
102103  3  0
101104  1  0
104105  3  0
 97106  1  0
106107  1  0
107108  1  0
108109  2  0
109110  1  0
110111  1  0
110112  1  0
 11  2  1  0
 23 17  1  0
 76 24  2  0
 86 77  1  0
100 91  1  0
112106  1  0
 10  5  1  0
 22 18  1  0
 75 26  2  0
 85 79  2  0
 99 94  1  0
111107  1  0
 23  7  1  0
 73 27  2  0
112 96  1  0
 72 29  2  0
 54 30  1  0
 63 56  1  0
 71 64  1  0
 52 32  2  0
 41 34  1  0
 49 42  1  0
 89 50  1  0
  1113  1  0
  6114  1  0
  9115  1  0
 17116  1  0
 18117  1  0
 19118  1  0
 20119  1  0
 21120  1  0
 22121  1  0
 22122  1  0
 23123  1  0
 31124  1  0
 35125  1  0
 36126  1  0
 38127  1  0
 38128  1  0
 39129  1  0
 39130  1  0
 39131  1  0
 40132  1  0
 41133  1  0
 43134  1  0
 44135  1  0
 46136  1  0
 46137  1  0
 47138  1  0
 47139  1  0
 47140  1  0
 48141  1  0
 49142  1  0
 53143  1  0
 57144  1  0
 58145  1  0
 60146  1  0
 60147  1  0
 61148  1  0
 61149  1  0
 61150  1  0
 62151  1  0
 63152  1  0
 65153  1  0
 66154  1  0
 68155  1  0
 68156  1  0
 69157  1  0
 69158  1  0
 69159  1  0
 70160  1  0
 71161  1  0
 76162  1  0
 78163  1  0
 82164  1  0
 82165  1  0
 83166  1  0
 83167  1  0
 83168  1  0
 84169  1  0
 89170  1  0
 90171  1  0
 95172  1  0
 98173  1  0
106174  1  0
107175  1  0
108176  1  0
109177  1  0
110178  1  0
111179  1  0
111180  1  0
112181  1  0
M  END

