
     RDKit          3D

167186  0  0  0  0  0  0  0  0999 V2000
    6.6779   -0.8955   -4.8243 C   0  0  0  0  0  0  0  0  0  0  0  0
    8.0125   -0.9194   -4.6454 C   0  0  0  0  0  0  0  0  0  0  0  0
    8.7212   -1.7664   -3.6818 C   0  0  0  0  0  0  0  0  0  0  0  0
    8.3822   -2.9280   -3.3267 O   0  0  0  0  0  0  0  0  0  0  0  0
    9.8810   -1.0511   -3.1997 C   0  0  0  0  0  0  0  0  0  0  0  0
   10.6605   -1.3736   -2.0638 C   0  0  0  0  0  0  0  0  0  0  0  0
   11.4888   -0.3475   -1.6495 C   0  0  0  0  0  0  0  0  0  0  0  0
   11.5596    0.9203   -2.3122 C   0  0  0  0  0  0  0  0  0  0  0  0
   10.8316    1.2250   -3.4509 C   0  0  0  0  0  0  0  0  0  0  0  0
    9.9850    0.1727   -3.9087 C   0  0  0  0  0  0  0  0  0  0  0  0
    8.9282    0.2144   -4.9551 C   0  0  0  0  0  0  0  0  0  0  0  0
    8.9194    0.9898   -6.0623 C   0  0  0  0  0  0  0  0  0  0  0  0
    7.9693    0.7866   -7.1262 C   0  0  0  0  0  0  0  0  0  0  0  0
    7.2083    0.6246   -7.9878 N   0  0  0  0  0  0  0  0  0  0  0  0
    9.9304    1.9838   -6.3098 C   0  0  0  0  0  0  0  0  0  0  0  0
   10.7410    2.7824   -6.5207 N   0  0  0  0  0  0  0  0  0  0  0  0
   12.4712    1.4486   -1.2408 C   0  0  0  0  0  0  0  0  0  0  0  0
   11.8610    2.4203   -0.1894 C   0  0  0  0  0  0  0  0  0  0  0  0
   10.3935    2.0956    0.0320 C   0  0  0  0  0  0  0  0  0  0  0  0
   10.3585    0.9133    0.6515 C   0  0  0  0  0  0  0  0  0  0  0  0
   11.7908    0.4713    0.8190 C   0  0  0  0  0  0  0  0  0  0  0  0
   12.4342    1.8242    1.0799 C   0  0  0  0  0  0  0  0  0  0  0  0
   12.4156    0.1418   -0.5734 C   0  0  0  0  0  0  0  0  0  0  0  0
    5.7178   -1.5594   -3.9245 C   0  0  0  0  0  0  0  0  0  0  0  0
    4.1115   -1.9447   -4.3879 S   0  0  0  0  0  0  0  0  0  0  0  0
    3.6513   -2.2557   -2.8084 C   0  0  0  0  0  0  0  0  0  0  0  0
    2.5307   -2.4635   -2.0648 C   0  0  0  0  0  0  0  0  0  0  0  0
    0.8573   -2.5406   -2.2719 S   0  0  0  0  0  0  0  0  0  0  0  0
    0.6444   -2.4988   -0.5781 C   0  0  0  0  0  0  0  0  0  0  0  0
   -0.4519   -2.0649    0.2436 C   0  0  0  0  0  0  0  0  0  0  0  0
   -1.8046   -1.9259   -0.0819 C   0  0  0  0  0  0  0  0  0  0  0  0
   -2.6005   -1.2012    0.8142 C   0  0  0  0  0  0  0  0  0  0  0  0
   -4.0883   -0.8911    0.6982 C   0  0  0  0  0  0  0  0  0  0  0  0
   -4.9952   -2.0233    1.2013 C   0  0  0  0  0  0  0  0  0  0  0  0
   -6.3974   -1.8379    1.1894 C   0  0  0  0  0  0  0  0  0  0  0  0
   -7.2525   -2.7709    1.7757 C   0  0  0  0  0  0  0  0  0  0  0  0
   -6.7365   -3.9211    2.3857 C   0  0  0  0  0  0  0  0  0  0  0  0
   -7.6665   -4.8935    3.0624 C   0  0  0  0  0  0  0  0  0  0  0  0
   -7.9670   -4.4597    4.4943 C   0  0  0  0  0  0  0  0  0  0  0  0
   -5.3457   -4.1210    2.4121 C   0  0  0  0  0  0  0  0  0  0  0  0
   -4.4832   -3.1864    1.8278 C   0  0  0  0  0  0  0  0  0  0  0  0
   -4.4208   -0.4112   -0.7262 C   0  0  0  0  0  0  0  0  0  0  0  0
   -5.0981   -1.2433   -1.6416 C   0  0  0  0  0  0  0  0  0  0  0  0
   -5.4581   -0.7732   -2.9064 C   0  0  0  0  0  0  0  0  0  0  0  0
   -5.1071    0.5229   -3.3077 C   0  0  0  0  0  0  0  0  0  0  0  0
   -5.5397    1.0458   -4.6501 C   0  0  0  0  0  0  0  0  0  0  0  0
   -7.0128    1.4491   -4.6369 C   0  0  0  0  0  0  0  0  0  0  0  0
   -4.3573    1.3292   -2.4425 C   0  0  0  0  0  0  0  0  0  0  0  0
   -3.9933    0.8586   -1.1742 C   0  0  0  0  0  0  0  0  0  0  0  0
   -4.1689    0.2013    1.7383 C   0  0  0  0  0  0  0  0  0  0  0  0
   -3.0117    0.3459    2.4578 C   0  0  0  0  0  0  0  0  0  0  0  0
   -2.0193   -0.5462    1.9014 C   0  0  0  0  0  0  0  0  0  0  0  0
   -0.6817   -0.7343    2.2590 C   0  0  0  0  0  0  0  0  0  0  0  0
    0.0897   -1.5782    1.4355 C   0  0  0  0  0  0  0  0  0  0  0  0
    1.5772   -1.9037    1.5564 C   0  0  0  0  0  0  0  0  0  0  0  0
    2.3426   -0.6451    1.9755 C   0  0  0  0  0  0  0  0  0  0  0  0
    2.2650    0.5134    1.1722 C   0  0  0  0  0  0  0  0  0  0  0  0
    2.7891    1.7317    1.6104 C   0  0  0  0  0  0  0  0  0  0  0  0
    3.3922    1.8246    2.8744 C   0  0  0  0  0  0  0  0  0  0  0  0
    3.8939    3.1472    3.3783 C   0  0  0  0  0  0  0  0  0  0  0  0
    5.3925    3.2990    3.1427 C   0  0  0  0  0  0  0  0  0  0  0  0
    3.5165    0.6733    3.6610 C   0  0  0  0  0  0  0  0  0  0  0  0
    2.9958   -0.5447    3.2219 C   0  0  0  0  0  0  0  0  0  0  0  0
    1.7599   -3.1296    2.4761 C   0  0  0  0  0  0  0  0  0  0  0  0
    1.0235   -3.2466    3.6777 C   0  0  0  0  0  0  0  0  0  0  0  0
    1.0458   -4.4302    4.4290 C   0  0  0  0  0  0  0  0  0  0  0  0
    1.8268   -5.5140    4.0155 C   0  0  0  0  0  0  0  0  0  0  0  0
    1.8017   -6.8171    4.7768 C   0  0  0  0  0  0  0  0  0  0  0  0
    2.9892   -6.9262    5.7266 C   0  0  0  0  0  0  0  0  0  0  0  0
    2.6358   -5.3824    2.8801 C   0  0  0  0  0  0  0  0  0  0  0  0
    2.6101   -4.2053    2.1268 C   0  0  0  0  0  0  0  0  0  0  0  0
    1.8261   -2.3137    0.1160 C   0  0  0  0  0  0  0  0  0  0  0  0
    2.9116   -2.3179   -0.7601 C   0  0  0  0  0  0  0  0  0  0  0  0
    4.2415   -2.0204   -0.6390 N   0  0  0  0  0  0  0  0  0  0  0  0
    4.6602   -2.0198   -1.9335 C   0  0  0  0  0  0  0  0  0  0  0  0
    5.8510   -1.6117   -2.5179 C   0  0  0  0  0  0  0  0  0  0  0  0
    5.0735   -1.9436    0.5644 C   0  0  0  0  0  0  0  0  0  0  0  0
    5.6724   -0.5504    0.7485 C   0  0  0  0  0  0  0  0  0  0  0  0
   -2.9029    1.9143    3.1284 S   0  0  0  0  0  0  0  0  0  0  0  0
   -4.4588    2.3301    2.5845 C   0  0  0  0  0  0  0  0  0  0  0  0
   -5.1405    3.5480    2.4728 C   0  0  0  0  0  0  0  0  0  0  0  0
   -6.2586    3.4195    1.6261 C   0  0  0  0  0  0  0  0  0  0  0  0
   -6.3070    1.8415    0.9927 S   0  0  0  0  0  0  0  0  0  0  0  0
   -4.9890    1.3092    1.8520 C   0  0  0  0  0  0  0  0  0  0  0  0
   -7.0333    4.5439    1.0736 C   0  0  0  0  0  0  0  0  0  0  0  0
   -8.1783    4.3849    0.3772 C   0  0  0  0  0  0  0  0  0  0  0  0
   -8.5056    5.2045   -0.7931 C   0  0  0  0  0  0  0  0  0  0  0  0
   -8.0723    6.3595   -1.0336 O   0  0  0  0  0  0  0  0  0  0  0  0
   -9.3347    4.4102   -1.6756 C   0  0  0  0  0  0  0  0  0  0  0  0
   -9.7104    4.6927   -2.9920 C   0  0  0  0  0  0  0  0  0  0  0  0
  -10.4196    3.7152   -3.7164 C   0  0  0  0  0  0  0  0  0  0  0  0
  -10.8120    3.9526   -5.0436 C   0  0  0  0  0  0  0  0  0  0  0  0
  -11.5144    2.9731   -5.7558 C   0  0  0  0  0  0  0  0  0  0  0  0
  -11.8815    3.2048   -7.0410 F   0  0  0  0  0  0  0  0  0  0  0  0
  -11.8288    1.7502   -5.1498 C   0  0  0  0  0  0  0  0  0  0  0  0
  -12.5154    0.8045   -5.8420 F   0  0  0  0  0  0  0  0  0  0  0  0
  -11.4353    1.4936   -3.8342 C   0  0  0  0  0  0  0  0  0  0  0  0
  -10.7301    2.4640   -3.1077 C   0  0  0  0  0  0  0  0  0  0  0  0
  -10.3043    2.2014   -1.7918 C   0  0  0  0  0  0  0  0  0  0  0  0
   -9.6277    3.1972   -1.0781 C   0  0  0  0  0  0  0  0  0  0  0  0
   -9.0426    3.1707    0.2848 C   0  0  0  0  0  0  0  0  0  0  0  0
   -9.4737    2.4293    1.3322 C   0  0  0  0  0  0  0  0  0  0  0  0
  -10.4307    1.3624    1.1921 C   0  0  0  0  0  0  0  0  0  0  0  0
  -11.1932    0.4942    1.1001 N   0  0  0  0  0  0  0  0  0  0  0  0
   -9.0793    2.7392    2.6833 C   0  0  0  0  0  0  0  0  0  0  0  0
   -8.7725    2.9832    3.7702 N   0  0  0  0  0  0  0  0  0  0  0  0
    6.2435   -0.1894   -5.5169 H   0  0  0  0  0  0  0  0  0  0  0  0
   10.5396   -2.2824   -1.4936 H   0  0  0  0  0  0  0  0  0  0  0  0
   10.8461    2.2155   -3.8753 H   0  0  0  0  0  0  0  0  0  0  0  0
   13.4882    1.7165   -1.5993 H   0  0  0  0  0  0  0  0  0  0  0  0
   12.0796    3.5012   -0.3486 H   0  0  0  0  0  0  0  0  0  0  0  0
    9.5389    2.7234   -0.1836 H   0  0  0  0  0  0  0  0  0  0  0  0
    9.4666    0.4140    1.0188 H   0  0  0  0  0  0  0  0  0  0  0  0
   11.9568   -0.2923    1.6043 H   0  0  0  0  0  0  0  0  0  0  0  0
   12.0683    2.3152    2.0154 H   0  0  0  0  0  0  0  0  0  0  0  0
   13.5517    1.7845    1.0930 H   0  0  0  0  0  0  0  0  0  0  0  0
   13.3960   -0.3875   -0.5378 H   0  0  0  0  0  0  0  0  0  0  0  0
   -2.2045   -2.3230   -1.0070 H   0  0  0  0  0  0  0  0  0  0  0  0
   -6.8247   -0.9532    0.7385 H   0  0  0  0  0  0  0  0  0  0  0  0
   -8.3191   -2.5869    1.7679 H   0  0  0  0  0  0  0  0  0  0  0  0
   -7.2199   -5.9134    3.0761 H   0  0  0  0  0  0  0  0  0  0  0  0
   -8.6191   -4.9635    2.4953 H   0  0  0  0  0  0  0  0  0  0  0  0
   -8.4394   -3.4539    4.5015 H   0  0  0  0  0  0  0  0  0  0  0  0
   -8.6752   -5.1799    4.9576 H   0  0  0  0  0  0  0  0  0  0  0  0
   -7.0388   -4.4380    5.0954 H   0  0  0  0  0  0  0  0  0  0  0  0
   -4.9305   -4.9899    2.9080 H   0  0  0  0  0  0  0  0  0  0  0  0
   -3.4203   -3.3644    1.9058 H   0  0  0  0  0  0  0  0  0  0  0  0
   -5.3694   -2.2574   -1.3772 H   0  0  0  0  0  0  0  0  0  0  0  0
   -6.0158   -1.4202   -3.5765 H   0  0  0  0  0  0  0  0  0  0  0  0
   -4.9345    1.9323   -4.9392 H   0  0  0  0  0  0  0  0  0  0  0  0
   -5.3774    0.2673   -5.4262 H   0  0  0  0  0  0  0  0  0  0  0  0
   -7.6506    0.5778   -4.3723 H   0  0  0  0  0  0  0  0  0  0  0  0
   -7.3092    1.8049   -5.6486 H   0  0  0  0  0  0  0  0  0  0  0  0
   -7.1917    2.2611   -3.9037 H   0  0  0  0  0  0  0  0  0  0  0  0
   -4.0516    2.3210   -2.7455 H   0  0  0  0  0  0  0  0  0  0  0  0
   -3.4061    1.5013   -0.5326 H   0  0  0  0  0  0  0  0  0  0  0  0
   -0.2483   -0.2277    3.1116 H   0  0  0  0  0  0  0  0  0  0  0  0
    1.7549    0.4806    0.2120 H   0  0  0  0  0  0  0  0  0  0  0  0
    2.6971    2.6037    0.9780 H   0  0  0  0  0  0  0  0  0  0  0  0
    3.3625    3.9845    2.8763 H   0  0  0  0  0  0  0  0  0  0  0  0
    3.6819    3.2374    4.4655 H   0  0  0  0  0  0  0  0  0  0  0  0
    5.7364    4.2674    3.5638 H   0  0  0  0  0  0  0  0  0  0  0  0
    5.9491    2.4744    3.6462 H   0  0  0  0  0  0  0  0  0  0  0  0
    5.6154    3.2802    2.0543 H   0  0  0  0  0  0  0  0  0  0  0  0
    4.0010    0.7260    4.6257 H   0  0  0  0  0  0  0  0  0  0  0  0
    3.0898   -1.4024    3.8737 H   0  0  0  0  0  0  0  0  0  0  0  0
    0.3924   -2.4413    4.0276 H   0  0  0  0  0  0  0  0  0  0  0  0
    0.4356   -4.5059    5.3264 H   0  0  0  0  0  0  0  0  0  0  0  0
    1.8284   -7.6732    4.0635 H   0  0  0  0  0  0  0  0  0  0  0  0
    0.8596   -6.9086    5.3611 H   0  0  0  0  0  0  0  0  0  0  0  0
    3.9461   -6.8819    5.1620 H   0  0  0  0  0  0  0  0  0  0  0  0
    2.9683   -6.1005    6.4767 H   0  0  0  0  0  0  0  0  0  0  0  0
    2.9498   -7.8935    6.2709 H   0  0  0  0  0  0  0  0  0  0  0  0
    3.2663   -6.1990    2.5604 H   0  0  0  0  0  0  0  0  0  0  0  0
    3.2286   -4.1699    1.2395 H   0  0  0  0  0  0  0  0  0  0  0  0
    6.7127   -1.2813   -1.9594 H   0  0  0  0  0  0  0  0  0  0  0  0
    5.8889   -2.6978    0.5056 H   0  0  0  0  0  0  0  0  0  0  0  0
    4.4701   -2.1916    1.4569 H   0  0  0  0  0  0  0  0  0  0  0  0
    5.9379   -0.4036    1.8151 H   0  0  0  0  0  0  0  0  0  0  0  0
    6.6056   -0.4513    0.1576 H   0  0  0  0  0  0  0  0  0  0  0  0
    4.9567    0.2390    0.4300 H   0  0  0  0  0  0  0  0  0  0  0  0
   -4.7841    4.4812    2.8963 H   0  0  0  0  0  0  0  0  0  0  0  0
   -6.5263    5.4985    1.0068 H   0  0  0  0  0  0  0  0  0  0  0  0
   -9.4401    5.6365   -3.4510 H   0  0  0  0  0  0  0  0  0  0  0  0
  -10.5777    4.8978   -5.5270 H   0  0  0  0  0  0  0  0  0  0  0  0
  -11.6801    0.5331   -3.3880 H   0  0  0  0  0  0  0  0  0  0  0  0
  -10.4786    1.2271   -1.3667 H   0  0  0  0  0  0  0  0  0  0  0  0
  1  2  2  3
  2  3  1  0
  3  4  2  0
  3  5  1  0
  5  6  2  0
  6  7  1  0
  7  8  2  0
  8  9  1  0
  9 10  2  0
 10 11  1  0
 11 12  2  3
 12 13  1  0
 13 14  3  0
 12 15  1  0
 15 16  3  0
  8 17  1  0
 17 18  1  0
 18 19  1  0
 19 20  2  0
 20 21  1  0
 21 22  1  0
 21 23  1  0
  1 24  1  0
 24 25  1  0
 25 26  1  0
 26 27  1  0
 27 28  1  0
 28 29  1  0
 29 30  1  0
 30 31  2  0
 31 32  1  0
 32 33  1  0
 33 34  1  0
 34 35  2  0
 35 36  1  0
 36 37  2  0
 37 38  1  0
 38 39  1  0
 37 40  1  0
 40 41  2  0
 33 42  1  0
 42 43  2  0
 43 44  1  0
 44 45  2  0
 45 46  1  0
 46 47  1  0
 45 48  1  0
 48 49  2  0
 33 50  1  0
 50 51  2  0
 51 52  1  0
 52 53  1  0
 53 54  2  0
 54 55  1  0
 55 56  1  0
 56 57  2  0
 57 58  1  0
 58 59  2  0
 59 60  1  0
 60 61  1  0
 59 62  1  0
 62 63  2  0
 55 64  1  0
 64 65  2  0
 65 66  1  0
 66 67  2  0
 67 68  1  0
 68 69  1  0
 67 70  1  0
 70 71  2  0
 55 72  1  0
 72 73  1  0
 73 74  1  0
 74 75  1  0
 75 76  1  0
 74 77  1  0
 77 78  1  0
 51 79  1  0
 79 80  1  0
 80 81  1  0
 81 82  2  0
 82 83  1  0
 83 84  1  0
 82 85  1  0
 85 86  2  3
 86 87  1  0
 87 88  2  0
 87 89  1  0
 89 90  2  0
 90 91  1  0
 91 92  2  0
 92 93  1  0
 93 94  1  0
 93 95  2  0
 95 96  1  0
 95 97  1  0
 97 98  2  0
 98 99  1  0
 99100  2  0
100101  1  0
101102  2  3
102103  1  0
103104  3  0
102105  1  0
105106  3  0
 11  2  1  0
 23 17  1  0
 76 24  2  0
 84 80  2  0
101 86  1  0
 10  5  1  0
 22 18  1  0
 75 26  2  0
100 89  1  0
 23  7  1  0
 73 27  2  0
 98 91  1  0
 72 29  2  0
 54 30  1  0
 63 56  1  0
 71 64  1  0
 52 32  2  0
 41 34  1  0
 49 42  1  0
 84 50  1  0
  1107  1  0
  6108  1  0
  9109  1  0
 17110  1  0
 18111  1  0
 19112  1  0
 20113  1  0
 21114  1  0
 22115  1  0
 22116  1  0
 23117  1  0
 31118  1  0
 35119  1  0
 36120  1  0
 38121  1  0
 38122  1  0
 39123  1  0
 39124  1  0
 39125  1  0
 40126  1  0
 41127  1  0
 43128  1  0
 44129  1  0
 46130  1  0
 46131  1  0
 47132  1  0
 47133  1  0
 47134  1  0
 48135  1  0
 49136  1  0
 53137  1  0
 57138  1  0
 58139  1  0
 60140  1  0
 60141  1  0
 61142  1  0
 61143  1  0
 61144  1  0
 62145  1  0
 63146  1  0
 65147  1  0
 66148  1  0
 68149  1  0
 68150  1  0
 69151  1  0
 69152  1  0
 69153  1  0
 70154  1  0
 71155  1  0
 76156  1  0
 77157  1  0
 77158  1  0
 78159  1  0
 78160  1  0
 78161  1  0
 81162  1  0
 85163  1  0
 90164  1  0
 92165  1  0
 97166  1  0
 99167  1  0
M  END

