
     RDKit          3D

116132  0  0  0  0  0  0  0  0999 V2000
   -5.7383   -2.9894   -2.7162 C   0  0  0  0  0  0  0  0  0  0  0  0
   -5.9906   -2.4699   -3.9370 C   0  0  0  0  0  0  0  0  0  0  0  0
   -5.0124   -2.1694   -4.9901 C   0  0  0  0  0  0  0  0  0  0  0  0
   -4.0325   -2.8879   -5.3182 O   0  0  0  0  0  0  0  0  0  0  0  0
   -5.4739   -1.0177   -5.7330 C   0  0  0  0  0  0  0  0  0  0  0  0
   -4.7150   -0.2096   -6.6112 C   0  0  0  0  0  0  0  0  0  0  0  0
   -5.3528    0.9592   -6.9834 C   0  0  0  0  0  0  0  0  0  0  0  0
   -6.6649    1.3142   -6.5275 C   0  0  0  0  0  0  0  0  0  0  0  0
   -7.4165    0.5208   -5.6775 C   0  0  0  0  0  0  0  0  0  0  0  0
   -6.7829   -0.6931   -5.2965 C   0  0  0  0  0  0  0  0  0  0  0  0
   -7.2149   -1.6925   -4.2861 C   0  0  0  0  0  0  0  0  0  0  0  0
   -8.4952   -1.9728   -3.9294 C   0  0  0  0  0  0  0  0  0  0  0  0
   -8.8247   -3.0956   -3.0922 C   0  0  0  0  0  0  0  0  0  0  0  0
   -9.1042   -4.0042   -2.4306 N   0  0  0  0  0  0  0  0  0  0  0  0
   -9.6182   -1.2865   -4.5122 C   0  0  0  0  0  0  0  0  0  0  0  0
  -10.5280   -0.7498   -4.9845 N   0  0  0  0  0  0  0  0  0  0  0  0
   -6.5696    2.6357   -7.2307 C   0  0  0  0  0  0  0  0  0  0  0  0
   -6.3207    3.9020   -6.3533 C   0  0  0  0  0  0  0  0  0  0  0  0
   -5.5175    3.5343   -5.1262 C   0  0  0  0  0  0  0  0  0  0  0  0
   -4.2976    3.2062   -5.5546 C   0  0  0  0  0  0  0  0  0  0  0  0
   -4.3114    3.3596   -7.0586 C   0  0  0  0  0  0  0  0  0  0  0  0
   -5.2241    4.5684   -7.1641 C   0  0  0  0  0  0  0  0  0  0  0  0
   -5.2271    2.2713   -7.6988 C   0  0  0  0  0  0  0  0  0  0  0  0
   -4.4072   -3.2755   -2.1319 C   0  0  0  0  0  0  0  0  0  0  0  0
   -4.2487   -3.7685   -0.8272 C   0  0  0  0  0  0  0  0  0  0  0  0
   -2.9243   -3.6757   -0.4078 C   0  0  0  0  0  0  0  0  0  0  0  0
   -2.1809   -3.8727    1.0868 S   0  0  0  0  0  0  0  0  0  0  0  0
   -0.6790   -3.2738    0.5368 C   0  0  0  0  0  0  0  0  0  0  0  0
    0.4710   -3.0256    1.3033 C   0  0  0  0  0  0  0  0  0  0  0  0
    0.4474   -3.2222    2.7608 C   0  0  0  0  0  0  0  0  0  0  0  0
    0.2731   -1.9823    3.8848 S   0  0  0  0  0  0  0  0  0  0  0  0
    0.1265   -2.9842    5.2289 C   0  0  0  0  0  0  0  0  0  0  0  0
   -0.1217   -2.5086    6.6277 C   0  0  0  0  0  0  0  0  0  0  0  0
   -1.6000   -2.1945    6.8392 C   0  0  0  0  0  0  0  0  0  0  0  0
    0.1751   -4.3080    4.8041 C   0  0  0  0  0  0  0  0  0  0  0  0
    0.0327   -5.3700    5.6365 F   0  0  0  0  0  0  0  0  0  0  0  0
    0.3494   -4.4413    3.4232 C   0  0  0  0  0  0  0  0  0  0  0  0
    0.3839   -5.6410    2.7906 F   0  0  0  0  0  0  0  0  0  0  0  0
    1.5700   -2.4481    0.6346 C   0  0  0  0  0  0  0  0  0  0  0  0
    1.4917   -2.1083   -0.7325 C   0  0  0  0  0  0  0  0  0  0  0  0
    0.3261   -2.3153   -1.4856 C   0  0  0  0  0  0  0  0  0  0  0  0
    0.2543   -1.9044   -2.8934 C   0  0  0  0  0  0  0  0  0  0  0  0
   -0.3106   -0.4170   -3.4482 S   0  0  0  0  0  0  0  0  0  0  0  0
   -0.1352   -0.7721   -5.0876 C   0  0  0  0  0  0  0  0  0  0  0  0
   -0.4337    0.1724   -6.2118 C   0  0  0  0  0  0  0  0  0  0  0  0
    0.7810    1.0409   -6.5213 C   0  0  0  0  0  0  0  0  0  0  0  0
    0.3892   -2.0540   -5.2123 C   0  0  0  0  0  0  0  0  0  0  0  0
    0.6037   -2.6884   -3.9849 C   0  0  0  0  0  0  0  0  0  0  0  0
    1.1020   -3.9461   -3.8741 F   0  0  0  0  0  0  0  0  0  0  0  0
    0.6755   -2.6337   -6.4059 F   0  0  0  0  0  0  0  0  0  0  0  0
   -0.7655   -2.9083   -0.8216 C   0  0  0  0  0  0  0  0  0  0  0  0
   -2.0515   -3.1464   -1.3078 C   0  0  0  0  0  0  0  0  0  0  0  0
   -2.8908   -2.7228   -2.6898 S   0  0  0  0  0  0  0  0  0  0  0  0
    2.9399   -1.3649   -1.2445 S   0  0  0  0  0  0  0  0  0  0  0  0
    3.6580   -1.4874    0.2696 C   0  0  0  0  0  0  0  0  0  0  0  0
    4.8612   -1.0266    0.7934 C   0  0  0  0  0  0  0  0  0  0  0  0
    4.9260   -1.2866    2.1658 C   0  0  0  0  0  0  0  0  0  0  0  0
    3.5257   -2.1120    2.6783 S   0  0  0  0  0  0  0  0  0  0  0  0
    2.8144   -2.0876    1.1571 C   0  0  0  0  0  0  0  0  0  0  0  0
    5.9871   -0.8115    3.0620 C   0  0  0  0  0  0  0  0  0  0  0  0
    5.7597    0.0703    4.0563 C   0  0  0  0  0  0  0  0  0  0  0  0
    4.5463    0.8900    4.1970 C   0  0  0  0  0  0  0  0  0  0  0  0
    3.4754    0.7664    3.5455 O   0  0  0  0  0  0  0  0  0  0  0  0
    4.8116    1.9563    5.1307 C   0  0  0  0  0  0  0  0  0  0  0  0
    3.9396    3.0129    5.4739 C   0  0  0  0  0  0  0  0  0  0  0  0
    4.4971    3.9418    6.3268 C   0  0  0  0  0  0  0  0  0  0  0  0
    5.8394    3.8504    6.8170 C   0  0  0  0  0  0  0  0  0  0  0  0
    6.7018    2.8195    6.4793 C   0  0  0  0  0  0  0  0  0  0  0  0
    6.1411    1.8372    5.6127 C   0  0  0  0  0  0  0  0  0  0  0  0
    6.7576    0.6058    5.0361 C   0  0  0  0  0  0  0  0  0  0  0  0
    7.8740   -0.0308    5.4827 C   0  0  0  0  0  0  0  0  0  0  0  0
    8.6943    0.4862    6.5454 C   0  0  0  0  0  0  0  0  0  0  0  0
    9.3617    0.8822    7.4033 N   0  0  0  0  0  0  0  0  0  0  0  0
    8.2440   -1.3431    5.0233 C   0  0  0  0  0  0  0  0  0  0  0  0
    8.5480   -2.4000    4.6624 N   0  0  0  0  0  0  0  0  0  0  0  0
    5.6572    5.1204    7.5933 C   0  0  0  0  0  0  0  0  0  0  0  0
    5.4673    4.9739    9.1327 C   0  0  0  0  0  0  0  0  0  0  0  0
    4.9163    6.2967    9.6098 C   0  0  0  0  0  0  0  0  0  0  0  0
    3.6622    6.3747    9.1478 C   0  0  0  0  0  0  0  0  0  0  0  0
    3.4121    5.1043    8.3736 C   0  0  0  0  0  0  0  0  0  0  0  0
    4.2005    4.1424    9.2461 C   0  0  0  0  0  0  0  0  0  0  0  0
    4.2832    5.2121    7.0892 C   0  0  0  0  0  0  0  0  0  0  0  0
   -6.5476   -3.0542   -2.0056 H   0  0  0  0  0  0  0  0  0  0  0  0
   -3.6933   -0.4330   -6.8909 H   0  0  0  0  0  0  0  0  0  0  0  0
   -8.3558    0.8652   -5.2783 H   0  0  0  0  0  0  0  0  0  0  0  0
   -7.3107    2.7706   -8.0517 H   0  0  0  0  0  0  0  0  0  0  0  0
   -7.2171    4.5264   -6.1580 H   0  0  0  0  0  0  0  0  0  0  0  0
   -5.8322    3.5984   -4.0902 H   0  0  0  0  0  0  0  0  0  0  0  0
   -3.4506    2.9544   -4.9250 H   0  0  0  0  0  0  0  0  0  0  0  0
   -3.3109    3.4755   -7.5266 H   0  0  0  0  0  0  0  0  0  0  0  0
   -5.5262    4.8076   -8.2123 H   0  0  0  0  0  0  0  0  0  0  0  0
   -4.8100    5.4846   -6.6770 H   0  0  0  0  0  0  0  0  0  0  0  0
   -5.1492    2.1827   -8.8051 H   0  0  0  0  0  0  0  0  0  0  0  0
   -5.0619   -4.0870   -0.1879 H   0  0  0  0  0  0  0  0  0  0  0  0
    0.4777   -1.5920    6.8111 H   0  0  0  0  0  0  0  0  0  0  0  0
    0.2008   -3.2858    7.3552 H   0  0  0  0  0  0  0  0  0  0  0  0
   -1.9378   -1.4244    6.1128 H   0  0  0  0  0  0  0  0  0  0  0  0
   -1.7509   -1.8004    7.8677 H   0  0  0  0  0  0  0  0  0  0  0  0
   -2.2118   -3.1157    6.7142 H   0  0  0  0  0  0  0  0  0  0  0  0
   -1.2909    0.8217   -5.9322 H   0  0  0  0  0  0  0  0  0  0  0  0
   -0.7196   -0.4019   -7.1215 H   0  0  0  0  0  0  0  0  0  0  0  0
    1.0618    1.6438   -5.6300 H   0  0  0  0  0  0  0  0  0  0  0  0
    1.6442    0.4066   -6.8189 H   0  0  0  0  0  0  0  0  0  0  0  0
    0.5396    1.7296   -7.3583 H   0  0  0  0  0  0  0  0  0  0  0  0
    5.6108   -0.4849    0.2324 H   0  0  0  0  0  0  0  0  0  0  0  0
    6.9895   -1.1386    2.8352 H   0  0  0  0  0  0  0  0  0  0  0  0
    2.9315    3.0982    5.0938 H   0  0  0  0  0  0  0  0  0  0  0  0
    7.7153    2.8194    6.8391 H   0  0  0  0  0  0  0  0  0  0  0  0
    6.3274    5.9489    7.2649 H   0  0  0  0  0  0  0  0  0  0  0  0
    6.3492    4.5976    9.6937 H   0  0  0  0  0  0  0  0  0  0  0  0
    5.3927    7.0067   10.2791 H   0  0  0  0  0  0  0  0  0  0  0  0
    2.9472    7.1588    9.3788 H   0  0  0  0  0  0  0  0  0  0  0  0
    2.3425    4.8499    8.2115 H   0  0  0  0  0  0  0  0  0  0  0  0
    4.2909    3.1148    8.8292 H   0  0  0  0  0  0  0  0  0  0  0  0
    3.8114    4.0688   10.2903 H   0  0  0  0  0  0  0  0  0  0  0  0
    4.0834    6.0949    6.4406 H   0  0  0  0  0  0  0  0  0  0  0  0
  1  2  2  3
  2  3  1  0
  3  4  2  0
  3  5  1  0
  5  6  2  0
  6  7  1  0
  7  8  2  0
  8  9  1  0
  9 10  2  0
 10 11  1  0
 11 12  2  3
 12 13  1  0
 13 14  3  0
 12 15  1  0
 15 16  3  0
  8 17  1  0
 17 18  1  0
 18 19  1  0
 19 20  2  0
 20 21  1  0
 21 22  1  0
 21 23  1  0
  1 24  1  0
 24 25  2  0
 25 26  1  0
 26 27  1  0
 27 28  1  0
 28 29  2  0
 29 30  1  0
 30 31  1  0
 31 32  1  0
 32 33  1  0
 33 34  1  0
 32 35  2  0
 35 36  1  0
 35 37  1  0
 37 38  1  0
 29 39  1  0
 39 40  2  0
 40 41  1  0
 41 42  1  0
 42 43  1  0
 43 44  1  0
 44 45  1  0
 45 46  1  0
 44 47  2  0
 47 48  1  0
 48 49  1  0
 47 50  1  0
 41 51  2  0
 51 52  1  0
 52 53  1  0
 40 54  1  0
 54 55  1  0
 55 56  1  0
 56 57  2  0
 57 58  1  0
 58 59  1  0
 57 60  1  0
 60 61  2  3
 61 62  1  0
 62 63  2  0
 62 64  1  0
 64 65  2  0
 65 66  1  0
 66 67  2  0
 67 68  1  0
 68 69  2  0
 69 70  1  0
 70 71  2  3
 71 72  1  0
 72 73  3  0
 71 74  1  0
 74 75  3  0
 67 76  1  0
 76 77  1  0
 77 78  1  0
 78 79  2  0
 79 80  1  0
 80 81  1  0
 80 82  1  0
 11  2  1  0
 23 17  1  0
 53 24  1  0
 59 55  2  0
 70 61  1  0
 82 76  1  0
 10  5  1  0
 22 18  1  0
 52 26  2  0
 69 64  1  0
 81 77  1  0
 23  7  1  0
 51 28  1  0
 82 66  1  0
 37 30  2  0
 59 39  1  0
 48 42  2  0
  1 83  1  0
  6 84  1  0
  9 85  1  0
 17 86  1  0
 18 87  1  0
 19 88  1  0
 20 89  1  0
 21 90  1  0
 22 91  1  0
 22 92  1  0
 23 93  1  0
 25 94  1  0
 33 95  1  0
 33 96  1  0
 34 97  1  0
 34 98  1  0
 34 99  1  0
 45100  1  0
 45101  1  0
 46102  1  0
 46103  1  0
 46104  1  0
 56105  1  0
 60106  1  0
 65107  1  0
 68108  1  0
 76109  1  0
 77110  1  0
 78111  1  0
 79112  1  0
 80113  1  0
 81114  1  0
 81115  1  0
 82116  1  0
M  END

