
     RDKit          3D

121134  0  0  0  0  0  0  0  0999 V2000
   -5.5865    2.3502    0.9219 C   0  0  0  0  0  0  0  0  0  0  0  0
   -6.7558    2.6262    0.3186 C   0  0  0  0  0  0  0  0  0  0  0  0
   -7.1568    2.1440   -1.0101 C   0  0  0  0  0  0  0  0  0  0  0  0
   -6.5407    1.3026   -1.7154 O   0  0  0  0  0  0  0  0  0  0  0  0
   -8.2822    2.9297   -1.4671 C   0  0  0  0  0  0  0  0  0  0  0  0
   -8.9161    2.8534   -2.7294 C   0  0  0  0  0  0  0  0  0  0  0  0
   -9.8656    3.8354   -2.9360 C   0  0  0  0  0  0  0  0  0  0  0  0
  -10.1614    4.8533   -1.9727 C   0  0  0  0  0  0  0  0  0  0  0  0
   -9.5480    4.9301   -0.7335 C   0  0  0  0  0  0  0  0  0  0  0  0
   -8.6028    3.8976   -0.4799 C   0  0  0  0  0  0  0  0  0  0  0  0
   -7.7468    3.6738    0.7174 C   0  0  0  0  0  0  0  0  0  0  0  0
   -7.9819    4.1326    1.9743 C   0  0  0  0  0  0  0  0  0  0  0  0
   -9.1044    4.9763    2.2924 C   0  0  0  0  0  0  0  0  0  0  0  0
  -10.0083    5.6454    2.5653 N   0  0  0  0  0  0  0  0  0  0  0  0
   -7.2225    3.6870    3.1143 C   0  0  0  0  0  0  0  0  0  0  0  0
   -6.6176    3.3338    4.0368 N   0  0  0  0  0  0  0  0  0  0  0  0
  -11.1313    5.4923   -2.9202 C   0  0  0  0  0  0  0  0  0  0  0  0
  -10.6528    6.7917   -3.6398 C   0  0  0  0  0  0  0  0  0  0  0  0
  -11.6106    7.0048   -4.7871 C   0  0  0  0  0  0  0  0  0  0  0  0
  -11.3612    6.0355   -5.6773 C   0  0  0  0  0  0  0  0  0  0  0  0
  -10.2355    5.2095   -5.1061 C   0  0  0  0  0  0  0  0  0  0  0  0
   -9.4458    6.3229   -4.4363 C   0  0  0  0  0  0  0  0  0  0  0  0
  -10.8436    4.4363   -3.8983 C   0  0  0  0  0  0  0  0  0  0  0  0
   -4.6609    1.3178    0.4394 C   0  0  0  0  0  0  0  0  0  0  0  0
   -4.8431   -0.0772    0.5318 C   0  0  0  0  0  0  0  0  0  0  0  0
   -6.0270   -0.7615    1.1623 C   0  0  0  0  0  0  0  0  0  0  0  0
   -6.7960   -1.6047    0.1491 C   0  0  0  0  0  0  0  0  0  0  0  0
   -3.7009   -0.7475    0.0829 C   0  0  0  0  0  0  0  0  0  0  0  0
   -2.6701    0.0613   -0.3316 C   0  0  0  0  0  0  0  0  0  0  0  0
   -3.1009    1.6706   -0.1354 S   0  0  0  0  0  0  0  0  0  0  0  0
   -1.5195   -0.6531   -0.6581 C   0  0  0  0  0  0  0  0  0  0  0  0
   -1.6890   -1.9823   -0.4740 C   0  0  0  0  0  0  0  0  0  0  0  0
   -3.2242   -2.3830    0.1273 S   0  0  0  0  0  0  0  0  0  0  0  0
   -0.4533   -2.5590   -0.5011 C   0  0  0  0  0  0  0  0  0  0  0  0
   -0.0637   -3.8313   -0.0585 C   0  0  0  0  0  0  0  0  0  0  0  0
   -0.9700   -4.7761    0.2991 N   0  0  0  0  0  0  0  0  0  0  0  0
   -0.5790   -5.9927    0.7686 C   0  0  0  0  0  0  0  0  0  0  0  0
   -1.6282   -6.9833    1.1742 C   0  0  0  0  0  0  0  0  0  0  0  0
    0.8018   -6.2716    0.8951 C   0  0  0  0  0  0  0  0  0  0  0  0
    1.2979   -7.5946    1.3985 C   0  0  0  0  0  0  0  0  0  0  0  0
    1.7067   -5.3150    0.5508 N   0  0  0  0  0  0  0  0  0  0  0  0
    1.3082   -4.1025    0.0854 C   0  0  0  0  0  0  0  0  0  0  0  0
    2.2217   -3.1008   -0.2532 C   0  0  0  0  0  0  0  0  0  0  0  0
    3.5815   -3.0825   -0.1626 C   0  0  0  0  0  0  0  0  0  0  0  0
    4.8302   -4.0000    0.5294 S   0  0  0  0  0  0  0  0  0  0  0  0
    5.9490   -2.7463    0.2136 C   0  0  0  0  0  0  0  0  0  0  0  0
    7.2578   -2.5170    0.6390 C   0  0  0  0  0  0  0  0  0  0  0  0
    8.1026   -3.5296    1.3641 C   0  0  0  0  0  0  0  0  0  0  0  0
    9.0989   -4.1769    0.4094 C   0  0  0  0  0  0  0  0  0  0  0  0
    7.6613   -1.2056    0.3183 C   0  0  0  0  0  0  0  0  0  0  0  0
    6.3932   -0.3660   -0.4503 S   0  0  0  0  0  0  0  0  0  0  0  0
    5.3492   -1.6774   -0.4035 C   0  0  0  0  0  0  0  0  0  0  0  0
    3.9938   -1.8790   -0.6084 C   0  0  0  0  0  0  0  0  0  0  0  0
    2.9788   -1.0824   -1.0191 N   0  0  0  0  0  0  0  0  0  0  0  0
    3.1806    0.0475   -1.9346 C   0  0  0  0  0  0  0  0  0  0  0  0
    2.4694   -0.1773   -3.2703 C   0  0  0  0  0  0  0  0  0  0  0  0
    1.8512   -1.8265   -0.7325 C   0  0  0  0  0  0  0  0  0  0  0  0
    0.4556   -1.5171   -0.7843 C   0  0  0  0  0  0  0  0  0  0  0  0
   -0.2171   -0.3100   -0.8380 N   0  0  0  0  0  0  0  0  0  0  0  0
    0.2870    1.0637   -0.7375 C   0  0  0  0  0  0  0  0  0  0  0  0
    0.9900    1.3032    0.5967 C   0  0  0  0  0  0  0  0  0  0  0  0
    8.9020   -0.5637    0.7753 C   0  0  0  0  0  0  0  0  0  0  0  0
    9.1260   -0.2221    2.0664 C   0  0  0  0  0  0  0  0  0  0  0  0
    8.0762   -0.3692    3.1068 C   0  0  0  0  0  0  0  0  0  0  0  0
    6.8546   -0.2611    2.8128 O   0  0  0  0  0  0  0  0  0  0  0  0
    8.4681   -0.6011    4.4673 N   0  0  0  0  0  0  0  0  0  0  0  0
    7.4701   -0.9804    5.4780 C   0  0  0  0  0  0  0  0  0  0  0  0
    6.8905    0.2593    6.1476 C   0  0  0  0  0  0  0  0  0  0  0  0
    9.8445   -0.3942    4.8318 C   0  0  0  0  0  0  0  0  0  0  0  0
   10.2203   -0.6041    6.0182 O   0  0  0  0  0  0  0  0  0  0  0  0
   10.8244    0.0885    3.8284 C   0  0  0  0  0  0  0  0  0  0  0  0
   10.4781    0.2284    2.5229 C   0  0  0  0  0  0  0  0  0  0  0  0
   11.4706    0.7694    1.5117 C   0  0  0  0  0  0  0  0  0  0  0  0
   12.1654    0.3793    4.2877 C   0  0  0  0  0  0  0  0  0  0  0  0
   13.2375    0.6047    4.6571 N   0  0  0  0  0  0  0  0  0  0  0  0
   -5.2384    2.9542    1.7440 H   0  0  0  0  0  0  0  0  0  0  0  0
   -8.6545    2.1229   -3.4842 H   0  0  0  0  0  0  0  0  0  0  0  0
   -9.7598    5.7445   -0.0626 H   0  0  0  0  0  0  0  0  0  0  0  0
  -12.1805    5.5073   -2.5475 H   0  0  0  0  0  0  0  0  0  0  0  0
  -10.4900    7.6759   -2.9873 H   0  0  0  0  0  0  0  0  0  0  0  0
  -12.3021    7.8301   -4.9250 H   0  0  0  0  0  0  0  0  0  0  0  0
  -11.8159    5.9406   -6.6583 H   0  0  0  0  0  0  0  0  0  0  0  0
   -9.6785    4.5909   -5.8405 H   0  0  0  0  0  0  0  0  0  0  0  0
   -9.0612    7.0860   -5.1575 H   0  0  0  0  0  0  0  0  0  0  0  0
   -8.5993    5.9679   -3.8086 H   0  0  0  0  0  0  0  0  0  0  0  0
  -11.7061    3.7730   -4.1328 H   0  0  0  0  0  0  0  0  0  0  0  0
   -5.6700   -1.4177    1.9851 H   0  0  0  0  0  0  0  0  0  0  0  0
   -6.7200   -0.0158    1.6073 H   0  0  0  0  0  0  0  0  0  0  0  0
   -6.1477   -2.4026   -0.2733 H   0  0  0  0  0  0  0  0  0  0  0  0
   -7.1809   -0.9711   -0.6763 H   0  0  0  0  0  0  0  0  0  0  0  0
   -7.6615   -2.0882    0.6492 H   0  0  0  0  0  0  0  0  0  0  0  0
   -1.5040   -7.9287    0.6068 H   0  0  0  0  0  0  0  0  0  0  0  0
   -2.6448   -6.5821    0.9675 H   0  0  0  0  0  0  0  0  0  0  0  0
   -1.5510   -7.1896    2.2617 H   0  0  0  0  0  0  0  0  0  0  0  0
    0.9234   -7.7733    2.4287 H   0  0  0  0  0  0  0  0  0  0  0  0
    0.9496   -8.4097    0.7286 H   0  0  0  0  0  0  0  0  0  0  0  0
    2.4087   -7.6095    1.4201 H   0  0  0  0  0  0  0  0  0  0  0  0
    8.6530   -3.0423    2.1959 H   0  0  0  0  0  0  0  0  0  0  0  0
    7.4570   -4.3166    1.8091 H   0  0  0  0  0  0  0  0  0  0  0  0
    8.5623   -4.6563   -0.4373 H   0  0  0  0  0  0  0  0  0  0  0  0
    9.6774   -4.9539    0.9510 H   0  0  0  0  0  0  0  0  0  0  0  0
    9.8049   -3.4177    0.0148 H   0  0  0  0  0  0  0  0  0  0  0  0
    2.9387    1.0045   -1.4457 H   0  0  0  0  0  0  0  0  0  0  0  0
    4.2576    0.1463   -2.1833 H   0  0  0  0  0  0  0  0  0  0  0  0
    1.3783   -0.3065   -3.1402 H   0  0  0  0  0  0  0  0  0  0  0  0
    2.6454    0.6933   -3.9360 H   0  0  0  0  0  0  0  0  0  0  0  0
    2.8729   -1.0878   -3.7603 H   0  0  0  0  0  0  0  0  0  0  0  0
    0.8964    1.3231   -1.6091 H   0  0  0  0  0  0  0  0  0  0  0  0
   -0.5414    1.7879   -0.8152 H   0  0  0  0  0  0  0  0  0  0  0  0
    1.8448    0.6097    0.7320 H   0  0  0  0  0  0  0  0  0  0  0  0
    0.2691    1.1473    1.4277 H   0  0  0  0  0  0  0  0  0  0  0  0
    1.3644    2.3474    0.6404 H   0  0  0  0  0  0  0  0  0  0  0  0
    9.6794   -0.4636    0.0315 H   0  0  0  0  0  0  0  0  0  0  0  0
    6.6490   -1.5644    5.0092 H   0  0  0  0  0  0  0  0  0  0  0  0
    7.9297   -1.6381    6.2462 H   0  0  0  0  0  0  0  0  0  0  0  0
    6.3598    0.8871    5.4003 H   0  0  0  0  0  0  0  0  0  0  0  0
    6.1693   -0.0452    6.9343 H   0  0  0  0  0  0  0  0  0  0  0  0
    7.7009    0.8552    6.6182 H   0  0  0  0  0  0  0  0  0  0  0  0
   12.1778    1.4910    1.9702 H   0  0  0  0  0  0  0  0  0  0  0  0
   12.0440   -0.0705    1.0658 H   0  0  0  0  0  0  0  0  0  0  0  0
   10.9457    1.3270    0.7071 H   0  0  0  0  0  0  0  0  0  0  0  0
  1  2  2  3
  2  3  1  0
  3  4  2  0
  3  5  1  0
  5  6  2  0
  6  7  1  0
  7  8  2  0
  8  9  1  0
  9 10  2  0
 10 11  1  0
 11 12  2  3
 12 13  1  0
 13 14  3  0
 12 15  1  0
 15 16  3  0
  8 17  1  0
 17 18  1  0
 18 19  1  0
 19 20  2  0
 20 21  1  0
 21 22  1  0
 21 23  1  0
  1 24  1  0
 24 25  2  0
 25 26  1  0
 26 27  1  0
 25 28  1  0
 28 29  2  0
 29 30  1  0
 29 31  1  0
 31 32  2  0
 32 33  1  0
 32 34  1  0
 34 35  2  0
 35 36  1  0
 36 37  2  0
 37 38  1  0
 37 39  1  0
 39 40  1  0
 39 41  2  0
 41 42  1  0
 42 43  2  0
 43 44  1  0
 44 45  1  0
 45 46  1  0
 46 47  1  0
 47 48  1  0
 48 49  1  0
 47 50  2  0
 50 51  1  0
 51 52  1  0
 52 53  1  0
 53 54  1  0
 54 55  1  0
 55 56  1  0
 54 57  1  0
 57 58  2  0
 58 59  1  0
 59 60  1  0
 60 61  1  0
 50 62  1  0
 62 63  2  3
 63 64  1  0
 64 65  2  0
 64 66  1  0
 66 67  1  0
 67 68  1  0
 66 69  1  0
 69 70  2  0
 69 71  1  0
 71 72  2  0
 72 73  1  0
 71 74  1  0
 74 75  3  0
 11  2  1  0
 23 17  1  0
 30 24  1  0
 59 31  1  0
 72 63  1  0
 10  5  1  0
 22 18  1  0
 33 28  1  0
 58 34  1  0
 23  7  1  0
 42 35  1  0
 57 43  1  0
 53 44  2  0
 52 46  2  0
  1 76  1  0
  6 77  1  0
  9 78  1  0
 17 79  1  0
 18 80  1  0
 19 81  1  0
 20 82  1  0
 21 83  1  0
 22 84  1  0
 22 85  1  0
 23 86  1  0
 26 87  1  0
 26 88  1  0
 27 89  1  0
 27 90  1  0
 27 91  1  0
 38 92  1  0
 38 93  1  0
 38 94  1  0
 40 95  1  0
 40 96  1  0
 40 97  1  0
 48 98  1  0
 48 99  1  0
 49100  1  0
 49101  1  0
 49102  1  0
 55103  1  0
 55104  1  0
 56105  1  0
 56106  1  0
 56107  1  0
 60108  1  0
 60109  1  0
 61110  1  0
 61111  1  0
 61112  1  0
 62113  1  0
 67114  1  0
 67115  1  0
 68116  1  0
 68117  1  0
 68118  1  0
 73119  1  0
 73120  1  0
 73121  1  0
M  END

