
     RDKit          3D

119133  0  0  0  0  0  0  0  0999 V2000
   -4.3141   -0.5425    5.3103 C   0  0  0  0  0  0  0  0  0  0  0  0
   -5.5736   -0.4756    4.8308 C   0  0  0  0  0  0  0  0  0  0  0  0
   -5.8152   -0.2956    3.3809 C   0  0  0  0  0  0  0  0  0  0  0  0
   -5.3646    0.6234    2.6545 O   0  0  0  0  0  0  0  0  0  0  0  0
   -6.6734   -1.3323    2.8741 C   0  0  0  0  0  0  0  0  0  0  0  0
   -6.9190   -1.6331    1.5180 C   0  0  0  0  0  0  0  0  0  0  0  0
   -7.6915   -2.7682    1.3317 C   0  0  0  0  0  0  0  0  0  0  0  0
   -8.2196   -3.5461    2.4121 C   0  0  0  0  0  0  0  0  0  0  0  0
   -7.9747   -3.2532    3.7448 C   0  0  0  0  0  0  0  0  0  0  0  0
   -7.1564   -2.0963    3.9525 C   0  0  0  0  0  0  0  0  0  0  0  0
   -6.5655   -1.5416    5.2062 C   0  0  0  0  0  0  0  0  0  0  0  0
   -6.9206   -1.8385    6.4778 C   0  0  0  0  0  0  0  0  0  0  0  0
   -7.9734   -2.7703    6.8023 C   0  0  0  0  0  0  0  0  0  0  0  0
   -8.8133   -3.5194    7.0790 N   0  0  0  0  0  0  0  0  0  0  0  0
   -6.3367   -1.1387    7.6034 C   0  0  0  0  0  0  0  0  0  0  0  0
   -5.8619   -0.5842    8.5018 N   0  0  0  0  0  0  0  0  0  0  0  0
   -8.8693   -4.4848    1.4355 C   0  0  0  0  0  0  0  0  0  0  0  0
  -10.4040   -4.3519    1.2142 C   0  0  0  0  0  0  0  0  0  0  0  0
  -10.8419   -2.9134    1.4077 C   0  0  0  0  0  0  0  0  0  0  0  0
  -10.3305   -2.2149    0.3934 C   0  0  0  0  0  0  0  0  0  0  0  0
   -9.5525   -3.1935   -0.4506 C   0  0  0  0  0  0  0  0  0  0  0  0
  -10.4520   -4.4068   -0.3008 C   0  0  0  0  0  0  0  0  0  0  0  0
   -8.3043   -3.7019    0.3319 C   0  0  0  0  0  0  0  0  0  0  0  0
   -3.4254    0.6388    5.4006 C   0  0  0  0  0  0  0  0  0  0  0  0
   -2.2585    0.6555    6.2024 C   0  0  0  0  0  0  0  0  0  0  0  0
   -2.1342   -0.0376    7.5401 C   0  0  0  0  0  0  0  0  0  0  0  0
   -2.5833    0.9217    8.6473 C   0  0  0  0  0  0  0  0  0  0  0  0
   -1.2338    1.4359    5.6299 C   0  0  0  0  0  0  0  0  0  0  0  0
   -1.5477    2.0113    4.4243 C   0  0  0  0  0  0  0  0  0  0  0  0
   -3.1054    1.6009    4.0470 S   0  0  0  0  0  0  0  0  0  0  0  0
   -0.4400    2.3702    3.6561 C   0  0  0  0  0  0  0  0  0  0  0  0
    0.7253    2.1798    4.3403 C   0  0  0  0  0  0  0  0  0  0  0  0
    0.4525    1.4354    5.8520 S   0  0  0  0  0  0  0  0  0  0  0  0
    1.7151    2.0180    3.4007 C   0  0  0  0  0  0  0  0  0  0  0  0
    2.9758    1.4124    3.5454 C   0  0  0  0  0  0  0  0  0  0  0  0
    3.5069    1.1532    4.7699 N   0  0  0  0  0  0  0  0  0  0  0  0
    4.6989    0.5090    4.9057 C   0  0  0  0  0  0  0  0  0  0  0  0
    5.2274    0.2530    6.2900 C   0  0  0  0  0  0  0  0  0  0  0  0
    5.3949    0.0889    3.7466 C   0  0  0  0  0  0  0  0  0  0  0  0
    6.7031   -0.6341    3.8307 C   0  0  0  0  0  0  0  0  0  0  0  0
    4.8581    0.3496    2.5249 N   0  0  0  0  0  0  0  0  0  0  0  0
    3.6713    0.9951    2.3896 C   0  0  0  0  0  0  0  0  0  0  0  0
    3.0967    1.2438    1.1349 C   0  0  0  0  0  0  0  0  0  0  0  0
    3.5316    0.9633   -0.1275 C   0  0  0  0  0  0  0  0  0  0  0  0
    4.8078    0.1763   -0.9225 S   0  0  0  0  0  0  0  0  0  0  0  0
    4.1415    0.5393   -2.4513 C   0  0  0  0  0  0  0  0  0  0  0  0
    4.4280    0.1209   -3.7631 C   0  0  0  0  0  0  0  0  0  0  0  0
    5.5472   -0.8326   -4.0939 C   0  0  0  0  0  0  0  0  0  0  0  0
    6.9022   -0.1446   -3.9657 C   0  0  0  0  0  0  0  0  0  0  0  0
    3.4247    0.5618   -4.6592 C   0  0  0  0  0  0  0  0  0  0  0  0
    2.2193    1.3974   -3.7947 S   0  0  0  0  0  0  0  0  0  0  0  0
    2.9811    1.2625   -2.3142 C   0  0  0  0  0  0  0  0  0  0  0  0
    2.6318    1.4823   -0.9849 C   0  0  0  0  0  0  0  0  0  0  0  0
    1.5961    2.0998   -0.3627 N   0  0  0  0  0  0  0  0  0  0  0  0
    0.8101    3.1827   -0.9743 C   0  0  0  0  0  0  0  0  0  0  0  0
   -0.2672    2.6398   -1.9284 C   0  0  0  0  0  0  0  0  0  0  0  0
    1.8634    1.8927    0.9731 C   0  0  0  0  0  0  0  0  0  0  0  0
    1.1065    2.2060    2.1445 C   0  0  0  0  0  0  0  0  0  0  0  0
   -0.2574    2.3510    2.3045 N   0  0  0  0  0  0  0  0  0  0  0  0
   -1.2914    1.9357    1.3508 C   0  0  0  0  0  0  0  0  0  0  0  0
   -1.3125    0.4178    1.1557 C   0  0  0  0  0  0  0  0  0  0  0  0
    3.1438    0.0644   -6.0147 C   0  0  0  0  0  0  0  0  0  0  0  0
    3.9624    0.0344   -7.0881 C   0  0  0  0  0  0  0  0  0  0  0  0
    3.6701   -0.8099   -8.2437 C   0  0  0  0  0  0  0  0  0  0  0  0
    2.5639   -1.3605   -8.5012 O   0  0  0  0  0  0  0  0  0  0  0  0
    4.8788   -0.9650   -9.0212 C   0  0  0  0  0  0  0  0  0  0  0  0
    5.1001   -1.7876  -10.1244 C   0  0  0  0  0  0  0  0  0  0  0  0
    6.3982   -1.8776  -10.6394 C   0  0  0  0  0  0  0  0  0  0  0  0
    6.6368   -2.6827  -11.7118 F   0  0  0  0  0  0  0  0  0  0  0  0
    7.4507   -1.1654  -10.0368 C   0  0  0  0  0  0  0  0  0  0  0  0
    7.2028   -0.3303   -8.9308 C   0  0  0  0  0  0  0  0  0  0  0  0
    5.8910   -0.2182   -8.4438 C   0  0  0  0  0  0  0  0  0  0  0  0
    5.3470    0.5619   -7.2882 C   0  0  0  0  0  0  0  0  0  0  0  0
    5.8278    1.7556   -6.8649 C   0  0  0  0  0  0  0  0  0  0  0  0
    5.0657    2.6506   -6.0388 C   0  0  0  0  0  0  0  0  0  0  0  0
    4.4713    3.3888   -5.3697 N   0  0  0  0  0  0  0  0  0  0  0  0
    7.0785    2.2899   -7.3415 C   0  0  0  0  0  0  0  0  0  0  0  0
    8.0822    2.7211   -7.7218 N   0  0  0  0  0  0  0  0  0  0  0  0
   -3.7296   -1.2541    4.7316 H   0  0  0  0  0  0  0  0  0  0  0  0
   -6.5117   -1.0701    0.6930 H   0  0  0  0  0  0  0  0  0  0  0  0
   -8.3698   -3.8706    4.5347 H   0  0  0  0  0  0  0  0  0  0  0  0
   -8.4798   -5.5297    1.5058 H   0  0  0  0  0  0  0  0  0  0  0  0
  -11.0160   -5.1067    1.7430 H   0  0  0  0  0  0  0  0  0  0  0  0
  -11.5131   -2.5273    2.1704 H   0  0  0  0  0  0  0  0  0  0  0  0
  -10.5017   -1.1605    0.1930 H   0  0  0  0  0  0  0  0  0  0  0  0
   -9.3479   -2.8683   -1.4953 H   0  0  0  0  0  0  0  0  0  0  0  0
  -10.0125   -5.3398   -0.7260 H   0  0  0  0  0  0  0  0  0  0  0  0
  -11.4752   -4.2494   -0.7156 H   0  0  0  0  0  0  0  0  0  0  0  0
   -7.5562   -4.2606   -0.2757 H   0  0  0  0  0  0  0  0  0  0  0  0
   -2.7777   -0.9451    7.5622 H   0  0  0  0  0  0  0  0  0  0  0  0
   -1.0818   -0.3338    7.7201 H   0  0  0  0  0  0  0  0  0  0  0  0
   -2.5210    0.4106    9.6346 H   0  0  0  0  0  0  0  0  0  0  0  0
   -1.9358    1.8260    8.6719 H   0  0  0  0  0  0  0  0  0  0  0  0
   -3.6341    1.2421    8.4885 H   0  0  0  0  0  0  0  0  0  0  0  0
    5.2829   -0.8433    6.4699 H   0  0  0  0  0  0  0  0  0  0  0  0
    6.2304    0.7090    6.4043 H   0  0  0  0  0  0  0  0  0  0  0  0
    4.5499    0.7038    7.0485 H   0  0  0  0  0  0  0  0  0  0  0  0
    7.0464   -0.9291    2.8171 H   0  0  0  0  0  0  0  0  0  0  0  0
    7.4673    0.0273    4.2916 H   0  0  0  0  0  0  0  0  0  0  0  0
    6.5826   -1.5564    4.4374 H   0  0  0  0  0  0  0  0  0  0  0  0
    5.4339   -1.2336   -5.1245 H   0  0  0  0  0  0  0  0  0  0  0  0
    5.5059   -1.7014   -3.3973 H   0  0  0  0  0  0  0  0  0  0  0  0
    7.1100    0.1207   -2.9148 H   0  0  0  0  0  0  0  0  0  0  0  0
    7.7048   -0.8231   -4.3390 H   0  0  0  0  0  0  0  0  0  0  0  0
    6.9330    0.7719   -4.5855 H   0  0  0  0  0  0  0  0  0  0  0  0
    0.3590    3.8239   -0.1941 H   0  0  0  0  0  0  0  0  0  0  0  0
    1.4961    3.8541   -1.5466 H   0  0  0  0  0  0  0  0  0  0  0  0
   -0.4576    1.5578   -1.7554 H   0  0  0  0  0  0  0  0  0  0  0  0
   -1.2166    3.1998   -1.7866 H   0  0  0  0  0  0  0  0  0  0  0  0
    0.0255    2.7879   -2.9929 H   0  0  0  0  0  0  0  0  0  0  0  0
   -1.1551    2.4182    0.3915 H   0  0  0  0  0  0  0  0  0  0  0  0
   -2.2853    2.2970    1.6643 H   0  0  0  0  0  0  0  0  0  0  0  0
   -2.0631    0.1466    0.3843 H   0  0  0  0  0  0  0  0  0  0  0  0
   -0.3195    0.0594    0.8265 H   0  0  0  0  0  0  0  0  0  0  0  0
   -1.5682   -0.0878    2.1115 H   0  0  0  0  0  0  0  0  0  0  0  0
    2.1542   -0.3623   -6.1354 H   0  0  0  0  0  0  0  0  0  0  0  0
    4.2935   -2.3699  -10.5494 H   0  0  0  0  0  0  0  0  0  0  0  0
    8.4630   -1.2743  -10.4151 H   0  0  0  0  0  0  0  0  0  0  0  0
    8.0406    0.1727   -8.4653 H   0  0  0  0  0  0  0  0  0  0  0  0
  1  2  2  3
  2  3  1  0
  3  4  2  0
  3  5  1  0
  5  6  2  0
  6  7  1  0
  7  8  2  0
  8  9  1  0
  9 10  2  0
 10 11  1  0
 11 12  2  3
 12 13  1  0
 13 14  3  0
 12 15  1  0
 15 16  3  0
  8 17  1  0
 17 18  1  0
 18 19  1  0
 19 20  2  0
 20 21  1  0
 21 22  1  0
 21 23  1  0
  1 24  1  0
 24 25  2  0
 25 26  1  0
 26 27  1  0
 25 28  1  0
 28 29  2  0
 29 30  1  0
 29 31  1  0
 31 32  2  0
 32 33  1  0
 32 34  1  0
 34 35  2  0
 35 36  1  0
 36 37  2  0
 37 38  1  0
 37 39  1  0
 39 40  1  0
 39 41  2  0
 41 42  1  0
 42 43  2  0
 43 44  1  0
 44 45  1  0
 45 46  1  0
 46 47  1  0
 47 48  1  0
 48 49  1  0
 47 50  2  0
 50 51  1  0
 51 52  1  0
 52 53  1  0
 53 54  1  0
 54 55  1  0
 55 56  1  0
 54 57  1  0
 57 58  2  0
 58 59  1  0
 59 60  1  0
 60 61  1  0
 50 62  1  0
 62 63  2  3
 63 64  1  0
 64 65  2  0
 64 66  1  0
 66 67  2  0
 67 68  1  0
 68 69  1  0
 68 70  2  0
 70 71  1  0
 71 72  2  0
 72 73  1  0
 73 74  2  3
 74 75  1  0
 75 76  3  0
 74 77  1  0
 77 78  3  0
 11  2  1  0
 23 17  1  0
 30 24  1  0
 59 31  1  0
 73 63  1  0
 10  5  1  0
 22 18  1  0
 33 28  1  0
 58 34  1  0
 72 66  1  0
 23  7  1  0
 42 35  1  0
 57 43  1  0
 53 44  2  0
 52 46  2  0
  1 79  1  0
  6 80  1  0
  9 81  1  0
 17 82  1  0
 18 83  1  0
 19 84  1  0
 20 85  1  0
 21 86  1  0
 22 87  1  0
 22 88  1  0
 23 89  1  0
 26 90  1  0
 26 91  1  0
 27 92  1  0
 27 93  1  0
 27 94  1  0
 38 95  1  0
 38 96  1  0
 38 97  1  0
 40 98  1  0
 40 99  1  0
 40100  1  0
 48101  1  0
 48102  1  0
 49103  1  0
 49104  1  0
 49105  1  0
 55106  1  0
 55107  1  0
 56108  1  0
 56109  1  0
 56110  1  0
 60111  1  0
 60112  1  0
 61113  1  0
 61114  1  0
 61115  1  0
 62116  1  0
 67117  1  0
 70118  1  0
 71119  1  0
M  END

