
     RDKit          3D

107120  0  0  0  0  0  0  0  0999 V2000
   -1.4073    1.1099   -5.5968 C   0  0  0  0  0  0  0  0  0  0  0  0
   -0.6912    2.1546   -5.1286 C   0  0  0  0  0  0  0  0  0  0  0  0
   -0.0728    2.2204   -3.7966 C   0  0  0  0  0  0  0  0  0  0  0  0
    0.0189    1.2812   -2.9604 O   0  0  0  0  0  0  0  0  0  0  0  0
    0.4292    3.5512   -3.5776 C   0  0  0  0  0  0  0  0  0  0  0  0
    1.0973    4.0147   -2.4224 C   0  0  0  0  0  0  0  0  0  0  0  0
    1.5081    5.3298   -2.5028 C   0  0  0  0  0  0  0  0  0  0  0  0
    1.2760    6.1461   -3.6557 C   0  0  0  0  0  0  0  0  0  0  0  0
    0.6167    5.6970   -4.7894 C   0  0  0  0  0  0  0  0  0  0  0  0
    0.1878    4.3405   -4.7330 C   0  0  0  0  0  0  0  0  0  0  0  0
   -0.4651    3.4901   -5.7769 C   0  0  0  0  0  0  0  0  0  0  0  0
   -0.6431    3.8039   -7.0882 C   0  0  0  0  0  0  0  0  0  0  0  0
   -0.4234    5.1275   -7.6166 C   0  0  0  0  0  0  0  0  0  0  0  0
   -0.2612    6.1846   -8.0603 N   0  0  0  0  0  0  0  0  0  0  0  0
   -0.9962    2.8216   -8.0792 C   0  0  0  0  0  0  0  0  0  0  0  0
   -1.2580    2.0411   -8.8936 N   0  0  0  0  0  0  0  0  0  0  0  0
    2.0097    7.2867   -3.0145 C   0  0  0  0  0  0  0  0  0  0  0  0
    3.4475    7.5700   -3.5436 C   0  0  0  0  0  0  0  0  0  0  0  0
    4.1041    8.4584   -2.5116 C   0  0  0  0  0  0  0  0  0  0  0  0
    4.3142    7.6959   -1.4310 C   0  0  0  0  0  0  0  0  0  0  0  0
    3.7950    6.3189   -1.7704 C   0  0  0  0  0  0  0  0  0  0  0  0
    4.1897    6.2793   -3.2367 C   0  0  0  0  0  0  0  0  0  0  0  0
    2.2438    6.4518   -1.8316 C   0  0  0  0  0  0  0  0  0  0  0  0
   -1.4889   -0.1690   -4.8813 C   0  0  0  0  0  0  0  0  0  0  0  0
   -0.5139   -1.1858   -4.9387 C   0  0  0  0  0  0  0  0  0  0  0  0
    0.6466   -1.2166   -5.8945 C   0  0  0  0  0  0  0  0  0  0  0  0
    1.8756   -0.5070   -5.3322 C   0  0  0  0  0  0  0  0  0  0  0  0
   -0.6754   -2.0873   -3.8860 C   0  0  0  0  0  0  0  0  0  0  0  0
   -1.7371   -1.8150   -3.0612 C   0  0  0  0  0  0  0  0  0  0  0  0
   -2.5157   -0.4178   -3.5441 S   0  0  0  0  0  0  0  0  0  0  0  0
   -1.6602   -2.4832   -1.8537 C   0  0  0  0  0  0  0  0  0  0  0  0
   -0.5538   -3.2645   -1.7603 C   0  0  0  0  0  0  0  0  0  0  0  0
    0.4185   -3.1711   -3.1474 S   0  0  0  0  0  0  0  0  0  0  0  0
   -0.3555   -3.5210   -0.4273 C   0  0  0  0  0  0  0  0  0  0  0  0
    0.6535   -4.2191    0.2542 C   0  0  0  0  0  0  0  0  0  0  0  0
    1.6576   -4.8570   -0.3986 N   0  0  0  0  0  0  0  0  0  0  0  0
    2.6238   -5.5337    0.2838 C   0  0  0  0  0  0  0  0  0  0  0  0
    3.7147   -6.2036   -0.4927 C   0  0  0  0  0  0  0  0  0  0  0  0
    2.5814   -5.5658    1.6987 C   0  0  0  0  0  0  0  0  0  0  0  0
    3.6405   -6.2531    2.5077 C   0  0  0  0  0  0  0  0  0  0  0  0
    1.5767   -4.9195    2.3486 N   0  0  0  0  0  0  0  0  0  0  0  0
    0.6041   -4.2590    1.6661 C   0  0  0  0  0  0  0  0  0  0  0  0
   -0.4100   -3.5376    2.3230 C   0  0  0  0  0  0  0  0  0  0  0  0
   -0.5210   -3.1735    3.6344 C   0  0  0  0  0  0  0  0  0  0  0  0
    0.4322   -3.2966    5.0341 S   0  0  0  0  0  0  0  0  0  0  0  0
   -0.3661   -1.9683    5.7507 C   0  0  0  0  0  0  0  0  0  0  0  0
   -0.1850   -1.2609    6.9448 C   0  0  0  0  0  0  0  0  0  0  0  0
    0.8127   -1.6886    7.9858 C   0  0  0  0  0  0  0  0  0  0  0  0
    0.1713   -2.6247    9.0015 C   0  0  0  0  0  0  0  0  0  0  0  0
   -1.0525   -0.1338    7.0005 C   0  0  0  0  0  0  0  0  0  0  0  0
   -1.9574   -0.0549    5.5496 S   0  0  0  0  0  0  0  0  0  0  0  0
   -1.2918   -1.4394    4.8925 C   0  0  0  0  0  0  0  0  0  0  0  0
   -1.3812   -2.1230    3.6860 C   0  0  0  0  0  0  0  0  0  0  0  0
   -1.8462   -1.7612    2.4650 N   0  0  0  0  0  0  0  0  0  0  0  0
   -2.1161   -0.3584    2.1095 C   0  0  0  0  0  0  0  0  0  0  0  0
   -0.8148    0.4382    2.0204 C   0  0  0  0  0  0  0  0  0  0  0  0
   -1.3212   -2.7232    1.6364 C   0  0  0  0  0  0  0  0  0  0  0  0
   -1.3690   -2.8128    0.2336 C   0  0  0  0  0  0  0  0  0  0  0  0
   -2.2212   -2.2161   -0.6544 N   0  0  0  0  0  0  0  0  0  0  0  0
   -3.6361   -1.8740   -0.4463 C   0  0  0  0  0  0  0  0  0  0  0  0
   -4.5563   -2.8352   -1.1961 C   0  0  0  0  0  0  0  0  0  0  0  0
   -1.1897    0.8780    8.0773 C   0  0  0  0  0  0  0  0  0  0  0  0
   -1.9496    2.0465    7.9664 C   0  0  0  0  0  0  0  0  0  0  0  0
   -1.9820    2.8146    9.1358 C   0  0  0  0  0  0  0  0  0  0  0  0
   -1.2466    2.2526   10.1721 C   0  0  0  0  0  0  0  0  0  0  0  0
   -1.1206    2.7996   11.4948 C   0  0  0  0  0  0  0  0  0  0  0  0
   -1.0362    3.2408   12.5612 N   0  0  0  0  0  0  0  0  0  0  0  0
   -0.5714    0.8098    9.6455 S   0  0  0  0  0  0  0  0  0  0  0  0
   -1.9713    1.1701   -6.5065 H   0  0  0  0  0  0  0  0  0  0  0  0
    1.2960    3.3908   -1.5624 H   0  0  0  0  0  0  0  0  0  0  0  0
    0.4827    6.3529   -5.6269 H   0  0  0  0  0  0  0  0  0  0  0  0
    1.3746    8.1818   -2.8269 H   0  0  0  0  0  0  0  0  0  0  0  0
    3.5115    7.9315   -4.5908 H   0  0  0  0  0  0  0  0  0  0  0  0
    4.4344    9.4852   -2.6438 H   0  0  0  0  0  0  0  0  0  0  0  0
    4.8449    7.9968   -0.5343 H   0  0  0  0  0  0  0  0  0  0  0  0
    4.1850    5.4927   -1.1386 H   0  0  0  0  0  0  0  0  0  0  0  0
    5.2912    6.3571   -3.4023 H   0  0  0  0  0  0  0  0  0  0  0  0
    3.8096    5.3917   -3.7870 H   0  0  0  0  0  0  0  0  0  0  0  0
    1.7533    6.8207   -0.9012 H   0  0  0  0  0  0  0  0  0  0  0  0
    0.9034   -2.2735   -6.1226 H   0  0  0  0  0  0  0  0  0  0  0  0
    0.3562   -0.7431   -6.8545 H   0  0  0  0  0  0  0  0  0  0  0  0
    2.1718   -0.9532   -4.3592 H   0  0  0  0  0  0  0  0  0  0  0  0
    2.7245   -0.6191   -6.0427 H   0  0  0  0  0  0  0  0  0  0  0  0
    1.6678    0.5754   -5.2031 H   0  0  0  0  0  0  0  0  0  0  0  0
    4.6983   -5.7708   -0.2110 H   0  0  0  0  0  0  0  0  0  0  0  0
    3.7112   -7.2936   -0.2837 H   0  0  0  0  0  0  0  0  0  0  0  0
    3.5584   -6.0581   -1.5842 H   0  0  0  0  0  0  0  0  0  0  0  0
    3.7353   -7.3103    2.1845 H   0  0  0  0  0  0  0  0  0  0  0  0
    3.3797   -6.2365    3.5872 H   0  0  0  0  0  0  0  0  0  0  0  0
    4.6120   -5.7376    2.3691 H   0  0  0  0  0  0  0  0  0  0  0  0
    1.6548   -2.2191    7.4997 H   0  0  0  0  0  0  0  0  0  0  0  0
    1.2562   -0.8049    8.4827 H   0  0  0  0  0  0  0  0  0  0  0  0
    0.9310   -2.9492    9.7442 H   0  0  0  0  0  0  0  0  0  0  0  0
   -0.2320   -3.5230    8.4932 H   0  0  0  0  0  0  0  0  0  0  0  0
   -0.6506   -2.1122    9.5417 H   0  0  0  0  0  0  0  0  0  0  0  0
   -2.7935    0.0994    2.8587 H   0  0  0  0  0  0  0  0  0  0  0  0
   -2.6091   -0.2615    1.1369 H   0  0  0  0  0  0  0  0  0  0  0  0
   -0.2719    0.4286    2.9874 H   0  0  0  0  0  0  0  0  0  0  0  0
   -0.1545    0.0159    1.2261 H   0  0  0  0  0  0  0  0  0  0  0  0
   -1.0477    1.4938    1.7623 H   0  0  0  0  0  0  0  0  0  0  0  0
   -3.8297   -0.8385   -0.7972 H   0  0  0  0  0  0  0  0  0  0  0  0
   -3.9058   -1.9495    0.6293 H   0  0  0  0  0  0  0  0  0  0  0  0
   -5.6107   -2.6149   -0.9328 H   0  0  0  0  0  0  0  0  0  0  0  0
   -4.3267   -3.8901   -0.9256 H   0  0  0  0  0  0  0  0  0  0  0  0
   -4.4365   -2.7040   -2.2921 H   0  0  0  0  0  0  0  0  0  0  0  0
   -2.4831    2.3382    7.0653 H   0  0  0  0  0  0  0  0  0  0  0  0
   -2.5235    3.7506    9.2235 H   0  0  0  0  0  0  0  0  0  0  0  0
  1  2  2  3
  2  3  1  0
  3  4  2  0
  3  5  1  0
  5  6  2  0
  6  7  1  0
  7  8  2  0
  8  9  1  0
  9 10  2  0
 10 11  1  0
 11 12  2  3
 12 13  1  0
 13 14  3  0
 12 15  1  0
 15 16  3  0
  8 17  1  0
 17 18  1  0
 18 19  1  0
 19 20  2  0
 20 21  1  0
 21 22  1  0
 21 23  1  0
  1 24  1  0
 24 25  2  0
 25 26  1  0
 26 27  1  0
 25 28  1  0
 28 29  2  0
 29 30  1  0
 29 31  1  0
 31 32  2  0
 32 33  1  0
 32 34  1  0
 34 35  2  0
 35 36  1  0
 36 37  2  0
 37 38  1  0
 37 39  1  0
 39 40  1  0
 39 41  2  0
 41 42  1  0
 42 43  2  0
 43 44  1  0
 44 45  1  0
 45 46  1  0
 46 47  1  0
 47 48  1  0
 48 49  1  0
 47 50  2  0
 50 51  1  0
 51 52  1  0
 52 53  1  0
 53 54  1  0
 54 55  1  0
 55 56  1  0
 54 57  1  0
 57 58  2  0
 58 59  1  0
 59 60  1  0
 60 61  1  0
 50 62  1  0
 62 63  2  0
 63 64  1  0
 64 65  2  0
 65 66  1  0
 66 67  3  0
 65 68  1  0
 11  2  1  0
 23 17  1  0
 30 24  1  0
 59 31  1  0
 68 62  1  0
 10  5  1  0
 22 18  1  0
 33 28  1  0
 58 34  1  0
 23  7  1  0
 42 35  1  0
 57 43  1  0
 53 44  2  0
 52 46  2  0
  1 69  1  0
  6 70  1  0
  9 71  1  0
 17 72  1  0
 18 73  1  0
 19 74  1  0
 20 75  1  0
 21 76  1  0
 22 77  1  0
 22 78  1  0
 23 79  1  0
 26 80  1  0
 26 81  1  0
 27 82  1  0
 27 83  1  0
 27 84  1  0
 38 85  1  0
 38 86  1  0
 38 87  1  0
 40 88  1  0
 40 89  1  0
 40 90  1  0
 48 91  1  0
 48 92  1  0
 49 93  1  0
 49 94  1  0
 49 95  1  0
 55 96  1  0
 55 97  1  0
 56 98  1  0
 56 99  1  0
 56100  1  0
 60101  1  0
 60102  1  0
 61103  1  0
 61104  1  0
 61105  1  0
 63106  1  0
 64107  1  0
M  END

