
     RDKit          3D

116130  0  0  0  0  0  0  0  0999 V2000
    5.2763    3.2774    3.1522 C   0  0  0  0  0  0  0  0  0  0  0  0
    4.8239    3.7608    1.9735 C   0  0  0  0  0  0  0  0  0  0  0  0
    4.1590    2.9610    0.9345 C   0  0  0  0  0  0  0  0  0  0  0  0
    4.2265    1.7061    0.7883 O   0  0  0  0  0  0  0  0  0  0  0  0
    3.4014    3.8354    0.0782 C   0  0  0  0  0  0  0  0  0  0  0  0
    2.5640    3.4503   -0.9963 C   0  0  0  0  0  0  0  0  0  0  0  0
    1.8971    4.5072   -1.5884 C   0  0  0  0  0  0  0  0  0  0  0  0
    2.0246    5.8627   -1.1443 C   0  0  0  0  0  0  0  0  0  0  0  0
    2.8539    6.2459   -0.1026 C   0  0  0  0  0  0  0  0  0  0  0  0
    3.5742    5.1783    0.5083 C   0  0  0  0  0  0  0  0  0  0  0  0
    4.5594    5.1976    1.6359 C   0  0  0  0  0  0  0  0  0  0  0  0
    5.1935    6.2840    2.1556 C   0  0  0  0  0  0  0  0  0  0  0  0
    4.8470    7.6355    1.8038 C   0  0  0  0  0  0  0  0  0  0  0  0
    4.5800    8.7288    1.5268 N   0  0  0  0  0  0  0  0  0  0  0  0
    6.3522    6.1538    3.0008 C   0  0  0  0  0  0  0  0  0  0  0  0
    7.2806    6.0539    3.6792 N   0  0  0  0  0  0  0  0  0  0  0  0
    1.0574    6.3219   -2.1936 C   0  0  0  0  0  0  0  0  0  0  0  0
    1.6248    7.0727   -3.4390 C   0  0  0  0  0  0  0  0  0  0  0  0
    3.0281    6.6013   -3.7320 C   0  0  0  0  0  0  0  0  0  0  0  0
    2.9233    5.3378   -4.1515 C   0  0  0  0  0  0  0  0  0  0  0  0
    1.4482    4.9916   -4.1279 C   0  0  0  0  0  0  0  0  0  0  0  0
    0.8861    6.3423   -4.5452 C   0  0  0  0  0  0  0  0  0  0  0  0
    0.9315    4.9315   -2.6546 C   0  0  0  0  0  0  0  0  0  0  0  0
    4.9618    1.9104    3.5839 C   0  0  0  0  0  0  0  0  0  0  0  0
    5.7262    0.7542    3.3316 C   0  0  0  0  0  0  0  0  0  0  0  0
    7.1585    0.7495    2.8565 C   0  0  0  0  0  0  0  0  0  0  0  0
    7.2493    0.8336    1.3375 C   0  0  0  0  0  0  0  0  0  0  0  0
    4.9392   -0.3951    3.4565 C   0  0  0  0  0  0  0  0  0  0  0  0
    3.6268   -0.1755    3.8162 C   0  0  0  0  0  0  0  0  0  0  0  0
    3.3691    1.4712    3.9507 S   0  0  0  0  0  0  0  0  0  0  0  0
    2.7843   -1.2545    3.5491 C   0  0  0  0  0  0  0  0  0  0  0  0
    3.4677   -2.2933    2.9933 C   0  0  0  0  0  0  0  0  0  0  0  0
    5.1163   -1.9354    2.7644 S   0  0  0  0  0  0  0  0  0  0  0  0
    2.5652   -2.9985    2.2384 C   0  0  0  0  0  0  0  0  0  0  0  0
    2.8249   -3.8775    1.1728 C   0  0  0  0  0  0  0  0  0  0  0  0
    4.0719   -4.3515    0.9177 N   0  0  0  0  0  0  0  0  0  0  0  0
    4.3237   -5.1506   -0.1546 C   0  0  0  0  0  0  0  0  0  0  0  0
    5.7281   -5.6241   -0.3906 C   0  0  0  0  0  0  0  0  0  0  0  0
    3.2673   -5.4790   -1.0327 C   0  0  0  0  0  0  0  0  0  0  0  0
    3.4868   -6.3232   -2.2551 C   0  0  0  0  0  0  0  0  0  0  0  0
    2.0199   -5.0010   -0.7763 N   0  0  0  0  0  0  0  0  0  0  0  0
    1.7727   -4.2109    0.2983 C   0  0  0  0  0  0  0  0  0  0  0  0
    0.5070   -3.6673    0.5460 C   0  0  0  0  0  0  0  0  0  0  0  0
   -0.6747   -3.8231   -0.1220 C   0  0  0  0  0  0  0  0  0  0  0  0
   -1.3246   -4.7205   -1.4187 S   0  0  0  0  0  0  0  0  0  0  0  0
   -2.8798   -4.0821   -1.0983 C   0  0  0  0  0  0  0  0  0  0  0  0
   -4.1298   -4.2500   -1.6887 C   0  0  0  0  0  0  0  0  0  0  0  0
   -4.4269   -5.2416   -2.7834 C   0  0  0  0  0  0  0  0  0  0  0  0
   -4.5143   -4.5569   -4.1431 C   0  0  0  0  0  0  0  0  0  0  0  0
   -5.0774   -3.3863   -1.1010 C   0  0  0  0  0  0  0  0  0  0  0  0
   -4.3740   -2.5434    0.2066 S   0  0  0  0  0  0  0  0  0  0  0  0
   -2.8631   -3.2269   -0.0244 C   0  0  0  0  0  0  0  0  0  0  0  0
   -1.6056   -3.1078    0.5437 C   0  0  0  0  0  0  0  0  0  0  0  0
   -1.1308   -2.5274    1.6689 N   0  0  0  0  0  0  0  0  0  0  0  0
   -1.9930   -2.1787    2.8073 C   0  0  0  0  0  0  0  0  0  0  0  0
   -1.6102   -2.9469    4.0754 C   0  0  0  0  0  0  0  0  0  0  0  0
    0.2212   -2.8095    1.6255 C   0  0  0  0  0  0  0  0  0  0  0  0
    1.3092   -2.4010    2.4554 C   0  0  0  0  0  0  0  0  0  0  0  0
    1.4594   -1.2882    3.2512 N   0  0  0  0  0  0  0  0  0  0  0  0
    0.5433   -0.1654    3.4807 C   0  0  0  0  0  0  0  0  0  0  0  0
    0.3058    0.6285    2.1985 C   0  0  0  0  0  0  0  0  0  0  0  0
   -6.5113   -3.3382   -1.4374 C   0  0  0  0  0  0  0  0  0  0  0  0
   -7.2669   -2.2229   -1.4358 C   0  0  0  0  0  0  0  0  0  0  0  0
   -8.7131   -2.2766   -1.1816 C   0  0  0  0  0  0  0  0  0  0  0  0
   -9.4266   -3.3092   -1.1089 O   0  0  0  0  0  0  0  0  0  0  0  0
   -9.1286   -0.9363   -0.8597 C   0  0  0  0  0  0  0  0  0  0  0  0
  -10.4722   -0.2405   -0.1406 S   0  0  0  0  0  0  0  0  0  0  0  0
   -9.7106    1.2675    0.0230 C   0  0  0  0  0  0  0  0  0  0  0  0
  -10.5094    2.7902    0.8427 Br  0  0  0  0  0  0  0  0  0  0  0  0
   -8.3959    1.2091   -0.4550 C   0  0  0  0  0  0  0  0  0  0  0  0
   -8.0937   -0.0707   -0.9339 C   0  0  0  0  0  0  0  0  0  0  0  0
   -6.8719   -0.7687   -1.3924 C   0  0  0  0  0  0  0  0  0  0  0  0
   -5.7892   -0.1636   -1.9400 C   0  0  0  0  0  0  0  0  0  0  0  0
   -4.7713   -0.8694   -2.6751 C   0  0  0  0  0  0  0  0  0  0  0  0
   -3.9318   -1.4096   -3.2671 N   0  0  0  0  0  0  0  0  0  0  0  0
   -5.6552    1.2742   -1.9549 C   0  0  0  0  0  0  0  0  0  0  0  0
   -5.5417    2.4309   -1.9936 N   0  0  0  0  0  0  0  0  0  0  0  0
    5.6003    3.9415    3.9343 H   0  0  0  0  0  0  0  0  0  0  0  0
    2.4440    2.4254   -1.3219 H   0  0  0  0  0  0  0  0  0  0  0  0
    2.9038    7.2758    0.2046 H   0  0  0  0  0  0  0  0  0  0  0  0
    0.1166    6.7403   -1.7809 H   0  0  0  0  0  0  0  0  0  0  0  0
    1.4852    8.1724   -3.4249 H   0  0  0  0  0  0  0  0  0  0  0  0
    3.9409    7.1888   -3.6807 H   0  0  0  0  0  0  0  0  0  0  0  0
    3.7424    4.7210   -4.5090 H   0  0  0  0  0  0  0  0  0  0  0  0
    1.1592    4.1330   -4.7725 H   0  0  0  0  0  0  0  0  0  0  0  0
   -0.2229    6.4008   -4.4545 H   0  0  0  0  0  0  0  0  0  0  0  0
    1.1986    6.6600   -5.5710 H   0  0  0  0  0  0  0  0  0  0  0  0
   -0.0912    4.5214   -2.5301 H   0  0  0  0  0  0  0  0  0  0  0  0
    7.7008    1.6073    3.3145 H   0  0  0  0  0  0  0  0  0  0  0  0
    7.6499   -0.1817    3.2029 H   0  0  0  0  0  0  0  0  0  0  0  0
    8.3058    0.6986    1.0246 H   0  0  0  0  0  0  0  0  0  0  0  0
    6.9075    1.8245    0.9824 H   0  0  0  0  0  0  0  0  0  0  0  0
    6.6410    0.0352    0.8687 H   0  0  0  0  0  0  0  0  0  0  0  0
    6.3920   -5.3097    0.4464 H   0  0  0  0  0  0  0  0  0  0  0  0
    6.1249   -5.1698   -1.3342 H   0  0  0  0  0  0  0  0  0  0  0  0
    5.7587   -6.7236   -0.4716 H   0  0  0  0  0  0  0  0  0  0  0  0
    4.2150   -5.8215   -2.9315 H   0  0  0  0  0  0  0  0  0  0  0  0
    2.5380   -6.4512   -2.8193 H   0  0  0  0  0  0  0  0  0  0  0  0
    3.8626   -7.3302   -1.9716 H   0  0  0  0  0  0  0  0  0  0  0  0
   -5.3829   -5.7633   -2.5658 H   0  0  0  0  0  0  0  0  0  0  0  0
   -3.6342   -6.0176   -2.8193 H   0  0  0  0  0  0  0  0  0  0  0  0
   -3.5368   -4.0934   -4.3987 H   0  0  0  0  0  0  0  0  0  0  0  0
   -4.7624   -5.3136   -4.9225 H   0  0  0  0  0  0  0  0  0  0  0  0
   -5.3154   -3.7858   -4.1380 H   0  0  0  0  0  0  0  0  0  0  0  0
   -2.0616   -1.0856    2.9420 H   0  0  0  0  0  0  0  0  0  0  0  0
   -3.0365   -2.4734    2.5942 H   0  0  0  0  0  0  0  0  0  0  0  0
   -1.7402   -4.0341    3.9143 H   0  0  0  0  0  0  0  0  0  0  0  0
   -2.2699   -2.6342    4.9142 H   0  0  0  0  0  0  0  0  0  0  0  0
   -0.5596   -2.7571    4.3759 H   0  0  0  0  0  0  0  0  0  0  0  0
   -0.3780   -0.4963    3.9495 H   0  0  0  0  0  0  0  0  0  0  0  0
    0.9427    0.5114    4.2601 H   0  0  0  0  0  0  0  0  0  0  0  0
   -0.2596    1.5552    2.4277 H   0  0  0  0  0  0  0  0  0  0  0  0
    1.2779    0.9201    1.7465 H   0  0  0  0  0  0  0  0  0  0  0  0
   -0.2669    0.0309    1.4639 H   0  0  0  0  0  0  0  0  0  0  0  0
   -7.0073   -4.2967   -1.5310 H   0  0  0  0  0  0  0  0  0  0  0  0
   -7.6938    2.0283   -0.3755 H   0  0  0  0  0  0  0  0  0  0  0  0
  1  2  2  3
  2  3  1  0
  3  4  2  0
  3  5  1  0
  5  6  2  0
  6  7  1  0
  7  8  2  0
  8  9  1  0
  9 10  2  0
 10 11  1  0
 11 12  2  3
 12 13  1  0
 13 14  3  0
 12 15  1  0
 15 16  3  0
  8 17  1  0
 17 18  1  0
 18 19  1  0
 19 20  2  0
 20 21  1  0
 21 22  1  0
 21 23  1  0
  1 24  1  0
 24 25  2  0
 25 26  1  0
 26 27  1  0
 25 28  1  0
 28 29  2  0
 29 30  1  0
 29 31  1  0
 31 32  2  0
 32 33  1  0
 32 34  1  0
 34 35  2  0
 35 36  1  0
 36 37  2  0
 37 38  1  0
 37 39  1  0
 39 40  1  0
 39 41  2  0
 41 42  1  0
 42 43  2  0
 43 44  1  0
 44 45  1  0
 45 46  1  0
 46 47  1  0
 47 48  1  0
 48 49  1  0
 47 50  2  0
 50 51  1  0
 51 52  1  0
 52 53  1  0
 53 54  1  0
 54 55  1  0
 55 56  1  0
 54 57  1  0
 57 58  2  0
 58 59  1  0
 59 60  1  0
 60 61  1  0
 50 62  1  0
 62 63  2  3
 63 64  1  0
 64 65  2  0
 64 66  1  0
 66 67  1  0
 67 68  1  0
 68 69  1  0
 68 70  2  0
 70 71  1  0
 71 72  1  0
 72 73  2  3
 73 74  1  0
 74 75  3  0
 73 76  1  0
 76 77  3  0
 11  2  1  0
 23 17  1  0
 30 24  1  0
 59 31  1  0
 72 63  1  0
 10  5  1  0
 22 18  1  0
 33 28  1  0
 58 34  1  0
 71 66  2  0
 23  7  1  0
 42 35  1  0
 57 43  1  0
 53 44  2  0
 52 46  2  0
  1 78  1  0
  6 79  1  0
  9 80  1  0
 17 81  1  0
 18 82  1  0
 19 83  1  0
 20 84  1  0
 21 85  1  0
 22 86  1  0
 22 87  1  0
 23 88  1  0
 26 89  1  0
 26 90  1  0
 27 91  1  0
 27 92  1  0
 27 93  1  0
 38 94  1  0
 38 95  1  0
 38 96  1  0
 40 97  1  0
 40 98  1  0
 40 99  1  0
 48100  1  0
 48101  1  0
 49102  1  0
 49103  1  0
 49104  1  0
 55105  1  0
 55106  1  0
 56107  1  0
 56108  1  0
 56109  1  0
 60110  1  0
 60111  1  0
 61112  1  0
 61113  1  0
 61114  1  0
 62115  1  0
 70116  1  0
M  END

