
     RDKit          3D

106120  0  0  0  0  0  0  0  0999 V2000
    1.9561   -1.5622   -4.5254 C   0  0  0  0  0  0  0  0  0  0  0  0
    2.1290   -2.6743   -3.7855 C   0  0  0  0  0  0  0  0  0  0  0  0
    1.6044   -2.9116   -2.4341 C   0  0  0  0  0  0  0  0  0  0  0  0
    1.2781   -2.0326   -1.5839 O   0  0  0  0  0  0  0  0  0  0  0  0
    1.5703   -4.3363   -2.1939 C   0  0  0  0  0  0  0  0  0  0  0  0
    0.9436   -5.0052   -1.1165 C   0  0  0  0  0  0  0  0  0  0  0  0
    0.9269   -6.3808   -1.2437 C   0  0  0  0  0  0  0  0  0  0  0  0
    1.5044   -7.0712   -2.3589 C   0  0  0  0  0  0  0  0  0  0  0  0
    2.1323   -6.4213   -3.4139 C   0  0  0  0  0  0  0  0  0  0  0  0
    2.1609   -5.0007   -3.2996 C   0  0  0  0  0  0  0  0  0  0  0  0
    2.6679   -3.9859   -4.2597 C   0  0  0  0  0  0  0  0  0  0  0  0
    3.6543   -4.1757   -5.1770 C   0  0  0  0  0  0  0  0  0  0  0  0
    4.2370   -5.4685   -5.4378 C   0  0  0  0  0  0  0  0  0  0  0  0
    4.7166   -6.5017   -5.6521 N   0  0  0  0  0  0  0  0  0  0  0  0
    4.3131   -3.0744   -5.8313 C   0  0  0  0  0  0  0  0  0  0  0  0
    4.8491   -2.1921   -6.3561 N   0  0  0  0  0  0  0  0  0  0  0  0
    1.0462   -8.3908   -1.8012 C   0  0  0  0  0  0  0  0  0  0  0  0
    2.1409   -9.2936   -1.1504 C   0  0  0  0  0  0  0  0  0  0  0  0
    1.3905  -10.3223   -0.3340 C   0  0  0  0  0  0  0  0  0  0  0  0
    0.8752   -9.6706    0.7096 C   0  0  0  0  0  0  0  0  0  0  0  0
    1.2748   -8.2205    0.5600 C   0  0  0  0  0  0  0  0  0  0  0  0
    2.6680   -8.4285   -0.0169 C   0  0  0  0  0  0  0  0  0  0  0  0
    0.4647   -7.6799   -0.6560 C   0  0  0  0  0  0  0  0  0  0  0  0
    1.2377   -0.3627   -4.0664 C   0  0  0  0  0  0  0  0  0  0  0  0
   -0.3308   -0.3358   -3.4340 S   0  0  0  0  0  0  0  0  0  0  0  0
   -0.3458    1.3215   -3.1838 C   0  0  0  0  0  0  0  0  0  0  0  0
   -1.2804    2.0709   -2.4818 C   0  0  0  0  0  0  0  0  0  0  0  0
   -1.0361    3.4018   -2.1708 C   0  0  0  0  0  0  0  0  0  0  0  0
    0.1279    4.0504   -2.6588 C   0  0  0  0  0  0  0  0  0  0  0  0
    1.1120    3.2697   -3.3789 C   0  0  0  0  0  0  0  0  0  0  0  0
    2.3298    3.8723   -3.7780 C   0  0  0  0  0  0  0  0  0  0  0  0
    2.5349    5.2176   -3.4636 C   0  0  0  0  0  0  0  0  0  0  0  0
    3.6423    5.9669   -3.6519 N   0  0  0  0  0  0  0  0  0  0  0  0
    3.3285    7.1626   -3.0921 C   0  0  0  0  0  0  0  0  0  0  0  0
    4.1389    8.1260   -3.0127 O   0  0  0  0  0  0  0  0  0  0  0  0
    2.0656    7.2087   -2.5972 N   0  0  0  0  0  0  0  0  0  0  0  0
    1.4361    8.3024   -1.8477 C   0  0  0  0  0  0  0  0  0  0  0  0
    1.5914    8.0859   -0.3448 C   0  0  0  0  0  0  0  0  0  0  0  0
    1.5848    5.9645   -2.8200 C   0  0  0  0  0  0  0  0  0  0  0  0
    0.3715    5.4205   -2.4022 C   0  0  0  0  0  0  0  0  0  0  0  0
    4.9450    5.5404   -4.1721 C   0  0  0  0  0  0  0  0  0  0  0  0
    5.7041    4.7385   -3.1229 C   0  0  0  0  0  0  0  0  0  0  0  0
    0.8535    1.8896   -3.6015 C   0  0  0  0  0  0  0  0  0  0  0  0
    1.7370    0.9291   -4.1370 C   0  0  0  0  0  0  0  0  0  0  0  0
   -1.9727    3.9164   -1.2558 C   0  0  0  0  0  0  0  0  0  0  0  0
   -2.9113    2.9710   -0.8378 C   0  0  0  0  0  0  0  0  0  0  0  0
   -2.6474    1.5252   -1.6758 S   0  0  0  0  0  0  0  0  0  0  0  0
   -3.9395    3.2371    0.1918 C   0  0  0  0  0  0  0  0  0  0  0  0
   -4.2656    2.4223    1.2286 C   0  0  0  0  0  0  0  0  0  0  0  0
   -3.5702    1.1785    1.6038 C   0  0  0  0  0  0  0  0  0  0  0  0
   -2.6020    0.6386    0.9981 O   0  0  0  0  0  0  0  0  0  0  0  0
   -4.0875    0.7002    2.8578 C   0  0  0  0  0  0  0  0  0  0  0  0
   -3.6130   -0.4135    3.5867 C   0  0  0  0  0  0  0  0  0  0  0  0
   -4.1920   -0.5533    4.8288 C   0  0  0  0  0  0  0  0  0  0  0  0
   -5.1705    0.3552    5.3474 C   0  0  0  0  0  0  0  0  0  0  0  0
   -5.6417    1.4460    4.6362 C   0  0  0  0  0  0  0  0  0  0  0  0
   -5.0773    1.5960    3.3306 C   0  0  0  0  0  0  0  0  0  0  0  0
   -5.2829    2.6749    2.3160 C   0  0  0  0  0  0  0  0  0  0  0  0
   -6.2825    3.6076    2.3347 C   0  0  0  0  0  0  0  0  0  0  0  0
   -7.3015    3.6370    3.3465 C   0  0  0  0  0  0  0  0  0  0  0  0
   -8.1395    3.6785    4.1460 N   0  0  0  0  0  0  0  0  0  0  0  0
   -6.4628    4.6060    1.3118 C   0  0  0  0  0  0  0  0  0  0  0  0
   -6.6196    5.4163    0.4963 N   0  0  0  0  0  0  0  0  0  0  0  0
   -5.1723   -0.3742    6.6622 C   0  0  0  0  0  0  0  0  0  0  0  0
   -4.4224    0.3121    7.8455 C   0  0  0  0  0  0  0  0  0  0  0  0
   -4.2108   -0.7623    8.8889 C   0  0  0  0  0  0  0  0  0  0  0  0
   -3.2938   -1.6008    8.3911 C   0  0  0  0  0  0  0  0  0  0  0  0
   -2.9226   -1.0695    7.0286 C   0  0  0  0  0  0  0  0  0  0  0  0
   -2.9951    0.4190    7.3315 C   0  0  0  0  0  0  0  0  0  0  0  0
   -4.1715   -1.3030    6.1229 C   0  0  0  0  0  0  0  0  0  0  0  0
    2.3388   -1.5166   -5.5315 H   0  0  0  0  0  0  0  0  0  0  0  0
    0.4591   -4.4895   -0.2956 H   0  0  0  0  0  0  0  0  0  0  0  0
    2.4933   -6.9742   -4.2660 H   0  0  0  0  0  0  0  0  0  0  0  0
    0.3018   -8.9157   -2.4420 H   0  0  0  0  0  0  0  0  0  0  0  0
    2.9030   -9.7055   -1.8450 H   0  0  0  0  0  0  0  0  0  0  0  0
    1.3585  -11.3970   -0.4893 H   0  0  0  0  0  0  0  0  0  0  0  0
    0.3435  -10.1199    1.5441 H   0  0  0  0  0  0  0  0  0  0  0  0
    1.2170   -7.6090    1.4851 H   0  0  0  0  0  0  0  0  0  0  0  0
    3.1703   -7.4858   -0.3472 H   0  0  0  0  0  0  0  0  0  0  0  0
    3.3515   -8.9753    0.6797 H   0  0  0  0  0  0  0  0  0  0  0  0
   -0.6462   -7.7585   -0.5808 H   0  0  0  0  0  0  0  0  0  0  0  0
    3.1048    3.3219   -4.2940 H   0  0  0  0  0  0  0  0  0  0  0  0
    0.3569    8.3624   -2.1096 H   0  0  0  0  0  0  0  0  0  0  0  0
    1.9032    9.2688   -2.1316 H   0  0  0  0  0  0  0  0  0  0  0  0
    2.6688    8.0811   -0.0774 H   0  0  0  0  0  0  0  0  0  0  0  0
    1.0793    8.9055    0.2016 H   0  0  0  0  0  0  0  0  0  0  0  0
    1.1345    7.1158   -0.0560 H   0  0  0  0  0  0  0  0  0  0  0  0
   -0.3372    6.0404   -1.8786 H   0  0  0  0  0  0  0  0  0  0  0  0
    5.5418    6.4279   -4.4651 H   0  0  0  0  0  0  0  0  0  0  0  0
    4.8012    4.9183   -5.0790 H   0  0  0  0  0  0  0  0  0  0  0  0
    5.8310    5.3393   -2.1990 H   0  0  0  0  0  0  0  0  0  0  0  0
    5.1551    3.8102   -2.8826 H   0  0  0  0  0  0  0  0  0  0  0  0
    6.7089    4.4670   -3.5168 H   0  0  0  0  0  0  0  0  0  0  0  0
    2.7310    1.1491   -4.5092 H   0  0  0  0  0  0  0  0  0  0  0  0
   -1.9408    4.9155   -0.8472 H   0  0  0  0  0  0  0  0  0  0  0  0
   -4.3394    4.2311    0.1423 H   0  0  0  0  0  0  0  0  0  0  0  0
   -2.8370   -1.0755    3.2271 H   0  0  0  0  0  0  0  0  0  0  0  0
   -6.3236    2.1328    5.1022 H   0  0  0  0  0  0  0  0  0  0  0  0
   -6.1485   -0.8445    6.9141 H   0  0  0  0  0  0  0  0  0  0  0  0
   -4.8790    1.2486    8.2236 H   0  0  0  0  0  0  0  0  0  0  0  0
   -4.6248   -0.8045    9.8880 H   0  0  0  0  0  0  0  0  0  0  0  0
   -2.8383   -2.4361    8.9219 H   0  0  0  0  0  0  0  0  0  0  0  0
   -1.9556   -1.4354    6.6210 H   0  0  0  0  0  0  0  0  0  0  0  0
   -2.8821    1.0802    6.4396 H   0  0  0  0  0  0  0  0  0  0  0  0
   -2.2648    0.7491    8.1130 H   0  0  0  0  0  0  0  0  0  0  0  0
   -4.5103   -2.3601    6.0326 H   0  0  0  0  0  0  0  0  0  0  0  0
  1  2  2  3
  2  3  1  0
  3  4  2  0
  3  5  1  0
  5  6  2  0
  6  7  1  0
  7  8  2  0
  8  9  1  0
  9 10  2  0
 10 11  1  0
 11 12  2  3
 12 13  1  0
 13 14  3  0
 12 15  1  0
 15 16  3  0
  8 17  1  0
 17 18  1  0
 18 19  1  0
 19 20  2  0
 20 21  1  0
 21 22  1  0
 21 23  1  0
  1 24  1  0
 24 25  1  0
 25 26  1  0
 26 27  2  0
 27 28  1  0
 28 29  2  0
 29 30  1  0
 30 31  1  0
 31 32  2  0
 32 33  1  0
 33 34  1  0
 34 35  2  0
 34 36  1  0
 36 37  1  0
 37 38  1  0
 36 39  1  0
 39 40  2  0
 33 41  1  0
 41 42  1  0
 30 43  2  0
 43 44  1  0
 28 45  1  0
 45 46  2  0
 46 47  1  0
 46 48  1  0
 48 49  2  3
 49 50  1  0
 50 51  2  0
 50 52  1  0
 52 53  2  0
 53 54  1  0
 54 55  2  0
 55 56  1  0
 56 57  2  0
 57 58  1  0
 58 59  2  3
 59 60  1  0
 60 61  3  0
 59 62  1  0
 62 63  3  0
 55 64  1  0
 64 65  1  0
 65 66  1  0
 66 67  2  0
 67 68  1  0
 68 69  1  0
 68 70  1  0
 11  2  1  0
 23 17  1  0
 44 24  2  0
 58 49  1  0
 70 64  1  0
 10  5  1  0
 22 18  1  0
 43 26  1  0
 57 52  1  0
 69 65  1  0
 23  7  1  0
 47 27  1  0
 70 54  1  0
 40 29  1  0
 39 32  1  0
  1 71  1  0
  6 72  1  0
  9 73  1  0
 17 74  1  0
 18 75  1  0
 19 76  1  0
 20 77  1  0
 21 78  1  0
 22 79  1  0
 22 80  1  0
 23 81  1  0
 31 82  1  0
 37 83  1  0
 37 84  1  0
 38 85  1  0
 38 86  1  0
 38 87  1  0
 40 88  1  0
 41 89  1  0
 41 90  1  0
 42 91  1  0
 42 92  1  0
 42 93  1  0
 44 94  1  0
 45 95  1  0
 48 96  1  0
 53 97  1  0
 56 98  1  0
 64 99  1  0
 65100  1  0
 66101  1  0
 67102  1  0
 68103  1  0
 69104  1  0
 69105  1  0
 70106  1  0
M  END

