
     RDKit          3D

103116  0  0  0  0  0  0  0  0999 V2000
   -4.3680    3.3593   -1.4420 C   0  0  0  0  0  0  0  0  0  0  0  0
   -4.8434    3.2648   -0.1893 C   0  0  0  0  0  0  0  0  0  0  0  0
   -4.6833    2.0629    0.6321 C   0  0  0  0  0  0  0  0  0  0  0  0
   -4.1612    0.9726    0.2430 O   0  0  0  0  0  0  0  0  0  0  0  0
   -5.5040    2.1920    1.8122 C   0  0  0  0  0  0  0  0  0  0  0  0
   -5.5684    1.2863    2.8907 C   0  0  0  0  0  0  0  0  0  0  0  0
   -6.2716    1.7645    3.9734 C   0  0  0  0  0  0  0  0  0  0  0  0
   -6.8848    3.0586    4.0102 C   0  0  0  0  0  0  0  0  0  0  0  0
   -6.8945    3.9212    2.9190 C   0  0  0  0  0  0  0  0  0  0  0  0
   -6.1870    3.4330    1.7757 C   0  0  0  0  0  0  0  0  0  0  0  0
   -5.8929    4.1028    0.4655 C   0  0  0  0  0  0  0  0  0  0  0  0
   -6.3342    5.3134    0.0330 C   0  0  0  0  0  0  0  0  0  0  0  0
   -7.2325    6.1437    0.7954 C   0  0  0  0  0  0  0  0  0  0  0  0
   -7.9536    6.8242    1.3970 N   0  0  0  0  0  0  0  0  0  0  0  0
   -5.8485    5.9036   -1.1861 C   0  0  0  0  0  0  0  0  0  0  0  0
   -5.4555    6.3963   -2.1609 N   0  0  0  0  0  0  0  0  0  0  0  0
   -7.2564    2.8709    5.4550 C   0  0  0  0  0  0  0  0  0  0  0  0
   -8.7476    2.6197    5.8136 C   0  0  0  0  0  0  0  0  0  0  0  0
   -9.4429    1.9604    4.6417 C   0  0  0  0  0  0  0  0  0  0  0  0
   -8.9333    0.7299    4.5416 C   0  0  0  0  0  0  0  0  0  0  0  0
   -7.9079    0.5872    5.6484 C   0  0  0  0  0  0  0  0  0  0  0  0
   -8.6085    1.4090    6.7222 C   0  0  0  0  0  0  0  0  0  0  0  0
   -6.6823    1.5175    5.3878 C   0  0  0  0  0  0  0  0  0  0  0  0
   -3.0033    2.8855   -1.7168 C   0  0  0  0  0  0  0  0  0  0  0  0
   -1.8863    3.2239   -0.9499 C   0  0  0  0  0  0  0  0  0  0  0  0
   -0.7544    2.5337   -1.3815 C   0  0  0  0  0  0  0  0  0  0  0  0
    0.8237    2.4474   -0.8000 S   0  0  0  0  0  0  0  0  0  0  0  0
    1.2655    1.2299   -1.9085 C   0  0  0  0  0  0  0  0  0  0  0  0
    2.5055    0.5715   -1.9978 C   0  0  0  0  0  0  0  0  0  0  0  0
    3.6852    1.0508   -1.2600 C   0  0  0  0  0  0  0  0  0  0  0  0
    4.8393    1.5507   -1.8524 C   0  0  0  0  0  0  0  0  0  0  0  0
    5.8131    1.9354   -0.9269 C   0  0  0  0  0  0  0  0  0  0  0  0
    7.3280    2.6559   -1.4179 Cl  0  0  0  0  0  0  0  0  0  0  0  0
    5.4317    1.7256    0.3940 C   0  0  0  0  0  0  0  0  0  0  0  0
    6.1964    2.1201    1.6224 C   0  0  0  0  0  0  0  0  0  0  0  0
    5.7101    3.4616    2.1574 C   0  0  0  0  0  0  0  0  0  0  0  0
    3.8695    1.0875    0.4118 S   0  0  0  0  0  0  0  0  0  0  0  0
    2.5809   -0.5112   -2.9014 C   0  0  0  0  0  0  0  0  0  0  0  0
    1.4912   -0.8530   -3.7186 C   0  0  0  0  0  0  0  0  0  0  0  0
    0.2923   -0.1220   -3.7084 C   0  0  0  0  0  0  0  0  0  0  0  0
   -0.7427   -0.3692   -4.7085 C   0  0  0  0  0  0  0  0  0  0  0  0
   -2.0345   -1.4390   -4.5626 S   0  0  0  0  0  0  0  0  0  0  0  0
   -2.6579   -1.1448   -6.1092 C   0  0  0  0  0  0  0  0  0  0  0  0
   -3.9141   -1.7522   -6.6616 C   0  0  0  0  0  0  0  0  0  0  0  0
   -5.0684   -0.7524   -6.6183 C   0  0  0  0  0  0  0  0  0  0  0  0
   -1.8508   -0.1992   -6.7455 C   0  0  0  0  0  0  0  0  0  0  0  0
   -0.7817    0.2418   -5.9585 C   0  0  0  0  0  0  0  0  0  0  0  0
   -2.1107    0.3861   -8.3797 Cl  0  0  0  0  0  0  0  0  0  0  0  0
    0.1767    0.9000   -2.7434 C   0  0  0  0  0  0  0  0  0  0  0  0
   -0.9416    1.6780   -2.4237 C   0  0  0  0  0  0  0  0  0  0  0  0
   -2.5475    1.7547   -2.9146 S   0  0  0  0  0  0  0  0  0  0  0  0
    1.8115   -2.3030   -4.5713 S   0  0  0  0  0  0  0  0  0  0  0  0
    3.3429   -2.4828   -3.8884 C   0  0  0  0  0  0  0  0  0  0  0  0
    4.2864   -3.5117   -3.9134 C   0  0  0  0  0  0  0  0  0  0  0  0
    5.3132   -3.2593   -2.9899 C   0  0  0  0  0  0  0  0  0  0  0  0
    5.0638   -1.7364   -2.2447 S   0  0  0  0  0  0  0  0  0  0  0  0
    3.6164   -1.4406   -3.0461 C   0  0  0  0  0  0  0  0  0  0  0  0
    6.4796   -4.1431   -2.7867 C   0  0  0  0  0  0  0  0  0  0  0  0
    7.0641   -4.3734   -1.5872 C   0  0  0  0  0  0  0  0  0  0  0  0
    6.4758   -4.0893   -0.2717 C   0  0  0  0  0  0  0  0  0  0  0  0
    5.3431   -3.5989   -0.0512 O   0  0  0  0  0  0  0  0  0  0  0  0
    7.3254   -4.6573    0.7514 C   0  0  0  0  0  0  0  0  0  0  0  0
    7.0971   -4.6737    2.1319 C   0  0  0  0  0  0  0  0  0  0  0  0
    8.0028   -5.3709    2.9468 C   0  0  0  0  0  0  0  0  0  0  0  0
    7.7616   -5.4156    4.6822 Cl  0  0  0  0  0  0  0  0  0  0  0  0
    9.0871   -6.0588    2.3627 C   0  0  0  0  0  0  0  0  0  0  0  0
    9.9625   -6.7495    3.1409 F   0  0  0  0  0  0  0  0  0  0  0  0
    9.2748   -6.0430    0.9715 C   0  0  0  0  0  0  0  0  0  0  0  0
    8.3952   -5.3077    0.1647 C   0  0  0  0  0  0  0  0  0  0  0  0
    8.3421   -5.1266   -1.3185 C   0  0  0  0  0  0  0  0  0  0  0  0
    9.3398   -5.4135   -2.2041 C   0  0  0  0  0  0  0  0  0  0  0  0
   10.5908   -6.0150   -1.8158 C   0  0  0  0  0  0  0  0  0  0  0  0
   11.6036   -6.4872   -1.5177 N   0  0  0  0  0  0  0  0  0  0  0  0
    9.2800   -5.0473   -3.5918 C   0  0  0  0  0  0  0  0  0  0  0  0
    9.2528   -4.7721   -4.7206 N   0  0  0  0  0  0  0  0  0  0  0  0
   -5.0995    3.2832   -2.2382 H   0  0  0  0  0  0  0  0  0  0  0  0
   -5.0586    0.3340    2.9115 H   0  0  0  0  0  0  0  0  0  0  0  0
   -7.3539    4.8966    2.9897 H   0  0  0  0  0  0  0  0  0  0  0  0
   -6.7249    3.5624    6.1415 H   0  0  0  0  0  0  0  0  0  0  0  0
   -9.2869    3.4937    6.2419 H   0  0  0  0  0  0  0  0  0  0  0  0
  -10.2825    2.3529    4.0677 H   0  0  0  0  0  0  0  0  0  0  0  0
   -9.2694   -0.0446    3.8553 H   0  0  0  0  0  0  0  0  0  0  0  0
   -7.6550   -0.4499    5.9347 H   0  0  0  0  0  0  0  0  0  0  0  0
   -7.9720    1.5864    7.6248 H   0  0  0  0  0  0  0  0  0  0  0  0
   -9.5882    0.9880    7.0476 H   0  0  0  0  0  0  0  0  0  0  0  0
   -5.8253    1.3702    6.0786 H   0  0  0  0  0  0  0  0  0  0  0  0
   -1.8880    3.9068   -0.1066 H   0  0  0  0  0  0  0  0  0  0  0  0
    4.9707    1.6554   -2.9205 H   0  0  0  0  0  0  0  0  0  0  0  0
    6.0730    1.3390    2.4068 H   0  0  0  0  0  0  0  0  0  0  0  0
    7.2797    2.1804    1.3943 H   0  0  0  0  0  0  0  0  0  0  0  0
    5.6935    4.2241    1.3515 H   0  0  0  0  0  0  0  0  0  0  0  0
    4.6973    3.3390    2.5825 H   0  0  0  0  0  0  0  0  0  0  0  0
    6.3801    3.8030    2.9693 H   0  0  0  0  0  0  0  0  0  0  0  0
   -3.7424   -2.0616   -7.7192 H   0  0  0  0  0  0  0  0  0  0  0  0
   -4.1902   -2.6561   -6.0682 H   0  0  0  0  0  0  0  0  0  0  0  0
   -4.8105    0.1456   -7.2331 H   0  0  0  0  0  0  0  0  0  0  0  0
   -5.9834   -1.2225   -7.0521 H   0  0  0  0  0  0  0  0  0  0  0  0
   -5.2824   -0.4390   -5.5709 H   0  0  0  0  0  0  0  0  0  0  0  0
   -0.0467    0.9634   -6.2964 H   0  0  0  0  0  0  0  0  0  0  0  0
    4.2002   -4.4009   -4.5166 H   0  0  0  0  0  0  0  0  0  0  0  0
    6.8115   -4.6668   -3.6579 H   0  0  0  0  0  0  0  0  0  0  0  0
    6.2343   -4.1828    2.5574 H   0  0  0  0  0  0  0  0  0  0  0  0
   10.0777   -6.6312    0.5644 H   0  0  0  0  0  0  0  0  0  0  0  0
  1  2  2  3
  2  3  1  0
  3  4  2  0
  3  5  1  0
  5  6  2  0
  6  7  1  0
  7  8  2  0
  8  9  1  0
  9 10  2  0
 10 11  1  0
 11 12  2  3
 12 13  1  0
 13 14  3  0
 12 15  1  0
 15 16  3  0
  8 17  1  0
 17 18  1  0
 18 19  1  0
 19 20  2  0
 20 21  1  0
 21 22  1  0
 21 23  1  0
  1 24  1  0
 24 25  2  0
 25 26  1  0
 26 27  1  0
 27 28  1  0
 28 29  2  0
 29 30  1  0
 30 31  2  0
 31 32  1  0
 32 33  1  0
 32 34  2  0
 34 35  1  0
 35 36  1  0
 34 37  1  0
 29 38  1  0
 38 39  2  0
 39 40  1  0
 40 41  1  0
 41 42  1  0
 42 43  1  0
 43 44  1  0
 44 45  1  0
 43 46  2  0
 46 47  1  0
 46 48  1  0
 40 49  2  0
 49 50  1  0
 50 51  1  0
 39 52  1  0
 52 53  1  0
 53 54  1  0
 54 55  2  0
 55 56  1  0
 56 57  1  0
 55 58  1  0
 58 59  2  3
 59 60  1  0
 60 61  2  0
 60 62  1  0
 62 63  2  0
 63 64  1  0
 64 65  1  0
 64 66  2  0
 66 67  1  0
 66 68  1  0
 68 69  2  0
 69 70  1  0
 70 71  2  3
 71 72  1  0
 72 73  3  0
 71 74  1  0
 74 75  3  0
 11  2  1  0
 23 17  1  0
 51 24  1  0
 57 53  2  0
 70 59  1  0
 10  5  1  0
 22 18  1  0
 50 26  2  0
 69 62  1  0
 23  7  1  0
 49 28  1  0
 37 30  1  0
 57 38  1  0
 47 41  2  0
  1 76  1  0
  6 77  1  0
  9 78  1  0
 17 79  1  0
 18 80  1  0
 19 81  1  0
 20 82  1  0
 21 83  1  0
 22 84  1  0
 22 85  1  0
 23 86  1  0
 25 87  1  0
 31 88  1  0
 35 89  1  0
 35 90  1  0
 36 91  1  0
 36 92  1  0
 36 93  1  0
 44 94  1  0
 44 95  1  0
 45 96  1  0
 45 97  1  0
 45 98  1  0
 47 99  1  0
 54100  1  0
 58101  1  0
 63102  1  0
 68103  1  0
M  END

