
     RDKit          3D

103116  0  0  0  0  0  0  0  0999 V2000
   -0.5458    3.7640   -4.6923 C   0  0  0  0  0  0  0  0  0  0  0  0
   -1.6279    4.2611   -4.0633 C   0  0  0  0  0  0  0  0  0  0  0  0
   -2.6251    5.0996   -4.7312 C   0  0  0  0  0  0  0  0  0  0  0  0
   -2.4620    5.7323   -5.8087 O   0  0  0  0  0  0  0  0  0  0  0  0
   -3.8820    4.9695   -4.0140 C   0  0  0  0  0  0  0  0  0  0  0  0
   -5.1476    5.4707   -4.3987 C   0  0  0  0  0  0  0  0  0  0  0  0
   -6.1874    5.0543   -3.5821 C   0  0  0  0  0  0  0  0  0  0  0  0
   -6.0003    4.1951   -2.4517 C   0  0  0  0  0  0  0  0  0  0  0  0
   -4.7627    3.7068   -2.0653 C   0  0  0  0  0  0  0  0  0  0  0  0
   -3.6818    4.1417   -2.8793 C   0  0  0  0  0  0  0  0  0  0  0  0
   -2.2379    3.8169   -2.7751 C   0  0  0  0  0  0  0  0  0  0  0  0
   -1.5615    3.5684   -1.6253 C   0  0  0  0  0  0  0  0  0  0  0  0
   -0.1364    3.7718   -1.5329 C   0  0  0  0  0  0  0  0  0  0  0  0
    1.0054    3.9488   -1.4513 N   0  0  0  0  0  0  0  0  0  0  0  0
   -2.2197    3.2188   -0.3930 C   0  0  0  0  0  0  0  0  0  0  0  0
   -2.7322    2.9298    0.6050 N   0  0  0  0  0  0  0  0  0  0  0  0
   -7.4749    4.1996   -2.1806 C   0  0  0  0  0  0  0  0  0  0  0  0
   -7.9932    5.0420   -0.9772 C   0  0  0  0  0  0  0  0  0  0  0  0
   -7.0891    6.2312   -0.7508 C   0  0  0  0  0  0  0  0  0  0  0  0
   -7.2601    7.0419   -1.7980 C   0  0  0  0  0  0  0  0  0  0  0  0
   -8.2743    6.3759   -2.6985 C   0  0  0  0  0  0  0  0  0  0  0  0
   -9.1611    5.7515   -1.6376 C   0  0  0  0  0  0  0  0  0  0  0  0
   -7.6650    5.0877   -3.3308 C   0  0  0  0  0  0  0  0  0  0  0  0
    0.1234    2.5156   -4.2879 C   0  0  0  0  0  0  0  0  0  0  0  0
    1.5087    2.3210   -4.2571 C   0  0  0  0  0  0  0  0  0  0  0  0
    1.8161    1.0861   -3.6872 C   0  0  0  0  0  0  0  0  0  0  0  0
    3.2370    0.4523   -3.0512 S   0  0  0  0  0  0  0  0  0  0  0  0
    2.4411   -0.8302   -2.2568 C   0  0  0  0  0  0  0  0  0  0  0  0
    2.9954   -1.7270   -1.3290 C   0  0  0  0  0  0  0  0  0  0  0  0
    4.4421   -1.7340   -1.0638 C   0  0  0  0  0  0  0  0  0  0  0  0
    5.4007   -2.3217   -1.8815 C   0  0  0  0  0  0  0  0  0  0  0  0
    6.7091   -2.1090   -1.4257 C   0  0  0  0  0  0  0  0  0  0  0  0
    8.1067   -2.7434   -2.2795 Cl  0  0  0  0  0  0  0  0  0  0  0  0
    6.7779   -1.3161   -0.2810 C   0  0  0  0  0  0  0  0  0  0  0  0
    8.0207   -0.8989    0.4482 C   0  0  0  0  0  0  0  0  0  0  0  0
    8.6038   -2.0633    1.2480 C   0  0  0  0  0  0  0  0  0  0  0  0
    5.2120   -0.8979    0.1820 S   0  0  0  0  0  0  0  0  0  0  0  0
    2.0940   -2.5481   -0.6181 C   0  0  0  0  0  0  0  0  0  0  0  0
    0.7061   -2.4896   -0.8653 C   0  0  0  0  0  0  0  0  0  0  0  0
    0.1589   -1.6369   -1.8389 C   0  0  0  0  0  0  0  0  0  0  0  0
   -1.2795   -1.6644   -2.1657 C   0  0  0  0  0  0  0  0  0  0  0  0
   -2.5526   -1.3413   -1.1065 S   0  0  0  0  0  0  0  0  0  0  0  0
   -3.7744   -1.4932   -2.2586 C   0  0  0  0  0  0  0  0  0  0  0  0
   -5.2409   -1.3434   -1.9751 C   0  0  0  0  0  0  0  0  0  0  0  0
   -5.7668   -2.5494   -1.2046 C   0  0  0  0  0  0  0  0  0  0  0  0
   -3.1949   -1.8109   -3.4872 C   0  0  0  0  0  0  0  0  0  0  0  0
   -1.8011   -1.8905   -3.4385 C   0  0  0  0  0  0  0  0  0  0  0  0
   -4.0969   -2.0585   -4.9734 Cl  0  0  0  0  0  0  0  0  0  0  0  0
    1.0556   -0.7722   -2.5032 C   0  0  0  0  0  0  0  0  0  0  0  0
    0.7491    0.3226   -3.3124 C   0  0  0  0  0  0  0  0  0  0  0  0
   -0.6694    1.1437   -3.6598 S   0  0  0  0  0  0  0  0  0  0  0  0
   -0.1351   -3.4772    0.2446 S   0  0  0  0  0  0  0  0  0  0  0  0
    1.2593   -3.9629    1.0396 C   0  0  0  0  0  0  0  0  0  0  0  0
    1.4728   -4.6105    2.2529 C   0  0  0  0  0  0  0  0  0  0  0  0
    2.8228   -4.5564    2.6005 C   0  0  0  0  0  0  0  0  0  0  0  0
    3.7091   -3.7281    1.4015 S   0  0  0  0  0  0  0  0  0  0  0  0
    2.3620   -3.4052    0.4567 C   0  0  0  0  0  0  0  0  0  0  0  0
    3.3430   -4.8477    3.9427 C   0  0  0  0  0  0  0  0  0  0  0  0
    3.6548   -3.8695    4.8220 C   0  0  0  0  0  0  0  0  0  0  0  0
    3.5457   -2.4251    4.5602 C   0  0  0  0  0  0  0  0  0  0  0  0
    2.8876   -1.8722    3.6377 O   0  0  0  0  0  0  0  0  0  0  0  0
    4.2936   -1.7172    5.5693 C   0  0  0  0  0  0  0  0  0  0  0  0
    4.5723   -0.3517    5.6270 C   0  0  0  0  0  0  0  0  0  0  0  0
    5.3742    0.1225    6.6713 C   0  0  0  0  0  0  0  0  0  0  0  0
    5.8959   -0.7735    7.6231 C   0  0  0  0  0  0  0  0  0  0  0  0
    6.6825   -0.3091    8.6256 F   0  0  0  0  0  0  0  0  0  0  0  0
    5.6178   -2.1489    7.5365 C   0  0  0  0  0  0  0  0  0  0  0  0
    4.7896   -2.6165    6.4999 C   0  0  0  0  0  0  0  0  0  0  0  0
    4.3349   -3.9985    6.1517 C   0  0  0  0  0  0  0  0  0  0  0  0
    4.3845   -5.0969    6.9515 C   0  0  0  0  0  0  0  0  0  0  0  0
    3.7554   -6.3461    6.6062 C   0  0  0  0  0  0  0  0  0  0  0  0
    3.2544   -7.3582    6.3489 N   0  0  0  0  0  0  0  0  0  0  0  0
    5.0009   -5.0850    8.2513 C   0  0  0  0  0  0  0  0  0  0  0  0
    5.4849   -5.0947    9.3005 N   0  0  0  0  0  0  0  0  0  0  0  0
   -0.2198    4.2194   -5.6165 H   0  0  0  0  0  0  0  0  0  0  0  0
   -5.3013    6.0882   -5.2735 H   0  0  0  0  0  0  0  0  0  0  0  0
   -4.6616    3.0123   -1.2475 H   0  0  0  0  0  0  0  0  0  0  0  0
   -7.9554    3.2070   -2.3024 H   0  0  0  0  0  0  0  0  0  0  0  0
   -8.2423    4.4629   -0.0646 H   0  0  0  0  0  0  0  0  0  0  0  0
   -6.5012    6.4505    0.1334 H   0  0  0  0  0  0  0  0  0  0  0  0
   -6.8340    8.0354   -1.9107 H   0  0  0  0  0  0  0  0  0  0  0  0
   -8.7928    7.0580   -3.4070 H   0  0  0  0  0  0  0  0  0  0  0  0
   -9.6539    6.5014   -0.9729 H   0  0  0  0  0  0  0  0  0  0  0  0
   -9.9311    5.0575   -2.0470 H   0  0  0  0  0  0  0  0  0  0  0  0
   -8.2713    4.6376   -4.1481 H   0  0  0  0  0  0  0  0  0  0  0  0
    2.2411    3.0707   -4.5246 H   0  0  0  0  0  0  0  0  0  0  0  0
    5.1629   -2.8691   -2.7869 H   0  0  0  0  0  0  0  0  0  0  0  0
    7.7893   -0.0586    1.1373 H   0  0  0  0  0  0  0  0  0  0  0  0
    8.7729   -0.5466   -0.2875 H   0  0  0  0  0  0  0  0  0  0  0  0
    8.8389   -2.9066    0.5548 H   0  0  0  0  0  0  0  0  0  0  0  0
    7.8740   -2.4198    2.0155 H   0  0  0  0  0  0  0  0  0  0  0  0
    9.5485   -1.7553    1.7462 H   0  0  0  0  0  0  0  0  0  0  0  0
   -5.4083   -0.4177   -1.3780 H   0  0  0  0  0  0  0  0  0  0  0  0
   -5.8074   -1.2397   -2.9259 H   0  0  0  0  0  0  0  0  0  0  0  0
   -6.8708   -2.4692   -1.0962 H   0  0  0  0  0  0  0  0  0  0  0  0
   -5.3135   -2.5807   -0.1881 H   0  0  0  0  0  0  0  0  0  0  0  0
   -5.5295   -3.4918   -1.7430 H   0  0  0  0  0  0  0  0  0  0  0  0
   -1.1880   -2.0947   -4.3077 H   0  0  0  0  0  0  0  0  0  0  0  0
    0.6889   -4.9894    2.8949 H   0  0  0  0  0  0  0  0  0  0  0  0
    3.5170   -5.8877    4.1705 H   0  0  0  0  0  0  0  0  0  0  0  0
    4.1936    0.3256    4.8714 H   0  0  0  0  0  0  0  0  0  0  0  0
    5.5976    1.1787    6.7362 H   0  0  0  0  0  0  0  0  0  0  0  0
    6.0738   -2.8086    8.2585 H   0  0  0  0  0  0  0  0  0  0  0  0
  1  2  2  3
  2  3  1  0
  3  4  2  0
  3  5  1  0
  5  6  2  0
  6  7  1  0
  7  8  2  0
  8  9  1  0
  9 10  2  0
 10 11  1  0
 11 12  2  3
 12 13  1  0
 13 14  3  0
 12 15  1  0
 15 16  3  0
  8 17  1  0
 17 18  1  0
 18 19  1  0
 19 20  2  0
 20 21  1  0
 21 22  1  0
 21 23  1  0
  1 24  1  0
 24 25  2  0
 25 26  1  0
 26 27  1  0
 27 28  1  0
 28 29  2  0
 29 30  1  0
 30 31  2  0
 31 32  1  0
 32 33  1  0
 32 34  2  0
 34 35  1  0
 35 36  1  0
 34 37  1  0
 29 38  1  0
 38 39  2  0
 39 40  1  0
 40 41  1  0
 41 42  1  0
 42 43  1  0
 43 44  1  0
 44 45  1  0
 43 46  2  0
 46 47  1  0
 46 48  1  0
 40 49  2  0
 49 50  1  0
 50 51  1  0
 39 52  1  0
 52 53  1  0
 53 54  1  0
 54 55  2  0
 55 56  1  0
 56 57  1  0
 55 58  1  0
 58 59  2  3
 59 60  1  0
 60 61  2  0
 60 62  1  0
 62 63  2  0
 63 64  1  0
 64 65  2  0
 65 66  1  0
 65 67  1  0
 67 68  2  0
 68 69  1  0
 69 70  2  3
 70 71  1  0
 71 72  3  0
 70 73  1  0
 73 74  3  0
 11  2  1  0
 23 17  1  0
 51 24  1  0
 57 53  2  0
 69 59  1  0
 10  5  1  0
 22 18  1  0
 50 26  2  0
 68 62  1  0
 23  7  1  0
 49 28  1  0
 37 30  1  0
 57 38  1  0
 47 41  2  0
  1 75  1  0
  6 76  1  0
  9 77  1  0
 17 78  1  0
 18 79  1  0
 19 80  1  0
 20 81  1  0
 21 82  1  0
 22 83  1  0
 22 84  1  0
 23 85  1  0
 25 86  1  0
 31 87  1  0
 35 88  1  0
 35 89  1  0
 36 90  1  0
 36 91  1  0
 36 92  1  0
 44 93  1  0
 44 94  1  0
 45 95  1  0
 45 96  1  0
 45 97  1  0
 47 98  1  0
 54 99  1  0
 58100  1  0
 63101  1  0
 64102  1  0
 67103  1  0
M  END

