
     RDKit          3D

119134  0  0  0  0  0  0  0  0999 V2000
   -6.3729    3.0111    2.7327 C   0  0  0  0  0  0  0  0  0  0  0  0
   -5.8522    3.4274    3.9047 C   0  0  0  0  0  0  0  0  0  0  0  0
   -4.7444    2.7695    4.6054 C   0  0  0  0  0  0  0  0  0  0  0  0
   -4.4969    1.5339    4.6043 O   0  0  0  0  0  0  0  0  0  0  0  0
   -3.9841    3.7687    5.3153 C   0  0  0  0  0  0  0  0  0  0  0  0
   -2.7005    3.6058    5.8829 C   0  0  0  0  0  0  0  0  0  0  0  0
   -2.1194    4.7891    6.2930 C   0  0  0  0  0  0  0  0  0  0  0  0
   -2.7568    6.0654    6.1591 C   0  0  0  0  0  0  0  0  0  0  0  0
   -4.0211    6.2293    5.6124 C   0  0  0  0  0  0  0  0  0  0  0  0
   -4.6411    5.0195    5.1883 C   0  0  0  0  0  0  0  0  0  0  0  0
   -5.9166    4.8185    4.4401 C   0  0  0  0  0  0  0  0  0  0  0  0
   -6.9776    5.6579    4.3903 C   0  0  0  0  0  0  0  0  0  0  0  0
   -8.2397    5.2535    3.8233 C   0  0  0  0  0  0  0  0  0  0  0  0
   -9.2576    4.9342    3.3755 N   0  0  0  0  0  0  0  0  0  0  0  0
   -6.9594    6.9656    4.9916 C   0  0  0  0  0  0  0  0  0  0  0  0
   -6.9613    8.0191    5.4650 N   0  0  0  0  0  0  0  0  0  0  0  0
   -1.5319    6.7486    6.6944 C   0  0  0  0  0  0  0  0  0  0  0  0
   -0.6429    7.4905    5.6529 C   0  0  0  0  0  0  0  0  0  0  0  0
    0.6863    7.7282    6.3308 C   0  0  0  0  0  0  0  0  0  0  0  0
    1.2764    6.5295    6.4399 C   0  0  0  0  0  0  0  0  0  0  0  0
    0.3232    5.5273    5.8375 C   0  0  0  0  0  0  0  0  0  0  0  0
   -0.2238    6.3792    4.7026 C   0  0  0  0  0  0  0  0  0  0  0  0
   -0.8795    5.4402    6.8244 C   0  0  0  0  0  0  0  0  0  0  0  0
   -5.7000    1.9961    1.8999 C   0  0  0  0  0  0  0  0  0  0  0  0
   -6.3112    0.9980    1.1126 C   0  0  0  0  0  0  0  0  0  0  0  0
   -7.7898    0.7450    1.0405 C   0  0  0  0  0  0  0  0  0  0  0  0
   -8.4146    1.5213   -0.1134 C   0  0  0  0  0  0  0  0  0  0  0  0
   -5.3513    0.3026    0.3643 C   0  0  0  0  0  0  0  0  0  0  0  0
   -4.0683    0.7498    0.5306 C   0  0  0  0  0  0  0  0  0  0  0  0
   -4.0201    2.0174    1.6080 S   0  0  0  0  0  0  0  0  0  0  0  0
   -3.1375    0.0082   -0.1663 C   0  0  0  0  0  0  0  0  0  0  0  0
   -3.7033   -0.9938   -0.8752 C   0  0  0  0  0  0  0  0  0  0  0  0
   -5.3975   -1.0309   -0.7108 S   0  0  0  0  0  0  0  0  0  0  0  0
   -2.6897   -1.6151   -1.5523 C   0  0  0  0  0  0  0  0  0  0  0  0
   -2.7090   -2.5935   -2.5562 C   0  0  0  0  0  0  0  0  0  0  0  0
   -3.8675   -3.1492   -2.9961 N   0  0  0  0  0  0  0  0  0  0  0  0
   -3.8730   -4.0779   -3.9918 C   0  0  0  0  0  0  0  0  0  0  0  0
   -5.1869   -4.6452   -4.4447 C   0  0  0  0  0  0  0  0  0  0  0  0
   -2.6456   -4.4675   -4.5805 C   0  0  0  0  0  0  0  0  0  0  0  0
   -2.5873   -5.4645   -5.6990 C   0  0  0  0  0  0  0  0  0  0  0  0
   -1.4844   -3.9047   -4.1387 N   0  0  0  0  0  0  0  0  0  0  0  0
   -1.4837   -2.9723   -3.1520 C   0  0  0  0  0  0  0  0  0  0  0  0
   -0.2992   -2.3698   -2.6943 C   0  0  0  0  0  0  0  0  0  0  0  0
    1.0158   -2.6831   -2.9246 C   0  0  0  0  0  0  0  0  0  0  0  0
    1.8922   -3.9408   -3.6628 S   0  0  0  0  0  0  0  0  0  0  0  0
    3.3000   -3.5198   -2.7912 C   0  0  0  0  0  0  0  0  0  0  0  0
    4.5707   -4.0926   -2.6677 C   0  0  0  0  0  0  0  0  0  0  0  0
    5.0127   -5.3219   -3.4119 C   0  0  0  0  0  0  0  0  0  0  0  0
    4.4626   -6.5815   -2.7502 C   0  0  0  0  0  0  0  0  0  0  0  0
    5.3309   -3.4279   -1.6805 C   0  0  0  0  0  0  0  0  0  0  0  0
    4.3800   -2.2219   -0.9466 S   0  0  0  0  0  0  0  0  0  0  0  0
    3.0538   -2.4806   -1.9332 C   0  0  0  0  0  0  0  0  0  0  0  0
    1.7563   -1.9982   -2.0163 C   0  0  0  0  0  0  0  0  0  0  0  0
    1.0005   -1.2310   -1.1917 N   0  0  0  0  0  0  0  0  0  0  0  0
    1.4165   -0.8317    0.1577 C   0  0  0  0  0  0  0  0  0  0  0  0
    2.2981    0.4190    0.1218 C   0  0  0  0  0  0  0  0  0  0  0  0
   -0.2774   -1.4195   -1.6597 C   0  0  0  0  0  0  0  0  0  0  0  0
   -1.5126   -0.9678   -1.1381 C   0  0  0  0  0  0  0  0  0  0  0  0
   -1.7971    0.1088   -0.3335 N   0  0  0  0  0  0  0  0  0  0  0  0
   -1.0636    1.3799   -0.2173 C   0  0  0  0  0  0  0  0  0  0  0  0
   -0.7096    1.9509   -1.5902 C   0  0  0  0  0  0  0  0  0  0  0  0
    6.6503   -3.8439   -1.1713 C   0  0  0  0  0  0  0  0  0  0  0  0
    7.6098   -2.9784   -0.7971 C   0  0  0  0  0  0  0  0  0  0  0  0
    7.6990   -1.5535   -1.2126 C   0  0  0  0  0  0  0  0  0  0  0  0
    6.8960   -0.9198   -1.9450 O   0  0  0  0  0  0  0  0  0  0  0  0
    8.9869   -1.0667   -0.7836 C   0  0  0  0  0  0  0  0  0  0  0  0
    9.6815   -2.0592   -0.1602 C   0  0  0  0  0  0  0  0  0  0  0  0
   11.2565   -1.5430    0.2514 S   0  0  0  0  0  0  0  0  0  0  0  0
   10.9869   -0.0041   -0.4132 C   0  0  0  0  0  0  0  0  0  0  0  0
   11.7788    1.1245   -0.5814 C   0  0  0  0  0  0  0  0  0  0  0  0
   11.0793    2.1281   -1.2664 C   0  0  0  0  0  0  0  0  0  0  0  0
    9.5041    1.5848   -1.6511 S   0  0  0  0  0  0  0  0  0  0  0  0
    9.7279    0.0910   -0.9333 C   0  0  0  0  0  0  0  0  0  0  0  0
    8.8964   -3.3024   -0.0845 C   0  0  0  0  0  0  0  0  0  0  0  0
    9.2341   -4.4038    0.6239 C   0  0  0  0  0  0  0  0  0  0  0  0
    8.3189   -5.4904    0.8516 C   0  0  0  0  0  0  0  0  0  0  0  0
    7.5913   -6.3704    1.0484 N   0  0  0  0  0  0  0  0  0  0  0  0
   10.5063   -4.5002    1.2920 C   0  0  0  0  0  0  0  0  0  0  0  0
   11.5274   -4.5830    1.8319 N   0  0  0  0  0  0  0  0  0  0  0  0
   -7.1521    3.5761    2.2451 H   0  0  0  0  0  0  0  0  0  0  0  0
   -2.1809    2.6583    5.9172 H   0  0  0  0  0  0  0  0  0  0  0  0
   -4.4309    7.2142    5.4538 H   0  0  0  0  0  0  0  0  0  0  0  0
   -1.6973    7.2818    7.6573 H   0  0  0  0  0  0  0  0  0  0  0  0
   -1.1003    8.3845    5.1803 H   0  0  0  0  0  0  0  0  0  0  0  0
    1.1334    8.6812    6.5901 H   0  0  0  0  0  0  0  0  0  0  0  0
    2.2833    6.3469    6.8005 H   0  0  0  0  0  0  0  0  0  0  0  0
    0.7763    4.5574    5.5432 H   0  0  0  0  0  0  0  0  0  0  0  0
   -1.0664    5.9164    4.1436 H   0  0  0  0  0  0  0  0  0  0  0  0
    0.5562    6.6942    3.9679 H   0  0  0  0  0  0  0  0  0  0  0  0
   -0.6313    5.1437    7.8676 H   0  0  0  0  0  0  0  0  0  0  0  0
   -8.2730    1.0487    1.9945 H   0  0  0  0  0  0  0  0  0  0  0  0
   -7.9771   -0.3429    0.8957 H   0  0  0  0  0  0  0  0  0  0  0  0
   -8.1843    2.6032   -0.0214 H   0  0  0  0  0  0  0  0  0  0  0  0
   -8.0242    1.1455   -1.0831 H   0  0  0  0  0  0  0  0  0  0  0  0
   -9.5157    1.3860   -0.0990 H   0  0  0  0  0  0  0  0  0  0  0  0
   -5.1930   -5.7470   -4.3024 H   0  0  0  0  0  0  0  0  0  0  0  0
   -6.0225   -4.2126   -3.8549 H   0  0  0  0  0  0  0  0  0  0  0  0
   -5.3532   -4.4085   -5.5161 H   0  0  0  0  0  0  0  0  0  0  0  0
   -3.0455   -6.4237   -5.3803 H   0  0  0  0  0  0  0  0  0  0  0  0
   -1.5339   -5.6579   -5.9930 H   0  0  0  0  0  0  0  0  0  0  0  0
   -3.1313   -5.0682   -6.5820 H   0  0  0  0  0  0  0  0  0  0  0  0
    6.1209   -5.3764   -3.4454 H   0  0  0  0  0  0  0  0  0  0  0  0
    4.6519   -5.2712   -4.4622 H   0  0  0  0  0  0  0  0  0  0  0  0
    4.7428   -6.6154   -1.6786 H   0  0  0  0  0  0  0  0  0  0  0  0
    4.8770   -7.4784   -3.2550 H   0  0  0  0  0  0  0  0  0  0  0  0
    3.3581   -6.6079   -2.8392 H   0  0  0  0  0  0  0  0  0  0  0  0
    0.5397   -0.6927    0.8178 H   0  0  0  0  0  0  0  0  0  0  0  0
    1.9869   -1.6575    0.6327 H   0  0  0  0  0  0  0  0  0  0  0  0
    2.4482    0.7962    1.1551 H   0  0  0  0  0  0  0  0  0  0  0  0
    3.2910    0.1971   -0.3101 H   0  0  0  0  0  0  0  0  0  0  0  0
    1.8449    1.2186   -0.4943 H   0  0  0  0  0  0  0  0  0  0  0  0
   -0.1831    1.2853    0.4270 H   0  0  0  0  0  0  0  0  0  0  0  0
   -1.6820    2.1405    0.2936 H   0  0  0  0  0  0  0  0  0  0  0  0
   -0.0156    1.2823   -2.1351 H   0  0  0  0  0  0  0  0  0  0  0  0
   -1.6351    2.0847   -2.1938 H   0  0  0  0  0  0  0  0  0  0  0  0
   -0.2232    2.9417   -1.4684 H   0  0  0  0  0  0  0  0  0  0  0  0
    6.8117   -4.9037   -1.0792 H   0  0  0  0  0  0  0  0  0  0  0  0
   12.8042    1.2103   -0.2463 H   0  0  0  0  0  0  0  0  0  0  0  0
   11.4850    3.0948   -1.5268 H   0  0  0  0  0  0  0  0  0  0  0  0
  1  2  2  3
  2  3  1  0
  3  4  2  0
  3  5  1  0
  5  6  2  0
  6  7  1  0
  7  8  2  0
  8  9  1  0
  9 10  2  0
 10 11  1  0
 11 12  2  3
 12 13  1  0
 13 14  3  0
 12 15  1  0
 15 16  3  0
  8 17  1  0
 17 18  1  0
 18 19  1  0
 19 20  2  0
 20 21  1  0
 21 22  1  0
 21 23  1  0
  1 24  1  0
 24 25  2  0
 25 26  1  0
 26 27  1  0
 25 28  1  0
 28 29  2  0
 29 30  1  0
 29 31  1  0
 31 32  2  0
 32 33  1  0
 32 34  1  0
 34 35  2  0
 35 36  1  0
 36 37  2  0
 37 38  1  0
 37 39  1  0
 39 40  1  0
 39 41  2  0
 41 42  1  0
 42 43  2  0
 43 44  1  0
 44 45  1  0
 45 46  1  0
 46 47  1  0
 47 48  1  0
 48 49  1  0
 47 50  2  0
 50 51  1  0
 51 52  1  0
 52 53  1  0
 53 54  1  0
 54 55  1  0
 55 56  1  0
 54 57  1  0
 57 58  2  0
 58 59  1  0
 59 60  1  0
 60 61  1  0
 50 62  1  0
 62 63  2  3
 63 64  1  0
 64 65  2  0
 64 66  1  0
 66 67  2  0
 67 68  1  0
 68 69  1  0
 69 70  1  0
 70 71  2  0
 71 72  1  0
 72 73  1  0
 67 74  1  0
 74 75  2  3
 75 76  1  0
 76 77  3  0
 75 78  1  0
 78 79  3  0
 11  2  1  0
 23 17  1  0
 30 24  1  0
 59 31  1  0
 74 63  1  0
 10  5  1  0
 22 18  1  0
 33 28  1  0
 58 34  1  0
 73 66  1  0
 23  7  1  0
 42 35  1  0
 57 43  1  0
 73 69  2  0
 53 44  2  0
 52 46  2  0
  1 80  1  0
  6 81  1  0
  9 82  1  0
 17 83  1  0
 18 84  1  0
 19 85  1  0
 20 86  1  0
 21 87  1  0
 22 88  1  0
 22 89  1  0
 23 90  1  0
 26 91  1  0
 26 92  1  0
 27 93  1  0
 27 94  1  0
 27 95  1  0
 38 96  1  0
 38 97  1  0
 38 98  1  0
 40 99  1  0
 40100  1  0
 40101  1  0
 48102  1  0
 48103  1  0
 49104  1  0
 49105  1  0
 49106  1  0
 55107  1  0
 55108  1  0
 56109  1  0
 56110  1  0
 56111  1  0
 60112  1  0
 60113  1  0
 61114  1  0
 61115  1  0
 61116  1  0
 62117  1  0
 70118  1  0
 71119  1  0
M  END

