
     RDKit          3D

113127  0  0  0  0  0  0  0  0999 V2000
   -4.5283   -4.8481   -0.5882 C   0  0  0  0  0  0  0  0  0  0  0  0
   -4.5012   -4.7315   -1.9312 C   0  0  0  0  0  0  0  0  0  0  0  0
   -5.6648   -5.0552   -2.7604 C   0  0  0  0  0  0  0  0  0  0  0  0
   -6.6537   -5.7553   -2.4079 O   0  0  0  0  0  0  0  0  0  0  0  0
   -5.5361   -4.3545   -4.0229 C   0  0  0  0  0  0  0  0  0  0  0  0
   -6.4970   -4.2750   -5.0570 C   0  0  0  0  0  0  0  0  0  0  0  0
   -6.1381   -3.4279   -6.0867 C   0  0  0  0  0  0  0  0  0  0  0  0
   -4.9091   -2.6879   -6.1009 C   0  0  0  0  0  0  0  0  0  0  0  0
   -3.9605   -2.7687   -5.0914 C   0  0  0  0  0  0  0  0  0  0  0  0
   -4.2984   -3.6680   -4.0413 C   0  0  0  0  0  0  0  0  0  0  0  0
   -3.5354   -4.0185   -2.8141 C   0  0  0  0  0  0  0  0  0  0  0  0
   -2.1786   -4.0747   -2.7269 C   0  0  0  0  0  0  0  0  0  0  0  0
   -1.3126   -3.5385   -3.7455 C   0  0  0  0  0  0  0  0  0  0  0  0
   -0.5983   -3.1232   -4.5565 N   0  0  0  0  0  0  0  0  0  0  0  0
   -1.5146   -4.8225   -1.6813 C   0  0  0  0  0  0  0  0  0  0  0  0
   -1.0015   -5.3990   -0.8267 N   0  0  0  0  0  0  0  0  0  0  0  0
   -5.2890   -2.0449   -7.4038 C   0  0  0  0  0  0  0  0  0  0  0  0
   -4.5448   -2.5602   -8.6675 C   0  0  0  0  0  0  0  0  0  0  0  0
   -5.3554   -2.0900   -9.8495 C   0  0  0  0  0  0  0  0  0  0  0  0
   -6.4820   -2.8166   -9.8446 C   0  0  0  0  0  0  0  0  0  0  0  0
   -6.3948   -3.7348   -8.6524 C   0  0  0  0  0  0  0  0  0  0  0  0
   -4.9037   -4.0364   -8.7006 C   0  0  0  0  0  0  0  0  0  0  0  0
   -6.5327   -2.8232   -7.3994 C   0  0  0  0  0  0  0  0  0  0  0  0
   -3.6316   -4.1588    0.3547 C   0  0  0  0  0  0  0  0  0  0  0  0
   -3.2290   -4.6685    1.6051 C   0  0  0  0  0  0  0  0  0  0  0  0
   -3.6092   -6.0163    2.1490 C   0  0  0  0  0  0  0  0  0  0  0  0
   -4.8467   -5.9193    3.0354 C   0  0  0  0  0  0  0  0  0  0  0  0
   -2.3963   -3.7669    2.2663 C   0  0  0  0  0  0  0  0  0  0  0  0
   -1.5906   -3.8006    3.7720 S   0  0  0  0  0  0  0  0  0  0  0  0
   -0.8839   -2.2875    3.4438 C   0  0  0  0  0  0  0  0  0  0  0  0
   -0.1074   -1.3481    4.0554 C   0  0  0  0  0  0  0  0  0  0  0  0
    0.3881   -1.3150    5.3629 C   0  0  0  0  0  0  0  0  0  0  0  0
    1.1031   -0.1751    5.7841 C   0  0  0  0  0  0  0  0  0  0  0  0
    1.5660   -0.1111    7.0593 N   0  0  0  0  0  0  0  0  0  0  0  0
    1.3298   -1.1228    7.9389 C   0  0  0  0  0  0  0  0  0  0  0  0
    0.5993   -2.2428    7.5290 C   0  0  0  0  0  0  0  0  0  0  0  0
    0.1484   -2.3200    6.2506 N   0  0  0  0  0  0  0  0  0  0  0  0
    1.3093    0.8618    4.8646 C   0  0  0  0  0  0  0  0  0  0  0  0
    2.1076    1.9660    4.9571 C   0  0  0  0  0  0  0  0  0  0  0  0
    3.2851    2.6022    6.0088 S   0  0  0  0  0  0  0  0  0  0  0  0
    3.8028    3.7029    4.8112 C   0  0  0  0  0  0  0  0  0  0  0  0
    4.8122    4.6687    4.7484 C   0  0  0  0  0  0  0  0  0  0  0  0
    5.7589    4.9714    5.8768 C   0  0  0  0  0  0  0  0  0  0  0  0
    7.0081    4.0946    5.7788 C   0  0  0  0  0  0  0  0  0  0  0  0
    4.9145    5.2092    3.4541 C   0  0  0  0  0  0  0  0  0  0  0  0
    3.7117    4.5303    2.4517 S   0  0  0  0  0  0  0  0  0  0  0  0
    3.1036    3.5287    3.6431 C   0  0  0  0  0  0  0  0  0  0  0  0
    2.1256    2.5470    3.7395 C   0  0  0  0  0  0  0  0  0  0  0  0
    1.3747    1.8866    2.8258 N   0  0  0  0  0  0  0  0  0  0  0  0
    0.8208    0.8396    3.5378 C   0  0  0  0  0  0  0  0  0  0  0  0
    0.0223   -0.2850    3.1369 C   0  0  0  0  0  0  0  0  0  0  0  0
   -0.7434   -0.5421    2.0153 N   0  0  0  0  0  0  0  0  0  0  0  0
   -1.2537   -1.7776    2.2516 C   0  0  0  0  0  0  0  0  0  0  0  0
   -2.1443   -2.6031    1.5835 C   0  0  0  0  0  0  0  0  0  0  0  0
   -2.9879   -2.5916    0.1359 S   0  0  0  0  0  0  0  0  0  0  0  0
   -1.2696    0.3550    0.9864 C   0  0  0  0  0  0  0  0  0  0  0  0
   -0.7058    0.0212   -0.4015 C   0  0  0  0  0  0  0  0  0  0  0  0
    1.4721    2.1206    1.3825 C   0  0  0  0  0  0  0  0  0  0  0  0
    0.6646    3.3652    0.9750 C   0  0  0  0  0  0  0  0  0  0  0  0
    5.7116    6.3879    3.0663 C   0  0  0  0  0  0  0  0  0  0  0  0
    6.3307    6.5035    1.8728 C   0  0  0  0  0  0  0  0  0  0  0  0
    6.4972    5.4148    0.9045 C   0  0  0  0  0  0  0  0  0  0  0  0
    6.5041    4.1806    1.1661 O   0  0  0  0  0  0  0  0  0  0  0  0
    6.7933    5.9915   -0.3834 C   0  0  0  0  0  0  0  0  0  0  0  0
    6.9498    5.3312   -1.6029 C   0  0  0  0  0  0  0  0  0  0  0  0
    7.1585    6.0968   -2.7576 C   0  0  0  0  0  0  0  0  0  0  0  0
    7.2980    5.4928   -3.9623 F   0  0  0  0  0  0  0  0  0  0  0  0
    7.2085    7.5020   -2.6755 C   0  0  0  0  0  0  0  0  0  0  0  0
    7.0536    8.1462   -1.4373 C   0  0  0  0  0  0  0  0  0  0  0  0
    6.8551    7.3714   -0.2761 C   0  0  0  0  0  0  0  0  0  0  0  0
    6.6785    7.7714    1.1532 C   0  0  0  0  0  0  0  0  0  0  0  0
    6.8716    9.0052    1.6928 C   0  0  0  0  0  0  0  0  0  0  0  0
    7.0093    9.2118    3.1130 C   0  0  0  0  0  0  0  0  0  0  0  0
    7.1176    9.3921    4.2534 N   0  0  0  0  0  0  0  0  0  0  0  0
    7.0215   10.1900    0.8933 C   0  0  0  0  0  0  0  0  0  0  0  0
    7.1264   11.1527    0.2541 N   0  0  0  0  0  0  0  0  0  0  0  0
   -5.3289   -5.4319   -0.1438 H   0  0  0  0  0  0  0  0  0  0  0  0
   -7.4329   -4.8090   -5.0424 H   0  0  0  0  0  0  0  0  0  0  0  0
   -3.0621   -2.1661   -5.1098 H   0  0  0  0  0  0  0  0  0  0  0  0
   -5.4330   -0.9421   -7.3349 H   0  0  0  0  0  0  0  0  0  0  0  0
   -3.4591   -2.3279   -8.7190 H   0  0  0  0  0  0  0  0  0  0  0  0
   -5.0645   -1.3753  -10.6090 H   0  0  0  0  0  0  0  0  0  0  0  0
   -7.2730   -2.7736  -10.5880 H   0  0  0  0  0  0  0  0  0  0  0  0
   -7.0717   -4.6120   -8.6871 H   0  0  0  0  0  0  0  0  0  0  0  0
   -4.5739   -4.5553   -9.6408 H   0  0  0  0  0  0  0  0  0  0  0  0
   -4.5252   -4.6206   -7.8315 H   0  0  0  0  0  0  0  0  0  0  0  0
   -7.4717   -2.2240   -7.3501 H   0  0  0  0  0  0  0  0  0  0  0  0
   -3.8151   -6.7232    1.3180 H   0  0  0  0  0  0  0  0  0  0  0  0
   -2.7678   -6.4444    2.7304 H   0  0  0  0  0  0  0  0  0  0  0  0
   -5.1814   -6.9433    3.3105 H   0  0  0  0  0  0  0  0  0  0  0  0
   -5.6792   -5.4187    2.4977 H   0  0  0  0  0  0  0  0  0  0  0  0
   -4.6041   -5.3646    3.9618 H   0  0  0  0  0  0  0  0  0  0  0  0
    1.6934   -1.0469    8.9555 H   0  0  0  0  0  0  0  0  0  0  0  0
    0.3903   -3.0429    8.2290 H   0  0  0  0  0  0  0  0  0  0  0  0
    5.2615    4.7973    6.8553 H   0  0  0  0  0  0  0  0  0  0  0  0
    6.0624    6.0440    5.8489 H   0  0  0  0  0  0  0  0  0  0  0  0
    7.7336    4.3923    6.5647 H   0  0  0  0  0  0  0  0  0  0  0  0
    6.7309    3.0310    5.9354 H   0  0  0  0  0  0  0  0  0  0  0  0
    7.4869    4.2072    4.7832 H   0  0  0  0  0  0  0  0  0  0  0  0
   -1.0852    1.3965    1.2667 H   0  0  0  0  0  0  0  0  0  0  0  0
   -2.3779    0.2710    0.9532 H   0  0  0  0  0  0  0  0  0  0  0  0
   -1.3894   -0.6447   -0.9550 H   0  0  0  0  0  0  0  0  0  0  0  0
   -0.5927    0.9530   -1.0026 H   0  0  0  0  0  0  0  0  0  0  0  0
    0.2807   -0.4855   -0.3274 H   0  0  0  0  0  0  0  0  0  0  0  0
    1.1745    1.2297    0.8278 H   0  0  0  0  0  0  0  0  0  0  0  0
    2.5412    2.2724    1.1096 H   0  0  0  0  0  0  0  0  0  0  0  0
    1.2292    4.2916    1.2106 H   0  0  0  0  0  0  0  0  0  0  0  0
    0.4720    3.3369   -0.1227 H   0  0  0  0  0  0  0  0  0  0  0  0
   -0.3058    3.4175    1.5189 H   0  0  0  0  0  0  0  0  0  0  0  0
    5.6042    7.2408    3.7159 H   0  0  0  0  0  0  0  0  0  0  0  0
    6.8862    4.2527   -1.6637 H   0  0  0  0  0  0  0  0  0  0  0  0
    7.3425    8.0896   -3.5751 H   0  0  0  0  0  0  0  0  0  0  0  0
    7.0690    9.2253   -1.4302 H   0  0  0  0  0  0  0  0  0  0  0  0
  1  2  2  3
  2  3  1  0
  3  4  2  0
  3  5  1  0
  5  6  2  0
  6  7  1  0
  7  8  2  0
  8  9  1  0
  9 10  2  0
 10 11  1  0
 11 12  2  3
 12 13  1  0
 13 14  3  0
 12 15  1  0
 15 16  3  0
  8 17  1  0
 17 18  1  0
 18 19  1  0
 19 20  2  0
 20 21  1  0
 21 22  1  0
 21 23  1  0
  1 24  1  0
 24 25  2  0
 25 26  1  0
 26 27  1  0
 25 28  1  0
 28 29  1  0
 29 30  1  0
 30 31  1  0
 31 32  2  0
 32 33  1  0
 33 34  1  0
 34 35  2  0
 35 36  1  0
 36 37  2  0
 33 38  2  0
 38 39  1  0
 39 40  1  0
 40 41  1  0
 41 42  1  0
 42 43  1  0
 43 44  1  0
 42 45  2  0
 45 46  1  0
 46 47  1  0
 47 48  1  0
 48 49  1  0
 49 50  1  0
 50 51  2  0
 51 52  1  0
 52 53  1  0
 53 54  1  0
 54 55  1  0
 52 56  1  0
 56 57  1  0
 49 58  1  0
 58 59  1  0
 45 60  1  0
 60 61  2  3
 61 62  1  0
 62 63  2  0
 62 64  1  0
 64 65  2  0
 65 66  1  0
 66 67  1  0
 66 68  2  0
 68 69  1  0
 69 70  2  0
 70 71  1  0
 71 72  2  3
 72 73  1  0
 73 74  3  0
 72 75  1  0
 75 76  3  0
 11  2  1  0
 23 17  1  0
 55 24  1  0
 71 61  1  0
 10  5  1  0
 22 18  1  0
 54 28  2  0
 70 64  1  0
 23  7  1  0
 53 30  2  0
 51 31  1  0
 37 32  1  0
 50 38  1  0
 48 39  2  0
 47 41  2  0
  1 77  1  0
  6 78  1  0
  9 79  1  0
 17 80  1  0
 18 81  1  0
 19 82  1  0
 20 83  1  0
 21 84  1  0
 22 85  1  0
 22 86  1  0
 23 87  1  0
 26 88  1  0
 26 89  1  0
 27 90  1  0
 27 91  1  0
 27 92  1  0
 35 93  1  0
 36 94  1  0
 43 95  1  0
 43 96  1  0
 44 97  1  0
 44 98  1  0
 44 99  1  0
 56100  1  0
 56101  1  0
 57102  1  0
 57103  1  0
 57104  1  0
 58105  1  0
 58106  1  0
 59107  1  0
 59108  1  0
 59109  1  0
 60110  1  0
 65111  1  0
 68112  1  0
 69113  1  0
M  END

