
     RDKit          3D

134149  0  0  0  0  0  0  0  0999 V2000
   -5.8862    2.6262    2.6859 C   0  0  0  0  0  0  0  0  0  0  0  0
   -6.7652    1.6234    2.5018 C   0  0  0  0  0  0  0  0  0  0  0  0
   -6.6959    0.6264    1.4238 C   0  0  0  0  0  0  0  0  0  0  0  0
   -5.7044    0.3804    0.6878 O   0  0  0  0  0  0  0  0  0  0  0  0
   -7.9960    0.0193    1.2669 C   0  0  0  0  0  0  0  0  0  0  0  0
   -8.3653   -0.9508    0.3083 C   0  0  0  0  0  0  0  0  0  0  0  0
   -9.6916   -1.3281    0.3762 C   0  0  0  0  0  0  0  0  0  0  0  0
  -10.6086   -0.7915    1.3354 C   0  0  0  0  0  0  0  0  0  0  0  0
  -10.2535    0.1555    2.2811 C   0  0  0  0  0  0  0  0  0  0  0  0
   -8.8910    0.5696    2.2226 C   0  0  0  0  0  0  0  0  0  0  0  0
   -8.1410    1.5362    3.0810 C   0  0  0  0  0  0  0  0  0  0  0  0
   -8.5606    2.1022    4.2413 C   0  0  0  0  0  0  0  0  0  0  0  0
   -7.6413    2.7063    5.1725 C   0  0  0  0  0  0  0  0  0  0  0  0
   -6.9120    3.1842    5.9363 N   0  0  0  0  0  0  0  0  0  0  0  0
   -9.9362    2.0905    4.6657 C   0  0  0  0  0  0  0  0  0  0  0  0
  -11.0416    2.1060    5.0140 N   0  0  0  0  0  0  0  0  0  0  0  0
  -11.7095   -1.6476    0.7868 C   0  0  0  0  0  0  0  0  0  0  0  0
  -12.1178   -2.8857    1.6388 C   0  0  0  0  0  0  0  0  0  0  0  0
  -12.9230   -3.7723    0.7189 C   0  0  0  0  0  0  0  0  0  0  0  0
  -12.0619   -4.2781   -0.1720 C   0  0  0  0  0  0  0  0  0  0  0  0
  -10.7055   -3.7140    0.1758 C   0  0  0  0  0  0  0  0  0  0  0  0
  -10.8388   -3.7051    1.6887 C   0  0  0  0  0  0  0  0  0  0  0  0
  -10.7673   -2.2014   -0.1920 C   0  0  0  0  0  0  0  0  0  0  0  0
   -4.5957    2.6916    1.9885 C   0  0  0  0  0  0  0  0  0  0  0  0
   -4.2150    3.6667    1.0448 C   0  0  0  0  0  0  0  0  0  0  0  0
   -5.0509    4.7977    0.5892 C   0  0  0  0  0  0  0  0  0  0  0  0
   -4.4969    6.0829    0.4836 C   0  0  0  0  0  0  0  0  0  0  0  0
   -5.2765    7.1537    0.0396 C   0  0  0  0  0  0  0  0  0  0  0  0
   -6.6141    6.9521   -0.3093 C   0  0  0  0  0  0  0  0  0  0  0  0
   -7.1853    5.6750   -0.2041 C   0  0  0  0  0  0  0  0  0  0  0  0
   -8.6112    5.4392   -0.6307 C   0  0  0  0  0  0  0  0  0  0  0  0
   -8.6733    5.0159   -2.0944 C   0  0  0  0  0  0  0  0  0  0  0  0
   -6.3954    4.5990    0.2336 C   0  0  0  0  0  0  0  0  0  0  0  0
   -2.9435    3.3842    0.5409 C   0  0  0  0  0  0  0  0  0  0  0  0
   -2.0229    4.0421   -0.7383 S   0  0  0  0  0  0  0  0  0  0  0  0
   -0.8588    2.8211   -0.5482 C   0  0  0  0  0  0  0  0  0  0  0  0
    0.3357    2.4379   -1.0769 C   0  0  0  0  0  0  0  0  0  0  0  0
    1.1431    3.0545   -2.0348 C   0  0  0  0  0  0  0  0  0  0  0  0
    2.4183    2.4957   -2.3085 C   0  0  0  0  0  0  0  0  0  0  0  0
    3.1858    3.1299   -3.2286 N   0  0  0  0  0  0  0  0  0  0  0  0
    2.1728    4.3798   -3.6203 S   0  0  0  0  0  0  0  0  0  0  0  0
    0.8065    4.1835   -2.7071 N   0  0  0  0  0  0  0  0  0  0  0  0
    2.7920    1.3248   -1.6456 C   0  0  0  0  0  0  0  0  0  0  0  0
    3.8944    0.5402   -1.7916 C   0  0  0  0  0  0  0  0  0  0  0  0
    5.3467    0.5074   -2.6680 S   0  0  0  0  0  0  0  0  0  0  0  0
    5.7518   -0.9984   -1.9697 C   0  0  0  0  0  0  0  0  0  0  0  0
    6.8815   -1.8166   -2.0369 C   0  0  0  0  0  0  0  0  0  0  0  0
    8.0831   -1.5219   -2.8444 C   0  0  0  0  0  0  0  0  0  0  0  0
    8.6747   -0.2504   -2.8071 C   0  0  0  0  0  0  0  0  0  0  0  0
    9.8019    0.0246   -3.5860 C   0  0  0  0  0  0  0  0  0  0  0  0
   10.3471   -0.9651   -4.4087 C   0  0  0  0  0  0  0  0  0  0  0  0
    9.7742   -2.2454   -4.4462 C   0  0  0  0  0  0  0  0  0  0  0  0
   10.3302   -3.3011   -5.3636 C   0  0  0  0  0  0  0  0  0  0  0  0
    9.6258   -3.2647   -6.7152 C   0  0  0  0  0  0  0  0  0  0  0  0
    8.6368   -2.5149   -3.6685 C   0  0  0  0  0  0  0  0  0  0  0  0
    6.7458   -2.9183   -1.1720 C   0  0  0  0  0  0  0  0  0  0  0  0
    5.2420   -2.8614   -0.3684 S   0  0  0  0  0  0  0  0  0  0  0  0
    4.7655   -1.4444   -1.1246 C   0  0  0  0  0  0  0  0  0  0  0  0
    3.7057   -0.5553   -1.0274 C   0  0  0  0  0  0  0  0  0  0  0  0
    2.5126   -0.5610   -0.3827 N   0  0  0  0  0  0  0  0  0  0  0  0
    1.9612    0.6599   -0.7185 C   0  0  0  0  0  0  0  0  0  0  0  0
    0.7213    1.2802   -0.3658 C   0  0  0  0  0  0  0  0  0  0  0  0
   -0.1858    1.0218    0.6414 N   0  0  0  0  0  0  0  0  0  0  0  0
   -1.1432    1.9641    0.4544 C   0  0  0  0  0  0  0  0  0  0  0  0
   -2.3383    2.2778    1.0808 C   0  0  0  0  0  0  0  0  0  0  0  0
   -3.3441    1.5514    2.2044 S   0  0  0  0  0  0  0  0  0  0  0  0
   -0.0374    0.2565    1.8871 C   0  0  0  0  0  0  0  0  0  0  0  0
    1.2264    0.6587    2.6473 C   0  0  0  0  0  0  0  0  0  0  0  0
    1.8769   -1.7813    0.1338 C   0  0  0  0  0  0  0  0  0  0  0  0
    0.6256   -2.1477   -0.6655 C   0  0  0  0  0  0  0  0  0  0  0  0
    7.8229   -3.8530   -0.8102 C   0  0  0  0  0  0  0  0  0  0  0  0
    8.4676   -3.8205    0.3761 C   0  0  0  0  0  0  0  0  0  0  0  0
    8.2526   -2.7573    1.3794 C   0  0  0  0  0  0  0  0  0  0  0  0
    7.8286   -1.6220    1.0261 O   0  0  0  0  0  0  0  0  0  0  0  0
    8.5650   -3.0020    2.7603 N   0  0  0  0  0  0  0  0  0  0  0  0
    7.9744   -2.1159    3.7802 C   0  0  0  0  0  0  0  0  0  0  0  0
    8.8911   -0.9311    4.0685 C   0  0  0  0  0  0  0  0  0  0  0  0
    9.4747   -4.0760    3.1040 C   0  0  0  0  0  0  0  0  0  0  0  0
   10.0030   -4.2356    4.6615 S   0  0  0  0  0  0  0  0  0  0  0  0
    9.9456   -4.9887    2.0755 N   0  0  0  0  0  0  0  0  0  0  0  0
   11.0062   -5.9755    2.3545 C   0  0  0  0  0  0  0  0  0  0  0  0
   12.3824   -5.3363    2.2009 C   0  0  0  0  0  0  0  0  0  0  0  0
    9.4356   -4.8786    0.7281 C   0  0  0  0  0  0  0  0  0  0  0  0
    9.8264   -5.6854   -0.1621 O   0  0  0  0  0  0  0  0  0  0  0  0
   -6.1635    3.4941    3.2666 H   0  0  0  0  0  0  0  0  0  0  0  0
   -7.6769   -1.3632   -0.4172 H   0  0  0  0  0  0  0  0  0  0  0  0
  -10.9826    0.5187    2.9831 H   0  0  0  0  0  0  0  0  0  0  0  0
  -12.5475   -1.0644    0.3458 H   0  0  0  0  0  0  0  0  0  0  0  0
  -12.5889   -2.6633    2.6181 H   0  0  0  0  0  0  0  0  0  0  0  0
  -13.9739   -4.0202    0.7978 H   0  0  0  0  0  0  0  0  0  0  0  0
  -12.2947   -5.0088   -0.9375 H   0  0  0  0  0  0  0  0  0  0  0  0
   -9.8383   -4.2737   -0.2334 H   0  0  0  0  0  0  0  0  0  0  0  0
  -10.9808   -4.7214    2.1269 H   0  0  0  0  0  0  0  0  0  0  0  0
   -9.9985   -3.2047    2.2166 H   0  0  0  0  0  0  0  0  0  0  0  0
  -11.0147   -1.9716   -1.2538 H   0  0  0  0  0  0  0  0  0  0  0  0
   -3.4652    6.2620    0.7586 H   0  0  0  0  0  0  0  0  0  0  0  0
   -4.8416    8.1435   -0.0356 H   0  0  0  0  0  0  0  0  0  0  0  0
   -7.2028    7.7929   -0.6621 H   0  0  0  0  0  0  0  0  0  0  0  0
   -9.2158    6.3626   -0.4882 H   0  0  0  0  0  0  0  0  0  0  0  0
   -9.0646    4.6460    0.0029 H   0  0  0  0  0  0  0  0  0  0  0  0
   -8.3543    5.8515   -2.7510 H   0  0  0  0  0  0  0  0  0  0  0  0
   -8.0154    4.1399   -2.2707 H   0  0  0  0  0  0  0  0  0  0  0  0
   -9.7121    4.7317   -2.3518 H   0  0  0  0  0  0  0  0  0  0  0  0
   -6.8266    3.6048    0.2717 H   0  0  0  0  0  0  0  0  0  0  0  0
    8.2767    0.5255   -2.1654 H   0  0  0  0  0  0  0  0  0  0  0  0
   10.2515    1.0096   -3.5583 H   0  0  0  0  0  0  0  0  0  0  0  0
   11.2125   -0.7318   -5.0190 H   0  0  0  0  0  0  0  0  0  0  0  0
   11.4204   -3.1416   -5.5151 H   0  0  0  0  0  0  0  0  0  0  0  0
   10.2019   -4.3082   -4.9077 H   0  0  0  0  0  0  0  0  0  0  0  0
    9.7760   -2.2763   -7.2024 H   0  0  0  0  0  0  0  0  0  0  0  0
    8.5366   -3.4479   -6.5880 H   0  0  0  0  0  0  0  0  0  0  0  0
   10.0434   -4.0541   -7.3756 H   0  0  0  0  0  0  0  0  0  0  0  0
    8.1712   -3.4919   -3.7228 H   0  0  0  0  0  0  0  0  0  0  0  0
   -0.1181   -0.8258    1.6987 H   0  0  0  0  0  0  0  0  0  0  0  0
   -0.8835    0.4675    2.5671 H   0  0  0  0  0  0  0  0  0  0  0  0
    1.2096    1.7493    2.8507 H   0  0  0  0  0  0  0  0  0  0  0  0
    1.2638    0.1129    3.6139 H   0  0  0  0  0  0  0  0  0  0  0  0
    2.1423    0.4215    2.0733 H   0  0  0  0  0  0  0  0  0  0  0  0
    1.7078   -1.7133    1.2205 H   0  0  0  0  0  0  0  0  0  0  0  0
    2.5657   -2.6414    0.0363 H   0  0  0  0  0  0  0  0  0  0  0  0
    0.1969   -3.0915   -0.2679 H   0  0  0  0  0  0  0  0  0  0  0  0
   -0.1484   -1.3574   -0.6017 H   0  0  0  0  0  0  0  0  0  0  0  0
    0.8942   -2.2986   -1.7333 H   0  0  0  0  0  0  0  0  0  0  0  0
    8.0513   -4.6276   -1.5310 H   0  0  0  0  0  0  0  0  0  0  0  0
    6.9889   -1.7350    3.4336 H   0  0  0  0  0  0  0  0  0  0  0  0
    7.7702   -2.6723    4.7186 H   0  0  0  0  0  0  0  0  0  0  0  0
    8.4004   -0.2505    4.7970 H   0  0  0  0  0  0  0  0  0  0  0  0
    9.8540   -1.2786    4.4978 H   0  0  0  0  0  0  0  0  0  0  0  0
    9.0935   -0.3643    3.1360 H   0  0  0  0  0  0  0  0  0  0  0  0
   10.9005   -6.4000    3.3742 H   0  0  0  0  0  0  0  0  0  0  0  0
   10.9324   -6.8452    1.6679 H   0  0  0  0  0  0  0  0  0  0  0  0
   12.5003   -4.5001    2.9223 H   0  0  0  0  0  0  0  0  0  0  0  0
   12.5096   -4.9485    1.1673 H   0  0  0  0  0  0  0  0  0  0  0  0
   13.1727   -6.0925    2.3997 H   0  0  0  0  0  0  0  0  0  0  0  0
  1  2  2  3
  2  3  1  0
  3  4  2  0
  3  5  1  0
  5  6  2  0
  6  7  1  0
  7  8  2  0
  8  9  1  0
  9 10  2  0
 10 11  1  0
 11 12  2  3
 12 13  1  0
 13 14  3  0
 12 15  1  0
 15 16  3  0
  8 17  1  0
 17 18  1  0
 18 19  1  0
 19 20  2  0
 20 21  1  0
 21 22  1  0
 21 23  1  0
  1 24  1  0
 24 25  2  0
 25 26  1  0
 26 27  2  0
 27 28  1  0
 28 29  2  0
 29 30  1  0
 30 31  1  0
 31 32  1  0
 30 33  2  0
 25 34  1  0
 34 35  1  0
 35 36  1  0
 36 37  1  0
 37 38  1  0
 38 39  1  0
 39 40  2  0
 40 41  1  0
 41 42  1  0
 39 43  1  0
 43 44  1  0
 44 45  1  0
 45 46  1  0
 46 47  1  0
 47 48  1  0
 48 49  2  0
 49 50  1  0
 50 51  2  0
 51 52  1  0
 52 53  1  0
 53 54  1  0
 52 55  2  0
 47 56  2  0
 56 57  1  0
 57 58  1  0
 58 59  1  0
 59 60  1  0
 60 61  1  0
 61 62  1  0
 62 63  1  0
 63 64  1  0
 64 65  1  0
 65 66  1  0
 63 67  1  0
 67 68  1  0
 60 69  1  0
 69 70  1  0
 56 71  1  0
 71 72  2  3
 72 73  1  0
 73 74  2  0
 73 75  1  0
 75 76  1  0
 76 77  1  0
 75 78  1  0
 78 79  2  0
 78 80  1  0
 80 81  1  0
 81 82  1  0
 80 83  1  0
 83 84  2  0
 11  2  1  0
 23 17  1  0
 66 24  1  0
 83 72  1  0
 10  5  1  0
 22 18  1  0
 33 26  1  0
 65 34  2  0
 23  7  1  0
 64 36  2  0
 62 37  2  0
 42 38  2  0
 61 43  2  0
 59 44  2  0
 58 46  2  0
 55 48  1  0
  1 85  1  0
  6 86  1  0
  9 87  1  0
 17 88  1  0
 18 89  1  0
 19 90  1  0
 20 91  1  0
 21 92  1  0
 22 93  1  0
 22 94  1  0
 23 95  1  0
 27 96  1  0
 28 97  1  0
 29 98  1  0
 31 99  1  0
 31100  1  0
 32101  1  0
 32102  1  0
 32103  1  0
 33104  1  0
 49105  1  0
 50106  1  0
 51107  1  0
 53108  1  0
 53109  1  0
 54110  1  0
 54111  1  0
 54112  1  0
 55113  1  0
 67114  1  0
 67115  1  0
 68116  1  0
 68117  1  0
 68118  1  0
 69119  1  0
 69120  1  0
 70121  1  0
 70122  1  0
 70123  1  0
 71124  1  0
 76125  1  0
 76126  1  0
 77127  1  0
 77128  1  0
 77129  1  0
 81130  1  0
 81131  1  0
 82132  1  0
 82133  1  0
 82134  1  0
M  END

