
     RDKit          3D

136153  0  0  0  0  0  0  0  0999 V2000
    2.4017   -4.4744   -5.9134 C   0  0  0  0  0  0  0  0  0  0  0  0
    2.9257   -3.2658   -6.2175 C   0  0  0  0  0  0  0  0  0  0  0  0
    2.9348   -2.0654   -5.3598 C   0  0  0  0  0  0  0  0  0  0  0  0
    2.9202   -2.0343   -4.0996 O   0  0  0  0  0  0  0  0  0  0  0  0
    3.0421   -0.8917   -6.1976 C   0  0  0  0  0  0  0  0  0  0  0  0
    2.9929    0.4610   -5.7821 C   0  0  0  0  0  0  0  0  0  0  0  0
    2.9834    1.3656   -6.8270 C   0  0  0  0  0  0  0  0  0  0  0  0
    3.0184    0.9705   -8.2055 C   0  0  0  0  0  0  0  0  0  0  0  0
    3.0961   -0.3519   -8.6174 C   0  0  0  0  0  0  0  0  0  0  0  0
    3.1392   -1.2972   -7.5522 C   0  0  0  0  0  0  0  0  0  0  0  0
    3.2300   -2.7850   -7.6036 C   0  0  0  0  0  0  0  0  0  0  0  0
    3.7199   -3.5301   -8.6289 C   0  0  0  0  0  0  0  0  0  0  0  0
    4.0301   -4.9280   -8.4809 C   0  0  0  0  0  0  0  0  0  0  0  0
    4.2859   -6.0503   -8.3697 N   0  0  0  0  0  0  0  0  0  0  0  0
    4.1038   -2.9544   -9.8909 C   0  0  0  0  0  0  0  0  0  0  0  0
    4.4214   -2.5047  -10.9106 N   0  0  0  0  0  0  0  0  0  0  0  0
    2.9287    2.4069   -8.6352 C   0  0  0  0  0  0  0  0  0  0  0  0
    4.2155    3.0813   -9.2056 C   0  0  0  0  0  0  0  0  0  0  0  0
    5.4450    2.4508   -8.5950 C   0  0  0  0  0  0  0  0  0  0  0  0
    5.4470    2.7970   -7.3054 C   0  0  0  0  0  0  0  0  0  0  0  0
    4.2246    3.6637   -7.0876 C   0  0  0  0  0  0  0  0  0  0  0  0
    4.2018    4.3804   -8.4231 C   0  0  0  0  0  0  0  0  0  0  0  0
    2.9240    2.8109   -7.2228 C   0  0  0  0  0  0  0  0  0  0  0  0
    1.6512   -4.7755   -4.6770 C   0  0  0  0  0  0  0  0  0  0  0  0
    0.2666   -5.0368   -4.6405 C   0  0  0  0  0  0  0  0  0  0  0  0
   -0.5903   -5.2079   -5.8365 C   0  0  0  0  0  0  0  0  0  0  0  0
   -0.2839   -6.2092   -6.7706 C   0  0  0  0  0  0  0  0  0  0  0  0
   -1.1017   -6.4142   -7.8819 C   0  0  0  0  0  0  0  0  0  0  0  0
   -2.2613   -5.6562   -8.0523 C   0  0  0  0  0  0  0  0  0  0  0  0
   -2.5967   -4.6651   -7.1203 C   0  0  0  0  0  0  0  0  0  0  0  0
   -3.8939   -3.9121   -7.2500 C   0  0  0  0  0  0  0  0  0  0  0  0
   -4.9317   -4.4571   -6.2729 C   0  0  0  0  0  0  0  0  0  0  0  0
   -1.7490   -4.4344   -6.0219 C   0  0  0  0  0  0  0  0  0  0  0  0
   -0.2039   -5.0403   -3.3233 C   0  0  0  0  0  0  0  0  0  0  0  0
   -1.7598   -4.7888   -2.6993 S   0  0  0  0  0  0  0  0  0  0  0  0
   -1.1623   -4.4512   -1.1526 C   0  0  0  0  0  0  0  0  0  0  0  0
   -1.5470   -3.4999   -0.2455 C   0  0  0  0  0  0  0  0  0  0  0  0
   -2.6737   -2.6615   -0.2935 C   0  0  0  0  0  0  0  0  0  0  0  0
   -2.6368   -1.4126    0.3921 C   0  0  0  0  0  0  0  0  0  0  0  0
   -3.7246   -0.6132    0.2841 N   0  0  0  0  0  0  0  0  0  0  0  0
   -4.6590   -1.5547   -0.7100 S   0  0  0  0  0  0  0  0  0  0  0  0
   -3.7883   -2.9272   -1.0191 N   0  0  0  0  0  0  0  0  0  0  0  0
   -1.4952   -1.0866    1.1261 C   0  0  0  0  0  0  0  0  0  0  0  0
   -1.2517   -0.0774    2.0061 C   0  0  0  0  0  0  0  0  0  0  0  0
   -2.1569    1.1603    2.7285 S   0  0  0  0  0  0  0  0  0  0  0  0
   -1.0228    1.2754    3.9947 C   0  0  0  0  0  0  0  0  0  0  0  0
   -1.0426    1.9591    5.2056 C   0  0  0  0  0  0  0  0  0  0  0  0
   -2.0656    2.9595    5.5665 C   0  0  0  0  0  0  0  0  0  0  0  0
   -2.8137    2.8263    6.7463 C   0  0  0  0  0  0  0  0  0  0  0  0
   -3.7449    3.8027    7.1018 C   0  0  0  0  0  0  0  0  0  0  0  0
   -3.9305    4.9273    6.2944 C   0  0  0  0  0  0  0  0  0  0  0  0
   -3.1791    5.0836    5.1196 C   0  0  0  0  0  0  0  0  0  0  0  0
   -3.3589    6.2984    4.2467 C   0  0  0  0  0  0  0  0  0  0  0  0
   -4.3905    6.0393    3.1563 C   0  0  0  0  0  0  0  0  0  0  0  0
   -2.2656    4.0825    4.7490 C   0  0  0  0  0  0  0  0  0  0  0  0
   -0.0018    1.5190    6.0456 C   0  0  0  0  0  0  0  0  0  0  0  0
    0.8868    0.2775    5.2824 S   0  0  0  0  0  0  0  0  0  0  0  0
   -0.0311    0.3338    3.8760 C   0  0  0  0  0  0  0  0  0  0  0  0
   -0.1455   -0.4249    2.7162 C   0  0  0  0  0  0  0  0  0  0  0  0
    0.3752   -1.6159    2.3200 N   0  0  0  0  0  0  0  0  0  0  0  0
   -0.4235   -1.9704    1.2621 C   0  0  0  0  0  0  0  0  0  0  0  0
   -0.3863   -3.1350    0.4565 C   0  0  0  0  0  0  0  0  0  0  0  0
    0.7143   -3.7337   -0.1007 N   0  0  0  0  0  0  0  0  0  0  0  0
    0.2061   -4.5124   -1.0985 C   0  0  0  0  0  0  0  0  0  0  0  0
    0.7488   -4.8491   -2.3484 C   0  0  0  0  0  0  0  0  0  0  0  0
    2.2438   -4.6339   -3.0871 S   0  0  0  0  0  0  0  0  0  0  0  0
    2.1126   -3.2867   -0.0156 C   0  0  0  0  0  0  0  0  0  0  0  0
    3.0225   -4.4473    0.3765 C   0  0  0  0  0  0  0  0  0  0  0  0
    1.0968   -2.5425    3.2006 C   0  0  0  0  0  0  0  0  0  0  0  0
    0.1583   -3.1435    4.2463 C   0  0  0  0  0  0  0  0  0  0  0  0
    0.1890    1.9438    7.4463 C   0  0  0  0  0  0  0  0  0  0  0  0
   -0.0136    0.9897    8.4511 C   0  0  0  0  0  0  0  0  0  0  0  0
   -0.0709    1.3660    9.7895 C   0  0  0  0  0  0  0  0  0  0  0  0
    0.0889    2.7103   10.1621 C   0  0  0  0  0  0  0  0  0  0  0  0
   -0.0519    3.1125   11.5801 C   0  0  0  0  0  0  0  0  0  0  0  0
   -0.3736    2.2529   12.4483 O   0  0  0  0  0  0  0  0  0  0  0  0
    0.1450    4.4864   11.9617 N   0  0  0  0  0  0  0  0  0  0  0  0
   -0.1350    4.9294   13.3327 C   0  0  0  0  0  0  0  0  0  0  0  0
   -1.5869    5.3941   13.4531 C   0  0  0  0  0  0  0  0  0  0  0  0
    0.4620    5.4546   10.9432 C   0  0  0  0  0  0  0  0  0  0  0  0
    0.6467    6.6631   11.2564 O   0  0  0  0  0  0  0  0  0  0  0  0
    0.5546    5.0363    9.5254 C   0  0  0  0  0  0  0  0  0  0  0  0
    0.8213    5.9856    8.5239 C   0  0  0  0  0  0  0  0  0  0  0  0
    0.8908    5.6057    7.1889 C   0  0  0  0  0  0  0  0  0  0  0  0
    0.6916    4.2758    6.8253 C   0  0  0  0  0  0  0  0  0  0  0  0
    0.4152    3.2970    7.8010 C   0  0  0  0  0  0  0  0  0  0  0  0
    0.3569    3.6808    9.1705 C   0  0  0  0  0  0  0  0  0  0  0  0
    2.2650   -5.1851   -6.7104 H   0  0  0  0  0  0  0  0  0  0  0  0
    2.9165    0.7625   -4.7441 H   0  0  0  0  0  0  0  0  0  0  0  0
    3.0805   -0.6089   -9.6634 H   0  0  0  0  0  0  0  0  0  0  0  0
    1.9860    2.6624   -9.1719 H   0  0  0  0  0  0  0  0  0  0  0  0
    4.2446    3.1952  -10.3100 H   0  0  0  0  0  0  0  0  0  0  0  0
    6.2209    1.8910   -9.1085 H   0  0  0  0  0  0  0  0  0  0  0  0
    6.2309    2.5721   -6.5912 H   0  0  0  0  0  0  0  0  0  0  0  0
    4.2733    4.3226   -6.1937 H   0  0  0  0  0  0  0  0  0  0  0  0
    5.0986    5.0163   -8.6017 H   0  0  0  0  0  0  0  0  0  0  0  0
    3.2755    4.9899   -8.5834 H   0  0  0  0  0  0  0  0  0  0  0  0
    1.9869    3.3278   -6.9044 H   0  0  0  0  0  0  0  0  0  0  0  0
    0.5842   -6.8435   -6.6329 H   0  0  0  0  0  0  0  0  0  0  0  0
   -0.8527   -7.1851   -8.5995 H   0  0  0  0  0  0  0  0  0  0  0  0
   -2.9017   -5.8568   -8.9016 H   0  0  0  0  0  0  0  0  0  0  0  0
   -4.2909   -3.9988   -8.2847 H   0  0  0  0  0  0  0  0  0  0  0  0
   -3.7296   -2.8300   -7.0518 H   0  0  0  0  0  0  0  0  0  0  0  0
   -4.9785   -5.5659   -6.3285 H   0  0  0  0  0  0  0  0  0  0  0  0
   -5.9324   -4.0371   -6.5139 H   0  0  0  0  0  0  0  0  0  0  0  0
   -4.6758   -4.1512   -5.2368 H   0  0  0  0  0  0  0  0  0  0  0  0
   -2.0087   -3.6599   -5.3112 H   0  0  0  0  0  0  0  0  0  0  0  0
   -2.6850    1.9599    7.3835 H   0  0  0  0  0  0  0  0  0  0  0  0
   -4.3263    3.6844    8.0067 H   0  0  0  0  0  0  0  0  0  0  0  0
   -4.6565    5.6767    6.5849 H   0  0  0  0  0  0  0  0  0  0  0  0
   -3.6854    7.1688    4.8596 H   0  0  0  0  0  0  0  0  0  0  0  0
   -2.3878    6.5760    3.7763 H   0  0  0  0  0  0  0  0  0  0  0  0
   -4.4740    6.9389    2.5057 H   0  0  0  0  0  0  0  0  0  0  0  0
   -4.0792    5.1824    2.5244 H   0  0  0  0  0  0  0  0  0  0  0  0
   -5.3856    5.8251    3.6045 H   0  0  0  0  0  0  0  0  0  0  0  0
   -1.6870    4.1909    3.8390 H   0  0  0  0  0  0  0  0  0  0  0  0
    2.2332   -2.4604    0.7078 H   0  0  0  0  0  0  0  0  0  0  0  0
    2.4346   -2.8655   -0.9875 H   0  0  0  0  0  0  0  0  0  0  0  0
    2.7041   -4.8861    1.3496 H   0  0  0  0  0  0  0  0  0  0  0  0
    2.9902   -5.2514   -0.3892 H   0  0  0  0  0  0  0  0  0  0  0  0
    4.0680   -4.0875    0.4710 H   0  0  0  0  0  0  0  0  0  0  0  0
    1.9381   -2.0189    3.6998 H   0  0  0  0  0  0  0  0  0  0  0  0
    1.5212   -3.3805    2.6214 H   0  0  0  0  0  0  0  0  0  0  0  0
   -0.7217   -3.6072    3.7519 H   0  0  0  0  0  0  0  0  0  0  0  0
   -0.1920   -2.3663    4.9479 H   0  0  0  0  0  0  0  0  0  0  0  0
    0.6982   -3.9224    4.8247 H   0  0  0  0  0  0  0  0  0  0  0  0
   -0.1908   -0.0471    8.1900 H   0  0  0  0  0  0  0  0  0  0  0  0
   -0.2745    0.6054   10.5322 H   0  0  0  0  0  0  0  0  0  0  0  0
    0.5473    5.7600   13.6180 H   0  0  0  0  0  0  0  0  0  0  0  0
    0.0429    4.1064   14.0604 H   0  0  0  0  0  0  0  0  0  0  0  0
   -2.2684    4.5347   13.2884 H   0  0  0  0  0  0  0  0  0  0  0  0
   -1.8034    6.1834   12.7023 H   0  0  0  0  0  0  0  0  0  0  0  0
   -1.7636    5.8060   14.4670 H   0  0  0  0  0  0  0  0  0  0  0  0
    0.9743    7.0291    8.7739 H   0  0  0  0  0  0  0  0  0  0  0  0
    1.0958    6.3437    6.4270 H   0  0  0  0  0  0  0  0  0  0  0  0
    0.7642    4.0212    5.7765 H   0  0  0  0  0  0  0  0  0  0  0  0
  1  2  2  3
  2  3  1  0
  3  4  2  0
  3  5  1  0
  5  6  2  0
  6  7  1  0
  7  8  2  0
  8  9  1  0
  9 10  2  0
 10 11  1  0
 11 12  2  3
 12 13  1  0
 13 14  3  0
 12 15  1  0
 15 16  3  0
  8 17  1  0
 17 18  1  0
 18 19  1  0
 19 20  2  0
 20 21  1  0
 21 22  1  0
 21 23  1  0
  1 24  1  0
 24 25  2  0
 25 26  1  0
 26 27  2  0
 27 28  1  0
 28 29  2  0
 29 30  1  0
 30 31  1  0
 31 32  1  0
 30 33  2  0
 25 34  1  0
 34 35  1  0
 35 36  1  0
 36 37  1  0
 37 38  1  0
 38 39  1  0
 39 40  2  0
 40 41  1  0
 41 42  1  0
 39 43  1  0
 43 44  1  0
 44 45  1  0
 45 46  1  0
 46 47  1  0
 47 48  1  0
 48 49  2  0
 49 50  1  0
 50 51  2  0
 51 52  1  0
 52 53  1  0
 53 54  1  0
 52 55  2  0
 47 56  2  0
 56 57  1  0
 57 58  1  0
 58 59  1  0
 59 60  1  0
 60 61  1  0
 61 62  1  0
 62 63  1  0
 63 64  1  0
 64 65  1  0
 65 66  1  0
 63 67  1  0
 67 68  1  0
 60 69  1  0
 69 70  1  0
 56 71  1  0
 71 72  2  0
 72 73  1  0
 73 74  2  0
 74 75  1  0
 75 76  2  0
 75 77  1  0
 77 78  1  0
 78 79  1  0
 77 80  1  0
 80 81  2  0
 80 82  1  0
 82 83  1  0
 83 84  2  0
 84 85  1  0
 85 86  2  0
 86 87  1  0
 11  2  1  0
 23 17  1  0
 66 24  1  0
 86 71  1  0
 10  5  1  0
 22 18  1  0
 33 26  1  0
 65 34  2  0
 87 74  1  0
 23  7  1  0
 64 36  2  0
 87 82  2  0
 62 37  2  0
 42 38  2  0
 61 43  2  0
 59 44  2  0
 58 46  2  0
 55 48  1  0
  1 88  1  0
  6 89  1  0
  9 90  1  0
 17 91  1  0
 18 92  1  0
 19 93  1  0
 20 94  1  0
 21 95  1  0
 22 96  1  0
 22 97  1  0
 23 98  1  0
 27 99  1  0
 28100  1  0
 29101  1  0
 31102  1  0
 31103  1  0
 32104  1  0
 32105  1  0
 32106  1  0
 33107  1  0
 49108  1  0
 50109  1  0
 51110  1  0
 53111  1  0
 53112  1  0
 54113  1  0
 54114  1  0
 54115  1  0
 55116  1  0
 67117  1  0
 67118  1  0
 68119  1  0
 68120  1  0
 68121  1  0
 69122  1  0
 69123  1  0
 70124  1  0
 70125  1  0
 70126  1  0
 72127  1  0
 73128  1  0
 78129  1  0
 78130  1  0
 79131  1  0
 79132  1  0
 79133  1  0
 83134  1  0
 84135  1  0
 85136  1  0
M  END

