
     RDKit          3D

117130  0  0  0  0  0  0  0  0999 V2000
   -4.1461    0.2694    6.1821 C   0  0  0  0  0  0  0  0  0  0  0  0
   -5.1420   -0.2841    5.4677 C   0  0  0  0  0  0  0  0  0  0  0  0
   -5.1336   -0.3354    3.9976 C   0  0  0  0  0  0  0  0  0  0  0  0
   -4.8193    0.6108    3.2274 O   0  0  0  0  0  0  0  0  0  0  0  0
   -5.5047   -1.6605    3.5644 C   0  0  0  0  0  0  0  0  0  0  0  0
   -5.2858   -2.2158    2.2843 C   0  0  0  0  0  0  0  0  0  0  0  0
   -5.4016   -3.5909    2.2489 C   0  0  0  0  0  0  0  0  0  0  0  0
   -5.7226   -4.3815    3.3981 C   0  0  0  0  0  0  0  0  0  0  0  0
   -5.9697   -3.8366    4.6491 C   0  0  0  0  0  0  0  0  0  0  0  0
   -5.8616   -2.4188    4.7039 C   0  0  0  0  0  0  0  0  0  0  0  0
   -5.8326   -1.5289    5.8977 C   0  0  0  0  0  0  0  0  0  0  0  0
   -6.4433   -1.7331    7.0848 C   0  0  0  0  0  0  0  0  0  0  0  0
   -6.4914   -0.7042    8.0917 C   0  0  0  0  0  0  0  0  0  0  0  0
   -6.5380    0.1231    8.9017 N   0  0  0  0  0  0  0  0  0  0  0  0
   -7.2189   -2.9182    7.3502 C   0  0  0  0  0  0  0  0  0  0  0  0
   -7.8468   -3.8654    7.5718 N   0  0  0  0  0  0  0  0  0  0  0  0
   -5.5405   -5.6415    2.5993 C   0  0  0  0  0  0  0  0  0  0  0  0
   -6.8272   -6.4026    2.1686 C   0  0  0  0  0  0  0  0  0  0  0  0
   -6.3978   -7.3557    1.0760 C   0  0  0  0  0  0  0  0  0  0  0  0
   -6.1146   -6.6040    0.0073 C   0  0  0  0  0  0  0  0  0  0  0  0
   -6.3553   -5.1704    0.4140 C   0  0  0  0  0  0  0  0  0  0  0  0
   -7.5589   -5.3807    1.3154 C   0  0  0  0  0  0  0  0  0  0  0  0
   -5.2206   -4.8266    1.4222 C   0  0  0  0  0  0  0  0  0  0  0  0
   -2.8320    0.3916    5.5392 C   0  0  0  0  0  0  0  0  0  0  0  0
   -1.9506    1.4719    5.7798 C   0  0  0  0  0  0  0  0  0  0  0  0
   -1.6131    1.8703    7.2647 C   0  0  0  0  0  0  0  0  0  0  0  0
   -2.2948    3.1800    7.6393 C   0  0  0  0  0  0  0  0  0  0  0  0
   -1.1420    1.9054    4.6964 C   0  0  0  0  0  0  0  0  0  0  0  0
    0.2698    2.9887    4.8452 S   0  0  0  0  0  0  0  0  0  0  0  0
    0.5247    2.9253    3.1956 C   0  0  0  0  0  0  0  0  0  0  0  0
    1.6122    3.1148    2.3820 C   0  0  0  0  0  0  0  0  0  0  0  0
    2.9295    3.5172    2.6887 C   0  0  0  0  0  0  0  0  0  0  0  0
    3.9526    3.2862    1.7307 C   0  0  0  0  0  0  0  0  0  0  0  0
    5.2382    3.6130    2.0305 N   0  0  0  0  0  0  0  0  0  0  0  0
    5.5548    4.1455    3.2404 C   0  0  0  0  0  0  0  0  0  0  0  0
    4.5479    4.3639    4.1907 C   0  0  0  0  0  0  0  0  0  0  0  0
    3.2599    4.0424    3.8960 N   0  0  0  0  0  0  0  0  0  0  0  0
    3.5945    2.7113    0.5025 C   0  0  0  0  0  0  0  0  0  0  0  0
    4.3023    2.4383   -0.6400 C   0  0  0  0  0  0  0  0  0  0  0  0
    5.8846    2.4992   -1.2657 S   0  0  0  0  0  0  0  0  0  0  0  0
    5.3318    1.9345   -2.7879 C   0  0  0  0  0  0  0  0  0  0  0  0
    5.9612    1.5727   -3.9818 C   0  0  0  0  0  0  0  0  0  0  0  0
    7.4527    1.5710   -4.1810 C   0  0  0  0  0  0  0  0  0  0  0  0
    8.0875    0.3736   -3.4782 C   0  0  0  0  0  0  0  0  0  0  0  0
    5.0156    1.0615   -4.9013 C   0  0  0  0  0  0  0  0  0  0  0  0
    3.4433    1.1326   -4.2429 S   0  0  0  0  0  0  0  0  0  0  0  0
    3.9752    1.7422   -2.7823 C   0  0  0  0  0  0  0  0  0  0  0  0
    3.4039    2.0103   -1.5611 C   0  0  0  0  0  0  0  0  0  0  0  0
    2.1378    1.9626   -1.0990 N   0  0  0  0  0  0  0  0  0  0  0  0
    2.2779    2.3370    0.2059 C   0  0  0  0  0  0  0  0  0  0  0  0
    1.3008    2.4311    1.2059 C   0  0  0  0  0  0  0  0  0  0  0  0
    0.1666    1.6839    1.3565 N   0  0  0  0  0  0  0  0  0  0  0  0
   -0.3163    2.0560    2.5697 C   0  0  0  0  0  0  0  0  0  0  0  0
   -1.1692    1.3032    3.3830 C   0  0  0  0  0  0  0  0  0  0  0  0
   -2.2742    1.6838    4.6042 S   0  0  0  0  0  0  0  0  0  0  0  0
   -0.0808    0.3549    0.7647 C   0  0  0  0  0  0  0  0  0  0  0  0
   -1.5281    0.1942    0.3015 C   0  0  0  0  0  0  0  0  0  0  0  0
    0.9324    2.0513   -1.9336 C   0  0  0  0  0  0  0  0  0  0  0  0
    0.8511    3.4020   -2.6385 C   0  0  0  0  0  0  0  0  0  0  0  0
    5.2824    0.6697   -6.2954 C   0  0  0  0  0  0  0  0  0  0  0  0
    4.8249   -0.4643   -6.8631 C   0  0  0  0  0  0  0  0  0  0  0  0
    4.8846   -0.6357   -8.3365 C   0  0  0  0  0  0  0  0  0  0  0  0
    5.4199    0.2598   -9.0556 O   0  0  0  0  0  0  0  0  0  0  0  0
    4.2765   -1.7836   -8.9575 N   0  0  0  0  0  0  0  0  0  0  0  0
    4.4359   -2.0167  -10.4003 C   0  0  0  0  0  0  0  0  0  0  0  0
    3.2876   -1.3816  -11.1743 C   0  0  0  0  0  0  0  0  0  0  0  0
    3.4436   -2.6660   -8.1734 C   0  0  0  0  0  0  0  0  0  0  0  0
    2.8927   -3.6653   -8.7097 O   0  0  0  0  0  0  0  0  0  0  0  0
    3.1680   -2.3804   -6.7235 C   0  0  0  0  0  0  0  0  0  0  0  0
    1.9308   -1.5889   -6.6079 C   0  0  0  0  0  0  0  0  0  0  0  0
    0.9386   -0.9903   -6.4994 N   0  0  0  0  0  0  0  0  0  0  0  0
    4.3511   -1.6588   -6.0417 C   0  0  0  0  0  0  0  0  0  0  0  0
    5.5204   -2.6292   -5.8158 C   0  0  0  0  0  0  0  0  0  0  0  0
   -4.1284    0.1322    7.2539 H   0  0  0  0  0  0  0  0  0  0  0  0
   -4.9539   -1.6400    1.4323 H   0  0  0  0  0  0  0  0  0  0  0  0
   -6.1174   -4.4599    5.5156 H   0  0  0  0  0  0  0  0  0  0  0  0
   -4.6992   -6.2763    2.9573 H   0  0  0  0  0  0  0  0  0  0  0  0
   -7.4145   -6.8596    2.9937 H   0  0  0  0  0  0  0  0  0  0  0  0
   -6.3969   -8.4401    1.1107 H   0  0  0  0  0  0  0  0  0  0  0  0
   -5.8387   -6.9716   -0.9756 H   0  0  0  0  0  0  0  0  0  0  0  0
   -6.4884   -4.4553   -0.4232 H   0  0  0  0  0  0  0  0  0  0  0  0
   -8.4409   -5.8059    0.7779 H   0  0  0  0  0  0  0  0  0  0  0  0
   -7.8804   -4.4706    1.8685 H   0  0  0  0  0  0  0  0  0  0  0  0
   -4.1834   -4.9483    1.0416 H   0  0  0  0  0  0  0  0  0  0  0  0
   -1.9468    1.0714    7.9650 H   0  0  0  0  0  0  0  0  0  0  0  0
   -0.5152    1.9729    7.3935 H   0  0  0  0  0  0  0  0  0  0  0  0
   -3.4028    3.0531    7.6209 H   0  0  0  0  0  0  0  0  0  0  0  0
   -1.9914    3.4771    8.6598 H   0  0  0  0  0  0  0  0  0  0  0  0
   -2.0003    3.9857    6.9340 H   0  0  0  0  0  0  0  0  0  0  0  0
    6.5827    4.3895    3.4708 H   0  0  0  0  0  0  0  0  0  0  0  0
    4.7911    4.7746    5.1615 H   0  0  0  0  0  0  0  0  0  0  0  0
    7.8785    2.5138   -3.7680 H   0  0  0  0  0  0  0  0  0  0  0  0
    7.6989    1.5316   -5.2637 H   0  0  0  0  0  0  0  0  0  0  0  0
    9.1533    0.2882   -3.7644 H   0  0  0  0  0  0  0  0  0  0  0  0
    7.5668   -0.5629   -3.7616 H   0  0  0  0  0  0  0  0  0  0  0  0
    8.0225    0.5001   -2.3754 H   0  0  0  0  0  0  0  0  0  0  0  0
    0.1457   -0.4319    1.5173 H   0  0  0  0  0  0  0  0  0  0  0  0
    0.5974    0.1507   -0.0853 H   0  0  0  0  0  0  0  0  0  0  0  0
   -2.2294    0.2392    1.1629 H   0  0  0  0  0  0  0  0  0  0  0  0
   -1.6437   -0.7952   -0.1857 H   0  0  0  0  0  0  0  0  0  0  0  0
   -1.8093    0.9809   -0.4249 H   0  0  0  0  0  0  0  0  0  0  0  0
    0.9316    1.2339   -2.6853 H   0  0  0  0  0  0  0  0  0  0  0  0
    0.0198    1.9537   -1.3231 H   0  0  0  0  0  0  0  0  0  0  0  0
   -0.1009    3.4622   -3.2094 H   0  0  0  0  0  0  0  0  0  0  0  0
    0.8708    4.2277   -1.8903 H   0  0  0  0  0  0  0  0  0  0  0  0
    1.6953    3.5259   -3.3462 H   0  0  0  0  0  0  0  0  0  0  0  0
    5.7921    1.4072   -6.9006 H   0  0  0  0  0  0  0  0  0  0  0  0
    5.3988   -1.5945  -10.7602 H   0  0  0  0  0  0  0  0  0  0  0  0
    4.4683   -3.1062  -10.6155 H   0  0  0  0  0  0  0  0  0  0  0  0
    3.2745   -0.2777  -11.0236 H   0  0  0  0  0  0  0  0  0  0  0  0
    2.3148   -1.8067  -10.8391 H   0  0  0  0  0  0  0  0  0  0  0  0
    3.4061   -1.5920  -12.2575 H   0  0  0  0  0  0  0  0  0  0  0  0
    2.9790   -3.3439   -6.1965 H   0  0  0  0  0  0  0  0  0  0  0  0
    4.0132   -1.3598   -5.0302 H   0  0  0  0  0  0  0  0  0  0  0  0
    5.9011   -3.0309   -6.7764 H   0  0  0  0  0  0  0  0  0  0  0  0
    5.1954   -3.4872   -5.1893 H   0  0  0  0  0  0  0  0  0  0  0  0
    6.3494   -2.1118   -5.2819 H   0  0  0  0  0  0  0  0  0  0  0  0
  1  2  2  3
  2  3  1  0
  3  4  2  0
  3  5  1  0
  5  6  2  0
  6  7  1  0
  7  8  2  0
  8  9  1  0
  9 10  2  0
 10 11  1  0
 11 12  2  3
 12 13  1  0
 13 14  3  0
 12 15  1  0
 15 16  3  0
  8 17  1  0
 17 18  1  0
 18 19  1  0
 19 20  2  0
 20 21  1  0
 21 22  1  0
 21 23  1  0
  1 24  1  0
 24 25  2  0
 25 26  1  0
 26 27  1  0
 25 28  1  0
 28 29  1  0
 29 30  1  0
 30 31  1  0
 31 32  2  0
 32 33  1  0
 33 34  1  0
 34 35  2  0
 35 36  1  0
 36 37  2  0
 33 38  2  0
 38 39  1  0
 39 40  1  0
 40 41  1  0
 41 42  1  0
 42 43  1  0
 43 44  1  0
 42 45  2  0
 45 46  1  0
 46 47  1  0
 47 48  1  0
 48 49  1  0
 49 50  1  0
 50 51  2  0
 51 52  1  0
 52 53  1  0
 53 54  1  0
 54 55  1  0
 52 56  1  0
 56 57  1  0
 49 58  1  0
 58 59  1  0
 45 60  1  0
 60 61  2  3
 61 62  1  0
 62 63  2  0
 62 64  1  0
 64 65  1  0
 65 66  1  0
 64 67  1  0
 67 68  2  0
 67 69  1  0
 69 70  1  0
 70 71  3  0
 69 72  1  0
 72 73  1  0
 11  2  1  0
 23 17  1  0
 55 24  1  0
 72 61  1  0
 10  5  1  0
 22 18  1  0
 54 28  2  0
 23  7  1  0
 53 30  2  0
 51 31  1  0
 37 32  1  0
 50 38  1  0
 48 39  2  0
 47 41  2  0
  1 74  1  0
  6 75  1  0
  9 76  1  0
 17 77  1  0
 18 78  1  0
 19 79  1  0
 20 80  1  0
 21 81  1  0
 22 82  1  0
 22 83  1  0
 23 84  1  0
 26 85  1  0
 26 86  1  0
 27 87  1  0
 27 88  1  0
 27 89  1  0
 35 90  1  0
 36 91  1  0
 43 92  1  0
 43 93  1  0
 44 94  1  0
 44 95  1  0
 44 96  1  0
 56 97  1  0
 56 98  1  0
 57 99  1  0
 57100  1  0
 57101  1  0
 58102  1  0
 58103  1  0
 59104  1  0
 59105  1  0
 59106  1  0
 60107  1  0
 65108  1  0
 65109  1  0
 66110  1  0
 66111  1  0
 66112  1  0
 69113  1  0
 72114  1  0
 73115  1  0
 73116  1  0
 73117  1  0
M  END

