
     RDKit          3D

125140  0  0  0  0  0  0  0  0999 V2000
    0.4949   -5.2158   -2.6750 C   0  0  0  0  0  0  0  0  0  0  0  0
   -0.3450   -5.1034   -1.6228 C   0  0  0  0  0  0  0  0  0  0  0  0
   -0.5698   -3.8647   -0.8570 C   0  0  0  0  0  0  0  0  0  0  0  0
   -0.0001   -2.7541   -1.0293 O   0  0  0  0  0  0  0  0  0  0  0  0
   -1.6610   -4.0690    0.0613 C   0  0  0  0  0  0  0  0  0  0  0  0
   -2.1590   -3.1288    0.9939 C   0  0  0  0  0  0  0  0  0  0  0  0
   -3.1866   -3.6098    1.7781 C   0  0  0  0  0  0  0  0  0  0  0  0
   -3.6933   -4.9433    1.6701 C   0  0  0  0  0  0  0  0  0  0  0  0
   -3.2019   -5.8712    0.7635 C   0  0  0  0  0  0  0  0  0  0  0  0
   -2.1637   -5.3849   -0.0864 C   0  0  0  0  0  0  0  0  0  0  0  0
   -1.3818   -6.0901   -1.1545 C   0  0  0  0  0  0  0  0  0  0  0  0
   -1.5715   -7.3654   -1.5923 C   0  0  0  0  0  0  0  0  0  0  0  0
   -0.6509   -8.0390   -2.4682 C   0  0  0  0  0  0  0  0  0  0  0  0
    0.0843   -8.5856   -3.1749 N   0  0  0  0  0  0  0  0  0  0  0  0
   -2.7539   -8.1232   -1.2713 C   0  0  0  0  0  0  0  0  0  0  0  0
   -3.7078   -8.7387   -1.0354 N   0  0  0  0  0  0  0  0  0  0  0  0
   -4.6633   -4.6821    2.7883 C   0  0  0  0  0  0  0  0  0  0  0  0
   -4.3503   -5.2966    4.1874 C   0  0  0  0  0  0  0  0  0  0  0  0
   -2.8556   -5.4192    4.3790 C   0  0  0  0  0  0  0  0  0  0  0  0
   -2.3820   -4.1758    4.4714 C   0  0  0  0  0  0  0  0  0  0  0  0
   -3.5702   -3.2494    4.3437 C   0  0  0  0  0  0  0  0  0  0  0  0
   -4.6057   -4.0860    5.0686 C   0  0  0  0  0  0  0  0  0  0  0  0
   -4.1428   -3.3132    2.8947 C   0  0  0  0  0  0  0  0  0  0  0  0
    1.4932   -4.1913   -3.0263 C   0  0  0  0  0  0  0  0  0  0  0  0
    1.5389   -3.4727   -4.2335 C   0  0  0  0  0  0  0  0  0  0  0  0
    0.5663   -3.6014   -5.3404 C   0  0  0  0  0  0  0  0  0  0  0  0
   -0.8158   -3.6060   -5.0836 C   0  0  0  0  0  0  0  0  0  0  0  0
   -1.7273   -3.6823   -6.1379 C   0  0  0  0  0  0  0  0  0  0  0  0
   -1.2726   -3.7567   -7.4565 C   0  0  0  0  0  0  0  0  0  0  0  0
    0.1054   -3.7606   -7.7297 C   0  0  0  0  0  0  0  0  0  0  0  0
    0.5978   -3.8104   -9.1525 C   0  0  0  0  0  0  0  0  0  0  0  0
    0.9005   -2.4099   -9.6711 C   0  0  0  0  0  0  0  0  0  0  0  0
    1.0200   -3.6703   -6.6664 C   0  0  0  0  0  0  0  0  0  0  0  0
    2.4948   -2.4520   -4.1686 C   0  0  0  0  0  0  0  0  0  0  0  0
    2.6045   -1.0044   -5.0416 S   0  0  0  0  0  0  0  0  0  0  0  0
    3.5725   -0.2747   -3.8542 C   0  0  0  0  0  0  0  0  0  0  0  0
    3.5732    1.0103   -3.3816 C   0  0  0  0  0  0  0  0  0  0  0  0
    2.9537    2.1383   -3.9442 C   0  0  0  0  0  0  0  0  0  0  0  0
    2.6334    3.2410   -3.1027 C   0  0  0  0  0  0  0  0  0  0  0  0
    1.9789    4.2851   -3.6685 N   0  0  0  0  0  0  0  0  0  0  0  0
    1.8451    3.7181   -5.2191 S   0  0  0  0  0  0  0  0  0  0  0  0
    2.5575    2.2236   -5.2389 N   0  0  0  0  0  0  0  0  0  0  0  0
    2.9996    3.1800   -1.7592 C   0  0  0  0  0  0  0  0  0  0  0  0
    2.8157    4.0551   -0.7350 C   0  0  0  0  0  0  0  0  0  0  0  0
    1.9761    5.4896   -0.4159 S   0  0  0  0  0  0  0  0  0  0  0  0
    2.4685    5.4243    1.2192 C   0  0  0  0  0  0  0  0  0  0  0  0
    2.1190    6.1733    2.3439 C   0  0  0  0  0  0  0  0  0  0  0  0
    1.0975    7.2403    2.3398 C   0  0  0  0  0  0  0  0  0  0  0  0
    1.3630    8.4876    2.9213 C   0  0  0  0  0  0  0  0  0  0  0  0
    0.3882    9.4897    2.9101 C   0  0  0  0  0  0  0  0  0  0  0  0
   -0.8586    9.2508    2.3250 C   0  0  0  0  0  0  0  0  0  0  0  0
   -1.1464    7.9987    1.7605 C   0  0  0  0  0  0  0  0  0  0  0  0
   -2.4829    7.7353    1.1177 C   0  0  0  0  0  0  0  0  0  0  0  0
   -2.4188    7.9848   -0.3868 C   0  0  0  0  0  0  0  0  0  0  0  0
   -0.1603    7.0009    1.7640 C   0  0  0  0  0  0  0  0  0  0  0  0
    2.7102    5.6337    3.4989 C   0  0  0  0  0  0  0  0  0  0  0  0
    3.6289    4.2501    3.1051 S   0  0  0  0  0  0  0  0  0  0  0  0
    3.2780    4.3414    1.4692 C   0  0  0  0  0  0  0  0  0  0  0  0
    3.4399    3.5393    0.3494 C   0  0  0  0  0  0  0  0  0  0  0  0
    4.0184    2.3360    0.1073 N   0  0  0  0  0  0  0  0  0  0  0  0
    3.6837    2.0885   -1.2039 C   0  0  0  0  0  0  0  0  0  0  0  0
    3.8761    0.9282   -2.0086 C   0  0  0  0  0  0  0  0  0  0  0  0
    3.9507   -0.3881   -1.6230 N   0  0  0  0  0  0  0  0  0  0  0  0
    3.7658   -1.0954   -2.7742 C   0  0  0  0  0  0  0  0  0  0  0  0
    3.1731   -2.3509   -2.9752 C   0  0  0  0  0  0  0  0  0  0  0  0
    2.6480   -3.5683   -1.9452 S   0  0  0  0  0  0  0  0  0  0  0  0
    3.7431   -0.9371   -0.2782 C   0  0  0  0  0  0  0  0  0  0  0  0
    4.9310   -1.7996    0.1485 C   0  0  0  0  0  0  0  0  0  0  0  0
    5.2026    1.8360    0.8202 C   0  0  0  0  0  0  0  0  0  0  0  0
    4.8591    1.2884    2.2095 C   0  0  0  0  0  0  0  0  0  0  0  0
    2.4685    6.0992    4.8724 C   0  0  0  0  0  0  0  0  0  0  0  0
    1.7359    5.4240    5.7690 C   0  0  0  0  0  0  0  0  0  0  0  0
    1.5022    6.0555    7.4333 S   0  0  0  0  0  0  0  0  0  0  0  0
    0.5000    4.6047    7.7886 C   0  0  0  0  0  0  0  0  0  0  0  0
   -0.3319    4.4806    9.1932 S   0  0  0  0  0  0  0  0  0  0  0  0
    0.3441    3.6823    6.7060 N   0  0  0  0  0  0  0  0  0  0  0  0
   -0.5197    2.4986    6.7118 C   0  0  0  0  0  0  0  0  0  0  0  0
   -1.9450    2.8770    6.3252 C   0  0  0  0  0  0  0  0  0  0  0  0
    1.0154    4.1640    5.5503 C   0  0  0  0  0  0  0  0  0  0  0  0
    0.9567    3.5627    4.4421 O   0  0  0  0  0  0  0  0  0  0  0  0
    0.4015   -6.0204   -3.3792 H   0  0  0  0  0  0  0  0  0  0  0  0
   -1.7592   -2.1285    1.1032 H   0  0  0  0  0  0  0  0  0  0  0  0
   -3.5895   -6.8740    0.7568 H   0  0  0  0  0  0  0  0  0  0  0  0
   -5.7311   -4.7276    2.4825 H   0  0  0  0  0  0  0  0  0  0  0  0
   -4.9335   -6.2060    4.4477 H   0  0  0  0  0  0  0  0  0  0  0  0
   -2.2789   -6.3302    4.4991 H   0  0  0  0  0  0  0  0  0  0  0  0
   -1.3516   -3.9033    4.6806 H   0  0  0  0  0  0  0  0  0  0  0  0
   -3.4162   -2.2258    4.7493 H   0  0  0  0  0  0  0  0  0  0  0  0
   -4.3623   -4.2645    6.1432 H   0  0  0  0  0  0  0  0  0  0  0  0
   -5.6430   -3.6821    4.9848 H   0  0  0  0  0  0  0  0  0  0  0  0
   -4.8930   -2.5272    2.6534 H   0  0  0  0  0  0  0  0  0  0  0  0
   -1.1890   -3.5135   -4.0715 H   0  0  0  0  0  0  0  0  0  0  0  0
   -2.7916   -3.6757   -5.9322 H   0  0  0  0  0  0  0  0  0  0  0  0
   -1.9941   -3.8070   -8.2633 H   0  0  0  0  0  0  0  0  0  0  0  0
   -0.1618   -4.2881   -9.8080 H   0  0  0  0  0  0  0  0  0  0  0  0
    1.5193   -4.4292   -9.2096 H   0  0  0  0  0  0  0  0  0  0  0  0
    1.2406   -2.4699  -10.7273 H   0  0  0  0  0  0  0  0  0  0  0  0
    1.7017   -1.9363   -9.0678 H   0  0  0  0  0  0  0  0  0  0  0  0
   -0.0138   -1.7783   -9.6276 H   0  0  0  0  0  0  0  0  0  0  0  0
    2.0846   -3.6514   -6.8722 H   0  0  0  0  0  0  0  0  0  0  0  0
    2.3319    8.6964    3.3578 H   0  0  0  0  0  0  0  0  0  0  0  0
    0.6010   10.4564    3.3494 H   0  0  0  0  0  0  0  0  0  0  0  0
   -1.6016   10.0387    2.3174 H   0  0  0  0  0  0  0  0  0  0  0  0
   -2.7887    6.6818    1.3035 H   0  0  0  0  0  0  0  0  0  0  0  0
   -3.2618    8.3900    1.5643 H   0  0  0  0  0  0  0  0  0  0  0  0
   -1.6649    7.3213   -0.8593 H   0  0  0  0  0  0  0  0  0  0  0  0
   -2.1511    9.0440   -0.5891 H   0  0  0  0  0  0  0  0  0  0  0  0
   -3.4112    7.7710   -0.8376 H   0  0  0  0  0  0  0  0  0  0  0  0
   -0.3813    6.0320    1.3321 H   0  0  0  0  0  0  0  0  0  0  0  0
    3.5613   -0.1440    0.4547 H   0  0  0  0  0  0  0  0  0  0  0  0
    2.8096   -1.5293   -0.2406 H   0  0  0  0  0  0  0  0  0  0  0  0
    5.0212   -2.6878   -0.5089 H   0  0  0  0  0  0  0  0  0  0  0  0
    4.7864   -2.1436    1.1945 H   0  0  0  0  0  0  0  0  0  0  0  0
    5.8763   -1.2268    0.0835 H   0  0  0  0  0  0  0  0  0  0  0  0
    5.7078    1.0548    0.2184 H   0  0  0  0  0  0  0  0  0  0  0  0
    5.9411    2.6598    0.9249 H   0  0  0  0  0  0  0  0  0  0  0  0
    3.7610    1.2465    2.3758 H   0  0  0  0  0  0  0  0  0  0  0  0
    5.3117    1.9250    2.9995 H   0  0  0  0  0  0  0  0  0  0  0  0
    5.2750    0.2643    2.3319 H   0  0  0  0  0  0  0  0  0  0  0  0
    2.8800    7.0603    5.1536 H   0  0  0  0  0  0  0  0  0  0  0  0
   -0.1318    1.7449    5.9939 H   0  0  0  0  0  0  0  0  0  0  0  0
   -0.5161    2.0273    7.7164 H   0  0  0  0  0  0  0  0  0  0  0  0
   -2.5672    1.9639    6.2503 H   0  0  0  0  0  0  0  0  0  0  0  0
   -2.3861    3.5449    7.0932 H   0  0  0  0  0  0  0  0  0  0  0  0
   -1.9536    3.3943    5.3441 H   0  0  0  0  0  0  0  0  0  0  0  0
  1  2  2  3
  2  3  1  0
  3  4  2  0
  3  5  1  0
  5  6  2  0
  6  7  1  0
  7  8  2  0
  8  9  1  0
  9 10  2  0
 10 11  1  0
 11 12  2  3
 12 13  1  0
 13 14  3  0
 12 15  1  0
 15 16  3  0
  8 17  1  0
 17 18  1  0
 18 19  1  0
 19 20  2  0
 20 21  1  0
 21 22  1  0
 21 23  1  0
  1 24  1  0
 24 25  2  0
 25 26  1  0
 26 27  2  0
 27 28  1  0
 28 29  2  0
 29 30  1  0
 30 31  1  0
 31 32  1  0
 30 33  2  0
 25 34  1  0
 34 35  1  0
 35 36  1  0
 36 37  1  0
 37 38  1  0
 38 39  1  0
 39 40  2  0
 40 41  1  0
 41 42  1  0
 39 43  1  0
 43 44  1  0
 44 45  1  0
 45 46  1  0
 46 47  1  0
 47 48  1  0
 48 49  2  0
 49 50  1  0
 50 51  2  0
 51 52  1  0
 52 53  1  0
 53 54  1  0
 52 55  2  0
 47 56  2  0
 56 57  1  0
 57 58  1  0
 58 59  1  0
 59 60  1  0
 60 61  1  0
 61 62  1  0
 62 63  1  0
 63 64  1  0
 64 65  1  0
 65 66  1  0
 63 67  1  0
 67 68  1  0
 60 69  1  0
 69 70  1  0
 56 71  1  0
 71 72  2  3
 72 73  1  0
 73 74  1  0
 74 75  2  0
 74 76  1  0
 76 77  1  0
 77 78  1  0
 76 79  1  0
 79 80  2  0
 11  2  1  0
 23 17  1  0
 66 24  1  0
 79 72  1  0
 10  5  1  0
 22 18  1  0
 33 26  1  0
 65 34  2  0
 23  7  1  0
 64 36  2  0
 62 37  2  0
 42 38  2  0
 61 43  2  0
 59 44  2  0
 58 46  2  0
 55 48  1  0
  1 81  1  0
  6 82  1  0
  9 83  1  0
 17 84  1  0
 18 85  1  0
 19 86  1  0
 20 87  1  0
 21 88  1  0
 22 89  1  0
 22 90  1  0
 23 91  1  0
 27 92  1  0
 28 93  1  0
 29 94  1  0
 31 95  1  0
 31 96  1  0
 32 97  1  0
 32 98  1  0
 32 99  1  0
 33100  1  0
 49101  1  0
 50102  1  0
 51103  1  0
 53104  1  0
 53105  1  0
 54106  1  0
 54107  1  0
 54108  1  0
 55109  1  0
 67110  1  0
 67111  1  0
 68112  1  0
 68113  1  0
 68114  1  0
 69115  1  0
 69116  1  0
 70117  1  0
 70118  1  0
 70119  1  0
 71120  1  0
 77121  1  0
 77122  1  0
 78123  1  0
 78124  1  0
 78125  1  0
M  END

