
     RDKit          3D

130146  0  0  0  0  0  0  0  0999 V2000
   -5.5321    2.7482    3.9657 C   0  0  0  0  0  0  0  0  0  0  0  0
   -6.2899    1.6375    3.9605 C   0  0  0  0  0  0  0  0  0  0  0  0
   -6.6353    0.8873    2.7493 C   0  0  0  0  0  0  0  0  0  0  0  0
   -6.1925    1.0983    1.5883 O   0  0  0  0  0  0  0  0  0  0  0  0
   -7.6412   -0.0929    3.0792 C   0  0  0  0  0  0  0  0  0  0  0  0
   -8.2649   -0.9948    2.1862 C   0  0  0  0  0  0  0  0  0  0  0  0
   -9.1615   -1.8505    2.7937 C   0  0  0  0  0  0  0  0  0  0  0  0
   -9.4294   -1.8345    4.2013 C   0  0  0  0  0  0  0  0  0  0  0  0
   -8.8388   -0.9372    5.0783 C   0  0  0  0  0  0  0  0  0  0  0  0
   -7.9184   -0.0314    4.4739 C   0  0  0  0  0  0  0  0  0  0  0  0
   -7.0804    1.0461    5.0898 C   0  0  0  0  0  0  0  0  0  0  0  0
   -6.9050    1.2956    6.4176 C   0  0  0  0  0  0  0  0  0  0  0  0
   -5.8485    2.1452    6.9072 C   0  0  0  0  0  0  0  0  0  0  0  0
   -4.9950    2.8169    7.3077 N   0  0  0  0  0  0  0  0  0  0  0  0
   -7.6816    0.6567    7.4459 C   0  0  0  0  0  0  0  0  0  0  0  0
   -8.2899    0.1489    8.2922 N   0  0  0  0  0  0  0  0  0  0  0  0
  -10.3701   -2.9953    4.0514 C   0  0  0  0  0  0  0  0  0  0  0  0
   -9.8790   -4.4043    4.5079 C   0  0  0  0  0  0  0  0  0  0  0  0
   -8.3808   -4.5140    4.3397 C   0  0  0  0  0  0  0  0  0  0  0  0
   -8.1438   -4.5162    3.0264 C   0  0  0  0  0  0  0  0  0  0  0  0
   -9.4875   -4.4057    2.3446 C   0  0  0  0  0  0  0  0  0  0  0  0
  -10.3144   -5.2327    3.3120 C   0  0  0  0  0  0  0  0  0  0  0  0
  -10.1053   -2.9980    2.6072 C   0  0  0  0  0  0  0  0  0  0  0  0
   -4.5055    2.9861    2.9417 C   0  0  0  0  0  0  0  0  0  0  0  0
   -4.3474    4.1439    2.1631 C   0  0  0  0  0  0  0  0  0  0  0  0
   -5.2400    5.3089    2.2107 C   0  0  0  0  0  0  0  0  0  0  0  0
   -6.3154    5.4113    1.3177 C   0  0  0  0  0  0  0  0  0  0  0  0
   -7.1748    6.5114    1.3799 C   0  0  0  0  0  0  0  0  0  0  0  0
   -6.9634    7.5139    2.3306 C   0  0  0  0  0  0  0  0  0  0  0  0
   -5.8943    7.4167    3.2370 C   0  0  0  0  0  0  0  0  0  0  0  0
   -5.6524    8.5050    4.2492 C   0  0  0  0  0  0  0  0  0  0  0  0
   -4.5985    9.4873    3.7499 C   0  0  0  0  0  0  0  0  0  0  0  0
   -5.0306    6.3113    3.1681 C   0  0  0  0  0  0  0  0  0  0  0  0
   -3.2505    4.0195    1.3080 C   0  0  0  0  0  0  0  0  0  0  0  0
   -2.5996    4.9864    0.0564 S   0  0  0  0  0  0  0  0  0  0  0  0
   -1.3752    3.8371   -0.2257 C   0  0  0  0  0  0  0  0  0  0  0  0
   -0.4377    3.5347   -1.1737 C   0  0  0  0  0  0  0  0  0  0  0  0
   -0.1075    4.1486   -2.3896 C   0  0  0  0  0  0  0  0  0  0  0  0
    0.7917    3.4755   -3.2748 C   0  0  0  0  0  0  0  0  0  0  0  0
    1.0863    4.0980   -4.4424 N   0  0  0  0  0  0  0  0  0  0  0  0
    0.1562    5.4584   -4.2731 S   0  0  0  0  0  0  0  0  0  0  0  0
   -0.6078    5.3379   -2.8054 N   0  0  0  0  0  0  0  0  0  0  0  0
    1.3268    2.2408   -2.8841 C   0  0  0  0  0  0  0  0  0  0  0  0
    2.3341    1.4776   -3.4102 C   0  0  0  0  0  0  0  0  0  0  0  0
    3.5268    1.6349   -4.6106 S   0  0  0  0  0  0  0  0  0  0  0  0
    4.4579    0.3924   -3.8954 C   0  0  0  0  0  0  0  0  0  0  0  0
    5.7335   -0.1218   -4.1442 C   0  0  0  0  0  0  0  0  0  0  0  0
    6.5766    0.2756   -5.2890 C   0  0  0  0  0  0  0  0  0  0  0  0
    6.0829    0.1676   -6.5988 C   0  0  0  0  0  0  0  0  0  0  0  0
    6.8925    0.5096   -7.6849 C   0  0  0  0  0  0  0  0  0  0  0  0
    8.1964    0.9681   -7.4722 C   0  0  0  0  0  0  0  0  0  0  0  0
    8.6938    1.1056   -6.1673 C   0  0  0  0  0  0  0  0  0  0  0  0
   10.1143    1.5480   -5.9386 C   0  0  0  0  0  0  0  0  0  0  0  0
   11.0530    0.3468   -5.9082 C   0  0  0  0  0  0  0  0  0  0  0  0
    7.8784    0.7580   -5.0791 C   0  0  0  0  0  0  0  0  0  0  0  0
    6.0940   -1.0584   -3.1546 C   0  0  0  0  0  0  0  0  0  0  0  0
    4.8665   -1.1664   -1.9726 S   0  0  0  0  0  0  0  0  0  0  0  0
    3.8660   -0.0710   -2.7487 C   0  0  0  0  0  0  0  0  0  0  0  0
    2.6557    0.5463   -2.4743 C   0  0  0  0  0  0  0  0  0  0  0  0
    1.9258    0.6677   -1.3385 N   0  0  0  0  0  0  0  0  0  0  0  0
    1.0321    1.6618   -1.6401 C   0  0  0  0  0  0  0  0  0  0  0  0
    0.0597    2.2714   -0.8135 C   0  0  0  0  0  0  0  0  0  0  0  0
   -0.6334    1.7486    0.2480 N   0  0  0  0  0  0  0  0  0  0  0  0
   -1.4743    2.7549    0.5871 C   0  0  0  0  0  0  0  0  0  0  0  0
   -2.5592    2.8431    1.4393 C   0  0  0  0  0  0  0  0  0  0  0  0
   -3.2748    1.8613    2.5864 S   0  0  0  0  0  0  0  0  0  0  0  0
   -0.8859    0.3275    0.5405 C   0  0  0  0  0  0  0  0  0  0  0  0
   -0.5932   -0.0131    2.0093 C   0  0  0  0  0  0  0  0  0  0  0  0
    2.4465    0.3460    0.0003 C   0  0  0  0  0  0  0  0  0  0  0  0
    3.5742    1.3021    0.3916 C   0  0  0  0  0  0  0  0  0  0  0  0
    7.3697   -1.7867   -3.0670 C   0  0  0  0  0  0  0  0  0  0  0  0
    7.4509   -3.1290   -3.0172 C   0  0  0  0  0  0  0  0  0  0  0  0
    6.3788   -4.0609   -3.3947 C   0  0  0  0  0  0  0  0  0  0  0  0
    5.1681   -3.7788   -3.5888 O   0  0  0  0  0  0  0  0  0  0  0  0
    6.9607   -5.3713   -3.5699 C   0  0  0  0  0  0  0  0  0  0  0  0
    6.3302   -6.5414   -3.9983 C   0  0  0  0  0  0  0  0  0  0  0  0
    7.1028   -7.7035   -4.1360 C   0  0  0  0  0  0  0  0  0  0  0  0
    6.5234   -8.8559   -4.5483 F   0  0  0  0  0  0  0  0  0  0  0  0
    8.4832   -7.6663   -3.8773 C   0  0  0  0  0  0  0  0  0  0  0  0
    9.1009   -6.4801   -3.4547 C   0  0  0  0  0  0  0  0  0  0  0  0
    8.3155   -5.3248   -3.2867 C   0  0  0  0  0  0  0  0  0  0  0  0
    8.6882   -3.9531   -2.8374 C   0  0  0  0  0  0  0  0  0  0  0  0
    9.8143   -3.5917   -2.1651 C   0  0  0  0  0  0  0  0  0  0  0  0
   10.8757   -4.5190   -1.8740 C   0  0  0  0  0  0  0  0  0  0  0  0
   11.7341   -5.2555   -1.6299 N   0  0  0  0  0  0  0  0  0  0  0  0
    9.9588   -2.2990   -1.5476 C   0  0  0  0  0  0  0  0  0  0  0  0
   10.0794   -1.2659   -1.0359 N   0  0  0  0  0  0  0  0  0  0  0  0
   -5.5790    3.4573    4.7760 H   0  0  0  0  0  0  0  0  0  0  0  0
   -8.0504   -1.0261    1.1254 H   0  0  0  0  0  0  0  0  0  0  0  0
   -9.0775   -0.9722    6.1260 H   0  0  0  0  0  0  0  0  0  0  0  0
  -11.4261   -2.7596    4.3117 H   0  0  0  0  0  0  0  0  0  0  0  0
  -10.2673   -4.7433    5.4919 H   0  0  0  0  0  0  0  0  0  0  0  0
   -7.6356   -4.6518    5.1172 H   0  0  0  0  0  0  0  0  0  0  0  0
   -7.1779   -4.6554    2.5568 H   0  0  0  0  0  0  0  0  0  0  0  0
   -9.5101   -4.7407    1.2857 H   0  0  0  0  0  0  0  0  0  0  0  0
  -11.4110   -5.1879    3.1124 H   0  0  0  0  0  0  0  0  0  0  0  0
   -9.9910   -6.3003    3.3682 H   0  0  0  0  0  0  0  0  0  0  0  0
  -10.9956   -2.7514    1.9863 H   0  0  0  0  0  0  0  0  0  0  0  0
   -6.4917    4.6370    0.5813 H   0  0  0  0  0  0  0  0  0  0  0  0
   -8.0066    6.5887    0.6894 H   0  0  0  0  0  0  0  0  0  0  0  0
   -7.6330    8.3641    2.3636 H   0  0  0  0  0  0  0  0  0  0  0  0
   -6.5961    9.0568    4.4573 H   0  0  0  0  0  0  0  0  0  0  0  0
   -5.3129    8.0566    5.2088 H   0  0  0  0  0  0  0  0  0  0  0  0
   -4.9345    9.9650    2.8048 H   0  0  0  0  0  0  0  0  0  0  0  0
   -3.6341    8.9639    3.5738 H   0  0  0  0  0  0  0  0  0  0  0  0
   -4.4399   10.2792    4.5111 H   0  0  0  0  0  0  0  0  0  0  0  0
   -4.1961    6.2303    3.8560 H   0  0  0  0  0  0  0  0  0  0  0  0
    5.0804   -0.2018   -6.7780 H   0  0  0  0  0  0  0  0  0  0  0  0
    6.5134    0.4063   -8.6936 H   0  0  0  0  0  0  0  0  0  0  0  0
    8.8156    1.2146   -8.3234 H   0  0  0  0  0  0  0  0  0  0  0  0
   10.4343    2.2449   -6.7433 H   0  0  0  0  0  0  0  0  0  0  0  0
   10.1941    2.0975   -4.9755 H   0  0  0  0  0  0  0  0  0  0  0  0
   11.0190   -0.1945   -6.8792 H   0  0  0  0  0  0  0  0  0  0  0  0
   10.7649   -0.3501   -5.0908 H   0  0  0  0  0  0  0  0  0  0  0  0
   12.0934    0.6894   -5.7306 H   0  0  0  0  0  0  0  0  0  0  0  0
    8.2558    0.8735   -4.0698 H   0  0  0  0  0  0  0  0  0  0  0  0
   -0.2917   -0.3291   -0.1275 H   0  0  0  0  0  0  0  0  0  0  0  0
   -1.9530    0.0985    0.3167 H   0  0  0  0  0  0  0  0  0  0  0  0
   -1.4818   -0.4846    2.4783 H   0  0  0  0  0  0  0  0  0  0  0  0
    0.2419   -0.7401    2.0830 H   0  0  0  0  0  0  0  0  0  0  0  0
   -0.3269    0.8941    2.5915 H   0  0  0  0  0  0  0  0  0  0  0  0
    1.6745    0.4695    0.7632 H   0  0  0  0  0  0  0  0  0  0  0  0
    2.7989   -0.7045    0.0302 H   0  0  0  0  0  0  0  0  0  0  0  0
    3.9312    1.0568    1.4138 H   0  0  0  0  0  0  0  0  0  0  0  0
    4.4302    1.2220   -0.3094 H   0  0  0  0  0  0  0  0  0  0  0  0
    3.2030    2.3494    0.3848 H   0  0  0  0  0  0  0  0  0  0  0  0
    8.2689   -1.1955   -3.0572 H   0  0  0  0  0  0  0  0  0  0  0  0
    5.2698   -6.5565   -4.2163 H   0  0  0  0  0  0  0  0  0  0  0  0
    9.0753   -8.5655   -4.0016 H   0  0  0  0  0  0  0  0  0  0  0  0
   10.1677   -6.4790   -3.3092 H   0  0  0  0  0  0  0  0  0  0  0  0
  1  2  2  3
  2  3  1  0
  3  4  2  0
  3  5  1  0
  5  6  2  0
  6  7  1  0
  7  8  2  0
  8  9  1  0
  9 10  2  0
 10 11  1  0
 11 12  2  3
 12 13  1  0
 13 14  3  0
 12 15  1  0
 15 16  3  0
  8 17  1  0
 17 18  1  0
 18 19  1  0
 19 20  2  0
 20 21  1  0
 21 22  1  0
 21 23  1  0
  1 24  1  0
 24 25  2  0
 25 26  1  0
 26 27  2  0
 27 28  1  0
 28 29  2  0
 29 30  1  0
 30 31  1  0
 31 32  1  0
 30 33  2  0
 25 34  1  0
 34 35  1  0
 35 36  1  0
 36 37  1  0
 37 38  1  0
 38 39  1  0
 39 40  2  0
 40 41  1  0
 41 42  1  0
 39 43  1  0
 43 44  1  0
 44 45  1  0
 45 46  1  0
 46 47  1  0
 47 48  1  0
 48 49  2  0
 49 50  1  0
 50 51  2  0
 51 52  1  0
 52 53  1  0
 53 54  1  0
 52 55  2  0
 47 56  2  0
 56 57  1  0
 57 58  1  0
 58 59  1  0
 59 60  1  0
 60 61  1  0
 61 62  1  0
 62 63  1  0
 63 64  1  0
 64 65  1  0
 65 66  1  0
 63 67  1  0
 67 68  1  0
 60 69  1  0
 69 70  1  0
 56 71  1  0
 71 72  2  3
 72 73  1  0
 73 74  2  0
 73 75  1  0
 75 76  2  0
 76 77  1  0
 77 78  1  0
 77 79  2  0
 79 80  1  0
 80 81  2  0
 81 82  1  0
 82 83  2  3
 83 84  1  0
 84 85  3  0
 83 86  1  0
 86 87  3  0
 11  2  1  0
 23 17  1  0
 66 24  1  0
 82 72  1  0
 10  5  1  0
 22 18  1  0
 33 26  1  0
 65 34  2  0
 81 75  1  0
 23  7  1  0
 64 36  2  0
 62 37  2  0
 42 38  2  0
 61 43  2  0
 59 44  2  0
 58 46  2  0
 55 48  1  0
  1 88  1  0
  6 89  1  0
  9 90  1  0
 17 91  1  0
 18 92  1  0
 19 93  1  0
 20 94  1  0
 21 95  1  0
 22 96  1  0
 22 97  1  0
 23 98  1  0
 27 99  1  0
 28100  1  0
 29101  1  0
 31102  1  0
 31103  1  0
 32104  1  0
 32105  1  0
 32106  1  0
 33107  1  0
 49108  1  0
 50109  1  0
 51110  1  0
 53111  1  0
 53112  1  0
 54113  1  0
 54114  1  0
 54115  1  0
 55116  1  0
 67117  1  0
 67118  1  0
 68119  1  0
 68120  1  0
 68121  1  0
 69122  1  0
 69123  1  0
 70124  1  0
 70125  1  0
 70126  1  0
 71127  1  0
 76128  1  0
 79129  1  0
 80130  1  0
M  END

