
     RDKit          3D

130146  0  0  0  0  0  0  0  0999 V2000
   -3.6300    4.3388   -5.2226 C   0  0  0  0  0  0  0  0  0  0  0  0
   -4.0350    3.3625   -6.0716 C   0  0  0  0  0  0  0  0  0  0  0  0
   -3.1713    2.3036   -6.6020 C   0  0  0  0  0  0  0  0  0  0  0  0
   -1.9158    2.3930   -6.7884 O   0  0  0  0  0  0  0  0  0  0  0  0
   -3.9631    1.1361   -6.9008 C   0  0  0  0  0  0  0  0  0  0  0  0
   -3.4740   -0.1885   -6.9270 C   0  0  0  0  0  0  0  0  0  0  0  0
   -4.4416   -1.1293   -6.6219 C   0  0  0  0  0  0  0  0  0  0  0  0
   -5.8131   -0.8021   -6.3697 C   0  0  0  0  0  0  0  0  0  0  0  0
   -6.3196    0.4767   -6.4234 C   0  0  0  0  0  0  0  0  0  0  0  0
   -5.3347    1.4651   -6.6901 C   0  0  0  0  0  0  0  0  0  0  0  0
   -5.4421    2.8928   -6.3165 C   0  0  0  0  0  0  0  0  0  0  0  0
   -6.5779    3.5628   -6.0757 C   0  0  0  0  0  0  0  0  0  0  0  0
   -6.8052    4.1192   -4.7672 C   0  0  0  0  0  0  0  0  0  0  0  0
   -6.9762    4.5098   -3.6902 N   0  0  0  0  0  0  0  0  0  0  0  0
   -7.7117    3.3691   -6.9528 C   0  0  0  0  0  0  0  0  0  0  0  0
   -8.5158    3.3090   -7.7810 N   0  0  0  0  0  0  0  0  0  0  0  0
   -6.0773   -2.1954   -5.8804 C   0  0  0  0  0  0  0  0  0  0  0  0
   -6.1340   -2.3807   -4.3250 C   0  0  0  0  0  0  0  0  0  0  0  0
   -6.0105   -3.8669   -4.0744 C   0  0  0  0  0  0  0  0  0  0  0  0
   -4.7537   -4.2091   -4.3981 C   0  0  0  0  0  0  0  0  0  0  0  0
   -4.0665   -2.9317   -4.8328 C   0  0  0  0  0  0  0  0  0  0  0  0
   -4.7433   -1.9553   -3.8796 C   0  0  0  0  0  0  0  0  0  0  0  0
   -4.6858   -2.5430   -6.2058 C   0  0  0  0  0  0  0  0  0  0  0  0
   -2.4347    4.0921   -4.3589 C   0  0  0  0  0  0  0  0  0  0  0  0
   -1.4134    5.0032   -3.9630 C   0  0  0  0  0  0  0  0  0  0  0  0
   -1.4292    6.4621   -4.1995 C   0  0  0  0  0  0  0  0  0  0  0  0
   -2.5822    7.2176   -3.9143 C   0  0  0  0  0  0  0  0  0  0  0  0
   -2.5479    8.6143   -4.0289 C   0  0  0  0  0  0  0  0  0  0  0  0
   -1.3760    9.2548   -4.4376 C   0  0  0  0  0  0  0  0  0  0  0  0
   -0.2372    8.5105   -4.7675 C   0  0  0  0  0  0  0  0  0  0  0  0
    1.0441    9.1985   -5.1390 C   0  0  0  0  0  0  0  0  0  0  0  0
    1.8803    9.4698   -3.8899 C   0  0  0  0  0  0  0  0  0  0  0  0
   -0.2637    7.1112   -4.6316 C   0  0  0  0  0  0  0  0  0  0  0  0
   -0.4234    4.3458   -3.2103 C   0  0  0  0  0  0  0  0  0  0  0  0
    0.9446    4.8346   -2.2773 S   0  0  0  0  0  0  0  0  0  0  0  0
    1.1342    3.2398   -1.6713 C   0  0  0  0  0  0  0  0  0  0  0  0
    1.9401    2.4627   -0.8574 C   0  0  0  0  0  0  0  0  0  0  0  0
    3.1174    2.7229   -0.1248 C   0  0  0  0  0  0  0  0  0  0  0  0
    3.7022    1.6539    0.6512 C   0  0  0  0  0  0  0  0  0  0  0  0
    4.8102    1.9511    1.3733 N   0  0  0  0  0  0  0  0  0  0  0  0
    4.9732    3.5486    0.9537 S   0  0  0  0  0  0  0  0  0  0  0  0
    3.7327    3.9309   -0.0810 N   0  0  0  0  0  0  0  0  0  0  0  0
    3.0576    0.4021    0.6767 C   0  0  0  0  0  0  0  0  0  0  0  0
    3.2313   -0.7135    1.4657 C   0  0  0  0  0  0  0  0  0  0  0  0
    4.1750   -1.2060    2.7970 S   0  0  0  0  0  0  0  0  0  0  0  0
    3.0976   -2.5097    3.0992 C   0  0  0  0  0  0  0  0  0  0  0  0
    3.0441   -3.5167    4.0644 C   0  0  0  0  0  0  0  0  0  0  0  0
    4.2083   -3.9212    4.8730 C   0  0  0  0  0  0  0  0  0  0  0  0
    4.7033   -3.0914    5.8868 C   0  0  0  0  0  0  0  0  0  0  0  0
    5.8641   -3.4581    6.5851 C   0  0  0  0  0  0  0  0  0  0  0  0
    6.5361   -4.6407    6.2499 C   0  0  0  0  0  0  0  0  0  0  0  0
    6.0336   -5.4872    5.2471 C   0  0  0  0  0  0  0  0  0  0  0  0
    6.7944   -6.7135    4.8145 C   0  0  0  0  0  0  0  0  0  0  0  0
    7.6579   -6.4172    3.5950 C   0  0  0  0  0  0  0  0  0  0  0  0
    4.8605   -5.1238    4.5607 C   0  0  0  0  0  0  0  0  0  0  0  0
    1.8761   -4.2935    3.9122 C   0  0  0  0  0  0  0  0  0  0  0  0
    0.9889   -3.7604    2.5620 S   0  0  0  0  0  0  0  0  0  0  0  0
    2.0519   -2.5155    2.2128 C   0  0  0  0  0  0  0  0  0  0  0  0
    2.1411   -1.5103    1.2794 C   0  0  0  0  0  0  0  0  0  0  0  0
    1.2511   -0.9846    0.3941 N   0  0  0  0  0  0  0  0  0  0  0  0
    1.8604    0.1684   -0.0169 C   0  0  0  0  0  0  0  0  0  0  0  0
    1.3588    1.1823   -0.8756 C   0  0  0  0  0  0  0  0  0  0  0  0
    0.3336    1.1224   -1.7615 N   0  0  0  0  0  0  0  0  0  0  0  0
    0.1847    2.4066   -2.1592 C   0  0  0  0  0  0  0  0  0  0  0  0
   -0.6723    3.0155   -3.0254 C   0  0  0  0  0  0  0  0  0  0  0  0
   -2.1143    2.5382   -3.6864 S   0  0  0  0  0  0  0  0  0  0  0  0
   -0.0451   -0.0495   -2.5792 C   0  0  0  0  0  0  0  0  0  0  0  0
    0.5490    0.0371   -3.9946 C   0  0  0  0  0  0  0  0  0  0  0  0
   -0.1847   -1.3177    0.3983 C   0  0  0  0  0  0  0  0  0  0  0  0
   -0.4639   -2.6298   -0.3479 C   0  0  0  0  0  0  0  0  0  0  0  0
    1.4187   -5.4047    4.7637 C   0  0  0  0  0  0  0  0  0  0  0  0
    1.3511   -5.3730    6.1120 C   0  0  0  0  0  0  0  0  0  0  0  0
    0.9150   -6.5202    6.9120 C   0  0  0  0  0  0  0  0  0  0  0  0
    0.3893   -7.5767    6.4598 O   0  0  0  0  0  0  0  0  0  0  0  0
    1.2355   -6.2558    8.3010 C   0  0  0  0  0  0  0  0  0  0  0  0
    1.0114   -7.0649    9.4256 C   0  0  0  0  0  0  0  0  0  0  0  0
    0.1334   -8.5845    9.2799 Cl  0  0  0  0  0  0  0  0  0  0  0  0
    1.4861   -6.6143   10.6745 C   0  0  0  0  0  0  0  0  0  0  0  0
    1.1675   -7.5587   12.1322 Cl  0  0  0  0  0  0  0  0  0  0  0  0
    2.2534   -5.4285   10.7614 C   0  0  0  0  0  0  0  0  0  0  0  0
    2.9303   -4.9191   12.3146 Cl  0  0  0  0  0  0  0  0  0  0  0  0
    2.4837   -4.6365    9.6065 C   0  0  0  0  0  0  0  0  0  0  0  0
    3.7328   -3.4011    9.6589 Cl  0  0  0  0  0  0  0  0  0  0  0  0
    1.8642   -5.0230    8.3954 C   0  0  0  0  0  0  0  0  0  0  0  0
    1.7307   -4.3075    7.0855 C   0  0  0  0  0  0  0  0  0  0  0  0
    1.3650   -3.0055    6.9702 C   0  0  0  0  0  0  0  0  0  0  0  0
    0.5108   -2.5488    5.9108 C   0  0  0  0  0  0  0  0  0  0  0  0
   -0.1860   -2.1695    5.0686 N   0  0  0  0  0  0  0  0  0  0  0  0
    1.5612   -2.0330    8.0074 C   0  0  0  0  0  0  0  0  0  0  0  0
    1.7332   -1.2271    8.8304 N   0  0  0  0  0  0  0  0  0  0  0  0
   -4.3221    5.1099   -4.9098 H   0  0  0  0  0  0  0  0  0  0  0  0
   -2.4131   -0.4297   -6.9353 H   0  0  0  0  0  0  0  0  0  0  0  0
   -7.3187    0.7077   -6.0744 H   0  0  0  0  0  0  0  0  0  0  0  0
   -6.8496   -2.7506   -6.4583 H   0  0  0  0  0  0  0  0  0  0  0  0
   -6.9822   -1.8776   -3.8152 H   0  0  0  0  0  0  0  0  0  0  0  0
   -6.7461   -4.5281   -3.6177 H   0  0  0  0  0  0  0  0  0  0  0  0
   -4.3118   -5.1958   -4.2756 H   0  0  0  0  0  0  0  0  0  0  0  0
   -2.9548   -2.9520   -4.7908 H   0  0  0  0  0  0  0  0  0  0  0  0
   -4.5219   -0.8847   -4.1003 H   0  0  0  0  0  0  0  0  0  0  0  0
   -4.5290   -2.1712   -2.8015 H   0  0  0  0  0  0  0  0  0  0  0  0
   -4.5579   -3.2805   -7.0296 H   0  0  0  0  0  0  0  0  0  0  0  0
   -3.4872    6.7409   -3.5393 H   0  0  0  0  0  0  0  0  0  0  0  0
   -3.4268    9.1891   -3.7697 H   0  0  0  0  0  0  0  0  0  0  0  0
   -1.3566   10.3393   -4.4930 H   0  0  0  0  0  0  0  0  0  0  0  0
    0.8349   10.1491   -5.6700 H   0  0  0  0  0  0  0  0  0  0  0  0
    1.6247    8.5546   -5.8330 H   0  0  0  0  0  0  0  0  0  0  0  0
    1.4136   10.2652   -3.2730 H   0  0  0  0  0  0  0  0  0  0  0  0
    1.9877    8.5492   -3.2800 H   0  0  0  0  0  0  0  0  0  0  0  0
    2.8872    9.8185   -4.1956 H   0  0  0  0  0  0  0  0  0  0  0  0
    0.6275    6.5307   -4.8402 H   0  0  0  0  0  0  0  0  0  0  0  0
    4.2043   -2.1664    6.1291 H   0  0  0  0  0  0  0  0  0  0  0  0
    6.2491   -2.8159    7.3678 H   0  0  0  0  0  0  0  0  0  0  0  0
    7.4510   -4.8988    6.7727 H   0  0  0  0  0  0  0  0  0  0  0  0
    7.4400   -7.0783    5.6402 H   0  0  0  0  0  0  0  0  0  0  0  0
    6.0784   -7.5278    4.5643 H   0  0  0  0  0  0  0  0  0  0  0  0
    7.0214   -6.1099    2.7367 H   0  0  0  0  0  0  0  0  0  0  0  0
    8.3720   -5.5944    3.8290 H   0  0  0  0  0  0  0  0  0  0  0  0
    8.2314   -7.3182    3.3101 H   0  0  0  0  0  0  0  0  0  0  0  0
    4.4851   -5.7487    3.7508 H   0  0  0  0  0  0  0  0  0  0  0  0
    0.3791   -0.9622   -2.1308 H   0  0  0  0  0  0  0  0  0  0  0  0
   -1.1514   -0.1437   -2.6146 H   0  0  0  0  0  0  0  0  0  0  0  0
    0.8111   -0.9803   -4.3527 H   0  0  0  0  0  0  0  0  0  0  0  0
    1.4761    0.6512   -3.9793 H   0  0  0  0  0  0  0  0  0  0  0  0
   -0.1746    0.4921   -4.6999 H   0  0  0  0  0  0  0  0  0  0  0  0
   -0.5361   -1.4144    1.4514 H   0  0  0  0  0  0  0  0  0  0  0  0
   -0.7799   -0.4876   -0.0375 H   0  0  0  0  0  0  0  0  0  0  0  0
    0.4605   -3.0117   -0.8497 H   0  0  0  0  0  0  0  0  0  0  0  0
   -0.8390   -3.4057    0.3514 H   0  0  0  0  0  0  0  0  0  0  0  0
   -1.2493   -2.4761   -1.1213 H   0  0  0  0  0  0  0  0  0  0  0  0
    1.0324   -6.2904    4.2552 H   0  0  0  0  0  0  0  0  0  0  0  0
  1  2  2  3
  2  3  1  0
  3  4  2  0
  3  5  1  0
  5  6  2  0
  6  7  1  0
  7  8  2  0
  8  9  1  0
  9 10  2  0
 10 11  1  0
 11 12  2  3
 12 13  1  0
 13 14  3  0
 12 15  1  0
 15 16  3  0
  8 17  1  0
 17 18  1  0
 18 19  1  0
 19 20  2  0
 20 21  1  0
 21 22  1  0
 21 23  1  0
  1 24  1  0
 24 25  2  0
 25 26  1  0
 26 27  2  0
 27 28  1  0
 28 29  2  0
 29 30  1  0
 30 31  1  0
 31 32  1  0
 30 33  2  0
 25 34  1  0
 34 35  1  0
 35 36  1  0
 36 37  1  0
 37 38  1  0
 38 39  1  0
 39 40  2  0
 40 41  1  0
 41 42  1  0
 39 43  1  0
 43 44  1  0
 44 45  1  0
 45 46  1  0
 46 47  1  0
 47 48  1  0
 48 49  2  0
 49 50  1  0
 50 51  2  0
 51 52  1  0
 52 53  1  0
 53 54  1  0
 52 55  2  0
 47 56  2  0
 56 57  1  0
 57 58  1  0
 58 59  1  0
 59 60  1  0
 60 61  1  0
 61 62  1  0
 62 63  1  0
 63 64  1  0
 64 65  1  0
 65 66  1  0
 63 67  1  0
 67 68  1  0
 60 69  1  0
 69 70  1  0
 56 71  1  0
 71 72  2  3
 72 73  1  0
 73 74  2  0
 73 75  1  0
 75 76  2  0
 76 77  1  0
 76 78  1  0
 78 79  1  0
 78 80  2  0
 80 81  1  0
 80 82  1  0
 82 83  1  0
 82 84  2  0
 84 85  1  0
 85 86  2  3
 86 87  1  0
 87 88  3  0
 86 89  1  0
 89 90  3  0
 11  2  1  0
 23 17  1  0
 66 24  1  0
 85 72  1  0
 10  5  1  0
 22 18  1  0
 33 26  1  0
 65 34  2  0
 84 75  1  0
 23  7  1  0
 64 36  2  0
 62 37  2  0
 42 38  2  0
 61 43  2  0
 59 44  2  0
 58 46  2  0
 55 48  1  0
  1 91  1  0
  6 92  1  0
  9 93  1  0
 17 94  1  0
 18 95  1  0
 19 96  1  0
 20 97  1  0
 21 98  1  0
 22 99  1  0
 22100  1  0
 23101  1  0
 27102  1  0
 28103  1  0
 29104  1  0
 31105  1  0
 31106  1  0
 32107  1  0
 32108  1  0
 32109  1  0
 33110  1  0
 49111  1  0
 50112  1  0
 51113  1  0
 53114  1  0
 53115  1  0
 54116  1  0
 54117  1  0
 54118  1  0
 55119  1  0
 67120  1  0
 67121  1  0
 68122  1  0
 68123  1  0
 68124  1  0
 69125  1  0
 69126  1  0
 70127  1  0
 70128  1  0
 70129  1  0
 71130  1  0
M  END

