
     RDKit          3D

110124  0  0  0  0  0  0  0  0999 V2000
    5.0048    1.1742   -4.4480 C   0  0  0  0  0  0  0  0  0  0  0  0
    4.4575    2.3911   -4.3103 C   0  0  0  0  0  0  0  0  0  0  0  0
    3.0283    2.6337   -4.1020 C   0  0  0  0  0  0  0  0  0  0  0  0
    2.1490    1.7445   -3.9296 O   0  0  0  0  0  0  0  0  0  0  0  0
    2.7587    4.0450   -4.2614 C   0  0  0  0  0  0  0  0  0  0  0  0
    1.5037    4.6713   -4.2839 C   0  0  0  0  0  0  0  0  0  0  0  0
    1.5470    6.0156   -4.5504 C   0  0  0  0  0  0  0  0  0  0  0  0
    2.7781    6.7342   -4.7712 C   0  0  0  0  0  0  0  0  0  0  0  0
    4.0148    6.1255   -4.7617 C   0  0  0  0  0  0  0  0  0  0  0  0
    3.9914    4.7268   -4.4894 C   0  0  0  0  0  0  0  0  0  0  0  0
    5.1030    3.7290   -4.4665 C   0  0  0  0  0  0  0  0  0  0  0  0
    6.4339    4.0052   -4.3040 C   0  0  0  0  0  0  0  0  0  0  0  0
    7.4004    2.9659   -4.0238 C   0  0  0  0  0  0  0  0  0  0  0  0
    8.1759    2.1383   -3.7961 N   0  0  0  0  0  0  0  0  0  0  0  0
    6.9382    5.3488   -4.1988 C   0  0  0  0  0  0  0  0  0  0  0  0
    7.3641    6.4211   -4.0879 N   0  0  0  0  0  0  0  0  0  0  0  0
    2.0162    8.0127   -4.9755 C   0  0  0  0  0  0  0  0  0  0  0  0
    2.0083    9.0636   -3.8280 C   0  0  0  0  0  0  0  0  0  0  0  0
    2.1347    8.3712   -2.4982 C   0  0  0  0  0  0  0  0  0  0  0  0
    0.9924    7.6930   -2.3142 C   0  0  0  0  0  0  0  0  0  0  0  0
    0.1349    7.9618   -3.5285 C   0  0  0  0  0  0  0  0  0  0  0  0
    0.5251    9.4020   -3.7953 C   0  0  0  0  0  0  0  0  0  0  0  0
    0.7645    7.2732   -4.7692 C   0  0  0  0  0  0  0  0  0  0  0  0
    4.4305    0.0148   -3.7653 C   0  0  0  0  0  0  0  0  0  0  0  0
    4.0615   -1.2201   -4.3326 C   0  0  0  0  0  0  0  0  0  0  0  0
    4.3000   -1.6110   -5.7638 C   0  0  0  0  0  0  0  0  0  0  0  0
    5.6591   -2.2779   -5.9291 C   0  0  0  0  0  0  0  0  0  0  0  0
    3.4533   -2.0420   -3.3730 C   0  0  0  0  0  0  0  0  0  0  0  0
    2.7458   -3.5947   -3.4221 S   0  0  0  0  0  0  0  0  0  0  0  0
    2.3046   -3.4608   -1.7788 C   0  0  0  0  0  0  0  0  0  0  0  0
    1.6679   -4.1876   -0.8187 C   0  0  0  0  0  0  0  0  0  0  0  0
    1.0882   -5.4487   -0.8989 C   0  0  0  0  0  0  0  0  0  0  0  0
    0.5364   -6.0156    0.2663 C   0  0  0  0  0  0  0  0  0  0  0  0
   -0.0997   -7.2150    0.1815 N   0  0  0  0  0  0  0  0  0  0  0  0
   -0.1993   -7.8706   -0.9973 C   0  0  0  0  0  0  0  0  0  0  0  0
    0.4149   -7.3447   -2.1384 C   0  0  0  0  0  0  0  0  0  0  0  0
    1.0046   -6.1244   -2.0737 N   0  0  0  0  0  0  0  0  0  0  0  0
    0.5687   -5.2660    1.4498 C   0  0  0  0  0  0  0  0  0  0  0  0
   -0.0664   -5.5272    2.6205 C   0  0  0  0  0  0  0  0  0  0  0  0
   -1.2954   -6.6080    3.1018 S   0  0  0  0  0  0  0  0  0  0  0  0
   -1.7934   -5.5513    4.3400 C   0  0  0  0  0  0  0  0  0  0  0  0
   -2.9372   -5.5278    5.1510 C   0  0  0  0  0  0  0  0  0  0  0  0
   -4.0528   -6.5313    5.0529 C   0  0  0  0  0  0  0  0  0  0  0  0
   -5.1029   -6.1000    4.0452 C   0  0  0  0  0  0  0  0  0  0  0  0
   -3.0380   -4.2749    5.7873 C   0  0  0  0  0  0  0  0  0  0  0  0
   -1.7578   -3.2520    5.3275 S   0  0  0  0  0  0  0  0  0  0  0  0
   -1.0484   -4.3877    4.3224 C   0  0  0  0  0  0  0  0  0  0  0  0
   -0.0509   -4.3837    3.3488 C   0  0  0  0  0  0  0  0  0  0  0  0
    0.6342   -3.3778    2.7251 N   0  0  0  0  0  0  0  0  0  0  0  0
    1.0565   -3.9373    1.5318 C   0  0  0  0  0  0  0  0  0  0  0  0
    1.6733   -3.3882    0.3489 C   0  0  0  0  0  0  0  0  0  0  0  0
    2.3597   -2.2159    0.0911 N   0  0  0  0  0  0  0  0  0  0  0  0
    2.7026   -2.3091   -1.2186 C   0  0  0  0  0  0  0  0  0  0  0  0
    3.3469   -1.4758   -2.1210 C   0  0  0  0  0  0  0  0  0  0  0  0
    3.9927    0.0639   -2.1192 S   0  0  0  0  0  0  0  0  0  0  0  0
    2.7762   -1.1068    0.9590 C   0  0  0  0  0  0  0  0  0  0  0  0
    3.7631   -1.5790    2.0429 C   0  0  0  0  0  0  0  0  0  0  0  0
    0.4368   -1.9640    3.0969 C   0  0  0  0  0  0  0  0  0  0  0  0
   -0.6840   -1.3287    2.2589 C   0  0  0  0  0  0  0  0  0  0  0  0
   -4.1746   -3.7798    6.5824 C   0  0  0  0  0  0  0  0  0  0  0  0
   -4.9869   -2.8025    6.1306 C   0  0  0  0  0  0  0  0  0  0  0  0
   -5.0682   -2.2720    4.7665 C   0  0  0  0  0  0  0  0  0  0  0  0
   -4.3948   -2.6331    3.7665 O   0  0  0  0  0  0  0  0  0  0  0  0
   -6.0480   -1.2059    4.7800 C   0  0  0  0  0  0  0  0  0  0  0  0
   -6.2259   -0.1131    3.9461 C   0  0  0  0  0  0  0  0  0  0  0  0
   -6.8902    0.9216    4.6117 C   0  0  0  0  0  0  0  0  0  0  0  0
   -7.2309    2.4980    3.9292 Cl  0  0  0  0  0  0  0  0  0  0  0  0
   -7.1712    0.4766    6.2183 S   0  0  0  0  0  0  0  0  0  0  0  0
   -6.5537   -1.0827    6.0423 C   0  0  0  0  0  0  0  0  0  0  0  0
   -5.9510   -2.0549    6.9851 C   0  0  0  0  0  0  0  0  0  0  0  0
   -5.6966   -1.6860    8.2544 C   0  0  0  0  0  0  0  0  0  0  0  0
   -6.7538   -1.1112    9.0430 C   0  0  0  0  0  0  0  0  0  0  0  0
   -7.6142   -0.6550    9.6627 N   0  0  0  0  0  0  0  0  0  0  0  0
   -4.3283   -1.2961    8.5796 C   0  0  0  0  0  0  0  0  0  0  0  0
   -3.2462   -0.9331    8.8192 N   0  0  0  0  0  0  0  0  0  0  0  0
    5.9648    1.0447   -4.9176 H   0  0  0  0  0  0  0  0  0  0  0  0
    0.5618    4.1468   -4.1365 H   0  0  0  0  0  0  0  0  0  0  0  0
    4.9042    6.6896   -5.0041 H   0  0  0  0  0  0  0  0  0  0  0  0
    2.1131    8.4360   -5.9963 H   0  0  0  0  0  0  0  0  0  0  0  0
    2.6876    9.9317   -3.9685 H   0  0  0  0  0  0  0  0  0  0  0  0
    2.9315    8.4744   -1.7662 H   0  0  0  0  0  0  0  0  0  0  0  0
    0.7045    7.1394   -1.4251 H   0  0  0  0  0  0  0  0  0  0  0  0
   -0.9488    7.7685   -3.3841 H   0  0  0  0  0  0  0  0  0  0  0  0
    0.1252    9.7870   -4.7587 H   0  0  0  0  0  0  0  0  0  0  0  0
    0.2389   10.0921   -2.9541 H   0  0  0  0  0  0  0  0  0  0  0  0
    0.1128    7.2434   -5.6733 H   0  0  0  0  0  0  0  0  0  0  0  0
    4.2250   -0.7204   -6.4235 H   0  0  0  0  0  0  0  0  0  0  0  0
    3.5241   -2.3421   -6.0941 H   0  0  0  0  0  0  0  0  0  0  0  0
    6.4849   -1.6159   -5.6111 H   0  0  0  0  0  0  0  0  0  0  0  0
    5.8350   -2.5040   -7.0101 H   0  0  0  0  0  0  0  0  0  0  0  0
    5.7069   -3.2495   -5.3710 H   0  0  0  0  0  0  0  0  0  0  0  0
   -0.6848   -8.8388   -1.0468 H   0  0  0  0  0  0  0  0  0  0  0  0
    0.3687   -7.8825   -3.0790 H   0  0  0  0  0  0  0  0  0  0  0  0
   -4.5280   -6.6335    6.0520 H   0  0  0  0  0  0  0  0  0  0  0  0
   -3.6353   -7.5293    4.7867 H   0  0  0  0  0  0  0  0  0  0  0  0
   -4.7057   -6.2303    3.0132 H   0  0  0  0  0  0  0  0  0  0  0  0
   -6.0067   -6.7474    4.1765 H   0  0  0  0  0  0  0  0  0  0  0  0
   -5.4142   -5.0547    4.2172 H   0  0  0  0  0  0  0  0  0  0  0  0
    1.8865   -0.5462    1.3185 H   0  0  0  0  0  0  0  0  0  0  0  0
    3.2978   -0.3341    0.3800 H   0  0  0  0  0  0  0  0  0  0  0  0
    3.9363   -0.7484    2.7629 H   0  0  0  0  0  0  0  0  0  0  0  0
    3.3614   -2.4661    2.5890 H   0  0  0  0  0  0  0  0  0  0  0  0
    4.7304   -1.8612    1.5851 H   0  0  0  0  0  0  0  0  0  0  0  0
    0.1821   -1.8977    4.1590 H   0  0  0  0  0  0  0  0  0  0  0  0
    1.3674   -1.4062    3.0951 H   0  0  0  0  0  0  0  0  0  0  0  0
   -1.6363   -1.9130    2.3498 H   0  0  0  0  0  0  0  0  0  0  0  0
   -0.8989   -0.3071    2.6302 H   0  0  0  0  0  0  0  0  0  0  0  0
   -0.3721   -1.2646    1.2087 H   0  0  0  0  0  0  0  0  0  0  0  0
   -4.3063   -4.1700    7.5754 H   0  0  0  0  0  0  0  0  0  0  0  0
   -5.8458   -0.0418    2.9383 H   0  0  0  0  0  0  0  0  0  0  0  0
  1  2  2  3
  2  3  1  0
  3  4  2  0
  3  5  1  0
  5  6  2  0
  6  7  1  0
  7  8  2  0
  8  9  1  0
  9 10  2  0
 10 11  1  0
 11 12  2  3
 12 13  1  0
 13 14  3  0
 12 15  1  0
 15 16  3  0
  8 17  1  0
 17 18  1  0
 18 19  1  0
 19 20  2  0
 20 21  1  0
 21 22  1  0
 21 23  1  0
  1 24  1  0
 24 25  2  0
 25 26  1  0
 26 27  1  0
 25 28  1  0
 28 29  1  0
 29 30  1  0
 30 31  1  0
 31 32  2  0
 32 33  1  0
 33 34  1  0
 34 35  2  0
 35 36  1  0
 36 37  2  0
 33 38  2  0
 38 39  1  0
 39 40  1  0
 40 41  1  0
 41 42  1  0
 42 43  1  0
 43 44  1  0
 42 45  2  0
 45 46  1  0
 46 47  1  0
 47 48  1  0
 48 49  1  0
 49 50  1  0
 50 51  2  0
 51 52  1  0
 52 53  1  0
 53 54  1  0
 54 55  1  0
 52 56  1  0
 56 57  1  0
 49 58  1  0
 58 59  1  0
 45 60  1  0
 60 61  2  3
 61 62  1  0
 62 63  2  0
 62 64  1  0
 64 65  1  0
 65 66  2  0
 66 67  1  0
 66 68  1  0
 68 69  1  0
 69 70  1  0
 70 71  2  3
 71 72  1  0
 72 73  3  0
 71 74  1  0
 74 75  3  0
 11  2  1  0
 23 17  1  0
 55 24  1  0
 70 61  1  0
 10  5  1  0
 22 18  1  0
 54 28  2  0
 69 64  2  0
 23  7  1  0
 53 30  2  0
 51 31  1  0
 37 32  1  0
 50 38  1  0
 48 39  2  0
 47 41  2  0
  1 76  1  0
  6 77  1  0
  9 78  1  0
 17 79  1  0
 18 80  1  0
 19 81  1  0
 20 82  1  0
 21 83  1  0
 22 84  1  0
 22 85  1  0
 23 86  1  0
 26 87  1  0
 26 88  1  0
 27 89  1  0
 27 90  1  0
 27 91  1  0
 35 92  1  0
 36 93  1  0
 43 94  1  0
 43 95  1  0
 44 96  1  0
 44 97  1  0
 44 98  1  0
 56 99  1  0
 56100  1  0
 57101  1  0
 57102  1  0
 57103  1  0
 58104  1  0
 58105  1  0
 59106  1  0
 59107  1  0
 59108  1  0
 60109  1  0
 65110  1  0
M  END

