
     RDKit          3D

113127  0  0  0  0  0  0  0  0999 V2000
   -1.6948   -2.8733    5.9093 C   0  0  0  0  0  0  0  0  0  0  0  0
   -2.7971   -3.0427    5.1533 C   0  0  0  0  0  0  0  0  0  0  0  0
   -3.1688   -2.2118    3.9981 C   0  0  0  0  0  0  0  0  0  0  0  0
   -2.6801   -1.0916    3.6881 O   0  0  0  0  0  0  0  0  0  0  0  0
   -4.1593   -2.9164    3.2205 C   0  0  0  0  0  0  0  0  0  0  0  0
   -4.6913   -2.5266    1.9694 C   0  0  0  0  0  0  0  0  0  0  0  0
   -5.5352   -3.4620    1.4047 C   0  0  0  0  0  0  0  0  0  0  0  0
   -5.8403   -4.7168    2.0223 C   0  0  0  0  0  0  0  0  0  0  0  0
   -5.3218   -5.1046    3.2486 C   0  0  0  0  0  0  0  0  0  0  0  0
   -4.4689   -4.1430    3.8633 C   0  0  0  0  0  0  0  0  0  0  0  0
   -3.7246   -4.2164    5.1549 C   0  0  0  0  0  0  0  0  0  0  0  0
   -4.0081   -5.0230    6.2103 C   0  0  0  0  0  0  0  0  0  0  0  0
   -5.0396   -6.0263    6.1642 C   0  0  0  0  0  0  0  0  0  0  0  0
   -5.8682   -6.8351    6.1485 N   0  0  0  0  0  0  0  0  0  0  0  0
   -3.4018   -4.8374    7.5037 C   0  0  0  0  0  0  0  0  0  0  0  0
   -2.9224   -4.6893    8.5468 N   0  0  0  0  0  0  0  0  0  0  0  0
   -6.7078   -5.0977    0.8591 C   0  0  0  0  0  0  0  0  0  0  0  0
   -8.2466   -5.0312    1.0885 C   0  0  0  0  0  0  0  0  0  0  0  0
   -8.8710   -5.0598   -0.2863 C   0  0  0  0  0  0  0  0  0  0  0  0
   -8.5878   -3.8815   -0.8573 C   0  0  0  0  0  0  0  0  0  0  0  0
   -7.7822   -3.0981    0.1505 C   0  0  0  0  0  0  0  0  0  0  0  0
   -8.4804   -3.5646    1.4188 C   0  0  0  0  0  0  0  0  0  0  0  0
   -6.3985   -3.8084    0.2295 C   0  0  0  0  0  0  0  0  0  0  0  0
   -0.7882   -1.7337    5.7250 C   0  0  0  0  0  0  0  0  0  0  0  0
   -1.0259   -0.4197    6.1646 C   0  0  0  0  0  0  0  0  0  0  0  0
   -2.1450   -0.0136    7.0844 C   0  0  0  0  0  0  0  0  0  0  0  0
   -1.7294   -0.2009    8.5384 C   0  0  0  0  0  0  0  0  0  0  0  0
   -0.1300    0.4730    5.5710 C   0  0  0  0  0  0  0  0  0  0  0  0
   -0.1579    2.1630    5.4050 S   0  0  0  0  0  0  0  0  0  0  0  0
    1.0470    2.1222    4.2095 C   0  0  0  0  0  0  0  0  0  0  0  0
    1.2897    2.8929    3.1030 C   0  0  0  0  0  0  0  0  0  0  0  0
    0.7192    4.1239    2.7297 C   0  0  0  0  0  0  0  0  0  0  0  0
    0.8188    4.5365    1.3807 C   0  0  0  0  0  0  0  0  0  0  0  0
    0.2422    5.7046    0.9920 N   0  0  0  0  0  0  0  0  0  0  0  0
   -0.4336    6.4772    1.8849 C   0  0  0  0  0  0  0  0  0  0  0  0
   -0.5409    6.0666    3.2187 C   0  0  0  0  0  0  0  0  0  0  0  0
    0.0301    4.8961    3.6123 N   0  0  0  0  0  0  0  0  0  0  0  0
    1.5245    3.7214    0.4863 C   0  0  0  0  0  0  0  0  0  0  0  0
    1.8133    3.8682   -0.8404 C   0  0  0  0  0  0  0  0  0  0  0  0
    1.4172    4.8671   -2.1548 S   0  0  0  0  0  0  0  0  0  0  0  0
    2.3583    3.8942   -3.2026 C   0  0  0  0  0  0  0  0  0  0  0  0
    2.5198    3.8546   -4.5898 C   0  0  0  0  0  0  0  0  0  0  0  0
    1.8719    4.8271   -5.5389 C   0  0  0  0  0  0  0  0  0  0  0  0
    2.8975    5.8039   -6.1013 C   0  0  0  0  0  0  0  0  0  0  0  0
    3.3144    2.7542   -4.9770 C   0  0  0  0  0  0  0  0  0  0  0  0
    3.7076    1.8177   -3.6005 S   0  0  0  0  0  0  0  0  0  0  0  0
    2.9549    2.8600   -2.5284 C   0  0  0  0  0  0  0  0  0  0  0  0
    2.6270    2.8443   -1.1844 C   0  0  0  0  0  0  0  0  0  0  0  0
    2.9075    2.0111   -0.1551 N   0  0  0  0  0  0  0  0  0  0  0  0
    2.1434    2.5223    0.8683 C   0  0  0  0  0  0  0  0  0  0  0  0
    1.9247    2.0441    2.1817 C   0  0  0  0  0  0  0  0  0  0  0  0
    1.9480    0.7536    2.6488 N   0  0  0  0  0  0  0  0  0  0  0  0
    1.4264    0.8469    3.9010 C   0  0  0  0  0  0  0  0  0  0  0  0
    0.7562   -0.0916    4.6864 C   0  0  0  0  0  0  0  0  0  0  0  0
    0.4782   -1.7444    4.5921 S   0  0  0  0  0  0  0  0  0  0  0  0
    1.9652   -0.4794    1.8535 C   0  0  0  0  0  0  0  0  0  0  0  0
    3.1503   -1.3607    2.2447 C   0  0  0  0  0  0  0  0  0  0  0  0
    4.1459    1.2162   -0.0676 C   0  0  0  0  0  0  0  0  0  0  0  0
    5.0904    1.7642    1.0026 C   0  0  0  0  0  0  0  0  0  0  0  0
    3.5036    2.3118   -6.3727 C   0  0  0  0  0  0  0  0  0  0  0  0
    4.6435    1.7994   -6.8785 C   0  0  0  0  0  0  0  0  0  0  0  0
    5.8945    1.5580   -6.1504 C   0  0  0  0  0  0  0  0  0  0  0  0
    6.2632    2.1154   -5.0836 O   0  0  0  0  0  0  0  0  0  0  0  0
    6.6961    0.6322   -6.9227 C   0  0  0  0  0  0  0  0  0  0  0  0
    7.9008    0.0266   -6.5645 C   0  0  0  0  0  0  0  0  0  0  0  0
    8.4689   -0.9041   -7.4453 C   0  0  0  0  0  0  0  0  0  0  0  0
    7.8198   -1.2222   -8.6504 C   0  0  0  0  0  0  0  0  0  0  0  0
    6.6059   -0.6050   -8.9909 C   0  0  0  0  0  0  0  0  0  0  0  0
    6.0605    0.3540   -8.1208 C   0  0  0  0  0  0  0  0  0  0  0  0
    4.8157    1.1664   -8.2245 C   0  0  0  0  0  0  0  0  0  0  0  0
    4.1352    1.4624   -9.3632 C   0  0  0  0  0  0  0  0  0  0  0  0
    4.4686    0.8815  -10.6383 C   0  0  0  0  0  0  0  0  0  0  0  0
    4.7266    0.4180  -11.6689 N   0  0  0  0  0  0  0  0  0  0  0  0
    3.1198    2.4822   -9.4179 C   0  0  0  0  0  0  0  0  0  0  0  0
    2.3044    3.3033   -9.4741 N   0  0  0  0  0  0  0  0  0  0  0  0
   -1.3699   -3.6388    6.5955 H   0  0  0  0  0  0  0  0  0  0  0  0
   -4.4351   -1.5984    1.4772 H   0  0  0  0  0  0  0  0  0  0  0  0
   -5.5396   -6.0788    3.6531 H   0  0  0  0  0  0  0  0  0  0  0  0
   -6.3382   -5.9869    0.2971 H   0  0  0  0  0  0  0  0  0  0  0  0
   -8.6597   -5.7664    1.8139 H   0  0  0  0  0  0  0  0  0  0  0  0
   -9.5062   -5.8321   -0.7063 H   0  0  0  0  0  0  0  0  0  0  0  0
   -8.9523   -3.5379   -1.8184 H   0  0  0  0  0  0  0  0  0  0  0  0
   -7.7529   -1.9999   -0.0147 H   0  0  0  0  0  0  0  0  0  0  0  0
   -9.5607   -3.2867    1.4573 H   0  0  0  0  0  0  0  0  0  0  0  0
   -7.9947   -3.2243    2.3591 H   0  0  0  0  0  0  0  0  0  0  0  0
   -5.8382   -3.8833   -0.7307 H   0  0  0  0  0  0  0  0  0  0  0  0
   -3.0495   -0.6258    6.8777 H   0  0  0  0  0  0  0  0  0  0  0  0
   -2.4151    1.0514    6.9147 H   0  0  0  0  0  0  0  0  0  0  0  0
   -0.8287    0.4106    8.7618 H   0  0  0  0  0  0  0  0  0  0  0  0
   -2.5541    0.1255    9.2067 H   0  0  0  0  0  0  0  0  0  0  0  0
   -1.5065   -1.2708    8.7407 H   0  0  0  0  0  0  0  0  0  0  0  0
   -0.8867    7.4066    1.5626 H   0  0  0  0  0  0  0  0  0  0  0  0
   -1.0825    6.6710    3.9355 H   0  0  0  0  0  0  0  0  0  0  0  0
    1.3841    4.2753   -6.3705 H   0  0  0  0  0  0  0  0  0  0  0  0
    1.0722    5.4010   -5.0189 H   0  0  0  0  0  0  0  0  0  0  0  0
    3.3572    6.3929   -5.2793 H   0  0  0  0  0  0  0  0  0  0  0  0
    2.3974    6.5006   -6.8045 H   0  0  0  0  0  0  0  0  0  0  0  0
    3.6948    5.2578   -6.6524 H   0  0  0  0  0  0  0  0  0  0  0  0
    1.9654   -0.2600    0.7727 H   0  0  0  0  0  0  0  0  0  0  0  0
    1.0213   -1.0392    2.0025 H   0  0  0  0  0  0  0  0  0  0  0  0
    4.1006   -0.7924    2.1949 H   0  0  0  0  0  0  0  0  0  0  0  0
    3.0324   -1.7335    3.2827 H   0  0  0  0  0  0  0  0  0  0  0  0
    3.2121   -2.2318    1.5592 H   0  0  0  0  0  0  0  0  0  0  0  0
    3.9404    0.1492    0.0984 H   0  0  0  0  0  0  0  0  0  0  0  0
    4.6905    1.2540   -1.0330 H   0  0  0  0  0  0  0  0  0  0  0  0
    5.3075    2.8367    0.8057 H   0  0  0  0  0  0  0  0  0  0  0  0
    6.0436    1.1958    0.9807 H   0  0  0  0  0  0  0  0  0  0  0  0
    4.6466    1.6599    2.0142 H   0  0  0  0  0  0  0  0  0  0  0  0
    2.6223    2.3611   -6.9876 H   0  0  0  0  0  0  0  0  0  0  0  0
    8.3813    0.2554   -5.6230 H   0  0  0  0  0  0  0  0  0  0  0  0
    9.3998   -1.3944   -7.1894 H   0  0  0  0  0  0  0  0  0  0  0  0
    8.2517   -1.9597   -9.3158 H   0  0  0  0  0  0  0  0  0  0  0  0
    6.1125   -0.9071   -9.8985 H   0  0  0  0  0  0  0  0  0  0  0  0
  1  2  2  3
  2  3  1  0
  3  4  2  0
  3  5  1  0
  5  6  2  0
  6  7  1  0
  7  8  2  0
  8  9  1  0
  9 10  2  0
 10 11  1  0
 11 12  2  3
 12 13  1  0
 13 14  3  0
 12 15  1  0
 15 16  3  0
  8 17  1  0
 17 18  1  0
 18 19  1  0
 19 20  2  0
 20 21  1  0
 21 22  1  0
 21 23  1  0
  1 24  1  0
 24 25  2  0
 25 26  1  0
 26 27  1  0
 25 28  1  0
 28 29  1  0
 29 30  1  0
 30 31  1  0
 31 32  2  0
 32 33  1  0
 33 34  1  0
 34 35  2  0
 35 36  1  0
 36 37  2  0
 33 38  2  0
 38 39  1  0
 39 40  1  0
 40 41  1  0
 41 42  1  0
 42 43  1  0
 43 44  1  0
 42 45  2  0
 45 46  1  0
 46 47  1  0
 47 48  1  0
 48 49  1  0
 49 50  1  0
 50 51  2  0
 51 52  1  0
 52 53  1  0
 53 54  1  0
 54 55  1  0
 52 56  1  0
 56 57  1  0
 49 58  1  0
 58 59  1  0
 45 60  1  0
 60 61  2  3
 61 62  1  0
 62 63  2  0
 62 64  1  0
 64 65  2  0
 65 66  1  0
 66 67  2  0
 67 68  1  0
 68 69  2  0
 69 70  1  0
 70 71  2  3
 71 72  1  0
 72 73  3  0
 71 74  1  0
 74 75  3  0
 11  2  1  0
 23 17  1  0
 55 24  1  0
 70 61  1  0
 10  5  1  0
 22 18  1  0
 54 28  2  0
 69 64  1  0
 23  7  1  0
 53 30  2  0
 51 31  1  0
 37 32  1  0
 50 38  1  0
 48 39  2  0
 47 41  2  0
  1 76  1  0
  6 77  1  0
  9 78  1  0
 17 79  1  0
 18 80  1  0
 19 81  1  0
 20 82  1  0
 21 83  1  0
 22 84  1  0
 22 85  1  0
 23 86  1  0
 26 87  1  0
 26 88  1  0
 27 89  1  0
 27 90  1  0
 27 91  1  0
 35 92  1  0
 36 93  1  0
 43 94  1  0
 43 95  1  0
 44 96  1  0
 44 97  1  0
 44 98  1  0
 56 99  1  0
 56100  1  0
 57101  1  0
 57102  1  0
 57103  1  0
 58104  1  0
 58105  1  0
 59106  1  0
 59107  1  0
 59108  1  0
 60109  1  0
 65110  1  0
 66111  1  0
 67112  1  0
 68113  1  0
M  END

