
     RDKit          3D

184204  0  0  0  0  0  0  0  0999 V2000
    6.8046   -5.0565   -0.2247 C   0  0  0  0  0  0  0  0  0  0  0  0
    7.5254   -4.7022   -1.2991 C   0  0  0  0  0  0  0  0  0  0  0  0
    8.0412   -5.6889   -2.2509 C   0  0  0  0  0  0  0  0  0  0  0  0
    8.2760   -6.9018   -1.9961 O   0  0  0  0  0  0  0  0  0  0  0  0
    8.0864   -5.0776   -3.5692 C   0  0  0  0  0  0  0  0  0  0  0  0
    8.1932   -5.7395   -4.8150 C   0  0  0  0  0  0  0  0  0  0  0  0
    7.9445   -4.9245   -5.9066 C   0  0  0  0  0  0  0  0  0  0  0  0
    7.6229   -3.5339   -5.7898 C   0  0  0  0  0  0  0  0  0  0  0  0
    7.4935   -2.8806   -4.5778 C   0  0  0  0  0  0  0  0  0  0  0  0
    7.7520   -3.7013   -3.4422 C   0  0  0  0  0  0  0  0  0  0  0  0
    7.5175   -3.3942   -2.0086 C   0  0  0  0  0  0  0  0  0  0  0  0
    7.5663   -2.1698   -1.4332 C   0  0  0  0  0  0  0  0  0  0  0  0
    7.8497   -0.9839   -2.1965 C   0  0  0  0  0  0  0  0  0  0  0  0
    8.0933   -0.0345   -2.8077 N   0  0  0  0  0  0  0  0  0  0  0  0
    7.5161   -1.9955   -0.0030 C   0  0  0  0  0  0  0  0  0  0  0  0
    7.4738   -1.8383    1.1449 N   0  0  0  0  0  0  0  0  0  0  0  0
    7.4540   -3.4263   -7.2663 C   0  0  0  0  0  0  0  0  0  0  0  0
    5.9863   -3.3199   -7.7841 C   0  0  0  0  0  0  0  0  0  0  0  0
    6.0426   -3.6317   -9.2602 C   0  0  0  0  0  0  0  0  0  0  0  0
    6.3198   -4.9363   -9.3683 C   0  0  0  0  0  0  0  0  0  0  0  0
    6.4394   -5.4623   -7.9584 C   0  0  0  0  0  0  0  0  0  0  0  0
    5.3574   -4.6175   -7.3051 C   0  0  0  0  0  0  0  0  0  0  0  0
    7.7632   -4.8543   -7.3880 C   0  0  0  0  0  0  0  0  0  0  0  0
    5.5748   -4.3440    0.1635 C   0  0  0  0  0  0  0  0  0  0  0  0
    5.0365   -4.2870    1.4527 C   0  0  0  0  0  0  0  0  0  0  0  0
    3.8013   -3.6400    1.4353 C   0  0  0  0  0  0  0  0  0  0  0  0
    2.7841   -3.0404    2.6521 S   0  0  0  0  0  0  0  0  0  0  0  0
    1.7483   -2.3288    1.5028 C   0  0  0  0  0  0  0  0  0  0  0  0
    0.8273   -1.2291    1.5521 C   0  0  0  0  0  0  0  0  0  0  0  0
    0.3658   -0.5028    2.6555 C   0  0  0  0  0  0  0  0  0  0  0  0
   -0.4266    0.6232    2.3884 C   0  0  0  0  0  0  0  0  0  0  0  0
   -0.9827    1.6508    3.3677 C   0  0  0  0  0  0  0  0  0  0  0  0
   -1.5077    0.9643    4.6284 C   0  0  0  0  0  0  0  0  0  0  0  0
   -0.6147    0.7010    5.6842 C   0  0  0  0  0  0  0  0  0  0  0  0
   -1.0129   -0.0271    6.8025 C   0  0  0  0  0  0  0  0  0  0  0  0
   -2.3197   -0.5290    6.9017 C   0  0  0  0  0  0  0  0  0  0  0  0
   -2.7713   -1.3626    8.0777 C   0  0  0  0  0  0  0  0  0  0  0  0
   -1.8942   -1.2123    9.1874 O   0  0  0  0  0  0  0  0  0  0  0  0
   -0.9832   -2.2934    9.2664 C   0  0  0  0  0  0  0  0  0  0  0  0
    0.1015   -1.9005   10.0849 O   0  0  0  0  0  0  0  0  0  0  0  0
    0.9764   -2.9868   10.2668 C   0  0  0  0  0  0  0  0  0  0  0  0
   -3.2099   -0.3000    5.8412 C   0  0  0  0  0  0  0  0  0  0  0  0
   -2.8095    0.4283    4.7088 C   0  0  0  0  0  0  0  0  0  0  0  0
    0.0220    2.7720    3.6828 C   0  0  0  0  0  0  0  0  0  0  0  0
   -0.3875    3.8586    4.4786 C   0  0  0  0  0  0  0  0  0  0  0  0
    0.4186    4.9973    4.6051 C   0  0  0  0  0  0  0  0  0  0  0  0
    1.6560    5.0698    3.9490 C   0  0  0  0  0  0  0  0  0  0  0  0
    2.4205    6.3649    3.9243 C   0  0  0  0  0  0  0  0  0  0  0  0
    3.8137    6.1132    3.8253 O   0  0  0  0  0  0  0  0  0  0  0  0
    4.4433    7.1168    3.0510 C   0  0  0  0  0  0  0  0  0  0  0  0
    4.1631    6.8902    1.6799 O   0  0  0  0  0  0  0  0  0  0  0  0
    4.6928    7.9435    0.9131 C   0  0  0  0  0  0  0  0  0  0  0  0
    2.0942    3.9751    3.1940 C   0  0  0  0  0  0  0  0  0  0  0  0
    1.3016    2.8335    3.0810 C   0  0  0  0  0  0  0  0  0  0  0  0
   -2.0102    2.2769    2.4450 C   0  0  0  0  0  0  0  0  0  0  0  0
   -1.7425    1.9955    1.1335 C   0  0  0  0  0  0  0  0  0  0  0  0
   -0.7499    0.9600    1.0735 C   0  0  0  0  0  0  0  0  0  0  0  0
   -0.1746    0.3280   -0.0296 C   0  0  0  0  0  0  0  0  0  0  0  0
    0.6444   -0.7855    0.2367 C   0  0  0  0  0  0  0  0  0  0  0  0
    1.5649   -1.5106   -0.7483 C   0  0  0  0  0  0  0  0  0  0  0  0
    2.6398   -0.5110   -1.2256 C   0  0  0  0  0  0  0  0  0  0  0  0
    2.9648   -0.2951   -2.5892 C   0  0  0  0  0  0  0  0  0  0  0  0
    3.9261    0.6585   -2.9554 C   0  0  0  0  0  0  0  0  0  0  0  0
    4.5507    1.4527   -1.9819 C   0  0  0  0  0  0  0  0  0  0  0  0
    5.5440    2.5110   -2.4033 C   0  0  0  0  0  0  0  0  0  0  0  0
    5.5716    3.5820   -1.4729 O   0  0  0  0  0  0  0  0  0  0  0  0
    6.7795    3.5868   -0.7392 C   0  0  0  0  0  0  0  0  0  0  0  0
    7.8175    4.1285   -1.5362 O   0  0  0  0  0  0  0  0  0  0  0  0
    8.9605    4.3492   -0.7374 C   0  0  0  0  0  0  0  0  0  0  0  0
    4.2529    1.2313   -0.6277 C   0  0  0  0  0  0  0  0  0  0  0  0
    3.3269    0.2595   -0.2586 C   0  0  0  0  0  0  0  0  0  0  0  0
    0.7978   -2.2673   -1.8608 C   0  0  0  0  0  0  0  0  0  0  0  0
    1.4836   -3.1221   -2.7487 C   0  0  0  0  0  0  0  0  0  0  0  0
    0.8228   -3.7630   -3.8003 C   0  0  0  0  0  0  0  0  0  0  0  0
   -0.5434   -3.5679   -4.0035 C   0  0  0  0  0  0  0  0  0  0  0  0
   -1.2401   -4.1845   -5.1909 C   0  0  0  0  0  0  0  0  0  0  0  0
   -2.2227   -3.3176   -5.7243 O   0  0  0  0  0  0  0  0  0  0  0  0
   -1.6258   -2.2986   -6.5114 C   0  0  0  0  0  0  0  0  0  0  0  0
   -2.5929   -1.2862   -6.7310 O   0  0  0  0  0  0  0  0  0  0  0  0
   -1.9739   -0.1563   -7.3009 C   0  0  0  0  0  0  0  0  0  0  0  0
   -1.2581   -2.7934   -3.0839 C   0  0  0  0  0  0  0  0  0  0  0  0
   -0.6053   -2.1595   -2.0222 C   0  0  0  0  0  0  0  0  0  0  0  0
    2.1855   -2.4995    0.2188 C   0  0  0  0  0  0  0  0  0  0  0  0
    3.3660   -3.2364    0.2051 C   0  0  0  0  0  0  0  0  0  0  0  0
    4.5106   -3.6041   -0.9465 S   0  0  0  0  0  0  0  0  0  0  0  0
   -2.9679    2.5178    0.0857 S   0  0  0  0  0  0  0  0  0  0  0  0
   -3.8112    3.2163    1.3751 C   0  0  0  0  0  0  0  0  0  0  0  0
   -5.0593    3.8233    1.4589 C   0  0  0  0  0  0  0  0  0  0  0  0
   -5.4176    4.0472    2.7938 C   0  0  0  0  0  0  0  0  0  0  0  0
   -4.1601    3.5422    3.8386 S   0  0  0  0  0  0  0  0  0  0  0  0
   -3.1911    2.9968    2.5738 C   0  0  0  0  0  0  0  0  0  0  0  0
   -6.7260    4.5707    3.2295 C   0  0  0  0  0  0  0  0  0  0  0  0
   -7.8842    4.0948    2.7258 C   0  0  0  0  0  0  0  0  0  0  0  0
   -7.9982    2.8165    2.0050 C   0  0  0  0  0  0  0  0  0  0  0  0
   -7.1254    1.9152    1.9322 O   0  0  0  0  0  0  0  0  0  0  0  0
   -9.3440    2.6773    1.5190 C   0  0  0  0  0  0  0  0  0  0  0  0
   -9.8174    1.6472    0.6797 C   0  0  0  0  0  0  0  0  0  0  0  0
  -11.1333    1.8031    0.2936 C   0  0  0  0  0  0  0  0  0  0  0  0
  -11.9530    2.8910    0.7300 C   0  0  0  0  0  0  0  0  0  0  0  0
  -11.4890    3.8967    1.5630 C   0  0  0  0  0  0  0  0  0  0  0  0
  -10.1255    3.7775    1.9523 C   0  0  0  0  0  0  0  0  0  0  0  0
   -9.2580    4.7145    2.7410 C   0  0  0  0  0  0  0  0  0  0  0  0
   -9.6122    5.9349    3.2351 C   0  0  0  0  0  0  0  0  0  0  0  0
   -8.6839    6.8430    3.8545 C   0  0  0  0  0  0  0  0  0  0  0  0
   -7.9518    7.5878    4.3527 N   0  0  0  0  0  0  0  0  0  0  0  0
  -10.9454    6.4701    3.1166 C   0  0  0  0  0  0  0  0  0  0  0  0
  -11.9987    6.9354    3.0169 N   0  0  0  0  0  0  0  0  0  0  0  0
  -13.1025    2.3703   -0.0814 C   0  0  0  0  0  0  0  0  0  0  0  0
  -14.2485    1.6399    0.6814 C   0  0  0  0  0  0  0  0  0  0  0  0
  -15.0378    0.9007   -0.3682 C   0  0  0  0  0  0  0  0  0  0  0  0
  -14.2577   -0.1021   -0.7933 C   0  0  0  0  0  0  0  0  0  0  0  0
  -12.9711   -0.0065   -0.0152 C   0  0  0  0  0  0  0  0  0  0  0  0
  -13.5379    0.4531    1.3211 C   0  0  0  0  0  0  0  0  0  0  0  0
  -12.2510    1.2666   -0.5426 C   0  0  0  0  0  0  0  0  0  0  0  0
    6.9282   -6.0455    0.1984 H   0  0  0  0  0  0  0  0  0  0  0  0
    8.3757   -6.8029   -4.9138 H   0  0  0  0  0  0  0  0  0  0  0  0
    7.1223   -1.8711   -4.5267 H   0  0  0  0  0  0  0  0  0  0  0  0
    8.1896   -2.7431   -7.7457 H   0  0  0  0  0  0  0  0  0  0  0  0
    5.4472   -2.3841   -7.5203 H   0  0  0  0  0  0  0  0  0  0  0  0
    5.8199   -2.9615  -10.0829 H   0  0  0  0  0  0  0  0  0  0  0  0
    6.3436   -5.5055  -10.2974 H   0  0  0  0  0  0  0  0  0  0  0  0
    6.3301   -6.5638   -7.8564 H   0  0  0  0  0  0  0  0  0  0  0  0
    4.3336   -4.7954   -7.7265 H   0  0  0  0  0  0  0  0  0  0  0  0
    5.3053   -4.7161   -6.1994 H   0  0  0  0  0  0  0  0  0  0  0  0
    8.6876   -5.0724   -7.9678 H   0  0  0  0  0  0  0  0  0  0  0  0
    5.5111   -4.6588    2.3480 H   0  0  0  0  0  0  0  0  0  0  0  0
    0.6283   -0.7963    3.6644 H   0  0  0  0  0  0  0  0  0  0  0  0
    0.4133    1.0292    5.6308 H   0  0  0  0  0  0  0  0  0  0  0  0
   -0.2858   -0.2074    7.5814 H   0  0  0  0  0  0  0  0  0  0  0  0
   -3.7746   -1.0104    8.3995 H   0  0  0  0  0  0  0  0  0  0  0  0
   -2.9056   -2.4235    7.7587 H   0  0  0  0  0  0  0  0  0  0  0  0
   -0.5978   -2.5672    8.2531 H   0  0  0  0  0  0  0  0  0  0  0  0
   -1.5098   -3.1659    9.7112 H   0  0  0  0  0  0  0  0  0  0  0  0
    0.4833   -3.8127   10.8261 H   0  0  0  0  0  0  0  0  0  0  0  0
    1.3740   -3.3580    9.2951 H   0  0  0  0  0  0  0  0  0  0  0  0
    1.8471   -2.6491   10.8673 H   0  0  0  0  0  0  0  0  0  0  0  0
   -4.2231   -0.6882    5.8881 H   0  0  0  0  0  0  0  0  0  0  0  0
   -3.5123    0.5378    3.8913 H   0  0  0  0  0  0  0  0  0  0  0  0
   -1.3592    3.8485    4.9543 H   0  0  0  0  0  0  0  0  0  0  0  0
    0.0435    5.8437    5.1692 H   0  0  0  0  0  0  0  0  0  0  0  0
    2.0091    6.9626    3.0764 H   0  0  0  0  0  0  0  0  0  0  0  0
    2.2367    6.9395    4.8595 H   0  0  0  0  0  0  0  0  0  0  0  0
    4.1199    8.1321    3.3849 H   0  0  0  0  0  0  0  0  0  0  0  0
    5.5383    7.0342    3.2216 H   0  0  0  0  0  0  0  0  0  0  0  0
    4.1915    8.9077    1.1556 H   0  0  0  0  0  0  0  0  0  0  0  0
    5.7947    8.0326    1.0452 H   0  0  0  0  0  0  0  0  0  0  0  0
    4.4989    7.7299   -0.1612 H   0  0  0  0  0  0  0  0  0  0  0  0
    3.0405    4.0040    2.6691 H   0  0  0  0  0  0  0  0  0  0  0  0
    1.6814    2.0203    2.4758 H   0  0  0  0  0  0  0  0  0  0  0  0
   -0.3501    0.6799   -1.0400 H   0  0  0  0  0  0  0  0  0  0  0  0
    2.4696   -0.8319   -3.3842 H   0  0  0  0  0  0  0  0  0  0  0  0
    4.1722    0.7853   -4.0090 H   0  0  0  0  0  0  0  0  0  0  0  0
    6.5368    2.0393   -2.5829 H   0  0  0  0  0  0  0  0  0  0  0  0
    5.2329    2.9320   -3.3894 H   0  0  0  0  0  0  0  0  0  0  0  0
    7.0475    2.5623   -0.3864 H   0  0  0  0  0  0  0  0  0  0  0  0
    6.6080    4.2151    0.1631 H   0  0  0  0  0  0  0  0  0  0  0  0
    9.3016    3.4074   -0.2521 H   0  0  0  0  0  0  0  0  0  0  0  0
    8.7633    5.1280    0.0335 H   0  0  0  0  0  0  0  0  0  0  0  0
    9.7810    4.7175   -1.3918 H   0  0  0  0  0  0  0  0  0  0  0  0
    4.6731    1.8533    0.1581 H   0  0  0  0  0  0  0  0  0  0  0  0
    3.0925    0.1736    0.7935 H   0  0  0  0  0  0  0  0  0  0  0  0
    2.5449   -3.2542   -2.6722 H   0  0  0  0  0  0  0  0  0  0  0  0
    1.4025   -4.3883   -4.4789 H   0  0  0  0  0  0  0  0  0  0  0  0
   -1.7552   -5.1042   -4.8430 H   0  0  0  0  0  0  0  0  0  0  0  0
   -0.5105   -4.5075   -5.9731 H   0  0  0  0  0  0  0  0  0  0  0  0
   -0.7301   -1.8712   -5.9967 H   0  0  0  0  0  0  0  0  0  0  0  0
   -1.3147   -2.7314   -7.4891 H   0  0  0  0  0  0  0  0  0  0  0  0
   -1.2313    0.2908   -6.6045 H   0  0  0  0  0  0  0  0  0  0  0  0
   -2.7534    0.6125   -7.4927 H   0  0  0  0  0  0  0  0  0  0  0  0
   -1.5053   -0.4034   -8.2770 H   0  0  0  0  0  0  0  0  0  0  0  0
   -2.3223   -2.6600   -3.1968 H   0  0  0  0  0  0  0  0  0  0  0  0
   -1.2188   -1.5809   -1.3546 H   0  0  0  0  0  0  0  0  0  0  0  0
   -5.6943    4.0235    0.6030 H   0  0  0  0  0  0  0  0  0  0  0  0
   -6.6923    5.3875    3.9180 H   0  0  0  0  0  0  0  0  0  0  0  0
   -9.1917    0.8404    0.3166 H   0  0  0  0  0  0  0  0  0  0  0  0
  -12.1500    4.6936    1.8455 H   0  0  0  0  0  0  0  0  0  0  0  0
  -13.4204    3.0680   -0.8850 H   0  0  0  0  0  0  0  0  0  0  0  0
  -14.8475    2.2726    1.3684 H   0  0  0  0  0  0  0  0  0  0  0  0
  -16.0631    1.0774   -0.6622 H   0  0  0  0  0  0  0  0  0  0  0  0
  -14.5417   -0.8781   -1.5021 H   0  0  0  0  0  0  0  0  0  0  0  0
  -12.3561   -0.9299    0.0098 H   0  0  0  0  0  0  0  0  0  0  0  0
  -12.7733    0.7326    2.0749 H   0  0  0  0  0  0  0  0  0  0  0  0
  -14.2451   -0.2814    1.7735 H   0  0  0  0  0  0  0  0  0  0  0  0
  -12.0332    1.2817   -1.6350 H   0  0  0  0  0  0  0  0  0  0  0  0
  1  2  2  3
  2  3  1  0
  3  4  2  0
  3  5  1  0
  5  6  2  0
  6  7  1  0
  7  8  2  0
  8  9  1  0
  9 10  2  0
 10 11  1  0
 11 12  2  3
 12 13  1  0
 13 14  3  0
 12 15  1  0
 15 16  3  0
  8 17  1  0
 17 18  1  0
 18 19  1  0
 19 20  2  0
 20 21  1  0
 21 22  1  0
 21 23  1  0
  1 24  1  0
 24 25  2  0
 25 26  1  0
 26 27  1  0
 27 28  1  0
 28 29  1  0
 29 30  2  0
 30 31  1  0
 31 32  1  0
 32 33  1  0
 33 34  2  0
 34 35  1  0
 35 36  2  0
 36 37  1  0
 37 38  1  0
 38 39  1  0
 39 40  1  0
 40 41  1  0
 36 42  1  0
 42 43  2  0
 32 44  1  0
 44 45  2  0
 45 46  1  0
 46 47  2  0
 47 48  1  0
 48 49  1  0
 49 50  1  0
 50 51  1  0
 51 52  1  0
 47 53  1  0
 53 54  2  0
 32 55  1  0
 55 56  2  0
 56 57  1  0
 57 58  1  0
 58 59  2  0
 59 60  1  0
 60 61  1  0
 61 62  2  0
 62 63  1  0
 63 64  2  0
 64 65  1  0
 65 66  1  0
 66 67  1  0
 67 68  1  0
 68 69  1  0
 64 70  1  0
 70 71  2  0
 60 72  1  0
 72 73  2  0
 73 74  1  0
 74 75  2  0
 75 76  1  0
 76 77  1  0
 77 78  1  0
 78 79  1  0
 79 80  1  0
 75 81  1  0
 81 82  2  0
 60 83  1  0
 83 84  1  0
 84 85  1  0
 56 86  1  0
 86 87  1  0
 87 88  1  0
 88 89  2  0
 89 90  1  0
 90 91  1  0
 89 92  1  0
 92 93  2  3
 93 94  1  0
 94 95  2  0
 94 96  1  0
 96 97  2  0
 97 98  1  0
 98 99  2  0
 99100  1  0
100101  2  0
101102  1  0
102103  2  3
103104  1  0
104105  3  0
103106  1  0
106107  3  0
 99108  1  0
108109  1  0
109110  1  0
110111  2  0
111112  1  0
112113  1  0
112114  1  0
 11  2  1  0
 23 17  1  0
 85 24  1  0
 91 87  2  0
102 93  1  0
114108  1  0
 10  5  1  0
 22 18  1  0
 84 26  2  0
101 96  1  0
113109  1  0
 23  7  1  0
 83 28  2  0
114 98  1  0
 59 29  1  0
 71 61  1  0
 82 72  1  0
 57 31  2  0
 43 33  1  0
 54 44  1  0
 91 55  1  0
  1115  1  0
  6116  1  0
  9117  1  0
 17118  1  0
 18119  1  0
 19120  1  0
 20121  1  0
 21122  1  0
 22123  1  0
 22124  1  0
 23125  1  0
 25126  1  0
 30127  1  0
 34128  1  0
 35129  1  0
 37130  1  0
 37131  1  0
 39132  1  0
 39133  1  0
 41134  1  0
 41135  1  0
 41136  1  0
 42137  1  0
 43138  1  0
 45139  1  0
 46140  1  0
 48141  1  0
 48142  1  0
 50143  1  0
 50144  1  0
 52145  1  0
 52146  1  0
 52147  1  0
 53148  1  0
 54149  1  0
 58150  1  0
 62151  1  0
 63152  1  0
 65153  1  0
 65154  1  0
 67155  1  0
 67156  1  0
 69157  1  0
 69158  1  0
 69159  1  0
 70160  1  0
 71161  1  0
 73162  1  0
 74163  1  0
 76164  1  0
 76165  1  0
 78166  1  0
 78167  1  0
 80168  1  0
 80169  1  0
 80170  1  0
 81171  1  0
 82172  1  0
 88173  1  0
 92174  1  0
 97175  1  0
100176  1  0
108177  1  0
109178  1  0
110179  1  0
111180  1  0
112181  1  0
113182  1  0
113183  1  0
114184  1  0
M  END

