
     RDKit          3D

143162  0  0  0  0  0  0  0  0999 V2000
   -6.7754   -3.9541   -0.1596 C   0  0  0  0  0  0  0  0  0  0  0  0
   -6.6009   -3.9883    1.1770 C   0  0  0  0  0  0  0  0  0  0  0  0
   -5.5528   -3.2770    1.9192 C   0  0  0  0  0  0  0  0  0  0  0  0
   -4.8741   -2.2991    1.5064 O   0  0  0  0  0  0  0  0  0  0  0  0
   -5.4474   -3.8566    3.2373 C   0  0  0  0  0  0  0  0  0  0  0  0
   -4.4843   -3.5529    4.2259 C   0  0  0  0  0  0  0  0  0  0  0  0
   -4.5675   -4.3526    5.3496 C   0  0  0  0  0  0  0  0  0  0  0  0
   -5.5298   -5.4037    5.4931 C   0  0  0  0  0  0  0  0  0  0  0  0
   -6.4815   -5.7013    4.5307 C   0  0  0  0  0  0  0  0  0  0  0  0
   -6.4377   -4.8625    3.3803 C   0  0  0  0  0  0  0  0  0  0  0  0
   -7.2880   -4.8857    2.1548 C   0  0  0  0  0  0  0  0  0  0  0  0
   -8.5490   -5.3757    2.0623 C   0  0  0  0  0  0  0  0  0  0  0  0
   -9.1875   -6.0789    3.1447 C   0  0  0  0  0  0  0  0  0  0  0  0
   -9.7166   -6.6425    4.0065 N   0  0  0  0  0  0  0  0  0  0  0  0
   -9.4050   -5.0950    0.9372 C   0  0  0  0  0  0  0  0  0  0  0  0
  -10.1034   -4.8719    0.0411 N   0  0  0  0  0  0  0  0  0  0  0  0
   -4.9670   -5.7567    6.8379 C   0  0  0  0  0  0  0  0  0  0  0  0
   -5.8117   -5.3323    8.0733 C   0  0  0  0  0  0  0  0  0  0  0  0
   -4.8847   -5.4216    9.2619 C   0  0  0  0  0  0  0  0  0  0  0  0
   -4.0030   -4.4231    9.1317 C   0  0  0  0  0  0  0  0  0  0  0  0
   -4.3619   -3.6968    7.8574 C   0  0  0  0  0  0  0  0  0  0  0  0
   -5.8740   -3.8193    7.9412 C   0  0  0  0  0  0  0  0  0  0  0  0
   -3.9930   -4.6679    6.6971 C   0  0  0  0  0  0  0  0  0  0  0  0
   -5.9279   -3.1523   -1.0506 C   0  0  0  0  0  0  0  0  0  0  0  0
   -6.3501   -2.0518   -1.8205 C   0  0  0  0  0  0  0  0  0  0  0  0
   -7.7145   -1.4798   -1.8279 C   0  0  0  0  0  0  0  0  0  0  0  0
   -8.4025   -1.2524   -0.6247 C   0  0  0  0  0  0  0  0  0  0  0  0
   -9.6896   -0.7099   -0.6397 C   0  0  0  0  0  0  0  0  0  0  0  0
  -10.2985   -0.3811   -1.8519 C   0  0  0  0  0  0  0  0  0  0  0  0
   -9.6200   -0.5886   -3.0631 C   0  0  0  0  0  0  0  0  0  0  0  0
  -10.2927   -0.2723   -4.3728 C   0  0  0  0  0  0  0  0  0  0  0  0
  -11.1309   -1.4554   -4.8487 C   0  0  0  0  0  0  0  0  0  0  0  0
   -8.3328   -1.1480   -3.0460 C   0  0  0  0  0  0  0  0  0  0  0  0
   -5.2753   -1.5195   -2.5355 C   0  0  0  0  0  0  0  0  0  0  0  0
   -5.0782   -0.0865   -3.4459 S   0  0  0  0  0  0  0  0  0  0  0  0
   -3.4148   -0.3897   -3.5932 C   0  0  0  0  0  0  0  0  0  0  0  0
   -2.3025    0.1896   -4.1162 C   0  0  0  0  0  0  0  0  0  0  0  0
   -2.1705    1.3522   -4.8713 C   0  0  0  0  0  0  0  0  0  0  0  0
   -0.8791    1.7347   -5.3087 C   0  0  0  0  0  0  0  0  0  0  0  0
   -0.7869    2.8812   -6.0278 N   0  0  0  0  0  0  0  0  0  0  0  0
   -2.3821    3.3226   -6.0593 S   0  0  0  0  0  0  0  0  0  0  0  0
   -3.2042    2.1624   -5.2146 N   0  0  0  0  0  0  0  0  0  0  0  0
    0.2157    0.9496   -4.9397 C   0  0  0  0  0  0  0  0  0  0  0  0
    1.5429    1.2491   -5.0098 C   0  0  0  0  0  0  0  0  0  0  0  0
    2.4458    2.6546   -5.3143 S   0  0  0  0  0  0  0  0  0  0  0  0
    3.7725    2.0199   -4.4586 C   0  0  0  0  0  0  0  0  0  0  0  0
    4.9620    2.5938   -4.0189 C   0  0  0  0  0  0  0  0  0  0  0  0
    5.3478    3.9904   -4.2658 C   0  0  0  0  0  0  0  0  0  0  0  0
    5.0983    4.9651   -3.2896 C   0  0  0  0  0  0  0  0  0  0  0  0
    5.5006    6.2858   -3.4978 C   0  0  0  0  0  0  0  0  0  0  0  0
    6.1605    6.6391   -4.6763 C   0  0  0  0  0  0  0  0  0  0  0  0
    6.4299    5.6695   -5.6561 C   0  0  0  0  0  0  0  0  0  0  0  0
    7.1314    6.0582   -6.9294 C   0  0  0  0  0  0  0  0  0  0  0  0
    6.1441    6.6342   -7.9382 C   0  0  0  0  0  0  0  0  0  0  0  0
    6.0032    4.3457   -5.4525 C   0  0  0  0  0  0  0  0  0  0  0  0
    5.6194    1.7520   -3.1137 C   0  0  0  0  0  0  0  0  0  0  0  0
    4.7067    0.3371   -2.8567 S   0  0  0  0  0  0  0  0  0  0  0  0
    3.4852    0.7859   -3.9218 C   0  0  0  0  0  0  0  0  0  0  0  0
    2.1998    0.3473   -4.2394 C   0  0  0  0  0  0  0  0  0  0  0  0
    1.3627   -0.5664   -3.6790 N   0  0  0  0  0  0  0  0  0  0  0  0
    0.1070   -0.2080   -4.1357 C   0  0  0  0  0  0  0  0  0  0  0  0
   -1.2148   -0.6384   -3.7604 C   0  0  0  0  0  0  0  0  0  0  0  0
   -1.6864   -1.7552   -3.0910 N   0  0  0  0  0  0  0  0  0  0  0  0
   -3.0203   -1.5255   -2.9852 C   0  0  0  0  0  0  0  0  0  0  0  0
   -4.0810   -2.1797   -2.3725 C   0  0  0  0  0  0  0  0  0  0  0  0
   -4.2667   -3.4557   -1.3039 S   0  0  0  0  0  0  0  0  0  0  0  0
   -1.0873   -3.0797   -2.8899 C   0  0  0  0  0  0  0  0  0  0  0  0
   -0.5439   -3.6545   -4.1980 C   0  0  0  0  0  0  0  0  0  0  0  0
    1.7688   -1.4909   -2.6176 C   0  0  0  0  0  0  0  0  0  0  0  0
    1.2929   -1.0111   -1.2489 C   0  0  0  0  0  0  0  0  0  0  0  0
    6.8959    2.0595   -2.4569 C   0  0  0  0  0  0  0  0  0  0  0  0
    6.9808    2.5012   -1.1909 C   0  0  0  0  0  0  0  0  0  0  0  0
    5.8394    2.8693   -0.3434 C   0  0  0  0  0  0  0  0  0  0  0  0
    4.6350    2.5570   -0.5318 O   0  0  0  0  0  0  0  0  0  0  0  0
    6.3163    3.7197    0.7256 C   0  0  0  0  0  0  0  0  0  0  0  0
    5.5331    4.3989    1.6878 C   0  0  0  0  0  0  0  0  0  0  0  0
    6.2632    5.2270    2.5197 C   0  0  0  0  0  0  0  0  0  0  0  0
    7.6830    5.3950    2.4074 C   0  0  0  0  0  0  0  0  0  0  0  0
    8.4536    4.7391    1.4612 C   0  0  0  0  0  0  0  0  0  0  0  0
    7.7250    3.8548    0.6173 C   0  0  0  0  0  0  0  0  0  0  0  0
    8.2088    3.0060   -0.5064 C   0  0  0  0  0  0  0  0  0  0  0  0
    9.4813    2.5781   -0.7111 C   0  0  0  0  0  0  0  0  0  0  0  0
    9.8081    1.5738   -1.6923 C   0  0  0  0  0  0  0  0  0  0  0  0
   10.0792    0.7664   -2.4759 N   0  0  0  0  0  0  0  0  0  0  0  0
   10.5744    2.9661    0.1410 C   0  0  0  0  0  0  0  0  0  0  0  0
   11.4619    3.2573    0.8226 N   0  0  0  0  0  0  0  0  0  0  0  0
    7.6770    6.3574    3.5564 C   0  0  0  0  0  0  0  0  0  0  0  0
    8.2131    5.8152    4.9140 C   0  0  0  0  0  0  0  0  0  0  0  0
    7.7483    6.7976    5.9615 C   0  0  0  0  0  0  0  0  0  0  0  0
    6.4224    6.6447    6.0635 C   0  0  0  0  0  0  0  0  0  0  0  0
    6.0384    5.5617    5.0834 C   0  0  0  0  0  0  0  0  0  0  0  0
    7.2622    4.6733    5.2284 C   0  0  0  0  0  0  0  0  0  0  0  0
    6.2234    6.1856    3.6695 C   0  0  0  0  0  0  0  0  0  0  0  0
   -7.5198   -4.5658   -0.6402 H   0  0  0  0  0  0  0  0  0  0  0  0
   -3.7339   -2.7820    4.1068 H   0  0  0  0  0  0  0  0  0  0  0  0
   -7.1621   -6.5288    4.6586 H   0  0  0  0  0  0  0  0  0  0  0  0
   -4.5173   -6.7737    6.8843 H   0  0  0  0  0  0  0  0  0  0  0  0
   -6.7857   -5.8513    8.1902 H   0  0  0  0  0  0  0  0  0  0  0  0
   -4.9669   -6.0925   10.1111 H   0  0  0  0  0  0  0  0  0  0  0  0
   -3.2450   -4.1440    9.8549 H   0  0  0  0  0  0  0  0  0  0  0  0
   -3.9618   -2.6646    7.7705 H   0  0  0  0  0  0  0  0  0  0  0  0
   -6.3128   -3.3157    8.8369 H   0  0  0  0  0  0  0  0  0  0  0  0
   -6.4113   -3.4611    7.0358 H   0  0  0  0  0  0  0  0  0  0  0  0
   -2.9285   -4.9964    6.6643 H   0  0  0  0  0  0  0  0  0  0  0  0
   -7.9393   -1.4786    0.3269 H   0  0  0  0  0  0  0  0  0  0  0  0
  -10.2134   -0.5360    0.2909 H   0  0  0  0  0  0  0  0  0  0  0  0
  -11.2996    0.0302   -1.8493 H   0  0  0  0  0  0  0  0  0  0  0  0
   -9.5335   -0.0270   -5.1481 H   0  0  0  0  0  0  0  0  0  0  0  0
  -10.9486    0.6191   -4.2604 H   0  0  0  0  0  0  0  0  0  0  0  0
  -10.4875   -2.3496   -4.9967 H   0  0  0  0  0  0  0  0  0  0  0  0
  -11.6166   -1.2033   -5.8160 H   0  0  0  0  0  0  0  0  0  0  0  0
  -11.9227   -1.6901   -4.1053 H   0  0  0  0  0  0  0  0  0  0  0  0
   -7.8189   -1.3382   -3.9809 H   0  0  0  0  0  0  0  0  0  0  0  0
    4.5908    4.7031   -2.3709 H   0  0  0  0  0  0  0  0  0  0  0  0
    5.3009    7.0364   -2.7452 H   0  0  0  0  0  0  0  0  0  0  0  0
    6.4623    7.6667   -4.8267 H   0  0  0  0  0  0  0  0  0  0  0  0
    7.6375    5.1751   -7.3764 H   0  0  0  0  0  0  0  0  0  0  0  0
    7.9167    6.8146   -6.7115 H   0  0  0  0  0  0  0  0  0  0  0  0
    5.6723    7.5565   -7.5329 H   0  0  0  0  0  0  0  0  0  0  0  0
    5.3508    5.8910   -8.1685 H   0  0  0  0  0  0  0  0  0  0  0  0
    6.6774    6.8927   -8.8770 H   0  0  0  0  0  0  0  0  0  0  0  0
    6.1969    3.5904   -6.2064 H   0  0  0  0  0  0  0  0  0  0  0  0
   -0.3637   -3.0661   -2.0612 H   0  0  0  0  0  0  0  0  0  0  0  0
   -1.8533   -3.7985   -2.5406 H   0  0  0  0  0  0  0  0  0  0  0  0
   -1.3874   -3.8665   -4.8918 H   0  0  0  0  0  0  0  0  0  0  0  0
   -0.0041   -4.6058   -3.9922 H   0  0  0  0  0  0  0  0  0  0  0  0
    0.1521   -2.9543   -4.7027 H   0  0  0  0  0  0  0  0  0  0  0  0
    2.8691   -1.5810   -2.5809 H   0  0  0  0  0  0  0  0  0  0  0  0
    1.4723   -2.5168   -2.8555 H   0  0  0  0  0  0  0  0  0  0  0  0
    1.5300   -1.7830   -0.4842 H   0  0  0  0  0  0  0  0  0  0  0  0
    0.1964   -0.8266   -1.2426 H   0  0  0  0  0  0  0  0  0  0  0  0
    1.8161   -0.0686   -0.9788 H   0  0  0  0  0  0  0  0  0  0  0  0
    7.7638    2.0692   -3.0975 H   0  0  0  0  0  0  0  0  0  0  0  0
    4.4569    4.2972    1.7581 H   0  0  0  0  0  0  0  0  0  0  0  0
    9.5097    4.9367    1.3782 H   0  0  0  0  0  0  0  0  0  0  0  0
    8.0016    7.3862    3.2800 H   0  0  0  0  0  0  0  0  0  0  0  0
    9.2932    5.5672    4.9395 H   0  0  0  0  0  0  0  0  0  0  0  0
    8.3639    7.4454    6.5757 H   0  0  0  0  0  0  0  0  0  0  0  0
    5.7756    7.1477    6.7742 H   0  0  0  0  0  0  0  0  0  0  0  0
    5.0584    5.0749    5.2731 H   0  0  0  0  0  0  0  0  0  0  0  0
    7.3919    4.2607    6.2581 H   0  0  0  0  0  0  0  0  0  0  0  0
    7.3053    3.8294    4.5026 H   0  0  0  0  0  0  0  0  0  0  0  0
    5.6304    7.1051    3.4675 H   0  0  0  0  0  0  0  0  0  0  0  0
  1  2  2  3
  2  3  1  0
  3  4  2  0
  3  5  1  0
  5  6  2  0
  6  7  1  0
  7  8  2  0
  8  9  1  0
  9 10  2  0
 10 11  1  0
 11 12  2  3
 12 13  1  0
 13 14  3  0
 12 15  1  0
 15 16  3  0
  8 17  1  0
 17 18  1  0
 18 19  1  0
 19 20  2  0
 20 21  1  0
 21 22  1  0
 21 23  1  0
  1 24  1  0
 24 25  2  0
 25 26  1  0
 26 27  2  0
 27 28  1  0
 28 29  2  0
 29 30  1  0
 30 31  1  0
 31 32  1  0
 30 33  2  0
 25 34  1  0
 34 35  1  0
 35 36  1  0
 36 37  1  0
 37 38  1  0
 38 39  1  0
 39 40  2  0
 40 41  1  0
 41 42  1  0
 39 43  1  0
 43 44  1  0
 44 45  1  0
 45 46  1  0
 46 47  1  0
 47 48  1  0
 48 49  2  0
 49 50  1  0
 50 51  2  0
 51 52  1  0
 52 53  1  0
 53 54  1  0
 52 55  2  0
 47 56  2  0
 56 57  1  0
 57 58  1  0
 58 59  1  0
 59 60  1  0
 60 61  1  0
 61 62  1  0
 62 63  1  0
 63 64  1  0
 64 65  1  0
 65 66  1  0
 63 67  1  0
 67 68  1  0
 60 69  1  0
 69 70  1  0
 56 71  1  0
 71 72  2  3
 72 73  1  0
 73 74  2  0
 73 75  1  0
 75 76  2  0
 76 77  1  0
 77 78  2  0
 78 79  1  0
 79 80  2  0
 80 81  1  0
 81 82  2  3
 82 83  1  0
 83 84  3  0
 82 85  1  0
 85 86  3  0
 78 87  1  0
 87 88  1  0
 88 89  1  0
 89 90  2  0
 90 91  1  0
 91 92  1  0
 91 93  1  0
 11  2  1  0
 23 17  1  0
 66 24  1  0
 81 72  1  0
 93 87  1  0
 10  5  1  0
 22 18  1  0
 33 26  1  0
 65 34  2  0
 80 75  1  0
 92 88  1  0
 23  7  1  0
 64 36  2  0
 93 77  1  0
 62 37  2  0
 42 38  2  0
 61 43  2  0
 59 44  2  0
 58 46  2  0
 55 48  1  0
  1 94  1  0
  6 95  1  0
  9 96  1  0
 17 97  1  0
 18 98  1  0
 19 99  1  0
 20100  1  0
 21101  1  0
 22102  1  0
 22103  1  0
 23104  1  0
 27105  1  0
 28106  1  0
 29107  1  0
 31108  1  0
 31109  1  0
 32110  1  0
 32111  1  0
 32112  1  0
 33113  1  0
 49114  1  0
 50115  1  0
 51116  1  0
 53117  1  0
 53118  1  0
 54119  1  0
 54120  1  0
 54121  1  0
 55122  1  0
 67123  1  0
 67124  1  0
 68125  1  0
 68126  1  0
 68127  1  0
 69128  1  0
 69129  1  0
 70130  1  0
 70131  1  0
 70132  1  0
 71133  1  0
 76134  1  0
 79135  1  0
 87136  1  0
 88137  1  0
 89138  1  0
 90139  1  0
 91140  1  0
 92141  1  0
 92142  1  0
 93143  1  0
M  END

