
     RDKit          3D

171188  0  0  0  0  0  0  0  0999 V2000
    4.3834   -4.0604   -4.3795 C   0  0  0  0  0  0  0  0  0  0  0  0
    4.6823   -2.8988   -4.9873 C   0  0  0  0  0  0  0  0  0  0  0  0
    4.0594   -1.6054   -4.6680 C   0  0  0  0  0  0  0  0  0  0  0  0
    2.8452   -1.4170   -4.3831 O   0  0  0  0  0  0  0  0  0  0  0  0
    5.0670   -0.5728   -4.7463 C   0  0  0  0  0  0  0  0  0  0  0  0
    4.9674    0.7396   -4.2335 C   0  0  0  0  0  0  0  0  0  0  0  0
    6.1753    1.4087   -4.1788 C   0  0  0  0  0  0  0  0  0  0  0  0
    7.4114    0.8311   -4.5993 C   0  0  0  0  0  0  0  0  0  0  0  0
    7.5151   -0.4440   -5.1288 C   0  0  0  0  0  0  0  0  0  0  0  0
    6.2814   -1.1548   -5.1990 C   0  0  0  0  0  0  0  0  0  0  0  0
    6.0350   -2.5835   -5.5275 C   0  0  0  0  0  0  0  0  0  0  0  0
    6.8093   -3.4045   -6.2815 C   0  0  0  0  0  0  0  0  0  0  0  0
    8.1105   -3.0073   -6.7561 C   0  0  0  0  0  0  0  0  0  0  0  0
    9.1665   -2.6821   -7.1176 N   0  0  0  0  0  0  0  0  0  0  0  0
    6.3444   -4.6980   -6.7010 C   0  0  0  0  0  0  0  0  0  0  0  0
    5.9825   -5.7411   -7.0533 N   0  0  0  0  0  0  0  0  0  0  0  0
    8.1594    2.0503   -4.1489 C   0  0  0  0  0  0  0  0  0  0  0  0
    8.6623    3.0068   -5.2675 C   0  0  0  0  0  0  0  0  0  0  0  0
    9.0063    4.3044   -4.5844 C   0  0  0  0  0  0  0  0  0  0  0  0
    7.8433    4.8522   -4.2101 C   0  0  0  0  0  0  0  0  0  0  0  0
    6.7575    3.8992   -4.6555 C   0  0  0  0  0  0  0  0  0  0  0  0
    7.3798    3.4364   -5.9627 C   0  0  0  0  0  0  0  0  0  0  0  0
    6.8859    2.6503   -3.7356 C   0  0  0  0  0  0  0  0  0  0  0  0
    3.4607   -4.1155   -3.2394 C   0  0  0  0  0  0  0  0  0  0  0  0
    3.8837   -3.9069   -1.9212 C   0  0  0  0  0  0  0  0  0  0  0  0
    2.7939   -3.7680   -1.0775 C   0  0  0  0  0  0  0  0  0  0  0  0
    2.6550   -3.1436    0.4920 S   0  0  0  0  0  0  0  0  0  0  0  0
    0.9643   -3.0718    0.3542 C   0  0  0  0  0  0  0  0  0  0  0  0
   -0.0553   -2.3178    1.0317 C   0  0  0  0  0  0  0  0  0  0  0  0
    0.0287   -1.5532    2.1968 C   0  0  0  0  0  0  0  0  0  0  0  0
   -1.1120   -0.8359    2.5741 C   0  0  0  0  0  0  0  0  0  0  0  0
   -1.2902    0.0995    3.7720 C   0  0  0  0  0  0  0  0  0  0  0  0
   -0.5455    1.4346    3.6208 C   0  0  0  0  0  0  0  0  0  0  0  0
   -0.2855    2.2333    4.7544 C   0  0  0  0  0  0  0  0  0  0  0  0
    0.2120    3.5297    4.6274 C   0  0  0  0  0  0  0  0  0  0  0  0
    0.4359    4.0827    3.3588 C   0  0  0  0  0  0  0  0  0  0  0  0
    0.9426    5.4968    3.2270 C   0  0  0  0  0  0  0  0  0  0  0  0
    0.2918    6.3676    4.1420 O   0  0  0  0  0  0  0  0  0  0  0  0
   -0.8972    6.8725    3.5888 C   0  0  0  0  0  0  0  0  0  0  0  0
   -1.5470    7.6497    4.5832 O   0  0  0  0  0  0  0  0  0  0  0  0
   -2.7548    8.1651    4.0699 C   0  0  0  0  0  0  0  0  0  0  0  0
    0.2133    3.2932    2.2200 C   0  0  0  0  0  0  0  0  0  0  0  0
   -0.2819    1.9925    2.3451 C   0  0  0  0  0  0  0  0  0  0  0  0
   -0.9121   -0.6647    5.0456 C   0  0  0  0  0  0  0  0  0  0  0  0
    0.4475   -0.7719    5.4097 C   0  0  0  0  0  0  0  0  0  0  0  0
    0.8368   -1.5387    6.5059 C   0  0  0  0  0  0  0  0  0  0  0  0
   -0.1138   -2.2378    7.2591 C   0  0  0  0  0  0  0  0  0  0  0  0
    0.3069   -3.0757    8.4393 C   0  0  0  0  0  0  0  0  0  0  0  0
    1.5395   -3.7295    8.1932 O   0  0  0  0  0  0  0  0  0  0  0  0
    1.3218   -4.9449    7.4997 C   0  0  0  0  0  0  0  0  0  0  0  0
    2.5508   -5.4506    7.0262 O   0  0  0  0  0  0  0  0  0  0  0  0
    3.2851   -6.0245    8.0853 C   0  0  0  0  0  0  0  0  0  0  0  0
   -1.4716   -2.1164    6.9228 C   0  0  0  0  0  0  0  0  0  0  0  0
   -1.8658   -1.3461    5.8242 C   0  0  0  0  0  0  0  0  0  0  0  0
   -2.7739    0.3801    3.6307 C   0  0  0  0  0  0  0  0  0  0  0  0
   -3.3056   -0.1934    2.5036 C   0  0  0  0  0  0  0  0  0  0  0  0
   -2.2850   -0.9384    1.8163 C   0  0  0  0  0  0  0  0  0  0  0  0
   -2.3384   -1.6195    0.5956 C   0  0  0  0  0  0  0  0  0  0  0  0
   -1.1791   -2.3052    0.2015 C   0  0  0  0  0  0  0  0  0  0  0  0
   -0.8871   -2.9490   -1.1571 C   0  0  0  0  0  0  0  0  0  0  0  0
   -0.7898   -1.8848   -2.2680 C   0  0  0  0  0  0  0  0  0  0  0  0
   -0.2355   -0.6156   -1.9912 C   0  0  0  0  0  0  0  0  0  0  0  0
   -0.0073    0.3144   -3.0044 C   0  0  0  0  0  0  0  0  0  0  0  0
   -0.2708   -0.0189   -4.3409 C   0  0  0  0  0  0  0  0  0  0  0  0
   -0.0635    1.0009   -5.4270 C   0  0  0  0  0  0  0  0  0  0  0  0
    0.5782    0.4021   -6.5358 O   0  0  0  0  0  0  0  0  0  0  0  0
    0.6225    1.3212   -7.6063 C   0  0  0  0  0  0  0  0  0  0  0  0
    1.2686    0.7303   -8.7174 O   0  0  0  0  0  0  0  0  0  0  0  0
    2.6692    0.7478   -8.5192 C   0  0  0  0  0  0  0  0  0  0  0  0
   -0.8099   -1.2776   -4.6370 C   0  0  0  0  0  0  0  0  0  0  0  0
   -1.0427   -2.2094   -3.6223 C   0  0  0  0  0  0  0  0  0  0  0  0
   -1.8997   -4.0771   -1.4177 C   0  0  0  0  0  0  0  0  0  0  0  0
   -3.1884   -3.7696   -1.9042 C   0  0  0  0  0  0  0  0  0  0  0  0
   -4.1289   -4.7831   -2.1312 C   0  0  0  0  0  0  0  0  0  0  0  0
   -3.8197   -6.1170   -1.8377 C   0  0  0  0  0  0  0  0  0  0  0  0
   -4.8153   -7.2143   -2.1075 C   0  0  0  0  0  0  0  0  0  0  0  0
   -4.3824   -8.0165   -3.1917 O   0  0  0  0  0  0  0  0  0  0  0  0
   -4.8659   -7.5010   -4.4163 C   0  0  0  0  0  0  0  0  0  0  0  0
   -6.1975   -7.9299   -4.6107 O   0  0  0  0  0  0  0  0  0  0  0  0
   -6.7305   -7.3028   -5.7598 C   0  0  0  0  0  0  0  0  0  0  0  0
   -2.5578   -6.4262   -1.3121 C   0  0  0  0  0  0  0  0  0  0  0  0
   -1.6136   -5.4215   -1.0952 C   0  0  0  0  0  0  0  0  0  0  0  0
    0.5147   -3.4551   -0.8806 C   0  0  0  0  0  0  0  0  0  0  0  0
    1.5700   -3.8644   -1.6892 C   0  0  0  0  0  0  0  0  0  0  0  0
    1.7616   -4.1073   -3.3352 S   0  0  0  0  0  0  0  0  0  0  0  0
   -4.8118    0.4579    2.0706 S   0  0  0  0  0  0  0  0  0  0  0  0
   -4.7851    1.4867    3.4185 C   0  0  0  0  0  0  0  0  0  0  0  0
   -5.5875    2.5572    3.7951 C   0  0  0  0  0  0  0  0  0  0  0  0
   -4.9875    3.2794    4.8360 C   0  0  0  0  0  0  0  0  0  0  0  0
   -3.5083    2.5683    5.2820 S   0  0  0  0  0  0  0  0  0  0  0  0
   -3.6299    1.3464    4.1356 C   0  0  0  0  0  0  0  0  0  0  0  0
   -5.4898    4.5324    5.4185 C   0  0  0  0  0  0  0  0  0  0  0  0
   -5.7980    5.6276    4.6931 C   0  0  0  0  0  0  0  0  0  0  0  0
   -5.6797    5.7517    3.2240 C   0  0  0  0  0  0  0  0  0  0  0  0
   -5.0748    4.9698    2.4395 O   0  0  0  0  0  0  0  0  0  0  0  0
   -6.2721    7.0057    2.8402 C   0  0  0  0  0  0  0  0  0  0  0  0
   -6.6828    7.6970    3.9556 C   0  0  0  0  0  0  0  0  0  0  0  0
   -7.1917    8.9641    3.6825 C   0  0  0  0  0  0  0  0  0  0  0  0
   -7.1083    9.1641    2.0033 S   0  0  0  0  0  0  0  0  0  0  0  0
   -6.4433    7.6564    1.6297 C   0  0  0  0  0  0  0  0  0  0  0  0
   -5.9774    7.2062    0.2848 C   0  0  0  0  0  0  0  0  0  0  0  0
   -6.3668    6.9346    5.1894 C   0  0  0  0  0  0  0  0  0  0  0  0
   -6.4701    7.3975    6.4614 C   0  0  0  0  0  0  0  0  0  0  0  0
   -5.9594    6.6894    7.6044 C   0  0  0  0  0  0  0  0  0  0  0  0
   -5.5503    6.1360    8.5355 N   0  0  0  0  0  0  0  0  0  0  0  0
   -7.0443    8.6853    6.7560 C   0  0  0  0  0  0  0  0  0  0  0  0
   -7.5060    9.7160    7.0109 N   0  0  0  0  0  0  0  0  0  0  0  0
    5.0793   -4.8873   -4.4524 H   0  0  0  0  0  0  0  0  0  0  0  0
    4.0548    1.1593   -3.8349 H   0  0  0  0  0  0  0  0  0  0  0  0
    8.4783   -0.8633   -5.3641 H   0  0  0  0  0  0  0  0  0  0  0  0
    8.8739    1.8559   -3.3174 H   0  0  0  0  0  0  0  0  0  0  0  0
    9.4662    2.6014   -5.9241 H   0  0  0  0  0  0  0  0  0  0  0  0
    9.9835    4.7718   -4.5077 H   0  0  0  0  0  0  0  0  0  0  0  0
    7.7135    5.8409   -3.7694 H   0  0  0  0  0  0  0  0  0  0  0  0
    5.7404    4.3394   -4.7305 H   0  0  0  0  0  0  0  0  0  0  0  0
    6.8224    2.6137   -6.4614 H   0  0  0  0  0  0  0  0  0  0  0  0
    7.5331    4.2547   -6.7027 H   0  0  0  0  0  0  0  0  0  0  0  0
    6.8161    2.8428   -2.6429 H   0  0  0  0  0  0  0  0  0  0  0  0
    4.9109   -3.7524   -1.6201 H   0  0  0  0  0  0  0  0  0  0  0  0
    0.9455   -1.5026    2.7645 H   0  0  0  0  0  0  0  0  0  0  0  0
   -0.5159    1.8687    5.7487 H   0  0  0  0  0  0  0  0  0  0  0  0
    0.3938    4.1108    5.5206 H   0  0  0  0  0  0  0  0  0  0  0  0
    0.8767    5.8616    2.1743 H   0  0  0  0  0  0  0  0  0  0  0  0
    2.0239    5.4879    3.4729 H   0  0  0  0  0  0  0  0  0  0  0  0
   -1.5664    6.0308    3.2716 H   0  0  0  0  0  0  0  0  0  0  0  0
   -0.6547    7.5211    2.7092 H   0  0  0  0  0  0  0  0  0  0  0  0
   -3.2447    8.7791    4.8566 H   0  0  0  0  0  0  0  0  0  0  0  0
   -3.4564    7.3459    3.8021 H   0  0  0  0  0  0  0  0  0  0  0  0
   -2.5751    8.8246    3.1930 H   0  0  0  0  0  0  0  0  0  0  0  0
    0.4023    3.6936    1.2290 H   0  0  0  0  0  0  0  0  0  0  0  0
   -0.4832    1.4373    1.4396 H   0  0  0  0  0  0  0  0  0  0  0  0
    1.2166   -0.2792    4.8274 H   0  0  0  0  0  0  0  0  0  0  0  0
    1.8918   -1.5996    6.7521 H   0  0  0  0  0  0  0  0  0  0  0  0
    0.4491   -2.4008    9.3107 H   0  0  0  0  0  0  0  0  0  0  0  0
   -0.4961   -3.7908    8.7367 H   0  0  0  0  0  0  0  0  0  0  0  0
    0.7993   -5.6909    8.1531 H   0  0  0  0  0  0  0  0  0  0  0  0
    0.6780   -4.7805    6.6081 H   0  0  0  0  0  0  0  0  0  0  0  0
    2.7902   -6.9522    8.4563 H   0  0  0  0  0  0  0  0  0  0  0  0
    4.2887   -6.3095    7.7114 H   0  0  0  0  0  0  0  0  0  0  0  0
    3.4331   -5.3036    8.9184 H   0  0  0  0  0  0  0  0  0  0  0  0
   -2.2273   -2.6200    7.5077 H   0  0  0  0  0  0  0  0  0  0  0  0
   -2.9160   -1.3076    5.5778 H   0  0  0  0  0  0  0  0  0  0  0  0
   -3.2311   -1.6021   -0.0159 H   0  0  0  0  0  0  0  0  0  0  0  0
    0.0365   -0.3300   -0.9837 H   0  0  0  0  0  0  0  0  0  0  0  0
    0.4186    1.2727   -2.7523 H   0  0  0  0  0  0  0  0  0  0  0  0
    0.5593    1.8365   -5.0413 H   0  0  0  0  0  0  0  0  0  0  0  0
   -1.0689    1.3989   -5.7013 H   0  0  0  0  0  0  0  0  0  0  0  0
   -0.4134    1.5675   -7.9310 H   0  0  0  0  0  0  0  0  0  0  0  0
    1.1074    2.2803   -7.3103 H   0  0  0  0  0  0  0  0  0  0  0  0
    3.1494    0.2555   -9.3939 H   0  0  0  0  0  0  0  0  0  0  0  0
    3.0604    1.7888   -8.4701 H   0  0  0  0  0  0  0  0  0  0  0  0
    2.9615    0.1749   -7.6082 H   0  0  0  0  0  0  0  0  0  0  0  0
   -1.0321   -1.5500   -5.6620 H   0  0  0  0  0  0  0  0  0  0  0  0
   -1.4056   -3.1904   -3.8962 H   0  0  0  0  0  0  0  0  0  0  0  0
   -3.4640   -2.7477   -2.1297 H   0  0  0  0  0  0  0  0  0  0  0  0
   -5.0979   -4.5128   -2.5330 H   0  0  0  0  0  0  0  0  0  0  0  0
   -5.8485   -6.8121   -2.2422 H   0  0  0  0  0  0  0  0  0  0  0  0
   -4.8688   -7.8626   -1.2075 H   0  0  0  0  0  0  0  0  0  0  0  0
   -4.7716   -6.3879   -4.4595 H   0  0  0  0  0  0  0  0  0  0  0  0
   -4.2259   -7.9171   -5.2252 H   0  0  0  0  0  0  0  0  0  0  0  0
   -7.7587   -7.6880   -5.9275 H   0  0  0  0  0  0  0  0  0  0  0  0
   -6.1323   -7.5433   -6.6690 H   0  0  0  0  0  0  0  0  0  0  0  0
   -6.7972   -6.2002   -5.6188 H   0  0  0  0  0  0  0  0  0  0  0  0
   -2.3091   -7.4506   -1.0638 H   0  0  0  0  0  0  0  0  0  0  0  0
   -0.6611   -5.7083   -0.6678 H   0  0  0  0  0  0  0  0  0  0  0  0
   -6.5135    2.8313    3.3062 H   0  0  0  0  0  0  0  0  0  0  0  0
   -5.5782    4.5215    6.4875 H   0  0  0  0  0  0  0  0  0  0  0  0
   -7.5446    9.7030    4.3848 H   0  0  0  0  0  0  0  0  0  0  0  0
   -6.5241    7.7572   -0.5111 H   0  0  0  0  0  0  0  0  0  0  0  0
   -6.1595    6.1181    0.1584 H   0  0  0  0  0  0  0  0  0  0  0  0
   -4.8943    7.4157    0.1848 H   0  0  0  0  0  0  0  0  0  0  0  0
  1  2  2  3
  2  3  1  0
  3  4  2  0
  3  5  1  0
  5  6  2  0
  6  7  1  0
  7  8  2  0
  8  9  1  0
  9 10  2  0
 10 11  1  0
 11 12  2  3
 12 13  1  0
 13 14  3  0
 12 15  1  0
 15 16  3  0
  8 17  1  0
 17 18  1  0
 18 19  1  0
 19 20  2  0
 20 21  1  0
 21 22  1  0
 21 23  1  0
  1 24  1  0
 24 25  2  0
 25 26  1  0
 26 27  1  0
 27 28  1  0
 28 29  1  0
 29 30  2  0
 30 31  1  0
 31 32  1  0
 32 33  1  0
 33 34  2  0
 34 35  1  0
 35 36  2  0
 36 37  1  0
 37 38  1  0
 38 39  1  0
 39 40  1  0
 40 41  1  0
 36 42  1  0
 42 43  2  0
 32 44  1  0
 44 45  2  0
 45 46  1  0
 46 47  2  0
 47 48  1  0
 48 49  1  0
 49 50  1  0
 50 51  1  0
 51 52  1  0
 47 53  1  0
 53 54  2  0
 32 55  1  0
 55 56  2  0
 56 57  1  0
 57 58  1  0
 58 59  2  0
 59 60  1  0
 60 61  1  0
 61 62  2  0
 62 63  1  0
 63 64  2  0
 64 65  1  0
 65 66  1  0
 66 67  1  0
 67 68  1  0
 68 69  1  0
 64 70  1  0
 70 71  2  0
 60 72  1  0
 72 73  2  0
 73 74  1  0
 74 75  2  0
 75 76  1  0
 76 77  1  0
 77 78  1  0
 78 79  1  0
 79 80  1  0
 75 81  1  0
 81 82  2  0
 60 83  1  0
 83 84  1  0
 84 85  1  0
 56 86  1  0
 86 87  1  0
 87 88  1  0
 88 89  2  0
 89 90  1  0
 90 91  1  0
 89 92  1  0
 92 93  2  3
 93 94  1  0
 94 95  2  0
 94 96  1  0
 96 97  1  0
 97 98  2  0
 98 99  1  0
 99100  1  0
100101  1  0
 97102  1  0
102103  2  3
103104  1  0
104105  3  0
103106  1  0
106107  3  0
 11  2  1  0
 23 17  1  0
 85 24  1  0
 91 87  2  0
102 93  1  0
 10  5  1  0
 22 18  1  0
 84 26  2  0
100 96  2  0
 23  7  1  0
 83 28  2  0
 59 29  1  0
 71 61  1  0
 82 72  1  0
 57 31  2  0
 43 33  1  0
 54 44  1  0
 91 55  1  0
  1108  1  0
  6109  1  0
  9110  1  0
 17111  1  0
 18112  1  0
 19113  1  0
 20114  1  0
 21115  1  0
 22116  1  0
 22117  1  0
 23118  1  0
 25119  1  0
 30120  1  0
 34121  1  0
 35122  1  0
 37123  1  0
 37124  1  0
 39125  1  0
 39126  1  0
 41127  1  0
 41128  1  0
 41129  1  0
 42130  1  0
 43131  1  0
 45132  1  0
 46133  1  0
 48134  1  0
 48135  1  0
 50136  1  0
 50137  1  0
 52138  1  0
 52139  1  0
 52140  1  0
 53141  1  0
 54142  1  0
 58143  1  0
 62144  1  0
 63145  1  0
 65146  1  0
 65147  1  0
 67148  1  0
 67149  1  0
 69150  1  0
 69151  1  0
 69152  1  0
 70153  1  0
 71154  1  0
 73155  1  0
 74156  1  0
 76157  1  0
 76158  1  0
 78159  1  0
 78160  1  0
 80161  1  0
 80162  1  0
 80163  1  0
 81164  1  0
 82165  1  0
 88166  1  0
 92167  1  0
 98168  1  0
101169  1  0
101170  1  0
101171  1  0
M  END

