
     RDKit          3D

110124  0  0  0  0  0  0  0  0999 V2000
   -6.1117   -2.2296    0.2621 C   0  0  0  0  0  0  0  0  0  0  0  0
   -6.2396   -1.4274    1.3412 C   0  0  0  0  0  0  0  0  0  0  0  0
   -5.4824   -0.1840    1.5545 C   0  0  0  0  0  0  0  0  0  0  0  0
   -4.6506    0.3371    0.7601 O   0  0  0  0  0  0  0  0  0  0  0  0
   -5.9388    0.4493    2.7647 C   0  0  0  0  0  0  0  0  0  0  0  0
   -5.4087    1.6252    3.3488 C   0  0  0  0  0  0  0  0  0  0  0  0
   -5.9924    1.9694    4.5486 C   0  0  0  0  0  0  0  0  0  0  0  0
   -7.0301    1.1958    5.1536 C   0  0  0  0  0  0  0  0  0  0  0  0
   -7.5552    0.0480    4.5840 C   0  0  0  0  0  0  0  0  0  0  0  0
   -6.9837   -0.3185    3.3293 C   0  0  0  0  0  0  0  0  0  0  0  0
   -7.2393   -1.5159    2.4606 C   0  0  0  0  0  0  0  0  0  0  0  0
   -8.1413   -2.5077    2.6987 C   0  0  0  0  0  0  0  0  0  0  0  0
   -9.1489   -2.4239    3.7220 C   0  0  0  0  0  0  0  0  0  0  0  0
   -9.9719   -2.3700    4.5371 N   0  0  0  0  0  0  0  0  0  0  0  0
   -8.1845   -3.7314    1.9484 C   0  0  0  0  0  0  0  0  0  0  0  0
   -8.2244   -4.7340    1.3660 N   0  0  0  0  0  0  0  0  0  0  0  0
   -7.0900    2.1452    6.3116 C   0  0  0  0  0  0  0  0  0  0  0  0
   -8.2983    3.1303    6.3478 C   0  0  0  0  0  0  0  0  0  0  0  0
   -7.9283    4.2037    7.3450 C   0  0  0  0  0  0  0  0  0  0  0  0
   -6.9534    4.9236    6.7747 C   0  0  0  0  0  0  0  0  0  0  0  0
   -6.6970    4.3114    5.4184 C   0  0  0  0  0  0  0  0  0  0  0  0
   -8.1252    3.9286    5.0669 C   0  0  0  0  0  0  0  0  0  0  0  0
   -6.0205    2.9400    5.6935 C   0  0  0  0  0  0  0  0  0  0  0  0
   -4.9277   -2.2322   -0.6250 C   0  0  0  0  0  0  0  0  0  0  0  0
   -4.9403   -2.4007   -2.0242 C   0  0  0  0  0  0  0  0  0  0  0  0
   -6.1741   -2.5941   -2.8582 C   0  0  0  0  0  0  0  0  0  0  0  0
   -6.4876   -4.0745   -3.0092 C   0  0  0  0  0  0  0  0  0  0  0  0
   -3.6371   -2.3983   -2.5382 C   0  0  0  0  0  0  0  0  0  0  0  0
   -2.9920   -2.3993   -4.1182 S   0  0  0  0  0  0  0  0  0  0  0  0
   -1.4138   -2.2265   -3.5096 C   0  0  0  0  0  0  0  0  0  0  0  0
   -0.2047   -1.7793   -3.9731 C   0  0  0  0  0  0  0  0  0  0  0  0
    0.1779   -1.4212   -5.2763 C   0  0  0  0  0  0  0  0  0  0  0  0
    1.4002   -0.7334   -5.4549 C   0  0  0  0  0  0  0  0  0  0  0  0
    1.7855   -0.3699   -6.7088 N   0  0  0  0  0  0  0  0  0  0  0  0
    1.0078   -0.6542   -7.7846 C   0  0  0  0  0  0  0  0  0  0  0  0
   -0.1992   -1.3425   -7.6090 C   0  0  0  0  0  0  0  0  0  0  0  0
   -0.5937   -1.7052   -6.3574 N   0  0  0  0  0  0  0  0  0  0  0  0
    2.1911   -0.4791   -4.3282 C   0  0  0  0  0  0  0  0  0  0  0  0
    3.4259    0.1090   -4.2161 C   0  0  0  0  0  0  0  0  0  0  0  0
    4.6354    0.8410   -5.1702 S   0  0  0  0  0  0  0  0  0  0  0  0
    5.6508    1.0221   -3.8091 C   0  0  0  0  0  0  0  0  0  0  0  0
    6.9111    1.5887   -3.5869 C   0  0  0  0  0  0  0  0  0  0  0  0
    7.7428    2.2564   -4.6467 C   0  0  0  0  0  0  0  0  0  0  0  0
    7.2764    3.6962   -4.8535 C   0  0  0  0  0  0  0  0  0  0  0  0
    7.2563    1.5042   -2.2186 C   0  0  0  0  0  0  0  0  0  0  0  0
    6.0266    0.6978   -1.3590 S   0  0  0  0  0  0  0  0  0  0  0  0
    5.0536    0.4988   -2.6898 C   0  0  0  0  0  0  0  0  0  0  0  0
    3.7919   -0.0140   -2.9268 C   0  0  0  0  0  0  0  0  0  0  0  0
    2.8798   -0.6550   -2.1575 N   0  0  0  0  0  0  0  0  0  0  0  0
    1.8359   -0.8851   -3.0260 C   0  0  0  0  0  0  0  0  0  0  0  0
    0.5610   -1.4831   -2.8297 C   0  0  0  0  0  0  0  0  0  0  0  0
   -0.1982   -1.6513   -1.6910 N   0  0  0  0  0  0  0  0  0  0  0  0
   -1.3791   -2.1304   -2.1571 C   0  0  0  0  0  0  0  0  0  0  0  0
   -2.6484   -2.2472   -1.6014 C   0  0  0  0  0  0  0  0  0  0  0  0
   -3.3198   -2.1384   -0.0735 S   0  0  0  0  0  0  0  0  0  0  0  0
   -0.0214   -1.0820   -0.3478 C   0  0  0  0  0  0  0  0  0  0  0  0
    0.0723    0.4405   -0.3834 C   0  0  0  0  0  0  0  0  0  0  0  0
    3.2074   -1.2906   -0.8753 C   0  0  0  0  0  0  0  0  0  0  0  0
    3.0310   -2.8096   -0.9192 C   0  0  0  0  0  0  0  0  0  0  0  0
    8.5378    1.8777   -1.5780 C   0  0  0  0  0  0  0  0  0  0  0  0
    8.5732    2.3045   -0.2990 C   0  0  0  0  0  0  0  0  0  0  0  0
    7.4700    3.0058    0.3828 C   0  0  0  0  0  0  0  0  0  0  0  0
    6.4612    3.5444   -0.1542 O   0  0  0  0  0  0  0  0  0  0  0  0
    7.7327    2.9847    1.7897 C   0  0  0  0  0  0  0  0  0  0  0  0
    6.6916    2.8922    3.1021 S   0  0  0  0  0  0  0  0  0  0  0  0
    7.8132    2.0699    4.0778 C   0  0  0  0  0  0  0  0  0  0  0  0
    8.9580    1.7823    3.3329 C   0  0  0  0  0  0  0  0  0  0  0  0
    8.9016    2.3351    2.0380 C   0  0  0  0  0  0  0  0  0  0  0  0
    9.5642    1.9512    0.7709 C   0  0  0  0  0  0  0  0  0  0  0  0
   10.7630    1.3338    0.6691 C   0  0  0  0  0  0  0  0  0  0  0  0
   11.6192    1.1700    1.8139 C   0  0  0  0  0  0  0  0  0  0  0  0
   12.3164    1.0427    2.7294 N   0  0  0  0  0  0  0  0  0  0  0  0
   11.2995    0.8456   -0.5775 C   0  0  0  0  0  0  0  0  0  0  0  0
   11.7376    0.4207   -1.5624 N   0  0  0  0  0  0  0  0  0  0  0  0
   -6.8718   -2.9505    0.0232 H   0  0  0  0  0  0  0  0  0  0  0  0
   -4.6029    2.2030    2.9102 H   0  0  0  0  0  0  0  0  0  0  0  0
   -8.3116   -0.5022    5.1126 H   0  0  0  0  0  0  0  0  0  0  0  0
   -6.8151    1.6831    7.2861 H   0  0  0  0  0  0  0  0  0  0  0  0
   -9.2901    2.6579    6.4984 H   0  0  0  0  0  0  0  0  0  0  0  0
   -8.4125    4.4100    8.2951 H   0  0  0  0  0  0  0  0  0  0  0  0
   -6.5041    5.8192    7.1912 H   0  0  0  0  0  0  0  0  0  0  0  0
   -6.1829    4.9710    4.6916 H   0  0  0  0  0  0  0  0  0  0  0  0
   -8.2222    3.3268    4.1399 H   0  0  0  0  0  0  0  0  0  0  0  0
   -8.8130    4.8021    4.9928 H   0  0  0  0  0  0  0  0  0  0  0  0
   -5.0739    2.9763    6.2766 H   0  0  0  0  0  0  0  0  0  0  0  0
   -7.0404   -2.0778   -2.3882 H   0  0  0  0  0  0  0  0  0  0  0  0
   -6.0227   -2.1390   -3.8689 H   0  0  0  0  0  0  0  0  0  0  0  0
   -5.6538   -4.5866   -3.5406 H   0  0  0  0  0  0  0  0  0  0  0  0
   -7.4111   -4.1967   -3.6121 H   0  0  0  0  0  0  0  0  0  0  0  0
   -6.6374   -4.5392   -2.0131 H   0  0  0  0  0  0  0  0  0  0  0  0
    1.3245   -0.3533   -8.7729 H   0  0  0  0  0  0  0  0  0  0  0  0
   -0.8175   -1.5743   -8.4611 H   0  0  0  0  0  0  0  0  0  0  0  0
    7.6514    1.7030   -5.6103 H   0  0  0  0  0  0  0  0  0  0  0  0
    8.8211    2.2614   -4.3590 H   0  0  0  0  0  0  0  0  0  0  0  0
    7.9081    4.1930   -5.6191 H   0  0  0  0  0  0  0  0  0  0  0  0
    6.2100    3.7027   -5.1891 H   0  0  0  0  0  0  0  0  0  0  0  0
    7.3408    4.2555   -3.8959 H   0  0  0  0  0  0  0  0  0  0  0  0
   -0.8752   -1.3419    0.2999 H   0  0  0  0  0  0  0  0  0  0  0  0
    0.8010   -1.5675    0.1793 H   0  0  0  0  0  0  0  0  0  0  0  0
    0.1804    0.8254    0.6548 H   0  0  0  0  0  0  0  0  0  0  0  0
    0.9476    0.7794   -0.9842 H   0  0  0  0  0  0  0  0  0  0  0  0
   -0.8647    0.8641   -0.8295 H   0  0  0  0  0  0  0  0  0  0  0  0
    4.2713   -1.1321   -0.6229 H   0  0  0  0  0  0  0  0  0  0  0  0
    2.6930   -0.7924   -0.0411 H   0  0  0  0  0  0  0  0  0  0  0  0
    3.6705   -3.2357   -1.7217 H   0  0  0  0  0  0  0  0  0  0  0  0
    3.3372   -3.2493    0.0570 H   0  0  0  0  0  0  0  0  0  0  0  0
    1.9815   -3.1033   -1.1126 H   0  0  0  0  0  0  0  0  0  0  0  0
    9.4230    1.5262   -2.0832 H   0  0  0  0  0  0  0  0  0  0  0  0
    7.6241    1.7112    5.0946 H   0  0  0  0  0  0  0  0  0  0  0  0
    9.7289    1.1247    3.6875 H   0  0  0  0  0  0  0  0  0  0  0  0
  1  2  2  3
  2  3  1  0
  3  4  2  0
  3  5  1  0
  5  6  2  0
  6  7  1  0
  7  8  2  0
  8  9  1  0
  9 10  2  0
 10 11  1  0
 11 12  2  3
 12 13  1  0
 13 14  3  0
 12 15  1  0
 15 16  3  0
  8 17  1  0
 17 18  1  0
 18 19  1  0
 19 20  2  0
 20 21  1  0
 21 22  1  0
 21 23  1  0
  1 24  1  0
 24 25  2  0
 25 26  1  0
 26 27  1  0
 25 28  1  0
 28 29  1  0
 29 30  1  0
 30 31  1  0
 31 32  2  0
 32 33  1  0
 33 34  1  0
 34 35  2  0
 35 36  1  0
 36 37  2  0
 33 38  2  0
 38 39  1  0
 39 40  1  0
 40 41  1  0
 41 42  1  0
 42 43  1  0
 43 44  1  0
 42 45  2  0
 45 46  1  0
 46 47  1  0
 47 48  1  0
 48 49  1  0
 49 50  1  0
 50 51  2  0
 51 52  1  0
 52 53  1  0
 53 54  1  0
 54 55  1  0
 52 56  1  0
 56 57  1  0
 49 58  1  0
 58 59  1  0
 45 60  1  0
 60 61  2  3
 61 62  1  0
 62 63  2  0
 62 64  1  0
 64 65  1  0
 65 66  1  0
 66 67  2  0
 67 68  1  0
 68 69  1  0
 69 70  2  3
 70 71  1  0
 71 72  3  0
 70 73  1  0
 73 74  3  0
 11  2  1  0
 23 17  1  0
 55 24  1  0
 69 61  1  0
 10  5  1  0
 22 18  1  0
 54 28  2  0
 68 64  2  0
 23  7  1  0
 53 30  2  0
 51 31  1  0
 37 32  1  0
 50 38  1  0
 48 39  2  0
 47 41  2  0
  1 75  1  0
  6 76  1  0
  9 77  1  0
 17 78  1  0
 18 79  1  0
 19 80  1  0
 20 81  1  0
 21 82  1  0
 22 83  1  0
 22 84  1  0
 23 85  1  0
 26 86  1  0
 26 87  1  0
 27 88  1  0
 27 89  1  0
 27 90  1  0
 35 91  1  0
 36 92  1  0
 43 93  1  0
 43 94  1  0
 44 95  1  0
 44 96  1  0
 44 97  1  0
 56 98  1  0
 56 99  1  0
 57100  1  0
 57101  1  0
 57102  1  0
 58103  1  0
 58104  1  0
 59105  1  0
 59106  1  0
 59107  1  0
 60108  1  0
 66109  1  0
 67110  1  0
M  END

