
     RDKit          3D

188210  0  0  0  0  0  0  0  0999 V2000
    7.2316   -5.8427    3.1620 C   0  0  0  0  0  0  0  0  0  0  0  0
    8.1367   -6.0172    2.1829 C   0  0  0  0  0  0  0  0  0  0  0  0
    8.2557   -5.1476    1.0054 C   0  0  0  0  0  0  0  0  0  0  0  0
    8.1570   -3.8907    0.9961 O   0  0  0  0  0  0  0  0  0  0  0  0
    8.4753   -5.9736   -0.1600 C   0  0  0  0  0  0  0  0  0  0  0  0
    8.3634   -5.5733   -1.5111 C   0  0  0  0  0  0  0  0  0  0  0  0
    8.2699   -6.6301   -2.3945 C   0  0  0  0  0  0  0  0  0  0  0  0
    8.2821   -8.0075   -1.9819 C   0  0  0  0  0  0  0  0  0  0  0  0
    8.4432   -8.4053   -0.6664 C   0  0  0  0  0  0  0  0  0  0  0  0
    8.5710   -7.3277    0.2558 C   0  0  0  0  0  0  0  0  0  0  0  0
    8.5569   -7.3734    1.7379 C   0  0  0  0  0  0  0  0  0  0  0  0
    8.9858   -8.3793    2.5337 C   0  0  0  0  0  0  0  0  0  0  0  0
    9.4083   -9.6521    2.0075 C   0  0  0  0  0  0  0  0  0  0  0  0
    9.7415  -10.6801    1.5900 N   0  0  0  0  0  0  0  0  0  0  0  0
    9.1344   -8.1998    3.9571 C   0  0  0  0  0  0  0  0  0  0  0  0
    9.2586   -8.0453    5.0944 N   0  0  0  0  0  0  0  0  0  0  0  0
    7.9674   -8.4469   -3.3815 C   0  0  0  0  0  0  0  0  0  0  0  0
    6.4937   -8.8790   -3.6600 C   0  0  0  0  0  0  0  0  0  0  0  0
    6.3386   -8.8809   -5.1602 C   0  0  0  0  0  0  0  0  0  0  0  0
    6.3679   -7.5969   -5.5500 C   0  0  0  0  0  0  0  0  0  0  0  0
    6.5350   -6.7740   -4.2957 C   0  0  0  0  0  0  0  0  0  0  0  0
    5.6932   -7.6207   -3.3476 C   0  0  0  0  0  0  0  0  0  0  0  0
    7.9881   -7.0387   -3.8049 C   0  0  0  0  0  0  0  0  0  0  0  0
    6.0672   -4.9740    2.9711 C   0  0  0  0  0  0  0  0  0  0  0  0
    4.5569   -5.6079    2.4778 S   0  0  0  0  0  0  0  0  0  0  0  0
    3.8847   -4.0902    2.3946 C   0  0  0  0  0  0  0  0  0  0  0  0
    2.7338   -3.4744    2.0201 C   0  0  0  0  0  0  0  0  0  0  0  0
    1.1970   -3.8561    1.4210 S   0  0  0  0  0  0  0  0  0  0  0  0
    0.8439   -2.1875    1.3684 C   0  0  0  0  0  0  0  0  0  0  0  0
   -0.3483   -1.4183    1.1823 C   0  0  0  0  0  0  0  0  0  0  0  0
   -1.6228   -1.8297    0.7779 C   0  0  0  0  0  0  0  0  0  0  0  0
   -2.6310   -0.8519    0.7641 C   0  0  0  0  0  0  0  0  0  0  0  0
   -4.0948   -1.0204    0.3643 C   0  0  0  0  0  0  0  0  0  0  0  0
   -4.1227   -1.5910   -1.0564 C   0  0  0  0  0  0  0  0  0  0  0  0
   -4.3370   -2.9670   -1.2789 C   0  0  0  0  0  0  0  0  0  0  0  0
   -4.3433   -3.4882   -2.5735 C   0  0  0  0  0  0  0  0  0  0  0  0
   -4.0880   -2.6615   -3.6633 C   0  0  0  0  0  0  0  0  0  0  0  0
   -3.8026   -1.2989   -3.4699 C   0  0  0  0  0  0  0  0  0  0  0  0
   -3.4989   -0.4376   -4.5363 O   0  0  0  0  0  0  0  0  0  0  0  0
   -3.3660   -0.8616   -5.8925 C   0  0  0  0  0  0  0  0  0  0  0  0
   -2.9388    0.3090   -6.7600 C   0  0  0  0  0  0  0  0  0  0  0  0
   -3.8120   -0.7774   -2.1690 C   0  0  0  0  0  0  0  0  0  0  0  0
   -4.8892   -1.8377    1.4093 C   0  0  0  0  0  0  0  0  0  0  0  0
   -6.2428   -2.1500    1.1682 C   0  0  0  0  0  0  0  0  0  0  0  0
   -7.0184   -2.7979    2.1261 C   0  0  0  0  0  0  0  0  0  0  0  0
   -6.4615   -3.1680    3.3470 C   0  0  0  0  0  0  0  0  0  0  0  0
   -5.1039   -2.9103    3.6128 C   0  0  0  0  0  0  0  0  0  0  0  0
   -4.4785   -3.3236    4.7994 O   0  0  0  0  0  0  0  0  0  0  0  0
   -5.1621   -3.9103    5.9060 C   0  0  0  0  0  0  0  0  0  0  0  0
   -4.1554   -4.3876    6.9361 C   0  0  0  0  0  0  0  0  0  0  0  0
   -4.3379   -2.2293    2.6569 C   0  0  0  0  0  0  0  0  0  0  0  0
   -4.5435    0.4352    0.4703 C   0  0  0  0  0  0  0  0  0  0  0  0
   -3.5513    1.2031    1.0376 C   0  0  0  0  0  0  0  0  0  0  0  0
   -2.3500    0.4467    1.1777 C   0  0  0  0  0  0  0  0  0  0  0  0
   -1.0808    0.8599    1.5896 C   0  0  0  0  0  0  0  0  0  0  0  0
   -0.0565   -0.1018    1.5552 C   0  0  0  0  0  0  0  0  0  0  0  0
    1.4075    0.0730    1.9642 C   0  0  0  0  0  0  0  0  0  0  0  0
    2.0772    1.0127    0.9448 C   0  0  0  0  0  0  0  0  0  0  0  0
    1.7630    2.3880    0.9310 C   0  0  0  0  0  0  0  0  0  0  0  0
    2.2900    3.2377   -0.0443 C   0  0  0  0  0  0  0  0  0  0  0  0
    3.1235    2.7316   -1.0398 C   0  0  0  0  0  0  0  0  0  0  0  0
    3.4361    1.3610   -1.0691 C   0  0  0  0  0  0  0  0  0  0  0  0
    4.2650    0.7937   -2.0483 O   0  0  0  0  0  0  0  0  0  0  0  0
    4.9599    1.5337   -3.0427 C   0  0  0  0  0  0  0  0  0  0  0  0
    5.7917    0.5784   -3.8876 C   0  0  0  0  0  0  0  0  0  0  0  0
    2.9034    0.5155   -0.0909 C   0  0  0  0  0  0  0  0  0  0  0  0
    1.5010    0.4808    3.4441 C   0  0  0  0  0  0  0  0  0  0  0  0
    0.7778   -0.2571    4.4070 C   0  0  0  0  0  0  0  0  0  0  0  0
    0.8617    0.0571    5.7638 C   0  0  0  0  0  0  0  0  0  0  0  0
    1.6575    1.1156    6.1925 C   0  0  0  0  0  0  0  0  0  0  0  0
    2.3887    1.8702    5.2628 C   0  0  0  0  0  0  0  0  0  0  0  0
    3.1945    2.9570    5.6420 O   0  0  0  0  0  0  0  0  0  0  0  0
    3.2114    3.5590    6.9414 C   0  0  0  0  0  0  0  0  0  0  0  0
    1.9236    4.3425    7.1873 C   0  0  0  0  0  0  0  0  0  0  0  0
    2.3273    1.5332    3.9014 C   0  0  0  0  0  0  0  0  0  0  0  0
    1.8533   -1.3710    1.8216 C   0  0  0  0  0  0  0  0  0  0  0  0
    2.9612   -2.1380    2.1749 C   0  0  0  0  0  0  0  0  0  0  0  0
    4.2248   -1.8745    2.6149 N   0  0  0  0  0  0  0  0  0  0  0  0
    4.7625   -3.1161    2.7322 C   0  0  0  0  0  0  0  0  0  0  0  0
    6.0381   -3.5718    3.0570 C   0  0  0  0  0  0  0  0  0  0  0  0
    4.9015   -0.5936    2.7964 C   0  0  0  0  0  0  0  0  0  0  0  0
    5.1402   -0.3190    4.2759 C   0  0  0  0  0  0  0  0  0  0  0  0
   -3.9669    2.8314    1.2833 S   0  0  0  0  0  0  0  0  0  0  0  0
   -5.5253    2.5032    0.7218 C   0  0  0  0  0  0  0  0  0  0  0  0
   -6.5248    3.2494    0.1804 C   0  0  0  0  0  0  0  0  0  0  0  0
   -6.7121    4.8509   -0.2593 S   0  0  0  0  0  0  0  0  0  0  0  0
   -7.8020    4.4544   -1.5176 C   0  0  0  0  0  0  0  0  0  0  0  0
   -7.9945    3.0687   -1.5903 C   0  0  0  0  0  0  0  0  0  0  0  0
   -7.2361    2.4163   -0.6204 C   0  0  0  0  0  0  0  0  0  0  0  0
   -6.7588    1.1399   -0.5992 N   0  0  0  0  0  0  0  0  0  0  0  0
   -7.0857    0.1292   -1.6084 C   0  0  0  0  0  0  0  0  0  0  0  0
   -8.5215   -0.3667   -1.4401 C   0  0  0  0  0  0  0  0  0  0  0  0
   -5.6933    1.2190    0.2572 C   0  0  0  0  0  0  0  0  0  0  0  0
   -8.4286    5.4172   -2.4316 C   0  0  0  0  0  0  0  0  0  0  0  0
   -7.7533    6.3817   -3.0858 C   0  0  0  0  0  0  0  0  0  0  0  0
   -6.2859    6.4625   -3.1914 C   0  0  0  0  0  0  0  0  0  0  0  0
   -5.4614    5.5832   -2.8315 O   0  0  0  0  0  0  0  0  0  0  0  0
   -5.9312    7.6593   -3.9082 C   0  0  0  0  0  0  0  0  0  0  0  0
   -4.6289    8.1764   -4.0976 C   0  0  0  0  0  0  0  0  0  0  0  0
   -4.6001    9.4135   -4.7108 C   0  0  0  0  0  0  0  0  0  0  0  0
   -5.7834   10.1084   -5.1135 C   0  0  0  0  0  0  0  0  0  0  0  0
   -7.0593    9.6077   -4.9293 C   0  0  0  0  0  0  0  0  0  0  0  0
   -7.1144    8.3157   -4.3302 C   0  0  0  0  0  0  0  0  0  0  0  0
   -8.3031    7.5166   -3.9051 C   0  0  0  0  0  0  0  0  0  0  0  0
   -9.6005    7.7705   -4.2467 C   0  0  0  0  0  0  0  0  0  0  0  0
  -10.7185    7.0765   -3.6695 C   0  0  0  0  0  0  0  0  0  0  0  0
  -11.6354    6.5351   -3.2100 N   0  0  0  0  0  0  0  0  0  0  0  0
   -9.9486    8.7166   -5.2721 C   0  0  0  0  0  0  0  0  0  0  0  0
  -10.2467    9.4609   -6.1050 N   0  0  0  0  0  0  0  0  0  0  0  0
   -4.9634   11.2577   -5.6098 C   0  0  0  0  0  0  0  0  0  0  0  0
   -4.8048   11.3778   -7.1533 C   0  0  0  0  0  0  0  0  0  0  0  0
   -3.6576   12.3339   -7.3727 C   0  0  0  0  0  0  0  0  0  0  0  0
   -2.5480   11.6909   -6.9901 C   0  0  0  0  0  0  0  0  0  0  0  0
   -2.9844   10.3198   -6.5287 C   0  0  0  0  0  0  0  0  0  0  0  0
   -4.1017   10.0847   -7.5305 C   0  0  0  0  0  0  0  0  0  0  0  0
   -3.7499   10.5465   -5.1913 C   0  0  0  0  0  0  0  0  0  0  0  0
    7.0543   -6.6592    3.8471 H   0  0  0  0  0  0  0  0  0  0  0  0
    8.2339   -4.5394   -1.8163 H   0  0  0  0  0  0  0  0  0  0  0  0
    8.3659   -9.4425   -0.3787 H   0  0  0  0  0  0  0  0  0  0  0  0
    8.7556   -9.0848   -3.8355 H   0  0  0  0  0  0  0  0  0  0  0  0
    6.1523   -9.8069   -3.1504 H   0  0  0  0  0  0  0  0  0  0  0  0
    6.1278   -9.7307   -5.8057 H   0  0  0  0  0  0  0  0  0  0  0  0
    6.1862   -7.2327   -6.5537 H   0  0  0  0  0  0  0  0  0  0  0  0
    6.2419   -5.7043   -4.3821 H   0  0  0  0  0  0  0  0  0  0  0  0
    5.7408   -7.3029   -2.2814 H   0  0  0  0  0  0  0  0  0  0  0  0
    4.6219   -7.6887   -3.6500 H   0  0  0  0  0  0  0  0  0  0  0  0
    8.8003   -6.7809   -4.5242 H   0  0  0  0  0  0  0  0  0  0  0  0
   -1.8231   -2.8580    0.5025 H   0  0  0  0  0  0  0  0  0  0  0  0
   -4.4966   -3.6513   -0.4559 H   0  0  0  0  0  0  0  0  0  0  0  0
   -4.5415   -4.5415   -2.7314 H   0  0  0  0  0  0  0  0  0  0  0  0
   -4.0979   -3.0971   -4.6528 H   0  0  0  0  0  0  0  0  0  0  0  0
   -2.5984   -1.6659   -5.9607 H   0  0  0  0  0  0  0  0  0  0  0  0
   -4.3376   -1.2557   -6.2633 H   0  0  0  0  0  0  0  0  0  0  0  0
   -1.9746    0.7217   -6.3968 H   0  0  0  0  0  0  0  0  0  0  0  0
   -3.7143    1.1049   -6.7288 H   0  0  0  0  0  0  0  0  0  0  0  0
   -2.8107   -0.0315   -7.8112 H   0  0  0  0  0  0  0  0  0  0  0  0
   -3.5776    0.2691   -2.0266 H   0  0  0  0  0  0  0  0  0  0  0  0
   -6.7009   -1.9045    0.2323 H   0  0  0  0  0  0  0  0  0  0  0  0
   -8.0581   -3.0162    1.9205 H   0  0  0  0  0  0  0  0  0  0  0  0
   -7.0885   -3.6689    4.0715 H   0  0  0  0  0  0  0  0  0  0  0  0
   -5.7585   -4.7858    5.5711 H   0  0  0  0  0  0  0  0  0  0  0  0
   -5.8388   -3.1593    6.3620 H   0  0  0  0  0  0  0  0  0  0  0  0
   -3.5693   -5.2303    6.5201 H   0  0  0  0  0  0  0  0  0  0  0  0
   -4.6889   -4.7391    7.8431 H   0  0  0  0  0  0  0  0  0  0  0  0
   -3.4661   -3.5654    7.2139 H   0  0  0  0  0  0  0  0  0  0  0  0
   -3.3111   -2.0027    2.9127 H   0  0  0  0  0  0  0  0  0  0  0  0
   -0.9095    1.8742    1.9214 H   0  0  0  0  0  0  0  0  0  0  0  0
    1.1247    2.8202    1.6864 H   0  0  0  0  0  0  0  0  0  0  0  0
    2.0502    4.2934   -0.0334 H   0  0  0  0  0  0  0  0  0  0  0  0
    3.5131    3.4103   -1.7870 H   0  0  0  0  0  0  0  0  0  0  0  0
    5.6341    2.2793   -2.5646 H   0  0  0  0  0  0  0  0  0  0  0  0
    4.2328    2.0578   -3.7035 H   0  0  0  0  0  0  0  0  0  0  0  0
    6.3849    1.1468   -4.6300 H   0  0  0  0  0  0  0  0  0  0  0  0
    6.4900    0.0096   -3.2364 H   0  0  0  0  0  0  0  0  0  0  0  0
    5.1288   -0.1380   -4.4186 H   0  0  0  0  0  0  0  0  0  0  0  0
    3.1488   -0.5337   -0.1600 H   0  0  0  0  0  0  0  0  0  0  0  0
    0.1477   -1.0873    4.1097 H   0  0  0  0  0  0  0  0  0  0  0  0
    0.3074   -0.5298    6.4864 H   0  0  0  0  0  0  0  0  0  0  0  0
    1.6988    1.3305    7.2509 H   0  0  0  0  0  0  0  0  0  0  0  0
    3.3666    2.7929    7.7272 H   0  0  0  0  0  0  0  0  0  0  0  0
    4.0664    4.2652    6.9864 H   0  0  0  0  0  0  0  0  0  0  0  0
    1.9332    4.7640    8.2146 H   0  0  0  0  0  0  0  0  0  0  0  0
    1.8402    5.1728    6.4513 H   0  0  0  0  0  0  0  0  0  0  0  0
    1.0343    3.6897    7.0844 H   0  0  0  0  0  0  0  0  0  0  0  0
    2.9499    2.0952    3.2195 H   0  0  0  0  0  0  0  0  0  0  0  0
    6.8781   -2.9427    3.3056 H   0  0  0  0  0  0  0  0  0  0  0  0
    5.8734   -0.6060    2.2547 H   0  0  0  0  0  0  0  0  0  0  0  0
    4.2979    0.2248    2.3600 H   0  0  0  0  0  0  0  0  0  0  0  0
    5.5011    0.7236    4.4063 H   0  0  0  0  0  0  0  0  0  0  0  0
    5.9097   -1.0153    4.6727 H   0  0  0  0  0  0  0  0  0  0  0  0
    4.2011   -0.4518    4.8550 H   0  0  0  0  0  0  0  0  0  0  0  0
   -8.5532    2.5755   -2.3763 H   0  0  0  0  0  0  0  0  0  0  0  0
   -6.9641    0.5704   -2.6195 H   0  0  0  0  0  0  0  0  0  0  0  0
   -6.4072   -0.7298   -1.5534 H   0  0  0  0  0  0  0  0  0  0  0  0
   -8.6553   -0.8432   -0.4482 H   0  0  0  0  0  0  0  0  0  0  0  0
   -9.2420    0.4689   -1.5274 H   0  0  0  0  0  0  0  0  0  0  0  0
   -8.7500   -1.1130   -2.2262 H   0  0  0  0  0  0  0  0  0  0  0  0
   -9.4836    5.2878   -2.5583 H   0  0  0  0  0  0  0  0  0  0  0  0
   -3.7360    7.6689   -3.7587 H   0  0  0  0  0  0  0  0  0  0  0  0
   -7.9162   10.2061   -5.1785 H   0  0  0  0  0  0  0  0  0  0  0  0
   -5.1544   12.2128   -5.0678 H   0  0  0  0  0  0  0  0  0  0  0  0
   -5.7314   11.6128   -7.7203 H   0  0  0  0  0  0  0  0  0  0  0  0
   -3.6975   13.3115   -7.8342 H   0  0  0  0  0  0  0  0  0  0  0  0
   -1.5309   12.0620   -7.0887 H   0  0  0  0  0  0  0  0  0  0  0  0
   -2.1856    9.5449   -6.5020 H   0  0  0  0  0  0  0  0  0  0  0  0
   -4.6992    9.1629   -7.3398 H   0  0  0  0  0  0  0  0  0  0  0  0
   -3.7528   10.0678   -8.5897 H   0  0  0  0  0  0  0  0  0  0  0  0
   -3.1715   11.0462   -4.3812 H   0  0  0  0  0  0  0  0  0  0  0  0
  1  2  2  3
  2  3  1  0
  3  4  2  0
  3  5  1  0
  5  6  2  0
  6  7  1  0
  7  8  2  0
  8  9  1  0
  9 10  2  0
 10 11  1  0
 11 12  2  3
 12 13  1  0
 13 14  3  0
 12 15  1  0
 15 16  3  0
  8 17  1  0
 17 18  1  0
 18 19  1  0
 19 20  2  0
 20 21  1  0
 21 22  1  0
 21 23  1  0
  1 24  1  0
 24 25  1  0
 25 26  1  0
 26 27  1  0
 27 28  1  0
 28 29  1  0
 29 30  1  0
 30 31  2  0
 31 32  1  0
 32 33  1  0
 33 34  1  0
 34 35  2  0
 35 36  1  0
 36 37  2  0
 37 38  1  0
 38 39  1  0
 39 40  1  0
 40 41  1  0
 38 42  2  0
 33 43  1  0
 43 44  2  0
 44 45  1  0
 45 46  2  0
 46 47  1  0
 47 48  1  0
 48 49  1  0
 49 50  1  0
 47 51  2  0
 33 52  1  0
 52 53  2  0
 53 54  1  0
 54 55  1  0
 55 56  2  0
 56 57  1  0
 57 58  1  0
 58 59  2  0
 59 60  1  0
 60 61  2  0
 61 62  1  0
 62 63  1  0
 63 64  1  0
 64 65  1  0
 62 66  2  0
 57 67  1  0
 67 68  2  0
 68 69  1  0
 69 70  2  0
 70 71  1  0
 71 72  1  0
 72 73  1  0
 73 74  1  0
 71 75  2  0
 57 76  1  0
 76 77  1  0
 77 78  1  0
 78 79  1  0
 79 80  1  0
 78 81  1  0
 81 82  1  0
 53 83  1  0
 83 84  1  0
 84 85  1  0
 85 86  1  0
 86 87  1  0
 87 88  2  0
 88 89  1  0
 89 90  1  0
 90 91  1  0
 91 92  1  0
 90 93  1  0
 87 94  1  0
 94 95  2  3
 95 96  1  0
 96 97  2  0
 96 98  1  0
 98 99  2  0
 99100  1  0
100101  2  0
101102  1  0
102103  2  0
103104  1  0
104105  2  3
105106  1  0
106107  3  0
105108  1  0
108109  3  0
101110  1  0
110111  1  0
111112  1  0
112113  2  0
113114  1  0
114115  1  0
114116  1  0
 11  2  1  0
 23 17  1  0
 80 24  2  0
 93 84  2  0
104 95  1  0
116110  1  0
 10  5  1  0
 22 18  1  0
 79 26  2  0
 89 85  2  0
103 98  1  0
115111  1  0
 23  7  1  0
 77 27  2  0
116100  1  0
 76 29  2  0
 56 30  1  0
 66 58  1  0
 75 67  1  0
 54 32  2  0
 42 34  1  0
 51 43  1  0
 93 52  1  0
  1117  1  0
  6118  1  0
  9119  1  0
 17120  1  0
 18121  1  0
 19122  1  0
 20123  1  0
 21124  1  0
 22125  1  0
 22126  1  0
 23127  1  0
 31128  1  0
 35129  1  0
 36130  1  0
 37131  1  0
 40132  1  0
 40133  1  0
 41134  1  0
 41135  1  0
 41136  1  0
 42137  1  0
 44138  1  0
 45139  1  0
 46140  1  0
 49141  1  0
 49142  1  0
 50143  1  0
 50144  1  0
 50145  1  0
 51146  1  0
 55147  1  0
 59148  1  0
 60149  1  0
 61150  1  0
 64151  1  0
 64152  1  0
 65153  1  0
 65154  1  0
 65155  1  0
 66156  1  0
 68157  1  0
 69158  1  0
 70159  1  0
 73160  1  0
 73161  1  0
 74162  1  0
 74163  1  0
 74164  1  0
 75165  1  0
 80166  1  0
 81167  1  0
 81168  1  0
 82169  1  0
 82170  1  0
 82171  1  0
 88172  1  0
 91173  1  0
 91174  1  0
 92175  1  0
 92176  1  0
 92177  1  0
 94178  1  0
 99179  1  0
102180  1  0
110181  1  0
111182  1  0
112183  1  0
113184  1  0
114185  1  0
115186  1  0
115187  1  0
116188  1  0
M  END

