
     RDKit          3D

113127  0  0  0  0  0  0  0  0999 V2000
    4.3588   -2.3242    3.9250 C   0  0  0  0  0  0  0  0  0  0  0  0
    5.1803   -1.6095    4.7161 C   0  0  0  0  0  0  0  0  0  0  0  0
    5.2248   -0.1434    4.7368 C   0  0  0  0  0  0  0  0  0  0  0  0
    4.9581    0.6201    3.7672 O   0  0  0  0  0  0  0  0  0  0  0  0
    5.6177    0.2942    6.0561 C   0  0  0  0  0  0  0  0  0  0  0  0
    5.6492    1.6243    6.5331 C   0  0  0  0  0  0  0  0  0  0  0  0
    5.9657    1.7277    7.8737 C   0  0  0  0  0  0  0  0  0  0  0  0
    6.2362    0.5935    8.7050 C   0  0  0  0  0  0  0  0  0  0  0  0
    6.2160   -0.7115    8.2419 C   0  0  0  0  0  0  0  0  0  0  0  0
    5.8971   -0.8456    6.8577 C   0  0  0  0  0  0  0  0  0  0  0  0
    5.7528   -2.0741    6.0168 C   0  0  0  0  0  0  0  0  0  0  0  0
    6.1188   -3.3419    6.3305 C   0  0  0  0  0  0  0  0  0  0  0  0
    6.1981   -4.3835    5.3379 C   0  0  0  0  0  0  0  0  0  0  0  0
    6.2745   -5.2262    4.5465 N   0  0  0  0  0  0  0  0  0  0  0  0
    6.4801   -3.7384    7.6661 C   0  0  0  0  0  0  0  0  0  0  0  0
    6.7441   -4.0705    8.7461 N   0  0  0  0  0  0  0  0  0  0  0  0
    6.4474    1.4912    9.8890 C   0  0  0  0  0  0  0  0  0  0  0  0
    7.9095    1.7361   10.3691 C   0  0  0  0  0  0  0  0  0  0  0  0
    8.8608    1.6432    9.1988 C   0  0  0  0  0  0  0  0  0  0  0  0
    8.6090    2.6965    8.4212 C   0  0  0  0  0  0  0  0  0  0  0  0
    7.4941    3.4705    9.0896 C   0  0  0  0  0  0  0  0  0  0  0  0
    7.8832    3.2425   10.5389 C   0  0  0  0  0  0  0  0  0  0  0  0
    6.1693    2.6521    9.0366 C   0  0  0  0  0  0  0  0  0  0  0  0
    3.2658   -1.6763    3.1829 C   0  0  0  0  0  0  0  0  0  0  0  0
    2.1229   -1.1148    3.7858 C   0  0  0  0  0  0  0  0  0  0  0  0
    1.7970   -1.1900    5.2578 C   0  0  0  0  0  0  0  0  0  0  0  0
    1.2241   -2.5584    5.6162 C   0  0  0  0  0  0  0  0  0  0  0  0
    1.2952   -0.5357    2.8265 C   0  0  0  0  0  0  0  0  0  0  0  0
   -0.1528    0.3578    2.9290 S   0  0  0  0  0  0  0  0  0  0  0  0
   -0.1572    0.5632    1.2448 C   0  0  0  0  0  0  0  0  0  0  0  0
   -0.8221    1.3004    0.3135 C   0  0  0  0  0  0  0  0  0  0  0  0
   -1.8370    2.2496    0.4676 C   0  0  0  0  0  0  0  0  0  0  0  0
   -2.2454    2.9876   -0.6625 C   0  0  0  0  0  0  0  0  0  0  0  0
   -3.2331    3.9137   -0.5324 N   0  0  0  0  0  0  0  0  0  0  0  0
   -3.8147    4.1503    0.6758 C   0  0  0  0  0  0  0  0  0  0  0  0
   -3.3957    3.4290    1.8000 C   0  0  0  0  0  0  0  0  0  0  0  0
   -2.4187    2.4917    1.6732 N   0  0  0  0  0  0  0  0  0  0  0  0
   -1.6429    2.7061   -1.8980 C   0  0  0  0  0  0  0  0  0  0  0  0
   -2.0604    3.0394   -3.1540 C   0  0  0  0  0  0  0  0  0  0  0  0
   -3.4623    3.7428   -3.8015 S   0  0  0  0  0  0  0  0  0  0  0  0
   -3.2095    2.9625   -5.2902 C   0  0  0  0  0  0  0  0  0  0  0  0
   -4.0165    2.8134   -6.4198 C   0  0  0  0  0  0  0  0  0  0  0  0
   -5.3200    3.5311   -6.6309 C   0  0  0  0  0  0  0  0  0  0  0  0
   -6.4874    2.7162   -6.0933 C   0  0  0  0  0  0  0  0  0  0  0  0
   -3.5176    1.7995   -7.2537 C   0  0  0  0  0  0  0  0  0  0  0  0
   -2.0808    1.1506   -6.5989 S   0  0  0  0  0  0  0  0  0  0  0  0
   -2.1033    2.1438   -5.2459 C   0  0  0  0  0  0  0  0  0  0  0  0
   -1.4365    2.1988   -4.0212 C   0  0  0  0  0  0  0  0  0  0  0  0
   -0.5739    1.3507   -3.3956 N   0  0  0  0  0  0  0  0  0  0  0  0
   -0.6582    1.7130   -2.0675 C   0  0  0  0  0  0  0  0  0  0  0  0
   -0.1575    1.0682   -0.9023 C   0  0  0  0  0  0  0  0  0  0  0  0
    0.9771    0.3120   -0.6922 N   0  0  0  0  0  0  0  0  0  0  0  0
    0.8999   -0.0083    0.6263 C   0  0  0  0  0  0  0  0  0  0  0  0
    1.7518   -0.6293    1.5328 C   0  0  0  0  0  0  0  0  0  0  0  0
    3.2208   -1.4497    1.4928 S   0  0  0  0  0  0  0  0  0  0  0  0
    2.2214    0.2430   -1.4747 C   0  0  0  0  0  0  0  0  0  0  0  0
    2.6312    1.6099   -2.0299 C   0  0  0  0  0  0  0  0  0  0  0  0
   -0.0524    0.1130   -3.9892 C   0  0  0  0  0  0  0  0  0  0  0  0
   -0.7723   -1.1145   -3.4408 C   0  0  0  0  0  0  0  0  0  0  0  0
   -4.2209    1.2622   -8.4263 C   0  0  0  0  0  0  0  0  0  0  0  0
   -4.8621    0.0779   -8.4246 C   0  0  0  0  0  0  0  0  0  0  0  0
   -4.7942   -0.9434   -7.3690 C   0  0  0  0  0  0  0  0  0  0  0  0
   -4.3846   -0.7856   -6.1899 O   0  0  0  0  0  0  0  0  0  0  0  0
   -5.3043   -2.1837   -7.9035 C   0  0  0  0  0  0  0  0  0  0  0  0
   -5.3052   -3.4414   -7.3004 C   0  0  0  0  0  0  0  0  0  0  0  0
   -5.7915   -4.5330   -8.0325 C   0  0  0  0  0  0  0  0  0  0  0  0
   -5.8135   -6.1271   -7.2974 Cl  0  0  0  0  0  0  0  0  0  0  0  0
   -6.2454   -4.3503   -9.3549 C   0  0  0  0  0  0  0  0  0  0  0  0
   -6.6968   -5.4094  -10.0715 F   0  0  0  0  0  0  0  0  0  0  0  0
   -6.2221   -3.0751   -9.9456 C   0  0  0  0  0  0  0  0  0  0  0  0
   -5.7602   -1.9813   -9.1945 C   0  0  0  0  0  0  0  0  0  0  0  0
   -5.6235   -0.5404   -9.5534 C   0  0  0  0  0  0  0  0  0  0  0  0
   -6.2923    0.1173  -10.5359 C   0  0  0  0  0  0  0  0  0  0  0  0
   -7.1383   -0.5596  -11.4809 C   0  0  0  0  0  0  0  0  0  0  0  0
   -7.8239   -1.0930  -12.2464 N   0  0  0  0  0  0  0  0  0  0  0  0
   -6.3390    1.5543  -10.6091 C   0  0  0  0  0  0  0  0  0  0  0  0
   -6.3860    2.7091  -10.6768 N   0  0  0  0  0  0  0  0  0  0  0  0
    4.2572   -3.3903    4.0547 H   0  0  0  0  0  0  0  0  0  0  0  0
    5.4195    2.4832    5.9170 H   0  0  0  0  0  0  0  0  0  0  0  0
    6.4165   -1.5261    8.9140 H   0  0  0  0  0  0  0  0  0  0  0  0
    5.7006    1.3502   10.7040 H   0  0  0  0  0  0  0  0  0  0  0  0
    8.2172    1.1567   11.2645 H   0  0  0  0  0  0  0  0  0  0  0  0
    9.6502    0.9178    9.0501 H   0  0  0  0  0  0  0  0  0  0  0  0
    9.1603    2.9736    7.5310 H   0  0  0  0  0  0  0  0  0  0  0  0
    7.4084    4.5341    8.7818 H   0  0  0  0  0  0  0  0  0  0  0  0
    7.1179    3.5932   11.2708 H   0  0  0  0  0  0  0  0  0  0  0  0
    8.8785    3.6720   10.8037 H   0  0  0  0  0  0  0  0  0  0  0  0
    5.2538    3.2144    9.3314 H   0  0  0  0  0  0  0  0  0  0  0  0
    2.7194   -1.0154    5.8471 H   0  0  0  0  0  0  0  0  0  0  0  0
    1.0760   -0.3940    5.5421 H   0  0  0  0  0  0  0  0  0  0  0  0
    1.3203   -2.7234    6.7095 H   0  0  0  0  0  0  0  0  0  0  0  0
    0.1546   -2.6170    5.3395 H   0  0  0  0  0  0  0  0  0  0  0  0
    1.7850   -3.3664    5.1022 H   0  0  0  0  0  0  0  0  0  0  0  0
   -4.6003    4.8890    0.7606 H   0  0  0  0  0  0  0  0  0  0  0  0
   -3.8537    3.6077    2.7628 H   0  0  0  0  0  0  0  0  0  0  0  0
   -5.2896    4.5192   -6.1195 H   0  0  0  0  0  0  0  0  0  0  0  0
   -5.4673    3.7235   -7.7136 H   0  0  0  0  0  0  0  0  0  0  0  0
   -7.4379    3.2760   -6.2435 H   0  0  0  0  0  0  0  0  0  0  0  0
   -6.5693    1.7471   -6.6314 H   0  0  0  0  0  0  0  0  0  0  0  0
   -6.3562    2.5214   -5.0066 H   0  0  0  0  0  0  0  0  0  0  0  0
    2.1553   -0.5490   -2.2433 H   0  0  0  0  0  0  0  0  0  0  0  0
    3.0582   -0.0822   -0.8292 H   0  0  0  0  0  0  0  0  0  0  0  0
    2.5603    2.3785   -1.2323 H   0  0  0  0  0  0  0  0  0  0  0  0
    3.6788    1.5707   -2.3892 H   0  0  0  0  0  0  0  0  0  0  0  0
    1.9901    1.9184   -2.8763 H   0  0  0  0  0  0  0  0  0  0  0  0
    1.0349    0.0489   -3.8731 H   0  0  0  0  0  0  0  0  0  0  0  0
   -0.1752    0.1259   -5.0856 H   0  0  0  0  0  0  0  0  0  0  0  0
   -0.4449   -2.0215   -3.9867 H   0  0  0  0  0  0  0  0  0  0  0  0
   -1.8703   -0.9943   -3.5636 H   0  0  0  0  0  0  0  0  0  0  0  0
   -0.5375   -1.2567   -2.3683 H   0  0  0  0  0  0  0  0  0  0  0  0
   -4.2179    1.8842   -9.3044 H   0  0  0  0  0  0  0  0  0  0  0  0
   -4.9172   -3.5753   -6.2965 H   0  0  0  0  0  0  0  0  0  0  0  0
   -6.5241   -2.9773  -10.9754 H   0  0  0  0  0  0  0  0  0  0  0  0
  1  2  2  3
  2  3  1  0
  3  4  2  0
  3  5  1  0
  5  6  2  0
  6  7  1  0
  7  8  2  0
  8  9  1  0
  9 10  2  0
 10 11  1  0
 11 12  2  3
 12 13  1  0
 13 14  3  0
 12 15  1  0
 15 16  3  0
  8 17  1  0
 17 18  1  0
 18 19  1  0
 19 20  2  0
 20 21  1  0
 21 22  1  0
 21 23  1  0
  1 24  1  0
 24 25  2  0
 25 26  1  0
 26 27  1  0
 25 28  1  0
 28 29  1  0
 29 30  1  0
 30 31  1  0
 31 32  2  0
 32 33  1  0
 33 34  1  0
 34 35  2  0
 35 36  1  0
 36 37  2  0
 33 38  2  0
 38 39  1  0
 39 40  1  0
 40 41  1  0
 41 42  1  0
 42 43  1  0
 43 44  1  0
 42 45  2  0
 45 46  1  0
 46 47  1  0
 47 48  1  0
 48 49  1  0
 49 50  1  0
 50 51  2  0
 51 52  1  0
 52 53  1  0
 53 54  1  0
 54 55  1  0
 52 56  1  0
 56 57  1  0
 49 58  1  0
 58 59  1  0
 45 60  1  0
 60 61  2  3
 61 62  1  0
 62 63  2  0
 62 64  1  0
 64 65  2  0
 65 66  1  0
 66 67  1  0
 66 68  2  0
 68 69  1  0
 68 70  1  0
 70 71  2  0
 71 72  1  0
 72 73  2  3
 73 74  1  0
 74 75  3  0
 73 76  1  0
 76 77  3  0
 11  2  1  0
 23 17  1  0
 55 24  1  0
 72 61  1  0
 10  5  1  0
 22 18  1  0
 54 28  2  0
 71 64  1  0
 23  7  1  0
 53 30  2  0
 51 31  1  0
 37 32  1  0
 50 38  1  0
 48 39  2  0
 47 41  2  0
  1 78  1  0
  6 79  1  0
  9 80  1  0
 17 81  1  0
 18 82  1  0
 19 83  1  0
 20 84  1  0
 21 85  1  0
 22 86  1  0
 22 87  1  0
 23 88  1  0
 26 89  1  0
 26 90  1  0
 27 91  1  0
 27 92  1  0
 27 93  1  0
 35 94  1  0
 36 95  1  0
 43 96  1  0
 43 97  1  0
 44 98  1  0
 44 99  1  0
 44100  1  0
 56101  1  0
 56102  1  0
 57103  1  0
 57104  1  0
 57105  1  0
 58106  1  0
 58107  1  0
 59108  1  0
 59109  1  0
 59110  1  0
 60111  1  0
 65112  1  0
 70113  1  0
M  END

