
     RDKit          3D

116131  0  0  0  0  0  0  0  0999 V2000
   -3.8014   -0.4122   -6.0747 C   0  0  0  0  0  0  0  0  0  0  0  0
   -4.1850    0.8783   -6.0227 C   0  0  0  0  0  0  0  0  0  0  0  0
   -3.3152    2.0282   -5.7598 C   0  0  0  0  0  0  0  0  0  0  0  0
   -2.1155    2.1517   -6.1252 O   0  0  0  0  0  0  0  0  0  0  0  0
   -4.0894    3.0427   -5.0816 C   0  0  0  0  0  0  0  0  0  0  0  0
   -3.5947    4.1907   -4.4206 C   0  0  0  0  0  0  0  0  0  0  0  0
   -4.5478    4.8549   -3.6716 C   0  0  0  0  0  0  0  0  0  0  0  0
   -5.9112    4.4242   -3.5716 C   0  0  0  0  0  0  0  0  0  0  0  0
   -6.4048    3.3099   -4.2323 C   0  0  0  0  0  0  0  0  0  0  0  0
   -5.4427    2.6218   -5.0226 C   0  0  0  0  0  0  0  0  0  0  0  0
   -5.5783    1.3395   -5.7663 C   0  0  0  0  0  0  0  0  0  0  0  0
   -6.7110    0.8335   -6.3113 C   0  0  0  0  0  0  0  0  0  0  0  0
   -8.0062    1.4159   -6.0701 C   0  0  0  0  0  0  0  0  0  0  0  0
   -9.0526    1.8774   -5.8817 N   0  0  0  0  0  0  0  0  0  0  0  0
   -6.6786   -0.2554   -7.2562 C   0  0  0  0  0  0  0  0  0  0  0  0
   -6.6589   -1.1244   -8.0193 N   0  0  0  0  0  0  0  0  0  0  0  0
   -6.2113    5.5361   -2.6074 C   0  0  0  0  0  0  0  0  0  0  0  0
   -7.0271    6.7590   -3.1238 C   0  0  0  0  0  0  0  0  0  0  0  0
   -6.7695    6.9657   -4.5992 C   0  0  0  0  0  0  0  0  0  0  0  0
   -5.5006    7.3636   -4.7096 C   0  0  0  0  0  0  0  0  0  0  0  0
   -4.9388    7.4202   -3.3056 C   0  0  0  0  0  0  0  0  0  0  0  0
   -6.1788    7.8910   -2.5699 C   0  0  0  0  0  0  0  0  0  0  0  0
   -4.8168    5.9818   -2.7201 C   0  0  0  0  0  0  0  0  0  0  0  0
   -2.4485   -0.8952   -5.7157 C   0  0  0  0  0  0  0  0  0  0  0  0
   -1.8955   -2.1356   -6.1022 C   0  0  0  0  0  0  0  0  0  0  0  0
   -2.4544   -3.0384   -7.1676 C   0  0  0  0  0  0  0  0  0  0  0  0
   -1.9446   -2.6125   -8.5391 C   0  0  0  0  0  0  0  0  0  0  0  0
   -0.7219   -2.4113   -5.3885 C   0  0  0  0  0  0  0  0  0  0  0  0
    0.2209   -3.8186   -5.2016 S   0  0  0  0  0  0  0  0  0  0  0  0
    1.1352   -3.0929   -3.9644 C   0  0  0  0  0  0  0  0  0  0  0  0
    1.8479   -3.5362   -2.8809 C   0  0  0  0  0  0  0  0  0  0  0  0
    2.1540   -4.8470   -2.4747 C   0  0  0  0  0  0  0  0  0  0  0  0
    2.5888   -5.0624   -1.1440 C   0  0  0  0  0  0  0  0  0  0  0  0
    2.8386   -6.3267   -0.7181 N   0  0  0  0  0  0  0  0  0  0  0  0
    2.6736   -7.3869   -1.5549 C   0  0  0  0  0  0  0  0  0  0  0  0
    2.2368   -7.1759   -2.8684 C   0  0  0  0  0  0  0  0  0  0  0  0
    1.9795   -5.9134   -3.2983 N   0  0  0  0  0  0  0  0  0  0  0  0
    2.7250   -3.9520   -0.3002 C   0  0  0  0  0  0  0  0  0  0  0  0
    3.1618   -3.8278    0.9913 C   0  0  0  0  0  0  0  0  0  0  0  0
    3.7788   -4.7771    2.2602 S   0  0  0  0  0  0  0  0  0  0  0  0
    4.0873   -3.3763    3.1944 C   0  0  0  0  0  0  0  0  0  0  0  0
    4.6147   -3.1542    4.4688 C   0  0  0  0  0  0  0  0  0  0  0  0
    5.0879   -4.2392    5.3970 C   0  0  0  0  0  0  0  0  0  0  0  0
    4.0663   -4.5063    6.4947 C   0  0  0  0  0  0  0  0  0  0  0  0
    4.6024   -1.7777    4.7778 C   0  0  0  0  0  0  0  0  0  0  0  0
    4.0272   -0.8769    3.4437 S   0  0  0  0  0  0  0  0  0  0  0  0
    3.7414   -2.2381    2.5143 C   0  0  0  0  0  0  0  0  0  0  0  0
    3.2105   -2.5013    1.2666 C   0  0  0  0  0  0  0  0  0  0  0  0
    2.8606   -1.7236    0.2150 N   0  0  0  0  0  0  0  0  0  0  0  0
    2.4742   -2.6396   -0.7270 C   0  0  0  0  0  0  0  0  0  0  0  0
    1.9230   -2.4375   -2.0095 C   0  0  0  0  0  0  0  0  0  0  0  0
    1.1630   -1.3915   -2.4722 N   0  0  0  0  0  0  0  0  0  0  0  0
    0.7139   -1.8312   -3.6754 C   0  0  0  0  0  0  0  0  0  0  0  0
   -0.3634   -1.4587   -4.4695 C   0  0  0  0  0  0  0  0  0  0  0  0
   -1.5077   -0.2431   -4.4493 S   0  0  0  0  0  0  0  0  0  0  0  0
    0.5427   -0.3093   -1.6946 C   0  0  0  0  0  0  0  0  0  0  0  0
    0.9431    1.0640   -2.2426 C   0  0  0  0  0  0  0  0  0  0  0  0
    3.4184   -0.3869   -0.0387 C   0  0  0  0  0  0  0  0  0  0  0  0
    4.9452   -0.4343   -0.1352 C   0  0  0  0  0  0  0  0  0  0  0  0
    5.1399   -1.1754    6.0089 C   0  0  0  0  0  0  0  0  0  0  0  0
    4.4546   -0.3069    6.7796 C   0  0  0  0  0  0  0  0  0  0  0  0
    3.0823    0.1621    6.5382 C   0  0  0  0  0  0  0  0  0  0  0  0
    2.2161   -0.3928    5.8107 O   0  0  0  0  0  0  0  0  0  0  0  0
    2.8530    1.3407    7.3438 C   0  0  0  0  0  0  0  0  0  0  0  0
    1.7311    2.1810    7.3439 C   0  0  0  0  0  0  0  0  0  0  0  0
    1.7808    3.3133    8.1636 C   0  0  0  0  0  0  0  0  0  0  0  0
    0.7757    4.2764    8.2974 C   0  0  0  0  0  0  0  0  0  0  0  0
    1.1304    5.3091    9.1638 C   0  0  0  0  0  0  0  0  0  0  0  0
    2.6881    5.0214    9.7573 S   0  0  0  0  0  0  0  0  0  0  0  0
    2.9164    3.5856    8.9225 C   0  0  0  0  0  0  0  0  0  0  0  0
    4.0396    2.7527    8.9239 C   0  0  0  0  0  0  0  0  0  0  0  0
    3.9774    1.5875    8.1319 C   0  0  0  0  0  0  0  0  0  0  0  0
    4.9829    0.5056    7.9216 C   0  0  0  0  0  0  0  0  0  0  0  0
    6.0181    0.1918    8.7443 C   0  0  0  0  0  0  0  0  0  0  0  0
    6.3347    0.9678    9.9159 C   0  0  0  0  0  0  0  0  0  0  0  0
    6.5955    1.5784   10.8628 N   0  0  0  0  0  0  0  0  0  0  0  0
    6.7852   -1.0170    8.5993 C   0  0  0  0  0  0  0  0  0  0  0  0
    7.4063   -1.9887    8.5002 N   0  0  0  0  0  0  0  0  0  0  0  0
   -4.5509   -1.1781   -6.1843 H   0  0  0  0  0  0  0  0  0  0  0  0
   -2.5542    4.4863   -4.4390 H   0  0  0  0  0  0  0  0  0  0  0  0
   -7.4202    2.9795   -4.0793 H   0  0  0  0  0  0  0  0  0  0  0  0
   -6.4859    5.1865   -1.5874 H   0  0  0  0  0  0  0  0  0  0  0  0
   -8.0962    6.7734   -2.8253 H   0  0  0  0  0  0  0  0  0  0  0  0
   -7.4833    6.8829   -5.4131 H   0  0  0  0  0  0  0  0  0  0  0  0
   -5.0061    7.6623   -5.6282 H   0  0  0  0  0  0  0  0  0  0  0  0
   -4.0375    8.0573   -3.1851 H   0  0  0  0  0  0  0  0  0  0  0  0
   -6.0680    7.8692   -1.4591 H   0  0  0  0  0  0  0  0  0  0  0  0
   -6.5248    8.9028   -2.8926 H   0  0  0  0  0  0  0  0  0  0  0  0
   -4.2462    5.9072   -1.7674 H   0  0  0  0  0  0  0  0  0  0  0  0
   -3.5623   -3.0130   -7.1615 H   0  0  0  0  0  0  0  0  0  0  0  0
   -2.1502   -4.0890   -6.9740 H   0  0  0  0  0  0  0  0  0  0  0  0
   -2.2533   -1.5665   -8.7556 H   0  0  0  0  0  0  0  0  0  0  0  0
   -0.8362   -2.6806   -8.5791 H   0  0  0  0  0  0  0  0  0  0  0  0
   -2.3713   -3.2777   -9.3170 H   0  0  0  0  0  0  0  0  0  0  0  0
    2.8770   -8.3889   -1.2020 H   0  0  0  0  0  0  0  0  0  0  0  0
    2.0946   -8.0135   -3.5385 H   0  0  0  0  0  0  0  0  0  0  0  0
    6.0532   -3.9370    5.8528 H   0  0  0  0  0  0  0  0  0  0  0  0
    5.2667   -5.1761    4.8304 H   0  0  0  0  0  0  0  0  0  0  0  0
    4.4484   -5.3018    7.1680 H   0  0  0  0  0  0  0  0  0  0  0  0
    3.1056   -4.8420    6.0521 H   0  0  0  0  0  0  0  0  0  0  0  0
    3.8936   -3.5893    7.0963 H   0  0  0  0  0  0  0  0  0  0  0  0
    0.8129   -0.3864   -0.6237 H   0  0  0  0  0  0  0  0  0  0  0  0
   -0.5617   -0.4145   -1.7175 H   0  0  0  0  0  0  0  0  0  0  0  0
    0.2370    1.3923   -3.0277 H   0  0  0  0  0  0  0  0  0  0  0  0
    1.9595    1.0406   -2.6827 H   0  0  0  0  0  0  0  0  0  0  0  0
    0.9235    1.8121   -1.4256 H   0  0  0  0  0  0  0  0  0  0  0  0
    3.1082    0.3131    0.7681 H   0  0  0  0  0  0  0  0  0  0  0  0
    3.0621   -0.0013   -1.0043 H   0  0  0  0  0  0  0  0  0  0  0  0
    5.2686   -1.2663   -0.7935 H   0  0  0  0  0  0  0  0  0  0  0  0
    5.3896   -0.5747    0.8668 H   0  0  0  0  0  0  0  0  0  0  0  0
    5.3240    0.5234   -0.5502 H   0  0  0  0  0  0  0  0  0  0  0  0
    6.1620   -1.4281    6.2309 H   0  0  0  0  0  0  0  0  0  0  0  0
    0.8702    1.9699    6.7217 H   0  0  0  0  0  0  0  0  0  0  0  0
   -0.1741    4.2351    7.7805 H   0  0  0  0  0  0  0  0  0  0  0  0
    0.5083    6.1588    9.4144 H   0  0  0  0  0  0  0  0  0  0  0  0
    4.9101    3.0356    9.4904 H   0  0  0  0  0  0  0  0  0  0  0  0
  1  2  2  3
  2  3  1  0
  3  4  2  0
  3  5  1  0
  5  6  2  0
  6  7  1  0
  7  8  2  0
  8  9  1  0
  9 10  2  0
 10 11  1  0
 11 12  2  3
 12 13  1  0
 13 14  3  0
 12 15  1  0
 15 16  3  0
  8 17  1  0
 17 18  1  0
 18 19  1  0
 19 20  2  0
 20 21  1  0
 21 22  1  0
 21 23  1  0
  1 24  1  0
 24 25  2  0
 25 26  1  0
 26 27  1  0
 25 28  1  0
 28 29  1  0
 29 30  1  0
 30 31  1  0
 31 32  2  0
 32 33  1  0
 33 34  1  0
 34 35  2  0
 35 36  1  0
 36 37  2  0
 33 38  2  0
 38 39  1  0
 39 40  1  0
 40 41  1  0
 41 42  1  0
 42 43  1  0
 43 44  1  0
 42 45  2  0
 45 46  1  0
 46 47  1  0
 47 48  1  0
 48 49  1  0
 49 50  1  0
 50 51  2  0
 51 52  1  0
 52 53  1  0
 53 54  1  0
 54 55  1  0
 52 56  1  0
 56 57  1  0
 49 58  1  0
 58 59  1  0
 45 60  1  0
 60 61  2  3
 61 62  1  0
 62 63  2  0
 62 64  1  0
 64 65  2  0
 65 66  1  0
 66 67  1  0
 67 68  2  0
 68 69  1  0
 69 70  1  0
 70 71  1  0
 71 72  2  0
 72 73  1  0
 73 74  2  3
 74 75  1  0
 75 76  3  0
 74 77  1  0
 77 78  3  0
 11  2  1  0
 23 17  1  0
 55 24  1  0
 73 61  1  0
 10  5  1  0
 22 18  1  0
 54 28  2  0
 72 64  1  0
 23  7  1  0
 53 30  2  0
 70 66  2  0
 51 31  1  0
 37 32  1  0
 50 38  1  0
 48 39  2  0
 47 41  2  0
  1 79  1  0
  6 80  1  0
  9 81  1  0
 17 82  1  0
 18 83  1  0
 19 84  1  0
 20 85  1  0
 21 86  1  0
 22 87  1  0
 22 88  1  0
 23 89  1  0
 26 90  1  0
 26 91  1  0
 27 92  1  0
 27 93  1  0
 27 94  1  0
 35 95  1  0
 36 96  1  0
 43 97  1  0
 43 98  1  0
 44 99  1  0
 44100  1  0
 44101  1  0
 56102  1  0
 56103  1  0
 57104  1  0
 57105  1  0
 57106  1  0
 58107  1  0
 58108  1  0
 59109  1  0
 59110  1  0
 59111  1  0
 60112  1  0
 65113  1  0
 67114  1  0
 68115  1  0
 71116  1  0
M  END

