
     RDKit          3D

136152  0  0  0  0  0  0  0  0999 V2000
    0.4772    6.3676    4.6521 C   0  0  0  0  0  0  0  0  0  0  0  0
    1.7241    5.8873    4.8491 C   0  0  0  0  0  0  0  0  0  0  0  0
    2.2078    4.5609    4.4319 C   0  0  0  0  0  0  0  0  0  0  0  0
    1.5019    3.5770    4.0908 O   0  0  0  0  0  0  0  0  0  0  0  0
    3.6516    4.5704    4.4366 C   0  0  0  0  0  0  0  0  0  0  0  0
    4.5095    3.5647    3.9349 C   0  0  0  0  0  0  0  0  0  0  0  0
    5.8417    3.9278    3.9043 C   0  0  0  0  0  0  0  0  0  0  0  0
    6.3162    5.2027    4.3470 C   0  0  0  0  0  0  0  0  0  0  0  0
    5.4821    6.1899    4.8436 C   0  0  0  0  0  0  0  0  0  0  0  0
    4.1041    5.8317    4.8977 C   0  0  0  0  0  0  0  0  0  0  0  0
    2.9257    6.6546    5.2963 C   0  0  0  0  0  0  0  0  0  0  0  0
    2.9403    7.7256    6.1312 C   0  0  0  0  0  0  0  0  0  0  0  0
    1.7316    8.3173    6.6443 C   0  0  0  0  0  0  0  0  0  0  0  0
    0.7677    8.7954    7.0694 N   0  0  0  0  0  0  0  0  0  0  0  0
    4.1587    8.2403    6.6984 C   0  0  0  0  0  0  0  0  0  0  0  0
    5.1279    8.6565    7.1733 N   0  0  0  0  0  0  0  0  0  0  0  0
    7.7184    4.8357    3.9528 C   0  0  0  0  0  0  0  0  0  0  0  0
    8.7338    4.4752    5.0809 C   0  0  0  0  0  0  0  0  0  0  0  0
    8.0077    3.8652    6.2550 C   0  0  0  0  0  0  0  0  0  0  0  0
    7.5547    2.6781    5.8470 C   0  0  0  0  0  0  0  0  0  0  0  0
    7.9950    2.5182    4.4084 C   0  0  0  0  0  0  0  0  0  0  0  0
    9.3417    3.2132    4.4907 C   0  0  0  0  0  0  0  0  0  0  0  0
    7.2310    3.5283    3.5028 C   0  0  0  0  0  0  0  0  0  0  0  0
   -0.5948    5.5248    4.1024 C   0  0  0  0  0  0  0  0  0  0  0  0
   -1.2242    4.4921    4.8185 C   0  0  0  0  0  0  0  0  0  0  0  0
   -1.2647    4.4276    6.3031 C   0  0  0  0  0  0  0  0  0  0  0  0
   -1.5426    5.5942    7.0352 C   0  0  0  0  0  0  0  0  0  0  0  0
   -1.6261    5.5587    8.4274 C   0  0  0  0  0  0  0  0  0  0  0  0
   -1.4561    4.3513    9.1063 C   0  0  0  0  0  0  0  0  0  0  0  0
   -1.1624    3.1772    8.3998 C   0  0  0  0  0  0  0  0  0  0  0  0
   -1.0470    1.8667    9.1326 C   0  0  0  0  0  0  0  0  0  0  0  0
   -2.4234    1.2466    9.3395 C   0  0  0  0  0  0  0  0  0  0  0  0
   -1.0562    3.2239    6.9989 C   0  0  0  0  0  0  0  0  0  0  0  0
   -1.7618    3.5427    3.9356 C   0  0  0  0  0  0  0  0  0  0  0  0
   -2.1453    1.8996    4.1410 S   0  0  0  0  0  0  0  0  0  0  0  0
   -2.1774    1.6324    2.4692 C   0  0  0  0  0  0  0  0  0  0  0  0
   -1.8094    0.5698    1.6851 C   0  0  0  0  0  0  0  0  0  0  0  0
   -1.3986   -0.7185    2.0585 C   0  0  0  0  0  0  0  0  0  0  0  0
   -0.6855   -1.5186    1.1142 C   0  0  0  0  0  0  0  0  0  0  0  0
   -0.3190   -2.7617    1.5168 N   0  0  0  0  0  0  0  0  0  0  0  0
   -0.9049   -2.7396    3.0670 S   0  0  0  0  0  0  0  0  0  0  0  0
   -1.6157   -1.2591    3.2842 N   0  0  0  0  0  0  0  0  0  0  0  0
   -0.4330   -0.9926   -0.1596 C   0  0  0  0  0  0  0  0  0  0  0  0
   -0.0685   -1.6209   -1.3150 C   0  0  0  0  0  0  0  0  0  0  0  0
    0.1557   -3.2321   -1.7790 S   0  0  0  0  0  0  0  0  0  0  0  0
   -0.2865   -2.8777   -3.3872 C   0  0  0  0  0  0  0  0  0  0  0  0
   -0.5546   -3.6785   -4.5053 C   0  0  0  0  0  0  0  0  0  0  0  0
   -0.1988   -5.1179   -4.6334 C   0  0  0  0  0  0  0  0  0  0  0  0
    0.3254   -5.6071   -5.8437 C   0  0  0  0  0  0  0  0  0  0  0  0
    0.6799   -6.9511   -5.9711 C   0  0  0  0  0  0  0  0  0  0  0  0
    0.5547   -7.8169   -4.8807 C   0  0  0  0  0  0  0  0  0  0  0  0
    0.0406   -7.3477   -3.6634 C   0  0  0  0  0  0  0  0  0  0  0  0
   -0.0165   -8.2636   -2.4640 C   0  0  0  0  0  0  0  0  0  0  0  0
    1.3314   -8.2887   -1.7479 C   0  0  0  0  0  0  0  0  0  0  0  0
   -0.3412   -6.0039   -3.5485 C   0  0  0  0  0  0  0  0  0  0  0  0
   -1.1997   -2.9168   -5.5034 C   0  0  0  0  0  0  0  0  0  0  0  0
   -1.3751   -1.2986   -4.9966 S   0  0  0  0  0  0  0  0  0  0  0  0
   -0.6350   -1.5536   -3.5148 C   0  0  0  0  0  0  0  0  0  0  0  0
   -0.4710   -0.8236   -2.3393 C   0  0  0  0  0  0  0  0  0  0  0  0
   -0.9835    0.3618   -1.9135 N   0  0  0  0  0  0  0  0  0  0  0  0
   -0.9071    0.2687   -0.5462 C   0  0  0  0  0  0  0  0  0  0  0  0
   -1.4832    1.1093    0.4349 C   0  0  0  0  0  0  0  0  0  0  0  0
   -1.4772    2.4790    0.4877 N   0  0  0  0  0  0  0  0  0  0  0  0
   -1.8957    2.7577    1.7538 C   0  0  0  0  0  0  0  0  0  0  0  0
   -1.6264    3.8392    2.5972 C   0  0  0  0  0  0  0  0  0  0  0  0
   -0.7478    5.2544    2.4307 S   0  0  0  0  0  0  0  0  0  0  0  0
   -0.6762    3.3815   -0.3502 C   0  0  0  0  0  0  0  0  0  0  0  0
   -1.5196    4.5337   -0.8966 C   0  0  0  0  0  0  0  0  0  0  0  0
   -1.8941    1.2109   -2.6936 C   0  0  0  0  0  0  0  0  0  0  0  0
   -1.1518    1.9651   -3.7963 C   0  0  0  0  0  0  0  0  0  0  0  0
   -1.8115   -3.4367   -6.7366 C   0  0  0  0  0  0  0  0  0  0  0  0
   -2.7801   -4.3756   -6.7384 C   0  0  0  0  0  0  0  0  0  0  0  0
   -3.4041   -4.9603   -5.5384 C   0  0  0  0  0  0  0  0  0  0  0  0
   -3.3287   -4.5182   -4.3608 O   0  0  0  0  0  0  0  0  0  0  0  0
   -4.2082   -6.0866   -5.9430 C   0  0  0  0  0  0  0  0  0  0  0  0
   -4.8804   -6.9941   -5.1275 C   0  0  0  0  0  0  0  0  0  0  0  0
   -5.5625   -8.0765   -5.7318 C   0  0  0  0  0  0  0  0  0  0  0  0
   -6.2799   -9.0298   -4.9900 O   0  0  0  0  0  0  0  0  0  0  0  0
   -6.8283   -8.8371   -3.7130 C   0  0  0  0  0  0  0  0  0  0  0  0
   -6.9818   -7.6789   -3.2333 O   0  0  0  0  0  0  0  0  0  0  0  0
   -7.3278  -10.0145   -2.9494 C   0  0  0  0  0  0  0  0  0  0  0  0
   -5.4606   -8.2544   -7.1247 C   0  0  0  0  0  0  0  0  0  0  0  0
   -4.7607   -7.3317   -7.9232 C   0  0  0  0  0  0  0  0  0  0  0  0
   -4.1854   -6.2052   -7.3208 C   0  0  0  0  0  0  0  0  0  0  0  0
   -3.3859   -5.0932   -7.9100 C   0  0  0  0  0  0  0  0  0  0  0  0
   -3.3949   -4.7082   -9.2186 C   0  0  0  0  0  0  0  0  0  0  0  0
   -2.6491   -3.5841   -9.7129 C   0  0  0  0  0  0  0  0  0  0  0  0
   -2.0555   -2.6815  -10.1286 N   0  0  0  0  0  0  0  0  0  0  0  0
   -4.2481   -5.3335  -10.1903 C   0  0  0  0  0  0  0  0  0  0  0  0
   -4.9493   -5.8192  -10.9749 N   0  0  0  0  0  0  0  0  0  0  0  0
    0.2454    7.4113    4.8033 H   0  0  0  0  0  0  0  0  0  0  0  0
    4.1510    2.6207    3.5518 H   0  0  0  0  0  0  0  0  0  0  0  0
    5.8633    7.1676    5.0837 H   0  0  0  0  0  0  0  0  0  0  0  0
    8.1333    5.4571    3.1284 H   0  0  0  0  0  0  0  0  0  0  0  0
    9.4559    5.2788    5.3405 H   0  0  0  0  0  0  0  0  0  0  0  0
    7.9535    4.2551    7.2624 H   0  0  0  0  0  0  0  0  0  0  0  0
    7.0611    1.9421    6.4710 H   0  0  0  0  0  0  0  0  0  0  0  0
    8.0181    1.4714    4.0381 H   0  0  0  0  0  0  0  0  0  0  0  0
    9.8242    3.3757    3.4980 H   0  0  0  0  0  0  0  0  0  0  0  0
   10.0602    2.7098    5.1777 H   0  0  0  0  0  0  0  0  0  0  0  0
    7.3503    3.3572    2.4107 H   0  0  0  0  0  0  0  0  0  0  0  0
   -1.7287    6.5305    6.5262 H   0  0  0  0  0  0  0  0  0  0  0  0
   -1.8558    6.4610    8.9788 H   0  0  0  0  0  0  0  0  0  0  0  0
   -1.5585    4.3315   10.1867 H   0  0  0  0  0  0  0  0  0  0  0  0
   -0.4037    1.1640    8.5610 H   0  0  0  0  0  0  0  0  0  0  0  0
   -0.5629    2.0298   10.1217 H   0  0  0  0  0  0  0  0  0  0  0  0
   -2.3158    0.2415    9.8011 H   0  0  0  0  0  0  0  0  0  0  0  0
   -2.9511    1.1398    8.3675 H   0  0  0  0  0  0  0  0  0  0  0  0
   -3.0289    1.8776   10.0245 H   0  0  0  0  0  0  0  0  0  0  0  0
   -0.8022    2.3200    6.4637 H   0  0  0  0  0  0  0  0  0  0  0  0
    0.4788   -4.9466   -6.6905 H   0  0  0  0  0  0  0  0  0  0  0  0
    1.0816   -7.3209   -6.9076 H   0  0  0  0  0  0  0  0  0  0  0  0
    0.8721   -8.8487   -4.9855 H   0  0  0  0  0  0  0  0  0  0  0  0
   -0.7965   -7.9152   -1.7538 H   0  0  0  0  0  0  0  0  0  0  0  0
   -0.2844   -9.2922   -2.7792 H   0  0  0  0  0  0  0  0  0  0  0  0
    1.2817   -8.9682   -0.8684 H   0  0  0  0  0  0  0  0  0  0  0  0
    2.1284   -8.6545   -2.4341 H   0  0  0  0  0  0  0  0  0  0  0  0
    1.5974   -7.2697   -1.3914 H   0  0  0  0  0  0  0  0  0  0  0  0
   -0.7624   -5.6618   -2.6149 H   0  0  0  0  0  0  0  0  0  0  0  0
    0.1767    3.7758    0.2401 H   0  0  0  0  0  0  0  0  0  0  0  0
   -0.2048    2.8325   -1.1849 H   0  0  0  0  0  0  0  0  0  0  0  0
   -2.1654    4.1846   -1.7259 H   0  0  0  0  0  0  0  0  0  0  0  0
   -2.1632    4.9586   -0.1034 H   0  0  0  0  0  0  0  0  0  0  0  0
   -0.8505    5.3302   -1.2888 H   0  0  0  0  0  0  0  0  0  0  0  0
   -2.6827    0.5725   -3.1439 H   0  0  0  0  0  0  0  0  0  0  0  0
   -2.4233    1.9278   -2.0381 H   0  0  0  0  0  0  0  0  0  0  0  0
   -1.8801    2.3414   -4.5426 H   0  0  0  0  0  0  0  0  0  0  0  0
   -0.6079    2.8379   -3.3844 H   0  0  0  0  0  0  0  0  0  0  0  0
   -0.4194    1.3071   -4.3077 H   0  0  0  0  0  0  0  0  0  0  0  0
   -1.4174   -3.0300   -7.6482 H   0  0  0  0  0  0  0  0  0  0  0  0
   -4.8353   -6.8790   -4.0544 H   0  0  0  0  0  0  0  0  0  0  0  0
   -6.9076  -10.0007   -1.9213 H   0  0  0  0  0  0  0  0  0  0  0  0
   -7.0237  -10.9546   -3.4520 H   0  0  0  0  0  0  0  0  0  0  0  0
   -8.4343   -9.9719   -2.8891 H   0  0  0  0  0  0  0  0  0  0  0  0
   -5.9198   -9.1147   -7.5953 H   0  0  0  0  0  0  0  0  0  0  0  0
   -4.6507   -7.5367   -8.9762 H   0  0  0  0  0  0  0  0  0  0  0  0
  1  2  2  3
  2  3  1  0
  3  4  2  0
  3  5  1  0
  5  6  2  0
  6  7  1  0
  7  8  2  0
  8  9  1  0
  9 10  2  0
 10 11  1  0
 11 12  2  3
 12 13  1  0
 13 14  3  0
 12 15  1  0
 15 16  3  0
  8 17  1  0
 17 18  1  0
 18 19  1  0
 19 20  2  0
 20 21  1  0
 21 22  1  0
 21 23  1  0
  1 24  1  0
 24 25  2  0
 25 26  1  0
 26 27  2  0
 27 28  1  0
 28 29  2  0
 29 30  1  0
 30 31  1  0
 31 32  1  0
 30 33  2  0
 25 34  1  0
 34 35  1  0
 35 36  1  0
 36 37  1  0
 37 38  1  0
 38 39  1  0
 39 40  2  0
 40 41  1  0
 41 42  1  0
 39 43  1  0
 43 44  1  0
 44 45  1  0
 45 46  1  0
 46 47  1  0
 47 48  1  0
 48 49  2  0
 49 50  1  0
 50 51  2  0
 51 52  1  0
 52 53  1  0
 53 54  1  0
 52 55  2  0
 47 56  2  0
 56 57  1  0
 57 58  1  0
 58 59  1  0
 59 60  1  0
 60 61  1  0
 61 62  1  0
 62 63  1  0
 63 64  1  0
 64 65  1  0
 65 66  1  0
 63 67  1  0
 67 68  1  0
 60 69  1  0
 69 70  1  0
 56 71  1  0
 71 72  2  3
 72 73  1  0
 73 74  2  0
 73 75  1  0
 75 76  2  0
 76 77  1  0
 77 78  1  0
 78 79  1  0
 79 80  2  0
 79 81  1  0
 77 82  2  0
 82 83  1  0
 83 84  2  0
 84 85  1  0
 85 86  2  3
 86 87  1  0
 87 88  3  0
 86 89  1  0
 89 90  3  0
 11  2  1  0
 23 17  1  0
 66 24  1  0
 85 72  1  0
 10  5  1  0
 22 18  1  0
 33 26  1  0
 65 34  2  0
 84 75  1  0
 23  7  1  0
 64 36  2  0
 62 37  2  0
 42 38  2  0
 61 43  2  0
 59 44  2  0
 58 46  2  0
 55 48  1  0
  1 91  1  0
  6 92  1  0
  9 93  1  0
 17 94  1  0
 18 95  1  0
 19 96  1  0
 20 97  1  0
 21 98  1  0
 22 99  1  0
 22100  1  0
 23101  1  0
 27102  1  0
 28103  1  0
 29104  1  0
 31105  1  0
 31106  1  0
 32107  1  0
 32108  1  0
 32109  1  0
 33110  1  0
 49111  1  0
 50112  1  0
 51113  1  0
 53114  1  0
 53115  1  0
 54116  1  0
 54117  1  0
 54118  1  0
 55119  1  0
 67120  1  0
 67121  1  0
 68122  1  0
 68123  1  0
 68124  1  0
 69125  1  0
 69126  1  0
 70127  1  0
 70128  1  0
 70129  1  0
 71130  1  0
 76131  1  0
 81132  1  0
 81133  1  0
 81134  1  0
 82135  1  0
 83136  1  0
M  END

