
     RDKit          3D

130146  0  0  0  0  0  0  0  0999 V2000
    2.3206    5.5064    3.3821 C   0  0  0  0  0  0  0  0  0  0  0  0
    1.7684    6.5850    2.7858 C   0  0  0  0  0  0  0  0  0  0  0  0
    1.8862    7.9184    3.3796 C   0  0  0  0  0  0  0  0  0  0  0  0
    2.7982    8.3041    4.1606 O   0  0  0  0  0  0  0  0  0  0  0  0
    0.7283    8.6950    2.9979 C   0  0  0  0  0  0  0  0  0  0  0  0
    0.3979   10.0079    3.4049 C   0  0  0  0  0  0  0  0  0  0  0  0
   -0.7970   10.4682    2.8837 C   0  0  0  0  0  0  0  0  0  0  0  0
   -1.6401    9.6801    2.0330 C   0  0  0  0  0  0  0  0  0  0  0  0
   -1.3238    8.3902    1.6347 C   0  0  0  0  0  0  0  0  0  0  0  0
   -0.0760    7.9131    2.1283 C   0  0  0  0  0  0  0  0  0  0  0  0
    0.6460    6.6529    1.8064 C   0  0  0  0  0  0  0  0  0  0  0  0
    0.7207    6.1726    0.5438 C   0  0  0  0  0  0  0  0  0  0  0  0
   -0.3937    6.2438   -0.3702 C   0  0  0  0  0  0  0  0  0  0  0  0
   -1.2939    6.2868   -1.0985 N   0  0  0  0  0  0  0  0  0  0  0  0
    1.9717    5.7049   -0.0027 C   0  0  0  0  0  0  0  0  0  0  0  0
    2.9750    5.3294   -0.4438 N   0  0  0  0  0  0  0  0  0  0  0  0
   -2.6137   10.8133    1.9232 C   0  0  0  0  0  0  0  0  0  0  0  0
   -2.6190   11.5935    0.5742 C   0  0  0  0  0  0  0  0  0  0  0  0
   -3.3510   12.8860    0.8438 C   0  0  0  0  0  0  0  0  0  0  0  0
   -2.5499   13.6202    1.6246 C   0  0  0  0  0  0  0  0  0  0  0  0
   -1.3084   12.7983    1.8577 C   0  0  0  0  0  0  0  0  0  0  0  0
   -1.2026   12.1394    0.4896 C   0  0  0  0  0  0  0  0  0  0  0  0
   -1.7459   11.6222    2.7842 C   0  0  0  0  0  0  0  0  0  0  0  0
    1.9186    4.0819    3.2426 C   0  0  0  0  0  0  0  0  0  0  0  0
    2.1657    3.0915    4.2270 C   0  0  0  0  0  0  0  0  0  0  0  0
    2.6237    3.3538    5.6085 C   0  0  0  0  0  0  0  0  0  0  0  0
    1.9905    4.3386    6.3856 C   0  0  0  0  0  0  0  0  0  0  0  0
    2.3790    4.5483    7.7102 C   0  0  0  0  0  0  0  0  0  0  0  0
    3.3931    3.7730    8.2765 C   0  0  0  0  0  0  0  0  0  0  0  0
    4.0269    2.7764    7.5189 C   0  0  0  0  0  0  0  0  0  0  0  0
    5.1200    1.9402    8.1235 C   0  0  0  0  0  0  0  0  0  0  0  0
    6.4820    2.5951    7.9222 C   0  0  0  0  0  0  0  0  0  0  0  0
    3.6511    2.5840    6.1818 C   0  0  0  0  0  0  0  0  0  0  0  0
    1.8855    1.8093    3.7420 C   0  0  0  0  0  0  0  0  0  0  0  0
    2.0220    0.2284    4.3918 S   0  0  0  0  0  0  0  0  0  0  0  0
    1.5395   -0.4516    2.9135 C   0  0  0  0  0  0  0  0  0  0  0  0
    1.2590   -1.6681    2.3528 C   0  0  0  0  0  0  0  0  0  0  0  0
    1.1820   -2.9635    2.8826 C   0  0  0  0  0  0  0  0  0  0  0  0
    0.7213   -4.0211    2.0365 C   0  0  0  0  0  0  0  0  0  0  0  0
    0.6536   -5.2585    2.5830 N   0  0  0  0  0  0  0  0  0  0  0  0
    1.1656   -4.9129    4.1209 S   0  0  0  0  0  0  0  0  0  0  0  0
    1.4864   -3.2863    4.1635 N   0  0  0  0  0  0  0  0  0  0  0  0
    0.4097   -3.7293    0.7015 C   0  0  0  0  0  0  0  0  0  0  0  0
    0.1164   -4.5267   -0.3704 C   0  0  0  0  0  0  0  0  0  0  0  0
   -0.0587   -6.1754   -0.7486 S   0  0  0  0  0  0  0  0  0  0  0  0
   -0.0864   -5.8153   -2.4229 C   0  0  0  0  0  0  0  0  0  0  0  0
   -0.2138   -6.5813   -3.5859 C   0  0  0  0  0  0  0  0  0  0  0  0
   -0.4402   -8.0454   -3.6219 C   0  0  0  0  0  0  0  0  0  0  0  0
   -1.3641   -8.6500   -2.7540 C   0  0  0  0  0  0  0  0  0  0  0  0
   -1.6100  -10.0222   -2.8301 C   0  0  0  0  0  0  0  0  0  0  0  0
   -0.9371  -10.8064   -3.7702 C   0  0  0  0  0  0  0  0  0  0  0  0
   -0.0159  -10.2181   -4.6519 C   0  0  0  0  0  0  0  0  0  0  0  0
    0.7271  -11.0631   -5.6529 C   0  0  0  0  0  0  0  0  0  0  0  0
    1.9999  -11.6391   -5.0401 C   0  0  0  0  0  0  0  0  0  0  0  0
    0.2425   -8.8416   -4.5582 C   0  0  0  0  0  0  0  0  0  0  0  0
   -0.1330   -5.7506   -4.7241 C   0  0  0  0  0  0  0  0  0  0  0  0
    0.0991   -4.1239   -4.2770 S   0  0  0  0  0  0  0  0  0  0  0  0
    0.0878   -4.4722   -2.6427 C   0  0  0  0  0  0  0  0  0  0  0  0
    0.1829   -3.7412   -1.4748 C   0  0  0  0  0  0  0  0  0  0  0  0
    0.5336   -2.4617   -1.2032 N   0  0  0  0  0  0  0  0  0  0  0  0
    0.5657   -2.4424    0.1652 C   0  0  0  0  0  0  0  0  0  0  0  0
    0.8873   -1.3786    1.0302 C   0  0  0  0  0  0  0  0  0  0  0  0
    0.8004   -0.0292    0.8150 N   0  0  0  0  0  0  0  0  0  0  0  0
    1.2635    0.4874    1.9773 C   0  0  0  0  0  0  0  0  0  0  0  0
    1.4331    1.7732    2.4539 C   0  0  0  0  0  0  0  0  0  0  0  0
    1.3410    3.3155    1.8284 S   0  0  0  0  0  0  0  0  0  0  0  0
   -0.1256    0.6716   -0.0886 C   0  0  0  0  0  0  0  0  0  0  0  0
   -1.4455    0.9836    0.6120 C   0  0  0  0  0  0  0  0  0  0  0  0
    1.3266   -1.6112   -2.1079 C   0  0  0  0  0  0  0  0  0  0  0  0
    2.6743   -2.2541   -2.4266 C   0  0  0  0  0  0  0  0  0  0  0  0
   -0.3732   -6.1617   -6.1111 C   0  0  0  0  0  0  0  0  0  0  0  0
   -1.6045   -6.4414   -6.5797 C   0  0  0  0  0  0  0  0  0  0  0  0
   -2.8638   -6.1750   -5.8713 C   0  0  0  0  0  0  0  0  0  0  0  0
   -2.9971   -5.9011   -4.6483 O   0  0  0  0  0  0  0  0  0  0  0  0
   -3.9402   -6.2046   -6.8367 C   0  0  0  0  0  0  0  0  0  0  0  0
   -5.2733   -5.8415   -6.6456 C   0  0  0  0  0  0  0  0  0  0  0  0
   -6.1251   -5.8161   -7.7584 C   0  0  0  0  0  0  0  0  0  0  0  0
   -7.7990   -5.3408   -7.5545 Cl  0  0  0  0  0  0  0  0  0  0  0  0
   -5.6262   -6.1274   -9.0377 C   0  0  0  0  0  0  0  0  0  0  0  0
   -6.4396   -6.0625  -10.1232 F   0  0  0  0  0  0  0  0  0  0  0  0
   -4.2753   -6.4742   -9.2092 C   0  0  0  0  0  0  0  0  0  0  0  0
   -3.4366   -6.5339   -8.0846 C   0  0  0  0  0  0  0  0  0  0  0  0
   -1.9761   -6.8069   -7.9798 C   0  0  0  0  0  0  0  0  0  0  0  0
   -1.2033   -7.4606   -8.8874 C   0  0  0  0  0  0  0  0  0  0  0  0
    0.1548   -7.8498   -8.6028 C   0  0  0  0  0  0  0  0  0  0  0  0
    1.2440   -8.1716   -8.3845 N   0  0  0  0  0  0  0  0  0  0  0  0
   -1.7364   -7.9820  -10.1182 C   0  0  0  0  0  0  0  0  0  0  0  0
   -2.1507   -8.4221  -11.1030 N   0  0  0  0  0  0  0  0  0  0  0  0
    3.0393    5.7038    4.1699 H   0  0  0  0  0  0  0  0  0  0  0  0
    1.0253   10.6058    4.0545 H   0  0  0  0  0  0  0  0  0  0  0  0
   -1.9819    7.8199    0.9981 H   0  0  0  0  0  0  0  0  0  0  0  0
   -3.6160   10.5894    2.3572 H   0  0  0  0  0  0  0  0  0  0  0  0
   -2.9720   11.0216   -0.3101 H   0  0  0  0  0  0  0  0  0  0  0  0
   -4.2947   13.2069    0.4177 H   0  0  0  0  0  0  0  0  0  0  0  0
   -2.7281   14.6434    1.9364 H   0  0  0  0  0  0  0  0  0  0  0  0
   -0.4154   13.3689    2.1903 H   0  0  0  0  0  0  0  0  0  0  0  0
   -1.0582   12.8677   -0.3448 H   0  0  0  0  0  0  0  0  0  0  0  0
   -0.4137   11.3596    0.4152 H   0  0  0  0  0  0  0  0  0  0  0  0
   -2.1992   11.9198    3.7561 H   0  0  0  0  0  0  0  0  0  0  0  0
    1.1808    4.9287    5.9743 H   0  0  0  0  0  0  0  0  0  0  0  0
    1.8786    5.3045    8.3050 H   0  0  0  0  0  0  0  0  0  0  0  0
    3.6782    3.9420    9.3098 H   0  0  0  0  0  0  0  0  0  0  0  0
    4.9379    1.8028    9.2114 H   0  0  0  0  0  0  0  0  0  0  0  0
    5.1243    0.9298    7.6617 H   0  0  0  0  0  0  0  0  0  0  0  0
    7.2689    1.9684    8.3896 H   0  0  0  0  0  0  0  0  0  0  0  0
    6.7015    2.6972    6.8385 H   0  0  0  0  0  0  0  0  0  0  0  0
    6.4994    3.5992    8.3967 H   0  0  0  0  0  0  0  0  0  0  0  0
    4.1581    1.8370    5.5851 H   0  0  0  0  0  0  0  0  0  0  0  0
   -1.9127   -8.0576   -2.0367 H   0  0  0  0  0  0  0  0  0  0  0  0
   -2.3246  -10.4825   -2.1599 H   0  0  0  0  0  0  0  0  0  0  0  0
   -1.1341  -11.8700   -3.8173 H   0  0  0  0  0  0  0  0  0  0  0  0
    0.9940  -10.4553   -6.5443 H   0  0  0  0  0  0  0  0  0  0  0  0
    0.0799  -11.8935   -6.0080 H   0  0  0  0  0  0  0  0  0  0  0  0
    1.7426  -12.3400   -4.2187 H   0  0  0  0  0  0  0  0  0  0  0  0
    2.5682  -12.1960   -5.8166 H   0  0  0  0  0  0  0  0  0  0  0  0
    2.6439  -10.8266   -4.6424 H   0  0  0  0  0  0  0  0  0  0  0  0
    0.9840   -8.3937   -5.2144 H   0  0  0  0  0  0  0  0  0  0  0  0
    0.3414    1.6103   -0.4499 H   0  0  0  0  0  0  0  0  0  0  0  0
   -0.3835    0.0512   -0.9692 H   0  0  0  0  0  0  0  0  0  0  0  0
   -1.2843    1.6602    1.4756 H   0  0  0  0  0  0  0  0  0  0  0  0
   -2.1404    1.4776   -0.1008 H   0  0  0  0  0  0  0  0  0  0  0  0
   -1.9153    0.0427    0.9707 H   0  0  0  0  0  0  0  0  0  0  0  0
    0.7579   -1.4245   -3.0429 H   0  0  0  0  0  0  0  0  0  0  0  0
    1.5584   -0.6363   -1.6433 H   0  0  0  0  0  0  0  0  0  0  0  0
    2.5491   -3.2137   -2.9649 H   0  0  0  0  0  0  0  0  0  0  0  0
    3.2692   -1.5750   -3.0760 H   0  0  0  0  0  0  0  0  0  0  0  0
    3.2387   -2.4384   -1.4876 H   0  0  0  0  0  0  0  0  0  0  0  0
    0.4797   -6.1438   -6.7680 H   0  0  0  0  0  0  0  0  0  0  0  0
   -5.6338   -5.5670   -5.6612 H   0  0  0  0  0  0  0  0  0  0  0  0
   -3.9078   -6.6453  -10.2080 H   0  0  0  0  0  0  0  0  0  0  0  0
  1  2  2  3
  2  3  1  0
  3  4  2  0
  3  5  1  0
  5  6  2  0
  6  7  1  0
  7  8  2  0
  8  9  1  0
  9 10  2  0
 10 11  1  0
 11 12  2  3
 12 13  1  0
 13 14  3  0
 12 15  1  0
 15 16  3  0
  8 17  1  0
 17 18  1  0
 18 19  1  0
 19 20  2  0
 20 21  1  0
 21 22  1  0
 21 23  1  0
  1 24  1  0
 24 25  2  0
 25 26  1  0
 26 27  2  0
 27 28  1  0
 28 29  2  0
 29 30  1  0
 30 31  1  0
 31 32  1  0
 30 33  2  0
 25 34  1  0
 34 35  1  0
 35 36  1  0
 36 37  1  0
 37 38  1  0
 38 39  1  0
 39 40  2  0
 40 41  1  0
 41 42  1  0
 39 43  1  0
 43 44  1  0
 44 45  1  0
 45 46  1  0
 46 47  1  0
 47 48  1  0
 48 49  2  0
 49 50  1  0
 50 51  2  0
 51 52  1  0
 52 53  1  0
 53 54  1  0
 52 55  2  0
 47 56  2  0
 56 57  1  0
 57 58  1  0
 58 59  1  0
 59 60  1  0
 60 61  1  0
 61 62  1  0
 62 63  1  0
 63 64  1  0
 64 65  1  0
 65 66  1  0
 63 67  1  0
 67 68  1  0
 60 69  1  0
 69 70  1  0
 56 71  1  0
 71 72  2  3
 72 73  1  0
 73 74  2  0
 73 75  1  0
 75 76  2  0
 76 77  1  0
 77 78  1  0
 77 79  2  0
 79 80  1  0
 79 81  1  0
 81 82  2  0
 82 83  1  0
 83 84  2  3
 84 85  1  0
 85 86  3  0
 84 87  1  0
 87 88  3  0
 11  2  1  0
 23 17  1  0
 66 24  1  0
 83 72  1  0
 10  5  1  0
 22 18  1  0
 33 26  1  0
 65 34  2  0
 82 75  1  0
 23  7  1  0
 64 36  2  0
 62 37  2  0
 42 38  2  0
 61 43  2  0
 59 44  2  0
 58 46  2  0
 55 48  1  0
  1 89  1  0
  6 90  1  0
  9 91  1  0
 17 92  1  0
 18 93  1  0
 19 94  1  0
 20 95  1  0
 21 96  1  0
 22 97  1  0
 22 98  1  0
 23 99  1  0
 27100  1  0
 28101  1  0
 29102  1  0
 31103  1  0
 31104  1  0
 32105  1  0
 32106  1  0
 32107  1  0
 33108  1  0
 49109  1  0
 50110  1  0
 51111  1  0
 53112  1  0
 53113  1  0
 54114  1  0
 54115  1  0
 54116  1  0
 55117  1  0
 67118  1  0
 67119  1  0
 68120  1  0
 68121  1  0
 68122  1  0
 69123  1  0
 69124  1  0
 70125  1  0
 70126  1  0
 70127  1  0
 71128  1  0
 76129  1  0
 81130  1  0
M  END

