
     RDKit          3D

119133  0  0  0  0  0  0  0  0999 V2000
   -1.4501   -3.6213    6.3990 C   0  0  0  0  0  0  0  0  0  0  0  0
   -2.7033   -3.1411    6.4695 C   0  0  0  0  0  0  0  0  0  0  0  0
   -3.3421   -2.7599    7.7299 C   0  0  0  0  0  0  0  0  0  0  0  0
   -3.0100   -3.1601    8.8782 O   0  0  0  0  0  0  0  0  0  0  0  0
   -4.3475   -1.7503    7.4447 C   0  0  0  0  0  0  0  0  0  0  0  0
   -5.0647   -0.9580    8.3739 C   0  0  0  0  0  0  0  0  0  0  0  0
   -5.8234    0.0424    7.7884 C   0  0  0  0  0  0  0  0  0  0  0  0
   -5.8736    0.2572    6.3716 C   0  0  0  0  0  0  0  0  0  0  0  0
   -5.1796   -0.5159    5.4583 C   0  0  0  0  0  0  0  0  0  0  0  0
   -4.4136   -1.5601    6.0399 C   0  0  0  0  0  0  0  0  0  0  0  0
   -3.5125   -2.5305    5.3769 C   0  0  0  0  0  0  0  0  0  0  0  0
   -3.6723   -3.0418    4.1307 C   0  0  0  0  0  0  0  0  0  0  0  0
   -3.0306   -4.2681    3.7292 C   0  0  0  0  0  0  0  0  0  0  0  0
   -2.5260   -5.2574    3.4027 N   0  0  0  0  0  0  0  0  0  0  0  0
   -4.6335   -2.5150    3.1974 C   0  0  0  0  0  0  0  0  0  0  0  0
   -5.4053   -2.1019    2.4399 N   0  0  0  0  0  0  0  0  0  0  0  0
   -6.7870    1.4280    6.5625 C   0  0  0  0  0  0  0  0  0  0  0  0
   -8.2843    1.2005    6.2060 C   0  0  0  0  0  0  0  0  0  0  0  0
   -9.0335    2.3521    6.8326 C   0  0  0  0  0  0  0  0  0  0  0  0
   -8.9911    2.1577    8.1565 C   0  0  0  0  0  0  0  0  0  0  0  0
   -8.2162    0.8799    8.3782 C   0  0  0  0  0  0  0  0  0  0  0  0
   -8.7033    0.1001    7.1664 C   0  0  0  0  0  0  0  0  0  0  0  0
   -6.7398    1.2105    8.0131 C   0  0  0  0  0  0  0  0  0  0  0  0
   -0.5621   -3.3676    5.2497 C   0  0  0  0  0  0  0  0  0  0  0  0
    0.3056   -4.2988    4.6455 C   0  0  0  0  0  0  0  0  0  0  0  0
    0.4517   -5.7394    5.0527 C   0  0  0  0  0  0  0  0  0  0  0  0
    1.7239   -5.9425    5.8717 C   0  0  0  0  0  0  0  0  0  0  0  0
    0.9975   -3.7075    3.5851 C   0  0  0  0  0  0  0  0  0  0  0  0
    2.1108   -4.2870    2.4212 S   0  0  0  0  0  0  0  0  0  0  0  0
    2.1540   -2.7620    1.6694 C   0  0  0  0  0  0  0  0  0  0  0  0
    2.8166   -2.0961    0.6735 C   0  0  0  0  0  0  0  0  0  0  0  0
    3.8390   -2.4872   -0.2042 C   0  0  0  0  0  0  0  0  0  0  0  0
    4.3842   -1.5140   -1.0816 C   0  0  0  0  0  0  0  0  0  0  0  0
    5.3587   -1.8770   -1.9562 N   0  0  0  0  0  0  0  0  0  0  0  0
    5.8275   -3.1555   -1.9846 C   0  0  0  0  0  0  0  0  0  0  0  0
    5.3022   -4.1092   -1.1044 C   0  0  0  0  0  0  0  0  0  0  0  0
    4.3189   -3.7577   -0.2336 N   0  0  0  0  0  0  0  0  0  0  0  0
    3.8573   -0.2097   -1.0509 C   0  0  0  0  0  0  0  0  0  0  0  0
    3.9963    0.8369   -1.9226 C   0  0  0  0  0  0  0  0  0  0  0  0
    4.6713    1.0601   -3.4669 S   0  0  0  0  0  0  0  0  0  0  0  0
    3.6512    2.3961   -3.7578 C   0  0  0  0  0  0  0  0  0  0  0  0
    3.4118    3.1900   -4.8826 C   0  0  0  0  0  0  0  0  0  0  0  0
    4.2148    3.0981   -6.1525 C   0  0  0  0  0  0  0  0  0  0  0  0
    5.5434    3.8303   -6.0165 C   0  0  0  0  0  0  0  0  0  0  0  0
    2.3186    4.0564   -4.6510 C   0  0  0  0  0  0  0  0  0  0  0  0
    1.6888    3.8043   -3.0872 S   0  0  0  0  0  0  0  0  0  0  0  0
    2.7975    2.6065   -2.7074 C   0  0  0  0  0  0  0  0  0  0  0  0
    2.9892    1.7157   -1.6600 C   0  0  0  0  0  0  0  0  0  0  0  0
    2.1704    1.2921   -0.6630 N   0  0  0  0  0  0  0  0  0  0  0  0
    2.7833    0.1482   -0.2230 C   0  0  0  0  0  0  0  0  0  0  0  0
    2.3265   -0.7854    0.7254 C   0  0  0  0  0  0  0  0  0  0  0  0
    1.4917   -0.6003    1.7926 N   0  0  0  0  0  0  0  0  0  0  0  0
    1.3682   -1.8526    2.2935 C   0  0  0  0  0  0  0  0  0  0  0  0
    0.7149   -2.3822    3.3880 C   0  0  0  0  0  0  0  0  0  0  0  0
   -0.4198   -1.8443    4.4867 S   0  0  0  0  0  0  0  0  0  0  0  0
    1.3571    0.6257    2.5951 C   0  0  0  0  0  0  0  0  0  0  0  0
    2.3941    0.6589    3.7182 C   0  0  0  0  0  0  0  0  0  0  0  0
    0.7221    1.5651   -0.6322 C   0  0  0  0  0  0  0  0  0  0  0  0
    0.0047    0.8420   -1.7726 C   0  0  0  0  0  0  0  0  0  0  0  0
    1.7122    4.9932   -5.6100 C   0  0  0  0  0  0  0  0  0  0  0  0
    1.1171    4.6092   -6.7490 C   0  0  0  0  0  0  0  0  0  0  0  0
    0.5094    5.6688   -7.8920 S   0  0  0  0  0  0  0  0  0  0  0  0
    0.0267    4.4704   -8.9849 C   0  0  0  0  0  0  0  0  0  0  0  0
   -0.6783    4.7555  -10.1125 C   0  0  0  0  0  0  0  0  0  0  0  0
   -1.3800    3.7826  -10.9083 C   0  0  0  0  0  0  0  0  0  0  0  0
   -1.9478    3.0312  -11.5761 N   0  0  0  0  0  0  0  0  0  0  0  0
   -0.8841    6.1240  -10.5185 C   0  0  0  0  0  0  0  0  0  0  0  0
   -1.0572    7.2167  -10.8700 N   0  0  0  0  0  0  0  0  0  0  0  0
    0.3752    3.2300   -8.4961 N   0  0  0  0  0  0  0  0  0  0  0  0
    0.4983    1.9658   -9.2523 C   0  0  0  0  0  0  0  0  0  0  0  0
    1.9525    1.5721   -9.3636 C   0  0  0  0  0  0  0  0  0  0  0  0
    2.4435    0.4327   -8.7025 C   0  0  0  0  0  0  0  0  0  0  0  0
    3.8091    0.1308   -8.7422 C   0  0  0  0  0  0  0  0  0  0  0  0
    4.6926    0.9611   -9.4348 C   0  0  0  0  0  0  0  0  0  0  0  0
    4.2109    2.0900  -10.1044 C   0  0  0  0  0  0  0  0  0  0  0  0
    2.8448    2.3910  -10.0759 C   0  0  0  0  0  0  0  0  0  0  0  0
    0.9022    3.3153   -7.2320 C   0  0  0  0  0  0  0  0  0  0  0  0
    1.1875    2.2837   -6.5622 O   0  0  0  0  0  0  0  0  0  0  0  0
   -0.9941   -4.0416    7.2887 H   0  0  0  0  0  0  0  0  0  0  0  0
   -4.9945   -1.0885    9.4461 H   0  0  0  0  0  0  0  0  0  0  0  0
   -5.1943   -0.2844    4.4050 H   0  0  0  0  0  0  0  0  0  0  0  0
   -6.3486    2.3925    6.2229 H   0  0  0  0  0  0  0  0  0  0  0  0
   -8.5024    1.0195    5.1308 H   0  0  0  0  0  0  0  0  0  0  0  0
   -9.5869    3.1324    6.3215 H   0  0  0  0  0  0  0  0  0  0  0  0
   -9.5022    2.7572    8.9029 H   0  0  0  0  0  0  0  0  0  0  0  0
   -8.3720    0.3934    9.3648 H   0  0  0  0  0  0  0  0  0  0  0  0
   -8.1815   -0.8695    7.0068 H   0  0  0  0  0  0  0  0  0  0  0  0
   -9.8051   -0.0837    7.1730 H   0  0  0  0  0  0  0  0  0  0  0  0
   -6.2709    2.0406    8.5875 H   0  0  0  0  0  0  0  0  0  0  0  0
    0.4879   -6.3801    4.1443 H   0  0  0  0  0  0  0  0  0  0  0  0
   -0.4241   -6.0616    5.6588 H   0  0  0  0  0  0  0  0  0  0  0  0
    2.6194   -5.7106    5.2554 H   0  0  0  0  0  0  0  0  0  0  0  0
    1.7121   -5.2921    6.7721 H   0  0  0  0  0  0  0  0  0  0  0  0
    1.7857   -7.0009    6.1978 H   0  0  0  0  0  0  0  0  0  0  0  0
    6.6058   -3.4314   -2.6832 H   0  0  0  0  0  0  0  0  0  0  0  0
    5.6749   -5.1246   -1.1160 H   0  0  0  0  0  0  0  0  0  0  0  0
    3.6599    3.5313   -7.0093 H   0  0  0  0  0  0  0  0  0  0  0  0
    4.4081    2.0304   -6.3895 H   0  0  0  0  0  0  0  0  0  0  0  0
    5.3663    4.9060   -5.8051 H   0  0  0  0  0  0  0  0  0  0  0  0
    6.1469    3.3880   -5.1956 H   0  0  0  0  0  0  0  0  0  0  0  0
    6.1142    3.7372   -6.9642 H   0  0  0  0  0  0  0  0  0  0  0  0
    1.5346    1.5280    1.9820 H   0  0  0  0  0  0  0  0  0  0  0  0
    0.3358    0.6833    3.0242 H   0  0  0  0  0  0  0  0  0  0  0  0
    2.2296   -0.1753    4.4308 H   0  0  0  0  0  0  0  0  0  0  0  0
    3.4181    0.5785    3.2916 H   0  0  0  0  0  0  0  0  0  0  0  0
    2.3096    1.6173    4.2728 H   0  0  0  0  0  0  0  0  0  0  0  0
    0.5423    2.6583   -0.7037 H   0  0  0  0  0  0  0  0  0  0  0  0
    0.2544    1.2154    0.3007 H   0  0  0  0  0  0  0  0  0  0  0  0
    0.1674   -0.2525   -1.6906 H   0  0  0  0  0  0  0  0  0  0  0  0
    0.3762    1.1865   -2.7576 H   0  0  0  0  0  0  0  0  0  0  0  0
   -1.0859    1.0479   -1.7131 H   0  0  0  0  0  0  0  0  0  0  0  0
    1.7190    6.0452   -5.3521 H   0  0  0  0  0  0  0  0  0  0  0  0
   -0.0888    1.1762   -8.7350 H   0  0  0  0  0  0  0  0  0  0  0  0
    0.1212    2.0262  -10.2811 H   0  0  0  0  0  0  0  0  0  0  0  0
    1.7765   -0.2109   -8.1391 H   0  0  0  0  0  0  0  0  0  0  0  0
    4.1823   -0.7432   -8.2240 H   0  0  0  0  0  0  0  0  0  0  0  0
    5.7492    0.7281   -9.4535 H   0  0  0  0  0  0  0  0  0  0  0  0
    4.8954    2.7319  -10.6440 H   0  0  0  0  0  0  0  0  0  0  0  0
    2.4869    3.2795  -10.5820 H   0  0  0  0  0  0  0  0  0  0  0  0
  1  2  2  3
  2  3  1  0
  3  4  2  0
  3  5  1  0
  5  6  2  0
  6  7  1  0
  7  8  2  0
  8  9  1  0
  9 10  2  0
 10 11  1  0
 11 12  2  3
 12 13  1  0
 13 14  3  0
 12 15  1  0
 15 16  3  0
  8 17  1  0
 17 18  1  0
 18 19  1  0
 19 20  2  0
 20 21  1  0
 21 22  1  0
 21 23  1  0
  1 24  1  0
 24 25  2  0
 25 26  1  0
 26 27  1  0
 25 28  1  0
 28 29  1  0
 29 30  1  0
 30 31  1  0
 31 32  2  0
 32 33  1  0
 33 34  1  0
 34 35  2  0
 35 36  1  0
 36 37  2  0
 33 38  2  0
 38 39  1  0
 39 40  1  0
 40 41  1  0
 41 42  1  0
 42 43  1  0
 43 44  1  0
 42 45  2  0
 45 46  1  0
 46 47  1  0
 47 48  1  0
 48 49  1  0
 49 50  1  0
 50 51  2  0
 51 52  1  0
 52 53  1  0
 53 54  1  0
 54 55  1  0
 52 56  1  0
 56 57  1  0
 49 58  1  0
 58 59  1  0
 45 60  1  0
 60 61  2  3
 61 62  1  0
 62 63  1  0
 63 64  2  3
 64 65  1  0
 65 66  3  0
 64 67  1  0
 67 68  3  0
 63 69  1  0
 69 70  1  0
 70 71  1  0
 71 72  2  0
 72 73  1  0
 73 74  2  0
 74 75  1  0
 75 76  2  0
 69 77  1  0
 77 78  2  0
 11  2  1  0
 23 17  1  0
 55 24  1  0
 77 61  1  0
 10  5  1  0
 22 18  1  0
 54 28  2  0
 76 71  1  0
 23  7  1  0
 53 30  2  0
 51 31  1  0
 37 32  1  0
 50 38  1  0
 48 39  2  0
 47 41  2  0
  1 79  1  0
  6 80  1  0
  9 81  1  0
 17 82  1  0
 18 83  1  0
 19 84  1  0
 20 85  1  0
 21 86  1  0
 22 87  1  0
 22 88  1  0
 23 89  1  0
 26 90  1  0
 26 91  1  0
 27 92  1  0
 27 93  1  0
 27 94  1  0
 35 95  1  0
 36 96  1  0
 43 97  1  0
 43 98  1  0
 44 99  1  0
 44100  1  0
 44101  1  0
 56102  1  0
 56103  1  0
 57104  1  0
 57105  1  0
 57106  1  0
 58107  1  0
 58108  1  0
 59109  1  0
 59110  1  0
 59111  1  0
 60112  1  0
 70113  1  0
 70114  1  0
 72115  1  0
 73116  1  0
 74117  1  0
 75118  1  0
 76119  1  0
M  END

