
     RDKit          3D

127143  0  0  0  0  0  0  0  0999 V2000
    3.9925    2.8973   -3.3988 C   0  0  0  0  0  0  0  0  0  0  0  0
    4.3555    1.6890   -3.8823 C   0  0  0  0  0  0  0  0  0  0  0  0
    3.5189    0.8087   -4.7054 C   0  0  0  0  0  0  0  0  0  0  0  0
    2.7735    1.1687   -5.6576 O   0  0  0  0  0  0  0  0  0  0  0  0
    3.7788   -0.5607   -4.3239 C   0  0  0  0  0  0  0  0  0  0  0  0
    2.9785   -1.6886   -4.6131 C   0  0  0  0  0  0  0  0  0  0  0  0
    3.3424   -2.8266   -3.9168 C   0  0  0  0  0  0  0  0  0  0  0  0
    4.4392   -2.8645   -2.9971 C   0  0  0  0  0  0  0  0  0  0  0  0
    5.2330   -1.7640   -2.7142 C   0  0  0  0  0  0  0  0  0  0  0  0
    4.8742   -0.5830   -3.4251 C   0  0  0  0  0  0  0  0  0  0  0  0
    5.3805    0.8059   -3.2528 C   0  0  0  0  0  0  0  0  0  0  0  0
    6.5903    1.1744   -2.7662 C   0  0  0  0  0  0  0  0  0  0  0  0
    7.0472    2.5391   -2.8108 C   0  0  0  0  0  0  0  0  0  0  0  0
    7.4305    3.6314   -2.8388 N   0  0  0  0  0  0  0  0  0  0  0  0
    7.5574    0.2150   -2.3073 C   0  0  0  0  0  0  0  0  0  0  0  0
    8.3464   -0.5484   -1.9398 N   0  0  0  0  0  0  0  0  0  0  0  0
    4.1473   -4.3003   -2.6819 C   0  0  0  0  0  0  0  0  0  0  0  0
    5.0928   -5.3648   -3.3215 C   0  0  0  0  0  0  0  0  0  0  0  0
    4.3761   -6.6882   -3.1792 C   0  0  0  0  0  0  0  0  0  0  0  0
    3.3301   -6.6456   -4.0180 C   0  0  0  0  0  0  0  0  0  0  0  0
    3.3821   -5.3008   -4.7001 C   0  0  0  0  0  0  0  0  0  0  0  0
    4.8917   -5.1561   -4.8135 C   0  0  0  0  0  0  0  0  0  0  0  0
    3.0109   -4.2543   -3.6080 C   0  0  0  0  0  0  0  0  0  0  0  0
    2.6059    3.4306   -3.4216 C   0  0  0  0  0  0  0  0  0  0  0  0
    2.2337    4.7227   -2.9803 C   0  0  0  0  0  0  0  0  0  0  0  0
    3.1959    5.8111   -2.7051 C   0  0  0  0  0  0  0  0  0  0  0  0
    3.1883    6.4780   -1.4699 C   0  0  0  0  0  0  0  0  0  0  0  0
    4.1277    7.4781   -1.2049 C   0  0  0  0  0  0  0  0  0  0  0  0
    5.0775    7.8247   -2.1651 C   0  0  0  0  0  0  0  0  0  0  0  0
    5.0843    7.1842   -3.4131 C   0  0  0  0  0  0  0  0  0  0  0  0
    6.0994    7.5644   -4.4587 C   0  0  0  0  0  0  0  0  0  0  0  0
    7.2626    6.5779   -4.4832 C   0  0  0  0  0  0  0  0  0  0  0  0
    4.1516    6.1656   -3.6735 C   0  0  0  0  0  0  0  0  0  0  0  0
    0.8518    4.8000   -2.7336 C   0  0  0  0  0  0  0  0  0  0  0  0
   -0.1448    5.9369   -1.9393 S   0  0  0  0  0  0  0  0  0  0  0  0
   -1.4779    4.8776   -1.9729 C   0  0  0  0  0  0  0  0  0  0  0  0
   -2.5864    4.6739   -1.1922 C   0  0  0  0  0  0  0  0  0  0  0  0
   -3.0880    5.4093   -0.1085 C   0  0  0  0  0  0  0  0  0  0  0  0
   -4.0362    4.7888    0.7650 C   0  0  0  0  0  0  0  0  0  0  0  0
   -4.4531    5.5094    1.8353 N   0  0  0  0  0  0  0  0  0  0  0  0
   -3.5684    6.8900    1.5991 S   0  0  0  0  0  0  0  0  0  0  0  0
   -2.6751    6.6585    0.2207 N   0  0  0  0  0  0  0  0  0  0  0  0
   -4.4742    3.4910    0.4706 C   0  0  0  0  0  0  0  0  0  0  0  0
   -5.3064    2.6309    1.1252 C   0  0  0  0  0  0  0  0  0  0  0  0
   -5.6442    2.3896    2.7688 S   0  0  0  0  0  0  0  0  0  0  0  0
   -5.8272    0.7151    2.5305 C   0  0  0  0  0  0  0  0  0  0  0  0
   -5.8534   -0.3602    3.4261 C   0  0  0  0  0  0  0  0  0  0  0  0
   -5.9732   -0.2349    4.8921 C   0  0  0  0  0  0  0  0  0  0  0  0
   -5.1207    0.6152    5.6106 C   0  0  0  0  0  0  0  0  0  0  0  0
   -5.2386    0.7187    6.9982 C   0  0  0  0  0  0  0  0  0  0  0  0
   -6.2119   -0.0167    7.6792 C   0  0  0  0  0  0  0  0  0  0  0  0
   -7.0748   -0.8684    6.9721 C   0  0  0  0  0  0  0  0  0  0  0  0
   -8.1135   -1.6808    7.7010 C   0  0  0  0  0  0  0  0  0  0  0  0
   -7.5736   -3.0646    8.0385 C   0  0  0  0  0  0  0  0  0  0  0  0
   -6.9356   -0.9912    5.5798 C   0  0  0  0  0  0  0  0  0  0  0  0
   -5.6232   -1.5748    2.7543 C   0  0  0  0  0  0  0  0  0  0  0  0
   -5.3483   -1.2817    1.1020 S   0  0  0  0  0  0  0  0  0  0  0  0
   -5.5974    0.3739    1.2168 C   0  0  0  0  0  0  0  0  0  0  0  0
   -5.3173    1.4674    0.4017 C   0  0  0  0  0  0  0  0  0  0  0  0
   -4.5548    1.5367   -0.7230 N   0  0  0  0  0  0  0  0  0  0  0  0
   -3.9844    2.7738   -0.6208 C   0  0  0  0  0  0  0  0  0  0  0  0
   -2.9519    3.3342   -1.4057 C   0  0  0  0  0  0  0  0  0  0  0  0
   -2.0132    2.6833   -2.1624 N   0  0  0  0  0  0  0  0  0  0  0  0
   -1.1585    3.6736   -2.5265 C   0  0  0  0  0  0  0  0  0  0  0  0
    0.1614    3.6377   -2.9544 C   0  0  0  0  0  0  0  0  0  0  0  0
    1.2158    2.4414   -3.4187 S   0  0  0  0  0  0  0  0  0  0  0  0
   -1.6164    1.2726   -2.0231 C   0  0  0  0  0  0  0  0  0  0  0  0
   -0.7875    1.0599   -0.7557 C   0  0  0  0  0  0  0  0  0  0  0  0
   -5.0301    1.0310   -2.0232 C   0  0  0  0  0  0  0  0  0  0  0  0
   -5.0889   -0.4945   -2.0786 C   0  0  0  0  0  0  0  0  0  0  0  0
   -5.3133   -2.8537    3.4076 C   0  0  0  0  0  0  0  0  0  0  0  0
   -4.0820   -3.1433    3.8747 C   0  0  0  0  0  0  0  0  0  0  0  0
   -2.8856   -2.2895    3.7047 C   0  0  0  0  0  0  0  0  0  0  0  0
   -2.8289   -1.1403    3.1946 O   0  0  0  0  0  0  0  0  0  0  0  0
   -1.7642   -3.0312    4.2084 C   0  0  0  0  0  0  0  0  0  0  0  0
   -0.1068   -2.8096    4.2917 S   0  0  0  0  0  0  0  0  0  0  0  0
    0.1473   -4.3393    4.9922 C   0  0  0  0  0  0  0  0  0  0  0  0
   -1.0725   -5.0114    5.1427 C   0  0  0  0  0  0  0  0  0  0  0  0
   -2.1444   -4.2356    4.6865 C   0  0  0  0  0  0  0  0  0  0  0  0
   -3.6142   -4.4042    4.5576 C   0  0  0  0  0  0  0  0  0  0  0  0
   -4.3449   -5.4366    5.0468 C   0  0  0  0  0  0  0  0  0  0  0  0
   -3.7310   -6.5373    5.7463 C   0  0  0  0  0  0  0  0  0  0  0  0
   -3.2547   -7.4278    6.3135 N   0  0  0  0  0  0  0  0  0  0  0  0
   -5.7826   -5.4838    4.9935 C   0  0  0  0  0  0  0  0  0  0  0  0
   -6.9395   -5.5379    4.9654 N   0  0  0  0  0  0  0  0  0  0  0  0
    4.6625    3.4179   -2.7360 H   0  0  0  0  0  0  0  0  0  0  0  0
    2.1080   -1.6575   -5.2568 H   0  0  0  0  0  0  0  0  0  0  0  0
    5.9923   -1.8078   -1.9536 H   0  0  0  0  0  0  0  0  0  0  0  0
    3.8737   -4.4775   -1.6184 H   0  0  0  0  0  0  0  0  0  0  0  0
    6.1438   -5.3565   -2.9601 H   0  0  0  0  0  0  0  0  0  0  0  0
    4.6843   -7.5461   -2.5876 H   0  0  0  0  0  0  0  0  0  0  0  0
    2.6491   -7.4614   -4.2239 H   0  0  0  0  0  0  0  0  0  0  0  0
    2.8142   -5.2283   -5.6494 H   0  0  0  0  0  0  0  0  0  0  0  0
    5.2283   -4.1621   -5.1780 H   0  0  0  0  0  0  0  0  0  0  0  0
    5.3660   -5.9503   -5.4428 H   0  0  0  0  0  0  0  0  0  0  0  0
    2.0172   -4.3887   -3.1259 H   0  0  0  0  0  0  0  0  0  0  0  0
    2.4770    6.2065   -0.7032 H   0  0  0  0  0  0  0  0  0  0  0  0
    4.1184    7.9804   -0.2471 H   0  0  0  0  0  0  0  0  0  0  0  0
    5.8032    8.5961   -1.9420 H   0  0  0  0  0  0  0  0  0  0  0  0
    5.6190    7.5834   -5.4620 H   0  0  0  0  0  0  0  0  0  0  0  0
    6.4963    8.5855   -4.2700 H   0  0  0  0  0  0  0  0  0  0  0  0
    6.8983    5.5570   -4.7217 H   0  0  0  0  0  0  0  0  0  0  0  0
    7.9947    6.8801   -5.2621 H   0  0  0  0  0  0  0  0  0  0  0  0
    7.7801    6.5699   -3.4983 H   0  0  0  0  0  0  0  0  0  0  0  0
    4.1628    5.6578   -4.6321 H   0  0  0  0  0  0  0  0  0  0  0  0
   -4.3486    1.1768    5.1023 H   0  0  0  0  0  0  0  0  0  0  0  0
   -4.5749    1.3728    7.5475 H   0  0  0  0  0  0  0  0  0  0  0  0
   -6.2908    0.0725    8.7540 H   0  0  0  0  0  0  0  0  0  0  0  0
   -8.4187   -1.1635    8.6382 H   0  0  0  0  0  0  0  0  0  0  0  0
   -9.0236   -1.7838    7.0703 H   0  0  0  0  0  0  0  0  0  0  0  0
   -8.3415   -3.6366    8.6000 H   0  0  0  0  0  0  0  0  0  0  0  0
   -6.6620   -2.9767    8.6698 H   0  0  0  0  0  0  0  0  0  0  0  0
   -7.3267   -3.6166    7.1086 H   0  0  0  0  0  0  0  0  0  0  0  0
   -7.5876   -1.6603    5.0305 H   0  0  0  0  0  0  0  0  0  0  0  0
   -2.4851    0.6093   -1.9579 H   0  0  0  0  0  0  0  0  0  0  0  0
   -1.0452    0.9451   -2.9127 H   0  0  0  0  0  0  0  0  0  0  0  0
   -0.4755   -0.0013   -0.6856 H   0  0  0  0  0  0  0  0  0  0  0  0
    0.1196    1.6977   -0.7653 H   0  0  0  0  0  0  0  0  0  0  0  0
   -1.3879    1.3142    0.1417 H   0  0  0  0  0  0  0  0  0  0  0  0
   -4.3784    1.3897   -2.8465 H   0  0  0  0  0  0  0  0  0  0  0  0
   -6.0433    1.4384   -2.2342 H   0  0  0  0  0  0  0  0  0  0  0  0
   -6.0124   -0.8493   -1.5836 H   0  0  0  0  0  0  0  0  0  0  0  0
   -4.1960   -0.9438   -1.5869 H   0  0  0  0  0  0  0  0  0  0  0  0
   -5.1187   -0.8308   -3.1384 H   0  0  0  0  0  0  0  0  0  0  0  0
   -6.1184   -3.5628    3.4556 H   0  0  0  0  0  0  0  0  0  0  0  0
    1.1123   -4.7441    5.2720 H   0  0  0  0  0  0  0  0  0  0  0  0
   -1.1434   -6.0089    5.5490 H   0  0  0  0  0  0  0  0  0  0  0  0
  1  2  2  3
  2  3  1  0
  3  4  2  0
  3  5  1  0
  5  6  2  0
  6  7  1  0
  7  8  2  0
  8  9  1  0
  9 10  2  0
 10 11  1  0
 11 12  2  3
 12 13  1  0
 13 14  3  0
 12 15  1  0
 15 16  3  0
  8 17  1  0
 17 18  1  0
 18 19  1  0
 19 20  2  0
 20 21  1  0
 21 22  1  0
 21 23  1  0
  1 24  1  0
 24 25  2  0
 25 26  1  0
 26 27  2  0
 27 28  1  0
 28 29  2  0
 29 30  1  0
 30 31  1  0
 31 32  1  0
 30 33  2  0
 25 34  1  0
 34 35  1  0
 35 36  1  0
 36 37  1  0
 37 38  1  0
 38 39  1  0
 39 40  2  0
 40 41  1  0
 41 42  1  0
 39 43  1  0
 43 44  1  0
 44 45  1  0
 45 46  1  0
 46 47  1  0
 47 48  1  0
 48 49  2  0
 49 50  1  0
 50 51  2  0
 51 52  1  0
 52 53  1  0
 53 54  1  0
 52 55  2  0
 47 56  2  0
 56 57  1  0
 57 58  1  0
 58 59  1  0
 59 60  1  0
 60 61  1  0
 61 62  1  0
 62 63  1  0
 63 64  1  0
 64 65  1  0
 65 66  1  0
 63 67  1  0
 67 68  1  0
 60 69  1  0
 69 70  1  0
 56 71  1  0
 71 72  2  3
 72 73  1  0
 73 74  2  0
 73 75  1  0
 75 76  1  0
 76 77  1  0
 77 78  2  0
 78 79  1  0
 79 80  1  0
 80 81  2  3
 81 82  1  0
 82 83  3  0
 81 84  1  0
 84 85  3  0
 11  2  1  0
 23 17  1  0
 66 24  1  0
 80 72  1  0
 10  5  1  0
 22 18  1  0
 33 26  1  0
 65 34  2  0
 79 75  2  0
 23  7  1  0
 64 36  2  0
 62 37  2  0
 42 38  2  0
 61 43  2  0
 59 44  2  0
 58 46  2  0
 55 48  1  0
  1 86  1  0
  6 87  1  0
  9 88  1  0
 17 89  1  0
 18 90  1  0
 19 91  1  0
 20 92  1  0
 21 93  1  0
 22 94  1  0
 22 95  1  0
 23 96  1  0
 27 97  1  0
 28 98  1  0
 29 99  1  0
 31100  1  0
 31101  1  0
 32102  1  0
 32103  1  0
 32104  1  0
 33105  1  0
 49106  1  0
 50107  1  0
 51108  1  0
 53109  1  0
 53110  1  0
 54111  1  0
 54112  1  0
 54113  1  0
 55114  1  0
 67115  1  0
 67116  1  0
 68117  1  0
 68118  1  0
 68119  1  0
 69120  1  0
 69121  1  0
 70122  1  0
 70123  1  0
 70124  1  0
 71125  1  0
 77126  1  0
 78127  1  0
M  END

