
     RDKit          3D

113127  0  0  0  0  0  0  0  0999 V2000
   -0.6521   -6.6056   -0.6022 C   0  0  0  0  0  0  0  0  0  0  0  0
   -1.3088   -5.9723   -1.5945 C   0  0  0  0  0  0  0  0  0  0  0  0
   -2.0548   -4.7148   -1.4371 C   0  0  0  0  0  0  0  0  0  0  0  0
   -2.6310   -4.3124   -0.3889 O   0  0  0  0  0  0  0  0  0  0  0  0
   -2.0270   -3.9962   -2.6885 C   0  0  0  0  0  0  0  0  0  0  0  0
   -2.5212   -2.6935   -2.9297 C   0  0  0  0  0  0  0  0  0  0  0  0
   -2.2515   -2.2132   -4.1936 C   0  0  0  0  0  0  0  0  0  0  0  0
   -1.5549   -2.9751   -5.1874 C   0  0  0  0  0  0  0  0  0  0  0  0
   -1.1018   -4.2682   -4.9692 C   0  0  0  0  0  0  0  0  0  0  0  0
   -1.3376   -4.7750   -3.6519 C   0  0  0  0  0  0  0  0  0  0  0  0
   -0.9632   -6.0869   -3.0423 C   0  0  0  0  0  0  0  0  0  0  0  0
   -0.3898   -7.1557   -3.6570 C   0  0  0  0  0  0  0  0  0  0  0  0
    0.2175   -7.0653   -4.9603 C   0  0  0  0  0  0  0  0  0  0  0  0
    0.7237   -6.9916   -6.0023 N   0  0  0  0  0  0  0  0  0  0  0  0
   -0.3875   -8.4642   -3.0585 C   0  0  0  0  0  0  0  0  0  0  0  0
   -0.3840   -9.5318   -2.6014 N   0  0  0  0  0  0  0  0  0  0  0  0
   -1.6414   -1.8319   -6.1569 C   0  0  0  0  0  0  0  0  0  0  0  0
   -2.6717   -1.9611   -7.3177 C   0  0  0  0  0  0  0  0  0  0  0  0
   -2.8327   -0.5653   -7.8728 C   0  0  0  0  0  0  0  0  0  0  0  0
   -3.4994    0.1357   -6.9468 C   0  0  0  0  0  0  0  0  0  0  0  0
   -3.7488   -0.8031   -5.7884 C   0  0  0  0  0  0  0  0  0  0  0  0
   -3.9976   -2.0789   -6.5816 C   0  0  0  0  0  0  0  0  0  0  0  0
   -2.3587   -1.0571   -5.1386 C   0  0  0  0  0  0  0  0  0  0  0  0
   -0.4460   -5.9974    0.7205 C   0  0  0  0  0  0  0  0  0  0  0  0
   -1.3823   -5.8798    1.7668 C   0  0  0  0  0  0  0  0  0  0  0  0
   -2.7186   -6.5650    1.8173 C   0  0  0  0  0  0  0  0  0  0  0  0
   -2.7369   -7.6378    2.9107 C   0  0  0  0  0  0  0  0  0  0  0  0
   -0.9153   -5.0019    2.7521 C   0  0  0  0  0  0  0  0  0  0  0  0
   -1.7412   -4.0562    3.9107 S   0  0  0  0  0  0  0  0  0  0  0  0
   -0.3873   -3.0397    4.0939 C   0  0  0  0  0  0  0  0  0  0  0  0
   -0.2075   -1.7196    4.4091 C   0  0  0  0  0  0  0  0  0  0  0  0
   -0.9970   -0.8485    5.1731 C   0  0  0  0  0  0  0  0  0  0  0  0
   -0.5988    0.5047    5.2731 C   0  0  0  0  0  0  0  0  0  0  0  0
   -1.3546    1.3673    6.0061 N   0  0  0  0  0  0  0  0  0  0  0  0
   -2.4617    0.9391    6.6677 C   0  0  0  0  0  0  0  0  0  0  0  0
   -2.8513   -0.4018    6.5755 C   0  0  0  0  0  0  0  0  0  0  0  0
   -2.1038   -1.2737    5.8409 N   0  0  0  0  0  0  0  0  0  0  0  0
    0.5245    0.9299    4.5435 C   0  0  0  0  0  0  0  0  0  0  0  0
    0.9675    2.1942    4.2733 C   0  0  0  0  0  0  0  0  0  0  0  0
    0.5302    3.7968    4.6362 S   0  0  0  0  0  0  0  0  0  0  0  0
    1.5942    4.3805    3.4381 C   0  0  0  0  0  0  0  0  0  0  0  0
    1.9050    5.6569    2.9652 C   0  0  0  0  0  0  0  0  0  0  0  0
    1.3984    6.9343    3.5738 C   0  0  0  0  0  0  0  0  0  0  0  0
    2.4299    7.5341    4.5224 C   0  0  0  0  0  0  0  0  0  0  0  0
    2.8299    5.5840    1.9084 C   0  0  0  0  0  0  0  0  0  0  0  0
    3.2211    3.9587    1.5762 S   0  0  0  0  0  0  0  0  0  0  0  0
    2.2202    3.3512    2.7782 C   0  0  0  0  0  0  0  0  0  0  0  0
    1.8648    2.0993    3.2674 C   0  0  0  0  0  0  0  0  0  0  0  0
    2.0455    0.8258    2.8326 N   0  0  0  0  0  0  0  0  0  0  0  0
    1.2570    0.0827    3.6877 C   0  0  0  0  0  0  0  0  0  0  0  0
    0.9396   -1.3061    3.7042 C   0  0  0  0  0  0  0  0  0  0  0  0
    1.4995   -2.3709    3.0472 N   0  0  0  0  0  0  0  0  0  0  0  0
    0.6352   -3.3852    3.2770 C   0  0  0  0  0  0  0  0  0  0  0  0
    0.3387   -4.4903    2.5082 C   0  0  0  0  0  0  0  0  0  0  0  0
    0.9143   -5.0291    1.0353 S   0  0  0  0  0  0  0  0  0  0  0  0
    2.8830   -2.6121    2.6114 C   0  0  0  0  0  0  0  0  0  0  0  0
    3.9031   -2.0899    3.6296 C   0  0  0  0  0  0  0  0  0  0  0  0
    2.6046    0.4818    1.5148 C   0  0  0  0  0  0  0  0  0  0  0  0
    1.5282   -0.0211    0.5619 C   0  0  0  0  0  0  0  0  0  0  0  0
    3.3668    6.7320    1.1660 C   0  0  0  0  0  0  0  0  0  0  0  0
    2.6784    7.3396    0.1849 C   0  0  0  0  0  0  0  0  0  0  0  0
    1.4295    6.8391   -0.4142 C   0  0  0  0  0  0  0  0  0  0  0  0
    0.6781    5.9376    0.0421 O   0  0  0  0  0  0  0  0  0  0  0  0
    1.2108    7.5431   -1.6552 C   0  0  0  0  0  0  0  0  0  0  0  0
    0.2024    7.3381   -2.6005 C   0  0  0  0  0  0  0  0  0  0  0  0
    0.2379    8.0827   -3.7883 C   0  0  0  0  0  0  0  0  0  0  0  0
    1.2693    9.0125   -4.0122 C   0  0  0  0  0  0  0  0  0  0  0  0
    1.3126    9.7086   -5.1783 F   0  0  0  0  0  0  0  0  0  0  0  0
    2.2742    9.2047   -3.0450 C   0  0  0  0  0  0  0  0  0  0  0  0
    2.2230    8.4695   -1.8475 C   0  0  0  0  0  0  0  0  0  0  0  0
    3.1418    8.4689   -0.6721 C   0  0  0  0  0  0  0  0  0  0  0  0
    4.0088    9.4530   -0.3146 C   0  0  0  0  0  0  0  0  0  0  0  0
    4.6420    9.4870    0.9792 C   0  0  0  0  0  0  0  0  0  0  0  0
    5.1435    9.5286    2.0203 N   0  0  0  0  0  0  0  0  0  0  0  0
    4.2663   10.6013   -1.1410 C   0  0  0  0  0  0  0  0  0  0  0  0
    4.4820   11.5290   -1.7998 N   0  0  0  0  0  0  0  0  0  0  0  0
    0.0597   -7.3800   -0.8391 H   0  0  0  0  0  0  0  0  0  0  0  0
   -3.0135   -2.0907   -2.1780 H   0  0  0  0  0  0  0  0  0  0  0  0
   -0.5879   -4.7915   -5.7607 H   0  0  0  0  0  0  0  0  0  0  0  0
   -0.6506   -1.4156   -6.4399 H   0  0  0  0  0  0  0  0  0  0  0  0
   -2.4591   -2.7600   -8.0672 H   0  0  0  0  0  0  0  0  0  0  0  0
   -2.5545   -0.2093   -8.8593 H   0  0  0  0  0  0  0  0  0  0  0  0
   -3.8392    1.1608   -7.0400 H   0  0  0  0  0  0  0  0  0  0  0  0
   -4.5654   -0.4927   -5.1028 H   0  0  0  0  0  0  0  0  0  0  0  0
   -4.8880   -2.0173   -7.2591 H   0  0  0  0  0  0  0  0  0  0  0  0
   -4.0917   -2.9991   -5.9652 H   0  0  0  0  0  0  0  0  0  0  0  0
   -1.8231   -0.1581   -4.7764 H   0  0  0  0  0  0  0  0  0  0  0  0
   -3.5101   -5.8100    2.0208 H   0  0  0  0  0  0  0  0  0  0  0  0
   -2.9354   -7.0440    0.8393 H   0  0  0  0  0  0  0  0  0  0  0  0
   -1.8261   -8.2621    2.8692 H   0  0  0  0  0  0  0  0  0  0  0  0
   -3.6205   -8.2857    2.7653 H   0  0  0  0  0  0  0  0  0  0  0  0
   -2.8096   -7.1557    3.9105 H   0  0  0  0  0  0  0  0  0  0  0  0
   -3.0490    1.6388    7.2479 H   0  0  0  0  0  0  0  0  0  0  0  0
   -3.7284   -0.7468    7.1050 H   0  0  0  0  0  0  0  0  0  0  0  0
    0.4542    6.7522    4.1273 H   0  0  0  0  0  0  0  0  0  0  0  0
    1.1778    7.6670    2.7737 H   0  0  0  0  0  0  0  0  0  0  0  0
    3.3469    7.7959    3.9587 H   0  0  0  0  0  0  0  0  0  0  0  0
    2.6807    6.8092    5.3243 H   0  0  0  0  0  0  0  0  0  0  0  0
    2.0369    8.4581    4.9928 H   0  0  0  0  0  0  0  0  0  0  0  0
    3.0498   -2.2446    1.5852 H   0  0  0  0  0  0  0  0  0  0  0  0
    3.0552   -3.7091    2.5343 H   0  0  0  0  0  0  0  0  0  0  0  0
    3.8753   -0.9892    3.7065 H   0  0  0  0  0  0  0  0  0  0  0  0
    3.6821   -2.5133    4.6309 H   0  0  0  0  0  0  0  0  0  0  0  0
    4.9309   -2.3942    3.3281 H   0  0  0  0  0  0  0  0  0  0  0  0
    3.4533   -0.2033    1.6105 H   0  0  0  0  0  0  0  0  0  0  0  0
    3.0585    1.3681    1.0475 H   0  0  0  0  0  0  0  0  0  0  0  0
    1.9723   -0.2143   -0.4399 H   0  0  0  0  0  0  0  0  0  0  0  0
    1.0796   -0.9626    0.9196 H   0  0  0  0  0  0  0  0  0  0  0  0
    0.7348    0.7454    0.4589 H   0  0  0  0  0  0  0  0  0  0  0  0
    4.3729    7.0258    1.4009 H   0  0  0  0  0  0  0  0  0  0  0  0
   -0.5897    6.6163   -2.4390 H   0  0  0  0  0  0  0  0  0  0  0  0
   -0.5343    7.9385   -4.5402 H   0  0  0  0  0  0  0  0  0  0  0  0
    3.0776    9.8889   -3.2694 H   0  0  0  0  0  0  0  0  0  0  0  0
  1  2  2  3
  2  3  1  0
  3  4  2  0
  3  5  1  0
  5  6  2  0
  6  7  1  0
  7  8  2  0
  8  9  1  0
  9 10  2  0
 10 11  1  0
 11 12  2  3
 12 13  1  0
 13 14  3  0
 12 15  1  0
 15 16  3  0
  8 17  1  0
 17 18  1  0
 18 19  1  0
 19 20  2  0
 20 21  1  0
 21 22  1  0
 21 23  1  0
  1 24  1  0
 24 25  2  0
 25 26  1  0
 26 27  1  0
 25 28  1  0
 28 29  1  0
 29 30  1  0
 30 31  1  0
 31 32  2  0
 32 33  1  0
 33 34  1  0
 34 35  2  0
 35 36  1  0
 36 37  2  0
 33 38  2  0
 38 39  1  0
 39 40  1  0
 40 41  1  0
 41 42  1  0
 42 43  1  0
 43 44  1  0
 42 45  2  0
 45 46  1  0
 46 47  1  0
 47 48  1  0
 48 49  1  0
 49 50  1  0
 50 51  2  0
 51 52  1  0
 52 53  1  0
 53 54  1  0
 54 55  1  0
 52 56  1  0
 56 57  1  0
 49 58  1  0
 58 59  1  0
 45 60  1  0
 60 61  2  3
 61 62  1  0
 62 63  2  0
 62 64  1  0
 64 65  2  0
 65 66  1  0
 66 67  2  0
 67 68  1  0
 67 69  1  0
 69 70  2  0
 70 71  1  0
 71 72  2  3
 72 73  1  0
 73 74  3  0
 72 75  1  0
 75 76  3  0
 11  2  1  0
 23 17  1  0
 55 24  1  0
 71 61  1  0
 10  5  1  0
 22 18  1  0
 54 28  2  0
 70 64  1  0
 23  7  1  0
 53 30  2  0
 51 31  1  0
 37 32  1  0
 50 38  1  0
 48 39  2  0
 47 41  2  0
  1 77  1  0
  6 78  1  0
  9 79  1  0
 17 80  1  0
 18 81  1  0
 19 82  1  0
 20 83  1  0
 21 84  1  0
 22 85  1  0
 22 86  1  0
 23 87  1  0
 26 88  1  0
 26 89  1  0
 27 90  1  0
 27 91  1  0
 27 92  1  0
 35 93  1  0
 36 94  1  0
 43 95  1  0
 43 96  1  0
 44 97  1  0
 44 98  1  0
 44 99  1  0
 56100  1  0
 56101  1  0
 57102  1  0
 57103  1  0
 57104  1  0
 58105  1  0
 58106  1  0
 59107  1  0
 59108  1  0
 59109  1  0
 60110  1  0
 65111  1  0
 66112  1  0
 69113  1  0
M  END

