
     RDKit          3D

126143  0  0  0  0  0  0  0  0999 V2000
    3.9071   -2.7012   -0.0075 C   0  0  0  0  0  0  0  0  0  0  0  0
    5.0281   -3.2837   -0.4687 C   0  0  0  0  0  0  0  0  0  0  0  0
    6.3336   -2.6259   -0.6084 C   0  0  0  0  0  0  0  0  0  0  0  0
    6.5557   -1.3866   -0.5628 O   0  0  0  0  0  0  0  0  0  0  0  0
    7.3445   -3.6422   -0.7928 C   0  0  0  0  0  0  0  0  0  0  0  0
    8.7451   -3.4526   -0.8339 C   0  0  0  0  0  0  0  0  0  0  0  0
    9.4669   -4.6289   -0.9123 C   0  0  0  0  0  0  0  0  0  0  0  0
    8.8532   -5.9228   -0.9369 C   0  0  0  0  0  0  0  0  0  0  0  0
    7.4831   -6.1154   -0.8867 C   0  0  0  0  0  0  0  0  0  0  0  0
    6.7182   -4.9154   -0.8382 C   0  0  0  0  0  0  0  0  0  0  0  0
    5.2408   -4.7368   -0.7589 C   0  0  0  0  0  0  0  0  0  0  0  0
    4.2971   -5.6439   -1.1308 C   0  0  0  0  0  0  0  0  0  0  0  0
    2.9028   -5.3077   -1.2566 C   0  0  0  0  0  0  0  0  0  0  0  0
    1.7797   -5.0506   -1.3627 N   0  0  0  0  0  0  0  0  0  0  0  0
    4.6315   -6.9736   -1.5702 C   0  0  0  0  0  0  0  0  0  0  0  0
    4.8836   -8.0449   -1.9299 N   0  0  0  0  0  0  0  0  0  0  0  0
   10.1989   -6.5801   -0.9715 C   0  0  0  0  0  0  0  0  0  0  0  0
   10.6815   -7.2410    0.3530 C   0  0  0  0  0  0  0  0  0  0  0  0
   12.1652   -7.4667    0.1849 C   0  0  0  0  0  0  0  0  0  0  0  0
   12.7393   -6.2569    0.2142 C   0  0  0  0  0  0  0  0  0  0  0  0
   11.6215   -5.2578    0.3966 C   0  0  0  0  0  0  0  0  0  0  0  0
   10.7320   -6.0716    1.3222 C   0  0  0  0  0  0  0  0  0  0  0  0
   10.8281   -5.2553   -0.9436 C   0  0  0  0  0  0  0  0  0  0  0  0
    3.8026   -1.2648    0.2750 C   0  0  0  0  0  0  0  0  0  0  0  0
    4.3067   -0.5968    1.4088 C   0  0  0  0  0  0  0  0  0  0  0  0
    5.0460   -1.2582    2.5387 C   0  0  0  0  0  0  0  0  0  0  0  0
    4.0707   -1.8847    3.5293 C   0  0  0  0  0  0  0  0  0  0  0  0
    3.8652    0.7295    1.4338 C   0  0  0  0  0  0  0  0  0  0  0  0
    3.8998    1.9432    2.6264 S   0  0  0  0  0  0  0  0  0  0  0  0
    2.9029    2.9547    1.6917 C   0  0  0  0  0  0  0  0  0  0  0  0
    1.9937    3.9379    1.9771 C   0  0  0  0  0  0  0  0  0  0  0  0
    1.6736    4.5345    3.2120 C   0  0  0  0  0  0  0  0  0  0  0  0
    0.4284    5.1981    3.3433 C   0  0  0  0  0  0  0  0  0  0  0  0
    0.0787    5.7371    4.5413 N   0  0  0  0  0  0  0  0  0  0  0  0
    0.9079    5.6410    5.6149 C   0  0  0  0  0  0  0  0  0  0  0  0
    2.1336    4.9767    5.4894 C   0  0  0  0  0  0  0  0  0  0  0  0
    2.4877    4.4295    4.2950 N   0  0  0  0  0  0  0  0  0  0  0  0
   -0.3958    5.2972    2.2147 C   0  0  0  0  0  0  0  0  0  0  0  0
   -1.6657    5.7882    2.0490 C   0  0  0  0  0  0  0  0  0  0  0  0
   -3.0379    5.8536    3.0467 S   0  0  0  0  0  0  0  0  0  0  0  0
   -4.0777    5.6673    1.7063 C   0  0  0  0  0  0  0  0  0  0  0  0
   -5.4145    5.2713    1.6135 C   0  0  0  0  0  0  0  0  0  0  0  0
   -6.3763    5.2425    2.7696 C   0  0  0  0  0  0  0  0  0  0  0  0
   -7.2365    6.5007    2.7793 C   0  0  0  0  0  0  0  0  0  0  0  0
   -5.7078    4.8098    0.3178 C   0  0  0  0  0  0  0  0  0  0  0  0
   -4.3193    4.8897   -0.6687 S   0  0  0  0  0  0  0  0  0  0  0  0
   -3.3614    5.5339    0.5430 C   0  0  0  0  0  0  0  0  0  0  0  0
   -1.9939    5.5881    0.7405 C   0  0  0  0  0  0  0  0  0  0  0  0
   -1.0007    4.9994    0.0357 N   0  0  0  0  0  0  0  0  0  0  0  0
   -0.0411    4.7613    0.9744 C   0  0  0  0  0  0  0  0  0  0  0  0
    1.1122    3.9565    0.8851 C   0  0  0  0  0  0  0  0  0  0  0  0
    1.3591    2.9068    0.0345 N   0  0  0  0  0  0  0  0  0  0  0  0
    2.4969    2.3580    0.5357 C   0  0  0  0  0  0  0  0  0  0  0  0
    3.0503    1.0892    0.3909 C   0  0  0  0  0  0  0  0  0  0  0  0
    2.8002   -0.2244   -0.6199 S   0  0  0  0  0  0  0  0  0  0  0  0
    0.3524    2.1260   -0.7056 C   0  0  0  0  0  0  0  0  0  0  0  0
   -0.4586    1.2450    0.2435 C   0  0  0  0  0  0  0  0  0  0  0  0
   -0.7799    5.2153   -1.4025 C   0  0  0  0  0  0  0  0  0  0  0  0
   -0.7748    6.7059   -1.7428 C   0  0  0  0  0  0  0  0  0  0  0  0
   -6.9783    4.1964   -0.0971 C   0  0  0  0  0  0  0  0  0  0  0  0
   -7.0905    2.8977   -0.4384 C   0  0  0  0  0  0  0  0  0  0  0  0
   -5.9891    1.9264   -0.4971 C   0  0  0  0  0  0  0  0  0  0  0  0
   -4.8816    2.0120    0.0964 O   0  0  0  0  0  0  0  0  0  0  0  0
   -6.4024    0.8098   -1.3167 C   0  0  0  0  0  0  0  0  0  0  0  0
   -5.5949   -0.2595   -1.7690 C   0  0  0  0  0  0  0  0  0  0  0  0
   -6.2367   -1.1094   -2.6502 C   0  0  0  0  0  0  0  0  0  0  0  0
   -7.5930   -0.9225   -3.0685 C   0  0  0  0  0  0  0  0  0  0  0  0
   -8.3894    0.1221   -2.6279 C   0  0  0  0  0  0  0  0  0  0  0  0
   -7.7557    0.9957   -1.7007 C   0  0  0  0  0  0  0  0  0  0  0  0
   -8.2792    2.2311   -1.0510 C   0  0  0  0  0  0  0  0  0  0  0  0
   -9.5839    2.5387   -0.8339 C   0  0  0  0  0  0  0  0  0  0  0  0
  -10.6639    1.7337   -1.3442 C   0  0  0  0  0  0  0  0  0  0  0  0
  -11.5433    1.0940   -1.7459 N   0  0  0  0  0  0  0  0  0  0  0  0
   -9.9865    3.5979    0.0555 C   0  0  0  0  0  0  0  0  0  0  0  0
  -10.3171    4.4430    0.7751 N   0  0  0  0  0  0  0  0  0  0  0  0
   -7.5048   -2.1313   -3.9526 C   0  0  0  0  0  0  0  0  0  0  0  0
   -8.2135   -3.4369   -3.4796 C   0  0  0  0  0  0  0  0  0  0  0  0
   -8.2276   -3.5017   -1.9686 C   0  0  0  0  0  0  0  0  0  0  0  0
   -6.9632   -3.6758   -1.5822 C   0  0  0  0  0  0  0  0  0  0  0  0
   -6.1306   -3.7245   -2.8431 C   0  0  0  0  0  0  0  0  0  0  0  0
   -7.1107   -4.4447   -3.7497 C   0  0  0  0  0  0  0  0  0  0  0  0
   -6.1146   -2.3222   -3.5246 C   0  0  0  0  0  0  0  0  0  0  0  0
    3.0195   -3.2767    0.1847 H   0  0  0  0  0  0  0  0  0  0  0  0
    9.2157   -2.4804   -0.7739 H   0  0  0  0  0  0  0  0  0  0  0  0
    7.0709   -7.1092   -0.8381 H   0  0  0  0  0  0  0  0  0  0  0  0
   10.3859   -7.1643   -1.8999 H   0  0  0  0  0  0  0  0  0  0  0  0
   10.1021   -8.1273    0.6885 H   0  0  0  0  0  0  0  0  0  0  0  0
   12.6876   -8.4161    0.1501 H   0  0  0  0  0  0  0  0  0  0  0  0
   13.8055   -6.0585    0.2067 H   0  0  0  0  0  0  0  0  0  0  0  0
   11.9337   -4.2614    0.7749 H   0  0  0  0  0  0  0  0  0  0  0  0
   11.2181   -6.3249    2.2964 H   0  0  0  0  0  0  0  0  0  0  0  0
    9.7427   -5.6075    1.5302 H   0  0  0  0  0  0  0  0  0  0  0  0
   11.4164   -5.0021   -1.8536 H   0  0  0  0  0  0  0  0  0  0  0  0
    5.6770   -0.5105    3.0645 H   0  0  0  0  0  0  0  0  0  0  0  0
    5.7207   -2.0458    2.1429 H   0  0  0  0  0  0  0  0  0  0  0  0
    3.4421   -2.6484    3.0228 H   0  0  0  0  0  0  0  0  0  0  0  0
    4.6372   -2.3800    4.3453 H   0  0  0  0  0  0  0  0  0  0  0  0
    3.4150   -1.1043    3.9715 H   0  0  0  0  0  0  0  0  0  0  0  0
    0.6190    6.0790    6.5617 H   0  0  0  0  0  0  0  0  0  0  0  0
    2.7970    4.8919    6.3400 H   0  0  0  0  0  0  0  0  0  0  0  0
   -5.8230    5.1716    3.7303 H   0  0  0  0  0  0  0  0  0  0  0  0
   -7.0311    4.3483    2.6949 H   0  0  0  0  0  0  0  0  0  0  0  0
   -7.8157    6.5825    1.8352 H   0  0  0  0  0  0  0  0  0  0  0  0
   -7.9498    6.4555    3.6299 H   0  0  0  0  0  0  0  0  0  0  0  0
   -6.5976    7.4022    2.8965 H   0  0  0  0  0  0  0  0  0  0  0  0
    0.8446    1.5013   -1.4766 H   0  0  0  0  0  0  0  0  0  0  0  0
   -0.3533    2.7583   -1.2536 H   0  0  0  0  0  0  0  0  0  0  0  0
    0.2093    0.5728    0.8229 H   0  0  0  0  0  0  0  0  0  0  0  0
   -1.1710    0.6232   -0.3395 H   0  0  0  0  0  0  0  0  0  0  0  0
   -1.0353    1.8782    0.9518 H   0  0  0  0  0  0  0  0  0  0  0  0
    0.2084    4.8126   -1.7105 H   0  0  0  0  0  0  0  0  0  0  0  0
   -1.5775    4.7066   -1.9848 H   0  0  0  0  0  0  0  0  0  0  0  0
   -0.0260    7.2361   -1.1175 H   0  0  0  0  0  0  0  0  0  0  0  0
   -0.5112    6.8443   -2.8118 H   0  0  0  0  0  0  0  0  0  0  0  0
   -1.7783    7.1464   -1.5673 H   0  0  0  0  0  0  0  0  0  0  0  0
   -7.8222    4.8636   -0.1675 H   0  0  0  0  0  0  0  0  0  0  0  0
   -4.5588   -0.3851   -1.4839 H   0  0  0  0  0  0  0  0  0  0  0  0
   -9.3867    0.2580   -3.0133 H   0  0  0  0  0  0  0  0  0  0  0  0
   -7.6102   -1.9049   -5.0369 H   0  0  0  0  0  0  0  0  0  0  0  0
   -9.1873   -3.6502   -3.9689 H   0  0  0  0  0  0  0  0  0  0  0  0
   -9.0959   -3.4989   -1.3185 H   0  0  0  0  0  0  0  0  0  0  0  0
   -6.6272   -3.8421   -0.5649 H   0  0  0  0  0  0  0  0  0  0  0  0
   -5.1379   -4.2077   -2.7309 H   0  0  0  0  0  0  0  0  0  0  0  0
   -6.7896   -4.4772   -4.8183 H   0  0  0  0  0  0  0  0  0  0  0  0
   -7.3589   -5.4767   -3.4044 H   0  0  0  0  0  0  0  0  0  0  0  0
   -5.3752   -2.2092   -4.3490 H   0  0  0  0  0  0  0  0  0  0  0  0
  1  2  2  3
  2  3  1  0
  3  4  2  0
  3  5  1  0
  5  6  2  0
  6  7  1  0
  7  8  2  0
  8  9  1  0
  9 10  2  0
 10 11  1  0
 11 12  2  3
 12 13  1  0
 13 14  3  0
 12 15  1  0
 15 16  3  0
  8 17  1  0
 17 18  1  0
 18 19  1  0
 19 20  2  0
 20 21  1  0
 21 22  1  0
 21 23  1  0
  1 24  1  0
 24 25  2  0
 25 26  1  0
 26 27  1  0
 25 28  1  0
 28 29  1  0
 29 30  1  0
 30 31  1  0
 31 32  2  0
 32 33  1  0
 33 34  1  0
 34 35  2  0
 35 36  1  0
 36 37  2  0
 33 38  2  0
 38 39  1  0
 39 40  1  0
 40 41  1  0
 41 42  1  0
 42 43  1  0
 43 44  1  0
 42 45  2  0
 45 46  1  0
 46 47  1  0
 47 48  1  0
 48 49  1  0
 49 50  1  0
 50 51  2  0
 51 52  1  0
 52 53  1  0
 53 54  1  0
 54 55  1  0
 52 56  1  0
 56 57  1  0
 49 58  1  0
 58 59  1  0
 45 60  1  0
 60 61  2  3
 61 62  1  0
 62 63  2  0
 62 64  1  0
 64 65  2  0
 65 66  1  0
 66 67  2  0
 67 68  1  0
 68 69  2  0
 69 70  1  0
 70 71  2  3
 71 72  1  0
 72 73  3  0
 71 74  1  0
 74 75  3  0
 67 76  1  0
 76 77  1  0
 77 78  1  0
 78 79  2  0
 79 80  1  0
 80 81  1  0
 80 82  1  0
 11  2  1  0
 23 17  1  0
 55 24  1  0
 70 61  1  0
 82 76  1  0
 10  5  1  0
 22 18  1  0
 54 28  2  0
 69 64  1  0
 81 77  1  0
 23  7  1  0
 53 30  2  0
 82 66  1  0
 51 31  1  0
 37 32  1  0
 50 38  1  0
 48 39  2  0
 47 41  2  0
  1 83  1  0
  6 84  1  0
  9 85  1  0
 17 86  1  0
 18 87  1  0
 19 88  1  0
 20 89  1  0
 21 90  1  0
 22 91  1  0
 22 92  1  0
 23 93  1  0
 26 94  1  0
 26 95  1  0
 27 96  1  0
 27 97  1  0
 27 98  1  0
 35 99  1  0
 36100  1  0
 43101  1  0
 43102  1  0
 44103  1  0
 44104  1  0
 44105  1  0
 56106  1  0
 56107  1  0
 57108  1  0
 57109  1  0
 57110  1  0
 58111  1  0
 58112  1  0
 59113  1  0
 59114  1  0
 59115  1  0
 60116  1  0
 65117  1  0
 68118  1  0
 76119  1  0
 77120  1  0
 78121  1  0
 79122  1  0
 80123  1  0
 81124  1  0
 81125  1  0
 82126  1  0
M  END

