
     RDKit          3D

113128  0  0  0  0  0  0  0  0999 V2000
    0.6322   -4.4390    5.3294 C   0  0  0  0  0  0  0  0  0  0  0  0
    1.8952   -4.7940    5.0224 C   0  0  0  0  0  0  0  0  0  0  0  0
    2.9272   -3.9135    4.4632 C   0  0  0  0  0  0  0  0  0  0  0  0
    3.0636   -2.6830    4.6984 O   0  0  0  0  0  0  0  0  0  0  0  0
    3.8307   -4.7126    3.6668 C   0  0  0  0  0  0  0  0  0  0  0  0
    4.8026   -4.2423    2.7557 C   0  0  0  0  0  0  0  0  0  0  0  0
    5.3579   -5.2374    1.9754 C   0  0  0  0  0  0  0  0  0  0  0  0
    4.9838   -6.6172    2.0764 C   0  0  0  0  0  0  0  0  0  0  0  0
    4.0425   -7.0855    2.9805 C   0  0  0  0  0  0  0  0  0  0  0  0
    3.4753   -6.0783    3.8082 C   0  0  0  0  0  0  0  0  0  0  0  0
    2.3704   -6.1884    4.7973 C   0  0  0  0  0  0  0  0  0  0  0  0
    2.0493   -7.2804    5.5323 C   0  0  0  0  0  0  0  0  0  0  0  0
    2.7040   -8.5480    5.3396 C   0  0  0  0  0  0  0  0  0  0  0  0
    3.2321   -9.5692    5.1982 N   0  0  0  0  0  0  0  0  0  0  0  0
    1.1871   -7.1900    6.6841 C   0  0  0  0  0  0  0  0  0  0  0  0
    0.5228   -7.1131    7.6264 N   0  0  0  0  0  0  0  0  0  0  0  0
    5.8839   -6.9599    0.9267 C   0  0  0  0  0  0  0  0  0  0  0  0
    5.2181   -7.2434   -0.4549 C   0  0  0  0  0  0  0  0  0  0  0  0
    3.9434   -6.4411   -0.5930 C   0  0  0  0  0  0  0  0  0  0  0  0
    4.3066   -5.1610   -0.6815 C   0  0  0  0  0  0  0  0  0  0  0  0
    5.8153   -5.1346   -0.5963 C   0  0  0  0  0  0  0  0  0  0  0  0
    6.1182   -6.4147   -1.3523 C   0  0  0  0  0  0  0  0  0  0  0  0
    6.2768   -5.5500    0.8333 C   0  0  0  0  0  0  0  0  0  0  0  0
    0.0538   -3.1147    5.0170 C   0  0  0  0  0  0  0  0  0  0  0  0
   -0.9931   -2.4877    5.7196 C   0  0  0  0  0  0  0  0  0  0  0  0
   -1.6822   -3.0597    6.9272 C   0  0  0  0  0  0  0  0  0  0  0  0
   -2.8947   -3.8863    6.5105 C   0  0  0  0  0  0  0  0  0  0  0  0
   -1.4151   -1.3278    5.0574 C   0  0  0  0  0  0  0  0  0  0  0  0
   -2.7355   -0.2749    5.2800 S   0  0  0  0  0  0  0  0  0  0  0  0
   -2.3440    0.5671    3.8548 C   0  0  0  0  0  0  0  0  0  0  0  0
   -3.0098    1.3536    2.9575 C   0  0  0  0  0  0  0  0  0  0  0  0
   -4.3120    1.8754    3.0016 C   0  0  0  0  0  0  0  0  0  0  0  0
   -4.8570    2.4342    1.8226 C   0  0  0  0  0  0  0  0  0  0  0  0
   -6.1169    2.9450    1.8452 N   0  0  0  0  0  0  0  0  0  0  0  0
   -6.8610    2.9113    2.9828 C   0  0  0  0  0  0  0  0  0  0  0  0
   -6.3289    2.3415    4.1448 C   0  0  0  0  0  0  0  0  0  0  0  0
   -5.0664    1.8349    4.1307 N   0  0  0  0  0  0  0  0  0  0  0  0
   -4.0650    2.4586    0.6667 C   0  0  0  0  0  0  0  0  0  0  0  0
   -4.2549    3.0933   -0.5276 C   0  0  0  0  0  0  0  0  0  0  0  0
   -5.3713    4.1783   -1.2067 S   0  0  0  0  0  0  0  0  0  0  0  0
   -4.2590    4.5968   -2.4302 C   0  0  0  0  0  0  0  0  0  0  0  0
   -4.2860    5.5251   -3.4739 C   0  0  0  0  0  0  0  0  0  0  0  0
   -5.4887    6.3571   -3.8254 C   0  0  0  0  0  0  0  0  0  0  0  0
   -6.2579    5.7309   -4.9815 C   0  0  0  0  0  0  0  0  0  0  0  0
   -3.0567    5.5402   -4.1633 C   0  0  0  0  0  0  0  0  0  0  0  0
   -1.9532    4.4953   -3.3820 S   0  0  0  0  0  0  0  0  0  0  0  0
   -3.0643    3.9455   -2.2620 C   0  0  0  0  0  0  0  0  0  0  0  0
   -3.0709    3.0696   -1.1869 C   0  0  0  0  0  0  0  0  0  0  0  0
   -2.0985    2.4184   -0.5010 N   0  0  0  0  0  0  0  0  0  0  0  0
   -2.7432    1.9847    0.6339 C   0  0  0  0  0  0  0  0  0  0  0  0
   -2.2324    1.3352    1.7875 C   0  0  0  0  0  0  0  0  0  0  0  0
   -1.1724    0.4670    1.9190 N   0  0  0  0  0  0  0  0  0  0  0  0
   -1.2726    0.0422    3.2060 C   0  0  0  0  0  0  0  0  0  0  0  0
   -0.7580   -1.0537    3.8849 C   0  0  0  0  0  0  0  0  0  0  0  0
    0.3487   -2.2597    3.5700 S   0  0  0  0  0  0  0  0  0  0  0  0
   -0.4929   -0.2803    0.8531 C   0  0  0  0  0  0  0  0  0  0  0  0
    1.0246   -0.0746    0.8904 C   0  0  0  0  0  0  0  0  0  0  0  0
   -0.6634    2.6621   -0.6766 C   0  0  0  0  0  0  0  0  0  0  0  0
   -0.1030    1.9095   -1.8884 C   0  0  0  0  0  0  0  0  0  0  0  0
   -2.7046    6.4516   -5.2707 C   0  0  0  0  0  0  0  0  0  0  0  0
   -1.9339    6.1051   -6.3213 C   0  0  0  0  0  0  0  0  0  0  0  0
   -1.5651    4.7194   -6.7102 C   0  0  0  0  0  0  0  0  0  0  0  0
   -1.9712    3.6458   -6.1940 O   0  0  0  0  0  0  0  0  0  0  0  0
   -0.7700    4.8068   -7.9067 C   0  0  0  0  0  0  0  0  0  0  0  0
   -0.6540    6.1048   -8.2993 C   0  0  0  0  0  0  0  0  0  0  0  0
    0.4735    6.2527   -9.5734 S   0  0  0  0  0  0  0  0  0  0  0  0
    0.7525    4.5780   -9.6036 C   0  0  0  0  0  0  0  0  0  0  0  0
    1.6275    3.7591  -10.3080 C   0  0  0  0  0  0  0  0  0  0  0  0
    1.5426    2.4351   -9.8567 C   0  0  0  0  0  0  0  0  0  0  0  0
    0.4057    2.3186   -8.5860 S   0  0  0  0  0  0  0  0  0  0  0  0
    0.0174    3.9457   -8.6461 C   0  0  0  0  0  0  0  0  0  0  0  0
   -1.3505    7.0166   -7.3736 C   0  0  0  0  0  0  0  0  0  0  0  0
   -1.3474    8.3681   -7.4584 C   0  0  0  0  0  0  0  0  0  0  0  0
   -0.7358    9.0441   -8.5740 C   0  0  0  0  0  0  0  0  0  0  0  0
   -0.2509    9.5936   -9.4702 N   0  0  0  0  0  0  0  0  0  0  0  0
   -1.9146    9.2235   -6.4519 C   0  0  0  0  0  0  0  0  0  0  0  0
   -2.3660    9.9231   -5.6471 N   0  0  0  0  0  0  0  0  0  0  0  0
   -0.0621   -5.1870    5.6856 H   0  0  0  0  0  0  0  0  0  0  0  0
    5.0388   -3.1942    2.6254 H   0  0  0  0  0  0  0  0  0  0  0  0
    3.7271   -8.1165    2.9775 H   0  0  0  0  0  0  0  0  0  0  0  0
    6.7215   -7.6411    1.1952 H   0  0  0  0  0  0  0  0  0  0  0  0
    5.1302   -8.3164   -0.7260 H   0  0  0  0  0  0  0  0  0  0  0  0
    2.9342   -6.8221   -0.6962 H   0  0  0  0  0  0  0  0  0  0  0  0
    3.6428   -4.3243   -0.8657 H   0  0  0  0  0  0  0  0  0  0  0  0
    6.2914   -4.2177   -1.0001 H   0  0  0  0  0  0  0  0  0  0  0  0
    7.1911   -6.7178   -1.3096 H   0  0  0  0  0  0  0  0  0  0  0  0
    5.7825   -6.3903   -2.4167 H   0  0  0  0  0  0  0  0  0  0  0  0
    7.3513   -5.3689    1.0535 H   0  0  0  0  0  0  0  0  0  0  0  0
   -0.9773   -3.6960    7.5032 H   0  0  0  0  0  0  0  0  0  0  0  0
   -2.0115   -2.2326    7.5951 H   0  0  0  0  0  0  0  0  0  0  0  0
   -2.5964   -4.6801    5.7937 H   0  0  0  0  0  0  0  0  0  0  0  0
   -3.3404   -4.3666    7.4057 H   0  0  0  0  0  0  0  0  0  0  0  0
   -3.6606   -3.2321    6.0437 H   0  0  0  0  0  0  0  0  0  0  0  0
   -7.8631    3.3179    2.9845 H   0  0  0  0  0  0  0  0  0  0  0  0
   -6.9145    2.3032    5.0535 H   0  0  0  0  0  0  0  0  0  0  0  0
   -6.1617    6.4421   -2.9443 H   0  0  0  0  0  0  0  0  0  0  0  0
   -5.1754    7.3868   -4.0982 H   0  0  0  0  0  0  0  0  0  0  0  0
   -6.5838    4.7018   -4.7136 H   0  0  0  0  0  0  0  0  0  0  0  0
   -7.1571    6.3429   -5.2036 H   0  0  0  0  0  0  0  0  0  0  0  0
   -5.6215    5.6912   -5.8915 H   0  0  0  0  0  0  0  0  0  0  0  0
   -0.8956    0.0070   -0.1323 H   0  0  0  0  0  0  0  0  0  0  0  0
   -0.7172   -1.3653    0.9548 H   0  0  0  0  0  0  0  0  0  0  0  0
    1.4957   -0.7132    1.6591 H   0  0  0  0  0  0  0  0  0  0  0  0
    1.2967    0.9730    1.1197 H   0  0  0  0  0  0  0  0  0  0  0  0
    1.4620   -0.3543   -0.0915 H   0  0  0  0  0  0  0  0  0  0  0  0
   -0.4835    3.7520   -0.8016 H   0  0  0  0  0  0  0  0  0  0  0  0
   -0.1200    2.3885    0.2413 H   0  0  0  0  0  0  0  0  0  0  0  0
    0.9413    1.5900   -1.6844 H   0  0  0  0  0  0  0  0  0  0  0  0
   -0.7140    1.0183   -2.1401 H   0  0  0  0  0  0  0  0  0  0  0  0
   -0.0709    2.5689   -2.7772 H   0  0  0  0  0  0  0  0  0  0  0  0
   -3.0937    7.4495   -5.1918 H   0  0  0  0  0  0  0  0  0  0  0  0
    2.3034    4.1042  -11.0789 H   0  0  0  0  0  0  0  0  0  0  0  0
    2.1346    1.6140  -10.2374 H   0  0  0  0  0  0  0  0  0  0  0  0
  1  2  2  3
  2  3  1  0
  3  4  2  0
  3  5  1  0
  5  6  2  0
  6  7  1  0
  7  8  2  0
  8  9  1  0
  9 10  2  0
 10 11  1  0
 11 12  2  3
 12 13  1  0
 13 14  3  0
 12 15  1  0
 15 16  3  0
  8 17  1  0
 17 18  1  0
 18 19  1  0
 19 20  2  0
 20 21  1  0
 21 22  1  0
 21 23  1  0
  1 24  1  0
 24 25  2  0
 25 26  1  0
 26 27  1  0
 25 28  1  0
 28 29  1  0
 29 30  1  0
 30 31  1  0
 31 32  2  0
 32 33  1  0
 33 34  1  0
 34 35  2  0
 35 36  1  0
 36 37  2  0
 33 38  2  0
 38 39  1  0
 39 40  1  0
 40 41  1  0
 41 42  1  0
 42 43  1  0
 43 44  1  0
 42 45  2  0
 45 46  1  0
 46 47  1  0
 47 48  1  0
 48 49  1  0
 49 50  1  0
 50 51  2  0
 51 52  1  0
 52 53  1  0
 53 54  1  0
 54 55  1  0
 52 56  1  0
 56 57  1  0
 49 58  1  0
 58 59  1  0
 45 60  1  0
 60 61  2  3
 61 62  1  0
 62 63  2  0
 62 64  1  0
 64 65  2  0
 65 66  1  0
 66 67  1  0
 67 68  1  0
 68 69  2  0
 69 70  1  0
 70 71  1  0
 65 72  1  0
 72 73  2  3
 73 74  1  0
 74 75  3  0
 73 76  1  0
 76 77  3  0
 11  2  1  0
 23 17  1  0
 55 24  1  0
 72 61  1  0
 10  5  1  0
 22 18  1  0
 54 28  2  0
 71 64  1  0
 23  7  1  0
 53 30  2  0
 71 67  2  0
 51 31  1  0
 37 32  1  0
 50 38  1  0
 48 39  2  0
 47 41  2  0
  1 78  1  0
  6 79  1  0
  9 80  1  0
 17 81  1  0
 18 82  1  0
 19 83  1  0
 20 84  1  0
 21 85  1  0
 22 86  1  0
 22 87  1  0
 23 88  1  0
 26 89  1  0
 26 90  1  0
 27 91  1  0
 27 92  1  0
 27 93  1  0
 35 94  1  0
 36 95  1  0
 43 96  1  0
 43 97  1  0
 44 98  1  0
 44 99  1  0
 44100  1  0
 56101  1  0
 56102  1  0
 57103  1  0
 57104  1  0
 57105  1  0
 58106  1  0
 58107  1  0
 59108  1  0
 59109  1  0
 59110  1  0
 60111  1  0
 68112  1  0
 69113  1  0
M  END

