
     RDKit          3D

129144  0  0  0  0  0  0  0  0999 V2000
   -0.9105   -3.0861   -5.8269 C   0  0  0  0  0  0  0  0  0  0  0  0
   -2.1744   -3.5471   -5.6855 C   0  0  0  0  0  0  0  0  0  0  0  0
   -2.9491   -3.6464   -4.4370 C   0  0  0  0  0  0  0  0  0  0  0  0
   -2.5388   -4.1066   -3.3360 O   0  0  0  0  0  0  0  0  0  0  0  0
   -4.3384   -3.3827   -4.7347 C   0  0  0  0  0  0  0  0  0  0  0  0
   -5.3847   -3.1921   -3.8048 C   0  0  0  0  0  0  0  0  0  0  0  0
   -6.5850   -2.8377   -4.3873 C   0  0  0  0  0  0  0  0  0  0  0  0
   -6.7586   -2.6788   -5.8000 C   0  0  0  0  0  0  0  0  0  0  0  0
   -5.7397   -2.8784   -6.7177 C   0  0  0  0  0  0  0  0  0  0  0  0
   -4.4979   -3.2687   -6.1374 C   0  0  0  0  0  0  0  0  0  0  0  0
   -3.1854   -3.5333   -6.7873 C   0  0  0  0  0  0  0  0  0  0  0  0
   -2.9803   -3.9110   -8.0737 C   0  0  0  0  0  0  0  0  0  0  0  0
   -4.0488   -3.9736   -9.0377 C   0  0  0  0  0  0  0  0  0  0  0  0
   -4.9021   -4.0165   -9.8208 N   0  0  0  0  0  0  0  0  0  0  0  0
   -1.7062   -4.4056   -8.5289 C   0  0  0  0  0  0  0  0  0  0  0  0
   -0.6862   -4.8078   -8.9081 N   0  0  0  0  0  0  0  0  0  0  0  0
   -8.1954   -2.2973   -5.5963 C   0  0  0  0  0  0  0  0  0  0  0  0
   -9.2891   -3.3504   -5.9546 C   0  0  0  0  0  0  0  0  0  0  0  0
   -8.7492   -4.7478   -5.7583 C   0  0  0  0  0  0  0  0  0  0  0  0
   -8.5787   -4.9083   -4.4442 C   0  0  0  0  0  0  0  0  0  0  0  0
   -9.0129   -3.6130   -3.7902 C   0  0  0  0  0  0  0  0  0  0  0  0
  -10.1619   -3.2553   -4.7149 C   0  0  0  0  0  0  0  0  0  0  0  0
   -8.0172   -2.4685   -4.1498 C   0  0  0  0  0  0  0  0  0  0  0  0
   -0.0866   -2.4507   -4.7697 C   0  0  0  0  0  0  0  0  0  0  0  0
    0.7150   -1.3084   -4.9777 C   0  0  0  0  0  0  0  0  0  0  0  0
    0.8609   -0.5825   -6.2558 C   0  0  0  0  0  0  0  0  0  0  0  0
   -0.2637   -0.1263   -6.9577 C   0  0  0  0  0  0  0  0  0  0  0  0
   -0.1077    0.5835   -8.1509 C   0  0  0  0  0  0  0  0  0  0  0  0
    1.1701    0.8315   -8.6592 C   0  0  0  0  0  0  0  0  0  0  0  0
    2.3037    0.3685   -7.9765 C   0  0  0  0  0  0  0  0  0  0  0  0
    3.6827    0.6610   -8.5046 C   0  0  0  0  0  0  0  0  0  0  0  0
    4.2267    1.9617   -7.9192 C   0  0  0  0  0  0  0  0  0  0  0  0
    2.1441   -0.3193   -6.7630 C   0  0  0  0  0  0  0  0  0  0  0  0
    1.2729   -0.8456   -3.7811 C   0  0  0  0  0  0  0  0  0  0  0  0
    1.8667    0.6885   -3.3556 S   0  0  0  0  0  0  0  0  0  0  0  0
    1.7870    0.3091   -1.7044 C   0  0  0  0  0  0  0  0  0  0  0  0
    1.5374    1.0524   -0.5837 C   0  0  0  0  0  0  0  0  0  0  0  0
    1.4526    2.4413   -0.4229 C   0  0  0  0  0  0  0  0  0  0  0  0
    0.8410    2.9633    0.7569 C   0  0  0  0  0  0  0  0  0  0  0  0
    0.7905    4.3147    0.8789 N   0  0  0  0  0  0  0  0  0  0  0  0
    1.5013    4.7497   -0.5546 S   0  0  0  0  0  0  0  0  0  0  0  0
    1.8939    3.3409   -1.3373 N   0  0  0  0  0  0  0  0  0  0  0  0
    0.3577    2.0670    1.7181 C   0  0  0  0  0  0  0  0  0  0  0  0
   -0.0032    2.2803    3.0163 C   0  0  0  0  0  0  0  0  0  0  0  0
    0.1308    3.5931    4.0775 S   0  0  0  0  0  0  0  0  0  0  0  0
    0.2272    2.5510    5.4170 C   0  0  0  0  0  0  0  0  0  0  0  0
    0.5950    2.7831    6.7416 C   0  0  0  0  0  0  0  0  0  0  0  0
    0.7132    4.1339    7.3299 C   0  0  0  0  0  0  0  0  0  0  0  0
   -0.3536    5.0391    7.2157 C   0  0  0  0  0  0  0  0  0  0  0  0
   -0.2526    6.3216    7.7577 C   0  0  0  0  0  0  0  0  0  0  0  0
    0.9150    6.7136    8.4185 C   0  0  0  0  0  0  0  0  0  0  0  0
    1.9994    5.8291    8.5228 C   0  0  0  0  0  0  0  0  0  0  0  0
    3.2652    6.2464    9.2283 C   0  0  0  0  0  0  0  0  0  0  0  0
    3.3991    5.5406   10.5763 C   0  0  0  0  0  0  0  0  0  0  0  0
    1.8928    4.5421    7.9733 C   0  0  0  0  0  0  0  0  0  0  0  0
    0.8973    1.5713    7.3902 C   0  0  0  0  0  0  0  0  0  0  0  0
    0.7197    0.2683    6.3056 S   0  0  0  0  0  0  0  0  0  0  0  0
    0.2223    1.2330    5.0266 C   0  0  0  0  0  0  0  0  0  0  0  0
    0.0646    1.0743    3.6498 C   0  0  0  0  0  0  0  0  0  0  0  0
    0.3842    0.0578    2.8004 N   0  0  0  0  0  0  0  0  0  0  0  0
    0.5031    0.6794    1.5824 C   0  0  0  0  0  0  0  0  0  0  0  0
    0.9995    0.1623    0.3574 C   0  0  0  0  0  0  0  0  0  0  0  0
    0.7757   -1.0638   -0.2141 N   0  0  0  0  0  0  0  0  0  0  0  0
    1.2810   -0.9364   -1.4707 C   0  0  0  0  0  0  0  0  0  0  0  0
    0.9753   -1.5890   -2.6661 C   0  0  0  0  0  0  0  0  0  0  0  0
   -0.0255   -2.8553   -3.1146 S   0  0  0  0  0  0  0  0  0  0  0  0
   -0.2616   -2.0296    0.1760 C   0  0  0  0  0  0  0  0  0  0  0  0
    0.3183   -3.4341    0.3592 C   0  0  0  0  0  0  0  0  0  0  0  0
    1.0430   -1.1878    3.2096 C   0  0  0  0  0  0  0  0  0  0  0  0
    0.0574   -2.1633    3.8545 C   0  0  0  0  0  0  0  0  0  0  0  0
    1.4292    1.4339    8.7531 C   0  0  0  0  0  0  0  0  0  0  0  0
    2.7403    1.3311    9.0173 C   0  0  0  0  0  0  0  0  0  0  0  0
    3.3817    1.3039   10.5613 S   0  0  0  0  0  0  0  0  0  0  0  0
    5.0029    1.2807   10.0657 C   0  0  0  0  0  0  0  0  0  0  0  0
    6.0336    1.2495   10.9519 C   0  0  0  0  0  0  0  0  0  0  0  0
    5.7724    1.2632   12.3712 C   0  0  0  0  0  0  0  0  0  0  0  0
    5.5598    1.2771   13.5092 N   0  0  0  0  0  0  0  0  0  0  0  0
    7.4236    1.1745   10.5894 C   0  0  0  0  0  0  0  0  0  0  0  0
    8.5475    1.1263   10.3049 N   0  0  0  0  0  0  0  0  0  0  0  0
    5.0662    1.3052    8.6903 N   0  0  0  0  0  0  0  0  0  0  0  0
    6.2745    1.3355    7.8434 C   0  0  0  0  0  0  0  0  0  0  0  0
    6.7833   -0.0787    7.5753 C   0  0  0  0  0  0  0  0  0  0  0  0
    3.8164    1.3112    8.1220 C   0  0  0  0  0  0  0  0  0  0  0  0
    3.6554    1.3118    6.8704 O   0  0  0  0  0  0  0  0  0  0  0  0
   -0.5531   -2.9055   -6.8285 H   0  0  0  0  0  0  0  0  0  0  0  0
   -5.2538   -3.2754   -2.7352 H   0  0  0  0  0  0  0  0  0  0  0  0
   -5.8965   -2.6980   -7.7693 H   0  0  0  0  0  0  0  0  0  0  0  0
   -8.4329   -1.2499   -5.8949 H   0  0  0  0  0  0  0  0  0  0  0  0
   -9.8129   -3.1824   -6.9178 H   0  0  0  0  0  0  0  0  0  0  0  0
   -8.6024   -5.5071   -6.5215 H   0  0  0  0  0  0  0  0  0  0  0  0
   -8.2721   -5.8262   -3.9519 H   0  0  0  0  0  0  0  0  0  0  0  0
   -9.2707   -3.6954   -2.7128 H   0  0  0  0  0  0  0  0  0  0  0  0
  -10.5791   -2.2352   -4.5384 H   0  0  0  0  0  0  0  0  0  0  0  0
  -10.9944   -3.9984   -4.6985 H   0  0  0  0  0  0  0  0  0  0  0  0
   -8.1534   -1.5268   -3.5684 H   0  0  0  0  0  0  0  0  0  0  0  0
   -1.2567   -0.2929   -6.5657 H   0  0  0  0  0  0  0  0  0  0  0  0
   -0.9779    0.9477   -8.6795 H   0  0  0  0  0  0  0  0  0  0  0  0
    1.2752    1.3871   -9.5824 H   0  0  0  0  0  0  0  0  0  0  0  0
    4.3746   -0.1723   -8.2502 H   0  0  0  0  0  0  0  0  0  0  0  0
    3.6603    0.7458   -9.6129 H   0  0  0  0  0  0  0  0  0  0  0  0
    5.2590    2.1362   -8.2925 H   0  0  0  0  0  0  0  0  0  0  0  0
    3.5830    2.8179   -8.2200 H   0  0  0  0  0  0  0  0  0  0  0  0
    4.2600    1.9020   -6.8077 H   0  0  0  0  0  0  0  0  0  0  0  0
    3.0190   -0.6582   -6.2176 H   0  0  0  0  0  0  0  0  0  0  0  0
   -1.2691    4.7466    6.7131 H   0  0  0  0  0  0  0  0  0  0  0  0
   -1.0797    7.0137    7.6643 H   0  0  0  0  0  0  0  0  0  0  0  0
    0.9754    7.7117    8.8352 H   0  0  0  0  0  0  0  0  0  0  0  0
    3.2743    7.3453    9.3976 H   0  0  0  0  0  0  0  0  0  0  0  0
    4.1439    5.9970    8.5950 H   0  0  0  0  0  0  0  0  0  0  0  0
    2.5055    5.7413   11.2054 H   0  0  0  0  0  0  0  0  0  0  0  0
    3.5075    4.4463   10.4300 H   0  0  0  0  0  0  0  0  0  0  0  0
    4.2994    5.9164   11.1062 H   0  0  0  0  0  0  0  0  0  0  0  0
    2.7408    3.8765    8.0243 H   0  0  0  0  0  0  0  0  0  0  0  0
   -1.0609   -2.0592   -0.5968 H   0  0  0  0  0  0  0  0  0  0  0  0
   -0.7681   -1.7040    1.0991 H   0  0  0  0  0  0  0  0  0  0  0  0
    0.7920   -3.7962   -0.5842 H   0  0  0  0  0  0  0  0  0  0  0  0
    1.0806   -3.4583    1.1603 H   0  0  0  0  0  0  0  0  0  0  0  0
   -0.4992   -4.1381    0.6246 H   0  0  0  0  0  0  0  0  0  0  0  0
    1.5411   -1.6664    2.3510 H   0  0  0  0  0  0  0  0  0  0  0  0
    1.8544   -0.9577    3.9371 H   0  0  0  0  0  0  0  0  0  0  0  0
   -0.6924   -2.5290    3.1261 H   0  0  0  0  0  0  0  0  0  0  0  0
    0.6129   -3.0429    4.2462 H   0  0  0  0  0  0  0  0  0  0  0  0
   -0.4864   -1.6854    4.6977 H   0  0  0  0  0  0  0  0  0  0  0  0
    0.7303    1.5059    9.5785 H   0  0  0  0  0  0  0  0  0  0  0  0
    6.0484    1.8164    6.8645 H   0  0  0  0  0  0  0  0  0  0  0  0
    7.0576    1.9860    8.2704 H   0  0  0  0  0  0  0  0  0  0  0  0
    6.0243   -0.6482    6.9968 H   0  0  0  0  0  0  0  0  0  0  0  0
    6.9808   -0.6113    8.5266 H   0  0  0  0  0  0  0  0  0  0  0  0
    7.7204   -0.0293    6.9793 H   0  0  0  0  0  0  0  0  0  0  0  0
  1  2  2  3
  2  3  1  0
  3  4  2  0
  3  5  1  0
  5  6  2  0
  6  7  1  0
  7  8  2  0
  8  9  1  0
  9 10  2  0
 10 11  1  0
 11 12  2  3
 12 13  1  0
 13 14  3  0
 12 15  1  0
 15 16  3  0
  8 17  1  0
 17 18  1  0
 18 19  1  0
 19 20  2  0
 20 21  1  0
 21 22  1  0
 21 23  1  0
  1 24  1  0
 24 25  2  0
 25 26  1  0
 26 27  2  0
 27 28  1  0
 28 29  2  0
 29 30  1  0
 30 31  1  0
 31 32  1  0
 30 33  2  0
 25 34  1  0
 34 35  1  0
 35 36  1  0
 36 37  1  0
 37 38  1  0
 38 39  1  0
 39 40  2  0
 40 41  1  0
 41 42  1  0
 39 43  1  0
 43 44  1  0
 44 45  1  0
 45 46  1  0
 46 47  1  0
 47 48  1  0
 48 49  2  0
 49 50  1  0
 50 51  2  0
 51 52  1  0
 52 53  1  0
 53 54  1  0
 52 55  2  0
 47 56  2  0
 56 57  1  0
 57 58  1  0
 58 59  1  0
 59 60  1  0
 60 61  1  0
 61 62  1  0
 62 63  1  0
 63 64  1  0
 64 65  1  0
 65 66  1  0
 63 67  1  0
 67 68  1  0
 60 69  1  0
 69 70  1  0
 56 71  1  0
 71 72  2  3
 72 73  1  0
 73 74  1  0
 74 75  2  3
 75 76  1  0
 76 77  3  0
 75 78  1  0
 78 79  3  0
 74 80  1  0
 80 81  1  0
 81 82  1  0
 80 83  1  0
 83 84  2  0
 11  2  1  0
 23 17  1  0
 66 24  1  0
 83 72  1  0
 10  5  1  0
 22 18  1  0
 33 26  1  0
 65 34  2  0
 23  7  1  0
 64 36  2  0
 62 37  2  0
 42 38  2  0
 61 43  2  0
 59 44  2  0
 58 46  2  0
 55 48  1  0
  1 85  1  0
  6 86  1  0
  9 87  1  0
 17 88  1  0
 18 89  1  0
 19 90  1  0
 20 91  1  0
 21 92  1  0
 22 93  1  0
 22 94  1  0
 23 95  1  0
 27 96  1  0
 28 97  1  0
 29 98  1  0
 31 99  1  0
 31100  1  0
 32101  1  0
 32102  1  0
 32103  1  0
 33104  1  0
 49105  1  0
 50106  1  0
 51107  1  0
 53108  1  0
 53109  1  0
 54110  1  0
 54111  1  0
 54112  1  0
 55113  1  0
 67114  1  0
 67115  1  0
 68116  1  0
 68117  1  0
 68118  1  0
 69119  1  0
 69120  1  0
 70121  1  0
 70122  1  0
 70123  1  0
 71124  1  0
 81125  1  0
 81126  1  0
 82127  1  0
 82128  1  0
 82129  1  0
M  END

