
     RDKit          3D

130146  0  0  0  0  0  0  0  0999 V2000
   -0.0641    4.3991   -5.9980 C   0  0  0  0  0  0  0  0  0  0  0  0
    1.0055    3.7217   -6.4504 C   0  0  0  0  0  0  0  0  0  0  0  0
    1.2224    2.2822   -6.2383 C   0  0  0  0  0  0  0  0  0  0  0  0
    0.3249    1.4074   -6.0986 O   0  0  0  0  0  0  0  0  0  0  0  0
    2.6422    2.0341   -6.1433 C   0  0  0  0  0  0  0  0  0  0  0  0
    3.2592    0.8555   -5.6631 C   0  0  0  0  0  0  0  0  0  0  0  0
    4.6093    1.0004   -5.4113 C   0  0  0  0  0  0  0  0  0  0  0  0
    5.3186    2.2306   -5.6079 C   0  0  0  0  0  0  0  0  0  0  0  0
    4.7198    3.3838   -6.0922 C   0  0  0  0  0  0  0  0  0  0  0  0
    3.3337    3.2508   -6.3814 C   0  0  0  0  0  0  0  0  0  0  0  0
    2.3449    4.3098   -6.7309 C   0  0  0  0  0  0  0  0  0  0  0  0
    2.5978    5.4932   -7.3410 C   0  0  0  0  0  0  0  0  0  0  0  0
    3.9322    5.9170   -7.6785 C   0  0  0  0  0  0  0  0  0  0  0  0
    4.9988    6.2685   -7.9533 N   0  0  0  0  0  0  0  0  0  0  0  0
    1.5378    6.3560   -7.7945 C   0  0  0  0  0  0  0  0  0  0  0  0
    0.6889    7.0511   -8.1622 N   0  0  0  0  0  0  0  0  0  0  0  0
    6.5582    1.6250   -5.0195 C   0  0  0  0  0  0  0  0  0  0  0  0
    6.9140    2.0562   -3.5655 C   0  0  0  0  0  0  0  0  0  0  0  0
    7.9293    1.0527   -3.0718 C   0  0  0  0  0  0  0  0  0  0  0  0
    7.2732   -0.1027   -2.9094 C   0  0  0  0  0  0  0  0  0  0  0  0
    5.8376    0.1621   -3.2895 C   0  0  0  0  0  0  0  0  0  0  0  0
    5.7138    1.5816   -2.7607 C   0  0  0  0  0  0  0  0  0  0  0  0
    5.8363    0.3627   -4.8327 C   0  0  0  0  0  0  0  0  0  0  0  0
   -1.0930    3.7092   -5.2076 C   0  0  0  0  0  0  0  0  0  0  0  0
   -1.6673    4.3062   -4.0546 C   0  0  0  0  0  0  0  0  0  0  0  0
   -2.3923    5.6463   -4.2079 C   0  0  0  0  0  0  0  0  0  0  0  0
   -3.7932    5.6795   -4.2762 C   0  0  0  0  0  0  0  0  0  0  0  0
   -4.4618    6.9010   -4.3643 C   0  0  0  0  0  0  0  0  0  0  0  0
   -3.7394    8.0960   -4.4059 C   0  0  0  0  0  0  0  0  0  0  0  0
   -2.3372    8.0777   -4.3578 C   0  0  0  0  0  0  0  0  0  0  0  0
   -1.5657    9.3686   -4.3874 C   0  0  0  0  0  0  0  0  0  0  0  0
   -1.4868    9.9899   -2.9941 C   0  0  0  0  0  0  0  0  0  0  0  0
   -1.6693    6.8495   -4.2312 C   0  0  0  0  0  0  0  0  0  0  0  0
   -1.8846    3.5141   -2.8960 C   0  0  0  0  0  0  0  0  0  0  0  0
   -2.6636    4.1200   -1.3986 S   0  0  0  0  0  0  0  0  0  0  0  0
   -2.4081    2.6425   -0.6684 C   0  0  0  0  0  0  0  0  0  0  0  0
   -2.3908    2.1210    0.5949 C   0  0  0  0  0  0  0  0  0  0  0  0
   -2.5259    2.7347    1.8485 C   0  0  0  0  0  0  0  0  0  0  0  0
   -2.1368    2.0050    3.0146 C   0  0  0  0  0  0  0  0  0  0  0  0
   -2.2220    2.6490    4.2019 N   0  0  0  0  0  0  0  0  0  0  0  0
   -2.7882    4.1162    3.6799 S   0  0  0  0  0  0  0  0  0  0  0  0
   -2.9372    4.0137    2.0329 N   0  0  0  0  0  0  0  0  0  0  0  0
   -1.6674    0.6962    2.8603 C   0  0  0  0  0  0  0  0  0  0  0  0
   -1.2678   -0.2533    3.7593 C   0  0  0  0  0  0  0  0  0  0  0  0
   -1.1535   -0.4987    5.4373 S   0  0  0  0  0  0  0  0  0  0  0  0
   -0.7404   -2.1435    5.1902 C   0  0  0  0  0  0  0  0  0  0  0  0
   -0.4161   -3.2041    6.0387 C   0  0  0  0  0  0  0  0  0  0  0  0
   -0.4593   -3.1122    7.5077 C   0  0  0  0  0  0  0  0  0  0  0  0
    0.6958   -3.3328    8.2733 C   0  0  0  0  0  0  0  0  0  0  0  0
    0.6451   -3.2206    9.6643 C   0  0  0  0  0  0  0  0  0  0  0  0
   -0.5567   -2.8962   10.3012 C   0  0  0  0  0  0  0  0  0  0  0  0
   -1.7221   -2.6872    9.5463 C   0  0  0  0  0  0  0  0  0  0  0  0
   -3.0148   -2.3272   10.2283 C   0  0  0  0  0  0  0  0  0  0  0  0
   -3.0970   -0.8231   10.4776 C   0  0  0  0  0  0  0  0  0  0  0  0
   -1.6615   -2.7775    8.1477 C   0  0  0  0  0  0  0  0  0  0  0  0
   -0.1507   -4.3769    5.2992 C   0  0  0  0  0  0  0  0  0  0  0  0
   -0.2855   -4.0514    3.6243 S   0  0  0  0  0  0  0  0  0  0  0  0
   -0.7234   -2.4572    3.8589 C   0  0  0  0  0  0  0  0  0  0  0  0
   -1.0204   -1.3802    3.0501 C   0  0  0  0  0  0  0  0  0  0  0  0
   -1.2887   -1.2564    1.7306 N   0  0  0  0  0  0  0  0  0  0  0  0
   -1.5974    0.0703    1.6054 C   0  0  0  0  0  0  0  0  0  0  0  0
   -1.8814    0.8237    0.4443 C   0  0  0  0  0  0  0  0  0  0  0  0
   -1.5139    0.5886   -0.8574 N   0  0  0  0  0  0  0  0  0  0  0  0
   -1.8641    1.7284   -1.5020 C   0  0  0  0  0  0  0  0  0  0  0  0
   -1.6522    2.0882   -2.8351 C   0  0  0  0  0  0  0  0  0  0  0  0
   -0.8842    3.4221   -3.5493 S   0  0  0  0  0  0  0  0  0  0  0  0
   -0.4365   -0.2894   -1.3408 C   0  0  0  0  0  0  0  0  0  0  0  0
   -0.8919   -1.1200   -2.5421 C   0  0  0  0  0  0  0  0  0  0  0  0
   -1.8014   -2.3566    0.9017 C   0  0  0  0  0  0  0  0  0  0  0  0
   -3.1365   -2.8716    1.4407 C   0  0  0  0  0  0  0  0  0  0  0  0
    0.2631   -5.6789    5.8641 C   0  0  0  0  0  0  0  0  0  0  0  0
   -0.0140   -6.8688    5.3022 C   0  0  0  0  0  0  0  0  0  0  0  0
    0.8439   -8.0415    5.4692 C   0  0  0  0  0  0  0  0  0  0  0  0
    1.7096   -8.2046    6.3708 O   0  0  0  0  0  0  0  0  0  0  0  0
    0.6104   -8.9346    4.3504 C   0  0  0  0  0  0  0  0  0  0  0  0
    1.3056  -10.0945    4.0033 C   0  0  0  0  0  0  0  0  0  0  0  0
    0.9766  -10.7343    2.7980 C   0  0  0  0  0  0  0  0  0  0  0  0
    1.9080  -12.3190    2.2762 Br  0  0  0  0  0  0  0  0  0  0  0  0
   -0.0189  -10.1967    1.9584 C   0  0  0  0  0  0  0  0  0  0  0  0
   -0.7038   -9.0252    2.3253 C   0  0  0  0  0  0  0  0  0  0  0  0
   -0.3921   -8.4135    3.5487 C   0  0  0  0  0  0  0  0  0  0  0  0
   -0.9402   -7.1836    4.1773 C   0  0  0  0  0  0  0  0  0  0  0  0
   -2.2060   -6.7134    4.0385 C   0  0  0  0  0  0  0  0  0  0  0  0
   -3.0938   -7.1822    3.0097 C   0  0  0  0  0  0  0  0  0  0  0  0
   -3.8150   -7.5521    2.1815 N   0  0  0  0  0  0  0  0  0  0  0  0
   -2.7931   -5.8221    5.0084 C   0  0  0  0  0  0  0  0  0  0  0  0
   -3.2662   -5.1084    5.7863 N   0  0  0  0  0  0  0  0  0  0  0  0
   -0.0496    5.4763   -5.9828 H   0  0  0  0  0  0  0  0  0  0  0  0
    2.7104   -0.0457   -5.4170 H   0  0  0  0  0  0  0  0  0  0  0  0
    5.2657    4.3111   -6.1356 H   0  0  0  0  0  0  0  0  0  0  0  0
    7.4106    1.5733   -5.7327 H   0  0  0  0  0  0  0  0  0  0  0  0
    7.1963    3.1227   -3.4339 H   0  0  0  0  0  0  0  0  0  0  0  0
    8.9663    1.2391   -2.8085 H   0  0  0  0  0  0  0  0  0  0  0  0
    7.6863   -1.0174   -2.4979 H   0  0  0  0  0  0  0  0  0  0  0  0
    5.1004   -0.5693   -2.8984 H   0  0  0  0  0  0  0  0  0  0  0  0
    5.8628    1.6596   -1.6556 H   0  0  0  0  0  0  0  0  0  0  0  0
    4.7599    2.0870   -3.0235 H   0  0  0  0  0  0  0  0  0  0  0  0
    6.2247   -0.4905   -5.4339 H   0  0  0  0  0  0  0  0  0  0  0  0
   -4.3618    4.7583   -4.2411 H   0  0  0  0  0  0  0  0  0  0  0  0
   -5.5432    6.9217   -4.4029 H   0  0  0  0  0  0  0  0  0  0  0  0
   -4.2719    9.0342   -4.4699 H   0  0  0  0  0  0  0  0  0  0  0  0
   -0.5360    9.1998   -4.7717 H   0  0  0  0  0  0  0  0  0  0  0  0
   -2.0606   10.0858   -5.0795 H   0  0  0  0  0  0  0  0  0  0  0  0
   -1.0151   10.9919   -3.0572 H   0  0  0  0  0  0  0  0  0  0  0  0
   -2.5029   10.1091   -2.5618 H   0  0  0  0  0  0  0  0  0  0  0  0
   -0.8784    9.3472   -2.3234 H   0  0  0  0  0  0  0  0  0  0  0  0
   -0.5879    6.8316   -4.1258 H   0  0  0  0  0  0  0  0  0  0  0  0
    1.6374   -3.5667    7.7918 H   0  0  0  0  0  0  0  0  0  0  0  0
    1.5391   -3.3781   10.2529 H   0  0  0  0  0  0  0  0  0  0  0  0
   -0.5782   -2.8067   11.3793 H   0  0  0  0  0  0  0  0  0  0  0  0
   -3.0950   -2.8645   11.2001 H   0  0  0  0  0  0  0  0  0  0  0  0
   -3.8802   -2.6420    9.6052 H   0  0  0  0  0  0  0  0  0  0  0  0
   -3.0333   -0.2697    9.5149 H   0  0  0  0  0  0  0  0  0  0  0  0
   -4.0639   -0.5818   10.9666 H   0  0  0  0  0  0  0  0  0  0  0  0
   -2.2688   -0.4988   11.1429 H   0  0  0  0  0  0  0  0  0  0  0  0
   -2.5517   -2.5967    7.5590 H   0  0  0  0  0  0  0  0  0  0  0  0
    0.4361    0.3300   -1.6449 H   0  0  0  0  0  0  0  0  0  0  0  0
   -0.0575   -0.9516   -0.5384 H   0  0  0  0  0  0  0  0  0  0  0  0
   -0.1706   -1.9468   -2.7162 H   0  0  0  0  0  0  0  0  0  0  0  0
   -1.8939   -1.5580   -2.3676 H   0  0  0  0  0  0  0  0  0  0  0  0
   -0.9282   -0.4911   -3.4557 H   0  0  0  0  0  0  0  0  0  0  0  0
   -1.9925   -2.0191   -0.1278 H   0  0  0  0  0  0  0  0  0  0  0  0
   -1.0622   -3.1842    0.8700 H   0  0  0  0  0  0  0  0  0  0  0  0
   -3.8637   -2.0353    1.5177 H   0  0  0  0  0  0  0  0  0  0  0  0
   -3.0095   -3.3331    2.4416 H   0  0  0  0  0  0  0  0  0  0  0  0
   -3.5471   -3.6376    0.7499 H   0  0  0  0  0  0  0  0  0  0  0  0
    0.9562   -5.6510    6.6930 H   0  0  0  0  0  0  0  0  0  0  0  0
    2.0952  -10.4777    4.6384 H   0  0  0  0  0  0  0  0  0  0  0  0
   -0.2510  -10.6790    1.0160 H   0  0  0  0  0  0  0  0  0  0  0  0
   -1.4243   -8.6038    1.6410 H   0  0  0  0  0  0  0  0  0  0  0  0
  1  2  2  3
  2  3  1  0
  3  4  2  0
  3  5  1  0
  5  6  2  0
  6  7  1  0
  7  8  2  0
  8  9  1  0
  9 10  2  0
 10 11  1  0
 11 12  2  3
 12 13  1  0
 13 14  3  0
 12 15  1  0
 15 16  3  0
  8 17  1  0
 17 18  1  0
 18 19  1  0
 19 20  2  0
 20 21  1  0
 21 22  1  0
 21 23  1  0
  1 24  1  0
 24 25  2  0
 25 26  1  0
 26 27  2  0
 27 28  1  0
 28 29  2  0
 29 30  1  0
 30 31  1  0
 31 32  1  0
 30 33  2  0
 25 34  1  0
 34 35  1  0
 35 36  1  0
 36 37  1  0
 37 38  1  0
 38 39  1  0
 39 40  2  0
 40 41  1  0
 41 42  1  0
 39 43  1  0
 43 44  1  0
 44 45  1  0
 45 46  1  0
 46 47  1  0
 47 48  1  0
 48 49  2  0
 49 50  1  0
 50 51  2  0
 51 52  1  0
 52 53  1  0
 53 54  1  0
 52 55  2  0
 47 56  2  0
 56 57  1  0
 57 58  1  0
 58 59  1  0
 59 60  1  0
 60 61  1  0
 61 62  1  0
 62 63  1  0
 63 64  1  0
 64 65  1  0
 65 66  1  0
 63 67  1  0
 67 68  1  0
 60 69  1  0
 69 70  1  0
 56 71  1  0
 71 72  2  3
 72 73  1  0
 73 74  2  0
 73 75  1  0
 75 76  2  0
 76 77  1  0
 77 78  1  0
 77 79  2  0
 79 80  1  0
 80 81  2  0
 81 82  1  0
 82 83  2  3
 83 84  1  0
 84 85  3  0
 83 86  1  0
 86 87  3  0
 11  2  1  0
 23 17  1  0
 66 24  1  0
 82 72  1  0
 10  5  1  0
 22 18  1  0
 33 26  1  0
 65 34  2  0
 81 75  1  0
 23  7  1  0
 64 36  2  0
 62 37  2  0
 42 38  2  0
 61 43  2  0
 59 44  2  0
 58 46  2  0
 55 48  1  0
  1 88  1  0
  6 89  1  0
  9 90  1  0
 17 91  1  0
 18 92  1  0
 19 93  1  0
 20 94  1  0
 21 95  1  0
 22 96  1  0
 22 97  1  0
 23 98  1  0
 27 99  1  0
 28100  1  0
 29101  1  0
 31102  1  0
 31103  1  0
 32104  1  0
 32105  1  0
 32106  1  0
 33107  1  0
 49108  1  0
 50109  1  0
 51110  1  0
 53111  1  0
 53112  1  0
 54113  1  0
 54114  1  0
 54115  1  0
 55116  1  0
 67117  1  0
 67118  1  0
 68119  1  0
 68120  1  0
 68121  1  0
 69122  1  0
 69123  1  0
 70124  1  0
 70125  1  0
 70126  1  0
 71127  1  0
 76128  1  0
 79129  1  0
 80130  1  0
M  END

