
     RDKit          3D

171188  0  0  0  0  0  0  0  0999 V2000
    1.9147    0.3070    7.2188 C   0  0  0  0  0  0  0  0  0  0  0  0
    3.0711   -0.3580    7.0557 C   0  0  0  0  0  0  0  0  0  0  0  0
    3.5506   -0.9248    5.7854 C   0  0  0  0  0  0  0  0  0  0  0  0
    2.8416   -1.2081    4.7835 O   0  0  0  0  0  0  0  0  0  0  0  0
    4.9872   -1.1092    5.8656 C   0  0  0  0  0  0  0  0  0  0  0  0
    5.8607   -1.4948    4.8241 C   0  0  0  0  0  0  0  0  0  0  0  0
    7.1971   -1.4535    5.1665 C   0  0  0  0  0  0  0  0  0  0  0  0
    7.6584   -1.0415    6.4604 C   0  0  0  0  0  0  0  0  0  0  0  0
    6.8153   -0.6397    7.4757 C   0  0  0  0  0  0  0  0  0  0  0  0
    5.4282   -0.7145    7.1597 C   0  0  0  0  0  0  0  0  0  0  0  0
    4.2451   -0.3552    7.9933 C   0  0  0  0  0  0  0  0  0  0  0  0
    4.2143   -0.2352    9.3486 C   0  0  0  0  0  0  0  0  0  0  0  0
    5.4001   -0.3404   10.1591 C   0  0  0  0  0  0  0  0  0  0  0  0
    6.3596   -0.4430   10.7972 N   0  0  0  0  0  0  0  0  0  0  0  0
    2.9804   -0.1779   10.0904 C   0  0  0  0  0  0  0  0  0  0  0  0
    2.0038   -0.1441   10.7109 N   0  0  0  0  0  0  0  0  0  0  0  0
    9.0857   -1.2081    6.0247 C   0  0  0  0  0  0  0  0  0  0  0  0
    9.9210    0.0731    5.7395 C   0  0  0  0  0  0  0  0  0  0  0  0
    9.0123    1.1769    5.2587 C   0  0  0  0  0  0  0  0  0  0  0  0
    8.5750    0.8108    4.0532 C   0  0  0  0  0  0  0  0  0  0  0  0
    9.2039   -0.5336    3.7533 C   0  0  0  0  0  0  0  0  0  0  0  0
   10.5523   -0.3094    4.4152 C   0  0  0  0  0  0  0  0  0  0  0  0
    8.6123   -1.6243    4.6977 C   0  0  0  0  0  0  0  0  0  0  0  0
    0.9967    0.5496    6.0978 C   0  0  0  0  0  0  0  0  0  0  0  0
    1.2420    1.4695    5.0787 C   0  0  0  0  0  0  0  0  0  0  0  0
    0.2662    1.3813    4.0909 C   0  0  0  0  0  0  0  0  0  0  0  0
    0.1781    2.0009    2.5180 S   0  0  0  0  0  0  0  0  0  0  0  0
   -1.1966    1.0725    2.1606 C   0  0  0  0  0  0  0  0  0  0  0  0
   -1.6192    0.4697    0.9199 C   0  0  0  0  0  0  0  0  0  0  0  0
   -1.3105    0.8514   -0.3836 C   0  0  0  0  0  0  0  0  0  0  0  0
   -1.5046   -0.1026   -1.3918 C   0  0  0  0  0  0  0  0  0  0  0  0
   -1.1016    0.0127   -2.8626 C   0  0  0  0  0  0  0  0  0  0  0  0
   -2.1820    0.8347   -3.5851 C   0  0  0  0  0  0  0  0  0  0  0  0
   -2.2119    2.2343   -3.4230 C   0  0  0  0  0  0  0  0  0  0  0  0
   -3.1937    3.0126   -4.0417 C   0  0  0  0  0  0  0  0  0  0  0  0
   -4.1825    2.4069   -4.8292 C   0  0  0  0  0  0  0  0  0  0  0  0
   -5.2685    3.2341   -5.4675 C   0  0  0  0  0  0  0  0  0  0  0  0
   -5.1449    3.2037   -6.8786 O   0  0  0  0  0  0  0  0  0  0  0  0
   -4.5609    4.3959   -7.3693 C   0  0  0  0  0  0  0  0  0  0  0  0
   -3.1921    4.4798   -7.0184 O   0  0  0  0  0  0  0  0  0  0  0  0
   -2.4318    3.6006   -7.8225 C   0  0  0  0  0  0  0  0  0  0  0  0
   -4.1740    1.0209   -4.9962 C   0  0  0  0  0  0  0  0  0  0  0  0
   -3.1901    0.2408   -4.3792 C   0  0  0  0  0  0  0  0  0  0  0  0
    0.3203    0.5592   -3.0570 C   0  0  0  0  0  0  0  0  0  0  0  0
    1.3151    0.3974   -2.0679 C   0  0  0  0  0  0  0  0  0  0  0  0
    2.5387    1.0607   -2.1691 C   0  0  0  0  0  0  0  0  0  0  0  0
    2.8068    1.8779   -3.2758 C   0  0  0  0  0  0  0  0  0  0  0  0
    4.0596    2.7178   -3.3234 C   0  0  0  0  0  0  0  0  0  0  0  0
    3.7518    4.0584   -3.6746 O   0  0  0  0  0  0  0  0  0  0  0  0
    3.3180    4.7899   -2.5426 C   0  0  0  0  0  0  0  0  0  0  0  0
    4.4424    5.3053   -1.8595 O   0  0  0  0  0  0  0  0  0  0  0  0
    4.0129    6.0136   -0.7169 C   0  0  0  0  0  0  0  0  0  0  0  0
    1.8888    1.9247   -4.3319 C   0  0  0  0  0  0  0  0  0  0  0  0
    0.6658    1.2577   -4.2346 C   0  0  0  0  0  0  0  0  0  0  0  0
   -1.1578   -1.4486   -3.2139 C   0  0  0  0  0  0  0  0  0  0  0  0
   -1.6958   -2.2186   -2.2261 C   0  0  0  0  0  0  0  0  0  0  0  0
   -1.9353   -1.3947   -1.0673 C   0  0  0  0  0  0  0  0  0  0  0  0
   -2.3200   -1.7516    0.2292 C   0  0  0  0  0  0  0  0  0  0  0  0
   -2.1856   -0.7695    1.2288 C   0  0  0  0  0  0  0  0  0  0  0  0
   -2.3798   -0.9399    2.7401 C   0  0  0  0  0  0  0  0  0  0  0  0
   -3.8229   -0.6231    3.1643 C   0  0  0  0  0  0  0  0  0  0  0  0
   -4.8913   -0.6094    2.2429 C   0  0  0  0  0  0  0  0  0  0  0  0
   -6.1204   -0.0358    2.5872 C   0  0  0  0  0  0  0  0  0  0  0  0
   -6.3198    0.5022    3.8663 C   0  0  0  0  0  0  0  0  0  0  0  0
   -7.5403    1.3381    4.1562 C   0  0  0  0  0  0  0  0  0  0  0  0
   -7.1600    2.6501    4.5371 O   0  0  0  0  0  0  0  0  0  0  0  0
   -6.8233    3.4341    3.4044 C   0  0  0  0  0  0  0  0  0  0  0  0
   -5.9778    4.4817    3.8233 O   0  0  0  0  0  0  0  0  0  0  0  0
   -5.2900    5.0298    2.7183 C   0  0  0  0  0  0  0  0  0  0  0  0
   -5.3136    0.3602    4.8289 C   0  0  0  0  0  0  0  0  0  0  0  0
   -4.0850   -0.2152    4.4863 C   0  0  0  0  0  0  0  0  0  0  0  0
   -1.8788   -2.3153    3.1778 C   0  0  0  0  0  0  0  0  0  0  0  0
   -0.4983   -2.6170    3.1470 C   0  0  0  0  0  0  0  0  0  0  0  0
   -0.0426   -3.9164    3.3934 C   0  0  0  0  0  0  0  0  0  0  0  0
   -0.9535   -4.9467    3.6492 C   0  0  0  0  0  0  0  0  0  0  0  0
   -0.4896   -6.3613    3.8115 C   0  0  0  0  0  0  0  0  0  0  0  0
   -0.7657   -7.0677    2.6156 O   0  0  0  0  0  0  0  0  0  0  0  0
   -1.2953   -8.3405    2.8987 C   0  0  0  0  0  0  0  0  0  0  0  0
   -1.4872   -9.0216    1.6769 O   0  0  0  0  0  0  0  0  0  0  0  0
   -2.0270  -10.3002    1.9306 C   0  0  0  0  0  0  0  0  0  0  0  0
   -2.3248   -4.6705    3.6466 C   0  0  0  0  0  0  0  0  0  0  0  0
   -2.7842   -3.3707    3.4202 C   0  0  0  0  0  0  0  0  0  0  0  0
   -1.5107    0.2193    3.1948 C   0  0  0  0  0  0  0  0  0  0  0  0
   -0.6932    0.4354    4.3015 C   0  0  0  0  0  0  0  0  0  0  0  0
   -0.3878   -0.3780    5.7427 S   0  0  0  0  0  0  0  0  0  0  0  0
   -1.7334   -3.8701   -2.6409 S   0  0  0  0  0  0  0  0  0  0  0  0
   -1.0655   -3.5395   -4.1709 C   0  0  0  0  0  0  0  0  0  0  0  0
   -0.7600   -4.3170   -5.2876 C   0  0  0  0  0  0  0  0  0  0  0  0
   -0.2931   -3.5044   -6.3370 C   0  0  0  0  0  0  0  0  0  0  0  0
   -0.2173   -1.8682   -5.8352 S   0  0  0  0  0  0  0  0  0  0  0  0
   -0.8185   -2.2043   -4.3156 C   0  0  0  0  0  0  0  0  0  0  0  0
    0.1060   -3.9844   -7.6715 C   0  0  0  0  0  0  0  0  0  0  0  0
   -0.0973   -3.2862   -8.8002 C   0  0  0  0  0  0  0  0  0  0  0  0
    0.7449   -3.4183   -9.9868 C   0  0  0  0  0  0  0  0  0  0  0  0
    1.4981   -4.3907  -10.2517 O   0  0  0  0  0  0  0  0  0  0  0  0
    0.6051   -2.2079  -10.7702 C   0  0  0  0  0  0  0  0  0  0  0  0
    1.2842   -1.8297  -11.9298 C   0  0  0  0  0  0  0  0  0  0  0  0
    1.0250   -0.5680  -12.4855 C   0  0  0  0  0  0  0  0  0  0  0  0
    1.8398   -0.1032  -13.9770 Cl  0  0  0  0  0  0  0  0  0  0  0  0
    0.1076    0.3061  -11.8534 C   0  0  0  0  0  0  0  0  0  0  0  0
   -0.1985    1.9193  -12.4857 Cl  0  0  0  0  0  0  0  0  0  0  0  0
   -0.5524   -0.0931  -10.6795 C   0  0  0  0  0  0  0  0  0  0  0  0
   -0.3427   -1.3850  -10.1859 C   0  0  0  0  0  0  0  0  0  0  0  0
   -0.9406   -2.0696   -9.0138 C   0  0  0  0  0  0  0  0  0  0  0  0
   -2.2021   -1.8854   -8.5505 C   0  0  0  0  0  0  0  0  0  0  0  0
   -3.0151   -0.7649   -8.9439 C   0  0  0  0  0  0  0  0  0  0  0  0
   -3.6856    0.1265   -9.2607 N   0  0  0  0  0  0  0  0  0  0  0  0
   -2.8704   -2.8901   -7.7580 C   0  0  0  0  0  0  0  0  0  0  0  0
   -3.4253   -3.6862   -7.1286 N   0  0  0  0  0  0  0  0  0  0  0  0
    1.7155    0.8469    8.1291 H   0  0  0  0  0  0  0  0  0  0  0  0
    5.5238   -1.7701    3.8345 H   0  0  0  0  0  0  0  0  0  0  0  0
    7.2290   -0.2534    8.3927 H   0  0  0  0  0  0  0  0  0  0  0  0
    9.6396   -2.0093    6.5655 H   0  0  0  0  0  0  0  0  0  0  0  0
   10.6304    0.3665    6.5446 H   0  0  0  0  0  0  0  0  0  0  0  0
    8.8062    2.1197    5.7551 H   0  0  0  0  0  0  0  0  0  0  0  0
    7.9429    1.4037    3.4029 H   0  0  0  0  0  0  0  0  0  0  0  0
    9.2348   -0.8079    2.6761 H   0  0  0  0  0  0  0  0  0  0  0  0
   11.1438    0.5195    3.9506 H   0  0  0  0  0  0  0  0  0  0  0  0
   11.1837   -1.2306    4.4761 H   0  0  0  0  0  0  0  0  0  0  0  0
    8.8782   -2.6707    4.4343 H   0  0  0  0  0  0  0  0  0  0  0  0
    2.1092    2.1148    5.0303 H   0  0  0  0  0  0  0  0  0  0  0  0
   -0.8370    1.8029   -0.5910 H   0  0  0  0  0  0  0  0  0  0  0  0
   -1.4655    2.7314   -2.8125 H   0  0  0  0  0  0  0  0  0  0  0  0
   -3.1878    4.0857   -3.9022 H   0  0  0  0  0  0  0  0  0  0  0  0
   -6.2505    2.7800   -5.2013 H   0  0  0  0  0  0  0  0  0  0  0  0
   -5.3009    4.2632   -5.0315 H   0  0  0  0  0  0  0  0  0  0  0  0
   -5.0907    5.2964   -6.9858 H   0  0  0  0  0  0  0  0  0  0  0  0
   -4.7046    4.4361   -8.4755 H   0  0  0  0  0  0  0  0  0  0  0  0
   -1.3680    3.6823   -7.5213 H   0  0  0  0  0  0  0  0  0  0  0  0
   -2.4972    3.8821   -8.8982 H   0  0  0  0  0  0  0  0  0  0  0  0
   -2.7474    2.5444   -7.6760 H   0  0  0  0  0  0  0  0  0  0  0  0
   -4.9389    0.5354   -5.5915 H   0  0  0  0  0  0  0  0  0  0  0  0
   -3.2483   -0.8288   -4.5173 H   0  0  0  0  0  0  0  0  0  0  0  0
    1.1280   -0.2026   -1.1920 H   0  0  0  0  0  0  0  0  0  0  0  0
    3.2554    0.9748   -1.3606 H   0  0  0  0  0  0  0  0  0  0  0  0
    4.6342    2.6612   -2.3680 H   0  0  0  0  0  0  0  0  0  0  0  0
    4.7169    2.2991   -4.1115 H   0  0  0  0  0  0  0  0  0  0  0  0
    2.7012    5.6351   -2.9248 H   0  0  0  0  0  0  0  0  0  0  0  0
    2.6592    4.1814   -1.8718 H   0  0  0  0  0  0  0  0  0  0  0  0
    3.5844    5.3223    0.0415 H   0  0  0  0  0  0  0  0  0  0  0  0
    4.8895    6.5189   -0.2612 H   0  0  0  0  0  0  0  0  0  0  0  0
    3.2725    6.8053   -0.9765 H   0  0  0  0  0  0  0  0  0  0  0  0
    2.1018    2.5131   -5.2173 H   0  0  0  0  0  0  0  0  0  0  0  0
   -0.0337    1.3353   -5.0566 H   0  0  0  0  0  0  0  0  0  0  0  0
   -2.6310   -2.7636    0.4656 H   0  0  0  0  0  0  0  0  0  0  0  0
   -4.7680   -0.9748    1.2335 H   0  0  0  0  0  0  0  0  0  0  0  0
   -6.8954    0.0412    1.8319 H   0  0  0  0  0  0  0  0  0  0  0  0
   -8.2539    1.3475    3.2978 H   0  0  0  0  0  0  0  0  0  0  0  0
   -8.0910    0.8832    5.0084 H   0  0  0  0  0  0  0  0  0  0  0  0
   -6.3284    2.8162    2.6104 H   0  0  0  0  0  0  0  0  0  0  0  0
   -7.7554    3.8667    2.9796 H   0  0  0  0  0  0  0  0  0  0  0  0
   -5.9942    5.3572    1.9200 H   0  0  0  0  0  0  0  0  0  0  0  0
   -4.7186    5.9182    3.0550 H   0  0  0  0  0  0  0  0  0  0  0  0
   -4.5551    4.2970    2.3148 H   0  0  0  0  0  0  0  0  0  0  0  0
   -5.4550    0.7530    5.8268 H   0  0  0  0  0  0  0  0  0  0  0  0
   -3.3065   -0.2556    5.2326 H   0  0  0  0  0  0  0  0  0  0  0  0
    0.2252   -1.8544    2.8941 H   0  0  0  0  0  0  0  0  0  0  0  0
    1.0199   -4.1099    3.3688 H   0  0  0  0  0  0  0  0  0  0  0  0
    0.6045   -6.3895    3.9953 H   0  0  0  0  0  0  0  0  0  0  0  0
   -0.9834   -6.7830    4.7217 H   0  0  0  0  0  0  0  0  0  0  0  0
   -2.2776   -8.2258    3.4205 H   0  0  0  0  0  0  0  0  0  0  0  0
   -0.5806   -8.9125    3.5416 H   0  0  0  0  0  0  0  0  0  0  0  0
   -3.0088  -10.2277    2.4491 H   0  0  0  0  0  0  0  0  0  0  0  0
   -1.3223  -10.9297    2.5153 H   0  0  0  0  0  0  0  0  0  0  0  0
   -2.2052  -10.8085    0.9605 H   0  0  0  0  0  0  0  0  0  0  0  0
   -3.0414   -5.4677    3.7973 H   0  0  0  0  0  0  0  0  0  0  0  0
   -3.8511   -3.2041    3.3954 H   0  0  0  0  0  0  0  0  0  0  0  0
   -0.8964   -5.3871   -5.3452 H   0  0  0  0  0  0  0  0  0  0  0  0
    0.7273   -4.8712   -7.7057 H   0  0  0  0  0  0  0  0  0  0  0  0
    2.0070   -2.4917  -12.3873 H   0  0  0  0  0  0  0  0  0  0  0  0
   -1.2108    0.6037  -10.1816 H   0  0  0  0  0  0  0  0  0  0  0  0
  1  2  2  3
  2  3  1  0
  3  4  2  0
  3  5  1  0
  5  6  2  0
  6  7  1  0
  7  8  2  0
  8  9  1  0
  9 10  2  0
 10 11  1  0
 11 12  2  3
 12 13  1  0
 13 14  3  0
 12 15  1  0
 15 16  3  0
  8 17  1  0
 17 18  1  0
 18 19  1  0
 19 20  2  0
 20 21  1  0
 21 22  1  0
 21 23  1  0
  1 24  1  0
 24 25  2  0
 25 26  1  0
 26 27  1  0
 27 28  1  0
 28 29  1  0
 29 30  2  0
 30 31  1  0
 31 32  1  0
 32 33  1  0
 33 34  2  0
 34 35  1  0
 35 36  2  0
 36 37  1  0
 37 38  1  0
 38 39  1  0
 39 40  1  0
 40 41  1  0
 36 42  1  0
 42 43  2  0
 32 44  1  0
 44 45  2  0
 45 46  1  0
 46 47  2  0
 47 48  1  0
 48 49  1  0
 49 50  1  0
 50 51  1  0
 51 52  1  0
 47 53  1  0
 53 54  2  0
 32 55  1  0
 55 56  2  0
 56 57  1  0
 57 58  1  0
 58 59  2  0
 59 60  1  0
 60 61  1  0
 61 62  2  0
 62 63  1  0
 63 64  2  0
 64 65  1  0
 65 66  1  0
 66 67  1  0
 67 68  1  0
 68 69  1  0
 64 70  1  0
 70 71  2  0
 60 72  1  0
 72 73  2  0
 73 74  1  0
 74 75  2  0
 75 76  1  0
 76 77  1  0
 77 78  1  0
 78 79  1  0
 79 80  1  0
 75 81  1  0
 81 82  2  0
 60 83  1  0
 83 84  1  0
 84 85  1  0
 56 86  1  0
 86 87  1  0
 87 88  1  0
 88 89  2  0
 89 90  1  0
 90 91  1  0
 89 92  1  0
 92 93  2  3
 93 94  1  0
 94 95  2  0
 94 96  1  0
 96 97  2  0
 97 98  1  0
 98 99  1  0
 98100  2  0
100101  1  0
100102  1  0
102103  2  0
103104  1  0
104105  2  3
105106  1  0
106107  3  0
105108  1  0
108109  3  0
 11  2  1  0
 23 17  1  0
 85 24  1  0
 91 87  2  0
104 93  1  0
 10  5  1  0
 22 18  1  0
 84 26  2  0
103 96  1  0
 23  7  1  0
 83 28  2  0
 59 29  1  0
 71 61  1  0
 82 72  1  0
 57 31  2  0
 43 33  1  0
 54 44  1  0
 91 55  1  0
  1110  1  0
  6111  1  0
  9112  1  0
 17113  1  0
 18114  1  0
 19115  1  0
 20116  1  0
 21117  1  0
 22118  1  0
 22119  1  0
 23120  1  0
 25121  1  0
 30122  1  0
 34123  1  0
 35124  1  0
 37125  1  0
 37126  1  0
 39127  1  0
 39128  1  0
 41129  1  0
 41130  1  0
 41131  1  0
 42132  1  0
 43133  1  0
 45134  1  0
 46135  1  0
 48136  1  0
 48137  1  0
 50138  1  0
 50139  1  0
 52140  1  0
 52141  1  0
 52142  1  0
 53143  1  0
 54144  1  0
 58145  1  0
 62146  1  0
 63147  1  0
 65148  1  0
 65149  1  0
 67150  1  0
 67151  1  0
 69152  1  0
 69153  1  0
 69154  1  0
 70155  1  0
 71156  1  0
 73157  1  0
 74158  1  0
 76159  1  0
 76160  1  0
 78161  1  0
 78162  1  0
 80163  1  0
 80164  1  0
 80165  1  0
 81166  1  0
 82167  1  0
 88168  1  0
 92169  1  0
 97170  1  0
102171  1  0
M  END

