
     RDKit          3D

115128  0  0  0  0  0  0  0  0999 V2000
   -4.7369    3.9566   -3.4488 C   0  0  0  0  0  0  0  0  0  0  0  0
   -5.6305    3.2926   -2.6882 C   0  0  0  0  0  0  0  0  0  0  0  0
   -6.4404    2.2085   -3.2561 C   0  0  0  0  0  0  0  0  0  0  0  0
   -6.8151    2.1166   -4.4545 O   0  0  0  0  0  0  0  0  0  0  0  0
   -6.6048    1.1777   -2.2463 C   0  0  0  0  0  0  0  0  0  0  0  0
   -7.0046   -0.1647   -2.4535 C   0  0  0  0  0  0  0  0  0  0  0  0
   -6.7889   -0.9870   -1.3605 C   0  0  0  0  0  0  0  0  0  0  0  0
   -6.2130   -0.5266   -0.1318 C   0  0  0  0  0  0  0  0  0  0  0  0
   -5.8214    0.7857    0.0786 C   0  0  0  0  0  0  0  0  0  0  0  0
   -6.0469    1.6462   -1.0290 C   0  0  0  0  0  0  0  0  0  0  0  0
   -5.5783    3.0352   -1.2236 C   0  0  0  0  0  0  0  0  0  0  0  0
   -5.4635    3.9865   -0.2689 C   0  0  0  0  0  0  0  0  0  0  0  0
   -5.2528    5.3703   -0.6182 C   0  0  0  0  0  0  0  0  0  0  0  0
   -5.0828    6.4805   -0.8987 N   0  0  0  0  0  0  0  0  0  0  0  0
   -5.6511    3.6983    1.1292 C   0  0  0  0  0  0  0  0  0  0  0  0
   -5.8058    3.4732    2.2550 N   0  0  0  0  0  0  0  0  0  0  0  0
   -6.2414   -1.9183    0.4259 C   0  0  0  0  0  0  0  0  0  0  0  0
   -4.8915   -2.6954    0.5171 C   0  0  0  0  0  0  0  0  0  0  0  0
   -3.9584   -2.2437   -0.5835 C   0  0  0  0  0  0  0  0  0  0  0  0
   -4.4888   -2.6688   -1.7294 C   0  0  0  0  0  0  0  0  0  0  0  0
   -5.7628   -3.3994   -1.3707 C   0  0  0  0  0  0  0  0  0  0  0  0
   -5.3169   -4.0305   -0.0655 C   0  0  0  0  0  0  0  0  0  0  0  0
   -6.8264   -2.3917   -0.8342 C   0  0  0  0  0  0  0  0  0  0  0  0
   -3.3240    4.2115   -3.0597 C   0  0  0  0  0  0  0  0  0  0  0  0
   -2.3035    4.6241   -3.9567 C   0  0  0  0  0  0  0  0  0  0  0  0
   -2.5268    5.0991   -5.3683 C   0  0  0  0  0  0  0  0  0  0  0  0
   -3.1251    6.5018   -5.3794 C   0  0  0  0  0  0  0  0  0  0  0  0
   -1.0318    4.4491   -3.3965 C   0  0  0  0  0  0  0  0  0  0  0  0
    0.5591    4.4361   -4.0418 S   0  0  0  0  0  0  0  0  0  0  0  0
    1.1677    3.7517   -2.6065 C   0  0  0  0  0  0  0  0  0  0  0  0
    2.3197    3.2292   -2.0739 C   0  0  0  0  0  0  0  0  0  0  0  0
    3.6329    3.1749   -2.5565 C   0  0  0  0  0  0  0  0  0  0  0  0
    4.6164    2.5376   -1.7593 C   0  0  0  0  0  0  0  0  0  0  0  0
    5.8925    2.4564   -2.2188 N   0  0  0  0  0  0  0  0  0  0  0  0
    6.2373    2.9923   -3.4203 C   0  0  0  0  0  0  0  0  0  0  0  0
    5.2652    3.6284   -4.2028 C   0  0  0  0  0  0  0  0  0  0  0  0
    3.9831    3.7033   -3.7581 N   0  0  0  0  0  0  0  0  0  0  0  0
    4.2221    1.9513   -0.5427 C   0  0  0  0  0  0  0  0  0  0  0  0
    4.8729    1.0460    0.2529 C   0  0  0  0  0  0  0  0  0  0  0  0
    6.3149    0.1478    0.1837 S   0  0  0  0  0  0  0  0  0  0  0  0
    5.6952   -0.9929    1.2888 C   0  0  0  0  0  0  0  0  0  0  0  0
    6.1864   -2.1941    1.8005 C   0  0  0  0  0  0  0  0  0  0  0  0
    7.5956   -2.6745    1.5977 C   0  0  0  0  0  0  0  0  0  0  0  0
    8.5306   -2.0464    2.6261 C   0  0  0  0  0  0  0  0  0  0  0  0
    5.2091   -2.8536    2.5718 C   0  0  0  0  0  0  0  0  0  0  0  0
    3.7830   -1.9140    2.6057 S   0  0  0  0  0  0  0  0  0  0  0  0
    4.4059   -0.6952    1.6443 C   0  0  0  0  0  0  0  0  0  0  0  0
    3.9409    0.4776    1.0628 C   0  0  0  0  0  0  0  0  0  0  0  0
    2.6978    0.9768    0.8629 N   0  0  0  0  0  0  0  0  0  0  0  0
    2.8903    1.9462   -0.0950 C   0  0  0  0  0  0  0  0  0  0  0  0
    1.9416    2.6876   -0.8332 C   0  0  0  0  0  0  0  0  0  0  0  0
    0.6310    2.9597   -0.5560 N   0  0  0  0  0  0  0  0  0  0  0  0
    0.1984    3.5538   -1.6874 C   0  0  0  0  0  0  0  0  0  0  0  0
   -1.0417    3.9512   -2.1238 C   0  0  0  0  0  0  0  0  0  0  0  0
   -2.5901    3.6387   -1.6237 S   0  0  0  0  0  0  0  0  0  0  0  0
    0.0174    3.1777    0.7632 C   0  0  0  0  0  0  0  0  0  0  0  0
   -0.0772    4.6727    1.0888 C   0  0  0  0  0  0  0  0  0  0  0  0
    1.4555    0.2648    1.2071 C   0  0  0  0  0  0  0  0  0  0  0  0
    1.1235    0.4007    2.6984 C   0  0  0  0  0  0  0  0  0  0  0  0
    5.4506   -4.0551    3.3996 C   0  0  0  0  0  0  0  0  0  0  0  0
    4.5556   -5.0401    3.6483 C   0  0  0  0  0  0  0  0  0  0  0  0
    3.2486   -5.1297    2.9544 C   0  0  0  0  0  0  0  0  0  0  0  0
    3.1195   -4.7137    1.7693 O   0  0  0  0  0  0  0  0  0  0  0  0
    2.1471   -5.7707    3.6186 N   0  0  0  0  0  0  0  0  0  0  0  0
    0.8055   -5.7755    3.0167 C   0  0  0  0  0  0  0  0  0  0  0  0
    0.6115   -7.0257    2.1649 C   0  0  0  0  0  0  0  0  0  0  0  0
    2.4102   -6.5157    4.8224 C   0  0  0  0  0  0  0  0  0  0  0  0
    1.4545   -7.0223    5.4726 O   0  0  0  0  0  0  0  0  0  0  0  0
    3.8040   -6.7279    5.2800 C   0  0  0  0  0  0  0  0  0  0  0  0
    4.8376   -6.0853    4.6824 C   0  0  0  0  0  0  0  0  0  0  0  0
    6.2696   -6.3695    5.0916 C   0  0  0  0  0  0  0  0  0  0  0  0
    4.0202   -7.6525    6.3720 C   0  0  0  0  0  0  0  0  0  0  0  0
    4.1903   -8.3937    7.2443 N   0  0  0  0  0  0  0  0  0  0  0  0
   -4.9526    4.0170   -4.5056 H   0  0  0  0  0  0  0  0  0  0  0  0
   -7.3588   -0.5385   -3.4068 H   0  0  0  0  0  0  0  0  0  0  0  0
   -5.3040    1.0818    0.9792 H   0  0  0  0  0  0  0  0  0  0  0  0
   -6.9145   -2.0381    1.3050 H   0  0  0  0  0  0  0  0  0  0  0  0
   -4.4402   -2.7387    1.5316 H   0  0  0  0  0  0  0  0  0  0  0  0
   -3.0032   -1.7422   -0.4713 H   0  0  0  0  0  0  0  0  0  0  0  0
   -4.0384   -2.5732   -2.7109 H   0  0  0  0  0  0  0  0  0  0  0  0
   -6.1302   -4.1094   -2.1415 H   0  0  0  0  0  0  0  0  0  0  0  0
   -4.4745   -4.7525   -0.1873 H   0  0  0  0  0  0  0  0  0  0  0  0
   -6.1450   -4.5187    0.4978 H   0  0  0  0  0  0  0  0  0  0  0  0
   -7.8532   -2.8085   -0.7245 H   0  0  0  0  0  0  0  0  0  0  0  0
   -3.1949    4.3952   -5.9086 H   0  0  0  0  0  0  0  0  0  0  0  0
   -1.5670    5.1200   -5.9259 H   0  0  0  0  0  0  0  0  0  0  0  0
   -4.0967    6.5108   -4.8405 H   0  0  0  0  0  0  0  0  0  0  0  0
   -2.4267    7.2168   -4.8894 H   0  0  0  0  0  0  0  0  0  0  0  0
   -3.2979    6.8230   -6.4261 H   0  0  0  0  0  0  0  0  0  0  0  0
    7.2581    2.9224   -3.7722 H   0  0  0  0  0  0  0  0  0  0  0  0
    5.5265    4.0519   -5.1630 H   0  0  0  0  0  0  0  0  0  0  0  0
    7.9384   -2.4043    0.5767 H   0  0  0  0  0  0  0  0  0  0  0  0
    7.6403   -3.7815    1.6829 H   0  0  0  0  0  0  0  0  0  0  0  0
    8.2035   -2.3027    3.6567 H   0  0  0  0  0  0  0  0  0  0  0  0
    9.5618   -2.4296    2.4738 H   0  0  0  0  0  0  0  0  0  0  0  0
    8.5433   -0.9411    2.5124 H   0  0  0  0  0  0  0  0  0  0  0  0
    0.6389    2.7380    1.5537 H   0  0  0  0  0  0  0  0  0  0  0  0
   -0.9982    2.7251    0.7910 H   0  0  0  0  0  0  0  0  0  0  0  0
   -0.7697    5.1851    0.3919 H   0  0  0  0  0  0  0  0  0  0  0  0
    0.9290    5.1426    1.0186 H   0  0  0  0  0  0  0  0  0  0  0  0
   -0.4645    4.8046    2.1208 H   0  0  0  0  0  0  0  0  0  0  0  0
    0.6098    0.6256    0.5909 H   0  0  0  0  0  0  0  0  0  0  0  0
    1.5611   -0.8103    0.9489 H   0  0  0  0  0  0  0  0  0  0  0  0
    1.5654   -0.4305    3.2788 H   0  0  0  0  0  0  0  0  0  0  0  0
    0.0232    0.3585    2.8362 H   0  0  0  0  0  0  0  0  0  0  0  0
    1.5023    1.3574    3.1174 H   0  0  0  0  0  0  0  0  0  0  0  0
    6.4130   -4.0724    3.8899 H   0  0  0  0  0  0  0  0  0  0  0  0
    0.0284   -5.7406    3.8083 H   0  0  0  0  0  0  0  0  0  0  0  0
    0.6565   -4.8713    2.3875 H   0  0  0  0  0  0  0  0  0  0  0  0
    1.3753   -7.0637    1.3597 H   0  0  0  0  0  0  0  0  0  0  0  0
   -0.3985   -7.0100    1.7036 H   0  0  0  0  0  0  0  0  0  0  0  0
    0.7015   -7.9360    2.7956 H   0  0  0  0  0  0  0  0  0  0  0  0
    6.5808   -5.6545    5.8819 H   0  0  0  0  0  0  0  0  0  0  0  0
    6.9473   -6.2677    4.2191 H   0  0  0  0  0  0  0  0  0  0  0  0
    6.4040   -7.4078    5.4619 H   0  0  0  0  0  0  0  0  0  0  0  0
  1  2  2  3
  2  3  1  0
  3  4  2  0
  3  5  1  0
  5  6  2  0
  6  7  1  0
  7  8  2  0
  8  9  1  0
  9 10  2  0
 10 11  1  0
 11 12  2  3
 12 13  1  0
 13 14  3  0
 12 15  1  0
 15 16  3  0
  8 17  1  0
 17 18  1  0
 18 19  1  0
 19 20  2  0
 20 21  1  0
 21 22  1  0
 21 23  1  0
  1 24  1  0
 24 25  2  0
 25 26  1  0
 26 27  1  0
 25 28  1  0
 28 29  1  0
 29 30  1  0
 30 31  1  0
 31 32  2  0
 32 33  1  0
 33 34  1  0
 34 35  2  0
 35 36  1  0
 36 37  2  0
 33 38  2  0
 38 39  1  0
 39 40  1  0
 40 41  1  0
 41 42  1  0
 42 43  1  0
 43 44  1  0
 42 45  2  0
 45 46  1  0
 46 47  1  0
 47 48  1  0
 48 49  1  0
 49 50  1  0
 50 51  2  0
 51 52  1  0
 52 53  1  0
 53 54  1  0
 54 55  1  0
 52 56  1  0
 56 57  1  0
 49 58  1  0
 58 59  1  0
 45 60  1  0
 60 61  2  3
 61 62  1  0
 62 63  2  0
 62 64  1  0
 64 65  1  0
 65 66  1  0
 64 67  1  0
 67 68  2  0
 67 69  1  0
 69 70  2  0
 70 71  1  0
 69 72  1  0
 72 73  3  0
 11  2  1  0
 23 17  1  0
 55 24  1  0
 70 61  1  0
 10  5  1  0
 22 18  1  0
 54 28  2  0
 23  7  1  0
 53 30  2  0
 51 31  1  0
 37 32  1  0
 50 38  1  0
 48 39  2  0
 47 41  2  0
  1 74  1  0
  6 75  1  0
  9 76  1  0
 17 77  1  0
 18 78  1  0
 19 79  1  0
 20 80  1  0
 21 81  1  0
 22 82  1  0
 22 83  1  0
 23 84  1  0
 26 85  1  0
 26 86  1  0
 27 87  1  0
 27 88  1  0
 27 89  1  0
 35 90  1  0
 36 91  1  0
 43 92  1  0
 43 93  1  0
 44 94  1  0
 44 95  1  0
 44 96  1  0
 56 97  1  0
 56 98  1  0
 57 99  1  0
 57100  1  0
 57101  1  0
 58102  1  0
 58103  1  0
 59104  1  0
 59105  1  0
 59106  1  0
 60107  1  0
 65108  1  0
 65109  1  0
 66110  1  0
 66111  1  0
 66112  1  0
 71113  1  0
 71114  1  0
 71115  1  0
M  END

