
     RDKit          3D

174194  0  0  0  0  0  0  0  0999 V2000
   -0.6062   -3.5377   -6.3551 C   0  0  0  0  0  0  0  0  0  0  0  0
   -0.4402   -2.7048   -7.4018 C   0  0  0  0  0  0  0  0  0  0  0  0
    0.8385   -2.1973   -7.8889 C   0  0  0  0  0  0  0  0  0  0  0  0
    1.9371   -2.8219   -7.8637 O   0  0  0  0  0  0  0  0  0  0  0  0
    0.6603   -0.8413   -8.3463 C   0  0  0  0  0  0  0  0  0  0  0  0
    1.6761    0.0987   -8.6438 C   0  0  0  0  0  0  0  0  0  0  0  0
    1.2051    1.3810   -8.8384 C   0  0  0  0  0  0  0  0  0  0  0  0
   -0.1810    1.7334   -8.7451 C   0  0  0  0  0  0  0  0  0  0  0  0
   -1.1846    0.8179   -8.4603 C   0  0  0  0  0  0  0  0  0  0  0  0
   -0.7173   -0.5181   -8.2727 C   0  0  0  0  0  0  0  0  0  0  0  0
   -1.4712   -1.7307   -7.8609 C   0  0  0  0  0  0  0  0  0  0  0  0
   -2.7899   -1.9725   -8.0481 C   0  0  0  0  0  0  0  0  0  0  0  0
   -3.6898   -0.9815   -8.5846 C   0  0  0  0  0  0  0  0  0  0  0  0
   -4.4245   -0.1944   -9.0105 N   0  0  0  0  0  0  0  0  0  0  0  0
   -3.3569   -3.2818   -7.8478 C   0  0  0  0  0  0  0  0  0  0  0  0
   -3.8122   -4.3336   -7.7000 N   0  0  0  0  0  0  0  0  0  0  0  0
    0.1488    3.1710   -9.0212 C   0  0  0  0  0  0  0  0  0  0  0  0
   -0.1865    3.7345  -10.4322 C   0  0  0  0  0  0  0  0  0  0  0  0
   -0.1200    2.6219  -11.4594 C   0  0  0  0  0  0  0  0  0  0  0  0
    1.1633    2.2785  -11.5705 C   0  0  0  0  0  0  0  0  0  0  0  0
    1.9251    3.1660  -10.6102 C   0  0  0  0  0  0  0  0  0  0  0  0
    1.1154    4.4421  -10.7629 C   0  0  0  0  0  0  0  0  0  0  0  0
    1.5700    2.8025   -9.1352 C   0  0  0  0  0  0  0  0  0  0  0  0
    0.4532   -3.8201   -5.3666 C   0  0  0  0  0  0  0  0  0  0  0  0
    1.6089   -2.6665   -4.8788 S   0  0  0  0  0  0  0  0  0  0  0  0
    1.9996   -3.4296   -3.4500 C   0  0  0  0  0  0  0  0  0  0  0  0
    2.4031   -2.8908   -2.1893 C   0  0  0  0  0  0  0  0  0  0  0  0
    1.8279   -3.6735   -1.1875 C   0  0  0  0  0  0  0  0  0  0  0  0
    1.0750   -4.8645   -1.7834 C   0  0  0  0  0  0  0  0  0  0  0  0
   -0.3508   -4.8928   -1.2147 C   0  0  0  0  0  0  0  0  0  0  0  0
   -1.3814   -4.0911   -1.7569 C   0  0  0  0  0  0  0  0  0  0  0  0
   -2.6583   -4.0786   -1.1886 C   0  0  0  0  0  0  0  0  0  0  0  0
   -2.9195   -4.8094   -0.0216 C   0  0  0  0  0  0  0  0  0  0  0  0
   -4.2950   -4.7925    0.5839 C   0  0  0  0  0  0  0  0  0  0  0  0
   -5.1338   -5.9581    0.0640 C   0  0  0  0  0  0  0  0  0  0  0  0
   -1.9023   -5.5879    0.5463 C   0  0  0  0  0  0  0  0  0  0  0  0
   -0.6362   -5.6290   -0.0434 C   0  0  0  0  0  0  0  0  0  0  0  0
    1.8202   -6.2015   -1.6415 C   0  0  0  0  0  0  0  0  0  0  0  0
    3.1351   -6.2821   -1.1312 C   0  0  0  0  0  0  0  0  0  0  0  0
    3.8649   -7.4723   -1.2226 C   0  0  0  0  0  0  0  0  0  0  0  0
    3.3010   -8.6105   -1.8115 C   0  0  0  0  0  0  0  0  0  0  0  0
    4.1366   -9.8383   -2.0466 C   0  0  0  0  0  0  0  0  0  0  0  0
    4.7363   -9.8126   -3.4542 C   0  0  0  0  0  0  0  0  0  0  0  0
    1.9757   -8.5571   -2.2680 C   0  0  0  0  0  0  0  0  0  0  0  0
    1.2375   -7.3744   -2.1706 C   0  0  0  0  0  0  0  0  0  0  0  0
    1.1636   -4.4914   -3.2548 C   0  0  0  0  0  0  0  0  0  0  0  0
    0.3058   -4.7590   -4.3343 C   0  0  0  0  0  0  0  0  0  0  0  0
    1.8577   -3.2454    0.1519 C   0  0  0  0  0  0  0  0  0  0  0  0
    2.5314   -2.0440    0.4137 C   0  0  0  0  0  0  0  0  0  0  0  0
    2.6113   -1.2873    1.5600 C   0  0  0  0  0  0  0  0  0  0  0  0
    1.9093   -1.3952    2.7629 C   0  0  0  0  0  0  0  0  0  0  0  0
    2.0294   -0.3190    3.6616 C   0  0  0  0  0  0  0  0  0  0  0  0
    2.8706    0.7633    3.3721 C   0  0  0  0  0  0  0  0  0  0  0  0
    3.5090    0.9017    2.1371 C   0  0  0  0  0  0  0  0  0  0  0  0
    3.3444   -0.1522    1.2235 C   0  0  0  0  0  0  0  0  0  0  0  0
    3.6751   -0.1500   -0.0913 N   0  0  0  0  0  0  0  0  0  0  0  0
    4.1448    1.0028   -0.8641 C   0  0  0  0  0  0  0  0  0  0  0  0
    2.9690    1.9138   -1.2151 C   0  0  0  0  0  0  0  0  0  0  0  0
    3.1594   -1.3034   -0.5818 C   0  0  0  0  0  0  0  0  0  0  0  0
    3.0888   -1.6979   -1.9243 C   0  0  0  0  0  0  0  0  0  0  0  0
    2.6425    1.7655    4.3755 C   0  0  0  0  0  0  0  0  0  0  0  0
    2.8029    3.4353    4.3674 S   0  0  0  0  0  0  0  0  0  0  0  0
    1.5352    3.6737    5.4720 C   0  0  0  0  0  0  0  0  0  0  0  0
    0.9724    2.4451    5.8201 C   0  0  0  0  0  0  0  0  0  0  0  0
    1.6127    1.3805    5.1816 C   0  0  0  0  0  0  0  0  0  0  0  0
    1.1055   -0.0030    4.8344 C   0  0  0  0  0  0  0  0  0  0  0  0
    1.3068   -0.9246    6.0460 C   0  0  0  0  0  0  0  0  0  0  0  0
    2.2167   -2.0103    6.0269 C   0  0  0  0  0  0  0  0  0  0  0  0
    2.3813   -2.8218    7.1513 C   0  0  0  0  0  0  0  0  0  0  0  0
    1.6531   -2.5696    8.3203 C   0  0  0  0  0  0  0  0  0  0  0  0
    1.8014   -3.4822    9.5079 C   0  0  0  0  0  0  0  0  0  0  0  0
    0.8783   -4.6905    9.3761 C   0  0  0  0  0  0  0  0  0  0  0  0
    0.7530   -1.4980    8.3538 C   0  0  0  0  0  0  0  0  0  0  0  0
    0.5883   -0.6820    7.2362 C   0  0  0  0  0  0  0  0  0  0  0  0
   -0.3400    0.0632    4.3073 C   0  0  0  0  0  0  0  0  0  0  0  0
   -0.6952    1.0541    3.3639 C   0  0  0  0  0  0  0  0  0  0  0  0
   -1.9660    1.0870    2.7930 C   0  0  0  0  0  0  0  0  0  0  0  0
   -2.9174    0.1182    3.1303 C   0  0  0  0  0  0  0  0  0  0  0  0
   -4.2965    0.1715    2.5197 C   0  0  0  0  0  0  0  0  0  0  0  0
   -5.2586    0.9238    3.4357 C   0  0  0  0  0  0  0  0  0  0  0  0
   -2.5818   -0.8815    4.0539 C   0  0  0  0  0  0  0  0  0  0  0  0
   -1.3019   -0.9235    4.6204 C   0  0  0  0  0  0  0  0  0  0  0  0
    1.0181    4.9594    5.9592 C   0  0  0  0  0  0  0  0  0  0  0  0
    0.4238    5.8941    5.1820 C   0  0  0  0  0  0  0  0  0  0  0  0
    0.3762    5.8789    3.7118 C   0  0  0  0  0  0  0  0  0  0  0  0
    0.7807    4.9558    2.9496 O   0  0  0  0  0  0  0  0  0  0  0  0
   -0.2578    7.0863    3.2397 C   0  0  0  0  0  0  0  0  0  0  0  0
   -0.4476    7.4625    1.8886 C   0  0  0  0  0  0  0  0  0  0  0  0
   -1.1801    8.6242    1.7336 C   0  0  0  0  0  0  0  0  0  0  0  0
   -1.7267    9.3541    2.8390 C   0  0  0  0  0  0  0  0  0  0  0  0
   -1.5313    8.9898    4.1618 C   0  0  0  0  0  0  0  0  0  0  0  0
   -0.7225    7.8309    4.3497 C   0  0  0  0  0  0  0  0  0  0  0  0
   -0.2911    7.1508    5.6173 C   0  0  0  0  0  0  0  0  0  0  0  0
   -0.5186    7.5959    6.8872 C   0  0  0  0  0  0  0  0  0  0  0  0
   -1.1192    8.8731    7.1766 C   0  0  0  0  0  0  0  0  0  0  0  0
   -1.5896    9.8965    7.4434 N   0  0  0  0  0  0  0  0  0  0  0  0
   -0.2018    6.8410    8.0697 C   0  0  0  0  0  0  0  0  0  0  0  0
    0.0484    6.2518    9.0349 N   0  0  0  0  0  0  0  0  0  0  0  0
   -2.3905   10.3154    1.8986 C   0  0  0  0  0  0  0  0  0  0  0  0
   -3.9227   10.1792    1.6605 C   0  0  0  0  0  0  0  0  0  0  0  0
   -4.3387    8.7294    1.7912 C   0  0  0  0  0  0  0  0  0  0  0  0
   -3.8041    8.0815    0.7531 C   0  0  0  0  0  0  0  0  0  0  0  0
   -3.0351    9.1083   -0.0458 C   0  0  0  0  0  0  0  0  0  0  0  0
   -3.9581   10.2995    0.1480 C   0  0  0  0  0  0  0  0  0  0  0  0
   -1.7958    9.5903    0.7675 C   0  0  0  0  0  0  0  0  0  0  0  0
   -1.6019   -3.8019   -6.0390 H   0  0  0  0  0  0  0  0  0  0  0  0
    2.7328   -0.1545   -8.6680 H   0  0  0  0  0  0  0  0  0  0  0  0
   -2.2050    1.1323   -8.3200 H   0  0  0  0  0  0  0  0  0  0  0  0
   -0.0632    3.8634   -8.1753 H   0  0  0  0  0  0  0  0  0  0  0  0
   -1.1038    4.3651  -10.4866 H   0  0  0  0  0  0  0  0  0  0  0  0
   -0.9363    2.2243  -12.0540 H   0  0  0  0  0  0  0  0  0  0  0  0
    1.5791    1.5494  -12.2546 H   0  0  0  0  0  0  0  0  0  0  0  0
    3.0189    3.2626  -10.8184 H   0  0  0  0  0  0  0  0  0  0  0  0
    1.3954    5.2311  -10.0274 H   0  0  0  0  0  0  0  0  0  0  0  0
    1.1365    4.8661  -11.7939 H   0  0  0  0  0  0  0  0  0  0  0  0
    2.2189    3.2681   -8.3597 H   0  0  0  0  0  0  0  0  0  0  0  0
   -1.1982   -3.4491   -2.6079 H   0  0  0  0  0  0  0  0  0  0  0  0
   -3.4332   -3.4667   -1.6462 H   0  0  0  0  0  0  0  0  0  0  0  0
   -4.8164   -3.8424    0.3437 H   0  0  0  0  0  0  0  0  0  0  0  0
   -4.2137   -4.8592    1.6957 H   0  0  0  0  0  0  0  0  0  0  0  0
   -6.1147   -5.9740    0.5818 H   0  0  0  0  0  0  0  0  0  0  0  0
   -4.6219   -6.9235    0.2732 H   0  0  0  0  0  0  0  0  0  0  0  0
   -5.3056   -5.8635   -1.0310 H   0  0  0  0  0  0  0  0  0  0  0  0
   -2.0845   -6.1516    1.4571 H   0  0  0  0  0  0  0  0  0  0  0  0
    0.1369   -6.2103    0.4423 H   0  0  0  0  0  0  0  0  0  0  0  0
    3.6410   -5.4167   -0.7297 H   0  0  0  0  0  0  0  0  0  0  0  0
    4.8975   -7.4796   -0.8934 H   0  0  0  0  0  0  0  0  0  0  0  0
    4.9569   -9.9015   -1.2998 H   0  0  0  0  0  0  0  0  0  0  0  0
    3.5073  -10.7466   -1.9326 H   0  0  0  0  0  0  0  0  0  0  0  0
    5.3981  -10.6931   -3.5892 H   0  0  0  0  0  0  0  0  0  0  0  0
    3.9173   -9.8591   -4.2110 H   0  0  0  0  0  0  0  0  0  0  0  0
    5.3261   -8.8827   -3.6190 H   0  0  0  0  0  0  0  0  0  0  0  0
    1.5367   -9.4118   -2.7655 H   0  0  0  0  0  0  0  0  0  0  0  0
    0.2370   -7.3562   -2.5789 H   0  0  0  0  0  0  0  0  0  0  0  0
   -0.4974   -5.4878   -4.2890 H   0  0  0  0  0  0  0  0  0  0  0  0
    1.3311   -3.7830    0.9297 H   0  0  0  0  0  0  0  0  0  0  0  0
    1.2126   -2.2033    2.9451 H   0  0  0  0  0  0  0  0  0  0  0  0
    4.0265    1.8136    1.8754 H   0  0  0  0  0  0  0  0  0  0  0  0
    4.8873    1.5699   -0.2639 H   0  0  0  0  0  0  0  0  0  0  0  0
    4.6508    0.6759   -1.7964 H   0  0  0  0  0  0  0  0  0  0  0  0
    3.3394    2.8888   -1.5985 H   0  0  0  0  0  0  0  0  0  0  0  0
    2.3372    1.4303   -1.9819 H   0  0  0  0  0  0  0  0  0  0  0  0
    2.3484    2.1078   -0.3138 H   0  0  0  0  0  0  0  0  0  0  0  0
    3.4821   -1.0943   -2.7301 H   0  0  0  0  0  0  0  0  0  0  0  0
    0.0761    2.3506    6.4156 H   0  0  0  0  0  0  0  0  0  0  0  0
    2.8135   -2.2403    5.1589 H   0  0  0  0  0  0  0  0  0  0  0  0
    3.0709   -3.6540    7.1029 H   0  0  0  0  0  0  0  0  0  0  0  0
    1.5546   -2.9345   10.4426 H   0  0  0  0  0  0  0  0  0  0  0  0
    2.8528   -3.8338    9.5848 H   0  0  0  0  0  0  0  0  0  0  0  0
    1.0878   -5.2430    8.4378 H   0  0  0  0  0  0  0  0  0  0  0  0
   -0.1843   -4.3582    9.3784 H   0  0  0  0  0  0  0  0  0  0  0  0
    1.0378   -5.3760   10.2337 H   0  0  0  0  0  0  0  0  0  0  0  0
    0.1770   -1.2963    9.2474 H   0  0  0  0  0  0  0  0  0  0  0  0
   -0.1255    0.1304    7.2835 H   0  0  0  0  0  0  0  0  0  0  0  0
    0.0217    1.8044    3.0536 H   0  0  0  0  0  0  0  0  0  0  0  0
   -2.2056    1.8631    2.0773 H   0  0  0  0  0  0  0  0  0  0  0  0
   -4.2626    0.6796    1.5315 H   0  0  0  0  0  0  0  0  0  0  0  0
   -4.6783   -0.8588    2.3496 H   0  0  0  0  0  0  0  0  0  0  0  0
   -4.9322    1.9799    3.5432 H   0  0  0  0  0  0  0  0  0  0  0  0
   -5.2931    0.4417    4.4332 H   0  0  0  0  0  0  0  0  0  0  0  0
   -6.2810    0.9136    3.0029 H   0  0  0  0  0  0  0  0  0  0  0  0
   -3.3077   -1.6375    4.3222 H   0  0  0  0  0  0  0  0  0  0  0  0
   -1.0715   -1.7335    5.2997 H   0  0  0  0  0  0  0  0  0  0  0  0
    1.0544    5.0526    7.0184 H   0  0  0  0  0  0  0  0  0  0  0  0
   -0.0772    6.8909    1.0500 H   0  0  0  0  0  0  0  0  0  0  0  0
   -2.0142    9.5491    4.9459 H   0  0  0  0  0  0  0  0  0  0  0  0
   -2.0268   11.3627    1.9955 H   0  0  0  0  0  0  0  0  0  0  0  0
   -4.5587   10.8997    2.2139 H   0  0  0  0  0  0  0  0  0  0  0  0
   -5.0010    8.2992    2.5346 H   0  0  0  0  0  0  0  0  0  0  0  0
   -3.9631    7.0422    0.5069 H   0  0  0  0  0  0  0  0  0  0  0  0
   -2.8352    8.8313   -1.0991 H   0  0  0  0  0  0  0  0  0  0  0  0
   -4.9786   10.1560   -0.2829 H   0  0  0  0  0  0  0  0  0  0  0  0
   -3.5267   11.2543   -0.2345 H   0  0  0  0  0  0  0  0  0  0  0  0
   -1.0570   10.1895    0.1917 H   0  0  0  0  0  0  0  0  0  0  0  0
  1  2  2  3
  2  3  1  0
  3  4  2  0
  3  5  1  0
  5  6  2  0
  6  7  1  0
  7  8  2  0
  8  9  1  0
  9 10  2  0
 10 11  1  0
 11 12  2  3
 12 13  1  0
 13 14  3  0
 12 15  1  0
 15 16  3  0
  8 17  1  0
 17 18  1  0
 18 19  1  0
 19 20  2  0
 20 21  1  0
 21 22  1  0
 21 23  1  0
  1 24  1  0
 24 25  1  0
 25 26  1  0
 26 27  1  0
 27 28  2  0
 28 29  1  0
 29 30  1  0
 30 31  2  0
 31 32  1  0
 32 33  2  0
 33 34  1  0
 34 35  1  0
 33 36  1  0
 36 37  2  0
 29 38  1  0
 38 39  2  0
 39 40  1  0
 40 41  2  0
 41 42  1  0
 42 43  1  0
 41 44  1  0
 44 45  2  0
 29 46  1  0
 46 47  1  0
 28 48  1  0
 48 49  2  0
 49 50  1  0
 50 51  2  0
 51 52  1  0
 52 53  2  0
 53 54  1  0
 54 55  2  0
 55 56  1  0
 56 57  1  0
 57 58  1  0
 56 59  1  0
 59 60  2  0
 53 61  1  0
 61 62  1  0
 62 63  1  0
 63 64  2  0
 64 65  1  0
 65 66  1  0
 66 67  1  0
 67 68  2  0
 68 69  1  0
 69 70  2  0
 70 71  1  0
 71 72  1  0
 70 73  1  0
 73 74  2  0
 66 75  1  0
 75 76  2  0
 76 77  1  0
 77 78  2  0
 78 79  1  0
 79 80  1  0
 78 81  1  0
 81 82  2  0
 63 83  1  0
 83 84  2  3
 84 85  1  0
 85 86  2  0
 85 87  1  0
 87 88  2  0
 88 89  1  0
 89 90  2  0
 90 91  1  0
 91 92  2  0
 92 93  1  0
 93 94  2  3
 94 95  1  0
 95 96  3  0
 94 97  1  0
 97 98  3  0
 90 99  1  0
 99100  1  0
100101  1  0
101102  2  0
102103  1  0
103104  1  0
103105  1  0
 11  2  1  0
 23 17  1  0
 47 24  2  0
 59 49  1  0
 65 61  2  0
 74 67  1  0
 82 75  1  0
 93 84  1  0
105 99  1  0
 10  5  1  0
 22 18  1  0
 46 26  2  0
 55 50  1  0
 92 87  1  0
104100  1  0
 23  7  1  0
 60 27  1  0
105 89  1  0
 37 30  1  0
 45 38  1  0
 66 52  1  0
  1106  1  0
  6107  1  0
  9108  1  0
 17109  1  0
 18110  1  0
 19111  1  0
 20112  1  0
 21113  1  0
 22114  1  0
 22115  1  0
 23116  1  0
 31117  1  0
 32118  1  0
 34119  1  0
 34120  1  0
 35121  1  0
 35122  1  0
 35123  1  0
 36124  1  0
 37125  1  0
 39126  1  0
 40127  1  0
 42128  1  0
 42129  1  0
 43130  1  0
 43131  1  0
 43132  1  0
 44133  1  0
 45134  1  0
 47135  1  0
 48136  1  0
 51137  1  0
 54138  1  0
 57139  1  0
 57140  1  0
 58141  1  0
 58142  1  0
 58143  1  0
 60144  1  0
 64145  1  0
 68146  1  0
 69147  1  0
 71148  1  0
 71149  1  0
 72150  1  0
 72151  1  0
 72152  1  0
 73153  1  0
 74154  1  0
 76155  1  0
 77156  1  0
 79157  1  0
 79158  1  0
 80159  1  0
 80160  1  0
 80161  1  0
 81162  1  0
 82163  1  0
 83164  1  0
 88165  1  0
 91166  1  0
 99167  1  0
100168  1  0
101169  1  0
102170  1  0
103171  1  0
104172  1  0
104173  1  0
105174  1  0
M  END

