
     RDKit          3D

119134  0  0  0  0  0  0  0  0999 V2000
   -1.0250   -4.9626    6.4099 C   0  0  0  0  0  0  0  0  0  0  0  0
   -0.2859   -5.8970    5.7800 C   0  0  0  0  0  0  0  0  0  0  0  0
    0.7792   -5.6105    4.8141 C   0  0  0  0  0  0  0  0  0  0  0  0
    1.5548   -4.6152    4.8404 O   0  0  0  0  0  0  0  0  0  0  0  0
    0.8019   -6.6602    3.8212 C   0  0  0  0  0  0  0  0  0  0  0  0
    1.4864   -6.6376    2.5841 C   0  0  0  0  0  0  0  0  0  0  0  0
    1.1133   -7.6534    1.7204 C   0  0  0  0  0  0  0  0  0  0  0  0
    0.1364   -8.6480    2.0550 C   0  0  0  0  0  0  0  0  0  0  0  0
   -0.5210   -8.6894    3.2780 C   0  0  0  0  0  0  0  0  0  0  0  0
   -0.1452   -7.6547    4.1848 C   0  0  0  0  0  0  0  0  0  0  0  0
   -0.7338   -7.2943    5.5060 C   0  0  0  0  0  0  0  0  0  0  0  0
   -1.4072   -8.1097    6.3540 C   0  0  0  0  0  0  0  0  0  0  0  0
   -1.7676   -9.4580    6.0025 C   0  0  0  0  0  0  0  0  0  0  0  0
   -2.0666  -10.5431    5.7252 N   0  0  0  0  0  0  0  0  0  0  0  0
   -1.7020   -7.7224    7.7093 C   0  0  0  0  0  0  0  0  0  0  0  0
   -1.9362   -7.4221    8.8038 N   0  0  0  0  0  0  0  0  0  0  0  0
    0.2571   -9.2484    0.6823 C   0  0  0  0  0  0  0  0  0  0  0  0
    1.0353  -10.5903    0.5733 C   0  0  0  0  0  0  0  0  0  0  0  0
    1.3508  -10.7624   -0.8950 C   0  0  0  0  0  0  0  0  0  0  0  0
    2.2707   -9.8365   -1.1996 C   0  0  0  0  0  0  0  0  0  0  0  0
    2.5469   -9.0721    0.0751 C   0  0  0  0  0  0  0  0  0  0  0  0
    2.4258  -10.2210    1.0666 C   0  0  0  0  0  0  0  0  0  0  0  0
    1.2634   -8.2361    0.3484 C   0  0  0  0  0  0  0  0  0  0  0  0
   -1.0526   -3.5548    5.9706 C   0  0  0  0  0  0  0  0  0  0  0  0
   -1.2762   -2.4194    6.7832 C   0  0  0  0  0  0  0  0  0  0  0  0
   -1.2899   -2.4226    8.2863 C   0  0  0  0  0  0  0  0  0  0  0  0
    0.1181   -2.2266    8.8379 C   0  0  0  0  0  0  0  0  0  0  0  0
   -1.4013   -1.2654    5.9997 C   0  0  0  0  0  0  0  0  0  0  0  0
   -1.6010    0.4043    6.3288 S   0  0  0  0  0  0  0  0  0  0  0  0
   -1.5774    0.7657    4.6628 C   0  0  0  0  0  0  0  0  0  0  0  0
   -1.7155    1.8174    3.7920 C   0  0  0  0  0  0  0  0  0  0  0  0
   -1.9702    3.1827    3.9918 C   0  0  0  0  0  0  0  0  0  0  0  0
   -2.0719    4.0223    2.8516 C   0  0  0  0  0  0  0  0  0  0  0  0
   -2.2834    5.3550    3.0240 N   0  0  0  0  0  0  0  0  0  0  0  0
   -2.4275    5.8823    4.2695 C   0  0  0  0  0  0  0  0  0  0  0  0
   -2.3419    5.0510    5.3923 C   0  0  0  0  0  0  0  0  0  0  0  0
   -2.1117    3.7192    5.2323 N   0  0  0  0  0  0  0  0  0  0  0  0
   -1.8749    3.4579    1.5786 C   0  0  0  0  0  0  0  0  0  0  0  0
   -1.6000    4.0598    0.3773 C   0  0  0  0  0  0  0  0  0  0  0  0
   -1.2407    5.6416   -0.1385 S   0  0  0  0  0  0  0  0  0  0  0  0
   -0.3901    5.0533   -1.4914 C   0  0  0  0  0  0  0  0  0  0  0  0
    0.4246    5.6707   -2.4424 C   0  0  0  0  0  0  0  0  0  0  0  0
    0.6996    7.1475   -2.4632 C   0  0  0  0  0  0  0  0  0  0  0  0
    1.9430    7.4803   -1.6381 C   0  0  0  0  0  0  0  0  0  0  0  0
    1.1310    4.7048   -3.1915 C   0  0  0  0  0  0  0  0  0  0  0  0
    0.7988    3.1525   -2.5888 S   0  0  0  0  0  0  0  0  0  0  0  0
   -0.3321    3.6836   -1.4748 C   0  0  0  0  0  0  0  0  0  0  0  0
   -1.0437    3.1145   -0.4271 C   0  0  0  0  0  0  0  0  0  0  0  0
   -0.9760    1.8951    0.1654 N   0  0  0  0  0  0  0  0  0  0  0  0
   -1.5618    2.1027    1.3926 C   0  0  0  0  0  0  0  0  0  0  0  0
   -1.5921    1.2533    2.5150 C   0  0  0  0  0  0  0  0  0  0  0  0
   -1.5094   -0.1091    2.5786 N   0  0  0  0  0  0  0  0  0  0  0  0
   -1.4375   -0.3474    3.9034 C   0  0  0  0  0  0  0  0  0  0  0  0
   -1.3461   -1.4945    4.6532 C   0  0  0  0  0  0  0  0  0  0  0  0
   -1.1063   -3.1056    4.3244 S   0  0  0  0  0  0  0  0  0  0  0  0
   -1.9929   -1.0767    1.5856 C   0  0  0  0  0  0  0  0  0  0  0  0
   -3.4086   -1.5522    1.9138 C   0  0  0  0  0  0  0  0  0  0  0  0
   -0.0070    0.8511   -0.1985 C   0  0  0  0  0  0  0  0  0  0  0  0
   -0.4532    0.0734   -1.4449 C   0  0  0  0  0  0  0  0  0  0  0  0
    2.1886    4.9562   -4.1800 C   0  0  0  0  0  0  0  0  0  0  0  0
    2.0060    5.6184   -5.3321 C   0  0  0  0  0  0  0  0  0  0  0  0
    3.1029    6.2242   -6.0772 C   0  0  0  0  0  0  0  0  0  0  0  0
    4.3264    5.9427   -5.9553 O   0  0  0  0  0  0  0  0  0  0  0  0
    2.5576    7.2838   -6.9019 C   0  0  0  0  0  0  0  0  0  0  0  0
    3.2473    8.2154   -7.6748 C   0  0  0  0  0  0  0  0  0  0  0  0
    2.5156    9.2422   -8.2974 C   0  0  0  0  0  0  0  0  0  0  0  0
    3.1666   10.2102   -9.0744 C   0  0  0  0  0  0  0  0  0  0  0  0
    2.4330   11.2491   -9.6572 C   0  0  0  0  0  0  0  0  0  0  0  0
    1.0517   11.3365   -9.4645 C   0  0  0  0  0  0  0  0  0  0  0  0
    0.3540   12.3574  -10.0212 F   0  0  0  0  0  0  0  0  0  0  0  0
    0.3875   10.3776   -8.6949 C   0  0  0  0  0  0  0  0  0  0  0  0
    1.1042    9.3228   -8.1095 C   0  0  0  0  0  0  0  0  0  0  0  0
    0.4391    8.3569   -7.3287 C   0  0  0  0  0  0  0  0  0  0  0  0
    1.1835    7.3212   -6.7483 C   0  0  0  0  0  0  0  0  0  0  0  0
    0.7471    6.1813   -5.8986 C   0  0  0  0  0  0  0  0  0  0  0  0
   -0.4404    5.5329   -6.0040 C   0  0  0  0  0  0  0  0  0  0  0  0
   -1.5621    6.0900   -6.7204 C   0  0  0  0  0  0  0  0  0  0  0  0
   -2.4713    6.5190   -7.2941 N   0  0  0  0  0  0  0  0  0  0  0  0
   -0.5811    4.1472   -5.6422 C   0  0  0  0  0  0  0  0  0  0  0  0
   -0.6946    3.0279   -5.3822 N   0  0  0  0  0  0  0  0  0  0  0  0
   -1.8287   -5.2568    7.0649 H   0  0  0  0  0  0  0  0  0  0  0  0
    2.1773   -5.8546    2.2972 H   0  0  0  0  0  0  0  0  0  0  0  0
   -1.3004   -9.4086    3.4629 H   0  0  0  0  0  0  0  0  0  0  0  0
   -0.6802   -9.1783    0.0837 H   0  0  0  0  0  0  0  0  0  0  0  0
    0.5596  -11.4639    1.0669 H   0  0  0  0  0  0  0  0  0  0  0  0
    0.9749  -11.5311   -1.5622 H   0  0  0  0  0  0  0  0  0  0  0  0
    2.7662   -9.7223   -2.1604 H   0  0  0  0  0  0  0  0  0  0  0  0
    3.5036   -8.5128    0.0917 H   0  0  0  0  0  0  0  0  0  0  0  0
    3.1815  -11.0256    0.9055 H   0  0  0  0  0  0  0  0  0  0  0  0
    2.4631   -9.9054    2.1368 H   0  0  0  0  0  0  0  0  0  0  0  0
    0.9655   -7.5376   -0.4661 H   0  0  0  0  0  0  0  0  0  0  0  0
   -1.9530   -1.6130    8.6622 H   0  0  0  0  0  0  0  0  0  0  0  0
   -1.6989   -3.3867    8.6558 H   0  0  0  0  0  0  0  0  0  0  0  0
    0.4790   -1.2061    8.5895 H   0  0  0  0  0  0  0  0  0  0  0  0
    0.1013   -2.3447    9.9386 H   0  0  0  0  0  0  0  0  0  0  0  0
    0.8143   -2.9789    8.4056 H   0  0  0  0  0  0  0  0  0  0  0  0
   -2.6047    6.9438    4.3916 H   0  0  0  0  0  0  0  0  0  0  0  0
   -2.4537    5.4613    6.3884 H   0  0  0  0  0  0  0  0  0  0  0  0
   -0.1738    7.6985   -2.0463 H   0  0  0  0  0  0  0  0  0  0  0  0
    0.8433    7.5044   -3.5051 H   0  0  0  0  0  0  0  0  0  0  0  0
    2.8442    7.0287   -2.1057 H   0  0  0  0  0  0  0  0  0  0  0  0
    2.0759    8.5846   -1.5880 H   0  0  0  0  0  0  0  0  0  0  0  0
    1.8353    7.0853   -0.6082 H   0  0  0  0  0  0  0  0  0  0  0  0
   -2.0531   -0.6067    0.5934 H   0  0  0  0  0  0  0  0  0  0  0  0
   -1.3002   -1.9464    1.5374 H   0  0  0  0  0  0  0  0  0  0  0  0
   -3.4004   -2.2154    2.7979 H   0  0  0  0  0  0  0  0  0  0  0  0
   -4.0714   -0.6884    2.1165 H   0  0  0  0  0  0  0  0  0  0  0  0
   -3.8142   -2.1303    1.0578 H   0  0  0  0  0  0  0  0  0  0  0  0
    0.1591    0.1486    0.6406 H   0  0  0  0  0  0  0  0  0  0  0  0
    0.9857    1.3100   -0.3867 H   0  0  0  0  0  0  0  0  0  0  0  0
   -0.1739    0.6119   -2.3693 H   0  0  0  0  0  0  0  0  0  0  0  0
   -1.5498   -0.0808   -1.4662 H   0  0  0  0  0  0  0  0  0  0  0  0
    0.0528   -0.9178   -1.4637 H   0  0  0  0  0  0  0  0  0  0  0  0
    3.1869    4.6357   -3.9161 H   0  0  0  0  0  0  0  0  0  0  0  0
    4.3242    8.1588   -7.7680 H   0  0  0  0  0  0  0  0  0  0  0  0
    4.2376   10.1645   -9.2298 H   0  0  0  0  0  0  0  0  0  0  0  0
    2.9434   11.9963  -10.2528 H   0  0  0  0  0  0  0  0  0  0  0  0
   -0.6853   10.4587   -8.5569 H   0  0  0  0  0  0  0  0  0  0  0  0
   -0.6200    8.4476   -7.1506 H   0  0  0  0  0  0  0  0  0  0  0  0
  1  2  2  3
  2  3  1  0
  3  4  2  0
  3  5  1  0
  5  6  2  0
  6  7  1  0
  7  8  2  0
  8  9  1  0
  9 10  2  0
 10 11  1  0
 11 12  2  3
 12 13  1  0
 13 14  3  0
 12 15  1  0
 15 16  3  0
  8 17  1  0
 17 18  1  0
 18 19  1  0
 19 20  2  0
 20 21  1  0
 21 22  1  0
 21 23  1  0
  1 24  1  0
 24 25  2  0
 25 26  1  0
 26 27  1  0
 25 28  1  0
 28 29  1  0
 29 30  1  0
 30 31  1  0
 31 32  2  0
 32 33  1  0
 33 34  1  0
 34 35  2  0
 35 36  1  0
 36 37  2  0
 33 38  2  0
 38 39  1  0
 39 40  1  0
 40 41  1  0
 41 42  1  0
 42 43  1  0
 43 44  1  0
 42 45  2  0
 45 46  1  0
 46 47  1  0
 47 48  1  0
 48 49  1  0
 49 50  1  0
 50 51  2  0
 51 52  1  0
 52 53  1  0
 53 54  1  0
 54 55  1  0
 52 56  1  0
 56 57  1  0
 49 58  1  0
 58 59  1  0
 45 60  1  0
 60 61  2  3
 61 62  1  0
 62 63  2  0
 62 64  1  0
 64 65  2  0
 65 66  1  0
 66 67  2  0
 67 68  1  0
 68 69  2  0
 69 70  1  0
 69 71  1  0
 71 72  2  0
 72 73  1  0
 73 74  2  0
 74 75  1  0
 75 76  2  3
 76 77  1  0
 77 78  3  0
 76 79  1  0
 79 80  3  0
 11  2  1  0
 23 17  1  0
 55 24  1  0
 75 61  1  0
 10  5  1  0
 22 18  1  0
 54 28  2  0
 74 64  1  0
 23  7  1  0
 53 30  2  0
 72 66  1  0
 51 31  1  0
 37 32  1  0
 50 38  1  0
 48 39  2  0
 47 41  2  0
  1 81  1  0
  6 82  1  0
  9 83  1  0
 17 84  1  0
 18 85  1  0
 19 86  1  0
 20 87  1  0
 21 88  1  0
 22 89  1  0
 22 90  1  0
 23 91  1  0
 26 92  1  0
 26 93  1  0
 27 94  1  0
 27 95  1  0
 27 96  1  0
 35 97  1  0
 36 98  1  0
 43 99  1  0
 43100  1  0
 44101  1  0
 44102  1  0
 44103  1  0
 56104  1  0
 56105  1  0
 57106  1  0
 57107  1  0
 57108  1  0
 58109  1  0
 58110  1  0
 59111  1  0
 59112  1  0
 59113  1  0
 60114  1  0
 65115  1  0
 67116  1  0
 68117  1  0
 71118  1  0
 73119  1  0
M  END

