
     RDKit          3D

113127  0  0  0  0  0  0  0  0999 V2000
    4.2619   -2.9098   -2.5943 C   0  0  0  0  0  0  0  0  0  0  0  0
    4.4554   -3.2334   -3.8856 C   0  0  0  0  0  0  0  0  0  0  0  0
    3.4109   -3.2517   -4.9162 C   0  0  0  0  0  0  0  0  0  0  0  0
    2.2912   -2.6693   -4.8558 O   0  0  0  0  0  0  0  0  0  0  0  0
    3.8763   -4.0468   -6.0304 C   0  0  0  0  0  0  0  0  0  0  0  0
    3.1540   -4.3769   -7.2016 C   0  0  0  0  0  0  0  0  0  0  0  0
    3.8357   -5.2173   -8.0610 C   0  0  0  0  0  0  0  0  0  0  0  0
    5.1426   -5.7292   -7.7761 C   0  0  0  0  0  0  0  0  0  0  0  0
    5.8576   -5.4086   -6.6355 C   0  0  0  0  0  0  0  0  0  0  0  0
    5.1924   -4.5065   -5.7568 C   0  0  0  0  0  0  0  0  0  0  0  0
    5.6540   -3.9183   -4.4662 C   0  0  0  0  0  0  0  0  0  0  0  0
    6.9281   -3.8631   -4.0015 C   0  0  0  0  0  0  0  0  0  0  0  0
    7.3120   -3.0316   -2.8903 C   0  0  0  0  0  0  0  0  0  0  0  0
    7.6311   -2.3683   -1.9952 N   0  0  0  0  0  0  0  0  0  0  0  0
    8.0241   -4.5503   -4.6317 C   0  0  0  0  0  0  0  0  0  0  0  0
    8.9184   -5.0980   -5.1178 N   0  0  0  0  0  0  0  0  0  0  0  0
    5.1333   -6.5033   -9.0572 C   0  0  0  0  0  0  0  0  0  0  0  0
    4.8903   -8.0413   -8.9823 C   0  0  0  0  0  0  0  0  0  0  0  0
    3.9878   -8.3717   -7.8118 C   0  0  0  0  0  0  0  0  0  0  0  0
    2.7827   -7.8859   -8.1127 C   0  0  0  0  0  0  0  0  0  0  0  0
    2.9072   -7.2311   -9.4697 C   0  0  0  0  0  0  0  0  0  0  0  0
    3.8882   -8.1936  -10.1137 C   0  0  0  0  0  0  0  0  0  0  0  0
    3.8049   -5.9612   -9.3652 C   0  0  0  0  0  0  0  0  0  0  0  0
    2.9349   -2.6316   -2.0361 C   0  0  0  0  0  0  0  0  0  0  0  0
    2.0237   -3.6205   -1.6091 C   0  0  0  0  0  0  0  0  0  0  0  0
    2.1997   -5.1048   -1.7894 C   0  0  0  0  0  0  0  0  0  0  0  0
    1.2640   -5.6377   -2.8683 C   0  0  0  0  0  0  0  0  0  0  0  0
    0.9759   -3.0450   -0.8949 C   0  0  0  0  0  0  0  0  0  0  0  0
   -0.2719   -3.7071    0.0600 S   0  0  0  0  0  0  0  0  0  0  0  0
   -0.6665   -2.1643    0.6483 C   0  0  0  0  0  0  0  0  0  0  0  0
   -1.5062   -1.5800    1.5484 C   0  0  0  0  0  0  0  0  0  0  0  0
   -2.5834   -2.1039    2.2717 C   0  0  0  0  0  0  0  0  0  0  0  0
   -3.3134   -1.2316    3.1070 C   0  0  0  0  0  0  0  0  0  0  0  0
   -4.3755   -1.7117    3.8043 N   0  0  0  0  0  0  0  0  0  0  0  0
   -4.7595   -3.0141    3.6822 C   0  0  0  0  0  0  0  0  0  0  0  0
   -4.0452   -3.8737    2.8387 C   0  0  0  0  0  0  0  0  0  0  0  0
   -2.9705   -3.4022    2.1530 N   0  0  0  0  0  0  0  0  0  0  0  0
   -2.9087    0.1089    3.1958 C   0  0  0  0  0  0  0  0  0  0  0  0
   -3.2827    1.0861    4.0696 C   0  0  0  0  0  0  0  0  0  0  0  0
   -4.2141    1.2043    5.4852 S   0  0  0  0  0  0  0  0  0  0  0  0
   -3.5040    2.7113    5.8509 C   0  0  0  0  0  0  0  0  0  0  0  0
   -3.6875    3.6325    6.8843 C   0  0  0  0  0  0  0  0  0  0  0  0
   -4.6048    3.4161    8.0533 C   0  0  0  0  0  0  0  0  0  0  0  0
   -3.8273    2.9361    9.2763 C   0  0  0  0  0  0  0  0  0  0  0  0
   -2.8836    4.7699    6.6849 C   0  0  0  0  0  0  0  0  0  0  0  0
   -1.9093    4.5616    5.2963 S   0  0  0  0  0  0  0  0  0  0  0  0
   -2.5560    3.0609    4.9228 C   0  0  0  0  0  0  0  0  0  0  0  0
   -2.4262    2.1244    3.9055 C   0  0  0  0  0  0  0  0  0  0  0  0
   -1.4733    1.8806    2.9690 N   0  0  0  0  0  0  0  0  0  0  0  0
   -1.8149    0.6361    2.4862 C   0  0  0  0  0  0  0  0  0  0  0  0
   -1.1335   -0.2238    1.5822 C   0  0  0  0  0  0  0  0  0  0  0  0
   -0.1669    0.0409    0.6374 N   0  0  0  0  0  0  0  0  0  0  0  0
    0.1134   -1.1880    0.1381 C   0  0  0  0  0  0  0  0  0  0  0  0
    1.0523   -1.6810   -0.7535 C   0  0  0  0  0  0  0  0  0  0  0  0
    2.4469   -1.0959   -1.4822 S   0  0  0  0  0  0  0  0  0  0  0  0
    0.0345    1.2732   -0.1431 C   0  0  0  0  0  0  0  0  0  0  0  0
   -1.2951    1.8171   -0.6710 C   0  0  0  0  0  0  0  0  0  0  0  0
   -0.1418    2.4954    2.9917 C   0  0  0  0  0  0  0  0  0  0  0  0
   -0.1308    3.8392    2.2641 C   0  0  0  0  0  0  0  0  0  0  0  0
   -2.8879    5.9735    7.5353 C   0  0  0  0  0  0  0  0  0  0  0  0
   -2.9346    7.2391    7.0680 C   0  0  0  0  0  0  0  0  0  0  0  0
   -2.5421    8.3949    7.8734 C   0  0  0  0  0  0  0  0  0  0  0  0
   -2.4004    8.4141    9.1243 O   0  0  0  0  0  0  0  0  0  0  0  0
   -2.2936    9.5073    6.9801 C   0  0  0  0  0  0  0  0  0  0  0  0
   -1.8431   10.7909    7.2962 C   0  0  0  0  0  0  0  0  0  0  0  0
   -1.6496   11.7081    6.2530 C   0  0  0  0  0  0  0  0  0  0  0  0
   -1.8907   11.3261    4.9192 C   0  0  0  0  0  0  0  0  0  0  0  0
   -1.6504   12.4828    3.6182 Cl  0  0  0  0  0  0  0  0  0  0  0  0
   -2.3339   10.0217    4.6242 C   0  0  0  0  0  0  0  0  0  0  0  0
   -2.5589    9.1216    5.6757 C   0  0  0  0  0  0  0  0  0  0  0  0
   -3.1088    7.7343    5.6670 C   0  0  0  0  0  0  0  0  0  0  0  0
   -3.9807    7.2442    4.7494 C   0  0  0  0  0  0  0  0  0  0  0  0
   -4.1422    7.8242    3.4431 C   0  0  0  0  0  0  0  0  0  0  0  0
   -4.2875    8.2751    2.3848 N   0  0  0  0  0  0  0  0  0  0  0  0
   -4.9432    6.2263    5.0892 C   0  0  0  0  0  0  0  0  0  0  0  0
   -5.7302    5.4197    5.3589 N   0  0  0  0  0  0  0  0  0  0  0  0
    5.0407   -3.0529   -1.8663 H   0  0  0  0  0  0  0  0  0  0  0  0
    2.1556   -4.0131   -7.4039 H   0  0  0  0  0  0  0  0  0  0  0  0
    6.8209   -5.8495   -6.4532 H   0  0  0  0  0  0  0  0  0  0  0  0
    5.9204   -6.1845   -9.7773 H   0  0  0  0  0  0  0  0  0  0  0  0
    5.8046   -8.6668   -9.0612 H   0  0  0  0  0  0  0  0  0  0  0  0
    4.2364   -8.9586   -6.9351 H   0  0  0  0  0  0  0  0  0  0  0  0
    1.8799   -8.0108   -7.5249 H   0  0  0  0  0  0  0  0  0  0  0  0
    1.9473   -7.0902  -10.0112 H   0  0  0  0  0  0  0  0  0  0  0  0
    3.4895   -9.2313  -10.2133 H   0  0  0  0  0  0  0  0  0  0  0  0
    4.2721   -7.8443  -11.1004 H   0  0  0  0  0  0  0  0  0  0  0  0
    3.7871   -5.3024  -10.2621 H   0  0  0  0  0  0  0  0  0  0  0  0
    1.9880   -5.6226   -0.8311 H   0  0  0  0  0  0  0  0  0  0  0  0
    3.2473   -5.3463   -2.0731 H   0  0  0  0  0  0  0  0  0  0  0  0
    1.4212   -6.7324   -3.0060 H   0  0  0  0  0  0  0  0  0  0  0  0
    0.2049   -5.4721   -2.5696 H   0  0  0  0  0  0  0  0  0  0  0  0
    1.4584   -5.1247   -3.8354 H   0  0  0  0  0  0  0  0  0  0  0  0
   -5.6206   -3.3787    4.2264 H   0  0  0  0  0  0  0  0  0  0  0  0
   -4.3489   -4.9075    2.7185 H   0  0  0  0  0  0  0  0  0  0  0  0
   -5.3667    2.6554    7.7911 H   0  0  0  0  0  0  0  0  0  0  0  0
   -5.1442    4.3577    8.2888 H   0  0  0  0  0  0  0  0  0  0  0  0
   -3.2222    3.7632    9.6927 H   0  0  0  0  0  0  0  0  0  0  0  0
   -3.1502    2.0989    9.0128 H   0  0  0  0  0  0  0  0  0  0  0  0
   -4.5372    2.5920   10.0558 H   0  0  0  0  0  0  0  0  0  0  0  0
    0.6796    1.0691   -1.0197 H   0  0  0  0  0  0  0  0  0  0  0  0
    0.5844    2.0337    0.4280 H   0  0  0  0  0  0  0  0  0  0  0  0
   -1.1015    2.6785   -1.3466 H   0  0  0  0  0  0  0  0  0  0  0  0
   -1.9230    2.1774    0.1611 H   0  0  0  0  0  0  0  0  0  0  0  0
   -1.8356    1.0235   -1.2274 H   0  0  0  0  0  0  0  0  0  0  0  0
    0.6152    1.8070    2.5724 H   0  0  0  0  0  0  0  0  0  0  0  0
    0.1753    2.6574    4.0447 H   0  0  0  0  0  0  0  0  0  0  0  0
    0.9175    4.1531    2.0653 H   0  0  0  0  0  0  0  0  0  0  0  0
   -0.6108    4.6216    2.8762 H   0  0  0  0  0  0  0  0  0  0  0  0
   -0.6752    3.7836    1.3023 H   0  0  0  0  0  0  0  0  0  0  0  0
   -2.7931    5.8258    8.6034 H   0  0  0  0  0  0  0  0  0  0  0  0
   -1.6524   11.0773    8.3241 H   0  0  0  0  0  0  0  0  0  0  0  0
   -1.3099   12.7141    6.4782 H   0  0  0  0  0  0  0  0  0  0  0  0
   -2.4762    9.7418    3.5921 H   0  0  0  0  0  0  0  0  0  0  0  0
  1  2  2  3
  2  3  1  0
  3  4  2  0
  3  5  1  0
  5  6  2  0
  6  7  1  0
  7  8  2  0
  8  9  1  0
  9 10  2  0
 10 11  1  0
 11 12  2  3
 12 13  1  0
 13 14  3  0
 12 15  1  0
 15 16  3  0
  8 17  1  0
 17 18  1  0
 18 19  1  0
 19 20  2  0
 20 21  1  0
 21 22  1  0
 21 23  1  0
  1 24  1  0
 24 25  2  0
 25 26  1  0
 26 27  1  0
 25 28  1  0
 28 29  1  0
 29 30  1  0
 30 31  1  0
 31 32  2  0
 32 33  1  0
 33 34  1  0
 34 35  2  0
 35 36  1  0
 36 37  2  0
 33 38  2  0
 38 39  1  0
 39 40  1  0
 40 41  1  0
 41 42  1  0
 42 43  1  0
 43 44  1  0
 42 45  2  0
 45 46  1  0
 46 47  1  0
 47 48  1  0
 48 49  1  0
 49 50  1  0
 50 51  2  0
 51 52  1  0
 52 53  1  0
 53 54  1  0
 54 55  1  0
 52 56  1  0
 56 57  1  0
 49 58  1  0
 58 59  1  0
 45 60  1  0
 60 61  2  3
 61 62  1  0
 62 63  2  0
 62 64  1  0
 64 65  2  0
 65 66  1  0
 66 67  2  0
 67 68  1  0
 67 69  1  0
 69 70  2  0
 70 71  1  0
 71 72  2  3
 72 73  1  0
 73 74  3  0
 72 75  1  0
 75 76  3  0
 11  2  1  0
 23 17  1  0
 55 24  1  0
 71 61  1  0
 10  5  1  0
 22 18  1  0
 54 28  2  0
 70 64  1  0
 23  7  1  0
 53 30  2  0
 51 31  1  0
 37 32  1  0
 50 38  1  0
 48 39  2  0
 47 41  2  0
  1 77  1  0
  6 78  1  0
  9 79  1  0
 17 80  1  0
 18 81  1  0
 19 82  1  0
 20 83  1  0
 21 84  1  0
 22 85  1  0
 22 86  1  0
 23 87  1  0
 26 88  1  0
 26 89  1  0
 27 90  1  0
 27 91  1  0
 27 92  1  0
 35 93  1  0
 36 94  1  0
 43 95  1  0
 43 96  1  0
 44 97  1  0
 44 98  1  0
 44 99  1  0
 56100  1  0
 56101  1  0
 57102  1  0
 57103  1  0
 57104  1  0
 58105  1  0
 58106  1  0
 59107  1  0
 59108  1  0
 59109  1  0
 60110  1  0
 65111  1  0
 66112  1  0
 69113  1  0
M  END

