
     RDKit          3D

127143  0  0  0  0  0  0  0  0999 V2000
    2.1063   -4.4209   -5.3517 C   0  0  0  0  0  0  0  0  0  0  0  0
    3.3699   -4.6082   -4.9227 C   0  0  0  0  0  0  0  0  0  0  0  0
    4.2583   -3.5862   -4.3595 C   0  0  0  0  0  0  0  0  0  0  0  0
    4.4168   -2.4172   -4.8015 O   0  0  0  0  0  0  0  0  0  0  0  0
    5.0160   -4.1769   -3.2763 C   0  0  0  0  0  0  0  0  0  0  0  0
    5.7657   -3.4997   -2.2892 C   0  0  0  0  0  0  0  0  0  0  0  0
    6.1430   -4.3019   -1.2274 C   0  0  0  0  0  0  0  0  0  0  0  0
    5.8077   -5.6910   -1.1361 C   0  0  0  0  0  0  0  0  0  0  0  0
    5.1017   -6.3687   -2.1191 C   0  0  0  0  0  0  0  0  0  0  0  0
    4.7260   -5.5629   -3.2295 C   0  0  0  0  0  0  0  0  0  0  0  0
    3.8512   -5.9080   -4.3789 C   0  0  0  0  0  0  0  0  0  0  0  0
    3.6945   -7.1285   -4.9459 C   0  0  0  0  0  0  0  0  0  0  0  0
    4.2998   -8.3145   -4.3951 C   0  0  0  0  0  0  0  0  0  0  0  0
    4.7772   -9.2757   -3.9624 N   0  0  0  0  0  0  0  0  0  0  0  0
    3.0426   -7.2926   -6.2219 C   0  0  0  0  0  0  0  0  0  0  0  0
    2.5236   -7.4330   -7.2491 N   0  0  0  0  0  0  0  0  0  0  0  0
    6.4140   -5.7629    0.2340 C   0  0  0  0  0  0  0  0  0  0  0  0
    5.4165   -5.7930    1.4319 C   0  0  0  0  0  0  0  0  0  0  0  0
    6.2344   -5.4746    2.6604 C   0  0  0  0  0  0  0  0  0  0  0  0
    6.5729   -4.1843    2.5673 C   0  0  0  0  0  0  0  0  0  0  0  0
    5.9709   -3.6729    1.2803 C   0  0  0  0  0  0  0  0  0  0  0  0
    4.6774   -4.4701    1.3034 C   0  0  0  0  0  0  0  0  0  0  0  0
    6.7772   -4.3452    0.1303 C   0  0  0  0  0  0  0  0  0  0  0  0
    1.2650   -3.2239   -5.0739 C   0  0  0  0  0  0  0  0  0  0  0  0
   -0.1037   -3.1072   -5.4258 C   0  0  0  0  0  0  0  0  0  0  0  0
   -0.8649   -4.0737   -6.2368 C   0  0  0  0  0  0  0  0  0  0  0  0
   -1.3954   -3.6872   -7.4744 C   0  0  0  0  0  0  0  0  0  0  0  0
   -2.1204   -4.6022   -8.2428 C   0  0  0  0  0  0  0  0  0  0  0  0
   -2.3373   -5.9016   -7.7718 C   0  0  0  0  0  0  0  0  0  0  0  0
   -1.8363   -6.2902   -6.5214 C   0  0  0  0  0  0  0  0  0  0  0  0
   -2.0709   -7.6820   -5.9973 C   0  0  0  0  0  0  0  0  0  0  0  0
   -0.8372   -8.5566   -6.1988 C   0  0  0  0  0  0  0  0  0  0  0  0
   -1.1036   -5.3693   -5.7552 C   0  0  0  0  0  0  0  0  0  0  0  0
   -0.7100   -2.0284   -4.7757 C   0  0  0  0  0  0  0  0  0  0  0  0
   -2.3446   -1.5637   -4.5497 S   0  0  0  0  0  0  0  0  0  0  0  0
   -1.8882   -0.4457   -3.3527 C   0  0  0  0  0  0  0  0  0  0  0  0
   -2.4287    0.4563   -2.4765 C   0  0  0  0  0  0  0  0  0  0  0  0
   -3.7296    0.9391   -2.2986 C   0  0  0  0  0  0  0  0  0  0  0  0
   -3.9494    1.9730   -1.3339 C   0  0  0  0  0  0  0  0  0  0  0  0
   -5.2201    2.4189   -1.1881 N   0  0  0  0  0  0  0  0  0  0  0  0
   -5.9752    1.4695   -2.3189 S   0  0  0  0  0  0  0  0  0  0  0  0
   -4.8076    0.5075   -2.9980 N   0  0  0  0  0  0  0  0  0  0  0  0
   -2.8627    2.4230   -0.5709 C   0  0  0  0  0  0  0  0  0  0  0  0
   -2.7803    3.2693    0.4995 C   0  0  0  0  0  0  0  0  0  0  0  0
   -3.7952    4.2101    1.4809 S   0  0  0  0  0  0  0  0  0  0  0  0
   -2.5074    4.5121    2.5683 C   0  0  0  0  0  0  0  0  0  0  0  0
   -2.3904    5.2290    3.7627 C   0  0  0  0  0  0  0  0  0  0  0  0
   -3.4916    5.9952    4.3966 C   0  0  0  0  0  0  0  0  0  0  0  0
   -4.3367    6.8014    3.6161 C   0  0  0  0  0  0  0  0  0  0  0  0
   -5.3622    7.5386    4.2134 C   0  0  0  0  0  0  0  0  0  0  0  0
   -5.5458    7.4943    5.5965 C   0  0  0  0  0  0  0  0  0  0  0  0
   -4.7004    6.7083    6.3948 C   0  0  0  0  0  0  0  0  0  0  0  0
   -4.9014    6.6575    7.8859 C   0  0  0  0  0  0  0  0  0  0  0  0
   -5.8705    5.5413    8.2682 C   0  0  0  0  0  0  0  0  0  0  0  0
   -3.6907    5.9444    5.7880 C   0  0  0  0  0  0  0  0  0  0  0  0
   -1.0760    5.1193    4.2731 C   0  0  0  0  0  0  0  0  0  0  0  0
   -0.1244    4.1219    3.2746 S   0  0  0  0  0  0  0  0  0  0  0  0
   -1.3685    3.8525    2.1856 C   0  0  0  0  0  0  0  0  0  0  0  0
   -1.5257    3.1556    1.0010 C   0  0  0  0  0  0  0  0  0  0  0  0
   -0.7707    2.2427    0.3433 N   0  0  0  0  0  0  0  0  0  0  0  0
   -1.5807    1.8688   -0.6979 C   0  0  0  0  0  0  0  0  0  0  0  0
   -1.3398    0.9449   -1.7366 C   0  0  0  0  0  0  0  0  0  0  0  0
   -0.1515    0.4621   -2.2136 N   0  0  0  0  0  0  0  0  0  0  0  0
   -0.5487   -0.4241   -3.1547 C   0  0  0  0  0  0  0  0  0  0  0  0
    0.1241   -1.3147   -3.9611 C   0  0  0  0  0  0  0  0  0  0  0  0
    1.6422   -1.9917   -3.9458 S   0  0  0  0  0  0  0  0  0  0  0  0
    1.1556    1.1391   -2.1978 C   0  0  0  0  0  0  0  0  0  0  0  0
    1.5210    1.6912   -3.5808 C   0  0  0  0  0  0  0  0  0  0  0  0
    0.2962    1.4455    0.9723 C   0  0  0  0  0  0  0  0  0  0  0  0
   -0.2453    0.6185    2.1375 C   0  0  0  0  0  0  0  0  0  0  0  0
   -0.5500    5.7836    5.4753 C   0  0  0  0  0  0  0  0  0  0  0  0
   -0.4800    7.1233    5.6031 C   0  0  0  0  0  0  0  0  0  0  0  0
   -0.8607    8.0993    4.5624 C   0  0  0  0  0  0  0  0  0  0  0  0
   -1.0609    7.8687    3.3407 O   0  0  0  0  0  0  0  0  0  0  0  0
   -0.9215    9.3969    5.1821 C   0  0  0  0  0  0  0  0  0  0  0  0
   -1.3202   10.6418    4.7295 C   0  0  0  0  0  0  0  0  0  0  0  0
   -1.2003   11.6493    6.0792 S   0  0  0  0  0  0  0  0  0  0  0  0
   -0.6578   10.5032    7.2029 C   0  0  0  0  0  0  0  0  0  0  0  0
   -0.5617    9.3064    6.5034 C   0  0  0  0  0  0  0  0  0  0  0  0
   -0.1840    7.9162    6.8470 C   0  0  0  0  0  0  0  0  0  0  0  0
    0.4322    7.5147    7.9876 C   0  0  0  0  0  0  0  0  0  0  0  0
    0.7044    8.4293    9.0650 C   0  0  0  0  0  0  0  0  0  0  0  0
    0.9358    9.1523    9.9396 N   0  0  0  0  0  0  0  0  0  0  0  0
    0.9438    6.1820    8.1753 C   0  0  0  0  0  0  0  0  0  0  0  0
    1.3633    5.1172    8.3445 N   0  0  0  0  0  0  0  0  0  0  0  0
    1.5626   -5.2855   -5.6917 H   0  0  0  0  0  0  0  0  0  0  0  0
    5.9446   -2.4345   -2.3043 H   0  0  0  0  0  0  0  0  0  0  0  0
    4.8022   -7.3976   -1.9871 H   0  0  0  0  0  0  0  0  0  0  0  0
    7.2770   -6.4587    0.3080 H   0  0  0  0  0  0  0  0  0  0  0  0
    4.7772   -6.6961    1.5110 H   0  0  0  0  0  0  0  0  0  0  0  0
    6.4173   -6.1171    3.5163 H   0  0  0  0  0  0  0  0  0  0  0  0
    7.0747   -3.6038    3.3364 H   0  0  0  0  0  0  0  0  0  0  0  0
    5.8639   -2.5700    1.2135 H   0  0  0  0  0  0  0  0  0  0  0  0
    4.0672   -4.3769    0.3779 H   0  0  0  0  0  0  0  0  0  0  0  0
    4.0280   -4.2344    2.1800 H   0  0  0  0  0  0  0  0  0  0  0  0
    7.8721   -4.1399    0.1259 H   0  0  0  0  0  0  0  0  0  0  0  0
   -1.2325   -2.6852   -7.8530 H   0  0  0  0  0  0  0  0  0  0  0  0
   -2.5252   -4.3020   -9.2012 H   0  0  0  0  0  0  0  0  0  0  0  0
   -2.8997   -6.5999   -8.3816 H   0  0  0  0  0  0  0  0  0  0  0  0
   -2.3110   -7.6320   -4.9136 H   0  0  0  0  0  0  0  0  0  0  0  0
   -2.9423   -8.1513   -6.5024 H   0  0  0  0  0  0  0  0  0  0  0  0
   -0.6322   -8.6857   -7.2819 H   0  0  0  0  0  0  0  0  0  0  0  0
   -1.0109   -9.5512   -5.7455 H   0  0  0  0  0  0  0  0  0  0  0  0
    0.0489   -8.0977   -5.7107 H   0  0  0  0  0  0  0  0  0  0  0  0
   -0.7238   -5.6585   -4.7793 H   0  0  0  0  0  0  0  0  0  0  0  0
   -4.1907    6.8767    2.5460 H   0  0  0  0  0  0  0  0  0  0  0  0
   -6.0155    8.1483    3.6015 H   0  0  0  0  0  0  0  0  0  0  0  0
   -6.3430    8.0732    6.0473 H   0  0  0  0  0  0  0  0  0  0  0  0
   -3.9293    6.4875    8.3965 H   0  0  0  0  0  0  0  0  0  0  0  0
   -5.2990    7.6270    8.2528 H   0  0  0  0  0  0  0  0  0  0  0  0
   -6.8636    5.7220    7.8060 H   0  0  0  0  0  0  0  0  0  0  0  0
   -5.4824    4.5581    7.9308 H   0  0  0  0  0  0  0  0  0  0  0  0
   -5.9935    5.5186    9.3712 H   0  0  0  0  0  0  0  0  0  0  0  0
   -3.0665    5.3051    6.4018 H   0  0  0  0  0  0  0  0  0  0  0  0
    1.1318    2.0086   -1.5118 H   0  0  0  0  0  0  0  0  0  0  0  0
    1.9413    0.4298   -1.8519 H   0  0  0  0  0  0  0  0  0  0  0  0
    1.9830    0.8975   -4.2046 H   0  0  0  0  0  0  0  0  0  0  0  0
    0.6165    2.0833   -4.0959 H   0  0  0  0  0  0  0  0  0  0  0  0
    2.2597    2.5155   -3.4765 H   0  0  0  0  0  0  0  0  0  0  0  0
    0.7260    0.7160    0.2653 H   0  0  0  0  0  0  0  0  0  0  0  0
    1.1123    2.1108    1.3153 H   0  0  0  0  0  0  0  0  0  0  0  0
   -1.1012   -0.0036    1.7976 H   0  0  0  0  0  0  0  0  0  0  0  0
   -0.5736    1.2683    2.9693 H   0  0  0  0  0  0  0  0  0  0  0  0
    0.5568   -0.0524    2.5200 H   0  0  0  0  0  0  0  0  0  0  0  0
   -0.2805    5.1289    6.2826 H   0  0  0  0  0  0  0  0  0  0  0  0
   -1.6481   10.9065    3.7333 H   0  0  0  0  0  0  0  0  0  0  0  0
   -0.4595   10.6844    8.2469 H   0  0  0  0  0  0  0  0  0  0  0  0
  1  2  2  3
  2  3  1  0
  3  4  2  0
  3  5  1  0
  5  6  2  0
  6  7  1  0
  7  8  2  0
  8  9  1  0
  9 10  2  0
 10 11  1  0
 11 12  2  3
 12 13  1  0
 13 14  3  0
 12 15  1  0
 15 16  3  0
  8 17  1  0
 17 18  1  0
 18 19  1  0
 19 20  2  0
 20 21  1  0
 21 22  1  0
 21 23  1  0
  1 24  1  0
 24 25  2  0
 25 26  1  0
 26 27  2  0
 27 28  1  0
 28 29  2  0
 29 30  1  0
 30 31  1  0
 31 32  1  0
 30 33  2  0
 25 34  1  0
 34 35  1  0
 35 36  1  0
 36 37  1  0
 37 38  1  0
 38 39  1  0
 39 40  2  0
 40 41  1  0
 41 42  1  0
 39 43  1  0
 43 44  1  0
 44 45  1  0
 45 46  1  0
 46 47  1  0
 47 48  1  0
 48 49  2  0
 49 50  1  0
 50 51  2  0
 51 52  1  0
 52 53  1  0
 53 54  1  0
 52 55  2  0
 47 56  2  0
 56 57  1  0
 57 58  1  0
 58 59  1  0
 59 60  1  0
 60 61  1  0
 61 62  1  0
 62 63  1  0
 63 64  1  0
 64 65  1  0
 65 66  1  0
 63 67  1  0
 67 68  1  0
 60 69  1  0
 69 70  1  0
 56 71  1  0
 71 72  2  3
 72 73  1  0
 73 74  2  0
 73 75  1  0
 75 76  2  0
 76 77  1  0
 77 78  1  0
 78 79  2  0
 79 80  1  0
 80 81  2  3
 81 82  1  0
 82 83  3  0
 81 84  1  0
 84 85  3  0
 11  2  1  0
 23 17  1  0
 66 24  1  0
 80 72  1  0
 10  5  1  0
 22 18  1  0
 33 26  1  0
 65 34  2  0
 79 75  1  0
 23  7  1  0
 64 36  2  0
 62 37  2  0
 42 38  2  0
 61 43  2  0
 59 44  2  0
 58 46  2  0
 55 48  1  0
  1 86  1  0
  6 87  1  0
  9 88  1  0
 17 89  1  0
 18 90  1  0
 19 91  1  0
 20 92  1  0
 21 93  1  0
 22 94  1  0
 22 95  1  0
 23 96  1  0
 27 97  1  0
 28 98  1  0
 29 99  1  0
 31100  1  0
 31101  1  0
 32102  1  0
 32103  1  0
 32104  1  0
 33105  1  0
 49106  1  0
 50107  1  0
 51108  1  0
 53109  1  0
 53110  1  0
 54111  1  0
 54112  1  0
 54113  1  0
 55114  1  0
 67115  1  0
 67116  1  0
 68117  1  0
 68118  1  0
 68119  1  0
 69120  1  0
 69121  1  0
 70122  1  0
 70123  1  0
 70124  1  0
 71125  1  0
 76126  1  0
 78127  1  0
M  END

