
     RDKit          3D

129147  0  0  0  0  0  0  0  0999 V2000
    0.0510    5.2457    8.6966 C   0  0  0  0  0  0  0  0  0  0  0  0
    1.2246    4.6704    9.0156 C   0  0  0  0  0  0  0  0  0  0  0  0
    1.2913    3.7485   10.1560 C   0  0  0  0  0  0  0  0  0  0  0  0
    0.6743    3.8806   11.2461 O   0  0  0  0  0  0  0  0  0  0  0  0
    2.0434    2.5713    9.7548 C   0  0  0  0  0  0  0  0  0  0  0  0
    2.0748    1.3121   10.3999 C   0  0  0  0  0  0  0  0  0  0  0  0
    2.6468    0.3089    9.6367 C   0  0  0  0  0  0  0  0  0  0  0  0
    3.1648    0.5262    8.3174 C   0  0  0  0  0  0  0  0  0  0  0  0
    3.1422    1.7573    7.6845 C   0  0  0  0  0  0  0  0  0  0  0  0
    2.5666    2.7963    8.4584 C   0  0  0  0  0  0  0  0  0  0  0  0
    2.2341    4.1736    8.0451 C   0  0  0  0  0  0  0  0  0  0  0  0
    3.0011    4.9672    7.2642 C   0  0  0  0  0  0  0  0  0  0  0  0
    4.1133    4.4547    6.5056 C   0  0  0  0  0  0  0  0  0  0  0  0
    5.0078    4.0494    5.8926 N   0  0  0  0  0  0  0  0  0  0  0  0
    2.8237    6.3986    7.2601 C   0  0  0  0  0  0  0  0  0  0  0  0
    2.6804    7.5465    7.2555 N   0  0  0  0  0  0  0  0  0  0  0  0
    3.4719   -0.9350    8.1783 C   0  0  0  0  0  0  0  0  0  0  0  0
    2.5328   -1.7880    7.2715 C   0  0  0  0  0  0  0  0  0  0  0  0
    1.1335   -1.2141    7.2863 C   0  0  0  0  0  0  0  0  0  0  0  0
    0.6529   -1.4189    8.5134 C   0  0  0  0  0  0  0  0  0  0  0  0
    1.7399   -2.1240    9.2918 C   0  0  0  0  0  0  0  0  0  0  0  0
    2.3096   -2.9840    8.1779 C   0  0  0  0  0  0  0  0  0  0  0  0
    2.9425   -1.1586    9.5281 C   0  0  0  0  0  0  0  0  0  0  0  0
   -0.5606    5.0762    7.3636 C   0  0  0  0  0  0  0  0  0  0  0  0
    0.1072    5.4969    5.8618 S   0  0  0  0  0  0  0  0  0  0  0  0
   -1.0324    4.6763    4.9461 C   0  0  0  0  0  0  0  0  0  0  0  0
   -1.0296    4.3998    3.5715 C   0  0  0  0  0  0  0  0  0  0  0  0
    0.1408    4.8789    2.4390 S   0  0  0  0  0  0  0  0  0  0  0  0
   -0.5744    3.9351    1.2501 C   0  0  0  0  0  0  0  0  0  0  0  0
   -0.3966    3.7157   -0.0695 C   0  0  0  0  0  0  0  0  0  0  0  0
    0.5394    4.2476   -0.9557 C   0  0  0  0  0  0  0  0  0  0  0  0
    0.4733    3.8642   -2.3187 C   0  0  0  0  0  0  0  0  0  0  0  0
    1.4181    4.3738   -3.1479 N   0  0  0  0  0  0  0  0  0  0  0  0
    2.2640    5.3042   -2.0711 S   0  0  0  0  0  0  0  0  0  0  0  0
    1.5289    5.1043   -0.6007 N   0  0  0  0  0  0  0  0  0  0  0  0
   -0.5083    2.9503   -2.7113 C   0  0  0  0  0  0  0  0  0  0  0  0
   -0.5616    2.1934   -3.8400 C   0  0  0  0  0  0  0  0  0  0  0  0
    0.4866    1.9340   -5.1259 S   0  0  0  0  0  0  0  0  0  0  0  0
   -0.2323    0.4412   -5.4833 C   0  0  0  0  0  0  0  0  0  0  0  0
    0.1793   -0.4805   -6.4571 C   0  0  0  0  0  0  0  0  0  0  0  0
   -0.4353   -1.7263   -6.5709 C   0  0  0  0  0  0  0  0  0  0  0  0
   -1.4662   -2.0360   -5.6839 C   0  0  0  0  0  0  0  0  0  0  0  0
   -2.1830   -3.1660   -5.5842 N   0  0  0  0  0  0  0  0  0  0  0  0
   -2.9985   -2.9519   -4.5553 N   0  0  0  0  0  0  0  0  0  0  0  0
   -3.9984   -3.9115   -4.1056 C   0  0  0  0  0  0  0  0  0  0  0  0
   -5.3554   -3.5763   -4.7093 C   0  0  0  0  0  0  0  0  0  0  0  0
   -2.8428   -1.7506   -4.0055 N   0  0  0  0  0  0  0  0  0  0  0  0
   -1.8665   -1.1558   -4.7048 C   0  0  0  0  0  0  0  0  0  0  0  0
   -1.2669    0.1196   -4.5661 C   0  0  0  0  0  0  0  0  0  0  0  0
   -1.4256    1.1688   -3.6240 C   0  0  0  0  0  0  0  0  0  0  0  0
   -2.0006    1.2668   -2.3863 N   0  0  0  0  0  0  0  0  0  0  0  0
   -1.4419    2.3923   -1.8176 C   0  0  0  0  0  0  0  0  0  0  0  0
   -1.4319    2.8509   -0.4551 C   0  0  0  0  0  0  0  0  0  0  0  0
   -2.3071    2.6389    0.5985 N   0  0  0  0  0  0  0  0  0  0  0  0
   -1.6855    3.2708    1.6468 C   0  0  0  0  0  0  0  0  0  0  0  0
   -1.9811    3.5095    3.0079 C   0  0  0  0  0  0  0  0  0  0  0  0
   -2.8951    2.9088    3.8962 C   0  0  0  0  0  0  0  0  0  0  0  0
   -2.8795    3.1873    5.2441 C   0  0  0  0  0  0  0  0  0  0  0  0
   -1.9492    4.0669    5.7985 C   0  0  0  0  0  0  0  0  0  0  0  0
   -1.7027    4.2983    7.1543 C   0  0  0  0  0  0  0  0  0  0  0  0
   -3.7232    2.3559    5.8754 N   0  0  0  0  0  0  0  0  0  0  0  0
   -4.2267    1.5961    4.9074 N   0  0  0  0  0  0  0  0  0  0  0  0
   -5.2199    0.5554    5.1359 C   0  0  0  0  0  0  0  0  0  0  0  0
   -6.6211    1.1463    5.0702 C   0  0  0  0  0  0  0  0  0  0  0  0
   -3.7389    1.8898    3.7045 N   0  0  0  0  0  0  0  0  0  0  0  0
   -3.7762    2.6235    0.4489 C   0  0  0  0  0  0  0  0  0  0  0  0
   -4.4422    1.3593    1.0099 C   0  0  0  0  0  0  0  0  0  0  0  0
   -2.8061    0.2383   -1.7407 C   0  0  0  0  0  0  0  0  0  0  0  0
   -4.2331    0.2554   -2.3009 C   0  0  0  0  0  0  0  0  0  0  0  0
    0.1295   -2.5529   -7.5451 C   0  0  0  0  0  0  0  0  0  0  0  0
    1.2157   -1.9451   -8.1720 C   0  0  0  0  0  0  0  0  0  0  0  0
    1.4570   -0.3871   -7.5456 S   0  0  0  0  0  0  0  0  0  0  0  0
    2.0629   -2.5845   -9.1821 C   0  0  0  0  0  0  0  0  0  0  0  0
    3.3008   -3.0367   -8.9144 C   0  0  0  0  0  0  0  0  0  0  0  0
    3.8962   -3.1567   -7.5764 C   0  0  0  0  0  0  0  0  0  0  0  0
    3.4861   -2.6099   -6.5182 O   0  0  0  0  0  0  0  0  0  0  0  0
    5.0023   -4.0870   -7.6536 C   0  0  0  0  0  0  0  0  0  0  0  0
    5.7749   -4.5927   -6.6084 C   0  0  0  0  0  0  0  0  0  0  0  0
    6.7427   -5.5725   -6.8971 C   0  0  0  0  0  0  0  0  0  0  0  0
    7.5710   -6.1602   -5.7918 C   0  0  0  0  0  0  0  0  0  0  0  0
    6.8743   -6.0552   -8.2189 C   0  0  0  0  0  0  0  0  0  0  0  0
    7.7604   -7.0434   -8.5025 F   0  0  0  0  0  0  0  0  0  0  0  0
    6.0779   -5.5347   -9.2526 C   0  0  0  0  0  0  0  0  0  0  0  0
    5.1554   -4.5184   -8.9597 C   0  0  0  0  0  0  0  0  0  0  0  0
    4.1857   -3.8054   -9.8390 C   0  0  0  0  0  0  0  0  0  0  0  0
    4.2548   -3.6686  -11.1863 C   0  0  0  0  0  0  0  0  0  0  0  0
    3.4419   -2.7165  -11.9008 C   0  0  0  0  0  0  0  0  0  0  0  0
    2.7973   -1.9488  -12.4768 N   0  0  0  0  0  0  0  0  0  0  0  0
    5.2316   -4.3597  -11.9865 C   0  0  0  0  0  0  0  0  0  0  0  0
    6.0123   -4.9075  -12.6442 N   0  0  0  0  0  0  0  0  0  0  0  0
   -0.6638    5.3737    9.4982 H   0  0  0  0  0  0  0  0  0  0  0  0
    1.6172    1.1245   11.3619 H   0  0  0  0  0  0  0  0  0  0  0  0
    3.4574    1.8735    6.6582 H   0  0  0  0  0  0  0  0  0  0  0  0
    4.5568   -1.1627    8.0752 H   0  0  0  0  0  0  0  0  0  0  0  0
    2.9320   -2.0217    6.2622 H   0  0  0  0  0  0  0  0  0  0  0  0
    0.5876   -0.7846    6.4516 H   0  0  0  0  0  0  0  0  0  0  0  0
   -0.3511   -1.1815    8.8486 H   0  0  0  0  0  0  0  0  0  0  0  0
    1.3910   -2.6758   10.1889 H   0  0  0  0  0  0  0  0  0  0  0  0
    1.5773   -3.7201    7.7675 H   0  0  0  0  0  0  0  0  0  0  0  0
    3.2523   -3.5118    8.4579 H   0  0  0  0  0  0  0  0  0  0  0  0
    3.7053   -1.5220   10.2518 H   0  0  0  0  0  0  0  0  0  0  0  0
   -4.0680   -3.8829   -2.9970 H   0  0  0  0  0  0  0  0  0  0  0  0
   -3.6997   -4.9380   -4.4089 H   0  0  0  0  0  0  0  0  0  0  0  0
   -5.6573   -2.5445   -4.4245 H   0  0  0  0  0  0  0  0  0  0  0  0
   -6.1172   -4.2907   -4.3330 H   0  0  0  0  0  0  0  0  0  0  0  0
   -5.3070   -3.6515   -5.8165 H   0  0  0  0  0  0  0  0  0  0  0  0
   -2.2697    3.8355    7.9537 H   0  0  0  0  0  0  0  0  0  0  0  0
   -5.0545    0.0921    6.1330 H   0  0  0  0  0  0  0  0  0  0  0  0
   -5.1149   -0.2370    4.3627 H   0  0  0  0  0  0  0  0  0  0  0  0
   -6.7513    1.9035    5.8738 H   0  0  0  0  0  0  0  0  0  0  0  0
   -6.7892    1.6235    4.0819 H   0  0  0  0  0  0  0  0  0  0  0  0
   -7.3722    0.3399    5.2122 H   0  0  0  0  0  0  0  0  0  0  0  0
   -4.0496    2.7520   -0.6173 H   0  0  0  0  0  0  0  0  0  0  0  0
   -4.2055    3.5120    0.9640 H   0  0  0  0  0  0  0  0  0  0  0  0
   -3.7012    0.6786    1.4795 H   0  0  0  0  0  0  0  0  0  0  0  0
   -5.2276    1.6349    1.7427 H   0  0  0  0  0  0  0  0  0  0  0  0
   -4.9745    0.8009    0.2196 H   0  0  0  0  0  0  0  0  0  0  0  0
   -2.3317   -0.7505   -1.8811 H   0  0  0  0  0  0  0  0  0  0  0  0
   -2.7965    0.3684   -0.6519 H   0  0  0  0  0  0  0  0  0  0  0  0
   -4.2322    0.2102   -3.4080 H   0  0  0  0  0  0  0  0  0  0  0  0
   -4.8053   -0.6094   -1.9036 H   0  0  0  0  0  0  0  0  0  0  0  0
   -4.7571    1.1909   -2.0358 H   0  0  0  0  0  0  0  0  0  0  0  0
   -0.2037   -3.5616   -7.7549 H   0  0  0  0  0  0  0  0  0  0  0  0
    1.6017   -2.7892  -10.1363 H   0  0  0  0  0  0  0  0  0  0  0  0
    5.6177   -4.2430   -5.5951 H   0  0  0  0  0  0  0  0  0  0  0  0
    8.6234   -6.2817   -6.1231 H   0  0  0  0  0  0  0  0  0  0  0  0
    7.1617   -7.1527   -5.5104 H   0  0  0  0  0  0  0  0  0  0  0  0
    7.5676   -5.5046   -4.8956 H   0  0  0  0  0  0  0  0  0  0  0  0
    6.1680   -5.9593  -10.2390 H   0  0  0  0  0  0  0  0  0  0  0  0
  1  2  2  3
  2  3  1  0
  3  4  2  0
  3  5  1  0
  5  6  2  0
  6  7  1  0
  7  8  2  0
  8  9  1  0
  9 10  2  0
 10 11  1  0
 11 12  2  3
 12 13  1  0
 13 14  3  0
 12 15  1  0
 15 16  3  0
  8 17  1  0
 17 18  1  0
 18 19  1  0
 19 20  2  0
 20 21  1  0
 21 22  1  0
 21 23  1  0
  1 24  1  0
 24 25  1  0
 25 26  1  0
 26 27  1  0
 27 28  1  0
 28 29  1  0
 29 30  1  0
 30 31  1  0
 31 32  1  0
 32 33  2  0
 33 34  1  0
 34 35  1  0
 32 36  1  0
 36 37  1  0
 37 38  1  0
 38 39  1  0
 39 40  1  0
 40 41  2  0
 41 42  1  0
 42 43  2  0
 43 44  1  0
 44 45  1  0
 45 46  1  0
 44 47  1  0
 47 48  2  0
 48 49  1  0
 49 50  1  0
 50 51  1  0
 51 52  1  0
 52 53  1  0
 53 54  1  0
 54 55  1  0
 55 56  1  0
 56 57  1  0
 57 58  1  0
 58 59  1  0
 59 60  1  0
 58 61  2  0
 61 62  1  0
 62 63  1  0
 63 64  1  0
 62 65  1  0
 54 66  1  0
 66 67  1  0
 51 68  1  0
 68 69  1  0
 41 70  1  0
 70 71  2  0
 71 72  1  0
 71 73  1  0
 73 74  2  3
 74 75  1  0
 75 76  2  0
 75 77  1  0
 77 78  2  0
 78 79  1  0
 79 80  1  0
 79 81  2  0
 81 82  1  0
 81 83  1  0
 83 84  2  0
 84 85  1  0
 85 86  2  3
 86 87  1  0
 87 88  3  0
 86 89  1  0
 89 90  3  0
 11  2  1  0
 23 17  1  0
 60 24  2  0
 85 74  1  0
 10  5  1  0
 22 18  1  0
 59 26  2  0
 84 77  1  0
 23  7  1  0
 56 27  2  0
 65 57  2  0
 55 29  2  0
 53 30  2  0
 35 31  2  0
 52 36  2  0
 50 37  2  0
 49 39  2  0
 72 40  1  0
 48 42  1  0
  1 91  1  0
  6 92  1  0
  9 93  1  0
 17 94  1  0
 18 95  1  0
 19 96  1  0
 20 97  1  0
 21 98  1  0
 22 99  1  0
 22100  1  0
 23101  1  0
 45102  1  0
 45103  1  0
 46104  1  0
 46105  1  0
 46106  1  0
 60107  1  0
 63108  1  0
 63109  1  0
 64110  1  0
 64111  1  0
 64112  1  0
 66113  1  0
 66114  1  0
 67115  1  0
 67116  1  0
 67117  1  0
 68118  1  0
 68119  1  0
 69120  1  0
 69121  1  0
 69122  1  0
 70123  1  0
 73124  1  0
 78125  1  0
 80126  1  0
 80127  1  0
 80128  1  0
 83129  1  0
M  END

