
     RDKit          3D

139160  0  0  0  0  0  0  0  0999 V2000
   -4.2603    3.0893    9.3147 C   0  0  0  0  0  0  0  0  0  0  0  0
   -2.9550    2.8236    9.5442 C   0  0  0  0  0  0  0  0  0  0  0  0
   -1.9106    2.8121    8.5056 C   0  0  0  0  0  0  0  0  0  0  0  0
   -2.0839    2.9182    7.2611 O   0  0  0  0  0  0  0  0  0  0  0  0
   -0.6226    2.6712    9.1327 C   0  0  0  0  0  0  0  0  0  0  0  0
    0.6325    2.6586    8.4805 C   0  0  0  0  0  0  0  0  0  0  0  0
    1.7049    2.5017    9.3323 C   0  0  0  0  0  0  0  0  0  0  0  0
    1.5607    2.3542   10.7481 C   0  0  0  0  0  0  0  0  0  0  0  0
    0.3352    2.3781   11.3948 C   0  0  0  0  0  0  0  0  0  0  0  0
   -0.7928    2.5457   10.5361 C   0  0  0  0  0  0  0  0  0  0  0  0
   -2.2565    2.5992   10.8592 C   0  0  0  0  0  0  0  0  0  0  0  0
   -2.8294    2.3706   12.0738 C   0  0  0  0  0  0  0  0  0  0  0  0
   -2.0682    2.1327   13.2716 C   0  0  0  0  0  0  0  0  0  0  0  0
   -1.4792    1.9383   14.2495 N   0  0  0  0  0  0  0  0  0  0  0  0
   -4.2525    2.2895   12.2721 C   0  0  0  0  0  0  0  0  0  0  0  0
   -5.3922    2.2234   12.4546 N   0  0  0  0  0  0  0  0  0  0  0  0
    3.0459    2.2066   10.9015 C   0  0  0  0  0  0  0  0  0  0  0  0
    3.6138    0.7768   11.1629 C   0  0  0  0  0  0  0  0  0  0  0  0
    2.7289   -0.2625   10.5112 C   0  0  0  0  0  0  0  0  0  0  0  0
    2.8723   -0.1105    9.1932 C   0  0  0  0  0  0  0  0  0  0  0  0
    3.8437    1.0299    8.9929 C   0  0  0  0  0  0  0  0  0  0  0  0
    4.7635    0.7688   10.1722 C   0  0  0  0  0  0  0  0  0  0  0  0
    3.1942    2.3725    9.4520 C   0  0  0  0  0  0  0  0  0  0  0  0
   -4.7954    3.2431    7.9572 C   0  0  0  0  0  0  0  0  0  0  0  0
   -5.1906    1.9317    6.9577 S   0  0  0  0  0  0  0  0  0  0  0  0
   -5.1833    2.8268    5.5375 C   0  0  0  0  0  0  0  0  0  0  0  0
   -5.2378    2.3777    4.2082 C   0  0  0  0  0  0  0  0  0  0  0  0
   -5.5892    0.8070    3.6591 S   0  0  0  0  0  0  0  0  0  0  0  0
   -5.2127    1.2365    2.0788 C   0  0  0  0  0  0  0  0  0  0  0  0
   -5.1135    0.6229    0.8747 C   0  0  0  0  0  0  0  0  0  0  0  0
   -5.6103   -0.6071    0.4462 C   0  0  0  0  0  0  0  0  0  0  0  0
   -5.4079   -0.9874   -0.9069 C   0  0  0  0  0  0  0  0  0  0  0  0
   -5.8986   -2.1954   -1.2834 N   0  0  0  0  0  0  0  0  0  0  0  0
   -6.5941   -2.6740    0.1408 S   0  0  0  0  0  0  0  0  0  0  0  0
   -6.3052   -1.4654    1.2336 N   0  0  0  0  0  0  0  0  0  0  0  0
   -4.6353   -0.1592   -1.7310 C   0  0  0  0  0  0  0  0  0  0  0  0
   -3.9265   -0.5235   -2.8389 C   0  0  0  0  0  0  0  0  0  0  0  0
   -3.7411   -1.9543   -3.7009 S   0  0  0  0  0  0  0  0  0  0  0  0
   -2.2313   -1.4733   -4.2982 C   0  0  0  0  0  0  0  0  0  0  0  0
   -1.3487   -2.2474   -5.0702 C   0  0  0  0  0  0  0  0  0  0  0  0
   -0.0410   -1.8320   -5.2892 C   0  0  0  0  0  0  0  0  0  0  0  0
    0.3740   -0.6314   -4.7226 C   0  0  0  0  0  0  0  0  0  0  0  0
    1.6050   -0.0991   -4.7026 N   0  0  0  0  0  0  0  0  0  0  0  0
    1.4838    0.9833   -3.9409 N   0  0  0  0  0  0  0  0  0  0  0  0
    2.5841    1.9012   -3.6699 C   0  0  0  0  0  0  0  0  0  0  0  0
    2.6868    2.9382   -4.7792 C   0  0  0  0  0  0  0  0  0  0  0  0
    0.2486    1.1673   -3.4847 N   0  0  0  0  0  0  0  0  0  0  0  0
   -0.4779    0.1521   -3.9766 C   0  0  0  0  0  0  0  0  0  0  0  0
   -1.8289   -0.2221   -3.7574 C   0  0  0  0  0  0  0  0  0  0  0  0
   -2.8722    0.3205   -2.9561 C   0  0  0  0  0  0  0  0  0  0  0  0
   -2.9597    1.3383   -2.0484 N   0  0  0  0  0  0  0  0  0  0  0  0
   -4.0702    1.0517   -1.2776 C   0  0  0  0  0  0  0  0  0  0  0  0
   -4.4505    1.5262    0.0289 C   0  0  0  0  0  0  0  0  0  0  0  0
   -4.2923    2.7416    0.6791 N   0  0  0  0  0  0  0  0  0  0  0  0
   -4.7848    2.5098    1.9370 C   0  0  0  0  0  0  0  0  0  0  0  0
   -4.8842    3.2446    3.1414 C   0  0  0  0  0  0  0  0  0  0  0  0
   -4.6745    4.6023    3.4672 C   0  0  0  0  0  0  0  0  0  0  0  0
   -4.6675    5.0319    4.7729 C   0  0  0  0  0  0  0  0  0  0  0  0
   -4.8734    4.1529    5.8341 C   0  0  0  0  0  0  0  0  0  0  0  0
   -4.6775    4.4045    7.1940 C   0  0  0  0  0  0  0  0  0  0  0  0
   -4.4695    6.3583    4.8019 N   0  0  0  0  0  0  0  0  0  0  0  0
   -4.3835    6.7077    3.5215 N   0  0  0  0  0  0  0  0  0  0  0  0
   -4.2413    8.0865    3.0756 C   0  0  0  0  0  0  0  0  0  0  0  0
   -5.6047    8.6628    2.7195 C   0  0  0  0  0  0  0  0  0  0  0  0
   -4.5227    5.6807    2.6866 N   0  0  0  0  0  0  0  0  0  0  0  0
   -4.1261    4.0817    0.0999 C   0  0  0  0  0  0  0  0  0  0  0  0
   -2.8209    4.7577    0.5713 C   0  0  0  0  0  0  0  0  0  0  0  0
   -1.9478    2.3604   -1.8359 C   0  0  0  0  0  0  0  0  0  0  0  0
   -1.0070    1.9691   -0.7015 C   0  0  0  0  0  0  0  0  0  0  0  0
    0.7411   -2.7505   -5.9894 C   0  0  0  0  0  0  0  0  0  0  0  0
    0.0175   -3.8870   -6.3605 C   0  0  0  0  0  0  0  0  0  0  0  0
   -1.5583   -3.7726   -5.7454 S   0  0  0  0  0  0  0  0  0  0  0  0
    0.5824   -5.1060   -6.9651 C   0  0  0  0  0  0  0  0  0  0  0  0
    1.5767   -5.1125   -7.8755 C   0  0  0  0  0  0  0  0  0  0  0  0
    1.9335   -3.9898   -8.7582 C   0  0  0  0  0  0  0  0  0  0  0  0
    1.4176   -2.8398   -8.7546 O   0  0  0  0  0  0  0  0  0  0  0  0
    2.8724   -4.4566   -9.7524 C   0  0  0  0  0  0  0  0  0  0  0  0
    3.4958   -3.6796  -10.7560 C   0  0  0  0  0  0  0  0  0  0  0  0
    4.4111   -4.3788  -11.5182 C   0  0  0  0  0  0  0  0  0  0  0  0
    4.7001   -5.7646  -11.3136 C   0  0  0  0  0  0  0  0  0  0  0  0
    4.0855   -6.5347  -10.3398 C   0  0  0  0  0  0  0  0  0  0  0  0
    3.1242   -5.8399   -9.5499 C   0  0  0  0  0  0  0  0  0  0  0  0
    2.3423   -6.3065   -8.3645 C   0  0  0  0  0  0  0  0  0  0  0  0
    2.4265   -7.5214   -7.7603 C   0  0  0  0  0  0  0  0  0  0  0  0
    1.9591   -7.7452   -6.4158 C   0  0  0  0  0  0  0  0  0  0  0  0
    1.5984   -7.9263   -5.3321 N   0  0  0  0  0  0  0  0  0  0  0  0
    3.0374   -8.6649   -8.3828 C   0  0  0  0  0  0  0  0  0  0  0  0
    3.5166   -9.5982   -8.8695 N   0  0  0  0  0  0  0  0  0  0  0  0
    5.7132   -5.7331  -12.4221 C   0  0  0  0  0  0  0  0  0  0  0  0
    5.3355   -6.4005  -13.7790 C   0  0  0  0  0  0  0  0  0  0  0  0
    3.8429   -6.3181  -13.9961 C   0  0  0  0  0  0  0  0  0  0  0  0
    3.5574   -5.0326  -14.1900 C   0  0  0  0  0  0  0  0  0  0  0  0
    4.8653   -4.2792  -14.1000 C   0  0  0  0  0  0  0  0  0  0  0  0
    5.7778   -5.3122  -14.7385 C   0  0  0  0  0  0  0  0  0  0  0  0
    5.4068   -4.3158  -12.6384 C   0  0  0  0  0  0  0  0  0  0  0  0
   -4.9679    3.2218   10.1092 H   0  0  0  0  0  0  0  0  0  0  0  0
    0.7494    2.7491    7.4087 H   0  0  0  0  0  0  0  0  0  0  0  0
    0.2955    2.2758   12.4627 H   0  0  0  0  0  0  0  0  0  0  0  0
    3.5251    3.0177   11.4940 H   0  0  0  0  0  0  0  0  0  0  0  0
    3.8934    0.5627   12.2156 H   0  0  0  0  0  0  0  0  0  0  0  0
    2.1492   -1.0364   11.0008 H   0  0  0  0  0  0  0  0  0  0  0  0
    2.4299   -0.7400    8.4273 H   0  0  0  0  0  0  0  0  0  0  0  0
    4.3376    1.0599    7.9983 H   0  0  0  0  0  0  0  0  0  0  0  0
    5.5093    1.5820   10.3432 H   0  0  0  0  0  0  0  0  0  0  0  0
    5.2919   -0.2135   10.1093 H   0  0  0  0  0  0  0  0  0  0  0  0
    3.7528    3.2892    9.1599 H   0  0  0  0  0  0  0  0  0  0  0  0
    3.5386    1.3308   -3.6059 H   0  0  0  0  0  0  0  0  0  0  0  0
    2.4156    2.4105   -2.6947 H   0  0  0  0  0  0  0  0  0  0  0  0
    1.7515    3.5370   -4.8276 H   0  0  0  0  0  0  0  0  0  0  0  0
    3.5388    3.6200   -4.5760 H   0  0  0  0  0  0  0  0  0  0  0  0
    2.8557    2.4364   -5.7572 H   0  0  0  0  0  0  0  0  0  0  0  0
   -4.3333    5.3525    7.5885 H   0  0  0  0  0  0  0  0  0  0  0  0
   -3.5722    8.1266    2.1875 H   0  0  0  0  0  0  0  0  0  0  0  0
   -3.7813    8.6945    3.8853 H   0  0  0  0  0  0  0  0  0  0  0  0
   -6.2940    8.5726    3.5845 H   0  0  0  0  0  0  0  0  0  0  0  0
   -5.4976    9.7331    2.4496 H   0  0  0  0  0  0  0  0  0  0  0  0
   -6.0330    8.1133    1.8547 H   0  0  0  0  0  0  0  0  0  0  0  0
   -4.2288    4.0620   -1.0017 H   0  0  0  0  0  0  0  0  0  0  0  0
   -4.9890    4.7064    0.4130 H   0  0  0  0  0  0  0  0  0  0  0  0
   -2.5751    4.4724    1.6156 H   0  0  0  0  0  0  0  0  0  0  0  0
   -2.9358    5.8601    0.5093 H   0  0  0  0  0  0  0  0  0  0  0  0
   -1.9352    4.5017   -0.0302 H   0  0  0  0  0  0  0  0  0  0  0  0
   -2.4180    3.3215   -1.6805 H   0  0  0  0  0  0  0  0  0  0  0  0
   -1.4134    2.5713   -2.7695 H   0  0  0  0  0  0  0  0  0  0  0  0
   -0.5599    0.9747   -0.8975 H   0  0  0  0  0  0  0  0  0  0  0  0
   -1.5599    1.9262    0.2574 H   0  0  0  0  0  0  0  0  0  0  0  0
   -0.1905    2.7145   -0.6110 H   0  0  0  0  0  0  0  0  0  0  0  0
    1.8016   -2.6192   -6.1703 H   0  0  0  0  0  0  0  0  0  0  0  0
    0.1598   -6.0366   -6.6228 H   0  0  0  0  0  0  0  0  0  0  0  0
    3.2969   -2.6273  -10.9037 H   0  0  0  0  0  0  0  0  0  0  0  0
    4.3667   -7.5632  -10.2138 H   0  0  0  0  0  0  0  0  0  0  0  0
    6.7566   -5.9168  -12.0830 H   0  0  0  0  0  0  0  0  0  0  0  0
    5.7816   -7.4018  -13.9556 H   0  0  0  0  0  0  0  0  0  0  0  0
    3.1392   -7.1427  -14.0606 H   0  0  0  0  0  0  0  0  0  0  0  0
    2.5811   -4.6298  -14.4372 H   0  0  0  0  0  0  0  0  0  0  0  0
    4.8656   -3.2781  -14.5821 H   0  0  0  0  0  0  0  0  0  0  0  0
    6.8618   -5.0603  -14.6549 H   0  0  0  0  0  0  0  0  0  0  0  0
    5.5268   -5.5294  -15.8040 H   0  0  0  0  0  0  0  0  0  0  0  0
    6.2669   -3.6373  -12.4397 H   0  0  0  0  0  0  0  0  0  0  0  0
  1  2  2  3
  2  3  1  0
  3  4  2  0
  3  5  1  0
  5  6  2  0
  6  7  1  0
  7  8  2  0
  8  9  1  0
  9 10  2  0
 10 11  1  0
 11 12  2  3
 12 13  1  0
 13 14  3  0
 12 15  1  0
 15 16  3  0
  8 17  1  0
 17 18  1  0
 18 19  1  0
 19 20  2  0
 20 21  1  0
 21 22  1  0
 21 23  1  0
  1 24  1  0
 24 25  1  0
 25 26  1  0
 26 27  1  0
 27 28  1  0
 28 29  1  0
 29 30  1  0
 30 31  1  0
 31 32  1  0
 32 33  2  0
 33 34  1  0
 34 35  1  0
 32 36  1  0
 36 37  1  0
 37 38  1  0
 38 39  1  0
 39 40  1  0
 40 41  2  0
 41 42  1  0
 42 43  2  0
 43 44  1  0
 44 45  1  0
 45 46  1  0
 44 47  1  0
 47 48  2  0
 48 49  1  0
 49 50  1  0
 50 51  1  0
 51 52  1  0
 52 53  1  0
 53 54  1  0
 54 55  1  0
 55 56  1  0
 56 57  1  0
 57 58  1  0
 58 59  1  0
 59 60  1  0
 58 61  2  0
 61 62  1  0
 62 63  1  0
 63 64  1  0
 62 65  1  0
 54 66  1  0
 66 67  1  0
 51 68  1  0
 68 69  1  0
 41 70  1  0
 70 71  2  0
 71 72  1  0
 71 73  1  0
 73 74  2  3
 74 75  1  0
 75 76  2  0
 75 77  1  0
 77 78  2  0
 78 79  1  0
 79 80  2  0
 80 81  1  0
 81 82  2  0
 82 83  1  0
 83 84  2  3
 84 85  1  0
 85 86  3  0
 84 87  1  0
 87 88  3  0
 80 89  1  0
 89 90  1  0
 90 91  1  0
 91 92  2  0
 92 93  1  0
 93 94  1  0
 93 95  1  0
 11  2  1  0
 23 17  1  0
 60 24  2  0
 83 74  1  0
 95 89  1  0
 10  5  1  0
 22 18  1  0
 59 26  2  0
 82 77  1  0
 94 90  1  0
 23  7  1  0
 56 27  2  0
 65 57  2  0
 95 79  1  0
 55 29  2  0
 53 30  2  0
 35 31  2  0
 52 36  2  0
 50 37  2  0
 49 39  2  0
 72 40  1  0
 48 42  1  0
  1 96  1  0
  6 97  1  0
  9 98  1  0
 17 99  1  0
 18100  1  0
 19101  1  0
 20102  1  0
 21103  1  0
 22104  1  0
 22105  1  0
 23106  1  0
 45107  1  0
 45108  1  0
 46109  1  0
 46110  1  0
 46111  1  0
 60112  1  0
 63113  1  0
 63114  1  0
 64115  1  0
 64116  1  0
 64117  1  0
 66118  1  0
 66119  1  0
 67120  1  0
 67121  1  0
 67122  1  0
 68123  1  0
 68124  1  0
 69125  1  0
 69126  1  0
 69127  1  0
 70128  1  0
 73129  1  0
 78130  1  0
 81131  1  0
 89132  1  0
 90133  1  0
 91134  1  0
 92135  1  0
 93136  1  0
 94137  1  0
 94138  1  0
 95139  1  0
M  END

