
     RDKit          3D

157175  0  0  0  0  0  0  0  0999 V2000
   -4.6462    3.2494    6.5294 C   0  0  0  0  0  0  0  0  0  0  0  0
   -5.5199    3.9559    5.7886 C   0  0  0  0  0  0  0  0  0  0  0  0
   -5.4780    4.0734    4.3213 C   0  0  0  0  0  0  0  0  0  0  0  0
   -4.9346    3.2706    3.5213 O   0  0  0  0  0  0  0  0  0  0  0  0
   -6.1242    5.3085    3.9359 C   0  0  0  0  0  0  0  0  0  0  0  0
   -6.2047    5.8553    2.6332 C   0  0  0  0  0  0  0  0  0  0  0  0
   -6.8293    7.0889    2.5850 C   0  0  0  0  0  0  0  0  0  0  0  0
   -7.3699    7.7348    3.7408 C   0  0  0  0  0  0  0  0  0  0  0  0
   -7.3013    7.2051    5.0178 C   0  0  0  0  0  0  0  0  0  0  0  0
   -6.6342    5.9507    5.1026 C   0  0  0  0  0  0  0  0  0  0  0  0
   -6.3679    5.0836    6.2894 C   0  0  0  0  0  0  0  0  0  0  0  0
   -6.8652    5.2278    7.5454 C   0  0  0  0  0  0  0  0  0  0  0  0
   -6.8128    4.1637    8.5136 C   0  0  0  0  0  0  0  0  0  0  0  0
   -6.7792    3.3210    9.3082 N   0  0  0  0  0  0  0  0  0  0  0  0
   -7.4635    6.4535    8.0031 C   0  0  0  0  0  0  0  0  0  0  0  0
   -7.9237    7.4512    8.3873 N   0  0  0  0  0  0  0  0  0  0  0  0
   -7.8536    8.8741    2.9014 C   0  0  0  0  0  0  0  0  0  0  0  0
   -9.3850    8.9147    2.5996 C   0  0  0  0  0  0  0  0  0  0  0  0
   -9.5573    9.8869    1.4575 C   0  0  0  0  0  0  0  0  0  0  0  0
   -9.0345    9.2981    0.3752 C   0  0  0  0  0  0  0  0  0  0  0  0
   -8.5360    7.9471    0.8215 C   0  0  0  0  0  0  0  0  0  0  0  0
   -9.6170    7.6203    1.8384 C   0  0  0  0  0  0  0  0  0  0  0  0
   -7.2881    8.2208    1.7170 C   0  0  0  0  0  0  0  0  0  0  0  0
   -3.4943    2.5694    5.9285 C   0  0  0  0  0  0  0  0  0  0  0  0
   -2.2837    3.2172    5.6665 C   0  0  0  0  0  0  0  0  0  0  0  0
   -1.4435    2.3913    4.9362 C   0  0  0  0  0  0  0  0  0  0  0  0
   -0.0068    2.6863    4.0914 S   0  0  0  0  0  0  0  0  0  0  0  0
   -0.0411    1.1415    3.3797 C   0  0  0  0  0  0  0  0  0  0  0  0
    0.5869    0.5096    2.2362 C   0  0  0  0  0  0  0  0  0  0  0  0
   -0.1820   -0.6057    1.9280 C   0  0  0  0  0  0  0  0  0  0  0  0
   -1.3771   -0.7757    2.8651 C   0  0  0  0  0  0  0  0  0  0  0  0
   -2.6622   -0.6913    2.0330 C   0  0  0  0  0  0  0  0  0  0  0  0
   -3.3141   -1.8641    1.5974 C   0  0  0  0  0  0  0  0  0  0  0  0
   -4.4845   -1.7984    0.8427 C   0  0  0  0  0  0  0  0  0  0  0  0
   -5.0028   -0.5536    0.4470 C   0  0  0  0  0  0  0  0  0  0  0  0
   -6.2996   -0.4816   -0.3112 C   0  0  0  0  0  0  0  0  0  0  0  0
   -7.4605   -0.1425    0.6208 C   0  0  0  0  0  0  0  0  0  0  0  0
   -4.3259    0.6184    0.8077 C   0  0  0  0  0  0  0  0  0  0  0  0
   -3.1603    0.5509    1.5812 C   0  0  0  0  0  0  0  0  0  0  0  0
   -1.2975   -2.0329    3.7464 C   0  0  0  0  0  0  0  0  0  0  0  0
   -2.4029   -2.3913    4.5447 C   0  0  0  0  0  0  0  0  0  0  0  0
   -2.4093   -3.5861    5.2626 C   0  0  0  0  0  0  0  0  0  0  0  0
   -1.3065   -4.4541    5.2061 C   0  0  0  0  0  0  0  0  0  0  0  0
   -1.3432   -5.7880    5.9000 C   0  0  0  0  0  0  0  0  0  0  0  0
   -0.5731   -5.7481    7.2181 C   0  0  0  0  0  0  0  0  0  0  0  0
   -0.1641   -4.0626    4.4935 C   0  0  0  0  0  0  0  0  0  0  0  0
   -0.1513   -2.8594    3.7797 C   0  0  0  0  0  0  0  0  0  0  0  0
   -1.1575    0.4350    3.7428 C   0  0  0  0  0  0  0  0  0  0  0  0
   -1.9498    1.1558    4.6310 C   0  0  0  0  0  0  0  0  0  0  0  0
   -3.5124    1.0123    5.2330 S   0  0  0  0  0  0  0  0  0  0  0  0
    0.1911   -1.4545    0.8856 C   0  0  0  0  0  0  0  0  0  0  0  0
    1.3640   -1.1810    0.1584 C   0  0  0  0  0  0  0  0  0  0  0  0
    1.8868   -2.1627   -0.7971 C   0  0  0  0  0  0  0  0  0  0  0  0
    3.0780   -1.9464   -1.4897 C   0  0  0  0  0  0  0  0  0  0  0  0
    3.7922   -0.5931   -1.4846 C   0  0  0  0  0  0  0  0  0  0  0  0
    3.3077    0.2843   -0.3052 C   0  0  0  0  0  0  0  0  0  0  0  0
    2.1305   -0.0173    0.4391 C   0  0  0  0  0  0  0  0  0  0  0  0
    1.7275    0.8496    1.4967 C   0  0  0  0  0  0  0  0  0  0  0  0
    2.4959    1.9864    1.7969 C   0  0  0  0  0  0  0  0  0  0  0  0
    3.6134    2.3005    1.0372 C   0  0  0  0  0  0  0  0  0  0  0  0
    4.0031    1.4786   -0.0138 C   0  0  0  0  0  0  0  0  0  0  0  0
    3.4361    0.0724   -2.8371 C   0  0  0  0  0  0  0  0  0  0  0  0
    3.9783   -0.4180   -4.0442 C   0  0  0  0  0  0  0  0  0  0  0  0
    3.6203    0.1349   -5.2794 C   0  0  0  0  0  0  0  0  0  0  0  0
    2.6756    1.1694   -5.3432 C   0  0  0  0  0  0  0  0  0  0  0  0
    2.2801    1.7625   -6.6720 C   0  0  0  0  0  0  0  0  0  0  0  0
    0.8695    1.3356   -7.0687 C   0  0  0  0  0  0  0  0  0  0  0  0
    2.0851    1.6313   -4.1615 C   0  0  0  0  0  0  0  0  0  0  0  0
    2.4391    1.0770   -2.9296 C   0  0  0  0  0  0  0  0  0  0  0  0
    5.3052   -0.8209   -1.2596 C   0  0  0  0  0  0  0  0  0  0  0  0
    6.2964   -0.1441   -1.9989 C   0  0  0  0  0  0  0  0  0  0  0  0
    7.6496   -0.4127   -1.7880 C   0  0  0  0  0  0  0  0  0  0  0  0
    8.0481   -1.3271   -0.8020 C   0  0  0  0  0  0  0  0  0  0  0  0
    9.5103   -1.6161   -0.5788 C   0  0  0  0  0  0  0  0  0  0  0  0
   10.1478   -0.5400    0.2885 C   0  0  0  0  0  0  0  0  0  0  0  0
    7.0768   -1.9182    0.0137 C   0  0  0  0  0  0  0  0  0  0  0  0
    5.7243   -1.6552   -0.1990 C   0  0  0  0  0  0  0  0  0  0  0  0
    3.5335   -3.1470   -2.0646 C   0  0  0  0  0  0  0  0  0  0  0  0
    2.7681   -4.2436   -1.8100 C   0  0  0  0  0  0  0  0  0  0  0  0
    1.4621   -3.8114   -0.8559 S   0  0  0  0  0  0  0  0  0  0  0  0
    3.3632   -5.4778   -2.0712 C   0  0  0  0  0  0  0  0  0  0  0  0
    4.6572   -5.3145   -2.5864 C   0  0  0  0  0  0  0  0  0  0  0  0
    5.0188   -3.6589   -2.6683 S   0  0  0  0  0  0  0  0  0  0  0  0
    5.7022   -6.3543   -2.5667 C   0  0  0  0  0  0  0  0  0  0  0  0
    5.5106   -7.6260   -2.9767 C   0  0  0  0  0  0  0  0  0  0  0  0
    4.4958   -8.0404   -3.9481 C   0  0  0  0  0  0  0  0  0  0  0  0
    3.6062   -7.3034   -4.4545 O   0  0  0  0  0  0  0  0  0  0  0  0
    4.7547   -9.4203   -4.3294 C   0  0  0  0  0  0  0  0  0  0  0  0
    4.0268  -10.2328   -5.2065 C   0  0  0  0  0  0  0  0  0  0  0  0
    2.6874   -9.5730   -6.1485 Cl  0  0  0  0  0  0  0  0  0  0  0  0
    4.3606  -11.5937   -5.2847 C   0  0  0  0  0  0  0  0  0  0  0  0
    3.4957  -12.6503   -6.4040 Cl  0  0  0  0  0  0  0  0  0  0  0  0
    5.3480  -12.1324   -4.4231 C   0  0  0  0  0  0  0  0  0  0  0  0
    5.6558  -13.8715   -4.4234 Cl  0  0  0  0  0  0  0  0  0  0  0  0
    6.0531  -11.2938   -3.5327 C   0  0  0  0  0  0  0  0  0  0  0  0
    6.9456  -12.0322   -2.2001 Cl  0  0  0  0  0  0  0  0  0  0  0  0
    5.8401   -9.9015   -3.6086 C   0  0  0  0  0  0  0  0  0  0  0  0
    6.4356   -8.7850   -2.8197 C   0  0  0  0  0  0  0  0  0  0  0  0
    7.6624   -8.7678   -2.2305 C   0  0  0  0  0  0  0  0  0  0  0  0
    7.9891   -7.8391   -1.1781 C   0  0  0  0  0  0  0  0  0  0  0  0
    8.2367   -7.0996   -0.3192 N   0  0  0  0  0  0  0  0  0  0  0  0
    8.7229   -9.6625   -2.6259 C   0  0  0  0  0  0  0  0  0  0  0  0
    9.5830  -10.3755   -2.9355 N   0  0  0  0  0  0  0  0  0  0  0  0
   -4.5882    3.3983    7.5965 H   0  0  0  0  0  0  0  0  0  0  0  0
   -5.7981    5.3690    1.7592 H   0  0  0  0  0  0  0  0  0  0  0  0
   -7.7188    7.7481    5.8473 H   0  0  0  0  0  0  0  0  0  0  0  0
   -7.3900    9.8505    3.1682 H   0  0  0  0  0  0  0  0  0  0  0  0
  -10.0444    9.0848    3.4751 H   0  0  0  0  0  0  0  0  0  0  0  0
  -10.0712   10.8437    1.4730 H   0  0  0  0  0  0  0  0  0  0  0  0
   -9.0511    9.6897   -0.6372 H   0  0  0  0  0  0  0  0  0  0  0  0
   -8.3879    7.2030    0.0097 H   0  0  0  0  0  0  0  0  0  0  0  0
   -9.4285    6.7015    2.4271 H   0  0  0  0  0  0  0  0  0  0  0  0
  -10.6427    7.5504    1.4002 H   0  0  0  0  0  0  0  0  0  0  0  0
   -6.4592    8.7841    1.2393 H   0  0  0  0  0  0  0  0  0  0  0  0
   -2.0580    4.2477    5.9109 H   0  0  0  0  0  0  0  0  0  0  0  0
   -2.9270   -2.8448    1.8477 H   0  0  0  0  0  0  0  0  0  0  0  0
   -4.9832   -2.7170    0.5580 H   0  0  0  0  0  0  0  0  0  0  0  0
   -6.5081   -1.4522   -0.8147 H   0  0  0  0  0  0  0  0  0  0  0  0
   -6.2256    0.2952   -1.1020 H   0  0  0  0  0  0  0  0  0  0  0  0
   -7.4860   -0.8375    1.4879 H   0  0  0  0  0  0  0  0  0  0  0  0
   -7.3528    0.8994    0.9960 H   0  0  0  0  0  0  0  0  0  0  0  0
   -8.4184   -0.2259    0.0713 H   0  0  0  0  0  0  0  0  0  0  0  0
   -4.7035    1.5848    0.4991 H   0  0  0  0  0  0  0  0  0  0  0  0
   -2.6486    1.4725    1.8180 H   0  0  0  0  0  0  0  0  0  0  0  0
   -3.2904   -1.7752    4.5532 H   0  0  0  0  0  0  0  0  0  0  0  0
   -3.2911   -3.8551    5.8325 H   0  0  0  0  0  0  0  0  0  0  0  0
   -2.3939   -6.0935    6.1002 H   0  0  0  0  0  0  0  0  0  0  0  0
   -0.9017   -6.5640    5.2353 H   0  0  0  0  0  0  0  0  0  0  0  0
   -1.0338   -5.0011    7.9035 H   0  0  0  0  0  0  0  0  0  0  0  0
    0.4876   -5.4782    7.0413 H   0  0  0  0  0  0  0  0  0  0  0  0
   -0.6164   -6.7453    7.7024 H   0  0  0  0  0  0  0  0  0  0  0  0
    0.7118   -4.7015    4.4702 H   0  0  0  0  0  0  0  0  0  0  0  0
    0.7473   -2.6087    3.2364 H   0  0  0  0  0  0  0  0  0  0  0  0
   -0.4055   -2.3313    0.6766 H   0  0  0  0  0  0  0  0  0  0  0  0
    2.2439    2.6455    2.6127 H   0  0  0  0  0  0  0  0  0  0  0  0
    4.1865    3.1867    1.2697 H   0  0  0  0  0  0  0  0  0  0  0  0
    4.8685    1.7712   -0.5942 H   0  0  0  0  0  0  0  0  0  0  0  0
    4.7059   -1.2148   -4.0420 H   0  0  0  0  0  0  0  0  0  0  0  0
    4.0849   -0.2383   -6.1821 H   0  0  0  0  0  0  0  0  0  0  0  0
    2.3226    2.8726   -6.6101 H   0  0  0  0  0  0  0  0  0  0  0  0
    2.9929    1.4557   -7.4701 H   0  0  0  0  0  0  0  0  0  0  0  0
    0.7691    0.2286   -7.0289 H   0  0  0  0  0  0  0  0  0  0  0  0
    0.1193    1.7923   -6.3892 H   0  0  0  0  0  0  0  0  0  0  0  0
    0.6588    1.6633   -8.1066 H   0  0  0  0  0  0  0  0  0  0  0  0
    1.3267    2.4076   -4.1940 H   0  0  0  0  0  0  0  0  0  0  0  0
    1.9296    1.4560   -2.0598 H   0  0  0  0  0  0  0  0  0  0  0  0
    6.0311    0.6024   -2.7360 H   0  0  0  0  0  0  0  0  0  0  0  0
    8.3893    0.1034   -2.3910 H   0  0  0  0  0  0  0  0  0  0  0  0
    9.6402   -2.6060   -0.0875 H   0  0  0  0  0  0  0  0  0  0  0  0
   10.0387   -1.6660   -1.5573 H   0  0  0  0  0  0  0  0  0  0  0  0
   10.1123    0.4438   -0.2296 H   0  0  0  0  0  0  0  0  0  0  0  0
    9.6223   -0.4680    1.2675 H   0  0  0  0  0  0  0  0  0  0  0  0
   11.2098   -0.8018    0.4721 H   0  0  0  0  0  0  0  0  0  0  0  0
    7.3689   -2.6014    0.8052 H   0  0  0  0  0  0  0  0  0  0  0  0
    4.9953   -2.1374    0.4440 H   0  0  0  0  0  0  0  0  0  0  0  0
    2.9557   -6.4225   -1.7502 H   0  0  0  0  0  0  0  0  0  0  0  0
    6.6588   -6.0386   -2.2000 H   0  0  0  0  0  0  0  0  0  0  0  0
  1  2  2  3
  2  3  1  0
  3  4  2  0
  3  5  1  0
  5  6  2  0
  6  7  1  0
  7  8  2  0
  8  9  1  0
  9 10  2  0
 10 11  1  0
 11 12  2  3
 12 13  1  0
 13 14  3  0
 12 15  1  0
 15 16  3  0
  8 17  1  0
 17 18  1  0
 18 19  1  0
 19 20  2  0
 20 21  1  0
 21 22  1  0
 21 23  1  0
  1 24  1  0
 24 25  2  0
 25 26  1  0
 26 27  1  0
 27 28  1  0
 28 29  1  0
 29 30  2  0
 30 31  1  0
 31 32  1  0
 32 33  2  0
 33 34  1  0
 34 35  2  0
 35 36  1  0
 36 37  1  0
 35 38  1  0
 38 39  2  0
 31 40  1  0
 40 41  2  0
 41 42  1  0
 42 43  2  0
 43 44  1  0
 44 45  1  0
 43 46  1  0
 46 47  2  0
 31 48  1  0
 48 49  1  0
 49 50  1  0
 30 51  1  0
 51 52  2  0
 52 53  1  0
 53 54  2  0
 54 55  1  0
 55 56  1  0
 56 57  1  0
 57 58  2  0
 58 59  1  0
 59 60  2  0
 60 61  1  0
 55 62  1  0
 62 63  2  0
 63 64  1  0
 64 65  2  0
 65 66  1  0
 66 67  1  0
 65 68  1  0
 68 69  2  0
 55 70  1  0
 70 71  2  0
 71 72  1  0
 72 73  2  0
 73 74  1  0
 74 75  1  0
 73 76  1  0
 76 77  2  0
 54 78  1  0
 78 79  2  0
 79 80  1  0
 79 81  1  0
 81 82  2  0
 82 83  1  0
 82 84  1  0
 84 85  2  3
 85 86  1  0
 86 87  2  0
 86 88  1  0
 88 89  2  0
 89 90  1  0
 89 91  1  0
 91 92  1  0
 91 93  2  0
 93 94  1  0
 93 95  1  0
 95 96  1  0
 95 97  2  0
 97 98  1  0
 98 99  2  3
 99100  1  0
100101  3  0
 99102  1  0
102103  3  0
 11  2  1  0
 23 17  1  0
 50 24  1  0
 57 52  1  0
 69 62  1  0
 77 70  1  0
 83 78  1  0
 98 85  1  0
 10  5  1  0
 22 18  1  0
 49 26  2  0
 80 53  1  0
 97 88  1  0
 23  7  1  0
 48 28  2  0
 61 56  2  0
 58 29  1  0
 39 32  1  0
 47 40  1  0
  1104  1  0
  6105  1  0
  9106  1  0
 17107  1  0
 18108  1  0
 19109  1  0
 20110  1  0
 21111  1  0
 22112  1  0
 22113  1  0
 23114  1  0
 25115  1  0
 33116  1  0
 34117  1  0
 36118  1  0
 36119  1  0
 37120  1  0
 37121  1  0
 37122  1  0
 38123  1  0
 39124  1  0
 41125  1  0
 42126  1  0
 44127  1  0
 44128  1  0
 45129  1  0
 45130  1  0
 45131  1  0
 46132  1  0
 47133  1  0
 51134  1  0
 59135  1  0
 60136  1  0
 61137  1  0
 63138  1  0
 64139  1  0
 66140  1  0
 66141  1  0
 67142  1  0
 67143  1  0
 67144  1  0
 68145  1  0
 69146  1  0
 71147  1  0
 72148  1  0
 74149  1  0
 74150  1  0
 75151  1  0
 75152  1  0
 75153  1  0
 76154  1  0
 77155  1  0
 81156  1  0
 84157  1  0
M  END

