
     RDKit          3D

120136  0  0  0  0  0  0  0  0999 V2000
   -5.6179    6.3750    1.7115 C   0  0  0  0  0  0  0  0  0  0  0  0
   -6.5720    5.4606    1.9823 C   0  0  0  0  0  0  0  0  0  0  0  0
   -6.4564    4.0140    1.7546 C   0  0  0  0  0  0  0  0  0  0  0  0
   -5.3867    3.3530    1.6752 O   0  0  0  0  0  0  0  0  0  0  0  0
   -7.7800    3.4395    1.7355 C   0  0  0  0  0  0  0  0  0  0  0  0
   -8.1215    2.1108    1.3948 C   0  0  0  0  0  0  0  0  0  0  0  0
   -9.4802    1.8706    1.3778 C   0  0  0  0  0  0  0  0  0  0  0  0
  -10.4556    2.8749    1.6779 C   0  0  0  0  0  0  0  0  0  0  0  0
  -10.1268    4.1801    2.0091 C   0  0  0  0  0  0  0  0  0  0  0  0
   -8.7280    4.4476    2.0470 C   0  0  0  0  0  0  0  0  0  0  0  0
   -8.0031    5.7210    2.3400 C   0  0  0  0  0  0  0  0  0  0  0  0
   -8.4999    6.8071    2.9892 C   0  0  0  0  0  0  0  0  0  0  0  0
   -7.6583    7.8746    3.4657 C   0  0  0  0  0  0  0  0  0  0  0  0
   -6.9902    8.7352    3.8573 N   0  0  0  0  0  0  0  0  0  0  0  0
   -9.8825    6.9196    3.3713 C   0  0  0  0  0  0  0  0  0  0  0  0
  -10.9919    7.0247    3.6883 N   0  0  0  0  0  0  0  0  0  0  0  0
  -11.5633    1.8908    1.4459 C   0  0  0  0  0  0  0  0  0  0  0  0
  -12.2733    1.3258    2.7124 C   0  0  0  0  0  0  0  0  0  0  0  0
  -13.0386    0.1093    2.2489 C   0  0  0  0  0  0  0  0  0  0  0  0
  -12.1259   -0.8254    1.9576 C   0  0  0  0  0  0  0  0  0  0  0  0
  -10.7762   -0.2087    2.2360 C   0  0  0  0  0  0  0  0  0  0  0  0
  -11.1478    0.6222    3.4534 C   0  0  0  0  0  0  0  0  0  0  0  0
  -10.5625    0.8652    1.1303 C   0  0  0  0  0  0  0  0  0  0  0  0
   -4.3274    6.0340    1.0931 C   0  0  0  0  0  0  0  0  0  0  0  0
   -4.1408    5.1742   -0.3571 S   0  0  0  0  0  0  0  0  0  0  0  0
   -2.4646    5.1746   -0.3084 C   0  0  0  0  0  0  0  0  0  0  0  0
   -1.5585    4.4891   -1.1289 C   0  0  0  0  0  0  0  0  0  0  0  0
   -1.9512    3.4146   -2.3704 S   0  0  0  0  0  0  0  0  0  0  0  0
   -0.3520    2.9410   -2.5652 C   0  0  0  0  0  0  0  0  0  0  0  0
    0.1918    1.7443   -2.9278 C   0  0  0  0  0  0  0  0  0  0  0  0
   -0.4906    0.5847   -3.3237 C   0  0  0  0  0  0  0  0  0  0  0  0
    0.1375   -0.6763   -3.1432 C   0  0  0  0  0  0  0  0  0  0  0  0
   -0.5738   -1.7789   -3.4861 N   0  0  0  0  0  0  0  0  0  0  0  0
   -1.9829   -1.0600   -3.9751 S   0  0  0  0  0  0  0  0  0  0  0  0
   -1.7642    0.5709   -3.7917 N   0  0  0  0  0  0  0  0  0  0  0  0
    1.4398   -0.7041   -2.6474 C   0  0  0  0  0  0  0  0  0  0  0  0
    2.2980   -1.7392   -2.4843 C   0  0  0  0  0  0  0  0  0  0  0  0
    2.2314   -3.4134   -2.5561 S   0  0  0  0  0  0  0  0  0  0  0  0
    3.9001   -3.5228   -2.2618 C   0  0  0  0  0  0  0  0  0  0  0  0
    4.6538   -4.6933   -2.0995 C   0  0  0  0  0  0  0  0  0  0  0  0
    6.0288   -4.6411   -1.8894 C   0  0  0  0  0  0  0  0  0  0  0  0
    6.6446   -3.3879   -1.8929 C   0  0  0  0  0  0  0  0  0  0  0  0
    7.9501   -3.0864   -1.8346 N   0  0  0  0  0  0  0  0  0  0  0  0
    7.9903   -1.7633   -1.9535 N   0  0  0  0  0  0  0  0  0  0  0  0
    9.2318   -0.9977   -1.9883 C   0  0  0  0  0  0  0  0  0  0  0  0
    9.6333   -0.7131   -3.4307 C   0  0  0  0  0  0  0  0  0  0  0  0
    6.7880   -1.2109   -2.0966 N   0  0  0  0  0  0  0  0  0  0  0  0
    5.9195   -2.2267   -2.0367 C   0  0  0  0  0  0  0  0  0  0  0  0
    4.5146   -2.2470   -2.1719 C   0  0  0  0  0  0  0  0  0  0  0  0
    3.5300   -1.2347   -2.2359 C   0  0  0  0  0  0  0  0  0  0  0  0
    3.5011    0.1323   -2.1413 N   0  0  0  0  0  0  0  0  0  0  0  0
    2.1706    0.4494   -2.3432 C   0  0  0  0  0  0  0  0  0  0  0  0
    1.4766    1.7056   -2.3556 C   0  0  0  0  0  0  0  0  0  0  0  0
    1.6509    2.8093   -1.5485 N   0  0  0  0  0  0  0  0  0  0  0  0
    0.5012    3.5434   -1.6849 C   0  0  0  0  0  0  0  0  0  0  0  0
   -0.1735    4.4579   -0.8260 C   0  0  0  0  0  0  0  0  0  0  0  0
    0.2400    5.2090    0.3023 C   0  0  0  0  0  0  0  0  0  0  0  0
   -0.6643    5.8895    1.0894 C   0  0  0  0  0  0  0  0  0  0  0  0
   -2.0339    5.8664    0.8203 C   0  0  0  0  0  0  0  0  0  0  0  0
   -3.0738    6.3772    1.6046 C   0  0  0  0  0  0  0  0  0  0  0  0
   -0.0130    6.4831    2.1010 N   0  0  0  0  0  0  0  0  0  0  0  0
    1.2631    6.1610    1.9074 N   0  0  0  0  0  0  0  0  0  0  0  0
    2.3509    6.6322    2.7558 C   0  0  0  0  0  0  0  0  0  0  0  0
    2.9645    7.8967    2.1679 C   0  0  0  0  0  0  0  0  0  0  0  0
    1.4557    5.4061    0.8297 N   0  0  0  0  0  0  0  0  0  0  0  0
    2.6042    2.9403   -0.4503 C   0  0  0  0  0  0  0  0  0  0  0  0
    3.5721    4.1024   -0.7097 C   0  0  0  0  0  0  0  0  0  0  0  0
    4.6555    1.0212   -2.3293 C   0  0  0  0  0  0  0  0  0  0  0  0
    5.5308    1.1318   -1.0684 C   0  0  0  0  0  0  0  0  0  0  0  0
    6.6175   -5.8930   -1.6776 C   0  0  0  0  0  0  0  0  0  0  0  0
    5.6867   -6.9363   -1.7275 C   0  0  0  0  0  0  0  0  0  0  0  0
    4.1422   -6.2877   -2.0176 S   0  0  0  0  0  0  0  0  0  0  0  0
    5.9880   -8.3352   -1.3529 C   0  0  0  0  0  0  0  0  0  0  0  0
    5.2741   -9.4125   -1.7366 C   0  0  0  0  0  0  0  0  0  0  0  0
    4.2179   -9.3135   -2.7198 C   0  0  0  0  0  0  0  0  0  0  0  0
    3.3732   -9.2387   -3.5083 N   0  0  0  0  0  0  0  0  0  0  0  0
    5.5751  -10.7472   -1.1747 C   0  0  0  0  0  0  0  0  0  0  0  0
    4.9989  -11.7686   -1.6423 O   0  0  0  0  0  0  0  0  0  0  0  0
    6.4604  -10.8764   -0.0982 O   0  0  0  0  0  0  0  0  0  0  0  0
    6.6800  -12.1147    0.5715 C   0  0  0  0  0  0  0  0  0  0  0  0
    7.6470  -11.9072    1.7254 C   0  0  0  0  0  0  0  0  0  0  0  0
   -5.7940    7.4257    1.8646 H   0  0  0  0  0  0  0  0  0  0  0  0
   -7.3895    1.3541    1.1445 H   0  0  0  0  0  0  0  0  0  0  0  0
  -10.8977    4.9116    2.1771 H   0  0  0  0  0  0  0  0  0  0  0  0
  -12.2310    2.1628    0.5975 H   0  0  0  0  0  0  0  0  0  0  0  0
  -12.8596    2.0591    3.3044 H   0  0  0  0  0  0  0  0  0  0  0  0
  -14.1134   -0.0302    2.2452 H   0  0  0  0  0  0  0  0  0  0  0  0
  -12.3348   -1.8515    1.6737 H   0  0  0  0  0  0  0  0  0  0  0  0
   -9.9445   -0.9303    2.3748 H   0  0  0  0  0  0  0  0  0  0  0  0
  -10.3395    1.3001    3.8081 H   0  0  0  0  0  0  0  0  0  0  0  0
  -11.5011    0.0080    4.3171 H   0  0  0  0  0  0  0  0  0  0  0  0
  -10.5957    0.4929    0.0816 H   0  0  0  0  0  0  0  0  0  0  0  0
   10.0423   -1.5682   -1.4848 H   0  0  0  0  0  0  0  0  0  0  0  0
    9.0916   -0.0376   -1.4470 H   0  0  0  0  0  0  0  0  0  0  0  0
   10.5997   -0.1653   -3.4477 H   0  0  0  0  0  0  0  0  0  0  0  0
    9.7526   -1.6647   -3.9912 H   0  0  0  0  0  0  0  0  0  0  0  0
    8.8606   -0.0869   -3.9277 H   0  0  0  0  0  0  0  0  0  0  0  0
   -2.9268    6.9163    2.5329 H   0  0  0  0  0  0  0  0  0  0  0  0
    1.9665    6.8460    3.7765 H   0  0  0  0  0  0  0  0  0  0  0  0
    3.1311    5.8435    2.8327 H   0  0  0  0  0  0  0  0  0  0  0  0
    3.3695    7.6882    1.1548 H   0  0  0  0  0  0  0  0  0  0  0  0
    3.7916    8.2493    2.8195 H   0  0  0  0  0  0  0  0  0  0  0  0
    2.1955    8.6956    2.0964 H   0  0  0  0  0  0  0  0  0  0  0  0
    3.1383    1.9933   -0.2887 H   0  0  0  0  0  0  0  0  0  0  0  0
    2.0579    3.0802    0.5033 H   0  0  0  0  0  0  0  0  0  0  0  0
    4.1333    4.3357    0.2195 H   0  0  0  0  0  0  0  0  0  0  0  0
    4.2976    3.8633   -1.5061 H   0  0  0  0  0  0  0  0  0  0  0  0
    3.0282    5.0101   -1.0445 H   0  0  0  0  0  0  0  0  0  0  0  0
    5.2685    0.6325   -3.1699 H   0  0  0  0  0  0  0  0  0  0  0  0
    4.3190    2.0201   -2.6614 H   0  0  0  0  0  0  0  0  0  0  0  0
    6.5939    1.2501   -1.3639 H   0  0  0  0  0  0  0  0  0  0  0  0
    5.4264    0.2321   -0.4258 H   0  0  0  0  0  0  0  0  0  0  0  0
    5.2964    2.0191   -0.4581 H   0  0  0  0  0  0  0  0  0  0  0  0
    7.6676   -6.0332   -1.4597 H   0  0  0  0  0  0  0  0  0  0  0  0
    6.8435   -8.4753   -0.7040 H   0  0  0  0  0  0  0  0  0  0  0  0
    7.1041  -12.8589   -0.1373 H   0  0  0  0  0  0  0  0  0  0  0  0
    5.7156  -12.4984    0.9686 H   0  0  0  0  0  0  0  0  0  0  0  0
    7.7578  -12.8521    2.3008 H   0  0  0  0  0  0  0  0  0  0  0  0
    7.2607  -11.1176    2.4064 H   0  0  0  0  0  0  0  0  0  0  0  0
    8.6425  -11.6007    1.3379 H   0  0  0  0  0  0  0  0  0  0  0  0
  1  2  2  3
  2  3  1  0
  3  4  2  0
  3  5  1  0
  5  6  2  0
  6  7  1  0
  7  8  2  0
  8  9  1  0
  9 10  2  0
 10 11  1  0
 11 12  2  3
 12 13  1  0
 13 14  3  0
 12 15  1  0
 15 16  3  0
  8 17  1  0
 17 18  1  0
 18 19  1  0
 19 20  2  0
 20 21  1  0
 21 22  1  0
 21 23  1  0
  1 24  1  0
 24 25  1  0
 25 26  1  0
 26 27  1  0
 27 28  1  0
 28 29  1  0
 29 30  1  0
 30 31  1  0
 31 32  1  0
 32 33  2  0
 33 34  1  0
 34 35  1  0
 32 36  1  0
 36 37  1  0
 37 38  1  0
 38 39  1  0
 39 40  1  0
 40 41  2  0
 41 42  1  0
 42 43  2  0
 43 44  1  0
 44 45  1  0
 45 46  1  0
 44 47  1  0
 47 48  2  0
 48 49  1  0
 49 50  1  0
 50 51  1  0
 51 52  1  0
 52 53  1  0
 53 54  1  0
 54 55  1  0
 55 56  1  0
 56 57  1  0
 57 58  1  0
 58 59  1  0
 59 60  1  0
 58 61  2  0
 61 62  1  0
 62 63  1  0
 63 64  1  0
 62 65  1  0
 54 66  1  0
 66 67  1  0
 51 68  1  0
 68 69  1  0
 41 70  1  0
 70 71  2  0
 71 72  1  0
 71 73  1  0
 73 74  2  3
 74 75  1  0
 75 76  3  0
 74 77  1  0
 77 78  2  0
 77 79  1  0
 79 80  1  0
 80 81  1  0
 11  2  1  0
 23 17  1  0
 60 24  2  0
 10  5  1  0
 22 18  1  0
 59 26  2  0
 23  7  1  0
 56 27  2  0
 65 57  2  0
 55 29  2  0
 53 30  2  0
 35 31  2  0
 52 36  2  0
 50 37  2  0
 49 39  2  0
 72 40  1  0
 48 42  1  0
  1 82  1  0
  6 83  1  0
  9 84  1  0
 17 85  1  0
 18 86  1  0
 19 87  1  0
 20 88  1  0
 21 89  1  0
 22 90  1  0
 22 91  1  0
 23 92  1  0
 45 93  1  0
 45 94  1  0
 46 95  1  0
 46 96  1  0
 46 97  1  0
 60 98  1  0
 63 99  1  0
 63100  1  0
 64101  1  0
 64102  1  0
 64103  1  0
 66104  1  0
 66105  1  0
 67106  1  0
 67107  1  0
 67108  1  0
 68109  1  0
 68110  1  0
 69111  1  0
 69112  1  0
 69113  1  0
 70114  1  0
 73115  1  0
 80116  1  0
 80117  1  0
 81118  1  0
 81119  1  0
 81120  1  0
M  END

