
     RDKit          3D

132151  0  0  0  0  0  0  0  0999 V2000
    5.1276   -7.4387    0.9146 C   0  0  0  0  0  0  0  0  0  0  0  0
    5.3311   -6.7704    2.0635 C   0  0  0  0  0  0  0  0  0  0  0  0
    5.4033   -7.4739    3.3483 C   0  0  0  0  0  0  0  0  0  0  0  0
    5.8590   -8.6339    3.5285 O   0  0  0  0  0  0  0  0  0  0  0  0
    4.7204   -6.6701    4.3502 C   0  0  0  0  0  0  0  0  0  0  0  0
    4.3555   -7.0509    5.6631 C   0  0  0  0  0  0  0  0  0  0  0  0
    3.5528   -6.1262    6.3114 C   0  0  0  0  0  0  0  0  0  0  0  0
    3.1196   -4.9037    5.7027 C   0  0  0  0  0  0  0  0  0  0  0  0
    3.4724   -4.5260    4.4190 C   0  0  0  0  0  0  0  0  0  0  0  0
    4.3145   -5.4508    3.7513 C   0  0  0  0  0  0  0  0  0  0  0  0
    4.8278   -5.4047    2.3653 C   0  0  0  0  0  0  0  0  0  0  0  0
    5.1762   -4.2906    1.6821 C   0  0  0  0  0  0  0  0  0  0  0  0
    4.8519   -2.9678    2.1495 C   0  0  0  0  0  0  0  0  0  0  0  0
    4.6033   -1.9019    2.5242 N   0  0  0  0  0  0  0  0  0  0  0  0
    6.0811   -4.3586    0.5618 C   0  0  0  0  0  0  0  0  0  0  0  0
    6.8117   -4.4072   -0.3331 N   0  0  0  0  0  0  0  0  0  0  0  0
    2.3446   -4.5424    6.9342 C   0  0  0  0  0  0  0  0  0  0  0  0
    2.9279   -3.4362    7.8629 C   0  0  0  0  0  0  0  0  0  0  0  0
    4.4378   -3.4414    7.7865 C   0  0  0  0  0  0  0  0  0  0  0  0
    4.8434   -4.5763    8.3578 C   0  0  0  0  0  0  0  0  0  0  0  0
    3.5969   -5.3059    8.8039 C   0  0  0  0  0  0  0  0  0  0  0  0
    2.7545   -4.1098    9.2103 C   0  0  0  0  0  0  0  0  0  0  0  0
    2.7905   -5.7918    7.5608 C   0  0  0  0  0  0  0  0  0  0  0  0
    4.0075   -7.0619    0.0387 C   0  0  0  0  0  0  0  0  0  0  0  0
    4.0893   -6.0494   -1.3186 S   0  0  0  0  0  0  0  0  0  0  0  0
    2.4210   -5.8868   -1.4739 C   0  0  0  0  0  0  0  0  0  0  0  0
    1.6838   -5.0234   -2.2995 C   0  0  0  0  0  0  0  0  0  0  0  0
    2.3124   -3.9319   -3.4326 S   0  0  0  0  0  0  0  0  0  0  0  0
    0.7876   -3.2801   -3.6893 C   0  0  0  0  0  0  0  0  0  0  0  0
    0.2709   -2.2774   -4.4248 C   0  0  0  0  0  0  0  0  0  0  0  0
    0.8987   -1.4375   -5.3412 C   0  0  0  0  0  0  0  0  0  0  0  0
    0.1503   -0.3842   -5.9155 C   0  0  0  0  0  0  0  0  0  0  0  0
    0.8095    0.4446   -6.7649 N   0  0  0  0  0  0  0  0  0  0  0  0
    2.3100   -0.2522   -6.7354 S   0  0  0  0  0  0  0  0  0  0  0  0
    2.2032   -1.5376   -5.6993 N   0  0  0  0  0  0  0  0  0  0  0  0
   -1.1709   -0.1980   -5.5015 C   0  0  0  0  0  0  0  0  0  0  0  0
   -1.8978    0.9550   -5.5582 C   0  0  0  0  0  0  0  0  0  0  0  0
   -1.4728    2.5352   -5.9365 S   0  0  0  0  0  0  0  0  0  0  0  0
   -2.6545    3.1745   -4.9094 C   0  0  0  0  0  0  0  0  0  0  0  0
   -2.7936    4.5209   -4.5402 C   0  0  0  0  0  0  0  0  0  0  0  0
   -3.6531    4.8986   -3.5104 C   0  0  0  0  0  0  0  0  0  0  0  0
   -4.4009    3.9063   -2.8833 C   0  0  0  0  0  0  0  0  0  0  0  0
   -5.2639    4.0223   -1.8635 N   0  0  0  0  0  0  0  0  0  0  0  0
   -5.6376    2.7729   -1.6023 N   0  0  0  0  0  0  0  0  0  0  0  0
   -6.6116    2.4208   -0.5765 C   0  0  0  0  0  0  0  0  0  0  0  0
   -7.9940    2.2578   -1.1999 C   0  0  0  0  0  0  0  0  0  0  0  0
   -5.0586    1.8751   -2.3958 N   0  0  0  0  0  0  0  0  0  0  0  0
   -4.2623    2.5759   -3.2145 C   0  0  0  0  0  0  0  0  0  0  0  0
   -3.3660    2.1523   -4.2292 C   0  0  0  0  0  0  0  0  0  0  0  0
   -2.8907    0.8724   -4.6338 C   0  0  0  0  0  0  0  0  0  0  0  0
   -2.8938   -0.3603   -4.0411 N   0  0  0  0  0  0  0  0  0  0  0  0
   -1.8102   -1.0358   -4.5621 C   0  0  0  0  0  0  0  0  0  0  0  0
   -1.0825   -2.1853   -4.0654 C   0  0  0  0  0  0  0  0  0  0  0  0
   -1.4150   -3.2184   -3.1932 N   0  0  0  0  0  0  0  0  0  0  0  0
   -0.2050   -3.8302   -2.9577 C   0  0  0  0  0  0  0  0  0  0  0  0
    0.2767   -4.8853   -2.1426 C   0  0  0  0  0  0  0  0  0  0  0  0
   -0.3310   -5.7026   -1.1676 C   0  0  0  0  0  0  0  0  0  0  0  0
    0.4061   -6.5483   -0.3700 C   0  0  0  0  0  0  0  0  0  0  0  0
    1.7916   -6.6359   -0.4828 C   0  0  0  0  0  0  0  0  0  0  0  0
    2.6726   -7.3051    0.3649 C   0  0  0  0  0  0  0  0  0  0  0  0
   -0.4098   -7.1559    0.5020 N   0  0  0  0  0  0  0  0  0  0  0  0
   -1.6157   -6.6760    0.2158 N   0  0  0  0  0  0  0  0  0  0  0  0
   -2.8328   -7.0983    0.8978 C   0  0  0  0  0  0  0  0  0  0  0  0
   -3.5130   -8.2105    0.1106 C   0  0  0  0  0  0  0  0  0  0  0  0
   -1.6059   -5.7990   -0.7846 N   0  0  0  0  0  0  0  0  0  0  0  0
   -2.6815   -3.9799   -3.2108 C   0  0  0  0  0  0  0  0  0  0  0  0
   -3.4381   -3.9605   -1.8666 C   0  0  0  0  0  0  0  0  0  0  0  0
   -3.8045   -0.7947   -2.9985 C   0  0  0  0  0  0  0  0  0  0  0  0
   -3.2006   -0.5878   -1.6123 C   0  0  0  0  0  0  0  0  0  0  0  0
   -3.5341    6.2378   -3.1327 C   0  0  0  0  0  0  0  0  0  0  0  0
   -2.5611    6.9042   -3.8791 C   0  0  0  0  0  0  0  0  0  0  0  0
   -1.8584    5.8410   -4.9943 S   0  0  0  0  0  0  0  0  0  0  0  0
   -2.0003    8.2172   -3.5451 C   0  0  0  0  0  0  0  0  0  0  0  0
   -1.0613    8.3754   -2.5929 C   0  0  0  0  0  0  0  0  0  0  0  0
   -0.3898    7.2868   -1.8704 C   0  0  0  0  0  0  0  0  0  0  0  0
   -0.7739    6.0895   -1.7877 O   0  0  0  0  0  0  0  0  0  0  0  0
    0.8262    7.8083   -1.2892 C   0  0  0  0  0  0  0  0  0  0  0  0
    1.8247    7.1024   -0.6201 C   0  0  0  0  0  0  0  0  0  0  0  0
    2.9832    7.7878   -0.2221 C   0  0  0  0  0  0  0  0  0  0  0  0
    4.0148    7.1130    0.4479 C   0  0  0  0  0  0  0  0  0  0  0  0
    5.1714    7.8008    0.8260 C   0  0  0  0  0  0  0  0  0  0  0  0
    6.1691    7.1395    1.4660 F   0  0  0  0  0  0  0  0  0  0  0  0
    5.3107    9.1614    0.5360 C   0  0  0  0  0  0  0  0  0  0  0  0
    6.4369    9.8214    0.9066 F   0  0  0  0  0  0  0  0  0  0  0  0
    4.2917    9.8471   -0.1306 C   0  0  0  0  0  0  0  0  0  0  0  0
    3.1207    9.1750   -0.5149 C   0  0  0  0  0  0  0  0  0  0  0  0
    2.0919    9.8592   -1.1955 C   0  0  0  0  0  0  0  0  0  0  0  0
    0.9289    9.1627   -1.5613 C   0  0  0  0  0  0  0  0  0  0  0  0
   -0.2946    9.6204   -2.2852 C   0  0  0  0  0  0  0  0  0  0  0  0
   -0.7399   10.8957   -2.4215 C   0  0  0  0  0  0  0  0  0  0  0  0
   -2.0815   11.1891   -2.8582 C   0  0  0  0  0  0  0  0  0  0  0  0
   -3.1656   11.4161   -3.1945 N   0  0  0  0  0  0  0  0  0  0  0  0
    0.0309   12.0375   -2.0070 C   0  0  0  0  0  0  0  0  0  0  0  0
    0.6405   12.9654   -1.6748 N   0  0  0  0  0  0  0  0  0  0  0  0
    5.4231   -8.4790    0.8676 H   0  0  0  0  0  0  0  0  0  0  0  0
    4.6389   -7.9932    6.1093 H   0  0  0  0  0  0  0  0  0  0  0  0
    3.0828   -3.6256    3.9692 H   0  0  0  0  0  0  0  0  0  0  0  0
    1.2437   -4.4917    6.7755 H   0  0  0  0  0  0  0  0  0  0  0  0
    2.4558   -2.4362    7.7632 H   0  0  0  0  0  0  0  0  0  0  0  0
    5.0808   -2.6549    7.4088 H   0  0  0  0  0  0  0  0  0  0  0  0
    5.8740   -4.8717    8.5225 H   0  0  0  0  0  0  0  0  0  0  0  0
    3.7549   -6.0673    9.5956 H   0  0  0  0  0  0  0  0  0  0  0  0
    3.1890   -3.5247   10.0569 H   0  0  0  0  0  0  0  0  0  0  0  0
    1.6950   -4.3697    9.4435 H   0  0  0  0  0  0  0  0  0  0  0  0
    1.9589   -6.4974    7.7878 H   0  0  0  0  0  0  0  0  0  0  0  0
   -6.6474    3.2136    0.2007 H   0  0  0  0  0  0  0  0  0  0  0  0
   -6.3096    1.4668   -0.0906 H   0  0  0  0  0  0  0  0  0  0  0  0
   -8.3623    3.2378   -1.5728 H   0  0  0  0  0  0  0  0  0  0  0  0
   -8.7026    1.8710   -0.4388 H   0  0  0  0  0  0  0  0  0  0  0  0
   -7.9545    1.5383   -2.0448 H   0  0  0  0  0  0  0  0  0  0  0  0
    2.3599   -7.8762    1.2293 H   0  0  0  0  0  0  0  0  0  0  0  0
   -3.5261   -6.2338    0.9904 H   0  0  0  0  0  0  0  0  0  0  0  0
   -2.5901   -7.4613    1.9189 H   0  0  0  0  0  0  0  0  0  0  0  0
   -2.8627   -9.1121    0.0841 H   0  0  0  0  0  0  0  0  0  0  0  0
   -4.4765   -8.4775    0.5942 H   0  0  0  0  0  0  0  0  0  0  0  0
   -3.7165   -7.8774   -0.9296 H   0  0  0  0  0  0  0  0  0  0  0  0
   -2.4574   -5.0405   -3.4647 H   0  0  0  0  0  0  0  0  0  0  0  0
   -3.3333   -3.6384   -4.0408 H   0  0  0  0  0  0  0  0  0  0  0  0
   -2.8170   -3.5288   -1.0544 H   0  0  0  0  0  0  0  0  0  0  0  0
   -3.7493   -4.9902   -1.5995 H   0  0  0  0  0  0  0  0  0  0  0  0
   -4.3994   -3.4194   -1.9147 H   0  0  0  0  0  0  0  0  0  0  0  0
   -4.7799   -0.3011   -3.1050 H   0  0  0  0  0  0  0  0  0  0  0  0
   -4.0812   -1.8207   -3.1955 H   0  0  0  0  0  0  0  0  0  0  0  0
   -3.9261   -0.9098   -0.8352 H   0  0  0  0  0  0  0  0  0  0  0  0
   -2.2677   -1.1750   -1.5039 H   0  0  0  0  0  0  0  0  0  0  0  0
   -2.9572    0.4857   -1.4569 H   0  0  0  0  0  0  0  0  0  0  0  0
   -4.0585    6.6810   -2.2968 H   0  0  0  0  0  0  0  0  0  0  0  0
   -2.2809    9.0351   -4.1888 H   0  0  0  0  0  0  0  0  0  0  0  0
    1.7070    6.0413   -0.4318 H   0  0  0  0  0  0  0  0  0  0  0  0
    3.9244    6.0577    0.6798 H   0  0  0  0  0  0  0  0  0  0  0  0
    4.4186   10.9013   -0.3470 H   0  0  0  0  0  0  0  0  0  0  0  0
    2.2316   10.8953   -1.4542 H   0  0  0  0  0  0  0  0  0  0  0  0
  1  2  2  3
  2  3  1  0
  3  4  2  0
  3  5  1  0
  5  6  2  0
  6  7  1  0
  7  8  2  0
  8  9  1  0
  9 10  2  0
 10 11  1  0
 11 12  2  3
 12 13  1  0
 13 14  3  0
 12 15  1  0
 15 16  3  0
  8 17  1  0
 17 18  1  0
 18 19  1  0
 19 20  2  0
 20 21  1  0
 21 22  1  0
 21 23  1  0
  1 24  1  0
 24 25  1  0
 25 26  1  0
 26 27  1  0
 27 28  1  0
 28 29  1  0
 29 30  1  0
 30 31  1  0
 31 32  1  0
 32 33  2  0
 33 34  1  0
 34 35  1  0
 32 36  1  0
 36 37  1  0
 37 38  1  0
 38 39  1  0
 39 40  1  0
 40 41  2  0
 41 42  1  0
 42 43  2  0
 43 44  1  0
 44 45  1  0
 45 46  1  0
 44 47  1  0
 47 48  2  0
 48 49  1  0
 49 50  1  0
 50 51  1  0
 51 52  1  0
 52 53  1  0
 53 54  1  0
 54 55  1  0
 55 56  1  0
 56 57  1  0
 57 58  1  0
 58 59  1  0
 59 60  1  0
 58 61  2  0
 61 62  1  0
 62 63  1  0
 63 64  1  0
 62 65  1  0
 54 66  1  0
 66 67  1  0
 51 68  1  0
 68 69  1  0
 41 70  1  0
 70 71  2  0
 71 72  1  0
 71 73  1  0
 73 74  2  3
 74 75  1  0
 75 76  2  0
 75 77  1  0
 77 78  2  0
 78 79  1  0
 79 80  2  0
 80 81  1  0
 81 82  1  0
 81 83  2  0
 83 84  1  0
 83 85  1  0
 85 86  2  0
 86 87  1  0
 87 88  2  0
 88 89  1  0
 89 90  2  3
 90 91  1  0
 91 92  3  0
 90 93  1  0
 93 94  3  0
 11  2  1  0
 23 17  1  0
 60 24  2  0
 89 74  1  0
 10  5  1  0
 22 18  1  0
 59 26  2  0
 88 77  1  0
 23  7  1  0
 56 27  2  0
 65 57  2  0
 86 79  1  0
 55 29  2  0
 53 30  2  0
 35 31  2  0
 52 36  2  0
 50 37  2  0
 49 39  2  0
 72 40  1  0
 48 42  1  0
  1 95  1  0
  6 96  1  0
  9 97  1  0
 17 98  1  0
 18 99  1  0
 19100  1  0
 20101  1  0
 21102  1  0
 22103  1  0
 22104  1  0
 23105  1  0
 45106  1  0
 45107  1  0
 46108  1  0
 46109  1  0
 46110  1  0
 60111  1  0
 63112  1  0
 63113  1  0
 64114  1  0
 64115  1  0
 64116  1  0
 66117  1  0
 66118  1  0
 67119  1  0
 67120  1  0
 67121  1  0
 68122  1  0
 68123  1  0
 69124  1  0
 69125  1  0
 69126  1  0
 70127  1  0
 73128  1  0
 78129  1  0
 80130  1  0
 85131  1  0
 87132  1  0
M  END

