
     RDKit          3D

126144  0  0  0  0  0  0  0  0999 V2000
    8.0122   -5.1981    1.3991 C   0  0  0  0  0  0  0  0  0  0  0  0
    8.7306   -4.0632    1.2530 C   0  0  0  0  0  0  0  0  0  0  0  0
    8.1927   -2.7929    0.7472 C   0  0  0  0  0  0  0  0  0  0  0  0
    7.1868   -2.6455    0.0027 O   0  0  0  0  0  0  0  0  0  0  0  0
    8.9937   -1.7092    1.2614 C   0  0  0  0  0  0  0  0  0  0  0  0
    8.7220   -0.3277    1.1347 C   0  0  0  0  0  0  0  0  0  0  0  0
    9.6098    0.4806    1.8145 C   0  0  0  0  0  0  0  0  0  0  0  0
   10.7154   -0.0320    2.5658 C   0  0  0  0  0  0  0  0  0  0  0  0
   10.9925   -1.3846    2.6870 C   0  0  0  0  0  0  0  0  0  0  0  0
   10.0793   -2.2410    2.0059 C   0  0  0  0  0  0  0  0  0  0  0  0
   10.0147   -3.7352    1.9465 C   0  0  0  0  0  0  0  0  0  0  0  0
   10.9708   -4.6165    2.3409 C   0  0  0  0  0  0  0  0  0  0  0  0
   12.0927   -4.2340    3.1537 C   0  0  0  0  0  0  0  0  0  0  0  0
   12.9750   -3.9364    3.8494 N   0  0  0  0  0  0  0  0  0  0  0  0
   10.9098   -6.0136    1.9894 C   0  0  0  0  0  0  0  0  0  0  0  0
   10.8388   -7.1373    1.7210 N   0  0  0  0  0  0  0  0  0  0  0  0
   11.1240    1.3619    2.9451 C   0  0  0  0  0  0  0  0  0  0  0  0
   12.3556    1.9875    2.2236 C   0  0  0  0  0  0  0  0  0  0  0  0
   12.4717    1.4376    0.8190 C   0  0  0  0  0  0  0  0  0  0  0  0
   11.4339    1.9198    0.1336 C   0  0  0  0  0  0  0  0  0  0  0  0
   10.6443    2.7784    1.0949 C   0  0  0  0  0  0  0  0  0  0  0  0
   11.7941    3.3608    1.8936 C   0  0  0  0  0  0  0  0  0  0  0  0
    9.9825    1.8853    2.1880 C   0  0  0  0  0  0  0  0  0  0  0  0
    6.5915   -5.2666    1.0383 C   0  0  0  0  0  0  0  0  0  0  0  0
    5.3602   -4.8154    2.1080 S   0  0  0  0  0  0  0  0  0  0  0  0
    4.1824   -4.6698    0.9249 C   0  0  0  0  0  0  0  0  0  0  0  0
    2.9022   -4.1040    1.0268 C   0  0  0  0  0  0  0  0  0  0  0  0
    2.1496   -3.4929    2.4275 S   0  0  0  0  0  0  0  0  0  0  0  0
    0.8860   -2.8561    1.5186 C   0  0  0  0  0  0  0  0  0  0  0  0
   -0.2594   -2.1468    1.7218 C   0  0  0  0  0  0  0  0  0  0  0  0
   -0.9381   -1.7677    2.8854 C   0  0  0  0  0  0  0  0  0  0  0  0
   -2.2019   -1.1173    2.7550 C   0  0  0  0  0  0  0  0  0  0  0  0
   -2.8350   -0.7655    3.9010 N   0  0  0  0  0  0  0  0  0  0  0  0
   -1.7379   -1.3301    5.0076 S   0  0  0  0  0  0  0  0  0  0  0  0
   -0.4890   -1.9962    4.1441 N   0  0  0  0  0  0  0  0  0  0  0  0
   -2.6811   -0.8401    1.4680 C   0  0  0  0  0  0  0  0  0  0  0  0
   -3.7226   -0.0769    1.0382 C   0  0  0  0  0  0  0  0  0  0  0  0
   -4.9468    0.8496    1.7269 S   0  0  0  0  0  0  0  0  0  0  0  0
   -5.3511    1.5160    0.2129 C   0  0  0  0  0  0  0  0  0  0  0  0
   -6.3867    2.4145   -0.0815 C   0  0  0  0  0  0  0  0  0  0  0  0
   -6.6133    2.8479   -1.3894 C   0  0  0  0  0  0  0  0  0  0  0  0
   -5.7788    2.3603   -2.3989 C   0  0  0  0  0  0  0  0  0  0  0  0
   -5.8356    2.5670   -3.7237 N   0  0  0  0  0  0  0  0  0  0  0  0
   -4.8648    1.8042   -4.2233 N   0  0  0  0  0  0  0  0  0  0  0  0
   -4.5371    1.7561   -5.6433 C   0  0  0  0  0  0  0  0  0  0  0  0
   -3.5178    2.8360   -5.9825 C   0  0  0  0  0  0  0  0  0  0  0  0
   -4.1935    1.1283   -3.2911 N   0  0  0  0  0  0  0  0  0  0  0  0
   -4.7618    1.4779   -2.1283 C   0  0  0  0  0  0  0  0  0  0  0  0
   -4.5054    1.0381   -0.8157 C   0  0  0  0  0  0  0  0  0  0  0  0
   -3.5745    0.1232   -0.2977 C   0  0  0  0  0  0  0  0  0  0  0  0
   -2.4439   -0.4747   -0.7776 N   0  0  0  0  0  0  0  0  0  0  0  0
   -1.9575   -1.1519    0.3120 C   0  0  0  0  0  0  0  0  0  0  0  0
   -0.7771   -1.9226    0.4428 C   0  0  0  0  0  0  0  0  0  0  0  0
   -0.0578   -2.5940   -0.5107 N   0  0  0  0  0  0  0  0  0  0  0  0
    0.9956   -3.1011    0.1896 C   0  0  0  0  0  0  0  0  0  0  0  0
    2.1498   -3.8258   -0.1401 C   0  0  0  0  0  0  0  0  0  0  0  0
    2.7199   -4.1592   -1.3810 C   0  0  0  0  0  0  0  0  0  0  0  0
    3.9716   -4.7213   -1.4631 C   0  0  0  0  0  0  0  0  0  0  0  0
    4.7386   -4.9679   -0.3208 C   0  0  0  0  0  0  0  0  0  0  0  0
    6.0934   -5.3142   -0.2665 C   0  0  0  0  0  0  0  0  0  0  0  0
    4.3229   -4.8149   -2.7538 N   0  0  0  0  0  0  0  0  0  0  0  0
    3.2767   -4.3301   -3.4206 N   0  0  0  0  0  0  0  0  0  0  0  0
    3.2506   -4.1818   -4.8700 C   0  0  0  0  0  0  0  0  0  0  0  0
    3.9414   -2.8842   -5.2763 C   0  0  0  0  0  0  0  0  0  0  0  0
    2.3007   -3.8956   -2.6255 N   0  0  0  0  0  0  0  0  0  0  0  0
   -0.6074   -3.1356   -1.7657 C   0  0  0  0  0  0  0  0  0  0  0  0
   -0.8538   -4.6407   -1.6639 C   0  0  0  0  0  0  0  0  0  0  0  0
   -1.6347   -0.0005   -1.9129 C   0  0  0  0  0  0  0  0  0  0  0  0
   -1.2154    1.4579   -1.7351 C   0  0  0  0  0  0  0  0  0  0  0  0
   -7.7223    3.6870   -1.5232 C   0  0  0  0  0  0  0  0  0  0  0  0
   -8.3629    3.8950   -0.3010 C   0  0  0  0  0  0  0  0  0  0  0  0
   -7.5590    3.0563    0.9320 S   0  0  0  0  0  0  0  0  0  0  0  0
   -9.6184    4.6256   -0.1173 C   0  0  0  0  0  0  0  0  0  0  0  0
  -10.7995    4.0022    0.0243 C   0  0  0  0  0  0  0  0  0  0  0  0
  -11.0658    2.5808   -0.2209 C   0  0  0  0  0  0  0  0  0  0  0  0
  -10.2001    1.6716   -0.3297 O   0  0  0  0  0  0  0  0  0  0  0  0
  -12.4989    2.4139   -0.4075 C   0  0  0  0  0  0  0  0  0  0  0  0
  -13.2021    1.2738   -0.8124 C   0  0  0  0  0  0  0  0  0  0  0  0
  -12.3851   -0.2844   -0.9591 Cl  0  0  0  0  0  0  0  0  0  0  0  0
  -14.5717    1.4042   -1.1151 C   0  0  0  0  0  0  0  0  0  0  0  0
  -15.5022   -0.0173   -1.5929 Cl  0  0  0  0  0  0  0  0  0  0  0  0
  -15.1825    2.6799   -1.1003 C   0  0  0  0  0  0  0  0  0  0  0  0
  -16.8660    2.8537   -1.5990 Cl  0  0  0  0  0  0  0  0  0  0  0  0
  -14.4409    3.8223   -0.7211 C   0  0  0  0  0  0  0  0  0  0  0  0
  -15.0939    5.4286   -1.0480 Cl  0  0  0  0  0  0  0  0  0  0  0  0
  -13.1177    3.6488   -0.2683 C   0  0  0  0  0  0  0  0  0  0  0  0
  -12.1224    4.6506    0.2032 C   0  0  0  0  0  0  0  0  0  0  0  0
  -12.3627    5.6580    1.0835 C   0  0  0  0  0  0  0  0  0  0  0  0
  -11.2864    6.3366    1.7636 C   0  0  0  0  0  0  0  0  0  0  0  0
  -10.4205    6.8528    2.3210 N   0  0  0  0  0  0  0  0  0  0  0  0
  -13.6790    5.9266    1.6002 C   0  0  0  0  0  0  0  0  0  0  0  0
  -14.7295    6.1510    2.0289 N   0  0  0  0  0  0  0  0  0  0  0  0
    8.3787   -6.0009    2.0191 H   0  0  0  0  0  0  0  0  0  0  0  0
    7.8791    0.0623    0.5791 H   0  0  0  0  0  0  0  0  0  0  0  0
   11.8268   -1.7133    3.2781 H   0  0  0  0  0  0  0  0  0  0  0  0
   11.0654    1.5688    4.0363 H   0  0  0  0  0  0  0  0  0  0  0  0
   13.2988    1.9885    2.8090 H   0  0  0  0  0  0  0  0  0  0  0  0
   13.2830    0.8445    0.4122 H   0  0  0  0  0  0  0  0  0  0  0  0
   11.2604    1.7898   -0.9295 H   0  0  0  0  0  0  0  0  0  0  0  0
    9.9702    3.5193    0.6161 H   0  0  0  0  0  0  0  0  0  0  0  0
   12.4852    3.9906    1.2811 H   0  0  0  0  0  0  0  0  0  0  0  0
   11.4652    3.9376    2.7908 H   0  0  0  0  0  0  0  0  0  0  0  0
    9.2246    2.4020    2.8199 H   0  0  0  0  0  0  0  0  0  0  0  0
   -4.1175    0.7578   -5.8980 H   0  0  0  0  0  0  0  0  0  0  0  0
   -5.4567    1.9118   -6.2467 H   0  0  0  0  0  0  0  0  0  0  0  0
   -3.9329    3.8411   -5.7440 H   0  0  0  0  0  0  0  0  0  0  0  0
   -2.5815    2.6790   -5.4026 H   0  0  0  0  0  0  0  0  0  0  0  0
   -3.2781    2.7954   -7.0673 H   0  0  0  0  0  0  0  0  0  0  0  0
    6.7116   -5.4749   -1.1408 H   0  0  0  0  0  0  0  0  0  0  0  0
    3.7671   -5.0466   -5.3452 H   0  0  0  0  0  0  0  0  0  0  0  0
    2.1959   -4.1661   -5.2255 H   0  0  0  0  0  0  0  0  0  0  0  0
    3.8985   -2.7665   -6.3796 H   0  0  0  0  0  0  0  0  0  0  0  0
    3.4335   -2.0167   -4.7992 H   0  0  0  0  0  0  0  0  0  0  0  0
    5.0058   -2.9041   -4.9566 H   0  0  0  0  0  0  0  0  0  0  0  0
    0.0564   -2.8961   -2.6175 H   0  0  0  0  0  0  0  0  0  0  0  0
   -1.5897   -2.6767   -1.9892 H   0  0  0  0  0  0  0  0  0  0  0  0
   -1.4259   -4.8723   -0.7409 H   0  0  0  0  0  0  0  0  0  0  0  0
    0.1021   -5.1975   -1.6470 H   0  0  0  0  0  0  0  0  0  0  0  0
   -1.4397   -4.9831   -2.5433 H   0  0  0  0  0  0  0  0  0  0  0  0
   -2.1768   -0.1525   -2.8635 H   0  0  0  0  0  0  0  0  0  0  0  0
   -0.6944   -0.5717   -1.9949 H   0  0  0  0  0  0  0  0  0  0  0  0
   -2.0888    2.1360   -1.7415 H   0  0  0  0  0  0  0  0  0  0  0  0
   -0.5418    1.7532   -2.5667 H   0  0  0  0  0  0  0  0  0  0  0  0
   -0.6697    1.5800   -0.7760 H   0  0  0  0  0  0  0  0  0  0  0  0
   -8.0688    4.0890   -2.4671 H   0  0  0  0  0  0  0  0  0  0  0  0
   -9.5675    5.7079   -0.1162 H   0  0  0  0  0  0  0  0  0  0  0  0
  1  2  2  3
  2  3  1  0
  3  4  2  0
  3  5  1  0
  5  6  2  0
  6  7  1  0
  7  8  2  0
  8  9  1  0
  9 10  2  0
 10 11  1  0
 11 12  2  3
 12 13  1  0
 13 14  3  0
 12 15  1  0
 15 16  3  0
  8 17  1  0
 17 18  1  0
 18 19  1  0
 19 20  2  0
 20 21  1  0
 21 22  1  0
 21 23  1  0
  1 24  1  0
 24 25  1  0
 25 26  1  0
 26 27  1  0
 27 28  1  0
 28 29  1  0
 29 30  1  0
 30 31  1  0
 31 32  1  0
 32 33  2  0
 33 34  1  0
 34 35  1  0
 32 36  1  0
 36 37  1  0
 37 38  1  0
 38 39  1  0
 39 40  1  0
 40 41  2  0
 41 42  1  0
 42 43  2  0
 43 44  1  0
 44 45  1  0
 45 46  1  0
 44 47  1  0
 47 48  2  0
 48 49  1  0
 49 50  1  0
 50 51  1  0
 51 52  1  0
 52 53  1  0
 53 54  1  0
 54 55  1  0
 55 56  1  0
 56 57  1  0
 57 58  1  0
 58 59  1  0
 59 60  1  0
 58 61  2  0
 61 62  1  0
 62 63  1  0
 63 64  1  0
 62 65  1  0
 54 66  1  0
 66 67  1  0
 51 68  1  0
 68 69  1  0
 41 70  1  0
 70 71  2  0
 71 72  1  0
 71 73  1  0
 73 74  2  3
 74 75  1  0
 75 76  2  0
 75 77  1  0
 77 78  2  0
 78 79  1  0
 78 80  1  0
 80 81  1  0
 80 82  2  0
 82 83  1  0
 82 84  1  0
 84 85  1  0
 84 86  2  0
 86 87  1  0
 87 88  2  3
 88 89  1  0
 89 90  3  0
 88 91  1  0
 91 92  3  0
 11  2  1  0
 23 17  1  0
 60 24  2  0
 87 74  1  0
 10  5  1  0
 22 18  1  0
 59 26  2  0
 86 77  1  0
 23  7  1  0
 56 27  2  0
 65 57  2  0
 55 29  2  0
 53 30  2  0
 35 31  2  0
 52 36  2  0
 50 37  2  0
 49 39  2  0
 72 40  1  0
 48 42  1  0
  1 93  1  0
  6 94  1  0
  9 95  1  0
 17 96  1  0
 18 97  1  0
 19 98  1  0
 20 99  1  0
 21100  1  0
 22101  1  0
 22102  1  0
 23103  1  0
 45104  1  0
 45105  1  0
 46106  1  0
 46107  1  0
 46108  1  0
 60109  1  0
 63110  1  0
 63111  1  0
 64112  1  0
 64113  1  0
 64114  1  0
 66115  1  0
 66116  1  0
 67117  1  0
 67118  1  0
 67119  1  0
 68120  1  0
 68121  1  0
 69122  1  0
 69123  1  0
 69124  1  0
 70125  1  0
 73126  1  0
M  END

