
     RDKit          3D

163180  0  0  0  0  0  0  0  0999 V2000
    2.3154    6.1843    2.6563 C   0  0  0  0  0  0  0  0  0  0  0  0
    1.2951    7.0228    2.3930 C   0  0  0  0  0  0  0  0  0  0  0  0
    1.2368    8.3853    2.9322 C   0  0  0  0  0  0  0  0  0  0  0  0
    2.2131    9.0536    3.3566 O   0  0  0  0  0  0  0  0  0  0  0  0
   -0.1537    8.7978    2.9749 C   0  0  0  0  0  0  0  0  0  0  0  0
   -0.6925    9.9484    3.5974 C   0  0  0  0  0  0  0  0  0  0  0  0
   -2.0784    9.9788    3.6036 C   0  0  0  0  0  0  0  0  0  0  0  0
   -2.8925    8.9416    3.0422 C   0  0  0  0  0  0  0  0  0  0  0  0
   -2.3683    7.8119    2.4369 C   0  0  0  0  0  0  0  0  0  0  0  0
   -0.9480    7.7765    2.3950 C   0  0  0  0  0  0  0  0  0  0  0  0
   -0.0623    6.7131    1.8681 C   0  0  0  0  0  0  0  0  0  0  0  0
   -0.3197    5.9484    0.7765 C   0  0  0  0  0  0  0  0  0  0  0  0
    0.7267    5.2294    0.0978 C   0  0  0  0  0  0  0  0  0  0  0  0
    1.5663    4.6558   -0.4568 N   0  0  0  0  0  0  0  0  0  0  0  0
   -1.5929    5.9841    0.1082 C   0  0  0  0  0  0  0  0  0  0  0  0
   -2.6124    6.0138   -0.4447 N   0  0  0  0  0  0  0  0  0  0  0  0
   -4.1327    9.6611    3.4740 C   0  0  0  0  0  0  0  0  0  0  0  0
   -4.8808    9.0835    4.7132 C   0  0  0  0  0  0  0  0  0  0  0  0
   -5.8202   10.1717    5.1698 C   0  0  0  0  0  0  0  0  0  0  0  0
   -5.0586   11.1417    5.6897 C   0  0  0  0  0  0  0  0  0  0  0  0
   -3.6298   10.6740    5.5640 C   0  0  0  0  0  0  0  0  0  0  0  0
   -3.8443    9.1915    5.8207 C   0  0  0  0  0  0  0  0  0  0  0  0
   -3.3019   10.7254    4.0425 C   0  0  0  0  0  0  0  0  0  0  0  0
    2.1880    4.7203    2.7500 C   0  0  0  0  0  0  0  0  0  0  0  0
    3.4577    3.6318    2.4387 S   0  0  0  0  0  0  0  0  0  0  0  0
    2.5563    2.2800    2.8593 C   0  0  0  0  0  0  0  0  0  0  0  0
    2.5655    0.9151    2.4179 C   0  0  0  0  0  0  0  0  0  0  0  0
    1.2784    0.4250    2.4308 C   0  0  0  0  0  0  0  0  0  0  0  0
    0.3231    1.4541    3.0734 C   0  0  0  0  0  0  0  0  0  0  0  0
    1.2761    2.6274    3.1506 C   0  0  0  0  0  0  0  0  0  0  0  0
    1.0424    4.0051    3.1239 C   0  0  0  0  0  0  0  0  0  0  0  0
   -0.0435    1.0535    4.5176 C   0  0  0  0  0  0  0  0  0  0  0  0
    0.1567   -0.2591    5.0057 C   0  0  0  0  0  0  0  0  0  0  0  0
   -0.0674   -0.5727    6.3511 C   0  0  0  0  0  0  0  0  0  0  0  0
   -0.4817    0.4180    7.2491 C   0  0  0  0  0  0  0  0  0  0  0  0
   -0.7087    0.0827    8.6978 C   0  0  0  0  0  0  0  0  0  0  0  0
   -2.1385   -0.3886    8.9295 C   0  0  0  0  0  0  0  0  0  0  0  0
   -0.7266    1.7154    6.7743 C   0  0  0  0  0  0  0  0  0  0  0  0
   -0.5092    2.0313    5.4312 C   0  0  0  0  0  0  0  0  0  0  0  0
   -0.8521    1.8329    2.1524 C   0  0  0  0  0  0  0  0  0  0  0  0
   -2.1726    1.9876    2.6272 C   0  0  0  0  0  0  0  0  0  0  0  0
   -3.2033    2.3698    1.7638 C   0  0  0  0  0  0  0  0  0  0  0  0
   -2.9484    2.5998    0.4054 C   0  0  0  0  0  0  0  0  0  0  0  0
   -4.0709    2.9941   -0.5182 C   0  0  0  0  0  0  0  0  0  0  0  0
   -4.8726    1.7769   -0.9619 C   0  0  0  0  0  0  0  0  0  0  0  0
   -1.6452    2.4410   -0.0823 C   0  0  0  0  0  0  0  0  0  0  0  0
   -0.6088    2.0826    0.7814 C   0  0  0  0  0  0  0  0  0  0  0  0
    1.0839   -0.6357    1.5002 C   0  0  0  0  0  0  0  0  0  0  0  0
   -0.1288   -1.2663    1.1182 C   0  0  0  0  0  0  0  0  0  0  0  0
   -1.3844   -1.2762    1.9641 C   0  0  0  0  0  0  0  0  0  0  0  0
   -1.6555   -2.6652    2.5441 C   0  0  0  0  0  0  0  0  0  0  0  0
   -0.1007   -2.0304   -0.0616 C   0  0  0  0  0  0  0  0  0  0  0  0
   -1.4525   -2.5082   -0.9734 S   0  0  0  0  0  0  0  0  0  0  0  0
   -0.5012   -3.2188   -2.1534 C   0  0  0  0  0  0  0  0  0  0  0  0
   -0.7707   -4.1049   -3.2400 C   0  0  0  0  0  0  0  0  0  0  0  0
    0.4103   -4.7069   -3.5712 C   0  0  0  0  0  0  0  0  0  0  0  0
    1.4406   -4.5309   -2.4501 C   0  0  0  0  0  0  0  0  0  0  0  0
    1.2774   -5.7992   -1.5860 C   0  0  0  0  0  0  0  0  0  0  0  0
    1.5554   -7.0550   -2.1727 C   0  0  0  0  0  0  0  0  0  0  0  0
    1.4287   -8.2370   -1.4431 C   0  0  0  0  0  0  0  0  0  0  0  0
    1.0292   -8.1998   -0.1015 C   0  0  0  0  0  0  0  0  0  0  0  0
    0.9179   -9.4797    0.6874 C   0  0  0  0  0  0  0  0  0  0  0  0
    2.2944   -9.9544    1.1497 C   0  0  0  0  0  0  0  0  0  0  0  0
    0.7810   -6.9578    0.5053 C   0  0  0  0  0  0  0  0  0  0  0  0
    0.8972   -5.7712   -0.2287 C   0  0  0  0  0  0  0  0  0  0  0  0
    2.9139   -4.3962   -2.8417 C   0  0  0  0  0  0  0  0  0  0  0  0
    3.8972   -4.5936   -1.8452 C   0  0  0  0  0  0  0  0  0  0  0  0
    5.2512   -4.4080   -2.1227 C   0  0  0  0  0  0  0  0  0  0  0  0
    5.6647   -4.0075   -3.4002 C   0  0  0  0  0  0  0  0  0  0  0  0
    7.1209   -3.7263   -3.6594 C   0  0  0  0  0  0  0  0  0  0  0  0
    7.5151   -2.3587   -3.1027 C   0  0  0  0  0  0  0  0  0  0  0  0
    4.7023   -3.8041   -4.3982 C   0  0  0  0  0  0  0  0  0  0  0  0
    3.3413   -3.9866   -4.1191 C   0  0  0  0  0  0  0  0  0  0  0  0
    0.8246   -3.2465   -1.8253 C   0  0  0  0  0  0  0  0  0  0  0  0
    1.0953   -2.4042   -0.7100 C   0  0  0  0  0  0  0  0  0  0  0  0
    2.2843   -1.6930   -0.4013 C   0  0  0  0  0  0  0  0  0  0  0  0
    2.2602   -0.8820    0.7543 C   0  0  0  0  0  0  0  0  0  0  0  0
    3.4906    0.1795    1.2419 S   0  0  0  0  0  0  0  0  0  0  0  0
    3.3026   -1.3453   -1.4705 C   0  0  0  0  0  0  0  0  0  0  0  0
    2.9469   -0.0357   -2.1730 C   0  0  0  0  0  0  0  0  0  0  0  0
    0.4658   -5.1395   -4.9026 C   0  0  0  0  0  0  0  0  0  0  0  0
   -0.6514   -4.6925   -5.6258 C   0  0  0  0  0  0  0  0  0  0  0  0
   -1.7288   -3.8927   -4.5857 S   0  0  0  0  0  0  0  0  0  0  0  0
   -0.7952   -4.7829   -7.0922 C   0  0  0  0  0  0  0  0  0  0  0  0
   -1.3318   -3.8188   -7.8587 C   0  0  0  0  0  0  0  0  0  0  0  0
   -1.9027   -4.0761   -9.1760 C   0  0  0  0  0  0  0  0  0  0  0  0
   -1.6131   -5.0335   -9.9440 O   0  0  0  0  0  0  0  0  0  0  0  0
   -2.8919   -3.0457   -9.4455 C   0  0  0  0  0  0  0  0  0  0  0  0
   -3.7611   -2.9285  -10.5295 C   0  0  0  0  0  0  0  0  0  0  0  0
   -4.6869   -1.8713  -10.5292 C   0  0  0  0  0  0  0  0  0  0  0  0
   -5.8044   -1.6846  -11.8679 Cl  0  0  0  0  0  0  0  0  0  0  0  0
   -4.7625   -0.9945   -9.4324 C   0  0  0  0  0  0  0  0  0  0  0  0
   -3.8647   -1.1212   -8.3591 C   0  0  0  0  0  0  0  0  0  0  0  0
   -2.9073   -2.1386   -8.3948 C   0  0  0  0  0  0  0  0  0  0  0  0
   -1.8241   -2.4694   -7.4434 C   0  0  0  0  0  0  0  0  0  0  0  0
   -1.1170   -1.5558   -6.7367 C   0  0  0  0  0  0  0  0  0  0  0  0
   -1.6371   -0.2554   -6.3981 C   0  0  0  0  0  0  0  0  0  0  0  0
   -2.0352    0.7906   -6.0894 N   0  0  0  0  0  0  0  0  0  0  0  0
    0.2605   -1.7822   -6.3700 C   0  0  0  0  0  0  0  0  0  0  0  0
    1.3700   -1.9390   -6.0779 N   0  0  0  0  0  0  0  0  0  0  0  0
    3.2613    6.6022    2.9750 H   0  0  0  0  0  0  0  0  0  0  0  0
   -0.0852   10.7133    4.0651 H   0  0  0  0  0  0  0  0  0  0  0  0
   -3.0063    7.0184    2.0811 H   0  0  0  0  0  0  0  0  0  0  0  0
   -4.7821    9.9773    2.6265 H   0  0  0  0  0  0  0  0  0  0  0  0
   -5.3425    8.0834    4.5769 H   0  0  0  0  0  0  0  0  0  0  0  0
   -6.9041   10.1468    5.1655 H   0  0  0  0  0  0  0  0  0  0  0  0
   -5.4133   12.0368    6.1835 H   0  0  0  0  0  0  0  0  0  0  0  0
   -2.8999   11.1819    6.2335 H   0  0  0  0  0  0  0  0  0  0  0  0
   -4.2600    8.9751    6.8345 H   0  0  0  0  0  0  0  0  0  0  0  0
   -2.9381    8.5626    5.6591 H   0  0  0  0  0  0  0  0  0  0  0  0
   -3.4251   11.7192    3.5542 H   0  0  0  0  0  0  0  0  0  0  0  0
    0.0726    4.4490    3.3011 H   0  0  0  0  0  0  0  0  0  0  0  0
    0.5136   -1.0484    4.3634 H   0  0  0  0  0  0  0  0  0  0  0  0
    0.1014   -1.5861    6.6922 H   0  0  0  0  0  0  0  0  0  0  0  0
   -0.0040   -0.7177    9.0144 H   0  0  0  0  0  0  0  0  0  0  0  0
   -0.5054    0.9717    9.3329 H   0  0  0  0  0  0  0  0  0  0  0  0
   -2.3381   -1.3102    8.3430 H   0  0  0  0  0  0  0  0  0  0  0  0
   -2.2864   -0.6087   10.0070 H   0  0  0  0  0  0  0  0  0  0  0  0
   -2.8566    0.4027    8.6234 H   0  0  0  0  0  0  0  0  0  0  0  0
   -1.0704    2.4892    7.4533 H   0  0  0  0  0  0  0  0  0  0  0  0
   -0.6912    3.0464    5.1068 H   0  0  0  0  0  0  0  0  0  0  0  0
   -2.4242    1.7965    3.6577 H   0  0  0  0  0  0  0  0  0  0  0  0
   -4.2079    2.4756    2.1518 H   0  0  0  0  0  0  0  0  0  0  0  0
   -4.7475    3.7142   -0.0042 H   0  0  0  0  0  0  0  0  0  0  0  0
   -3.6688    3.5112   -1.4178 H   0  0  0  0  0  0  0  0  0  0  0  0
   -5.6776    2.0961   -1.6576 H   0  0  0  0  0  0  0  0  0  0  0  0
   -5.3372    1.2813   -0.0828 H   0  0  0  0  0  0  0  0  0  0  0  0
   -4.2137    1.0496   -1.4825 H   0  0  0  0  0  0  0  0  0  0  0  0
   -1.4286    2.6060   -1.1308 H   0  0  0  0  0  0  0  0  0  0  0  0
    0.3925    2.0008    0.3780 H   0  0  0  0  0  0  0  0  0  0  0  0
   -2.2570   -0.9430    1.3602 H   0  0  0  0  0  0  0  0  0  0  0  0
   -1.3051   -0.5978    2.8201 H   0  0  0  0  0  0  0  0  0  0  0  0
   -0.7398   -3.0695    3.0354 H   0  0  0  0  0  0  0  0  0  0  0  0
   -1.9885   -3.3723    1.7562 H   0  0  0  0  0  0  0  0  0  0  0  0
   -2.4594   -2.5973    3.3113 H   0  0  0  0  0  0  0  0  0  0  0  0
    1.8756   -7.1201   -3.2030 H   0  0  0  0  0  0  0  0  0  0  0  0
    1.6529   -9.1842   -1.9203 H   0  0  0  0  0  0  0  0  0  0  0  0
    0.2621   -9.3378    1.5755 H   0  0  0  0  0  0  0  0  0  0  0  0
    0.4516  -10.2656    0.0561 H   0  0  0  0  0  0  0  0  0  0  0  0
    2.9721  -10.0803    0.2805 H   0  0  0  0  0  0  0  0  0  0  0  0
    2.7349   -9.2200    1.8582 H   0  0  0  0  0  0  0  0  0  0  0  0
    2.1983  -10.9345    1.6602 H   0  0  0  0  0  0  0  0  0  0  0  0
    0.4998   -6.9092    1.5495 H   0  0  0  0  0  0  0  0  0  0  0  0
    0.6995   -4.8405    0.2832 H   0  0  0  0  0  0  0  0  0  0  0  0
    3.6202   -4.8435   -0.8293 H   0  0  0  0  0  0  0  0  0  0  0  0
    5.9779   -4.5435   -1.3337 H   0  0  0  0  0  0  0  0  0  0  0  0
    7.7430   -4.5099   -3.1723 H   0  0  0  0  0  0  0  0  0  0  0  0
    7.3412   -3.7605   -4.7485 H   0  0  0  0  0  0  0  0  0  0  0  0
    8.6088   -2.2082   -3.2174 H   0  0  0  0  0  0  0  0  0  0  0  0
    6.9736   -1.5562   -3.6481 H   0  0  0  0  0  0  0  0  0  0  0  0
    7.2580   -2.2920   -2.0253 H   0  0  0  0  0  0  0  0  0  0  0  0
    4.9973   -3.4799   -5.3875 H   0  0  0  0  0  0  0  0  0  0  0  0
    2.6382   -3.7700   -4.8976 H   0  0  0  0  0  0  0  0  0  0  0  0
    4.3237   -1.2796   -1.0417 H   0  0  0  0  0  0  0  0  0  0  0  0
    3.3386   -2.0916   -2.2569 H   0  0  0  0  0  0  0  0  0  0  0  0
    3.1220    0.8355   -1.5107 H   0  0  0  0  0  0  0  0  0  0  0  0
    3.5710    0.0858   -3.0859 H   0  0  0  0  0  0  0  0  0  0  0  0
    1.8794   -0.0359   -2.4817 H   0  0  0  0  0  0  0  0  0  0  0  0
    1.3156   -5.6391   -5.3474 H   0  0  0  0  0  0  0  0  0  0  0  0
   -0.5243   -5.7271   -7.5507 H   0  0  0  0  0  0  0  0  0  0  0  0
   -3.7210   -3.6325  -11.3513 H   0  0  0  0  0  0  0  0  0  0  0  0
   -5.5113   -0.2131   -9.4153 H   0  0  0  0  0  0  0  0  0  0  0  0
   -3.9704   -0.4697   -7.5116 H   0  0  0  0  0  0  0  0  0  0  0  0
  1  2  2  3
  2  3  1  0
  3  4  2  0
  3  5  1  0
  5  6  2  0
  6  7  1  0
  7  8  2  0
  8  9  1  0
  9 10  2  0
 10 11  1  0
 11 12  2  3
 12 13  1  0
 13 14  3  0
 12 15  1  0
 15 16  3  0
  8 17  1  0
 17 18  1  0
 18 19  1  0
 19 20  2  0
 20 21  1  0
 21 22  1  0
 21 23  1  0
  1 24  1  0
 24 25  1  0
 25 26  1  0
 26 27  1  0
 27 28  2  0
 28 29  1  0
 29 30  1  0
 30 31  1  0
 29 32  1  0
 32 33  2  0
 33 34  1  0
 34 35  2  0
 35 36  1  0
 36 37  1  0
 35 38  1  0
 38 39  2  0
 29 40  1  0
 40 41  2  0
 41 42  1  0
 42 43  2  0
 43 44  1  0
 44 45  1  0
 43 46  1  0
 46 47  2  0
 28 48  1  0
 48 49  2  0
 49 50  1  0
 50 51  1  0
 49 52  1  0
 52 53  1  0
 53 54  1  0
 54 55  1  0
 55 56  2  0
 56 57  1  0
 57 58  1  0
 58 59  2  0
 59 60  1  0
 60 61  2  0
 61 62  1  0
 62 63  1  0
 61 64  1  0
 64 65  2  0
 57 66  1  0
 66 67  2  0
 67 68  1  0
 68 69  2  0
 69 70  1  0
 70 71  1  0
 69 72  1  0
 72 73  2  0
 57 74  1  0
 74 75  1  0
 75 76  1  0
 76 77  2  0
 77 78  1  0
 76 79  1  0
 79 80  1  0
 56 81  1  0
 81 82  2  0
 82 83  1  0
 82 84  1  0
 84 85  2  3
 85 86  1  0
 86 87  2  0
 86 88  1  0
 88 89  2  0
 89 90  1  0
 90 91  1  0
 90 92  2  0
 92 93  1  0
 93 94  2  0
 94 95  1  0
 95 96  2  3
 96 97  1  0
 97 98  3  0
 96 99  1  0
 99100  3  0
 11  2  1  0
 23 17  1  0
 31 24  2  0
 39 32  1  0
 47 40  1  0
 77 48  1  0
 95 85  1  0
 10  5  1  0
 22 18  1  0
 30 26  2  0
 75 52  2  0
 94 88  1  0
 23  7  1  0
 78 27  1  0
 74 54  2  0
 83 55  1  0
 65 58  1  0
 73 66  1  0
  1101  1  0
  6102  1  0
  9103  1  0
 17104  1  0
 18105  1  0
 19106  1  0
 20107  1  0
 21108  1  0
 22109  1  0
 22110  1  0
 23111  1  0
 31112  1  0
 33113  1  0
 34114  1  0
 36115  1  0
 36116  1  0
 37117  1  0
 37118  1  0
 37119  1  0
 38120  1  0
 39121  1  0
 41122  1  0
 42123  1  0
 44124  1  0
 44125  1  0
 45126  1  0
 45127  1  0
 45128  1  0
 46129  1  0
 47130  1  0
 50131  1  0
 50132  1  0
 51133  1  0
 51134  1  0
 51135  1  0
 59136  1  0
 60137  1  0
 62138  1  0
 62139  1  0
 63140  1  0
 63141  1  0
 63142  1  0
 64143  1  0
 65144  1  0
 67145  1  0
 68146  1  0
 70147  1  0
 70148  1  0
 71149  1  0
 71150  1  0
 71151  1  0
 72152  1  0
 73153  1  0
 79154  1  0
 79155  1  0
 80156  1  0
 80157  1  0
 80158  1  0
 81159  1  0
 84160  1  0
 89161  1  0
 92162  1  0
 93163  1  0
M  END

