
     RDKit          3D

163182  0  0  0  0  0  0  0  0999 V2000
   -0.8587    6.0881   -3.5488 C   0  0  0  0  0  0  0  0  0  0  0  0
   -1.6860    6.1990   -2.4887 C   0  0  0  0  0  0  0  0  0  0  0  0
   -1.3811    5.8029   -1.1052 C   0  0  0  0  0  0  0  0  0  0  0  0
   -0.2399    5.6672   -0.5959 O   0  0  0  0  0  0  0  0  0  0  0  0
   -2.6238    5.5509   -0.4047 C   0  0  0  0  0  0  0  0  0  0  0  0
   -2.7835    5.0412    0.9030 C   0  0  0  0  0  0  0  0  0  0  0  0
   -4.0924    4.7367    1.2306 C   0  0  0  0  0  0  0  0  0  0  0  0
   -5.1802    4.8796    0.3094 C   0  0  0  0  0  0  0  0  0  0  0  0
   -5.0317    5.3792   -0.9726 C   0  0  0  0  0  0  0  0  0  0  0  0
   -3.7038    5.7714   -1.3007 C   0  0  0  0  0  0  0  0  0  0  0  0
   -3.1733    6.3321   -2.5727 C   0  0  0  0  0  0  0  0  0  0  0  0
   -3.8804    7.0080   -3.5174 C   0  0  0  0  0  0  0  0  0  0  0  0
   -5.3026    7.1957   -3.4222 C   0  0  0  0  0  0  0  0  0  0  0  0
   -6.4455    7.3571   -3.3561 N   0  0  0  0  0  0  0  0  0  0  0  0
   -3.2367    7.7170   -4.5897 C   0  0  0  0  0  0  0  0  0  0  0  0
   -2.7241    8.2947   -5.4534 N   0  0  0  0  0  0  0  0  0  0  0  0
   -6.1275    4.2923    1.3094 C   0  0  0  0  0  0  0  0  0  0  0  0
   -6.5902    2.8131    1.1161 C   0  0  0  0  0  0  0  0  0  0  0  0
   -5.4900    2.0099    0.4487 C   0  0  0  0  0  0  0  0  0  0  0  0
   -4.5017    1.9073    1.3361 C   0  0  0  0  0  0  0  0  0  0  0  0
   -4.9509    2.6520    2.5696 C   0  0  0  0  0  0  0  0  0  0  0  0
   -6.4260    2.3042    2.5343 C   0  0  0  0  0  0  0  0  0  0  0  0
   -5.0252    4.1799    2.2697 C   0  0  0  0  0  0  0  0  0  0  0  0
    0.4626    5.4479   -3.4982 C   0  0  0  0  0  0  0  0  0  0  0  0
    1.5979    5.8465   -2.7911 C   0  0  0  0  0  0  0  0  0  0  0  0
    2.6028    4.8837   -2.8898 C   0  0  0  0  0  0  0  0  0  0  0  0
    3.8372    4.5191   -1.8203 S   0  0  0  0  0  0  0  0  0  0  0  0
    4.0289    2.9216   -2.3790 C   0  0  0  0  0  0  0  0  0  0  0  0
    3.8951    1.7609   -1.4960 C   0  0  0  0  0  0  0  0  0  0  0  0
    2.9800    0.9042   -2.1049 C   0  0  0  0  0  0  0  0  0  0  0  0
    2.9258    1.1753   -3.6046 C   0  0  0  0  0  0  0  0  0  0  0  0
    4.1341    0.5096   -4.2844 C   0  0  0  0  0  0  0  0  0  0  0  0
    4.6670    1.0506   -5.4724 C   0  0  0  0  0  0  0  0  0  0  0  0
    5.6817    0.3860   -6.1715 C   0  0  0  0  0  0  0  0  0  0  0  0
    6.1794   -0.8430   -5.7060 C   0  0  0  0  0  0  0  0  0  0  0  0
    7.2618   -1.5589   -6.4717 C   0  0  0  0  0  0  0  0  0  0  0  0
    6.9345   -3.0408   -6.7175 C   0  0  0  0  0  0  0  0  0  0  0  0
    5.6715   -1.3778   -4.5103 C   0  0  0  0  0  0  0  0  0  0  0  0
    4.6445   -0.7269   -3.8234 C   0  0  0  0  0  0  0  0  0  0  0  0
    1.6931    0.6769   -4.3778 C   0  0  0  0  0  0  0  0  0  0  0  0
    1.1677   -0.6136   -4.1486 C   0  0  0  0  0  0  0  0  0  0  0  0
    0.0270   -1.0537   -4.8191 C   0  0  0  0  0  0  0  0  0  0  0  0
   -0.5411   -0.2722   -5.8274 C   0  0  0  0  0  0  0  0  0  0  0  0
   -1.8269   -0.6885   -6.4842 C   0  0  0  0  0  0  0  0  0  0  0  0
   -1.5782   -1.2874   -7.8610 C   0  0  0  0  0  0  0  0  0  0  0  0
    0.1330    0.8811   -6.2483 C   0  0  0  0  0  0  0  0  0  0  0  0
    1.2724    1.3189   -5.5633 C   0  0  0  0  0  0  0  0  0  0  0  0
    3.1805    2.6800   -3.4723 C   0  0  0  0  0  0  0  0  0  0  0  0
    2.3198    3.7829   -3.6630 C   0  0  0  0  0  0  0  0  0  0  0  0
    0.7448    3.9471   -4.2087 S   0  0  0  0  0  0  0  0  0  0  0  0
    2.0395    0.2558   -1.2989 C   0  0  0  0  0  0  0  0  0  0  0  0
    2.2299    0.2103    0.0848 C   0  0  0  0  0  0  0  0  0  0  0  0
    1.2695   -0.4741    0.9388 C   0  0  0  0  0  0  0  0  0  0  0  0
    1.5911   -0.8657    2.2357 C   0  0  0  0  0  0  0  0  0  0  0  0
    2.9066   -0.4505    2.9003 C   0  0  0  0  0  0  0  0  0  0  0  0
    3.6463    0.6218    2.0545 C   0  0  0  0  0  0  0  0  0  0  0  0
    3.3536    0.8165    0.6767 C   0  0  0  0  0  0  0  0  0  0  0  0
    4.1456    1.6932   -0.1124 C   0  0  0  0  0  0  0  0  0  0  0  0
    5.1700    2.4316    0.4894 C   0  0  0  0  0  0  0  0  0  0  0  0
    5.4344    2.2772    1.8509 C   0  0  0  0  0  0  0  0  0  0  0  0
    4.7012    1.3693    2.6202 C   0  0  0  0  0  0  0  0  0  0  0  0
    2.4920    0.1250    4.2690 C   0  0  0  0  0  0  0  0  0  0  0  0
    2.4330   -0.6765    5.4300 C   0  0  0  0  0  0  0  0  0  0  0  0
    1.9522   -0.1630    6.6369 C   0  0  0  0  0  0  0  0  0  0  0  0
    1.5009    1.1592    6.7141 C   0  0  0  0  0  0  0  0  0  0  0  0
    0.9536    1.7169    8.0048 C   0  0  0  0  0  0  0  0  0  0  0  0
   -0.5565    1.9944    7.9215 C   0  0  0  0  0  0  0  0  0  0  0  0
    1.5238    1.9557    5.5641 C   0  0  0  0  0  0  0  0  0  0  0  0
    1.9956    1.4428    4.3564 C   0  0  0  0  0  0  0  0  0  0  0  0
    3.8700   -1.6532    2.9739 C   0  0  0  0  0  0  0  0  0  0  0  0
    3.8358   -2.6714    1.9926 C   0  0  0  0  0  0  0  0  0  0  0  0
    4.7590   -3.7220    2.0120 C   0  0  0  0  0  0  0  0  0  0  0  0
    5.7424   -3.7847    3.0090 C   0  0  0  0  0  0  0  0  0  0  0  0
    6.7161   -4.9322    3.0493 C   0  0  0  0  0  0  0  0  0  0  0  0
    8.0935   -4.5127    2.5505 C   0  0  0  0  0  0  0  0  0  0  0  0
    5.8387   -2.7415    3.9405 C   0  0  0  0  0  0  0  0  0  0  0  0
    4.9291   -1.6846    3.9103 C   0  0  0  0  0  0  0  0  0  0  0  0
    0.5992   -1.7376    2.7184 C   0  0  0  0  0  0  0  0  0  0  0  0
   -0.4712   -1.8885    1.8895 C   0  0  0  0  0  0  0  0  0  0  0  0
   -0.2436   -1.0763    0.4552 S   0  0  0  0  0  0  0  0  0  0  0  0
   -1.3836   -2.8597    2.2286 C   0  0  0  0  0  0  0  0  0  0  0  0
   -0.9696   -3.5549    3.3682 C   0  0  0  0  0  0  0  0  0  0  0  0
    0.5012   -2.8955    3.9472 S   0  0  0  0  0  0  0  0  0  0  0  0
   -1.5968   -4.8222    3.7868 C   0  0  0  0  0  0  0  0  0  0  0  0
   -1.8756   -5.7656    2.8591 C   0  0  0  0  0  0  0  0  0  0  0  0
   -1.2553   -5.8043    1.5295 C   0  0  0  0  0  0  0  0  0  0  0  0
   -0.0641   -5.4810    1.2563 O   0  0  0  0  0  0  0  0  0  0  0  0
   -2.2580   -6.1838    0.5627 C   0  0  0  0  0  0  0  0  0  0  0  0
   -2.1748   -6.0831   -0.8230 C   0  0  0  0  0  0  0  0  0  0  0  0
   -3.3402   -6.2859   -1.5787 C   0  0  0  0  0  0  0  0  0  0  0  0
   -3.3068   -6.1574   -2.9767 C   0  0  0  0  0  0  0  0  0  0  0  0
   -4.4800   -6.2947   -3.7217 C   0  0  0  0  0  0  0  0  0  0  0  0
   -4.4444   -6.1563   -5.0721 F   0  0  0  0  0  0  0  0  0  0  0  0
   -5.6996   -6.5673   -3.0759 C   0  0  0  0  0  0  0  0  0  0  0  0
   -6.8355   -6.6782   -3.8102 F   0  0  0  0  0  0  0  0  0  0  0  0
   -5.7452   -6.7025   -1.6881 C   0  0  0  0  0  0  0  0  0  0  0  0
   -4.5731   -6.5652   -0.9222 C   0  0  0  0  0  0  0  0  0  0  0  0
   -4.6221   -6.6534    0.4842 C   0  0  0  0  0  0  0  0  0  0  0  0
   -3.4398   -6.4796    1.2199 C   0  0  0  0  0  0  0  0  0  0  0  0
   -3.2146   -6.3964    2.6896 C   0  0  0  0  0  0  0  0  0  0  0  0
   -3.9771   -6.9342    3.6747 C   0  0  0  0  0  0  0  0  0  0  0  0
   -3.4319   -7.1127    4.9944 C   0  0  0  0  0  0  0  0  0  0  0  0
   -2.9613   -7.3040    6.0281 N   0  0  0  0  0  0  0  0  0  0  0  0
   -5.1903   -7.6529    3.3815 C   0  0  0  0  0  0  0  0  0  0  0  0
   -6.1613   -8.2396    3.1471 N   0  0  0  0  0  0  0  0  0  0  0  0
   -1.2694    6.1667   -4.5436 H   0  0  0  0  0  0  0  0  0  0  0  0
   -1.9566    4.8601    1.5760 H   0  0  0  0  0  0  0  0  0  0  0  0
   -5.8632    5.4240   -1.6555 H   0  0  0  0  0  0  0  0  0  0  0  0
   -6.9332    4.9897    1.6389 H   0  0  0  0  0  0  0  0  0  0  0  0
   -7.5961    2.6870    0.6690 H   0  0  0  0  0  0  0  0  0  0  0  0
   -5.5253    1.5139   -0.5156 H   0  0  0  0  0  0  0  0  0  0  0  0
   -3.5927    1.3295    1.2080 H   0  0  0  0  0  0  0  0  0  0  0  0
   -4.4089    2.3719    3.5031 H   0  0  0  0  0  0  0  0  0  0  0  0
   -7.0308    2.8739    3.2833 H   0  0  0  0  0  0  0  0  0  0  0  0
   -6.6297    1.2152    2.6451 H   0  0  0  0  0  0  0  0  0  0  0  0
   -5.1443    4.8263    3.1674 H   0  0  0  0  0  0  0  0  0  0  0  0
    1.6512    6.7217   -2.1522 H   0  0  0  0  0  0  0  0  0  0  0  0
    4.2887    1.9837   -5.8664 H   0  0  0  0  0  0  0  0  0  0  0  0
    6.0708    0.8337   -7.0781 H   0  0  0  0  0  0  0  0  0  0  0  0
    8.2184   -1.4881   -5.9044 H   0  0  0  0  0  0  0  0  0  0  0  0
    7.4270   -1.0673   -7.4545 H   0  0  0  0  0  0  0  0  0  0  0  0
    5.8421   -3.2344   -6.6841 H   0  0  0  0  0  0  0  0  0  0  0  0
    7.4287   -3.6654   -5.9442 H   0  0  0  0  0  0  0  0  0  0  0  0
    7.3172   -3.3565   -7.7069 H   0  0  0  0  0  0  0  0  0  0  0  0
    6.0467   -2.3197   -4.1282 H   0  0  0  0  0  0  0  0  0  0  0  0
    4.2410   -1.2025   -2.9422 H   0  0  0  0  0  0  0  0  0  0  0  0
    1.6432   -1.2903   -3.4545 H   0  0  0  0  0  0  0  0  0  0  0  0
   -0.4133   -2.0092   -4.5505 H   0  0  0  0  0  0  0  0  0  0  0  0
   -2.4935    0.1992   -6.5730 H   0  0  0  0  0  0  0  0  0  0  0  0
   -2.3651   -1.4320   -5.8528 H   0  0  0  0  0  0  0  0  0  0  0  0
   -0.8462   -2.1180   -7.8053 H   0  0  0  0  0  0  0  0  0  0  0  0
   -2.5352   -1.6743   -8.2791 H   0  0  0  0  0  0  0  0  0  0  0  0
   -1.2043   -0.5012   -8.5489 H   0  0  0  0  0  0  0  0  0  0  0  0
   -0.2264    1.4495   -7.0980 H   0  0  0  0  0  0  0  0  0  0  0  0
    1.8127    2.1724   -5.9504 H   0  0  0  0  0  0  0  0  0  0  0  0
    1.1333   -0.1505   -1.7015 H   0  0  0  0  0  0  0  0  0  0  0  0
    5.7868    3.1002   -0.0940 H   0  0  0  0  0  0  0  0  0  0  0  0
    6.2364    2.8361    2.3086 H   0  0  0  0  0  0  0  0  0  0  0  0
    4.9520    1.2576    3.6669 H   0  0  0  0  0  0  0  0  0  0  0  0
    2.7350   -1.7150    5.4052 H   0  0  0  0  0  0  0  0  0  0  0  0
    1.9227   -0.8065    7.5085 H   0  0  0  0  0  0  0  0  0  0  0  0
    1.1473    1.0104    8.8444 H   0  0  0  0  0  0  0  0  0  0  0  0
    1.4931    2.6610    8.2446 H   0  0  0  0  0  0  0  0  0  0  0  0
   -1.0830    1.4954    8.7604 H   0  0  0  0  0  0  0  0  0  0  0  0
   -0.9996    1.6224    6.9699 H   0  0  0  0  0  0  0  0  0  0  0  0
   -0.7468    3.0896    8.0022 H   0  0  0  0  0  0  0  0  0  0  0  0
    1.1519    2.9703    5.5972 H   0  0  0  0  0  0  0  0  0  0  0  0
    1.9530    2.0767    3.4811 H   0  0  0  0  0  0  0  0  0  0  0  0
    3.1062   -2.6596    1.1943 H   0  0  0  0  0  0  0  0  0  0  0  0
    4.6955   -4.4930    1.2531 H   0  0  0  0  0  0  0  0  0  0  0  0
    6.3509   -5.7809    2.4242 H   0  0  0  0  0  0  0  0  0  0  0  0
    6.7990   -5.3097    4.0943 H   0  0  0  0  0  0  0  0  0  0  0  0
    8.0274   -4.1189    1.5161 H   0  0  0  0  0  0  0  0  0  0  0  0
    8.7716   -5.3890    2.5560 H   0  0  0  0  0  0  0  0  0  0  0  0
    8.5243   -3.7287    3.2149 H   0  0  0  0  0  0  0  0  0  0  0  0
    6.6215   -2.7509    4.6908 H   0  0  0  0  0  0  0  0  0  0  0  0
    5.0458   -0.8896    4.6358 H   0  0  0  0  0  0  0  0  0  0  0  0
   -2.2269   -3.1456    1.6119 H   0  0  0  0  0  0  0  0  0  0  0  0
   -2.1611   -4.7963    4.7135 H   0  0  0  0  0  0  0  0  0  0  0  0
   -1.2380   -5.8070   -1.3022 H   0  0  0  0  0  0  0  0  0  0  0  0
   -2.3769   -5.9444   -3.4917 H   0  0  0  0  0  0  0  0  0  0  0  0
   -6.6943   -6.8990   -1.2036 H   0  0  0  0  0  0  0  0  0  0  0  0
   -5.5760   -6.7878    0.9728 H   0  0  0  0  0  0  0  0  0  0  0  0
  1  2  2  3
  2  3  1  0
  3  4  2  0
  3  5  1  0
  5  6  2  0
  6  7  1  0
  7  8  2  0
  8  9  1  0
  9 10  2  0
 10 11  1  0
 11 12  2  3
 12 13  1  0
 13 14  3  0
 12 15  1  0
 15 16  3  0
  8 17  1  0
 17 18  1  0
 18 19  1  0
 19 20  2  0
 20 21  1  0
 21 22  1  0
 21 23  1  0
  1 24  1  0
 24 25  2  0
 25 26  1  0
 26 27  1  0
 27 28  1  0
 28 29  1  0
 29 30  2  0
 30 31  1  0
 31 32  1  0
 32 33  2  0
 33 34  1  0
 34 35  2  0
 35 36  1  0
 36 37  1  0
 35 38  1  0
 38 39  2  0
 31 40  1  0
 40 41  2  0
 41 42  1  0
 42 43  2  0
 43 44  1  0
 44 45  1  0
 43 46  1  0
 46 47  2  0
 31 48  1  0
 48 49  1  0
 49 50  1  0
 30 51  1  0
 51 52  2  0
 52 53  1  0
 53 54  2  0
 54 55  1  0
 55 56  1  0
 56 57  1  0
 57 58  2  0
 58 59  1  0
 59 60  2  0
 60 61  1  0
 55 62  1  0
 62 63  2  0
 63 64  1  0
 64 65  2  0
 65 66  1  0
 66 67  1  0
 65 68  1  0
 68 69  2  0
 55 70  1  0
 70 71  2  0
 71 72  1  0
 72 73  2  0
 73 74  1  0
 74 75  1  0
 73 76  1  0
 76 77  2  0
 54 78  1  0
 78 79  2  0
 79 80  1  0
 79 81  1  0
 81 82  2  0
 82 83  1  0
 82 84  1  0
 84 85  2  3
 85 86  1  0
 86 87  2  0
 86 88  1  0
 88 89  2  0
 89 90  1  0
 90 91  2  0
 91 92  1  0
 92 93  1  0
 92 94  2  0
 94 95  1  0
 94 96  1  0
 96 97  2  0
 97 98  1  0
 98 99  2  0
 99100  1  0
100101  2  3
101102  1  0
102103  3  0
101104  1  0
104105  3  0
 11  2  1  0
 23 17  1  0
 50 24  1  0
 57 52  1  0
 69 62  1  0
 77 70  1  0
 83 78  1  0
100 85  1  0
 10  5  1  0
 22 18  1  0
 49 26  2  0
 80 53  1  0
 99 88  1  0
 23  7  1  0
 48 28  2  0
 61 56  2  0
 97 90  1  0
 58 29  1  0
 39 32  1  0
 47 40  1  0
  1106  1  0
  6107  1  0
  9108  1  0
 17109  1  0
 18110  1  0
 19111  1  0
 20112  1  0
 21113  1  0
 22114  1  0
 22115  1  0
 23116  1  0
 25117  1  0
 33118  1  0
 34119  1  0
 36120  1  0
 36121  1  0
 37122  1  0
 37123  1  0
 37124  1  0
 38125  1  0
 39126  1  0
 41127  1  0
 42128  1  0
 44129  1  0
 44130  1  0
 45131  1  0
 45132  1  0
 45133  1  0
 46134  1  0
 47135  1  0
 51136  1  0
 59137  1  0
 60138  1  0
 61139  1  0
 63140  1  0
 64141  1  0
 66142  1  0
 66143  1  0
 67144  1  0
 67145  1  0
 67146  1  0
 68147  1  0
 69148  1  0
 71149  1  0
 72150  1  0
 74151  1  0
 74152  1  0
 75153  1  0
 75154  1  0
 75155  1  0
 76156  1  0
 77157  1  0
 81158  1  0
 84159  1  0
 89160  1  0
 91161  1  0
 96162  1  0
 98163  1  0
M  END

