
     RDKit          3D

130147  0  0  0  0  0  0  0  0999 V2000
    3.6166    3.9283   -9.0021 C   0  0  0  0  0  0  0  0  0  0  0  0
    2.6128    4.2906   -9.8235 C   0  0  0  0  0  0  0  0  0  0  0  0
    1.2892    4.7546   -9.3890 C   0  0  0  0  0  0  0  0  0  0  0  0
    1.0234    5.3244   -8.2970 O   0  0  0  0  0  0  0  0  0  0  0  0
    0.3399    4.5210  -10.4514 C   0  0  0  0  0  0  0  0  0  0  0  0
   -1.0677    4.6643  -10.3834 C   0  0  0  0  0  0  0  0  0  0  0  0
   -1.7254    4.2382  -11.5191 C   0  0  0  0  0  0  0  0  0  0  0  0
   -1.0508    3.6866  -12.6545 C   0  0  0  0  0  0  0  0  0  0  0  0
    0.3258    3.5404  -12.7257 C   0  0  0  0  0  0  0  0  0  0  0  0
    1.0306    4.0053  -11.5792 C   0  0  0  0  0  0  0  0  0  0  0  0
    2.4966    3.9831  -11.2837 C   0  0  0  0  0  0  0  0  0  0  0  0
    3.5112    3.8808  -12.1814 C   0  0  0  0  0  0  0  0  0  0  0  0
    3.2815    3.6362  -13.5809 C   0  0  0  0  0  0  0  0  0  0  0  0
    3.1132    3.4338  -14.7094 N   0  0  0  0  0  0  0  0  0  0  0  0
    4.8804    4.1435  -11.8249 C   0  0  0  0  0  0  0  0  0  0  0  0
    5.9864    4.3558  -11.5538 N   0  0  0  0  0  0  0  0  0  0  0  0
   -2.3648    3.4451  -13.3379 C   0  0  0  0  0  0  0  0  0  0  0  0
   -2.9047    1.9823  -13.3912 C   0  0  0  0  0  0  0  0  0  0  0  0
   -2.4373    1.2126  -12.1799 C   0  0  0  0  0  0  0  0  0  0  0  0
   -3.0694    1.7347  -11.1271 C   0  0  0  0  0  0  0  0  0  0  0  0
   -3.9416    2.8491  -11.6571 C   0  0  0  0  0  0  0  0  0  0  0  0
   -4.3471    2.2194  -12.9787 C   0  0  0  0  0  0  0  0  0  0  0  0
   -3.0536    4.0222  -12.1778 C   0  0  0  0  0  0  0  0  0  0  0  0
    3.4209    3.6559   -7.5652 C   0  0  0  0  0  0  0  0  0  0  0  0
    2.0753    2.8326   -6.9445 S   0  0  0  0  0  0  0  0  0  0  0  0
    2.7125    2.6247   -5.4181 C   0  0  0  0  0  0  0  0  0  0  0  0
    2.1325    2.0124   -4.3098 C   0  0  0  0  0  0  0  0  0  0  0  0
    0.5282    1.4872   -4.1850 S   0  0  0  0  0  0  0  0  0  0  0  0
    0.7758    1.0068   -2.6034 C   0  0  0  0  0  0  0  0  0  0  0  0
   -0.0119    0.6506   -1.5627 C   0  0  0  0  0  0  0  0  0  0  0  0
   -1.4017    0.7373   -1.4250 C   0  0  0  0  0  0  0  0  0  0  0  0
   -1.9649    0.6225   -0.1252 C   0  0  0  0  0  0  0  0  0  0  0  0
   -3.3117    0.7494   -0.0204 N   0  0  0  0  0  0  0  0  0  0  0  0
   -3.6885    1.0346   -1.6112 S   0  0  0  0  0  0  0  0  0  0  0  0
   -2.2566    1.0030   -2.4455 N   0  0  0  0  0  0  0  0  0  0  0  0
   -1.1086    0.3789    0.9516 C   0  0  0  0  0  0  0  0  0  0  0  0
   -1.3916    0.0006    2.2219 C   0  0  0  0  0  0  0  0  0  0  0  0
   -2.7918   -0.3857    3.0687 S   0  0  0  0  0  0  0  0  0  0  0  0
   -1.8927   -1.1787    4.2671 C   0  0  0  0  0  0  0  0  0  0  0  0
   -2.3909   -1.8472    5.3918 C   0  0  0  0  0  0  0  0  0  0  0  0
   -1.5392   -2.5169    6.2680 C   0  0  0  0  0  0  0  0  0  0  0  0
   -0.1690   -2.5016    5.9903 C   0  0  0  0  0  0  0  0  0  0  0  0
    0.8409   -3.0772    6.6591 N   0  0  0  0  0  0  0  0  0  0  0  0
    1.9300   -2.7663    5.9590 N   0  0  0  0  0  0  0  0  0  0  0  0
    3.2728   -3.1844    6.3435 C   0  0  0  0  0  0  0  0  0  0  0  0
    3.8515   -2.2203    7.3681 C   0  0  0  0  0  0  0  0  0  0  0  0
    1.6717   -2.0157    4.8889 N   0  0  0  0  0  0  0  0  0  0  0  0
    0.3396   -1.8510    4.8908 C   0  0  0  0  0  0  0  0  0  0  0  0
   -0.5053   -1.1790    3.9825 C   0  0  0  0  0  0  0  0  0  0  0  0
   -0.2547   -0.4865    2.7796 C   0  0  0  0  0  0  0  0  0  0  0  0
    0.7909   -0.4385    1.8985 N   0  0  0  0  0  0  0  0  0  0  0  0
    0.2720    0.2052    0.8000 C   0  0  0  0  0  0  0  0  0  0  0  0
    0.8536    0.4774   -0.4754 C   0  0  0  0  0  0  0  0  0  0  0  0
    2.1357    0.8708   -0.8143 N   0  0  0  0  0  0  0  0  0  0  0  0
    2.0318    1.2205   -2.1366 C   0  0  0  0  0  0  0  0  0  0  0  0
    2.8422    1.8869   -3.0889 C   0  0  0  0  0  0  0  0  0  0  0  0
    4.1114    2.5123   -3.0294 C   0  0  0  0  0  0  0  0  0  0  0  0
    4.6670    3.1149   -4.1404 C   0  0  0  0  0  0  0  0  0  0  0  0
    3.9896    3.1673   -5.3638 C   0  0  0  0  0  0  0  0  0  0  0  0
    4.4069    3.7427   -6.5739 C   0  0  0  0  0  0  0  0  0  0  0  0
    5.8050    3.7250   -3.7854 N   0  0  0  0  0  0  0  0  0  0  0  0
    5.9226    3.4836   -2.4808 N   0  0  0  0  0  0  0  0  0  0  0  0
    6.9729    4.0642   -1.6535 C   0  0  0  0  0  0  0  0  0  0  0  0
    6.5969    5.4877   -1.2633 C   0  0  0  0  0  0  0  0  0  0  0  0
    4.9069    2.7804   -1.9831 N   0  0  0  0  0  0  0  0  0  0  0  0
    3.2539    1.1678    0.0860 C   0  0  0  0  0  0  0  0  0  0  0  0
    4.4812    0.3053   -0.2367 C   0  0  0  0  0  0  0  0  0  0  0  0
    1.9180   -1.3838    1.8610 C   0  0  0  0  0  0  0  0  0  0  0  0
    1.4425   -2.8304    1.7240 C   0  0  0  0  0  0  0  0  0  0  0  0
   -2.2060   -3.1454    7.3260 C   0  0  0  0  0  0  0  0  0  0  0  0
   -3.5915   -2.9406    7.2672 C   0  0  0  0  0  0  0  0  0  0  0  0
   -3.9762   -2.0322    5.8969 S   0  0  0  0  0  0  0  0  0  0  0  0
   -4.6080   -3.5159    8.1651 C   0  0  0  0  0  0  0  0  0  0  0  0
   -4.5200   -3.5689    9.5119 C   0  0  0  0  0  0  0  0  0  0  0  0
   -5.5418   -4.2934   10.2942 C   0  0  0  0  0  0  0  0  0  0  0  0
   -6.6336   -4.6204    9.7474 O   0  0  0  0  0  0  0  0  0  0  0  0
   -5.2931   -4.6272   11.6755 N   0  0  0  0  0  0  0  0  0  0  0  0
   -6.3939   -5.1602   12.4988 C   0  0  0  0  0  0  0  0  0  0  0  0
   -7.0837   -4.0304   13.2565 C   0  0  0  0  0  0  0  0  0  0  0  0
   -4.0062   -4.3069   12.2590 C   0  0  0  0  0  0  0  0  0  0  0  0
   -3.4878   -5.1194   13.5936 S   0  0  0  0  0  0  0  0  0  0  0  0
   -3.1494   -3.3285   11.6204 N   0  0  0  0  0  0  0  0  0  0  0  0
   -1.9114   -2.8393   12.2581 C   0  0  0  0  0  0  0  0  0  0  0  0
   -0.7111   -3.6562   11.7880 C   0  0  0  0  0  0  0  0  0  0  0  0
   -3.4663   -2.8819   10.2873 C   0  0  0  0  0  0  0  0  0  0  0  0
   -2.8877   -1.8662    9.8088 O   0  0  0  0  0  0  0  0  0  0  0  0
    4.5589    3.5962   -9.4002 H   0  0  0  0  0  0  0  0  0  0  0  0
   -1.5912    5.0327   -9.5125 H   0  0  0  0  0  0  0  0  0  0  0  0
    0.7815    3.0626  -13.5757 H   0  0  0  0  0  0  0  0  0  0  0  0
   -2.5030    4.0317  -14.2737 H   0  0  0  0  0  0  0  0  0  0  0  0
   -2.7659    1.4656  -14.3634 H   0  0  0  0  0  0  0  0  0  0  0  0
   -1.7840    0.3464  -12.1633 H   0  0  0  0  0  0  0  0  0  0  0  0
   -3.0163    1.3660  -10.1071 H   0  0  0  0  0  0  0  0  0  0  0  0
   -4.7800    3.1477  -10.9909 H   0  0  0  0  0  0  0  0  0  0  0  0
   -4.8911    2.9206  -13.6579 H   0  0  0  0  0  0  0  0  0  0  0  0
   -4.9378    1.2770  -12.8607 H   0  0  0  0  0  0  0  0  0  0  0  0
   -3.6014    4.9637  -12.4077 H   0  0  0  0  0  0  0  0  0  0  0  0
    3.2321   -4.2060    6.7799 H   0  0  0  0  0  0  0  0  0  0  0  0
    3.9296   -3.2157    5.4463 H   0  0  0  0  0  0  0  0  0  0  0  0
    3.9726   -1.2089    6.9206 H   0  0  0  0  0  0  0  0  0  0  0  0
    3.1786   -2.1500    8.2524 H   0  0  0  0  0  0  0  0  0  0  0  0
    4.8464   -2.5886    7.7018 H   0  0  0  0  0  0  0  0  0  0  0  0
    5.3885    4.1709   -6.7317 H   0  0  0  0  0  0  0  0  0  0  0  0
    7.9315    4.0719   -2.2168 H   0  0  0  0  0  0  0  0  0  0  0  0
    7.1138    3.4537   -0.7346 H   0  0  0  0  0  0  0  0  0  0  0  0
    6.4532    6.1090   -2.1708 H   0  0  0  0  0  0  0  0  0  0  0  0
    5.6538    5.4841   -0.6748 H   0  0  0  0  0  0  0  0  0  0  0  0
    7.4043    5.9354   -0.6466 H   0  0  0  0  0  0  0  0  0  0  0  0
    3.5122    2.2439    0.0170 H   0  0  0  0  0  0  0  0  0  0  0  0
    2.9633    1.0084    1.1392 H   0  0  0  0  0  0  0  0  0  0  0  0
    4.8092    0.4283   -1.2835 H   0  0  0  0  0  0  0  0  0  0  0  0
    5.3215    0.5794    0.4376 H   0  0  0  0  0  0  0  0  0  0  0  0
    4.2755   -0.7738   -0.1220 H   0  0  0  0  0  0  0  0  0  0  0  0
    2.5175   -1.2133    0.9656 H   0  0  0  0  0  0  0  0  0  0  0  0
    2.5760   -1.2402    2.7394 H   0  0  0  0  0  0  0  0  0  0  0  0
    0.7722   -3.1394    2.5490 H   0  0  0  0  0  0  0  0  0  0  0  0
    0.9001   -2.9584    0.7600 H   0  0  0  0  0  0  0  0  0  0  0  0
    2.3280   -3.5051    1.7262 H   0  0  0  0  0  0  0  0  0  0  0  0
   -1.7108   -3.7319    8.0911 H   0  0  0  0  0  0  0  0  0  0  0  0
   -5.4813   -3.9243    7.6728 H   0  0  0  0  0  0  0  0  0  0  0  0
   -7.1456   -5.6821   11.8720 H   0  0  0  0  0  0  0  0  0  0  0  0
   -6.0227   -5.9197   13.2184 H   0  0  0  0  0  0  0  0  0  0  0  0
   -7.4610   -3.2685   12.5407 H   0  0  0  0  0  0  0  0  0  0  0  0
   -6.3743   -3.5510   13.9623 H   0  0  0  0  0  0  0  0  0  0  0  0
   -7.9437   -4.4307   13.8342 H   0  0  0  0  0  0  0  0  0  0  0  0
   -1.9886   -2.8822   13.3639 H   0  0  0  0  0  0  0  0  0  0  0  0
   -1.7422   -1.7697   12.0109 H   0  0  0  0  0  0  0  0  0  0  0  0
   -0.8310   -4.7198   12.0871 H   0  0  0  0  0  0  0  0  0  0  0  0
    0.2153   -3.2558   12.2473 H   0  0  0  0  0  0  0  0  0  0  0  0
   -0.6197   -3.5992   10.6794 H   0  0  0  0  0  0  0  0  0  0  0  0
  1  2  2  3
  2  3  1  0
  3  4  2  0
  3  5  1  0
  5  6  2  0
  6  7  1  0
  7  8  2  0
  8  9  1  0
  9 10  2  0
 10 11  1  0
 11 12  2  3
 12 13  1  0
 13 14  3  0
 12 15  1  0
 15 16  3  0
  8 17  1  0
 17 18  1  0
 18 19  1  0
 19 20  2  0
 20 21  1  0
 21 22  1  0
 21 23  1  0
  1 24  1  0
 24 25  1  0
 25 26  1  0
 26 27  1  0
 27 28  1  0
 28 29  1  0
 29 30  1  0
 30 31  1  0
 31 32  1  0
 32 33  2  0
 33 34  1  0
 34 35  1  0
 32 36  1  0
 36 37  1  0
 37 38  1  0
 38 39  1  0
 39 40  1  0
 40 41  2  0
 41 42  1  0
 42 43  2  0
 43 44  1  0
 44 45  1  0
 45 46  1  0
 44 47  1  0
 47 48  2  0
 48 49  1  0
 49 50  1  0
 50 51  1  0
 51 52  1  0
 52 53  1  0
 53 54  1  0
 54 55  1  0
 55 56  1  0
 56 57  1  0
 57 58  1  0
 58 59  1  0
 59 60  1  0
 58 61  2  0
 61 62  1  0
 62 63  1  0
 63 64  1  0
 62 65  1  0
 54 66  1  0
 66 67  1  0
 51 68  1  0
 68 69  1  0
 41 70  1  0
 70 71  2  0
 71 72  1  0
 71 73  1  0
 73 74  2  3
 74 75  1  0
 75 76  2  0
 75 77  1  0
 77 78  1  0
 78 79  1  0
 77 80  1  0
 80 81  2  0
 80 82  1  0
 82 83  1  0
 83 84  1  0
 82 85  1  0
 85 86  2  0
 11  2  1  0
 23 17  1  0
 60 24  2  0
 85 74  1  0
 10  5  1  0
 22 18  1  0
 59 26  2  0
 23  7  1  0
 56 27  2  0
 65 57  2  0
 55 29  2  0
 53 30  2  0
 35 31  2  0
 52 36  2  0
 50 37  2  0
 49 39  2  0
 72 40  1  0
 48 42  1  0
  1 87  1  0
  6 88  1  0
  9 89  1  0
 17 90  1  0
 18 91  1  0
 19 92  1  0
 20 93  1  0
 21 94  1  0
 22 95  1  0
 22 96  1  0
 23 97  1  0
 45 98  1  0
 45 99  1  0
 46100  1  0
 46101  1  0
 46102  1  0
 60103  1  0
 63104  1  0
 63105  1  0
 64106  1  0
 64107  1  0
 64108  1  0
 66109  1  0
 66110  1  0
 67111  1  0
 67112  1  0
 67113  1  0
 68114  1  0
 68115  1  0
 69116  1  0
 69117  1  0
 69118  1  0
 70119  1  0
 73120  1  0
 78121  1  0
 78122  1  0
 79123  1  0
 79124  1  0
 79125  1  0
 83126  1  0
 83127  1  0
 84128  1  0
 84129  1  0
 84130  1  0
M  END

