
     RDKit          3D

173194  0  0  0  0  0  0  0  0999 V2000
    5.6523   -7.7821   -0.4892 C   0  0  0  0  0  0  0  0  0  0  0  0
    4.3842   -8.2082   -0.6713 C   0  0  0  0  0  0  0  0  0  0  0  0
    3.1790   -7.4421   -0.3110 C   0  0  0  0  0  0  0  0  0  0  0  0
    3.1395   -6.3860    0.3797 O   0  0  0  0  0  0  0  0  0  0  0  0
    2.0120   -8.1269   -0.8007 C   0  0  0  0  0  0  0  0  0  0  0  0
    0.6692   -7.7164   -0.6419 C   0  0  0  0  0  0  0  0  0  0  0  0
   -0.2452   -8.5335   -1.2671 C   0  0  0  0  0  0  0  0  0  0  0  0
    0.1362   -9.6740   -2.0432 C   0  0  0  0  0  0  0  0  0  0  0  0
    1.4490  -10.0828   -2.2055 C   0  0  0  0  0  0  0  0  0  0  0  0
    2.4106   -9.2909   -1.5032 C   0  0  0  0  0  0  0  0  0  0  0  0
    3.8971   -9.4428   -1.3921 C   0  0  0  0  0  0  0  0  0  0  0  0
    4.6381  -10.4841   -1.8746 C   0  0  0  0  0  0  0  0  0  0  0  0
    4.0580  -11.6285   -2.5281 C   0  0  0  0  0  0  0  0  0  0  0  0
    3.6224  -12.5463   -3.0765 N   0  0  0  0  0  0  0  0  0  0  0  0
    6.0671  -10.5679   -1.7714 C   0  0  0  0  0  0  0  0  0  0  0  0
    7.2252  -10.6372   -1.7526 N   0  0  0  0  0  0  0  0  0  0  0  0
   -1.2978   -9.9424   -2.3862 C   0  0  0  0  0  0  0  0  0  0  0  0
   -1.7788   -9.5356   -3.8126 C   0  0  0  0  0  0  0  0  0  0  0  0
   -3.2857   -9.5615   -3.7606 C   0  0  0  0  0  0  0  0  0  0  0  0
   -3.6541   -8.5240   -2.9918 C   0  0  0  0  0  0  0  0  0  0  0  0
   -2.3824   -7.8352   -2.5624 C   0  0  0  0  0  0  0  0  0  0  0  0
   -1.5709   -8.0273   -3.8317 C   0  0  0  0  0  0  0  0  0  0  0  0
   -1.6892   -8.7983   -1.5572 C   0  0  0  0  0  0  0  0  0  0  0  0
    5.9736   -6.3681   -0.2617 C   0  0  0  0  0  0  0  0  0  0  0  0
    6.2019   -5.4775   -1.3119 C   0  0  0  0  0  0  0  0  0  0  0  0
    6.1994   -4.1652   -0.8660 C   0  0  0  0  0  0  0  0  0  0  0  0
    5.9467   -2.7343   -1.7095 S   0  0  0  0  0  0  0  0  0  0  0  0
    5.6247   -1.8589   -0.2897 C   0  0  0  0  0  0  0  0  0  0  0  0
    4.7006   -0.7613   -0.0748 C   0  0  0  0  0  0  0  0  0  0  0  0
    4.1588   -0.9255    1.1879 C   0  0  0  0  0  0  0  0  0  0  0  0
    4.7675   -2.1131    1.9398 C   0  0  0  0  0  0  0  0  0  0  0  0
    5.7126   -1.5828    3.0666 C   0  0  0  0  0  0  0  0  0  0  0  0
    5.0360   -0.6821    4.0799 C   0  0  0  0  0  0  0  0  0  0  0  0
    5.0320    0.7112    3.8848 C   0  0  0  0  0  0  0  0  0  0  0  0
    4.3807    1.5551    4.7940 C   0  0  0  0  0  0  0  0  0  0  0  0
    3.7506    1.0186    5.9261 C   0  0  0  0  0  0  0  0  0  0  0  0
    3.0213    1.9153    6.8895 C   0  0  0  0  0  0  0  0  0  0  0  0
    1.5288    1.9555    6.5761 C   0  0  0  0  0  0  0  0  0  0  0  0
    3.7721   -0.3679    6.1341 C   0  0  0  0  0  0  0  0  0  0  0  0
    4.4129   -1.2103    5.2210 C   0  0  0  0  0  0  0  0  0  0  0  0
    3.7001   -3.1319    2.3912 C   0  0  0  0  0  0  0  0  0  0  0  0
    3.9222   -4.0068    3.4772 C   0  0  0  0  0  0  0  0  0  0  0  0
    2.9322   -4.9016    3.8943 C   0  0  0  0  0  0  0  0  0  0  0  0
    1.7158   -4.9892    3.2105 C   0  0  0  0  0  0  0  0  0  0  0  0
    0.6462   -5.9395    3.6820 C   0  0  0  0  0  0  0  0  0  0  0  0
    1.0145   -7.3895    3.3596 C   0  0  0  0  0  0  0  0  0  0  0  0
    1.5239   -4.2069    2.0616 C   0  0  0  0  0  0  0  0  0  0  0  0
    2.5086   -3.3023    1.6467 C   0  0  0  0  0  0  0  0  0  0  0  0
    5.6193   -2.6842    0.8202 C   0  0  0  0  0  0  0  0  0  0  0  0
    5.9723   -3.9935    0.4715 C   0  0  0  0  0  0  0  0  0  0  0  0
    5.7777   -5.4988    1.1964 S   0  0  0  0  0  0  0  0  0  0  0  0
    3.0692   -0.1472    1.5912 C   0  0  0  0  0  0  0  0  0  0  0  0
    2.5189    0.7962    0.7015 C   0  0  0  0  0  0  0  0  0  0  0  0
    1.3637    1.6037    1.0935 C   0  0  0  0  0  0  0  0  0  0  0  0
    0.6987    2.4387    0.1956 C   0  0  0  0  0  0  0  0  0  0  0  0
    1.1623    2.6403   -1.2493 C   0  0  0  0  0  0  0  0  0  0  0  0
    2.4865    1.8777   -1.5266 C   0  0  0  0  0  0  0  0  0  0  0  0
    3.0586    0.9593   -0.5971 C   0  0  0  0  0  0  0  0  0  0  0  0
    4.1958    0.1903   -0.9780 C   0  0  0  0  0  0  0  0  0  0  0  0
    4.8017    0.4103   -2.2206 C   0  0  0  0  0  0  0  0  0  0  0  0
    4.2821    1.3543   -3.0979 C   0  0  0  0  0  0  0  0  0  0  0  0
    3.1357    2.0686   -2.7670 C   0  0  0  0  0  0  0  0  0  0  0  0
    1.3964    4.1590   -1.4072 C   0  0  0  0  0  0  0  0  0  0  0  0
    2.5948    4.7413   -0.9375 C   0  0  0  0  0  0  0  0  0  0  0  0
    2.8075    6.1205   -1.0094 C   0  0  0  0  0  0  0  0  0  0  0  0
    1.8134    6.9639   -1.5252 C   0  0  0  0  0  0  0  0  0  0  0  0
    2.0225    8.4592   -1.5897 C   0  0  0  0  0  0  0  0  0  0  0  0
    1.2168    9.1702   -0.5104 C   0  0  0  0  0  0  0  0  0  0  0  0
    0.6028    6.4099   -1.9526 C   0  0  0  0  0  0  0  0  0  0  0  0
    0.3875    5.0311   -1.8764 C   0  0  0  0  0  0  0  0  0  0  0  0
    0.1224    2.0484   -2.2323 C   0  0  0  0  0  0  0  0  0  0  0  0
   -0.6121    0.8873   -1.8922 C   0  0  0  0  0  0  0  0  0  0  0  0
   -1.4599    0.2731   -2.8191 C   0  0  0  0  0  0  0  0  0  0  0  0
   -1.5825    0.7841   -4.1176 C   0  0  0  0  0  0  0  0  0  0  0  0
   -2.4651    0.1071   -5.1388 C   0  0  0  0  0  0  0  0  0  0  0  0
   -1.6438   -0.7918   -6.0583 C   0  0  0  0  0  0  0  0  0  0  0  0
   -0.8213    1.9008   -4.4868 C   0  0  0  0  0  0  0  0  0  0  0  0
    0.0261    2.5127   -3.5651 C   0  0  0  0  0  0  0  0  0  0  0  0
   -0.4208    3.0117    0.8224 C   0  0  0  0  0  0  0  0  0  0  0  0
   -0.5822    2.6858    2.1343 C   0  0  0  0  0  0  0  0  0  0  0  0
    0.6157    1.6295    2.6227 S   0  0  0  0  0  0  0  0  0  0  0  0
   -1.6913    3.2304    2.7692 C   0  0  0  0  0  0  0  0  0  0  0  0
   -2.4349    4.0345    1.8994 C   0  0  0  0  0  0  0  0  0  0  0  0
   -1.7124    3.9807    0.3537 S   0  0  0  0  0  0  0  0  0  0  0  0
   -3.7419    4.6157    2.2770 C   0  0  0  0  0  0  0  0  0  0  0  0
   -4.3589    5.6831    1.7204 C   0  0  0  0  0  0  0  0  0  0  0  0
   -3.9119    6.4846    0.5734 C   0  0  0  0  0  0  0  0  0  0  0  0
   -2.7271    6.6382    0.1702 O   0  0  0  0  0  0  0  0  0  0  0  0
   -5.0640    7.1458   -0.0021 C   0  0  0  0  0  0  0  0  0  0  0  0
   -5.1323    7.8294   -1.2397 C   0  0  0  0  0  0  0  0  0  0  0  0
   -6.4100    8.2295   -1.5924 C   0  0  0  0  0  0  0  0  0  0  0  0
   -7.5595    7.9804   -0.7715 C   0  0  0  0  0  0  0  0  0  0  0  0
   -7.5020    7.3002    0.4317 C   0  0  0  0  0  0  0  0  0  0  0  0
   -6.1923    6.9046    0.8251 C   0  0  0  0  0  0  0  0  0  0  0  0
   -5.7627    6.1139    2.0062 C   0  0  0  0  0  0  0  0  0  0  0  0
   -6.4185    6.0298    3.1913 C   0  0  0  0  0  0  0  0  0  0  0  0
   -7.7013    6.6463    3.4096 C   0  0  0  0  0  0  0  0  0  0  0  0
   -8.7294    7.1466    3.5992 N   0  0  0  0  0  0  0  0  0  0  0  0
   -5.8112    5.4894    4.3743 C   0  0  0  0  0  0  0  0  0  0  0  0
   -5.3250    5.0611    5.3348 N   0  0  0  0  0  0  0  0  0  0  0  0
   -8.4535    8.6209   -1.7947 C   0  0  0  0  0  0  0  0  0  0  0  0
   -9.3423    7.6810   -2.6657 C   0  0  0  0  0  0  0  0  0  0  0  0
   -8.6649    6.3439   -2.8552 C   0  0  0  0  0  0  0  0  0  0  0  0
   -7.5932    6.5649   -3.6202 C   0  0  0  0  0  0  0  0  0  0  0  0
   -7.5847    8.0480   -3.9302 C   0  0  0  0  0  0  0  0  0  0  0  0
   -9.0810    8.2765   -4.0375 C   0  0  0  0  0  0  0  0  0  0  0  0
   -7.2774    8.8677   -2.6363 C   0  0  0  0  0  0  0  0  0  0  0  0
    6.4986   -8.3743   -0.7747 H   0  0  0  0  0  0  0  0  0  0  0  0
    0.3837   -6.8220   -0.1082 H   0  0  0  0  0  0  0  0  0  0  0  0
    1.6702  -10.9357   -2.8217 H   0  0  0  0  0  0  0  0  0  0  0  0
   -1.6674  -10.9258   -2.0173 H   0  0  0  0  0  0  0  0  0  0  0  0
   -1.3205  -10.0951   -4.6540 H   0  0  0  0  0  0  0  0  0  0  0  0
   -3.9456  -10.2613   -4.2511 H   0  0  0  0  0  0  0  0  0  0  0  0
   -4.6693   -8.2284   -2.7625 H   0  0  0  0  0  0  0  0  0  0  0  0
   -2.5005   -6.7884   -2.2109 H   0  0  0  0  0  0  0  0  0  0  0  0
   -0.5136   -7.7029   -3.7429 H   0  0  0  0  0  0  0  0  0  0  0  0
   -2.0215   -7.5308   -4.7231 H   0  0  0  0  0  0  0  0  0  0  0  0
   -2.2796   -9.0617   -0.6546 H   0  0  0  0  0  0  0  0  0  0  0  0
    6.2097   -5.7565   -2.3579 H   0  0  0  0  0  0  0  0  0  0  0  0
    6.2332   -2.4167    3.5857 H   0  0  0  0  0  0  0  0  0  0  0  0
    6.5380   -1.0006    2.5965 H   0  0  0  0  0  0  0  0  0  0  0  0
    5.5093    1.1460    3.0167 H   0  0  0  0  0  0  0  0  0  0  0  0
    4.3722    2.6231    4.6101 H   0  0  0  0  0  0  0  0  0  0  0  0
    3.1624    1.5469    7.9295 H   0  0  0  0  0  0  0  0  0  0  0  0
    3.4300    2.9471    6.8511 H   0  0  0  0  0  0  0  0  0  0  0  0
    1.0849    0.9406    6.6857 H   0  0  0  0  0  0  0  0  0  0  0  0
    1.0174    2.6416    7.2864 H   0  0  0  0  0  0  0  0  0  0  0  0
    1.3540    2.3246    5.5401 H   0  0  0  0  0  0  0  0  0  0  0  0
    3.2980   -0.7968    7.0107 H   0  0  0  0  0  0  0  0  0  0  0  0
    4.4463   -2.2672    5.4302 H   0  0  0  0  0  0  0  0  0  0  0  0
    4.8659   -4.0281    4.0033 H   0  0  0  0  0  0  0  0  0  0  0  0
    3.1097   -5.5185    4.7663 H   0  0  0  0  0  0  0  0  0  0  0  0
   -0.3333   -5.6965    3.2075 H   0  0  0  0  0  0  0  0  0  0  0  0
    0.5229   -5.8334    4.7900 H   0  0  0  0  0  0  0  0  0  0  0  0
    0.2073   -8.0576    3.7318 H   0  0  0  0  0  0  0  0  0  0  0  0
    1.9694   -7.6705    3.8542 H   0  0  0  0  0  0  0  0  0  0  0  0
    1.1190   -7.5295    2.2606 H   0  0  0  0  0  0  0  0  0  0  0  0
    0.6092   -4.2930    1.4927 H   0  0  0  0  0  0  0  0  0  0  0  0
    2.3300   -2.7272    0.7479 H   0  0  0  0  0  0  0  0  0  0  0  0
    2.6262   -0.3105    2.5633 H   0  0  0  0  0  0  0  0  0  0  0  0
    5.7040   -0.1128   -2.5069 H   0  0  0  0  0  0  0  0  0  0  0  0
    4.7677    1.5257   -4.0489 H   0  0  0  0  0  0  0  0  0  0  0  0
    2.7646    2.7931   -3.4753 H   0  0  0  0  0  0  0  0  0  0  0  0
    3.3807    4.1269   -0.5089 H   0  0  0  0  0  0  0  0  0  0  0  0
    3.7442    6.5343   -0.6537 H   0  0  0  0  0  0  0  0  0  0  0  0
    3.0985    8.7111   -1.4645 H   0  0  0  0  0  0  0  0  0  0  0  0
    1.7087    8.8250   -2.5904 H   0  0  0  0  0  0  0  0  0  0  0  0
    1.3856   10.2643   -0.5835 H   0  0  0  0  0  0  0  0  0  0  0  0
    0.1319    8.9703   -0.6368 H   0  0  0  0  0  0  0  0  0  0  0  0
    1.5334    8.8247    0.4964 H   0  0  0  0  0  0  0  0  0  0  0  0
   -0.1819    7.0480   -2.3432 H   0  0  0  0  0  0  0  0  0  0  0  0
   -0.5801    4.6589   -2.1861 H   0  0  0  0  0  0  0  0  0  0  0  0
   -0.5199    0.4323   -0.9174 H   0  0  0  0  0  0  0  0  0  0  0  0
   -2.0119   -0.6144   -2.5246 H   0  0  0  0  0  0  0  0  0  0  0  0
   -2.9901    0.8748   -5.7471 H   0  0  0  0  0  0  0  0  0  0  0  0
   -3.2449   -0.4995   -4.6359 H   0  0  0  0  0  0  0  0  0  0  0  0
   -2.3009   -1.2171   -6.8457 H   0  0  0  0  0  0  0  0  0  0  0  0
   -0.8317   -0.2102   -6.5487 H   0  0  0  0  0  0  0  0  0  0  0  0
   -1.1948   -1.6248   -5.4774 H   0  0  0  0  0  0  0  0  0  0  0  0
   -0.8767    2.2877   -5.4990 H   0  0  0  0  0  0  0  0  0  0  0  0
    0.6171    3.3498   -3.9065 H   0  0  0  0  0  0  0  0  0  0  0  0
   -1.9621    3.0262    3.7976 H   0  0  0  0  0  0  0  0  0  0  0  0
   -4.2564    4.0700    3.0462 H   0  0  0  0  0  0  0  0  0  0  0  0
   -4.2742    7.9818   -1.8844 H   0  0  0  0  0  0  0  0  0  0  0  0
   -8.3987    7.0566    0.9725 H   0  0  0  0  0  0  0  0  0  0  0  0
   -8.9573    9.5464   -1.4423 H   0  0  0  0  0  0  0  0  0  0  0  0
  -10.4110    7.6216   -2.3629 H   0  0  0  0  0  0  0  0  0  0  0  0
   -9.0112    5.3729   -2.5138 H   0  0  0  0  0  0  0  0  0  0  0  0
   -6.9159    5.8088   -4.0121 H   0  0  0  0  0  0  0  0  0  0  0  0
   -6.9952    8.3385   -4.8296 H   0  0  0  0  0  0  0  0  0  0  0  0
   -9.3630    9.3536   -4.1176 H   0  0  0  0  0  0  0  0  0  0  0  0
   -9.5577    7.7025   -4.8697 H   0  0  0  0  0  0  0  0  0  0  0  0
   -7.0741    9.9487   -2.8084 H   0  0  0  0  0  0  0  0  0  0  0  0
  1  2  2  3
  2  3  1  0
  3  4  2  0
  3  5  1  0
  5  6  2  0
  6  7  1  0
  7  8  2  0
  8  9  1  0
  9 10  2  0
 10 11  1  0
 11 12  2  3
 12 13  1  0
 13 14  3  0
 12 15  1  0
 15 16  3  0
  8 17  1  0
 17 18  1  0
 18 19  1  0
 19 20  2  0
 20 21  1  0
 21 22  1  0
 21 23  1  0
  1 24  1  0
 24 25  2  0
 25 26  1  0
 26 27  1  0
 27 28  1  0
 28 29  1  0
 29 30  2  0
 30 31  1  0
 31 32  1  0
 32 33  1  0
 33 34  2  0
 34 35  1  0
 35 36  2  0
 36 37  1  0
 37 38  1  0
 36 39  1  0
 39 40  2  0
 31 41  1  0
 41 42  2  0
 42 43  1  0
 43 44  2  0
 44 45  1  0
 45 46  1  0
 44 47  1  0
 47 48  2  0
 31 49  1  0
 49 50  1  0
 50 51  1  0
 30 52  1  0
 52 53  2  0
 53 54  1  0
 54 55  2  0
 55 56  1  0
 56 57  1  0
 57 58  1  0
 58 59  2  0
 59 60  1  0
 60 61  2  0
 61 62  1  0
 56 63  1  0
 63 64  2  0
 64 65  1  0
 65 66  2  0
 66 67  1  0
 67 68  1  0
 66 69  1  0
 69 70  2  0
 56 71  1  0
 71 72  2  0
 72 73  1  0
 73 74  2  0
 74 75  1  0
 75 76  1  0
 74 77  1  0
 77 78  2  0
 55 79  1  0
 79 80  2  0
 80 81  1  0
 80 82  1  0
 82 83  2  0
 83 84  1  0
 83 85  1  0
 85 86  2  3
 86 87  1  0
 87 88  2  0
 87 89  1  0
 89 90  2  0
 90 91  1  0
 91 92  2  0
 92 93  1  0
 93 94  2  0
 94 95  1  0
 95 96  2  3
 96 97  1  0
 97 98  3  0
 96 99  1  0
 99100  3  0
 92101  1  0
101102  1  0
102103  1  0
103104  2  0
104105  1  0
105106  1  0
105107  1  0
 11  2  1  0
 23 17  1  0
 51 24  1  0
 58 53  1  0
 70 63  1  0
 78 71  1  0
 84 79  1  0
 95 86  1  0
107101  1  0
 10  5  1  0
 22 18  1  0
 50 26  2  0
 81 54  1  0
 94 89  1  0
106102  1  0
 23  7  1  0
 49 28  2  0
 62 57  2  0
107 91  1  0
 59 29  1  0
 40 33  1  0
 48 41  1  0
  1108  1  0
  6109  1  0
  9110  1  0
 17111  1  0
 18112  1  0
 19113  1  0
 20114  1  0
 21115  1  0
 22116  1  0
 22117  1  0
 23118  1  0
 25119  1  0
 32120  1  0
 32121  1  0
 34122  1  0
 35123  1  0
 37124  1  0
 37125  1  0
 38126  1  0
 38127  1  0
 38128  1  0
 39129  1  0
 40130  1  0
 42131  1  0
 43132  1  0
 45133  1  0
 45134  1  0
 46135  1  0
 46136  1  0
 46137  1  0
 47138  1  0
 48139  1  0
 52140  1  0
 60141  1  0
 61142  1  0
 62143  1  0
 64144  1  0
 65145  1  0
 67146  1  0
 67147  1  0
 68148  1  0
 68149  1  0
 68150  1  0
 69151  1  0
 70152  1  0
 72153  1  0
 73154  1  0
 75155  1  0
 75156  1  0
 76157  1  0
 76158  1  0
 76159  1  0
 77160  1  0
 78161  1  0
 82162  1  0
 85163  1  0
 90164  1  0
 93165  1  0
101166  1  0
102167  1  0
103168  1  0
104169  1  0
105170  1  0
106171  1  0
106172  1  0
107173  1  0
M  END

