
     RDKit          3D

112128  0  0  0  0  0  0  0  0999 V2000
    4.5120   -4.1992   -4.6580 C   0  0  0  0  0  0  0  0  0  0  0  0
    5.5741   -3.4601   -4.2959 C   0  0  0  0  0  0  0  0  0  0  0  0
    6.6135   -3.1442   -5.2785 C   0  0  0  0  0  0  0  0  0  0  0  0
    6.8911   -3.8386   -6.2920 O   0  0  0  0  0  0  0  0  0  0  0  0
    7.2879   -1.9111   -4.9062 C   0  0  0  0  0  0  0  0  0  0  0  0
    8.4082   -1.3095   -5.5398 C   0  0  0  0  0  0  0  0  0  0  0  0
    8.8736   -0.1857   -4.8802 C   0  0  0  0  0  0  0  0  0  0  0  0
    8.2897    0.3052   -3.6637 C   0  0  0  0  0  0  0  0  0  0  0  0
    7.1898   -0.2686   -3.0554 C   0  0  0  0  0  0  0  0  0  0  0  0
    6.6766   -1.4046   -3.7295 C   0  0  0  0  0  0  0  0  0  0  0  0
    5.5524   -2.3064   -3.3329 C   0  0  0  0  0  0  0  0  0  0  0  0
    4.6758   -2.1034   -2.3191 C   0  0  0  0  0  0  0  0  0  0  0  0
    4.5094   -0.8215   -1.6803 C   0  0  0  0  0  0  0  0  0  0  0  0
    4.3926    0.2096   -1.1683 N   0  0  0  0  0  0  0  0  0  0  0  0
    3.8482   -3.1602   -1.8170 C   0  0  0  0  0  0  0  0  0  0  0  0
    3.1946   -4.0142   -1.3810 N   0  0  0  0  0  0  0  0  0  0  0  0
    9.3258    1.3945   -3.5864 C   0  0  0  0  0  0  0  0  0  0  0  0
    8.8614    2.8508   -3.8963 C   0  0  0  0  0  0  0  0  0  0  0  0
    7.6885    2.8313   -4.8520 C   0  0  0  0  0  0  0  0  0  0  0  0
    8.1638    2.3855   -6.0164 C   0  0  0  0  0  0  0  0  0  0  0  0
    9.6468    2.1325   -5.8199 C   0  0  0  0  0  0  0  0  0  0  0  0
    9.9494    3.2738   -4.8663 C   0  0  0  0  0  0  0  0  0  0  0  0
    9.8787    0.9258   -4.8623 C   0  0  0  0  0  0  0  0  0  0  0  0
    3.1625   -3.6207   -4.8089 C   0  0  0  0  0  0  0  0  0  0  0  0
    1.7580   -4.4137   -4.2970 S   0  0  0  0  0  0  0  0  0  0  0  0
    0.8296   -3.0258   -4.1634 C   0  0  0  0  0  0  0  0  0  0  0  0
   -0.3835   -2.8449   -3.4820 C   0  0  0  0  0  0  0  0  0  0  0  0
   -1.3707   -4.0470   -2.7766 S   0  0  0  0  0  0  0  0  0  0  0  0
   -2.3149   -2.8834   -2.0125 C   0  0  0  0  0  0  0  0  0  0  0  0
   -3.3243   -2.8263   -1.0949 C   0  0  0  0  0  0  0  0  0  0  0  0
   -4.1781   -3.8001   -0.5752 C   0  0  0  0  0  0  0  0  0  0  0  0
   -5.1677   -3.4042    0.3730 C   0  0  0  0  0  0  0  0  0  0  0  0
   -5.9690   -4.3798    0.8654 N   0  0  0  0  0  0  0  0  0  0  0  0
   -5.3790   -5.6814    0.0253 S   0  0  0  0  0  0  0  0  0  0  0  0
   -4.1481   -5.1109   -0.9199 N   0  0  0  0  0  0  0  0  0  0  0  0
   -5.1925   -2.0693    0.8033 C   0  0  0  0  0  0  0  0  0  0  0  0
   -5.7920   -1.4997    1.8881 C   0  0  0  0  0  0  0  0  0  0  0  0
   -6.8756   -1.9759    3.0812 S   0  0  0  0  0  0  0  0  0  0  0  0
   -6.5353   -0.5950    4.0133 C   0  0  0  0  0  0  0  0  0  0  0  0
   -7.1276   -0.2151    5.2306 C   0  0  0  0  0  0  0  0  0  0  0  0
   -6.6840    0.9065    5.9204 C   0  0  0  0  0  0  0  0  0  0  0  0
   -5.6207    1.6315    5.3862 C   0  0  0  0  0  0  0  0  0  0  0  0
   -4.9535    2.6730    5.9124 N   0  0  0  0  0  0  0  0  0  0  0  0
   -3.9986    2.9420    5.0289 N   0  0  0  0  0  0  0  0  0  0  0  0
   -2.9975    3.9811    5.2200 C   0  0  0  0  0  0  0  0  0  0  0  0
   -1.8430    3.4425    6.0595 C   0  0  0  0  0  0  0  0  0  0  0  0
   -4.0122    2.1241    3.9795 N   0  0  0  0  0  0  0  0  0  0  0  0
   -5.0450    1.2922    4.1822 C   0  0  0  0  0  0  0  0  0  0  0  0
   -5.5109    0.1922    3.4258 C   0  0  0  0  0  0  0  0  0  0  0  0
   -5.1510   -0.3326    2.1627 C   0  0  0  0  0  0  0  0  0  0  0  0
   -4.1939   -0.0541    1.2217 N   0  0  0  0  0  0  0  0  0  0  0  0
   -4.2702   -1.1199    0.3484 C   0  0  0  0  0  0  0  0  0  0  0  0
   -3.4144   -1.4817   -0.7284 C   0  0  0  0  0  0  0  0  0  0  0  0
   -2.6122   -0.7077   -1.5233 N   0  0  0  0  0  0  0  0  0  0  0  0
   -1.9078   -1.6137   -2.2611 C   0  0  0  0  0  0  0  0  0  0  0  0
   -0.8146   -1.5412   -3.1355 C   0  0  0  0  0  0  0  0  0  0  0  0
   -0.0338   -0.4544   -3.5696 C   0  0  0  0  0  0  0  0  0  0  0  0
    1.1225   -0.6524   -4.2781 C   0  0  0  0  0  0  0  0  0  0  0  0
    1.6012   -1.9314   -4.5543 C   0  0  0  0  0  0  0  0  0  0  0  0
    2.8916   -2.2534   -4.9639 C   0  0  0  0  0  0  0  0  0  0  0  0
    1.6981    0.5367   -4.5161 N   0  0  0  0  0  0  0  0  0  0  0  0
    0.8706    1.4279   -3.9797 N   0  0  0  0  0  0  0  0  0  0  0  0
    1.0737    2.8660   -4.0657 C   0  0  0  0  0  0  0  0  0  0  0  0
    2.1440    3.3223   -3.0823 C   0  0  0  0  0  0  0  0  0  0  0  0
   -0.1798    0.8689   -3.3769 N   0  0  0  0  0  0  0  0  0  0  0  0
   -2.8813    0.6894   -1.8786 C   0  0  0  0  0  0  0  0  0  0  0  0
   -3.3866    0.8269   -3.3202 C   0  0  0  0  0  0  0  0  0  0  0  0
   -3.0567    0.8618    1.3945 C   0  0  0  0  0  0  0  0  0  0  0  0
   -3.4528    2.3318    1.1760 C   0  0  0  0  0  0  0  0  0  0  0  0
   -7.3893    1.1760    7.0939 C   0  0  0  0  0  0  0  0  0  0  0  0
   -8.4292    0.2669    7.3177 C   0  0  0  0  0  0  0  0  0  0  0  0
   -8.4204   -0.8867    6.0661 S   0  0  0  0  0  0  0  0  0  0  0  0
   -9.3958    0.4180    8.4302 C   0  0  0  0  0  0  0  0  0  0  0  0
  -10.5118   -0.2946    8.6367 C   0  0  0  0  0  0  0  0  0  0  0  0
  -10.8879   -1.4501    7.8572 C   0  0  0  0  0  0  0  0  0  0  0  0
  -11.2030   -2.3779    7.2391 N   0  0  0  0  0  0  0  0  0  0  0  0
  -11.3841    0.0816    9.7153 C   0  0  0  0  0  0  0  0  0  0  0  0
  -12.0840    0.4124   10.5839 N   0  0  0  0  0  0  0  0  0  0  0  0
    4.4908   -5.1726   -4.1756 H   0  0  0  0  0  0  0  0  0  0  0  0
    8.8626   -1.6939   -6.4476 H   0  0  0  0  0  0  0  0  0  0  0  0
    6.8273    0.1323   -2.1184 H   0  0  0  0  0  0  0  0  0  0  0  0
   10.0282    1.2795   -2.7241 H   0  0  0  0  0  0  0  0  0  0  0  0
    8.7288    3.5030   -3.0075 H   0  0  0  0  0  0  0  0  0  0  0  0
    6.6716    3.1591   -4.6569 H   0  0  0  0  0  0  0  0  0  0  0  0
    7.5931    2.2857   -6.9375 H   0  0  0  0  0  0  0  0  0  0  0  0
   10.2457    2.1156   -6.7538 H   0  0  0  0  0  0  0  0  0  0  0  0
   10.9743    3.2292   -4.4290 H   0  0  0  0  0  0  0  0  0  0  0  0
    9.7811    4.2809   -5.3112 H   0  0  0  0  0  0  0  0  0  0  0  0
   10.9261    0.5660   -4.7950 H   0  0  0  0  0  0  0  0  0  0  0  0
   -3.4591    4.8516    5.7314 H   0  0  0  0  0  0  0  0  0  0  0  0
   -2.6127    4.3193    4.2356 H   0  0  0  0  0  0  0  0  0  0  0  0
   -1.3467    2.5984    5.5360 H   0  0  0  0  0  0  0  0  0  0  0  0
   -2.2163    3.0879    7.0457 H   0  0  0  0  0  0  0  0  0  0  0  0
   -1.1020    4.2509    6.2247 H   0  0  0  0  0  0  0  0  0  0  0  0
    3.6384   -1.5158   -5.2019 H   0  0  0  0  0  0  0  0  0  0  0  0
    0.1220    3.3980   -3.8516 H   0  0  0  0  0  0  0  0  0  0  0  0
    1.3831    3.1292   -5.1019 H   0  0  0  0  0  0  0  0  0  0  0  0
    3.1017    2.7933   -3.2816 H   0  0  0  0  0  0  0  0  0  0  0  0
    2.3098    4.4089   -3.2068 H   0  0  0  0  0  0  0  0  0  0  0  0
    1.8158    3.1258   -2.0429 H   0  0  0  0  0  0  0  0  0  0  0  0
   -1.9836    1.3145   -1.6974 H   0  0  0  0  0  0  0  0  0  0  0  0
   -3.7109    1.0706   -1.2575 H   0  0  0  0  0  0  0  0  0  0  0  0
   -3.5046    1.9074   -3.5646 H   0  0  0  0  0  0  0  0  0  0  0  0
   -2.6762    0.3984   -4.0505 H   0  0  0  0  0  0  0  0  0  0  0  0
   -4.3681    0.3190   -3.4348 H   0  0  0  0  0  0  0  0  0  0  0  0
   -2.6329    0.7242    2.4129 H   0  0  0  0  0  0  0  0  0  0  0  0
   -2.2200    0.6031    0.7163 H   0  0  0  0  0  0  0  0  0  0  0  0
   -2.7675    2.9816    1.7566 H   0  0  0  0  0  0  0  0  0  0  0  0
   -3.3549    2.6512    0.1219 H   0  0  0  0  0  0  0  0  0  0  0  0
   -4.4934    2.5158    1.4951 H   0  0  0  0  0  0  0  0  0  0  0  0
   -7.1877    2.0274    7.7335 H   0  0  0  0  0  0  0  0  0  0  0  0
   -9.2055    1.2597    9.0953 H   0  0  0  0  0  0  0  0  0  0  0  0
  1  2  2  3
  2  3  1  0
  3  4  2  0
  3  5  1  0
  5  6  2  0
  6  7  1  0
  7  8  2  0
  8  9  1  0
  9 10  2  0
 10 11  1  0
 11 12  2  3
 12 13  1  0
 13 14  3  0
 12 15  1  0
 15 16  3  0
  8 17  1  0
 17 18  1  0
 18 19  1  0
 19 20  2  0
 20 21  1  0
 21 22  1  0
 21 23  1  0
  1 24  1  0
 24 25  1  0
 25 26  1  0
 26 27  1  0
 27 28  1  0
 28 29  1  0
 29 30  1  0
 30 31  1  0
 31 32  1  0
 32 33  2  0
 33 34  1  0
 34 35  1  0
 32 36  1  0
 36 37  1  0
 37 38  1  0
 38 39  1  0
 39 40  1  0
 40 41  2  0
 41 42  1  0
 42 43  2  0
 43 44  1  0
 44 45  1  0
 45 46  1  0
 44 47  1  0
 47 48  2  0
 48 49  1  0
 49 50  1  0
 50 51  1  0
 51 52  1  0
 52 53  1  0
 53 54  1  0
 54 55  1  0
 55 56  1  0
 56 57  1  0
 57 58  1  0
 58 59  1  0
 59 60  1  0
 58 61  2  0
 61 62  1  0
 62 63  1  0
 63 64  1  0
 62 65  1  0
 54 66  1  0
 66 67  1  0
 51 68  1  0
 68 69  1  0
 41 70  1  0
 70 71  2  0
 71 72  1  0
 71 73  1  0
 73 74  2  3
 74 75  1  0
 75 76  3  0
 74 77  1  0
 77 78  3  0
 11  2  1  0
 23 17  1  0
 60 24  2  0
 10  5  1  0
 22 18  1  0
 59 26  2  0
 23  7  1  0
 56 27  2  0
 65 57  2  0
 55 29  2  0
 53 30  2  0
 35 31  2  0
 52 36  2  0
 50 37  2  0
 49 39  2  0
 72 40  1  0
 48 42  1  0
  1 79  1  0
  6 80  1  0
  9 81  1  0
 17 82  1  0
 18 83  1  0
 19 84  1  0
 20 85  1  0
 21 86  1  0
 22 87  1  0
 22 88  1  0
 23 89  1  0
 45 90  1  0
 45 91  1  0
 46 92  1  0
 46 93  1  0
 46 94  1  0
 60 95  1  0
 63 96  1  0
 63 97  1  0
 64 98  1  0
 64 99  1  0
 64100  1  0
 66101  1  0
 66102  1  0
 67103  1  0
 67104  1  0
 67105  1  0
 68106  1  0
 68107  1  0
 69108  1  0
 69109  1  0
 69110  1  0
 70111  1  0
 73112  1  0
M  END

