
     RDKit          3D

126144  0  0  0  0  0  0  0  0999 V2000
   -7.1007    4.5478    0.0432 C   0  0  0  0  0  0  0  0  0  0  0  0
   -6.2733    4.8697    1.0574 C   0  0  0  0  0  0  0  0  0  0  0  0
   -4.9300    4.3089    1.2704 C   0  0  0  0  0  0  0  0  0  0  0  0
   -4.1987    3.7647    0.4006 O   0  0  0  0  0  0  0  0  0  0  0  0
   -4.5882    4.4481    2.6690 C   0  0  0  0  0  0  0  0  0  0  0  0
   -3.4736    3.8837    3.3298 C   0  0  0  0  0  0  0  0  0  0  0  0
   -3.5115    4.0200    4.7053 C   0  0  0  0  0  0  0  0  0  0  0  0
   -4.5865    4.6657    5.3992 C   0  0  0  0  0  0  0  0  0  0  0  0
   -5.6761    5.2289    4.7541 C   0  0  0  0  0  0  0  0  0  0  0  0
   -5.6394    5.1271    3.3348 C   0  0  0  0  0  0  0  0  0  0  0  0
   -6.6588    5.5452    2.3312 C   0  0  0  0  0  0  0  0  0  0  0  0
   -7.5954    6.5137    2.4820 C   0  0  0  0  0  0  0  0  0  0  0  0
   -7.8017    7.1984    3.7321 C   0  0  0  0  0  0  0  0  0  0  0  0
   -7.9797    7.7573    4.7308 N   0  0  0  0  0  0  0  0  0  0  0  0
   -8.3631    7.0149    1.3713 C   0  0  0  0  0  0  0  0  0  0  0  0
   -8.9798    7.4251    0.4815 N   0  0  0  0  0  0  0  0  0  0  0  0
   -3.9623    4.3254    6.7172 C   0  0  0  0  0  0  0  0  0  0  0  0
   -4.6151    3.1558    7.5134 C   0  0  0  0  0  0  0  0  0  0  0  0
   -3.6087    2.7620    8.5679 C   0  0  0  0  0  0  0  0  0  0  0  0
   -2.5936    2.1765    7.9238 C   0  0  0  0  0  0  0  0  0  0  0  0
   -2.9501    2.1905    6.4577 C   0  0  0  0  0  0  0  0  0  0  0  0
   -4.4486    1.9683    6.5824 C   0  0  0  0  0  0  0  0  0  0  0  0
   -2.8527    3.6774    6.0071 C   0  0  0  0  0  0  0  0  0  0  0  0
   -6.7220    3.5742   -0.9854 C   0  0  0  0  0  0  0  0  0  0  0  0
   -6.8455    1.9000   -0.7601 S   0  0  0  0  0  0  0  0  0  0  0  0
   -5.9115    1.5075   -2.0977 C   0  0  0  0  0  0  0  0  0  0  0  0
   -5.3939    0.2600   -2.4709 C   0  0  0  0  0  0  0  0  0  0  0  0
   -5.6204   -1.2064   -1.6652 S   0  0  0  0  0  0  0  0  0  0  0  0
   -4.4690   -1.9920   -2.6066 C   0  0  0  0  0  0  0  0  0  0  0  0
   -3.5993   -2.9938   -2.2851 C   0  0  0  0  0  0  0  0  0  0  0  0
   -3.5482   -3.7486   -1.0979 C   0  0  0  0  0  0  0  0  0  0  0  0
   -2.3115   -4.3332   -0.7044 C   0  0  0  0  0  0  0  0  0  0  0  0
   -2.2783   -4.9736    0.4908 N   0  0  0  0  0  0  0  0  0  0  0  0
   -3.8463   -4.7424    0.9725 S   0  0  0  0  0  0  0  0  0  0  0  0
   -4.5832   -3.8719   -0.2283 N   0  0  0  0  0  0  0  0  0  0  0  0
   -1.2150   -4.1971   -1.5527 C   0  0  0  0  0  0  0  0  0  0  0  0
    0.0960   -4.5392   -1.4073 C   0  0  0  0  0  0  0  0  0  0  0  0
    1.1230   -5.0074   -0.1581 S   0  0  0  0  0  0  0  0  0  0  0  0
    2.5008   -4.6627   -1.1043 C   0  0  0  0  0  0  0  0  0  0  0  0
    3.8421   -4.6373   -0.6891 C   0  0  0  0  0  0  0  0  0  0  0  0
    4.8428   -4.1297   -1.5244 C   0  0  0  0  0  0  0  0  0  0  0  0
    4.4739   -3.6653   -2.7912 C   0  0  0  0  0  0  0  0  0  0  0  0
    5.2242   -3.0845   -3.7391 N   0  0  0  0  0  0  0  0  0  0  0  0
    4.3595   -2.7556   -4.6970 N   0  0  0  0  0  0  0  0  0  0  0  0
    4.7547   -2.1514   -5.9616 C   0  0  0  0  0  0  0  0  0  0  0  0
    5.0178   -3.2334   -7.0006 C   0  0  0  0  0  0  0  0  0  0  0  0
    3.1036   -3.0924   -4.4118 N   0  0  0  0  0  0  0  0  0  0  0  0
    3.1663   -3.6743   -3.2066 C   0  0  0  0  0  0  0  0  0  0  0  0
    2.1439   -4.1735   -2.3842 C   0  0  0  0  0  0  0  0  0  0  0  0
    0.7524   -4.1270   -2.5182 C   0  0  0  0  0  0  0  0  0  0  0  0
   -0.0842   -3.5524   -3.4236 N   0  0  0  0  0  0  0  0  0  0  0  0
   -1.2854   -3.5126   -2.7706 C   0  0  0  0  0  0  0  0  0  0  0  0
   -2.4694   -2.7908   -3.0916 C   0  0  0  0  0  0  0  0  0  0  0  0
   -2.6001   -1.6255   -3.8199 N   0  0  0  0  0  0  0  0  0  0  0  0
   -3.8501   -1.1584   -3.5001 C   0  0  0  0  0  0  0  0  0  0  0  0
   -4.3938    0.1558   -3.4683 C   0  0  0  0  0  0  0  0  0  0  0  0
   -4.0447    1.3506   -4.1407 C   0  0  0  0  0  0  0  0  0  0  0  0
   -4.5774    2.5657   -3.7749 C   0  0  0  0  0  0  0  0  0  0  0  0
   -5.4893    2.6785   -2.7262 C   0  0  0  0  0  0  0  0  0  0  0  0
   -5.9477    3.8495   -2.1143 C   0  0  0  0  0  0  0  0  0  0  0  0
   -4.0392    3.5293   -4.5355 N   0  0  0  0  0  0  0  0  0  0  0  0
   -3.2129    2.8843   -5.3559 N   0  0  0  0  0  0  0  0  0  0  0  0
   -2.4297    3.5449   -6.3912 C   0  0  0  0  0  0  0  0  0  0  0  0
   -3.1945    3.5521   -7.7062 C   0  0  0  0  0  0  0  0  0  0  0  0
   -3.1993    1.5692   -5.1569 N   0  0  0  0  0  0  0  0  0  0  0  0
   -1.5037   -0.8011   -4.3513 C   0  0  0  0  0  0  0  0  0  0  0  0
   -1.5702   -0.6935   -5.8793 C   0  0  0  0  0  0  0  0  0  0  0  0
    0.0588   -3.6132   -4.8848 C   0  0  0  0  0  0  0  0  0  0  0  0
    0.5015   -4.9988   -5.3570 C   0  0  0  0  0  0  0  0  0  0  0  0
    6.0999   -4.0539   -0.9192 C   0  0  0  0  0  0  0  0  0  0  0  0
    6.0648   -4.5004    0.4030 C   0  0  0  0  0  0  0  0  0  0  0  0
    4.4953   -4.9886    0.8176 S   0  0  0  0  0  0  0  0  0  0  0  0
    7.1853   -4.4350    1.3448 C   0  0  0  0  0  0  0  0  0  0  0  0
    7.3825   -3.3840    2.1636 C   0  0  0  0  0  0  0  0  0  0  0  0
    6.4748   -2.2364    2.3049 C   0  0  0  0  0  0  0  0  0  0  0  0
    5.5250   -1.9296    1.5373 O   0  0  0  0  0  0  0  0  0  0  0  0
    6.8376   -1.5134    3.5038 C   0  0  0  0  0  0  0  0  0  0  0  0
    6.1833   -0.4230    4.0784 C   0  0  0  0  0  0  0  0  0  0  0  0
    6.6631    0.0774    5.2973 C   0  0  0  0  0  0  0  0  0  0  0  0
    5.8698    1.4428    6.0583 Cl  0  0  0  0  0  0  0  0  0  0  0  0
    7.7658   -0.5325    5.9233 C   0  0  0  0  0  0  0  0  0  0  0  0
    8.4055   -1.6331    5.3294 C   0  0  0  0  0  0  0  0  0  0  0  0
    7.9409   -2.1083    4.0911 C   0  0  0  0  0  0  0  0  0  0  0  0
    8.4098   -3.2459    3.2454 C   0  0  0  0  0  0  0  0  0  0  0  0
    9.6152   -3.8705    3.3166 C   0  0  0  0  0  0  0  0  0  0  0  0
   10.0694   -4.7914    2.3073 C   0  0  0  0  0  0  0  0  0  0  0  0
   10.4498   -5.5295    1.5006 N   0  0  0  0  0  0  0  0  0  0  0  0
   10.5878   -3.5716    4.3336 C   0  0  0  0  0  0  0  0  0  0  0  0
   11.3840   -3.3418    5.1416 N   0  0  0  0  0  0  0  0  0  0  0  0
   -8.1404    4.8292    0.0747 H   0  0  0  0  0  0  0  0  0  0  0  0
   -2.6912    3.3372    2.8206 H   0  0  0  0  0  0  0  0  0  0  0  0
   -6.4996    5.6348    5.3139 H   0  0  0  0  0  0  0  0  0  0  0  0
   -3.6741    5.2165    7.3178 H   0  0  0  0  0  0  0  0  0  0  0  0
   -5.6449    3.3405    7.8876 H   0  0  0  0  0  0  0  0  0  0  0  0
   -3.7179    2.8378    9.6451 H   0  0  0  0  0  0  0  0  0  0  0  0
   -1.7386    1.6961    8.3890 H   0  0  0  0  0  0  0  0  0  0  0  0
   -2.3999    1.4595    5.8300 H   0  0  0  0  0  0  0  0  0  0  0  0
   -5.0068    2.0593    5.6228 H   0  0  0  0  0  0  0  0  0  0  0  0
   -4.7119    0.9913    7.0543 H   0  0  0  0  0  0  0  0  0  0  0  0
   -1.8629    4.1644    6.1502 H   0  0  0  0  0  0  0  0  0  0  0  0
    5.6722   -1.5420   -5.8182 H   0  0  0  0  0  0  0  0  0  0  0  0
    3.9449   -1.4807   -6.3242 H   0  0  0  0  0  0  0  0  0  0  0  0
    5.3004   -2.7654   -7.9661 H   0  0  0  0  0  0  0  0  0  0  0  0
    5.8484   -3.8920   -6.6637 H   0  0  0  0  0  0  0  0  0  0  0  0
    4.1035   -3.8476   -7.1530 H   0  0  0  0  0  0  0  0  0  0  0  0
   -5.6540    4.8471   -2.4168 H   0  0  0  0  0  0  0  0  0  0  0  0
   -2.2075    4.5909   -6.0850 H   0  0  0  0  0  0  0  0  0  0  0  0
   -1.4637    3.0119   -6.5243 H   0  0  0  0  0  0  0  0  0  0  0  0
   -2.5825    4.0415   -8.4927 H   0  0  0  0  0  0  0  0  0  0  0  0
   -3.4219    2.5124   -8.0218 H   0  0  0  0  0  0  0  0  0  0  0  0
   -4.1452    4.1147   -7.5891 H   0  0  0  0  0  0  0  0  0  0  0  0
   -1.5440    0.2063   -3.8910 H   0  0  0  0  0  0  0  0  0  0  0  0
   -0.5148   -1.1803   -4.0414 H   0  0  0  0  0  0  0  0  0  0  0  0
   -2.6206   -0.6992   -6.2353 H   0  0  0  0  0  0  0  0  0  0  0  0
   -1.0739    0.2443   -6.2128 H   0  0  0  0  0  0  0  0  0  0  0  0
   -1.0393   -1.5234   -6.3765 H   0  0  0  0  0  0  0  0  0  0  0  0
    0.7613   -2.8370   -5.2407 H   0  0  0  0  0  0  0  0  0  0  0  0
   -0.9295   -3.4368   -5.3548 H   0  0  0  0  0  0  0  0  0  0  0  0
    1.5234   -5.2334   -5.0021 H   0  0  0  0  0  0  0  0  0  0  0  0
   -0.2017   -5.7735   -4.9836 H   0  0  0  0  0  0  0  0  0  0  0  0
    0.5080   -5.0266   -6.4694 H   0  0  0  0  0  0  0  0  0  0  0  0
    6.9812   -3.6446   -1.3964 H   0  0  0  0  0  0  0  0  0  0  0  0
    7.7983   -5.3172    1.4098 H   0  0  0  0  0  0  0  0  0  0  0  0
    5.3159    0.0195    3.6006 H   0  0  0  0  0  0  0  0  0  0  0  0
    8.1187   -0.1613    6.8765 H   0  0  0  0  0  0  0  0  0  0  0  0
    9.2142   -2.1019    5.8628 H   0  0  0  0  0  0  0  0  0  0  0  0
  1  2  2  3
  2  3  1  0
  3  4  2  0
  3  5  1  0
  5  6  2  0
  6  7  1  0
  7  8  2  0
  8  9  1  0
  9 10  2  0
 10 11  1  0
 11 12  2  3
 12 13  1  0
 13 14  3  0
 12 15  1  0
 15 16  3  0
  8 17  1  0
 17 18  1  0
 18 19  1  0
 19 20  2  0
 20 21  1  0
 21 22  1  0
 21 23  1  0
  1 24  1  0
 24 25  1  0
 25 26  1  0
 26 27  1  0
 27 28  1  0
 28 29  1  0
 29 30  1  0
 30 31  1  0
 31 32  1  0
 32 33  2  0
 33 34  1  0
 34 35  1  0
 32 36  1  0
 36 37  1  0
 37 38  1  0
 38 39  1  0
 39 40  1  0
 40 41  2  0
 41 42  1  0
 42 43  2  0
 43 44  1  0
 44 45  1  0
 45 46  1  0
 44 47  1  0
 47 48  2  0
 48 49  1  0
 49 50  1  0
 50 51  1  0
 51 52  1  0
 52 53  1  0
 53 54  1  0
 54 55  1  0
 55 56  1  0
 56 57  1  0
 57 58  1  0
 58 59  1  0
 59 60  1  0
 58 61  2  0
 61 62  1  0
 62 63  1  0
 63 64  1  0
 62 65  1  0
 54 66  1  0
 66 67  1  0
 51 68  1  0
 68 69  1  0
 41 70  1  0
 70 71  2  0
 71 72  1  0
 71 73  1  0
 73 74  2  3
 74 75  1  0
 75 76  2  0
 75 77  1  0
 77 78  2  0
 78 79  1  0
 79 80  1  0
 79 81  2  0
 81 82  1  0
 82 83  2  0
 83 84  1  0
 84 85  2  3
 85 86  1  0
 86 87  3  0
 85 88  1  0
 88 89  3  0
 11  2  1  0
 23 17  1  0
 60 24  2  0
 84 74  1  0
 10  5  1  0
 22 18  1  0
 59 26  2  0
 83 77  1  0
 23  7  1  0
 56 27  2  0
 65 57  2  0
 55 29  2  0
 53 30  2  0
 35 31  2  0
 52 36  2  0
 50 37  2  0
 49 39  2  0
 72 40  1  0
 48 42  1  0
  1 90  1  0
  6 91  1  0
  9 92  1  0
 17 93  1  0
 18 94  1  0
 19 95  1  0
 20 96  1  0
 21 97  1  0
 22 98  1  0
 22 99  1  0
 23100  1  0
 45101  1  0
 45102  1  0
 46103  1  0
 46104  1  0
 46105  1  0
 60106  1  0
 63107  1  0
 63108  1  0
 64109  1  0
 64110  1  0
 64111  1  0
 66112  1  0
 66113  1  0
 67114  1  0
 67115  1  0
 67116  1  0
 68117  1  0
 68118  1  0
 69119  1  0
 69120  1  0
 69121  1  0
 70122  1  0
 73123  1  0
 78124  1  0
 81125  1  0
 82126  1  0
M  END

