
     RDKit          3D

130148  0  0  0  0  0  0  0  0999 V2000
    9.8663    1.8464    1.7050 C   0  0  0  0  0  0  0  0  0  0  0  0
    9.6870    3.0915    1.2323 C   0  0  0  0  0  0  0  0  0  0  0  0
   10.2312    4.2609    1.9328 C   0  0  0  0  0  0  0  0  0  0  0  0
   11.2807    4.2831    2.6346 O   0  0  0  0  0  0  0  0  0  0  0  0
    9.2896    5.3661    1.7981 C   0  0  0  0  0  0  0  0  0  0  0  0
    9.2660    6.5844    2.5133 C   0  0  0  0  0  0  0  0  0  0  0  0
    8.1151    7.3318    2.3154 C   0  0  0  0  0  0  0  0  0  0  0  0
    7.0383    6.9025    1.4651 C   0  0  0  0  0  0  0  0  0  0  0  0
    7.0562    5.7093    0.7682 C   0  0  0  0  0  0  0  0  0  0  0  0
    8.2389    4.9517    0.9404 C   0  0  0  0  0  0  0  0  0  0  0  0
    8.5229    3.5875    0.4447 C   0  0  0  0  0  0  0  0  0  0  0  0
    8.1246    3.0915   -0.7462 C   0  0  0  0  0  0  0  0  0  0  0  0
    7.3671    3.9089   -1.6858 C   0  0  0  0  0  0  0  0  0  0  0  0
    6.8879    4.6249   -2.4584 N   0  0  0  0  0  0  0  0  0  0  0  0
    8.6899    1.8809   -1.2839 C   0  0  0  0  0  0  0  0  0  0  0  0
    9.1328    0.9135   -1.7319 N   0  0  0  0  0  0  0  0  0  0  0  0
    6.2343    8.1036    1.8349 C   0  0  0  0  0  0  0  0  0  0  0  0
    5.0432    7.8911    2.8226 C   0  0  0  0  0  0  0  0  0  0  0  0
    5.3442    6.7543    3.7727 C   0  0  0  0  0  0  0  0  0  0  0  0
    6.3279    7.1774    4.5668 C   0  0  0  0  0  0  0  0  0  0  0  0
    6.6695    8.5815    4.1221 C   0  0  0  0  0  0  0  0  0  0  0  0
    5.2751    9.0596    3.7613 C   0  0  0  0  0  0  0  0  0  0  0  0
    7.3253    8.5558    2.7047 C   0  0  0  0  0  0  0  0  0  0  0  0
    8.6945    1.0102    2.0037 C   0  0  0  0  0  0  0  0  0  0  0  0
    8.1240   -0.3206    1.1156 S   0  0  0  0  0  0  0  0  0  0  0  0
    6.6735   -0.4394    1.9534 C   0  0  0  0  0  0  0  0  0  0  0  0
    5.5260   -1.2162    1.6828 C   0  0  0  0  0  0  0  0  0  0  0  0
    5.2838   -2.4127    0.4999 S   0  0  0  0  0  0  0  0  0  0  0  0
    3.6522   -2.5884    0.9084 C   0  0  0  0  0  0  0  0  0  0  0  0
    2.5454   -2.9629    0.2022 C   0  0  0  0  0  0  0  0  0  0  0  0
    2.4505   -3.6734   -0.9967 C   0  0  0  0  0  0  0  0  0  0  0  0
    1.2106   -3.6952   -1.6819 C   0  0  0  0  0  0  0  0  0  0  0  0
    1.1663   -4.3916   -2.8481 N   0  0  0  0  0  0  0  0  0  0  0  0
    2.7268   -4.9279   -2.9192 S   0  0  0  0  0  0  0  0  0  0  0  0
    3.4810   -4.3419   -1.5677 N   0  0  0  0  0  0  0  0  0  0  0  0
    0.1206   -3.0346   -1.1134 C   0  0  0  0  0  0  0  0  0  0  0  0
   -1.1865   -3.0031   -1.4765 C   0  0  0  0  0  0  0  0  0  0  0  0
   -2.1337   -3.5608   -2.7405 S   0  0  0  0  0  0  0  0  0  0  0  0
   -3.5628   -3.0203   -1.9907 C   0  0  0  0  0  0  0  0  0  0  0  0
   -4.8703   -3.0832   -2.4906 C   0  0  0  0  0  0  0  0  0  0  0  0
   -5.9420   -2.5780   -1.7553 C   0  0  0  0  0  0  0  0  0  0  0  0
   -5.6854   -2.0684   -0.4744 C   0  0  0  0  0  0  0  0  0  0  0  0
   -6.5499   -1.6228    0.4508 N   0  0  0  0  0  0  0  0  0  0  0  0
   -5.7873   -1.3272    1.4965 N   0  0  0  0  0  0  0  0  0  0  0  0
   -6.3102   -0.8056    2.7534 C   0  0  0  0  0  0  0  0  0  0  0  0
   -6.2112    0.7169    2.7820 C   0  0  0  0  0  0  0  0  0  0  0  0
   -4.4919   -1.5440    1.2843 N   0  0  0  0  0  0  0  0  0  0  0  0
   -4.4083   -2.0101    0.0312 C   0  0  0  0  0  0  0  0  0  0  0  0
   -3.2935   -2.4389   -0.7264 C   0  0  0  0  0  0  0  0  0  0  0  0
   -1.8964   -2.4111   -0.4872 C   0  0  0  0  0  0  0  0  0  0  0  0
   -1.0764   -1.9802    0.5210 N   0  0  0  0  0  0  0  0  0  0  0  0
    0.1892   -2.3531    0.1114 C   0  0  0  0  0  0  0  0  0  0  0  0
    1.4661   -2.2465    0.7492 C   0  0  0  0  0  0  0  0  0  0  0  0
    1.9321   -1.3478    1.6876 N   0  0  0  0  0  0  0  0  0  0  0  0
    3.2494   -1.6834    1.8385 C   0  0  0  0  0  0  0  0  0  0  0  0
    4.3231   -0.9570    2.3734 C   0  0  0  0  0  0  0  0  0  0  0  0
    4.3625   -0.0534    3.4465 C   0  0  0  0  0  0  0  0  0  0  0  0
    5.4928    0.6645    3.7242 C   0  0  0  0  0  0  0  0  0  0  0  0
    6.6443    0.5348    2.9528 C   0  0  0  0  0  0  0  0  0  0  0  0
    7.7754    1.3376    2.9955 C   0  0  0  0  0  0  0  0  0  0  0  0
    5.2911    1.3808    4.8411 N   0  0  0  0  0  0  0  0  0  0  0  0
    4.0449    1.0789    5.2127 N   0  0  0  0  0  0  0  0  0  0  0  0
    3.4655    1.5235    6.4724 C   0  0  0  0  0  0  0  0  0  0  0  0
    3.5297    0.4027    7.5038 C   0  0  0  0  0  0  0  0  0  0  0  0
    3.4540    0.2004    4.4048 N   0  0  0  0  0  0  0  0  0  0  0  0
    1.4478    0.0330    1.8702 C   0  0  0  0  0  0  0  0  0  0  0  0
    1.1469    0.7232    0.5351 C   0  0  0  0  0  0  0  0  0  0  0  0
   -1.5078   -1.5265    1.8512 C   0  0  0  0  0  0  0  0  0  0  0  0
   -2.0569   -0.0919    1.8117 C   0  0  0  0  0  0  0  0  0  0  0  0
   -7.1678   -2.6291   -2.4316 C   0  0  0  0  0  0  0  0  0  0  0  0
   -7.0500   -3.2178   -3.6894 C   0  0  0  0  0  0  0  0  0  0  0  0
   -5.4299   -3.6276   -3.9791 S   0  0  0  0  0  0  0  0  0  0  0  0
   -8.0954   -3.2264   -4.7196 C   0  0  0  0  0  0  0  0  0  0  0  0
   -8.3900   -4.3045   -5.4681 C   0  0  0  0  0  0  0  0  0  0  0  0
   -8.1395   -5.6964   -5.0792 C   0  0  0  0  0  0  0  0  0  0  0  0
   -7.5906   -6.0789   -4.0065 O   0  0  0  0  0  0  0  0  0  0  0  0
   -8.8701   -6.5562   -5.9842 C   0  0  0  0  0  0  0  0  0  0  0  0
   -9.0303   -7.9388   -5.9151 C   0  0  0  0  0  0  0  0  0  0  0  0
   -9.8356   -8.5726   -6.8719 C   0  0  0  0  0  0  0  0  0  0  0  0
  -10.4713   -7.8154   -7.8919 C   0  0  0  0  0  0  0  0  0  0  0  0
  -11.2328   -8.4135   -8.9069 O   0  0  0  0  0  0  0  0  0  0  0  0
  -11.5032   -9.8036   -9.0042 C   0  0  0  0  0  0  0  0  0  0  0  0
  -10.3343   -6.4166   -7.9005 C   0  0  0  0  0  0  0  0  0  0  0  0
   -9.5177   -5.7910   -6.9391 C   0  0  0  0  0  0  0  0  0  0  0  0
   -9.2076   -4.3511   -6.7193 C   0  0  0  0  0  0  0  0  0  0  0  0
   -9.3466   -3.3449   -7.6291 C   0  0  0  0  0  0  0  0  0  0  0  0
   -8.7824   -2.0345   -7.4209 C   0  0  0  0  0  0  0  0  0  0  0  0
   -8.3321   -0.9803   -7.2675 N   0  0  0  0  0  0  0  0  0  0  0  0
   -9.9101   -3.5506   -8.9383 C   0  0  0  0  0  0  0  0  0  0  0  0
  -10.3509   -3.6941  -10.0058 N   0  0  0  0  0  0  0  0  0  0  0  0
   10.7276    1.6585    2.3284 H   0  0  0  0  0  0  0  0  0  0  0  0
   10.0367    6.8741    3.2137 H   0  0  0  0  0  0  0  0  0  0  0  0
    6.2001    5.3701    0.1982 H   0  0  0  0  0  0  0  0  0  0  0  0
    6.0192    8.7938    0.9842 H   0  0  0  0  0  0  0  0  0  0  0  0
    4.0355    7.8518    2.3508 H   0  0  0  0  0  0  0  0  0  0  0  0
    4.8196    5.8071    3.8668 H   0  0  0  0  0  0  0  0  0  0  0  0
    6.7498    6.6422    5.4106 H   0  0  0  0  0  0  0  0  0  0  0  0
    7.1975    9.1953    4.8788 H   0  0  0  0  0  0  0  0  0  0  0  0
    5.2559   10.0550    3.2518 H   0  0  0  0  0  0  0  0  0  0  0  0
    4.5717    9.0775    4.6267 H   0  0  0  0  0  0  0  0  0  0  0  0
    7.7833    9.5153    2.3819 H   0  0  0  0  0  0  0  0  0  0  0  0
   -5.7304   -1.2251    3.6066 H   0  0  0  0  0  0  0  0  0  0  0  0
   -7.3737   -1.1120    2.8796 H   0  0  0  0  0  0  0  0  0  0  0  0
   -6.5313    1.0898    3.7790 H   0  0  0  0  0  0  0  0  0  0  0  0
   -5.1679    1.0361    2.6009 H   0  0  0  0  0  0  0  0  0  0  0  0
   -6.8677    1.1586    2.0070 H   0  0  0  0  0  0  0  0  0  0  0  0
    7.8823    2.1859    3.6515 H   0  0  0  0  0  0  0  0  0  0  0  0
    2.4027    1.8177    6.3054 H   0  0  0  0  0  0  0  0  0  0  0  0
    4.0255    2.4054    6.8479 H   0  0  0  0  0  0  0  0  0  0  0  0
    2.9094   -0.4489    7.1626 H   0  0  0  0  0  0  0  0  0  0  0  0
    4.5815    0.0680    7.6367 H   0  0  0  0  0  0  0  0  0  0  0  0
    3.1341    0.7623    8.4765 H   0  0  0  0  0  0  0  0  0  0  0  0
    0.6245    0.0678    2.5974 H   0  0  0  0  0  0  0  0  0  0  0  0
    2.2195    0.6706    2.3225 H   0  0  0  0  0  0  0  0  0  0  0  0
    0.9334    1.7968    0.7145 H   0  0  0  0  0  0  0  0  0  0  0  0
    2.0342    0.6532   -0.1322 H   0  0  0  0  0  0  0  0  0  0  0  0
    0.2694    0.2852    0.0270 H   0  0  0  0  0  0  0  0  0  0  0  0
   -0.6849   -1.6232    2.5839 H   0  0  0  0  0  0  0  0  0  0  0  0
   -2.2865   -2.2189    2.2342 H   0  0  0  0  0  0  0  0  0  0  0  0
   -1.2742    0.6827    1.8508 H   0  0  0  0  0  0  0  0  0  0  0  0
   -2.6313    0.0969    0.8804 H   0  0  0  0  0  0  0  0  0  0  0  0
   -2.7213    0.0759    2.6871 H   0  0  0  0  0  0  0  0  0  0  0  0
   -8.0924   -2.2411   -2.0288 H   0  0  0  0  0  0  0  0  0  0  0  0
   -8.5974   -2.2843   -4.8954 H   0  0  0  0  0  0  0  0  0  0  0  0
   -8.5202   -8.5225   -5.1591 H   0  0  0  0  0  0  0  0  0  0  0  0
   -9.9452   -9.6515   -6.8263 H   0  0  0  0  0  0  0  0  0  0  0  0
  -10.5584  -10.3953   -8.9781 H   0  0  0  0  0  0  0  0  0  0  0  0
  -12.0123  -10.0091   -9.9712 H   0  0  0  0  0  0  0  0  0  0  0  0
  -12.1834  -10.1218   -8.1821 H   0  0  0  0  0  0  0  0  0  0  0  0
  -10.8956   -5.8572   -8.6243 H   0  0  0  0  0  0  0  0  0  0  0  0
  1  2  2  3
  2  3  1  0
  3  4  2  0
  3  5  1  0
  5  6  2  0
  6  7  1  0
  7  8  2  0
  8  9  1  0
  9 10  2  0
 10 11  1  0
 11 12  2  3
 12 13  1  0
 13 14  3  0
 12 15  1  0
 15 16  3  0
  8 17  1  0
 17 18  1  0
 18 19  1  0
 19 20  2  0
 20 21  1  0
 21 22  1  0
 21 23  1  0
  1 24  1  0
 24 25  1  0
 25 26  1  0
 26 27  1  0
 27 28  1  0
 28 29  1  0
 29 30  1  0
 30 31  1  0
 31 32  1  0
 32 33  2  0
 33 34  1  0
 34 35  1  0
 32 36  1  0
 36 37  1  0
 37 38  1  0
 38 39  1  0
 39 40  1  0
 40 41  2  0
 41 42  1  0
 42 43  2  0
 43 44  1  0
 44 45  1  0
 45 46  1  0
 44 47  1  0
 47 48  2  0
 48 49  1  0
 49 50  1  0
 50 51  1  0
 51 52  1  0
 52 53  1  0
 53 54  1  0
 54 55  1  0
 55 56  1  0
 56 57  1  0
 57 58  1  0
 58 59  1  0
 59 60  1  0
 58 61  2  0
 61 62  1  0
 62 63  1  0
 63 64  1  0
 62 65  1  0
 54 66  1  0
 66 67  1  0
 51 68  1  0
 68 69  1  0
 41 70  1  0
 70 71  2  0
 71 72  1  0
 71 73  1  0
 73 74  2  3
 74 75  1  0
 75 76  2  0
 75 77  1  0
 77 78  2  0
 78 79  1  0
 79 80  2  0
 80 81  1  0
 81 82  1  0
 80 83  1  0
 83 84  2  0
 84 85  1  0
 85 86  2  3
 86 87  1  0
 87 88  3  0
 86 89  1  0
 89 90  3  0
 11  2  1  0
 23 17  1  0
 60 24  2  0
 85 74  1  0
 10  5  1  0
 22 18  1  0
 59 26  2  0
 84 77  1  0
 23  7  1  0
 56 27  2  0
 65 57  2  0
 55 29  2  0
 53 30  2  0
 35 31  2  0
 52 36  2  0
 50 37  2  0
 49 39  2  0
 72 40  1  0
 48 42  1  0
  1 91  1  0
  6 92  1  0
  9 93  1  0
 17 94  1  0
 18 95  1  0
 19 96  1  0
 20 97  1  0
 21 98  1  0
 22 99  1  0
 22100  1  0
 23101  1  0
 45102  1  0
 45103  1  0
 46104  1  0
 46105  1  0
 46106  1  0
 60107  1  0
 63108  1  0
 63109  1  0
 64110  1  0
 64111  1  0
 64112  1  0
 66113  1  0
 66114  1  0
 67115  1  0
 67116  1  0
 67117  1  0
 68118  1  0
 68119  1  0
 69120  1  0
 69121  1  0
 69122  1  0
 70123  1  0
 73124  1  0
 78125  1  0
 79126  1  0
 82127  1  0
 82128  1  0
 82129  1  0
 83130  1  0
M  END

