
     RDKit          3D

126144  0  0  0  0  0  0  0  0999 V2000
   -6.5942   -4.3015    0.6003 C   0  0  0  0  0  0  0  0  0  0  0  0
   -6.7177   -5.5483    1.1035 C   0  0  0  0  0  0  0  0  0  0  0  0
   -5.7268   -6.2761    1.9152 C   0  0  0  0  0  0  0  0  0  0  0  0
   -4.7312   -5.7903    2.5088 O   0  0  0  0  0  0  0  0  0  0  0  0
   -6.0157   -7.6893    1.8511 C   0  0  0  0  0  0  0  0  0  0  0  0
   -5.2822   -8.7343    2.4601 C   0  0  0  0  0  0  0  0  0  0  0  0
   -5.7303   -9.9969    2.1290 C   0  0  0  0  0  0  0  0  0  0  0  0
   -6.8114  -10.2319    1.2196 C   0  0  0  0  0  0  0  0  0  0  0  0
   -7.5412   -9.2114    0.6253 C   0  0  0  0  0  0  0  0  0  0  0  0
   -7.1370   -7.8985    1.0086 C   0  0  0  0  0  0  0  0  0  0  0  0
   -7.7020   -6.5736    0.6225 C   0  0  0  0  0  0  0  0  0  0  0  0
   -8.9511   -6.3379    0.1363 C   0  0  0  0  0  0  0  0  0  0  0  0
   -9.8576   -7.3944   -0.2254 C   0  0  0  0  0  0  0  0  0  0  0  0
  -10.6023   -8.2301   -0.5238 N   0  0  0  0  0  0  0  0  0  0  0  0
   -9.5161   -5.0167    0.0641 C   0  0  0  0  0  0  0  0  0  0  0  0
   -9.9826   -3.9567    0.0080 N   0  0  0  0  0  0  0  0  0  0  0  0
   -6.6151  -11.7164    1.3403 C   0  0  0  0  0  0  0  0  0  0  0  0
   -5.9001  -12.4681    0.1708 C   0  0  0  0  0  0  0  0  0  0  0  0
   -4.9007  -11.5599   -0.5062 C   0  0  0  0  0  0  0  0  0  0  0  0
   -3.9163  -11.3535    0.3726 C   0  0  0  0  0  0  0  0  0  0  0  0
   -4.2871  -12.1234    1.6198 C   0  0  0  0  0  0  0  0  0  0  0  0
   -4.9408  -13.3294    0.9712 C   0  0  0  0  0  0  0  0  0  0  0  0
   -5.5307  -11.4725    2.3009 C   0  0  0  0  0  0  0  0  0  0  0  0
   -5.4562   -3.3886    0.8082 C   0  0  0  0  0  0  0  0  0  0  0  0
   -4.7337   -2.5662   -0.4815 S   0  0  0  0  0  0  0  0  0  0  0  0
   -3.5229   -1.8740    0.4399 C   0  0  0  0  0  0  0  0  0  0  0  0
   -2.4609   -1.0580    0.0367 C   0  0  0  0  0  0  0  0  0  0  0  0
   -2.2007   -0.3696   -1.4884 S   0  0  0  0  0  0  0  0  0  0  0  0
   -0.7867    0.3729   -0.9542 C   0  0  0  0  0  0  0  0  0  0  0  0
    0.3165    0.8356   -1.5836 C   0  0  0  0  0  0  0  0  0  0  0  0
    0.5033    1.1749   -2.9230 C   0  0  0  0  0  0  0  0  0  0  0  0
    1.7991    1.5584   -3.3495 C   0  0  0  0  0  0  0  0  0  0  0  0
    1.9367    1.9372   -4.6442 N   0  0  0  0  0  0  0  0  0  0  0  0
    0.3773    1.7340   -5.1590 S   0  0  0  0  0  0  0  0  0  0  0  0
   -0.4859    1.2061   -3.8503 N   0  0  0  0  0  0  0  0  0  0  0  0
    2.8366    1.5648   -2.4108 C   0  0  0  0  0  0  0  0  0  0  0  0
    4.0480    2.1798   -2.4949 C   0  0  0  0  0  0  0  0  0  0  0  0
    4.6239    3.3810   -3.5194 S   0  0  0  0  0  0  0  0  0  0  0  0
    5.6837    3.9674   -2.3402 C   0  0  0  0  0  0  0  0  0  0  0  0
    6.4582    5.1332   -2.4118 C   0  0  0  0  0  0  0  0  0  0  0  0
    7.2058    5.5657   -1.3182 C   0  0  0  0  0  0  0  0  0  0  0  0
    7.1838    4.7875   -0.1596 C   0  0  0  0  0  0  0  0  0  0  0  0
    7.8433    4.9687    0.9929 N   0  0  0  0  0  0  0  0  0  0  0  0
    7.4630    3.9486    1.7569 N   0  0  0  0  0  0  0  0  0  0  0  0
    7.9253    3.7520    3.1260 C   0  0  0  0  0  0  0  0  0  0  0  0
    6.9111    4.3256    4.1083 C   0  0  0  0  0  0  0  0  0  0  0  0
    6.5811    3.1485    1.1642 N   0  0  0  0  0  0  0  0  0  0  0  0
    6.3873    3.6697   -0.0554 C   0  0  0  0  0  0  0  0  0  0  0  0
    5.5783    3.2365   -1.1282 C   0  0  0  0  0  0  0  0  0  0  0  0
    4.5862    2.2279   -1.2446 C   0  0  0  0  0  0  0  0  0  0  0  0
    3.7616    1.6198   -0.3348 N   0  0  0  0  0  0  0  0  0  0  0  0
    2.6666    1.2005   -1.0616 C   0  0  0  0  0  0  0  0  0  0  0  0
    1.3541    0.7814   -0.6406 C   0  0  0  0  0  0  0  0  0  0  0  0
    0.9050    0.2004    0.5337 N   0  0  0  0  0  0  0  0  0  0  0  0
   -0.4458    0.0661    0.3234 C   0  0  0  0  0  0  0  0  0  0  0  0
   -1.4379   -0.7135    0.9475 C   0  0  0  0  0  0  0  0  0  0  0  0
   -1.6313   -1.0657    2.2974 C   0  0  0  0  0  0  0  0  0  0  0  0
   -2.7292   -1.7957    2.6964 C   0  0  0  0  0  0  0  0  0  0  0  0
   -3.6778   -2.2523    1.7725 C   0  0  0  0  0  0  0  0  0  0  0  0
   -4.7975   -3.0605    2.0026 C   0  0  0  0  0  0  0  0  0  0  0  0
   -2.7598   -1.8359    4.0355 N   0  0  0  0  0  0  0  0  0  0  0  0
   -1.7024   -1.1210    4.4158 N   0  0  0  0  0  0  0  0  0  0  0  0
   -1.3731   -0.8522    5.8098 C   0  0  0  0  0  0  0  0  0  0  0  0
   -1.5252    0.6353    6.1140 C   0  0  0  0  0  0  0  0  0  0  0  0
   -1.0044   -0.6253    3.3943 N   0  0  0  0  0  0  0  0  0  0  0  0
    1.6649   -0.8172    1.2804 C   0  0  0  0  0  0  0  0  0  0  0  0
    1.8403   -0.4729    2.7641 C   0  0  0  0  0  0  0  0  0  0  0  0
    3.9079    1.6896    1.1145 C   0  0  0  0  0  0  0  0  0  0  0  0
    4.9508    0.6711    1.5934 C   0  0  0  0  0  0  0  0  0  0  0  0
    7.8110    6.8132   -1.4989 C   0  0  0  0  0  0  0  0  0  0  0  0
    7.4644    7.3837   -2.7239 C   0  0  0  0  0  0  0  0  0  0  0  0
    6.5052    6.3009   -3.6139 S   0  0  0  0  0  0  0  0  0  0  0  0
    7.8284    8.7435   -3.1399 C   0  0  0  0  0  0  0  0  0  0  0  0
    6.9997    9.5925   -3.7713 C   0  0  0  0  0  0  0  0  0  0  0  0
    7.4919   10.7079   -4.5958 C   0  0  0  0  0  0  0  0  0  0  0  0
    8.6594   11.1783   -4.5961 O   0  0  0  0  0  0  0  0  0  0  0  0
    6.4131   11.1112   -5.4681 C   0  0  0  0  0  0  0  0  0  0  0  0
    5.2917   10.3661   -5.1971 C   0  0  0  0  0  0  0  0  0  0  0  0
    4.1928   10.6563   -6.0033 C   0  0  0  0  0  0  0  0  0  0  0  0
    4.6989   11.8778   -7.0644 S   0  0  0  0  0  0  0  0  0  0  0  0
    6.2791   12.0420   -6.4858 C   0  0  0  0  0  0  0  0  0  0  0  0
    7.3345   12.9403   -7.0388 C   0  0  0  0  0  0  0  0  0  0  0  0
    5.5317    9.4659   -4.0464 C   0  0  0  0  0  0  0  0  0  0  0  0
    4.5697    9.0083   -3.2107 C   0  0  0  0  0  0  0  0  0  0  0  0
    4.8508    8.6169   -1.8526 C   0  0  0  0  0  0  0  0  0  0  0  0
    5.0512    8.3031   -0.7583 N   0  0  0  0  0  0  0  0  0  0  0  0
    3.1719    9.0327   -3.5690 C   0  0  0  0  0  0  0  0  0  0  0  0
    2.0531    9.0507   -3.8577 N   0  0  0  0  0  0  0  0  0  0  0  0
   -7.2560   -3.9931   -0.1917 H   0  0  0  0  0  0  0  0  0  0  0  0
   -4.4297   -8.5687    3.1039 H   0  0  0  0  0  0  0  0  0  0  0  0
   -8.3234   -9.4351   -0.0866 H   0  0  0  0  0  0  0  0  0  0  0  0
   -7.4882  -12.2491    1.7750 H   0  0  0  0  0  0  0  0  0  0  0  0
   -6.5724  -13.0247   -0.5163 H   0  0  0  0  0  0  0  0  0  0  0  0
   -4.9188  -11.2145   -1.5381 H   0  0  0  0  0  0  0  0  0  0  0  0
   -3.0042  -10.7991    0.1854 H   0  0  0  0  0  0  0  0  0  0  0  0
   -3.4392  -12.3419    2.3043 H   0  0  0  0  0  0  0  0  0  0  0  0
   -4.2369  -13.9243    0.3343 H   0  0  0  0  0  0  0  0  0  0  0  0
   -5.4484  -14.0036    1.7026 H   0  0  0  0  0  0  0  0  0  0  0  0
   -5.7554  -11.8409    3.3273 H   0  0  0  0  0  0  0  0  0  0  0  0
    8.0533    2.6650    3.3235 H   0  0  0  0  0  0  0  0  0  0  0  0
    8.9099    4.2508    3.2699 H   0  0  0  0  0  0  0  0  0  0  0  0
    6.8213    5.4228    3.9618 H   0  0  0  0  0  0  0  0  0  0  0  0
    5.9177    3.8506    3.9570 H   0  0  0  0  0  0  0  0  0  0  0  0
    7.2516    4.1305    5.1509 H   0  0  0  0  0  0  0  0  0  0  0  0
   -5.1001   -3.4056    2.9852 H   0  0  0  0  0  0  0  0  0  0  0  0
   -2.0480   -1.4326    6.4804 H   0  0  0  0  0  0  0  0  0  0  0  0
   -0.3257   -1.1638    6.0107 H   0  0  0  0  0  0  0  0  0  0  0  0
   -0.7877    1.2289    5.5243 H   0  0  0  0  0  0  0  0  0  0  0  0
   -2.5546    0.9817    5.8662 H   0  0  0  0  0  0  0  0  0  0  0  0
   -1.3398    0.8143    7.1958 H   0  0  0  0  0  0  0  0  0  0  0  0
    2.6432   -0.9885    0.8007 H   0  0  0  0  0  0  0  0  0  0  0  0
    1.1491   -1.7996    1.2028 H   0  0  0  0  0  0  0  0  0  0  0  0
    1.4341   -1.2918    3.3975 H   0  0  0  0  0  0  0  0  0  0  0  0
    2.9125   -0.3987    3.0244 H   0  0  0  0  0  0  0  0  0  0  0  0
    1.3391    0.4820    3.0293 H   0  0  0  0  0  0  0  0  0  0  0  0
    2.9407    1.5395    1.6113 H   0  0  0  0  0  0  0  0  0  0  0  0
    4.1914    2.7138    1.4172 H   0  0  0  0  0  0  0  0  0  0  0  0
    4.6320   -0.3657    1.3898 H   0  0  0  0  0  0  0  0  0  0  0  0
    5.1208    0.7888    2.6837 H   0  0  0  0  0  0  0  0  0  0  0  0
    5.9157    0.8004    1.0592 H   0  0  0  0  0  0  0  0  0  0  0  0
    8.3960    7.3162   -0.7413 H   0  0  0  0  0  0  0  0  0  0  0  0
    8.8614    9.0286   -2.9977 H   0  0  0  0  0  0  0  0  0  0  0  0
    3.2143   10.2003   -5.9835 H   0  0  0  0  0  0  0  0  0  0  0  0
    8.0191   12.3572   -7.6865 H   0  0  0  0  0  0  0  0  0  0  0  0
    7.9113   13.3984   -6.2093 H   0  0  0  0  0  0  0  0  0  0  0  0
    6.8689   13.7495   -7.6377 H   0  0  0  0  0  0  0  0  0  0  0  0
  1  2  2  3
  2  3  1  0
  3  4  2  0
  3  5  1  0
  5  6  2  0
  6  7  1  0
  7  8  2  0
  8  9  1  0
  9 10  2  0
 10 11  1  0
 11 12  2  3
 12 13  1  0
 13 14  3  0
 12 15  1  0
 15 16  3  0
  8 17  1  0
 17 18  1  0
 18 19  1  0
 19 20  2  0
 20 21  1  0
 21 22  1  0
 21 23  1  0
  1 24  1  0
 24 25  1  0
 25 26  1  0
 26 27  1  0
 27 28  1  0
 28 29  1  0
 29 30  1  0
 30 31  1  0
 31 32  1  0
 32 33  2  0
 33 34  1  0
 34 35  1  0
 32 36  1  0
 36 37  1  0
 37 38  1  0
 38 39  1  0
 39 40  1  0
 40 41  2  0
 41 42  1  0
 42 43  2  0
 43 44  1  0
 44 45  1  0
 45 46  1  0
 44 47  1  0
 47 48  2  0
 48 49  1  0
 49 50  1  0
 50 51  1  0
 51 52  1  0
 52 53  1  0
 53 54  1  0
 54 55  1  0
 55 56  1  0
 56 57  1  0
 57 58  1  0
 58 59  1  0
 59 60  1  0
 58 61  2  0
 61 62  1  0
 62 63  1  0
 63 64  1  0
 62 65  1  0
 54 66  1  0
 66 67  1  0
 51 68  1  0
 68 69  1  0
 41 70  1  0
 70 71  2  0
 71 72  1  0
 71 73  1  0
 73 74  2  3
 74 75  1  0
 75 76  2  0
 75 77  1  0
 77 78  1  0
 78 79  2  0
 79 80  1  0
 80 81  1  0
 81 82  1  0
 78 83  1  0
 83 84  2  3
 84 85  1  0
 85 86  3  0
 84 87  1  0
 87 88  3  0
 11  2  1  0
 23 17  1  0
 60 24  2  0
 83 74  1  0
 10  5  1  0
 22 18  1  0
 59 26  2  0
 81 77  2  0
 23  7  1  0
 56 27  2  0
 65 57  2  0
 55 29  2  0
 53 30  2  0
 35 31  2  0
 52 36  2  0
 50 37  2  0
 49 39  2  0
 72 40  1  0
 48 42  1  0
  1 89  1  0
  6 90  1  0
  9 91  1  0
 17 92  1  0
 18 93  1  0
 19 94  1  0
 20 95  1  0
 21 96  1  0
 22 97  1  0
 22 98  1  0
 23 99  1  0
 45100  1  0
 45101  1  0
 46102  1  0
 46103  1  0
 46104  1  0
 60105  1  0
 63106  1  0
 63107  1  0
 64108  1  0
 64109  1  0
 64110  1  0
 66111  1  0
 66112  1  0
 67113  1  0
 67114  1  0
 67115  1  0
 68116  1  0
 68117  1  0
 69118  1  0
 69119  1  0
 69120  1  0
 70121  1  0
 73122  1  0
 79123  1  0
 82124  1  0
 82125  1  0
 82126  1  0
M  END

