
     RDKit          3D

155172  0  0  0  0  0  0  0  0999 V2000
    6.1766   -1.9611    4.7426 C   0  0  0  0  0  0  0  0  0  0  0  0
    6.1464   -1.8507    6.0831 C   0  0  0  0  0  0  0  0  0  0  0  0
    4.9345   -2.1172    6.8670 C   0  0  0  0  0  0  0  0  0  0  0  0
    4.0945   -3.0244    6.6271 O   0  0  0  0  0  0  0  0  0  0  0  0
    4.7902   -1.0949    7.8784 C   0  0  0  0  0  0  0  0  0  0  0  0
    3.6100   -0.8056    8.5999 C   0  0  0  0  0  0  0  0  0  0  0  0
    3.6053    0.4515    9.1677 C   0  0  0  0  0  0  0  0  0  0  0  0
    4.6903    1.3757    9.0446 C   0  0  0  0  0  0  0  0  0  0  0  0
    5.8702    1.0802    8.3776 C   0  0  0  0  0  0  0  0  0  0  0  0
    5.9052   -0.2201    7.7983 C   0  0  0  0  0  0  0  0  0  0  0  0
    6.8709   -0.7705    6.8101 C   0  0  0  0  0  0  0  0  0  0  0  0
    8.1753   -0.4363    6.6711 C   0  0  0  0  0  0  0  0  0  0  0  0
    9.0487   -1.1563    5.7799 C   0  0  0  0  0  0  0  0  0  0  0  0
    9.7581   -1.7281    5.0657 N   0  0  0  0  0  0  0  0  0  0  0  0
    8.7951    0.5871    7.4743 C   0  0  0  0  0  0  0  0  0  0  0  0
    9.3062    1.4038    8.1162 N   0  0  0  0  0  0  0  0  0  0  0  0
    3.8715    2.4476    9.7008 C   0  0  0  0  0  0  0  0  0  0  0  0
    3.2782    3.5395    8.7547 C   0  0  0  0  0  0  0  0  0  0  0  0
    2.2002    4.2354    9.5502 C   0  0  0  0  0  0  0  0  0  0  0  0
    1.1970    3.3546    9.6789 C   0  0  0  0  0  0  0  0  0  0  0  0
    1.6319    2.0982    8.9680 C   0  0  0  0  0  0  0  0  0  0  0  0
    2.3922    2.7406    7.8132 C   0  0  0  0  0  0  0  0  0  0  0  0
    2.7694    1.4880    9.8398 C   0  0  0  0  0  0  0  0  0  0  0  0
    4.9341   -1.8163    3.9727 C   0  0  0  0  0  0  0  0  0  0  0  0
    4.0943   -0.6994    4.0842 C   0  0  0  0  0  0  0  0  0  0  0  0
    3.0608   -0.7728    3.1708 C   0  0  0  0  0  0  0  0  0  0  0  0
    1.7897    0.2843    2.7845 S   0  0  0  0  0  0  0  0  0  0  0  0
    1.2549   -0.7797    1.5782 C   0  0  0  0  0  0  0  0  0  0  0  0
    0.1641   -0.8422    0.6578 C   0  0  0  0  0  0  0  0  0  0  0  0
   -0.7397    0.1535    0.2756 C   0  0  0  0  0  0  0  0  0  0  0  0
   -1.6489   -0.1758   -0.7408 C   0  0  0  0  0  0  0  0  0  0  0  0
   -2.5022    0.7894   -1.5603 C   0  0  0  0  0  0  0  0  0  0  0  0
   -3.5879    1.5224   -0.7613 C   0  0  0  0  0  0  0  0  0  0  0  0
   -4.2861    2.5920   -1.3566 C   0  0  0  0  0  0  0  0  0  0  0  0
   -5.2660    3.2903   -0.6510 C   0  0  0  0  0  0  0  0  0  0  0  0
   -5.5774    2.9302    0.6594 C   0  0  0  0  0  0  0  0  0  0  0  0
   -4.9169    1.8480    1.2714 C   0  0  0  0  0  0  0  0  0  0  0  0
   -5.1912    1.4518    2.5887 O   0  0  0  0  0  0  0  0  0  0  0  0
   -6.1239    2.1001    3.4469 C   0  0  0  0  0  0  0  0  0  0  0  0
   -6.1284    1.4167    4.8037 C   0  0  0  0  0  0  0  0  0  0  0  0
   -3.9445    1.1395    0.5508 C   0  0  0  0  0  0  0  0  0  0  0  0
   -1.5337    1.7301   -2.3010 C   0  0  0  0  0  0  0  0  0  0  0  0
   -1.1670    2.9726   -1.7435 C   0  0  0  0  0  0  0  0  0  0  0  0
   -0.2191    3.7829   -2.3683 C   0  0  0  0  0  0  0  0  0  0  0  0
    0.4245    3.3447   -3.5263 C   0  0  0  0  0  0  0  0  0  0  0  0
    0.1371    2.0881   -4.0649 C   0  0  0  0  0  0  0  0  0  0  0  0
    0.8566    1.6655   -5.1959 O   0  0  0  0  0  0  0  0  0  0  0  0
    0.7589    0.3767   -5.8025 C   0  0  0  0  0  0  0  0  0  0  0  0
    1.4539   -0.6858   -4.9515 C   0  0  0  0  0  0  0  0  0  0  0  0
   -0.8478    1.2912   -3.4542 C   0  0  0  0  0  0  0  0  0  0  0  0
   -3.1607   -0.2144   -2.4900 C   0  0  0  0  0  0  0  0  0  0  0  0
   -2.6732   -1.4849   -2.3108 C   0  0  0  0  0  0  0  0  0  0  0  0
   -1.6857   -1.4698   -1.2663 C   0  0  0  0  0  0  0  0  0  0  0  0
   -0.7309   -2.4405   -0.9399 C   0  0  0  0  0  0  0  0  0  0  0  0
    0.2304   -2.0865    0.0217 C   0  0  0  0  0  0  0  0  0  0  0  0
    1.5012   -2.8527    0.4118 C   0  0  0  0  0  0  0  0  0  0  0  0
    1.2315   -4.2203    1.0430 C   0  0  0  0  0  0  0  0  0  0  0  0
    2.2532   -5.1937    1.0873 C   0  0  0  0  0  0  0  0  0  0  0  0
    2.0257   -6.4377    1.6746 C   0  0  0  0  0  0  0  0  0  0  0  0
    0.7869   -6.7266    2.2511 C   0  0  0  0  0  0  0  0  0  0  0  0
   -0.2285   -5.7650    2.2670 C   0  0  0  0  0  0  0  0  0  0  0  0
   -1.4504   -6.1065    2.8704 O   0  0  0  0  0  0  0  0  0  0  0  0
   -2.6224   -5.2873    2.8932 C   0  0  0  0  0  0  0  0  0  0  0  0
   -3.2867   -5.2483    1.5203 C   0  0  0  0  0  0  0  0  0  0  0  0
    0.0097   -4.5025    1.6907 C   0  0  0  0  0  0  0  0  0  0  0  0
    2.4017   -2.8988   -0.8318 C   0  0  0  0  0  0  0  0  0  0  0  0
    2.1866   -3.8857   -1.8150 C   0  0  0  0  0  0  0  0  0  0  0  0
    2.9049   -3.8736   -3.0129 C   0  0  0  0  0  0  0  0  0  0  0  0
    3.8341   -2.8637   -3.2655 C   0  0  0  0  0  0  0  0  0  0  0  0
    4.0433   -1.8483   -2.3183 C   0  0  0  0  0  0  0  0  0  0  0  0
    4.9372   -0.7901   -2.5345 O   0  0  0  0  0  0  0  0  0  0  0  0
    5.6064   -0.5360   -3.7691 C   0  0  0  0  0  0  0  0  0  0  0  0
    6.4237    0.7405   -3.6473 C   0  0  0  0  0  0  0  0  0  0  0  0
    3.3300   -1.8724   -1.1152 C   0  0  0  0  0  0  0  0  0  0  0  0
    2.0102   -1.9119    1.4783 C   0  0  0  0  0  0  0  0  0  0  0  0
    3.0575   -1.8911    2.3857 C   0  0  0  0  0  0  0  0  0  0  0  0
    4.3762   -2.8675    2.7430 S   0  0  0  0  0  0  0  0  0  0  0  0
   -2.9193   -2.4778   -3.6663 S   0  0  0  0  0  0  0  0  0  0  0  0
   -3.7686   -1.2514   -4.4647 C   0  0  0  0  0  0  0  0  0  0  0  0
   -4.1786   -1.1148   -5.7851 C   0  0  0  0  0  0  0  0  0  0  0  0
   -4.5485    0.2084   -6.0589 C   0  0  0  0  0  0  0  0  0  0  0  0
   -4.2702    1.1838   -4.6881 S   0  0  0  0  0  0  0  0  0  0  0  0
   -3.7897   -0.1004   -3.7242 C   0  0  0  0  0  0  0  0  0  0  0  0
   -4.8416    0.7462   -7.3952 C   0  0  0  0  0  0  0  0  0  0  0  0
   -5.7612    0.2227   -8.2312 C   0  0  0  0  0  0  0  0  0  0  0  0
   -6.6443   -0.9058   -7.9178 C   0  0  0  0  0  0  0  0  0  0  0  0
   -6.9000   -1.3461   -6.7672 O   0  0  0  0  0  0  0  0  0  0  0  0
   -7.2418   -1.3874   -9.1501 C   0  0  0  0  0  0  0  0  0  0  0  0
   -6.8422   -0.5674  -10.1968 C   0  0  0  0  0  0  0  0  0  0  0  0
   -7.2150   -0.8923  -11.5120 C   0  0  0  0  0  0  0  0  0  0  0  0
   -8.0323   -2.0111  -11.7375 C   0  0  0  0  0  0  0  0  0  0  0  0
   -8.4482   -2.8230  -10.6678 C   0  0  0  0  0  0  0  0  0  0  0  0
   -9.5366   -4.3538  -11.0495 Br  0  0  0  0  0  0  0  0  0  0  0  0
   -8.0445   -2.5193   -9.3528 C   0  0  0  0  0  0  0  0  0  0  0  0
   -8.5169   -3.5461   -7.9987 Cl  0  0  0  0  0  0  0  0  0  0  0  0
   -5.9865    0.5444   -9.6804 C   0  0  0  0  0  0  0  0  0  0  0  0
   -5.6351    1.6794  -10.3450 C   0  0  0  0  0  0  0  0  0  0  0  0
   -5.9635    1.9097  -11.7242 C   0  0  0  0  0  0  0  0  0  0  0  0
   -6.2047    2.0986  -12.8447 N   0  0  0  0  0  0  0  0  0  0  0  0
   -4.9085    2.7555   -9.7206 C   0  0  0  0  0  0  0  0  0  0  0  0
   -4.2978    3.6002   -9.2234 N   0  0  0  0  0  0  0  0  0  0  0  0
    7.0647   -1.6805    4.1995 H   0  0  0  0  0  0  0  0  0  0  0  0
    2.7333   -1.4380    8.5833 H   0  0  0  0  0  0  0  0  0  0  0  0
    6.6260    1.8355    8.2220 H   0  0  0  0  0  0  0  0  0  0  0  0
    4.2934    2.8148   10.6614 H   0  0  0  0  0  0  0  0  0  0  0  0
    4.0195    4.2123    8.2698 H   0  0  0  0  0  0  0  0  0  0  0  0
    2.1812    5.2727    9.8666 H   0  0  0  0  0  0  0  0  0  0  0  0
    0.2239    3.5597   10.1093 H   0  0  0  0  0  0  0  0  0  0  0  0
    0.8123    1.4033    8.6854 H   0  0  0  0  0  0  0  0  0  0  0  0
    1.7429    3.3767    7.1606 H   0  0  0  0  0  0  0  0  0  0  0  0
    2.9399    2.0166    7.1686 H   0  0  0  0  0  0  0  0  0  0  0  0
    2.4970    1.2325   10.8911 H   0  0  0  0  0  0  0  0  0  0  0  0
    4.2476    0.1284    4.7674 H   0  0  0  0  0  0  0  0  0  0  0  0
   -0.6920    1.1526    0.6862 H   0  0  0  0  0  0  0  0  0  0  0  0
   -4.0578    2.9065   -2.3641 H   0  0  0  0  0  0  0  0  0  0  0  0
   -5.7810    4.1203   -1.1179 H   0  0  0  0  0  0  0  0  0  0  0  0
   -6.3334    3.4947    1.1862 H   0  0  0  0  0  0  0  0  0  0  0  0
   -7.1444    2.0444    3.0061 H   0  0  0  0  0  0  0  0  0  0  0  0
   -5.8339    3.1640    3.5799 H   0  0  0  0  0  0  0  0  0  0  0  0
   -5.1263    1.4999    5.2702 H   0  0  0  0  0  0  0  0  0  0  0  0
   -6.3947    0.3441    4.6873 H   0  0  0  0  0  0  0  0  0  0  0  0
   -6.8755    1.9046    5.4660 H   0  0  0  0  0  0  0  0  0  0  0  0
   -3.4624    0.3032    1.0355 H   0  0  0  0  0  0  0  0  0  0  0  0
   -1.6121    3.3178   -0.8220 H   0  0  0  0  0  0  0  0  0  0  0  0
    0.0345    4.7471   -1.9410 H   0  0  0  0  0  0  0  0  0  0  0  0
    1.1710    3.9758   -3.9930 H   0  0  0  0  0  0  0  0  0  0  0  0
    1.2704    0.4211   -6.7901 H   0  0  0  0  0  0  0  0  0  0  0  0
   -0.3030    0.1074   -5.9984 H   0  0  0  0  0  0  0  0  0  0  0  0
    0.9410   -0.8257   -3.9766 H   0  0  0  0  0  0  0  0  0  0  0  0
    1.4531   -1.6555   -5.4901 H   0  0  0  0  0  0  0  0  0  0  0  0
    2.5024   -0.3876   -4.7627 H   0  0  0  0  0  0  0  0  0  0  0  0
   -1.0578    0.3177   -3.8582 H   0  0  0  0  0  0  0  0  0  0  0  0
   -0.7032   -3.3970   -1.4430 H   0  0  0  0  0  0  0  0  0  0  0  0
    3.2303   -4.9903    0.6645 H   0  0  0  0  0  0  0  0  0  0  0  0
    2.8107   -7.1845    1.6784 H   0  0  0  0  0  0  0  0  0  0  0  0
    0.6213   -7.6997    2.6983 H   0  0  0  0  0  0  0  0  0  0  0  0
   -3.3369   -5.7305    3.6179 H   0  0  0  0  0  0  0  0  0  0  0  0
   -2.3816   -4.2615    3.2487 H   0  0  0  0  0  0  0  0  0  0  0  0
   -3.5309   -6.2783    1.1874 H   0  0  0  0  0  0  0  0  0  0  0  0
   -2.6236   -4.7729    0.7706 H   0  0  0  0  0  0  0  0  0  0  0  0
   -4.2245   -4.6560    1.5801 H   0  0  0  0  0  0  0  0  0  0  0  0
   -0.7488   -3.7387    1.7459 H   0  0  0  0  0  0  0  0  0  0  0  0
    1.4442   -4.6581   -1.6639 H   0  0  0  0  0  0  0  0  0  0  0  0
    2.7246   -4.6397   -3.7575 H   0  0  0  0  0  0  0  0  0  0  0  0
    4.3693   -2.8728   -4.2057 H   0  0  0  0  0  0  0  0  0  0  0  0
    6.2819   -1.3859   -4.0078 H   0  0  0  0  0  0  0  0  0  0  0  0
    4.8636   -0.4181   -4.5872 H   0  0  0  0  0  0  0  0  0  0  0  0
    6.9248    0.9551   -4.6141 H   0  0  0  0  0  0  0  0  0  0  0  0
    5.7519    1.5918   -3.3912 H   0  0  0  0  0  0  0  0  0  0  0  0
    7.1896    0.6272   -2.8515 H   0  0  0  0  0  0  0  0  0  0  0  0
    3.4871   -1.0577   -0.4194 H   0  0  0  0  0  0  0  0  0  0  0  0
   -4.1256   -1.9019   -6.5225 H   0  0  0  0  0  0  0  0  0  0  0  0
   -4.2079    1.5550   -7.6934 H   0  0  0  0  0  0  0  0  0  0  0  0
   -6.8757   -0.3363  -12.3705 H   0  0  0  0  0  0  0  0  0  0  0  0
   -8.3216   -2.2671  -12.7492 H   0  0  0  0  0  0  0  0  0  0  0  0
  1  2  2  3
  2  3  1  0
  3  4  2  0
  3  5  1  0
  5  6  2  0
  6  7  1  0
  7  8  2  0
  8  9  1  0
  9 10  2  0
 10 11  1  0
 11 12  2  3
 12 13  1  0
 13 14  3  0
 12 15  1  0
 15 16  3  0
  8 17  1  0
 17 18  1  0
 18 19  1  0
 19 20  2  0
 20 21  1  0
 21 22  1  0
 21 23  1  0
  1 24  1  0
 24 25  2  0
 25 26  1  0
 26 27  1  0
 27 28  1  0
 28 29  1  0
 29 30  2  0
 30 31  1  0
 31 32  1  0
 32 33  1  0
 33 34  2  0
 34 35  1  0
 35 36  2  0
 36 37  1  0
 37 38  1  0
 38 39  1  0
 39 40  1  0
 37 41  2  0
 32 42  1  0
 42 43  2  0
 43 44  1  0
 44 45  2  0
 45 46  1  0
 46 47  1  0
 47 48  1  0
 48 49  1  0
 46 50  2  0
 32 51  1  0
 51 52  2  0
 52 53  1  0
 53 54  1  0
 54 55  2  0
 55 56  1  0
 56 57  1  0
 57 58  2  0
 58 59  1  0
 59 60  2  0
 60 61  1  0
 61 62  1  0
 62 63  1  0
 63 64  1  0
 61 65  2  0
 56 66  1  0
 66 67  2  0
 67 68  1  0
 68 69  2  0
 69 70  1  0
 70 71  1  0
 71 72  1  0
 72 73  1  0
 70 74  2  0
 56 75  1  0
 75 76  1  0
 76 77  1  0
 52 78  1  0
 78 79  1  0
 79 80  1  0
 80 81  2  0
 81 82  1  0
 82 83  1  0
 81 84  1  0
 84 85  2  3
 85 86  1  0
 86 87  2  0
 86 88  1  0
 88 89  2  0
 89 90  1  0
 90 91  2  0
 91 92  1  0
 92 93  1  0
 92 94  2  0
 94 95  1  0
 89 96  1  0
 96 97  2  3
 97 98  1  0
 98 99  3  0
 97100  1  0
100101  3  0
 11  2  1  0
 23 17  1  0
 77 24  1  0
 83 79  2  0
 96 85  1  0
 10  5  1  0
 22 18  1  0
 76 26  2  0
 94 88  1  0
 23  7  1  0
 75 28  2  0
 55 29  1  0
 65 57  1  0
 74 66  1  0
 53 31  2  0
 41 33  1  0
 50 42  1  0
 83 51  1  0
  1102  1  0
  6103  1  0
  9104  1  0
 17105  1  0
 18106  1  0
 19107  1  0
 20108  1  0
 21109  1  0
 22110  1  0
 22111  1  0
 23112  1  0
 25113  1  0
 30114  1  0
 34115  1  0
 35116  1  0
 36117  1  0
 39118  1  0
 39119  1  0
 40120  1  0
 40121  1  0
 40122  1  0
 41123  1  0
 43124  1  0
 44125  1  0
 45126  1  0
 48127  1  0
 48128  1  0
 49129  1  0
 49130  1  0
 49131  1  0
 50132  1  0
 54133  1  0
 58134  1  0
 59135  1  0
 60136  1  0
 63137  1  0
 63138  1  0
 64139  1  0
 64140  1  0
 64141  1  0
 65142  1  0
 67143  1  0
 68144  1  0
 69145  1  0
 72146  1  0
 72147  1  0
 73148  1  0
 73149  1  0
 73150  1  0
 74151  1  0
 80152  1  0
 84153  1  0
 90154  1  0
 91155  1  0
M  END

