
     RDKit          3D

132150  0  0  0  0  0  0  0  0999 V2000
    1.4808    0.4267   -8.5651 C   0  0  0  0  0  0  0  0  0  0  0  0
    0.3690    0.8986   -9.1638 C   0  0  0  0  0  0  0  0  0  0  0  0
   -0.9071    1.1807   -8.4886 C   0  0  0  0  0  0  0  0  0  0  0  0
   -1.0742    1.4154   -7.2616 O   0  0  0  0  0  0  0  0  0  0  0  0
   -1.9589    1.1698   -9.4734 C   0  0  0  0  0  0  0  0  0  0  0  0
   -3.3499    1.2178   -9.2286 C   0  0  0  0  0  0  0  0  0  0  0  0
   -4.1187    1.0188  -10.3581 C   0  0  0  0  0  0  0  0  0  0  0  0
   -3.5625    0.7813  -11.6596 C   0  0  0  0  0  0  0  0  0  0  0  0
   -2.1961    0.7457  -11.9058 C   0  0  0  0  0  0  0  0  0  0  0  0
   -1.3867    0.9773  -10.7565 C   0  0  0  0  0  0  0  0  0  0  0  0
    0.0965    0.9611  -10.6289 C   0  0  0  0  0  0  0  0  0  0  0  0
    0.9860    1.2897  -11.5941 C   0  0  0  0  0  0  0  0  0  0  0  0
    2.3719    1.5449  -11.2945 C   0  0  0  0  0  0  0  0  0  0  0  0
    3.4841    1.7580  -11.0569 N   0  0  0  0  0  0  0  0  0  0  0  0
    0.5765    1.5779  -12.9461 C   0  0  0  0  0  0  0  0  0  0  0  0
    0.2605    1.8195  -14.0334 N   0  0  0  0  0  0  0  0  0  0  0  0
   -4.9407    0.6417  -12.2365 C   0  0  0  0  0  0  0  0  0  0  0  0
   -5.4643    1.8354  -13.0841 C   0  0  0  0  0  0  0  0  0  0  0  0
   -6.9593    1.6398  -13.1944 C   0  0  0  0  0  0  0  0  0  0  0  0
   -7.4655    1.8840  -11.9797 C   0  0  0  0  0  0  0  0  0  0  0  0
   -6.2955    2.2245  -11.0899 C   0  0  0  0  0  0  0  0  0  0  0  0
   -5.4518    2.9909  -12.0959 C   0  0  0  0  0  0  0  0  0  0  0  0
   -5.5056    0.8970  -10.9061 C   0  0  0  0  0  0  0  0  0  0  0  0
    1.5266    0.1909   -7.1172 C   0  0  0  0  0  0  0  0  0  0  0  0
    2.0472    1.3585   -6.0003 S   0  0  0  0  0  0  0  0  0  0  0  0
    1.2668    0.6590   -4.6897 C   0  0  0  0  0  0  0  0  0  0  0  0
    1.0971    1.1550   -3.3874 C   0  0  0  0  0  0  0  0  0  0  0  0
    1.8633    2.4858   -2.6419 S   0  0  0  0  0  0  0  0  0  0  0  0
    0.9920    2.2398   -1.2184 C   0  0  0  0  0  0  0  0  0  0  0  0
    0.8493    2.8027    0.0100 C   0  0  0  0  0  0  0  0  0  0  0  0
    1.5689    3.8228    0.6298 C   0  0  0  0  0  0  0  0  0  0  0  0
    1.3144    4.0916    1.9986 C   0  0  0  0  0  0  0  0  0  0  0  0
    2.0767    5.0468    2.5881 N   0  0  0  0  0  0  0  0  0  0  0  0
    3.0167    5.4934    1.3009 S   0  0  0  0  0  0  0  0  0  0  0  0
    2.5461    4.5447    0.0281 N   0  0  0  0  0  0  0  0  0  0  0  0
    0.3664    3.3161    2.6731 C   0  0  0  0  0  0  0  0  0  0  0  0
    0.1993    3.1394    4.0143 C   0  0  0  0  0  0  0  0  0  0  0  0
    1.0644    3.6025    5.3792 S   0  0  0  0  0  0  0  0  0  0  0  0
    0.3927    2.3470    6.3012 C   0  0  0  0  0  0  0  0  0  0  0  0
    0.7958    1.9460    7.5842 C   0  0  0  0  0  0  0  0  0  0  0  0
    0.3363    0.7519    8.1343 C   0  0  0  0  0  0  0  0  0  0  0  0
   -0.5357   -0.0327    7.3907 C   0  0  0  0  0  0  0  0  0  0  0  0
   -0.9636   -1.2763    7.6537 N   0  0  0  0  0  0  0  0  0  0  0  0
   -1.6249   -1.6404    6.5588 N   0  0  0  0  0  0  0  0  0  0  0  0
   -2.1935   -2.9689    6.3748 C   0  0  0  0  0  0  0  0  0  0  0  0
   -1.1393   -3.9184    5.8151 C   0  0  0  0  0  0  0  0  0  0  0  0
   -1.5979   -0.7135    5.6048 N   0  0  0  0  0  0  0  0  0  0  0  0
   -0.9214    0.3236    6.1205 C   0  0  0  0  0  0  0  0  0  0  0  0
   -0.4777    1.5311    5.5260 C   0  0  0  0  0  0  0  0  0  0  0  0
   -0.5668    2.0369    4.2045 C   0  0  0  0  0  0  0  0  0  0  0  0
   -0.9882    1.5235    3.0131 N   0  0  0  0  0  0  0  0  0  0  0  0
   -0.3834    2.3036    2.0498 C   0  0  0  0  0  0  0  0  0  0  0  0
   -0.1712    2.0737    0.6499 C   0  0  0  0  0  0  0  0  0  0  0  0
   -0.7147    1.1514   -0.2232 N   0  0  0  0  0  0  0  0  0  0  0  0
    0.1157    1.2174   -1.2970 C   0  0  0  0  0  0  0  0  0  0  0  0
    0.1812    0.5327   -2.5122 C   0  0  0  0  0  0  0  0  0  0  0  0
   -0.4403   -0.6520   -2.9335 C   0  0  0  0  0  0  0  0  0  0  0  0
   -0.2371   -1.1473   -4.1938 C   0  0  0  0  0  0  0  0  0  0  0  0
    0.5912   -0.4913   -5.1113 C   0  0  0  0  0  0  0  0  0  0  0  0
    0.7470   -0.7719   -6.4684 C   0  0  0  0  0  0  0  0  0  0  0  0
   -0.9146   -2.2992   -4.3207 N   0  0  0  0  0  0  0  0  0  0  0  0
   -1.5001   -2.4761   -3.1370 N   0  0  0  0  0  0  0  0  0  0  0  0
   -2.2846   -3.6586   -2.8022 C   0  0  0  0  0  0  0  0  0  0  0  0
   -1.3726   -4.7549   -2.2633 C   0  0  0  0  0  0  0  0  0  0  0  0
   -1.2219   -1.5118   -2.2614 N   0  0  0  0  0  0  0  0  0  0  0  0
   -2.1455    0.8313   -0.4032 C   0  0  0  0  0  0  0  0  0  0  0  0
   -3.0533    2.0377   -0.1479 C   0  0  0  0  0  0  0  0  0  0  0  0
   -1.8879    0.3885    2.8467 C   0  0  0  0  0  0  0  0  0  0  0  0
   -1.1137   -0.8914    2.5326 C   0  0  0  0  0  0  0  0  0  0  0  0
    1.0026    0.3657    9.2922 C   0  0  0  0  0  0  0  0  0  0  0  0
    2.0291    1.2443    9.6364 C   0  0  0  0  0  0  0  0  0  0  0  0
    2.0733    2.5202    8.5206 S   0  0  0  0  0  0  0  0  0  0  0  0
    3.1439    0.8263   10.5027 C   0  0  0  0  0  0  0  0  0  0  0  0
    3.8395   -0.2817   10.1808 C   0  0  0  0  0  0  0  0  0  0  0  0
    3.8758   -1.4336   11.0859 C   0  0  0  0  0  0  0  0  0  0  0  0
    3.9051   -1.3824   12.3457 O   0  0  0  0  0  0  0  0  0  0  0  0
    3.7054   -2.6446   10.2939 C   0  0  0  0  0  0  0  0  0  0  0  0
    3.4308   -3.9369   10.7358 C   0  0  0  0  0  0  0  0  0  0  0  0
    3.1159   -4.9298    9.7844 C   0  0  0  0  0  0  0  0  0  0  0  0
    2.7906   -6.3241   10.2553 C   0  0  0  0  0  0  0  0  0  0  0  0
    3.0380   -4.5826    8.4028 C   0  0  0  0  0  0  0  0  0  0  0  0
    2.6655   -5.6066    7.3584 C   0  0  0  0  0  0  0  0  0  0  0  0
    3.3157   -3.2625    7.9933 C   0  0  0  0  0  0  0  0  0  0  0  0
    3.6741   -2.3129    8.9545 C   0  0  0  0  0  0  0  0  0  0  0  0
    3.9095   -0.8594    8.8078 C   0  0  0  0  0  0  0  0  0  0  0  0
    4.4078   -0.2202    7.7254 C   0  0  0  0  0  0  0  0  0  0  0  0
    4.9530    1.1087    7.8425 C   0  0  0  0  0  0  0  0  0  0  0  0
    5.4122    2.1700    7.9505 N   0  0  0  0  0  0  0  0  0  0  0  0
    4.6428   -0.8928    6.4757 C   0  0  0  0  0  0  0  0  0  0  0  0
    4.8475   -1.4375    5.4751 N   0  0  0  0  0  0  0  0  0  0  0  0
    2.3349    0.1080   -9.1462 H   0  0  0  0  0  0  0  0  0  0  0  0
   -3.7755    1.3603   -8.2429 H   0  0  0  0  0  0  0  0  0  0  0  0
   -1.8076    0.5159  -12.8872 H   0  0  0  0  0  0  0  0  0  0  0  0
   -5.1508   -0.3727  -12.6400 H   0  0  0  0  0  0  0  0  0  0  0  0
   -4.9360    2.0112  -14.0447 H   0  0  0  0  0  0  0  0  0  0  0  0
   -7.5314    1.4386  -14.0935 H   0  0  0  0  0  0  0  0  0  0  0  0
   -8.5182    1.9119  -11.7200 H   0  0  0  0  0  0  0  0  0  0  0  0
   -6.5507    2.7662  -10.1552 H   0  0  0  0  0  0  0  0  0  0  0  0
   -4.4388    3.2657  -11.7288 H   0  0  0  0  0  0  0  0  0  0  0  0
   -5.9582    3.9083  -12.4838 H   0  0  0  0  0  0  0  0  0  0  0  0
   -6.0772    0.0474  -10.4729 H   0  0  0  0  0  0  0  0  0  0  0  0
   -3.0542   -2.9150    5.6719 H   0  0  0  0  0  0  0  0  0  0  0  0
   -2.5591   -3.3559    7.3511 H   0  0  0  0  0  0  0  0  0  0  0  0
   -0.8315   -3.5877    4.8021 H   0  0  0  0  0  0  0  0  0  0  0  0
   -1.5654   -4.9395    5.7437 H   0  0  0  0  0  0  0  0  0  0  0  0
   -0.2521   -3.9427    6.4812 H   0  0  0  0  0  0  0  0  0  0  0  0
    0.2106   -1.5626   -6.9811 H   0  0  0  0  0  0  0  0  0  0  0  0
   -3.0388   -3.3955   -2.0312 H   0  0  0  0  0  0  0  0  0  0  0  0
   -2.8180   -4.0242   -3.7039 H   0  0  0  0  0  0  0  0  0  0  0  0
   -1.9750   -5.6605   -2.0251 H   0  0  0  0  0  0  0  0  0  0  0  0
   -0.8666   -4.4057   -1.3354 H   0  0  0  0  0  0  0  0  0  0  0  0
   -0.6054   -5.0243   -3.0230 H   0  0  0  0  0  0  0  0  0  0  0  0
   -2.4331   -0.0720    0.1607 H   0  0  0  0  0  0  0  0  0  0  0  0
   -2.3467    0.5612   -1.4575 H   0  0  0  0  0  0  0  0  0  0  0  0
   -2.9047    2.4796    0.8604 H   0  0  0  0  0  0  0  0  0  0  0  0
   -4.1180    1.7315   -0.2419 H   0  0  0  0  0  0  0  0  0  0  0  0
   -2.8480    2.8246   -0.9097 H   0  0  0  0  0  0  0  0  0  0  0  0
   -2.6521    0.6142    2.1007 H   0  0  0  0  0  0  0  0  0  0  0  0
   -2.5259    0.2687    3.7373 H   0  0  0  0  0  0  0  0  0  0  0  0
   -1.8185   -1.7451    2.4538 H   0  0  0  0  0  0  0  0  0  0  0  0
   -0.5669   -0.7928    1.5748 H   0  0  0  0  0  0  0  0  0  0  0  0
   -0.3729   -1.1047    3.3290 H   0  0  0  0  0  0  0  0  0  0  0  0
    0.8590   -0.5925    9.7689 H   0  0  0  0  0  0  0  0  0  0  0  0
    3.0466    1.0903   11.5494 H   0  0  0  0  0  0  0  0  0  0  0  0
    3.4189   -4.1566   11.7976 H   0  0  0  0  0  0  0  0  0  0  0  0
    1.7025   -6.5127   10.1336 H   0  0  0  0  0  0  0  0  0  0  0  0
    3.0524   -6.4625   11.3284 H   0  0  0  0  0  0  0  0  0  0  0  0
    3.3591   -7.0745    9.6683 H   0  0  0  0  0  0  0  0  0  0  0  0
    1.6815   -6.0683    7.6072 H   0  0  0  0  0  0  0  0  0  0  0  0
    3.4482   -6.4010    7.3070 H   0  0  0  0  0  0  0  0  0  0  0  0
    2.5768   -5.1487    6.3483 H   0  0  0  0  0  0  0  0  0  0  0  0
    3.1905   -2.9808    6.9587 H   0  0  0  0  0  0  0  0  0  0  0  0
  1  2  2  3
  2  3  1  0
  3  4  2  0
  3  5  1  0
  5  6  2  0
  6  7  1  0
  7  8  2  0
  8  9  1  0
  9 10  2  0
 10 11  1  0
 11 12  2  3
 12 13  1  0
 13 14  3  0
 12 15  1  0
 15 16  3  0
  8 17  1  0
 17 18  1  0
 18 19  1  0
 19 20  2  0
 20 21  1  0
 21 22  1  0
 21 23  1  0
  1 24  1  0
 24 25  1  0
 25 26  1  0
 26 27  1  0
 27 28  1  0
 28 29  1  0
 29 30  1  0
 30 31  1  0
 31 32  1  0
 32 33  2  0
 33 34  1  0
 34 35  1  0
 32 36  1  0
 36 37  1  0
 37 38  1  0
 38 39  1  0
 39 40  1  0
 40 41  2  0
 41 42  1  0
 42 43  2  0
 43 44  1  0
 44 45  1  0
 45 46  1  0
 44 47  1  0
 47 48  2  0
 48 49  1  0
 49 50  1  0
 50 51  1  0
 51 52  1  0
 52 53  1  0
 53 54  1  0
 54 55  1  0
 55 56  1  0
 56 57  1  0
 57 58  1  0
 58 59  1  0
 59 60  1  0
 58 61  2  0
 61 62  1  0
 62 63  1  0
 63 64  1  0
 62 65  1  0
 54 66  1  0
 66 67  1  0
 51 68  1  0
 68 69  1  0
 41 70  1  0
 70 71  2  0
 71 72  1  0
 71 73  1  0
 73 74  2  3
 74 75  1  0
 75 76  2  0
 75 77  1  0
 77 78  2  0
 78 79  1  0
 79 80  1  0
 79 81  2  0
 81 82  1  0
 81 83  1  0
 83 84  2  0
 84 85  1  0
 85 86  2  3
 86 87  1  0
 87 88  3  0
 86 89  1  0
 89 90  3  0
 11  2  1  0
 23 17  1  0
 60 24  2  0
 85 74  1  0
 10  5  1  0
 22 18  1  0
 59 26  2  0
 84 77  1  0
 23  7  1  0
 56 27  2  0
 65 57  2  0
 55 29  2  0
 53 30  2  0
 35 31  2  0
 52 36  2  0
 50 37  2  0
 49 39  2  0
 72 40  1  0
 48 42  1  0
  1 91  1  0
  6 92  1  0
  9 93  1  0
 17 94  1  0
 18 95  1  0
 19 96  1  0
 20 97  1  0
 21 98  1  0
 22 99  1  0
 22100  1  0
 23101  1  0
 45102  1  0
 45103  1  0
 46104  1  0
 46105  1  0
 46106  1  0
 60107  1  0
 63108  1  0
 63109  1  0
 64110  1  0
 64111  1  0
 64112  1  0
 66113  1  0
 66114  1  0
 67115  1  0
 67116  1  0
 67117  1  0
 68118  1  0
 68119  1  0
 69120  1  0
 69121  1  0
 69122  1  0
 70123  1  0
 73124  1  0
 78125  1  0
 80126  1  0
 80127  1  0
 80128  1  0
 82129  1  0
 82130  1  0
 82131  1  0
 83132  1  0
M  END

