
     RDKit          3D

104117  0  0  0  0  0  0  0  0999 V2000
    7.0555   -4.5046   -0.6752 C   0  0  0  0  0  0  0  0  0  0  0  0
    7.7302   -4.6132    0.4875 C   0  0  0  0  0  0  0  0  0  0  0  0
    9.2017   -4.7319    0.4772 C   0  0  0  0  0  0  0  0  0  0  0  0
    9.9449   -4.8012   -0.5359 O   0  0  0  0  0  0  0  0  0  0  0  0
    9.6533   -4.6302    1.8258 C   0  0  0  0  0  0  0  0  0  0  0  0
   11.1276   -4.4940    2.6029 S   0  0  0  0  0  0  0  0  0  0  0  0
   10.4117   -4.2397    4.1261 C   0  0  0  0  0  0  0  0  0  0  0  0
    9.0212   -4.2556    4.0024 C   0  0  0  0  0  0  0  0  0  0  0  0
    8.6189   -4.4886    2.6762 C   0  0  0  0  0  0  0  0  0  0  0  0
    7.3230   -4.5450    1.9523 C   0  0  0  0  0  0  0  0  0  0  0  0
    6.1152   -4.6894    2.5623 C   0  0  0  0  0  0  0  0  0  0  0  0
    4.8488   -4.7470    1.8904 C   0  0  0  0  0  0  0  0  0  0  0  0
    3.8006   -4.7466    1.4113 N   0  0  0  0  0  0  0  0  0  0  0  0
    5.9929   -4.7738    3.9950 C   0  0  0  0  0  0  0  0  0  0  0  0
    5.8783   -4.8534    5.1451 N   0  0  0  0  0  0  0  0  0  0  0  0
    5.6540   -4.1388   -0.8819 C   0  0  0  0  0  0  0  0  0  0  0  0
    4.5363   -5.2366   -1.5485 S   0  0  0  0  0  0  0  0  0  0  0  0
    3.3585   -4.0672   -1.6944 C   0  0  0  0  0  0  0  0  0  0  0  0
    2.0080   -4.0432   -1.8563 C   0  0  0  0  0  0  0  0  0  0  0  0
    1.1077   -5.1121   -1.9257 C   0  0  0  0  0  0  0  0  0  0  0  0
   -0.2757   -4.8555   -1.7338 C   0  0  0  0  0  0  0  0  0  0  0  0
   -1.1134   -5.9237   -1.7454 N   0  0  0  0  0  0  0  0  0  0  0  0
   -0.0124   -7.1364   -1.9866 S   0  0  0  0  0  0  0  0  0  0  0  0
    1.4735   -6.4100   -2.0852 N   0  0  0  0  0  0  0  0  0  0  0  0
   -0.6831   -3.5419   -1.5022 C   0  0  0  0  0  0  0  0  0  0  0  0
   -1.9233   -3.0265   -1.2797 C   0  0  0  0  0  0  0  0  0  0  0  0
   -3.5499   -3.5233   -1.2336 S   0  0  0  0  0  0  0  0  0  0  0  0
   -4.0683   -1.9077   -1.0377 C   0  0  0  0  0  0  0  0  0  0  0  0
   -5.3165   -1.2908   -0.8567 C   0  0  0  0  0  0  0  0  0  0  0  0
   -6.6387   -2.0102   -0.9195 C   0  0  0  0  0  0  0  0  0  0  0  0
   -6.8240   -2.9342    0.2800 C   0  0  0  0  0  0  0  0  0  0  0  0
   -5.1512    0.0926   -0.6253 C   0  0  0  0  0  0  0  0  0  0  0  0
   -3.4953    0.5051   -0.7289 S   0  0  0  0  0  0  0  0  0  0  0  0
   -2.9966   -1.0503   -1.0305 C   0  0  0  0  0  0  0  0  0  0  0  0
   -1.7788   -1.6893   -1.1776 C   0  0  0  0  0  0  0  0  0  0  0  0
   -0.5063   -1.2606   -1.3846 N   0  0  0  0  0  0  0  0  0  0  0  0
    0.2037   -2.4458   -1.5007 C   0  0  0  0  0  0  0  0  0  0  0  0
    1.6117   -2.7181   -1.6050 C   0  0  0  0  0  0  0  0  0  0  0  0
    2.7167   -1.9699   -1.2385 N   0  0  0  0  0  0  0  0  0  0  0  0
    3.7653   -2.8497   -1.2825 C   0  0  0  0  0  0  0  0  0  0  0  0
    5.1069   -2.8325   -0.8139 C   0  0  0  0  0  0  0  0  0  0  0  0
    5.8929   -1.6369   -0.3325 C   0  0  0  0  0  0  0  0  0  0  0  0
    5.7674   -1.4208    1.1726 C   0  0  0  0  0  0  0  0  0  0  0  0
    2.7746   -0.5864   -0.7693 C   0  0  0  0  0  0  0  0  0  0  0  0
    3.1722    0.3519   -1.9133 C   0  0  0  0  0  0  0  0  0  0  0  0
   -0.2653   -0.0041   -2.1139 C   0  0  0  0  0  0  0  0  0  0  0  0
   -0.1954   -0.2431   -3.6191 C   0  0  0  0  0  0  0  0  0  0  0  0
   -6.2190    1.1046   -0.4883 C   0  0  0  0  0  0  0  0  0  0  0  0
   -6.0192    2.2256    0.2194 C   0  0  0  0  0  0  0  0  0  0  0  0
   -5.9809    3.5237   -0.4590 C   0  0  0  0  0  0  0  0  0  0  0  0
   -6.7276    3.8734   -1.4119 O   0  0  0  0  0  0  0  0  0  0  0  0
   -4.8321    4.2696    0.0366 C   0  0  0  0  0  0  0  0  0  0  0  0
   -4.2037    5.3784   -0.5817 C   0  0  0  0  0  0  0  0  0  0  0  0
   -2.9468    5.6686   -0.0705 C   0  0  0  0  0  0  0  0  0  0  0  0
   -2.3524    4.9307    1.0060 C   0  0  0  0  0  0  0  0  0  0  0  0
   -2.9704    3.8619    1.6286 C   0  0  0  0  0  0  0  0  0  0  0  0
   -4.2491    3.5413    1.1026 C   0  0  0  0  0  0  0  0  0  0  0  0
   -5.0623    2.3355    1.3476 C   0  0  0  0  0  0  0  0  0  0  0  0
   -5.0991    1.5857    2.4701 C   0  0  0  0  0  0  0  0  0  0  0  0
   -4.2770    1.8745    3.6206 C   0  0  0  0  0  0  0  0  0  0  0  0
   -3.6373    2.1101    4.5556 N   0  0  0  0  0  0  0  0  0  0  0  0
   -6.0988    0.5603    2.6408 C   0  0  0  0  0  0  0  0  0  0  0  0
   -6.9065   -0.2609    2.7838 N   0  0  0  0  0  0  0  0  0  0  0  0
   -1.0983    5.7431    0.9036 C   0  0  0  0  0  0  0  0  0  0  0  0
   -0.8768    6.8273    1.9995 C   0  0  0  0  0  0  0  0  0  0  0  0
    0.2160    7.7183    1.4657 C   0  0  0  0  0  0  0  0  0  0  0  0
   -0.3155    8.4009    0.4416 C   0  0  0  0  0  0  0  0  0  0  0  0
   -1.7534    7.9536    0.3285 C   0  0  0  0  0  0  0  0  0  0  0  0
   -2.0600    7.7637    1.8052 C   0  0  0  0  0  0  0  0  0  0  0  0
   -1.6977    6.4941   -0.2045 C   0  0  0  0  0  0  0  0  0  0  0  0
    7.6010   -4.6684   -1.5996 H   0  0  0  0  0  0  0  0  0  0  0  0
   10.9491   -4.0693    5.0471 H   0  0  0  0  0  0  0  0  0  0  0  0
    8.3601   -4.0575    4.8363 H   0  0  0  0  0  0  0  0  0  0  0  0
   -7.4758   -1.2831   -0.9500 H   0  0  0  0  0  0  0  0  0  0  0  0
   -6.6854   -2.6087   -1.8561 H   0  0  0  0  0  0  0  0  0  0  0  0
   -7.8747   -3.2937    0.3140 H   0  0  0  0  0  0  0  0  0  0  0  0
   -6.1568   -3.8162    0.1846 H   0  0  0  0  0  0  0  0  0  0  0  0
   -6.5997   -2.3967    1.2311 H   0  0  0  0  0  0  0  0  0  0  0  0
    6.9659   -1.7613   -0.5789 H   0  0  0  0  0  0  0  0  0  0  0  0
    5.5822   -0.7218   -0.8642 H   0  0  0  0  0  0  0  0  0  0  0  0
    6.4865   -2.0617    1.7154 H   0  0  0  0  0  0  0  0  0  0  0  0
    4.7402   -1.6471    1.5379 H   0  0  0  0  0  0  0  0  0  0  0  0
    6.0128   -0.3640    1.4221 H   0  0  0  0  0  0  0  0  0  0  0  0
    3.5032   -0.4792    0.0509 H   0  0  0  0  0  0  0  0  0  0  0  0
    1.8231   -0.3086   -0.2854 H   0  0  0  0  0  0  0  0  0  0  0  0
    2.5270    0.2017   -2.8019 H   0  0  0  0  0  0  0  0  0  0  0  0
    3.1092    1.4084   -1.5773 H   0  0  0  0  0  0  0  0  0  0  0  0
    4.2052    0.1526   -2.2582 H   0  0  0  0  0  0  0  0  0  0  0  0
   -1.0785    0.7181   -1.9218 H   0  0  0  0  0  0  0  0  0  0  0  0
    0.6103    0.5336   -1.7573 H   0  0  0  0  0  0  0  0  0  0  0  0
    0.6495   -0.9203   -3.8633 H   0  0  0  0  0  0  0  0  0  0  0  0
   -0.0424    0.7255   -4.1428 H   0  0  0  0  0  0  0  0  0  0  0  0
   -1.1445   -0.6968   -3.9756 H   0  0  0  0  0  0  0  0  0  0  0  0
   -7.0075    1.0887   -1.2363 H   0  0  0  0  0  0  0  0  0  0  0  0
   -4.6057    5.8811   -1.4488 H   0  0  0  0  0  0  0  0  0  0  0  0
   -2.4550    3.2622    2.3585 H   0  0  0  0  0  0  0  0  0  0  0  0
   -0.2008    5.1443    0.6279 H   0  0  0  0  0  0  0  0  0  0  0  0
   -0.7233    6.4527    3.0311 H   0  0  0  0  0  0  0  0  0  0  0  0
    1.2154    7.8383    1.8618 H   0  0  0  0  0  0  0  0  0  0  0  0
    0.1746    9.1801   -0.1296 H   0  0  0  0  0  0  0  0  0  0  0  0
   -2.4224    8.6458   -0.2261 H   0  0  0  0  0  0  0  0  0  0  0  0
   -1.9769    8.7131    2.3910 H   0  0  0  0  0  0  0  0  0  0  0  0
   -3.0531    7.2984    2.0051 H   0  0  0  0  0  0  0  0  0  0  0  0
   -1.1833    6.3577   -1.1800 H   0  0  0  0  0  0  0  0  0  0  0  0
  1  2  2  3
  2  3  1  0
  3  4  2  0
  3  5  1  0
  5  6  1  0
  6  7  1  0
  7  8  2  0
  8  9  1  0
  9 10  1  0
 10 11  2  3
 11 12  1  0
 12 13  3  0
 11 14  1  0
 14 15  3  0
  1 16  1  0
 16 17  1  0
 17 18  1  0
 18 19  1  0
 19 20  1  0
 20 21  1  0
 21 22  2  0
 22 23  1  0
 23 24  1  0
 21 25  1  0
 25 26  1  0
 26 27  1  0
 27 28  1  0
 28 29  1  0
 29 30  1  0
 30 31  1  0
 29 32  2  0
 32 33  1  0
 33 34  1  0
 34 35  1  0
 35 36  1  0
 36 37  1  0
 37 38  1  0
 38 39  1  0
 39 40  1  0
 40 41  1  0
 41 42  1  0
 42 43  1  0
 39 44  1  0
 44 45  1  0
 36 46  1  0
 46 47  1  0
 32 48  1  0
 48 49  2  3
 49 50  1  0
 50 51  2  0
 50 52  1  0
 52 53  2  0
 53 54  1  0
 54 55  2  0
 55 56  1  0
 56 57  2  0
 57 58  1  0
 58 59  2  3
 59 60  1  0
 60 61  3  0
 59 62  1  0
 62 63  3  0
 55 64  1  0
 64 65  1  0
 65 66  1  0
 66 67  2  0
 67 68  1  0
 68 69  1  0
 68 70  1  0
 10  2  1  0
 41 16  2  0
 58 49  1  0
 70 64  1  0
  9  5  2  0
 40 18  2  0
 57 52  1  0
 69 65  1  0
 38 19  2  0
 70 54  1  0
 24 20  2  0
 37 25  2  0
 35 26  2  0
 34 28  2  0
  1 71  1  0
  7 72  1  0
  8 73  1  0
 30 74  1  0
 30 75  1  0
 31 76  1  0
 31 77  1  0
 31 78  1  0
 42 79  1  0
 42 80  1  0
 43 81  1  0
 43 82  1  0
 43 83  1  0
 44 84  1  0
 44 85  1  0
 45 86  1  0
 45 87  1  0
 45 88  1  0
 46 89  1  0
 46 90  1  0
 47 91  1  0
 47 92  1  0
 47 93  1  0
 48 94  1  0
 53 95  1  0
 56 96  1  0
 64 97  1  0
 65 98  1  0
 66 99  1  0
 67100  1  0
 68101  1  0
 69102  1  0
 69103  1  0
 70104  1  0
M  END

