
     RDKit          3D

 82 93  0  0  0  0  0  0  0  0999 V2000
    3.6585   -1.4374   -7.8914 C   0  0  0  0  0  0  0  0  0  0  0  0
    2.6748   -2.2469   -8.5572 C   0  0  0  0  0  0  0  0  0  0  0  0
    1.8408   -2.9304   -9.1272 C   0  0  0  0  0  0  0  0  0  0  0  0
    1.7054   -4.2959   -8.7223 O   0  0  0  0  0  0  0  0  0  0  0  0
    0.9143   -2.6362  -10.1820 C   0  0  0  0  0  0  0  0  0  0  0  0
   -0.3463   -3.0959  -11.2274 S   0  0  0  0  0  0  0  0  0  0  0  0
   -0.5682   -1.6091  -12.0328 C   0  0  0  0  0  0  0  0  0  0  0  0
    0.3565   -0.7995  -11.4505 C   0  0  0  0  0  0  0  0  0  0  0  0
    1.1549   -1.3380  -10.4592 C   0  0  0  0  0  0  0  0  0  0  0  0
    2.2174   -0.8634   -9.5698 C   0  0  0  0  0  0  0  0  0  0  0  0
    2.6186    0.3120   -9.4003 C   0  0  0  0  0  0  0  0  0  0  0  0
    2.1693    1.3644  -10.3470 C   0  0  0  0  0  0  0  0  0  0  0  0
    1.8046    2.2046  -11.1004 N   0  0  0  0  0  0  0  0  0  0  0  0
    3.3861    0.9907   -8.3470 C   0  0  0  0  0  0  0  0  0  0  0  0
    3.9973    1.5392   -7.5304 N   0  0  0  0  0  0  0  0  0  0  0  0
    3.9096   -1.8020   -6.4885 C   0  0  0  0  0  0  0  0  0  0  0  0
    4.2542   -2.7108   -5.6133 C   0  0  0  0  0  0  0  0  0  0  0  0
    4.2608   -2.5388   -4.2658 C   0  0  0  0  0  0  0  0  0  0  0  0
    4.5706   -3.5374   -2.8677 S   0  0  0  0  0  0  0  0  0  0  0  0
    4.2078   -2.3973   -1.6273 C   0  0  0  0  0  0  0  0  0  0  0  0
    4.0122   -2.1854   -0.2694 C   0  0  0  0  0  0  0  0  0  0  0  0
    4.0675   -3.1109    0.7638 C   0  0  0  0  0  0  0  0  0  0  0  0
    3.5933   -2.7079    1.9744 C   0  0  0  0  0  0  0  0  0  0  0  0
    3.6569   -3.6283    2.9619 N   0  0  0  0  0  0  0  0  0  0  0  0
    4.3394   -4.9619    2.2515 S   0  0  0  0  0  0  0  0  0  0  0  0
    4.5379   -4.3491    0.6979 N   0  0  0  0  0  0  0  0  0  0  0  0
    3.0963   -1.4161    2.0952 C   0  0  0  0  0  0  0  0  0  0  0  0
    2.3534   -0.8392    3.1282 C   0  0  0  0  0  0  0  0  0  0  0  0
    1.8976    0.3830    2.7477 C   0  0  0  0  0  0  0  0  0  0  0  0
    2.3801    0.5976    1.4451 N   0  0  0  0  0  0  0  0  0  0  0  0
    2.3341    1.8717    0.8343 C   0  0  0  0  0  0  0  0  0  0  0  0
    3.6547    2.6498    1.0867 C   0  0  0  0  0  0  0  0  0  0  0  0
    3.0650   -0.4871    1.0826 C   0  0  0  0  0  0  0  0  0  0  0  0
    3.5429   -0.8759   -0.1835 C   0  0  0  0  0  0  0  0  0  0  0  0
    3.4614   -0.3312   -1.3935 N   0  0  0  0  0  0  0  0  0  0  0  0
    3.8668   -1.2768   -2.3376 C   0  0  0  0  0  0  0  0  0  0  0  0
    3.9273   -1.4504   -3.6911 C   0  0  0  0  0  0  0  0  0  0  0  0
    3.5021   -0.3707   -5.1600 Se  0  0  0  0  0  2  0  0  0  0  0  0
    3.0101    0.9485   -1.8223 C   0  0  0  0  0  0  0  0  0  0  0  0
    1.5684    0.9590   -2.2400 C   0  0  0  0  0  0  0  0  0  0  0  0
    1.0779    0.9032    3.6161 C   0  0  0  0  0  0  0  0  0  0  0  0
    0.6801    0.4524    4.7242 C   0  0  0  0  0  0  0  0  0  0  0  0
    1.6098   -1.0948    4.6620 S   0  0  0  0  0  0  0  0  0  0  0  0
   -0.2903    0.9108    5.5566 C   0  0  0  0  0  0  0  0  0  0  0  0
   -1.0464    1.9364    5.3674 C   0  0  0  0  0  0  0  0  0  0  0  0
   -0.2344    2.5128    3.5438 Se  0  0  0  0  0  2  0  0  0  0  0  0
   -2.1605    2.7455    5.7426 C   0  0  0  0  0  0  0  0  0  0  0  0
   -3.3052    2.2515    6.1360 C   0  0  0  0  0  0  0  0  0  0  0  0
   -3.5953    0.8015    6.2797 C   0  0  0  0  0  0  0  0  0  0  0  0
   -2.7674   -0.0816    5.9760 O   0  0  0  0  0  0  0  0  0  0  0  0
   -4.9293    0.6096    6.7908 C   0  0  0  0  0  0  0  0  0  0  0  0
   -5.5271   -0.5924    7.0762 C   0  0  0  0  0  0  0  0  0  0  0  0
   -4.7293   -2.1403    6.8253 Cl  0  0  0  0  0  0  0  0  0  0  0  0
   -6.8380   -0.5577    7.5858 C   0  0  0  0  0  0  0  0  0  0  0  0
   -7.6644   -2.0293    7.9937 Cl  0  0  0  0  0  0  0  0  0  0  0  0
   -7.4470    0.6397    7.7778 C   0  0  0  0  0  0  0  0  0  0  0  0
   -9.0752    0.6831    8.4244 Cl  0  0  0  0  0  0  0  0  0  0  0  0
   -6.8042    1.8606    7.4808 C   0  0  0  0  0  0  0  0  0  0  0  0
   -7.6360    3.3313    7.8090 Cl  0  0  0  0  0  0  0  0  0  0  0  0
   -5.5214    1.8491    6.9762 C   0  0  0  0  0  0  0  0  0  0  0  0
   -4.5603    2.9122    6.5689 C   0  0  0  0  0  0  0  0  0  0  0  0
   -4.9321    4.1665    6.2541 C   0  0  0  0  0  0  0  0  0  0  0  0
   -3.8266    4.8008    5.2977 C   0  0  0  0  0  0  0  0  0  0  0  0
   -3.0285    5.2481    4.6094 N   0  0  0  0  0  0  0  0  0  0  0  0
   -5.8188    4.9540    6.4957 C   0  0  0  0  0  0  0  0  0  0  0  0
   -6.8295    5.8308    6.7525 N   0  0  0  0  0  0  0  0  0  0  0  0
    4.2540   -0.8188   -8.3499 H   0  0  0  0  0  0  0  0  0  0  0  0
   -1.2922   -1.3394  -12.8303 H   0  0  0  0  0  0  0  0  0  0  0  0
    0.4073    0.2514  -11.8177 H   0  0  0  0  0  0  0  0  0  0  0  0
    4.5572   -3.7203   -6.0919 H   0  0  0  0  0  0  0  0  0  0  0  0
    1.8302    2.1793   -0.0103 H   0  0  0  0  0  0  0  0  0  0  0  0
    1.6738    2.5134    1.5932 H   0  0  0  0  0  0  0  0  0  0  0  0
    3.8042    2.5982    2.2207 H   0  0  0  0  0  0  0  0  0  0  0  0
    3.4521    3.6729    0.8182 H   0  0  0  0  0  0  0  0  0  0  0  0
    4.5257    2.1492    0.6746 H   0  0  0  0  0  0  0  0  0  0  0  0
    3.5354    1.0818   -2.8822 H   0  0  0  0  0  0  0  0  0  0  0  0
    3.4136    1.8485   -1.4021 H   0  0  0  0  0  0  0  0  0  0  0  0
    1.4018    0.2656   -3.1045 H   0  0  0  0  0  0  0  0  0  0  0  0
    1.1999    2.0154   -2.4601 H   0  0  0  0  0  0  0  0  0  0  0  0
    0.9576    0.5540   -1.3986 H   0  0  0  0  0  0  0  0  0  0  0  0
   -0.4412    0.3922    6.5922 H   0  0  0  0  0  0  0  0  0  0  0  0
   -1.9370    3.8310    5.8090 H   0  0  0  0  0  0  0  0  0  0  0  0
  1  2  2  3
  2  3  1  0
  3  4  2  0
  3  5  1  0
  5  6  1  0
  6  7  1  0
  7  8  2  0
  8  9  1  0
  9 10  1  0
 10 11  2  3
 11 12  1  0
 12 13  3  0
 11 14  1  0
 14 15  3  0
  1 16  1  0
 16 17  2  0
 17 18  1  0
 18 19  1  0
 19 20  1  0
 20 21  1  0
 21 22  1  0
 22 23  1  0
 23 24  2  0
 24 25  1  0
 25 26  1  0
 23 27  1  0
 27 28  1  0
 28 29  2  0
 29 30  1  0
 30 31  1  0
 31 32  1  0
 30 33  1  0
 33 34  1  0
 34 35  1  0
 35 36  1  0
 36 37  1  0
 37 38  1  0
 35 39  1  0
 39 40  1  0
 29 41  1  0
 41 42  2  0
 42 43  1  0
 42 44  1  0
 44 45  2  0
 45 46  1  0
 45 47  1  0
 47 48  2  3
 48 49  1  0
 49 50  2  0
 49 51  1  0
 51 52  2  0
 52 53  1  0
 52 54  1  0
 54 55  1  0
 54 56  2  0
 56 57  1  0
 56 58  1  0
 58 59  1  0
 58 60  2  0
 60 61  1  0
 61 62  2  3
 62 63  1  0
 63 64  3  0
 62 65  1  0
 65 66  3  0
 10  2  1  0
 38 16  1  0
 46 41  1  0
 61 48  1  0
  9  5  2  0
 37 18  2  0
 60 51  1  0
 36 20  2  0
 34 21  2  0
 26 22  2  0
 33 27  2  0
 43 28  1  0
  1 67  1  0
  7 68  1  0
  8 69  1  0
 17 70  1  0
 31 71  1  0
 31 72  1  0
 32 73  1  0
 32 74  1  0
 32 75  1  0
 39 76  1  0
 39 77  1  0
 40 78  1  0
 40 79  1  0
 40 80  1  0
 44 81  1  0
 47 82  1  0
M  END

