
     RDKit          3D

 82 93  0  0  0  0  0  0  0  0999 V2000
   -0.7886    8.8470   -0.4881 C   0  0  0  0  0  0  0  0  0  0  0  0
   -1.5394    8.8851   -1.5529 C   0  0  0  0  0  0  0  0  0  0  0  0
   -1.7559    7.7995   -2.4593 C   0  0  0  0  0  0  0  0  0  0  0  0
   -1.1631    6.6881   -2.5868 O   0  0  0  0  0  0  0  0  0  0  0  0
   -2.8814    8.1689   -3.3452 C   0  0  0  0  0  0  0  0  0  0  0  0
   -3.8615    7.6380   -4.6281 S   0  0  0  0  0  0  0  0  0  0  0  0
   -4.8854    8.9907   -4.7790 C   0  0  0  0  0  0  0  0  0  0  0  0
   -4.4141    9.8335   -3.8002 C   0  0  0  0  0  0  0  0  0  0  0  0
   -3.3645    9.4030   -3.0511 C   0  0  0  0  0  0  0  0  0  0  0  0
   -2.5285    9.9279   -1.9040 C   0  0  0  0  0  0  0  0  0  0  0  0
   -2.5784   11.1621   -1.4688 C   0  0  0  0  0  0  0  0  0  0  0  0
   -3.5828   12.0542   -1.8581 C   0  0  0  0  0  0  0  0  0  0  0  0
   -4.4825   12.8506   -2.2295 N   0  0  0  0  0  0  0  0  0  0  0  0
   -1.4833   11.7710   -0.6739 C   0  0  0  0  0  0  0  0  0  0  0  0
   -0.6733   12.2405   -0.0920 N   0  0  0  0  0  0  0  0  0  0  0  0
   -0.0289    7.7639    0.0410 C   0  0  0  0  0  0  0  0  0  0  0  0
    0.9658    7.5607    0.8651 C   0  0  0  0  0  0  0  0  0  0  0  0
    1.4035    6.3290    1.2299 C   0  0  0  0  0  0  0  0  0  0  0  0
    2.6081    5.7060    2.3789 S   0  0  0  0  0  0  0  0  0  0  0  0
    2.3229    4.0383    2.1948 C   0  0  0  0  0  0  0  0  0  0  0  0
    2.6218    2.7484    2.6046 C   0  0  0  0  0  0  0  0  0  0  0  0
    3.4727    2.2914    3.6285 C   0  0  0  0  0  0  0  0  0  0  0  0
    3.4796    0.9722    3.9448 C   0  0  0  0  0  0  0  0  0  0  0  0
    4.3196    0.6109    4.9309 N   0  0  0  0  0  0  0  0  0  0  0  0
    5.0588    2.0367    5.3963 S   0  0  0  0  0  0  0  0  0  0  0  0
    4.2972    3.0812    4.3335 N   0  0  0  0  0  0  0  0  0  0  0  0
    2.6393    0.1369    3.2184 C   0  0  0  0  0  0  0  0  0  0  0  0
    2.3995   -1.2129    3.3445 C   0  0  0  0  0  0  0  0  0  0  0  0
    1.4765   -1.6119    2.4489 C   0  0  0  0  0  0  0  0  0  0  0  0
    1.1307   -0.4553    1.7335 N   0  0  0  0  0  0  0  0  0  0  0  0
    0.2675   -0.5668    0.5982 C   0  0  0  0  0  0  0  0  0  0  0  0
    1.1291   -0.8099   -0.6770 C   0  0  0  0  0  0  0  0  0  0  0  0
    1.8144    0.5824    2.1968 C   0  0  0  0  0  0  0  0  0  0  0  0
    1.7882    1.9285    1.8741 C   0  0  0  0  0  0  0  0  0  0  0  0
    1.0028    2.6589    1.0474 N   0  0  0  0  0  0  0  0  0  0  0  0
    1.3470    3.9852    1.2724 C   0  0  0  0  0  0  0  0  0  0  0  0
    0.9100    5.2073    0.8151 C   0  0  0  0  0  0  0  0  0  0  0  0
   -0.5054    5.8428   -0.3538 Se  0  0  0  0  0  2  0  0  0  0  0  0
   -0.0173    2.2769    0.1069 C   0  0  0  0  0  0  0  0  0  0  0  0
   -1.4158    2.3037    0.6955 C   0  0  0  0  0  0  0  0  0  0  0  0
    1.1811   -2.8582    2.5357 C   0  0  0  0  0  0  0  0  0  0  0  0
    1.6168   -3.7478    3.3184 C   0  0  0  0  0  0  0  0  0  0  0  0
    2.7499   -2.6757    4.2173 S   0  0  0  0  0  0  0  0  0  0  0  0
    1.2827   -5.0604    3.4085 C   0  0  0  0  0  0  0  0  0  0  0  0
    0.3981   -5.6719    2.6530 C   0  0  0  0  0  0  0  0  0  0  0  0
   -0.1589   -4.1372    1.5212 Se  0  0  0  0  0  2  0  0  0  0  0  0
   -0.2084   -6.9638    2.3070 C   0  0  0  0  0  0  0  0  0  0  0  0
    0.5061   -8.0191    2.0832 C   0  0  0  0  0  0  0  0  0  0  0  0
    1.2549   -9.1310    1.8472 C   0  0  0  0  0  0  0  0  0  0  0  0
    2.1357   -9.4397    2.8719 O   0  0  0  0  0  0  0  0  0  0  0  0
    1.2510   -9.9773    0.7418 C   0  0  0  0  0  0  0  0  0  0  0  0
    1.9255  -11.1444    0.3707 C   0  0  0  0  0  0  0  0  0  0  0  0
    2.8514  -11.6457    1.2097 F   0  0  0  0  0  0  0  0  0  0  0  0
    1.6466  -11.7645   -0.8137 C   0  0  0  0  0  0  0  0  0  0  0  0
    0.7020  -11.2469   -1.6476 C   0  0  0  0  0  0  0  0  0  0  0  0
    0.0378  -10.0942   -1.2866 C   0  0  0  0  0  0  0  0  0  0  0  0
    0.3100   -9.4381   -0.0784 C   0  0  0  0  0  0  0  0  0  0  0  0
   -0.2585   -8.2658    0.5215 C   0  0  0  0  0  0  0  0  0  0  0  0
   -1.2513   -7.6179    0.1093 C   0  0  0  0  0  0  0  0  0  0  0  0
   -2.1583   -6.6754    0.4321 C   0  0  0  0  0  0  0  0  0  0  0  0
   -2.9711   -5.8157    0.7088 N   0  0  0  0  0  0  0  0  0  0  0  0
   -0.9946   -7.4247   -1.4945 C   0  0  0  0  0  0  0  0  0  0  0  0
   -0.8118   -7.2733   -2.5957 N   0  0  0  0  0  0  0  0  0  0  0  0
   -0.7483    9.7760    0.1219 H   0  0  0  0  0  0  0  0  0  0  0  0
   -5.7224    9.1617   -5.4836 H   0  0  0  0  0  0  0  0  0  0  0  0
   -4.9535   10.8130   -3.7015 H   0  0  0  0  0  0  0  0  0  0  0  0
    1.4847    8.4950    1.2802 H   0  0  0  0  0  0  0  0  0  0  0  0
   -0.2456   -1.6349    0.6376 H   0  0  0  0  0  0  0  0  0  0  0  0
   -0.5675   -0.0108    0.4223 H   0  0  0  0  0  0  0  0  0  0  0  0
    0.4367   -0.6732   -1.5257 H   0  0  0  0  0  0  0  0  0  0  0  0
    1.5582   -1.8201   -0.6916 H   0  0  0  0  0  0  0  0  0  0  0  0
    1.9505   -0.0394   -0.7210 H   0  0  0  0  0  0  0  0  0  0  0  0
   -0.0951    3.2152   -0.5979 H   0  0  0  0  0  0  0  0  0  0  0  0
    0.2123    1.6006   -0.6873 H   0  0  0  0  0  0  0  0  0  0  0  0
   -1.3362    1.8885    1.7330 H   0  0  0  0  0  0  0  0  0  0  0  0
   -1.8307    3.3246    0.7987 H   0  0  0  0  0  0  0  0  0  0  0  0
   -2.1188    1.7346    0.0803 H   0  0  0  0  0  0  0  0  0  0  0  0
    1.7770   -5.7534    4.1973 H   0  0  0  0  0  0  0  0  0  0  0  0
   -1.2799   -6.9534    2.4232 H   0  0  0  0  0  0  0  0  0  0  0  0
    2.1604  -12.6497   -1.0991 H   0  0  0  0  0  0  0  0  0  0  0  0
    0.4476  -11.7109   -2.5897 H   0  0  0  0  0  0  0  0  0  0  0  0
   -0.7386   -9.6927   -1.9077 H   0  0  0  0  0  0  0  0  0  0  0  0
  1  2  2  3
  2  3  1  0
  3  4  2  0
  3  5  1  0
  5  6  1  0
  6  7  1  0
  7  8  2  0
  8  9  1  0
  9 10  1  0
 10 11  2  3
 11 12  1  0
 12 13  3  0
 11 14  1  0
 14 15  3  0
  1 16  1  0
 16 17  2  0
 17 18  1  0
 18 19  1  0
 19 20  1  0
 20 21  1  0
 21 22  1  0
 22 23  1  0
 23 24  2  0
 24 25  1  0
 25 26  1  0
 23 27  1  0
 27 28  1  0
 28 29  2  0
 29 30  1  0
 30 31  1  0
 31 32  1  0
 30 33  1  0
 33 34  1  0
 34 35  1  0
 35 36  1  0
 36 37  1  0
 37 38  1  0
 35 39  1  0
 39 40  1  0
 29 41  1  0
 41 42  2  0
 42 43  1  0
 42 44  1  0
 44 45  2  0
 45 46  1  0
 45 47  1  0
 47 48  2  3
 48 49  1  0
 49 50  2  0
 49 51  1  0
 51 52  2  0
 52 53  1  0
 52 54  1  0
 54 55  2  0
 55 56  1  0
 56 57  2  0
 57 58  1  0
 58 59  2  3
 59 60  1  0
 60 61  3  0
 59 62  1  0
 62 63  3  0
 10  2  1  0
 38 16  1  0
 46 41  1  0
 58 48  1  0
  9  5  2  0
 37 18  2  0
 57 51  1  0
 36 20  2  0
 34 21  2  0
 26 22  2  0
 33 27  2  0
 43 28  1  0
  1 64  1  0
  7 65  1  0
  8 66  1  0
 17 67  1  0
 31 68  1  0
 31 69  1  0
 32 70  1  0
 32 71  1  0
 32 72  1  0
 39 73  1  0
 39 74  1  0
 40 75  1  0
 40 76  1  0
 40 77  1  0
 44 78  1  0
 47 79  1  0
 54 80  1  0
 55 81  1  0
 56 82  1  0
M  END

