
     RDKit          3D

105118  0  0  0  0  0  0  0  0999 V2000
    0.3282    5.0882   -7.0867 C   0  0  0  0  0  0  0  0  0  0  0  0
    1.2000    5.5544   -7.9941 C   0  0  0  0  0  0  0  0  0  0  0  0
    1.0256    6.8585   -8.6530 C   0  0  0  0  0  0  0  0  0  0  0  0
   -0.0361    7.5306   -8.7307 O   0  0  0  0  0  0  0  0  0  0  0  0
    2.3389    7.2904   -9.0643 C   0  0  0  0  0  0  0  0  0  0  0  0
    3.0436    8.7179   -9.5726 S   0  0  0  0  0  0  0  0  0  0  0  0
    4.6265    8.1006   -9.4477 C   0  0  0  0  0  0  0  0  0  0  0  0
    4.5876    6.7856   -8.9701 C   0  0  0  0  0  0  0  0  0  0  0  0
    3.2751    6.3609   -8.7576 C   0  0  0  0  0  0  0  0  0  0  0  0
    2.6306    5.1620   -8.1848 C   0  0  0  0  0  0  0  0  0  0  0  0
    3.1411    3.9135   -8.1882 C   0  0  0  0  0  0  0  0  0  0  0  0
    2.2780    2.7625   -8.1970 C   0  0  0  0  0  0  0  0  0  0  0  0
    1.5793    1.8436   -8.2389 N   0  0  0  0  0  0  0  0  0  0  0  0
    4.5402    3.6724   -8.4310 C   0  0  0  0  0  0  0  0  0  0  0  0
    5.6665    3.4778   -8.6251 N   0  0  0  0  0  0  0  0  0  0  0  0
    0.7031    4.2493   -5.9328 C   0  0  0  0  0  0  0  0  0  0  0  0
    0.1311    2.9903   -5.6760 C   0  0  0  0  0  0  0  0  0  0  0  0
    0.5583    2.7054   -4.4030 C   0  0  0  0  0  0  0  0  0  0  0  0
    1.3176    3.7009   -3.9575 C   0  0  0  0  0  0  0  0  0  0  0  0
    1.4523    4.6849   -4.8692 N   0  0  0  0  0  0  0  0  0  0  0  0
    2.1414    5.9680   -4.7095 C   0  0  0  0  0  0  0  0  0  0  0  0
    3.6460    5.8280   -4.9512 C   0  0  0  0  0  0  0  0  0  0  0  0
    1.8922    3.2938   -2.7710 C   0  0  0  0  0  0  0  0  0  0  0  0
    2.9061    3.8081   -1.9395 C   0  0  0  0  0  0  0  0  0  0  0  0
    3.4175    2.9836   -0.8874 C   0  0  0  0  0  0  0  0  0  0  0  0
    4.3962    3.5097   -0.1089 N   0  0  0  0  0  0  0  0  0  0  0  0
    4.5506    4.9967   -0.8166 S   0  0  0  0  0  0  0  0  0  0  0  0
    3.4542    5.0414   -2.0548 N   0  0  0  0  0  0  0  0  0  0  0  0
    2.8562    1.7175   -0.6880 C   0  0  0  0  0  0  0  0  0  0  0  0
    2.9724    0.8379    0.3495 C   0  0  0  0  0  0  0  0  0  0  0  0
    3.6707    0.8550    1.8959 S   0  0  0  0  0  0  0  0  0  0  0  0
    2.6230   -0.3849    2.4147 C   0  0  0  0  0  0  0  0  0  0  0  0
    2.4004   -0.9886    3.6528 C   0  0  0  0  0  0  0  0  0  0  0  0
    3.2006   -0.6545    4.8842 C   0  0  0  0  0  0  0  0  0  0  0  0
    2.4648    0.3674    5.7431 C   0  0  0  0  0  0  0  0  0  0  0  0
    1.2713   -1.8407    3.6121 C   0  0  0  0  0  0  0  0  0  0  0  0
    0.6361   -1.8427    2.0231 S   0  0  0  0  0  0  0  0  0  0  0  0
    1.7449   -0.7409    1.4287 C   0  0  0  0  0  0  0  0  0  0  0  0
    1.9403   -0.0428    0.2458 C   0  0  0  0  0  0  0  0  0  0  0  0
    1.1226    0.2291   -0.8055 N   0  0  0  0  0  0  0  0  0  0  0  0
    1.7687    1.2585   -1.4413 C   0  0  0  0  0  0  0  0  0  0  0  0
    1.3504    2.0083   -2.5606 C   0  0  0  0  0  0  0  0  0  0  0  0
    0.5790    1.6052   -3.6188 N   0  0  0  0  0  0  0  0  0  0  0  0
    0.4039    0.2322   -4.1170 C   0  0  0  0  0  0  0  0  0  0  0  0
    1.5236   -0.1414   -5.0858 C   0  0  0  0  0  0  0  0  0  0  0  0
   -0.3375    0.0315   -0.7632 C   0  0  0  0  0  0  0  0  0  0  0  0
   -0.9898    0.9926    0.2337 C   0  0  0  0  0  0  0  0  0  0  0  0
    0.8072   -2.6497    4.7663 C   0  0  0  0  0  0  0  0  0  0  0  0
   -0.4287   -3.1445    4.9990 C   0  0  0  0  0  0  0  0  0  0  0  0
   -1.5958   -3.1448    4.1042 C   0  0  0  0  0  0  0  0  0  0  0  0
   -1.8901   -2.2669    3.2526 O   0  0  0  0  0  0  0  0  0  0  0  0
   -2.4728   -4.2316    4.4951 C   0  0  0  0  0  0  0  0  0  0  0  0
   -3.6062   -4.7135    3.7982 C   0  0  0  0  0  0  0  0  0  0  0  0
   -4.1875   -5.8270    4.3783 C   0  0  0  0  0  0  0  0  0  0  0  0
   -3.6847   -6.4372    5.5738 C   0  0  0  0  0  0  0  0  0  0  0  0
   -2.5721   -5.9760    6.2547 C   0  0  0  0  0  0  0  0  0  0  0  0
   -1.9743   -4.8188    5.6849 C   0  0  0  0  0  0  0  0  0  0  0  0
   -0.7754   -4.0613    6.1280 C   0  0  0  0  0  0  0  0  0  0  0  0
   -0.2995   -3.9864    7.3981 C   0  0  0  0  0  0  0  0  0  0  0  0
    0.6337   -2.9639    7.8042 C   0  0  0  0  0  0  0  0  0  0  0  0
    1.3756   -2.1419    8.1403 N   0  0  0  0  0  0  0  0  0  0  0  0
   -0.8271   -4.7895    8.4719 C   0  0  0  0  0  0  0  0  0  0  0  0
   -1.2448   -5.4233    9.3452 N   0  0  0  0  0  0  0  0  0  0  0  0
   -4.7477   -7.4904    5.5054 C   0  0  0  0  0  0  0  0  0  0  0  0
   -4.2880   -8.9048    5.0444 C   0  0  0  0  0  0  0  0  0  0  0  0
   -5.5490   -9.6509    4.6822 C   0  0  0  0  0  0  0  0  0  0  0  0
   -6.0120   -9.0906    3.5580 C   0  0  0  0  0  0  0  0  0  0  0  0
   -5.0486   -7.9833    3.2017 C   0  0  0  0  0  0  0  0  0  0  0  0
   -3.7576   -8.6519    3.6430 C   0  0  0  0  0  0  0  0  0  0  0  0
   -5.2567   -6.8736    4.2757 C   0  0  0  0  0  0  0  0  0  0  0  0
   -0.6680    5.5123   -7.0579 H   0  0  0  0  0  0  0  0  0  0  0  0
    5.5294    8.6546   -9.6593 H   0  0  0  0  0  0  0  0  0  0  0  0
    5.4717    6.2065   -8.7516 H   0  0  0  0  0  0  0  0  0  0  0  0
   -0.4955    2.3913   -6.3199 H   0  0  0  0  0  0  0  0  0  0  0  0
    1.7276    6.7238   -5.4092 H   0  0  0  0  0  0  0  0  0  0  0  0
    1.9566    6.3557   -3.6857 H   0  0  0  0  0  0  0  0  0  0  0  0
    3.8829    5.9188   -6.0251 H   0  0  0  0  0  0  0  0  0  0  0  0
    4.1867    6.6404   -4.4211 H   0  0  0  0  0  0  0  0  0  0  0  0
    4.0232    4.8464   -4.5949 H   0  0  0  0  0  0  0  0  0  0  0  0
    4.1893   -0.2388    4.5946 H   0  0  0  0  0  0  0  0  0  0  0  0
    3.4015   -1.5705    5.4762 H   0  0  0  0  0  0  0  0  0  0  0  0
    2.3001    1.3057    5.1687 H   0  0  0  0  0  0  0  0  0  0  0  0
    3.0699    0.5997    6.6457 H   0  0  0  0  0  0  0  0  0  0  0  0
    1.4832   -0.0375    6.0711 H   0  0  0  0  0  0  0  0  0  0  0  0
    0.4425   -0.5055   -3.2957 H   0  0  0  0  0  0  0  0  0  0  0  0
   -0.5786    0.1415   -4.6267 H   0  0  0  0  0  0  0  0  0  0  0  0
    1.4449    0.4593   -6.0113 H   0  0  0  0  0  0  0  0  0  0  0  0
    1.4426   -1.2155   -5.3578 H   0  0  0  0  0  0  0  0  0  0  0  0
    2.5141    0.0394   -4.6163 H   0  0  0  0  0  0  0  0  0  0  0  0
   -0.8100    0.2236   -1.7418 H   0  0  0  0  0  0  0  0  0  0  0  0
   -0.5662   -1.0171   -0.4810 H   0  0  0  0  0  0  0  0  0  0  0  0
   -2.0851    0.8136    0.2625 H   0  0  0  0  0  0  0  0  0  0  0  0
   -0.5813    0.8484    1.2557 H   0  0  0  0  0  0  0  0  0  0  0  0
   -0.8092    2.0424   -0.0797 H   0  0  0  0  0  0  0  0  0  0  0  0
    1.5791   -2.8961    5.4768 H   0  0  0  0  0  0  0  0  0  0  0  0
   -3.9669   -4.2789    2.8751 H   0  0  0  0  0  0  0  0  0  0  0  0
   -2.1867   -6.5042    7.1119 H   0  0  0  0  0  0  0  0  0  0  0  0
   -5.4550   -7.4682    6.3636 H   0  0  0  0  0  0  0  0  0  0  0  0
   -3.6004   -9.4372    5.7363 H   0  0  0  0  0  0  0  0  0  0  0  0
   -5.9555  -10.5322    5.1696 H   0  0  0  0  0  0  0  0  0  0  0  0
   -6.8609   -9.4372    2.9775 H   0  0  0  0  0  0  0  0  0  0  0  0
   -5.0845   -7.6448    2.1457 H   0  0  0  0  0  0  0  0  0  0  0  0
   -3.5290   -9.5909    3.0820 H   0  0  0  0  0  0  0  0  0  0  0  0
   -2.8648   -7.9890    3.6050 H   0  0  0  0  0  0  0  0  0  0  0  0
   -6.2878   -6.4647    4.3534 H   0  0  0  0  0  0  0  0  0  0  0  0
  1  2  2  3
  2  3  1  0
  3  4  2  0
  3  5  1  0
  5  6  1  0
  6  7  1  0
  7  8  2  0
  8  9  1  0
  9 10  1  0
 10 11  2  3
 11 12  1  0
 12 13  3  0
 11 14  1  0
 14 15  3  0
  1 16  1  0
 16 17  2  0
 17 18  1  0
 18 19  2  0
 19 20  1  0
 20 21  1  0
 21 22  1  0
 19 23  1  0
 23 24  1  0
 24 25  1  0
 25 26  2  0
 26 27  1  0
 27 28  1  0
 25 29  1  0
 29 30  1  0
 30 31  1  0
 31 32  1  0
 32 33  1  0
 33 34  1  0
 34 35  1  0
 33 36  2  0
 36 37  1  0
 37 38  1  0
 38 39  1  0
 39 40  1  0
 40 41  1  0
 41 42  1  0
 42 43  1  0
 43 44  1  0
 44 45  1  0
 40 46  1  0
 46 47  1  0
 36 48  1  0
 48 49  2  3
 49 50  1  0
 50 51  2  0
 50 52  1  0
 52 53  2  0
 53 54  1  0
 54 55  2  0
 55 56  1  0
 56 57  2  0
 57 58  1  0
 58 59  2  3
 59 60  1  0
 60 61  3  0
 59 62  1  0
 62 63  3  0
 55 64  1  0
 64 65  1  0
 65 66  1  0
 66 67  2  0
 67 68  1  0
 68 69  1  0
 68 70  1  0
 10  2  1  0
 20 16  1  0
 42 23  2  0
 58 49  1  0
 70 64  1  0
  9  5  2  0
 43 18  1  0
 57 52  1  0
 69 65  1  0
 28 24  2  0
 41 29  2  0
 70 54  1  0
 39 30  2  0
 38 32  2  0
  1 71  1  0
  7 72  1  0
  8 73  1  0
 17 74  1  0
 21 75  1  0
 21 76  1  0
 22 77  1  0
 22 78  1  0
 22 79  1  0
 34 80  1  0
 34 81  1  0
 35 82  1  0
 35 83  1  0
 35 84  1  0
 44 85  1  0
 44 86  1  0
 45 87  1  0
 45 88  1  0
 45 89  1  0
 46 90  1  0
 46 91  1  0
 47 92  1  0
 47 93  1  0
 47 94  1  0
 48 95  1  0
 53 96  1  0
 56 97  1  0
 64 98  1  0
 65 99  1  0
 66100  1  0
 67101  1  0
 68102  1  0
 69103  1  0
 69104  1  0
 70105  1  0
M  END

