
     RDKit          3D

155169  0  0  0  0  0  0  0  0999 V2000
    5.7272    0.4287    3.2539 C   0  0  0  0  0  0  0  0  0  0  0  0
    6.9590   -0.0112    3.5836 C   0  0  0  0  0  0  0  0  0  0  0  0
    7.3041   -1.4156    3.8919 C   0  0  0  0  0  0  0  0  0  0  0  0
    6.5712   -2.4314    3.7466 O   0  0  0  0  0  0  0  0  0  0  0  0
    8.6358   -1.4063    4.4352 C   0  0  0  0  0  0  0  0  0  0  0  0
    9.6467   -2.5116    5.1830 S   0  0  0  0  0  0  0  0  0  0  0  0
   10.8275   -1.3426    5.5317 C   0  0  0  0  0  0  0  0  0  0  0  0
   10.4026   -0.0865    5.0823 C   0  0  0  0  0  0  0  0  0  0  0  0
    9.1494   -0.1590    4.4583 C   0  0  0  0  0  0  0  0  0  0  0  0
    8.1826    0.8119    3.8938 C   0  0  0  0  0  0  0  0  0  0  0  0
    8.4317    2.1182    3.6192 C   0  0  0  0  0  0  0  0  0  0  0  0
    7.4757    2.9860    2.9795 C   0  0  0  0  0  0  0  0  0  0  0  0
    6.7151    3.6996    2.4762 N   0  0  0  0  0  0  0  0  0  0  0  0
    9.7136    2.7139    3.8862 C   0  0  0  0  0  0  0  0  0  0  0  0
   10.7456    3.2004    4.0968 N   0  0  0  0  0  0  0  0  0  0  0  0
    4.6138   -0.4789    2.9458 C   0  0  0  0  0  0  0  0  0  0  0  0
    3.4415   -0.5986    3.6898 C   0  0  0  0  0  0  0  0  0  0  0  0
    2.5375   -1.4455    3.0504 C   0  0  0  0  0  0  0  0  0  0  0  0
    0.8905   -1.6375    3.2573 S   0  0  0  0  0  0  0  0  0  0  0  0
    0.6781   -2.4805    1.7965 C   0  0  0  0  0  0  0  0  0  0  0  0
   -0.2950   -2.1183    0.7686 C   0  0  0  0  0  0  0  0  0  0  0  0
   -1.5410   -1.5020    0.9858 C   0  0  0  0  0  0  0  0  0  0  0  0
   -2.3933   -1.9501    2.0990 C   0  0  0  0  0  0  0  0  0  0  0  0
   -3.1791   -3.0988    2.0633 C   0  0  0  0  0  0  0  0  0  0  0  0
   -3.7560   -3.4183    3.2935 C   0  0  0  0  0  0  0  0  0  0  0  0
   -3.4067   -2.5321    4.3058 C   0  0  0  0  0  0  0  0  0  0  0  0
   -3.7700   -2.6692    5.7516 C   0  0  0  0  0  0  0  0  0  0  0  0
   -2.7645   -3.5619    6.4662 C   0  0  0  0  0  0  0  0  0  0  0  0
   -2.3674   -1.3724    3.6794 S   0  0  0  0  0  0  0  0  0  0  0  0
   -2.0085   -0.6180   -0.0135 C   0  0  0  0  0  0  0  0  0  0  0  0
   -3.1952    0.3734    0.0747 C   0  0  0  0  0  0  0  0  0  0  0  0
   -2.9896    1.2796    1.3090 C   0  0  0  0  0  0  0  0  0  0  0  0
   -1.8930    2.1685    1.3557 C   0  0  0  0  0  0  0  0  0  0  0  0
   -1.6260    2.9268    2.4961 C   0  0  0  0  0  0  0  0  0  0  0  0
   -2.4440    2.8201    3.6276 C   0  0  0  0  0  0  0  0  0  0  0  0
   -2.0838    3.5474    4.8976 C   0  0  0  0  0  0  0  0  0  0  0  0
   -1.1241    2.7055    5.7359 C   0  0  0  0  0  0  0  0  0  0  0  0
   -3.5296    1.9371    3.6053 C   0  0  0  0  0  0  0  0  0  0  0  0
   -3.7910    1.1708    2.4680 C   0  0  0  0  0  0  0  0  0  0  0  0
   -4.5896   -0.2646   -0.0330 C   0  0  0  0  0  0  0  0  0  0  0  0
   -5.7406    0.5246    0.1671 C   0  0  0  0  0  0  0  0  0  0  0  0
   -7.0169   -0.0118    0.0304 C   0  0  0  0  0  0  0  0  0  0  0  0
   -7.1861   -1.3571   -0.3143 C   0  0  0  0  0  0  0  0  0  0  0  0
   -8.5692   -1.9300   -0.4819 C   0  0  0  0  0  0  0  0  0  0  0  0
   -9.1453   -1.5607   -1.8427 C   0  0  0  0  0  0  0  0  0  0  0  0
   -6.0513   -2.1412   -0.5720 C   0  0  0  0  0  0  0  0  0  0  0  0
   -4.7682   -1.5981   -0.4493 C   0  0  0  0  0  0  0  0  0  0  0  0
   -2.9496    1.1603   -1.1916 C   0  0  0  0  0  0  0  0  0  0  0  0
   -1.8059    0.7614   -1.8273 C   0  0  0  0  0  0  0  0  0  0  0  0
   -1.2101   -0.3648   -1.1387 C   0  0  0  0  0  0  0  0  0  0  0  0
    0.0056   -1.0384   -1.3899 C   0  0  0  0  0  0  0  0  0  0  0  0
    0.3979   -2.0408   -0.4516 C   0  0  0  0  0  0  0  0  0  0  0  0
    1.6434   -2.9574   -0.3309 C   0  0  0  0  0  0  0  0  0  0  0  0
    2.8110   -2.8511   -1.3261 C   0  0  0  0  0  0  0  0  0  0  0  0
    4.1227   -3.1973   -0.9412 C   0  0  0  0  0  0  0  0  0  0  0  0
    5.1728   -3.2021   -1.8657 C   0  0  0  0  0  0  0  0  0  0  0  0
    4.9120   -2.9954   -3.2260 C   0  0  0  0  0  0  0  0  0  0  0  0
    6.0309   -3.0249   -4.2333 C   0  0  0  0  0  0  0  0  0  0  0  0
    6.3483   -4.4575   -4.6517 C   0  0  0  0  0  0  0  0  0  0  0  0
    3.5851   -2.9017   -3.6483 C   0  0  0  0  0  0  0  0  0  0  0  0
    2.5489   -2.8822   -2.7123 C   0  0  0  0  0  0  0  0  0  0  0  0
    1.1984   -4.4300   -0.4367 C   0  0  0  0  0  0  0  0  0  0  0  0
    1.8921   -5.4408    0.2672 C   0  0  0  0  0  0  0  0  0  0  0  0
    1.6090   -6.7895    0.0509 C   0  0  0  0  0  0  0  0  0  0  0  0
    0.6460   -7.1712   -0.8874 C   0  0  0  0  0  0  0  0  0  0  0  0
    0.3468   -8.6323   -1.1194 C   0  0  0  0  0  0  0  0  0  0  0  0
   -0.6843   -9.1400   -0.1204 C   0  0  0  0  0  0  0  0  0  0  0  0
   -0.0629   -6.1828   -1.5801 C   0  0  0  0  0  0  0  0  0  0  0  0
    0.2163   -4.8304   -1.3679 C   0  0  0  0  0  0  0  0  0  0  0  0
    1.9019   -2.6526    1.1461 C   0  0  0  0  0  0  0  0  0  0  0  0
    2.9281   -1.9769    1.8509 C   0  0  0  0  0  0  0  0  0  0  0  0
    4.4488   -1.3420    1.4937 S   0  0  0  0  0  0  0  0  0  0  0  0
    0.9041   -0.5119   -2.4253 C   0  0  0  0  0  0  0  0  0  0  0  0
    2.0610    0.2209   -2.1845 C   0  0  0  0  0  0  0  0  0  0  0  0
    2.6621    0.7029   -3.3536 C   0  0  0  0  0  0  0  0  0  0  0  0
    1.9770    0.3446   -4.5137 C   0  0  0  0  0  0  0  0  0  0  0  0
    2.2990    0.7918   -5.9061 C   0  0  0  0  0  0  0  0  0  0  0  0
    3.7468    0.4943   -6.2823 C   0  0  0  0  0  0  0  0  0  0  0  0
    0.6106   -0.5399   -4.0885 S   0  0  0  0  0  0  0  0  0  0  0  0
   -1.2585    1.9354   -2.9367 S   0  0  0  0  0  0  0  0  0  0  0  0
   -2.5966    2.9220   -2.6429 C   0  0  0  0  0  0  0  0  0  0  0  0
   -2.9916    4.1512   -3.1441 C   0  0  0  0  0  0  0  0  0  0  0  0
   -4.1952    4.5547   -2.5576 C   0  0  0  0  0  0  0  0  0  0  0  0
   -4.6966    3.4124   -1.3867 S   0  0  0  0  0  0  0  0  0  0  0  0
   -3.4065    2.3809   -1.6839 C   0  0  0  0  0  0  0  0  0  0  0  0
   -4.9391    5.7532   -2.9874 C   0  0  0  0  0  0  0  0  0  0  0  0
   -6.1757    5.6983   -3.5261 C   0  0  0  0  0  0  0  0  0  0  0  0
   -6.9387    4.4729   -3.5220 C   0  0  0  0  0  0  0  0  0  0  0  0
   -7.5540    3.4875   -3.5330 N   0  0  0  0  0  0  0  0  0  0  0  0
   -6.7256    6.8577   -4.2772 C   0  0  0  0  0  0  0  0  0  0  0  0
   -7.9308    6.8443   -4.6519 O   0  0  0  0  0  0  0  0  0  0  0  0
   -5.9087    7.9493   -4.5878 O   0  0  0  0  0  0  0  0  0  0  0  0
   -6.2782    8.9358   -5.5530 C   0  0  0  0  0  0  0  0  0  0  0  0
   -5.1461    9.9363   -5.7198 C   0  0  0  0  0  0  0  0  0  0  0  0
    5.4961    1.4781    3.2378 H   0  0  0  0  0  0  0  0  0  0  0  0
   11.7534   -1.5276    6.0629 H   0  0  0  0  0  0  0  0  0  0  0  0
   10.9710    0.8151    5.2391 H   0  0  0  0  0  0  0  0  0  0  0  0
    3.2328   -0.0397    4.5944 H   0  0  0  0  0  0  0  0  0  0  0  0
   -3.3011   -3.7125    1.1771 H   0  0  0  0  0  0  0  0  0  0  0  0
   -4.3740   -4.2923    3.4535 H   0  0  0  0  0  0  0  0  0  0  0  0
   -4.7888   -3.1025    5.8457 H   0  0  0  0  0  0  0  0  0  0  0  0
   -3.7725   -1.6643    6.2320 H   0  0  0  0  0  0  0  0  0  0  0  0
   -1.7489   -3.1145    6.4189 H   0  0  0  0  0  0  0  0  0  0  0  0
   -2.7377   -4.5694    5.9977 H   0  0  0  0  0  0  0  0  0  0  0  0
   -3.0539   -3.6713    7.5318 H   0  0  0  0  0  0  0  0  0  0  0  0
   -1.2152    2.2612    0.5196 H   0  0  0  0  0  0  0  0  0  0  0  0
   -0.7599    3.5800    2.5085 H   0  0  0  0  0  0  0  0  0  0  0  0
   -1.6043    4.5206    4.6585 H   0  0  0  0  0  0  0  0  0  0  0  0
   -3.0008    3.7579    5.4895 H   0  0  0  0  0  0  0  0  0  0  0  0
   -1.5862    1.7221    5.9811 H   0  0  0  0  0  0  0  0  0  0  0  0
   -0.1777    2.5332    5.1806 H   0  0  0  0  0  0  0  0  0  0  0  0
   -0.8966    3.2376    6.6836 H   0  0  0  0  0  0  0  0  0  0  0  0
   -4.1497    1.8123    4.4820 H   0  0  0  0  0  0  0  0  0  0  0  0
   -4.5971    0.4558    2.5212 H   0  0  0  0  0  0  0  0  0  0  0  0
   -5.6511    1.5636    0.4468 H   0  0  0  0  0  0  0  0  0  0  0  0
   -7.8801    0.6197    0.1956 H   0  0  0  0  0  0  0  0  0  0  0  0
   -9.2377   -1.5374    0.3141 H   0  0  0  0  0  0  0  0  0  0  0  0
   -8.5453   -3.0341   -0.3781 H   0  0  0  0  0  0  0  0  0  0  0  0
   -8.4639   -1.8932   -2.6583 H   0  0  0  0  0  0  0  0  0  0  0  0
   -9.2836   -0.4592   -1.9167 H   0  0  0  0  0  0  0  0  0  0  0  0
  -10.1302   -2.0550   -1.9810 H   0  0  0  0  0  0  0  0  0  0  0  0
   -6.1615   -3.1713   -0.8858 H   0  0  0  0  0  0  0  0  0  0  0  0
   -3.9240   -2.2282   -0.6934 H   0  0  0  0  0  0  0  0  0  0  0  0
    4.3338   -3.5349    0.0577 H   0  0  0  0  0  0  0  0  0  0  0  0
    6.1774   -3.4177   -1.5259 H   0  0  0  0  0  0  0  0  0  0  0  0
    5.7478   -2.4319   -5.1307 H   0  0  0  0  0  0  0  0  0  0  0  0
    6.9370   -2.5536   -3.7998 H   0  0  0  0  0  0  0  0  0  0  0  0
    5.4530   -4.9362   -5.1028 H   0  0  0  0  0  0  0  0  0  0  0  0
    7.1674   -4.4516   -5.3983 H   0  0  0  0  0  0  0  0  0  0  0  0
    6.6761   -5.0500   -3.7712 H   0  0  0  0  0  0  0  0  0  0  0  0
    3.3463   -2.8633   -4.7038 H   0  0  0  0  0  0  0  0  0  0  0  0
    1.5366   -2.9334   -3.0753 H   0  0  0  0  0  0  0  0  0  0  0  0
    2.6815   -5.1868    0.9629 H   0  0  0  0  0  0  0  0  0  0  0  0
    2.1591   -7.5420    0.6107 H   0  0  0  0  0  0  0  0  0  0  0  0
   -0.0310   -8.7876   -2.1537 H   0  0  0  0  0  0  0  0  0  0  0  0
    1.2800   -9.2273   -1.0137 H   0  0  0  0  0  0  0  0  0  0  0  0
   -0.3126   -9.0217    0.9199 H   0  0  0  0  0  0  0  0  0  0  0  0
   -0.8843  -10.2148   -0.3080 H   0  0  0  0  0  0  0  0  0  0  0  0
   -1.6353   -8.5805   -0.2349 H   0  0  0  0  0  0  0  0  0  0  0  0
   -0.8180   -6.4563   -2.3050 H   0  0  0  0  0  0  0  0  0  0  0  0
   -0.3210   -4.0948   -1.9565 H   0  0  0  0  0  0  0  0  0  0  0  0
    2.4418    0.4240   -1.1916 H   0  0  0  0  0  0  0  0  0  0  0  0
    3.5519    1.3186   -3.3466 H   0  0  0  0  0  0  0  0  0  0  0  0
    1.6280    0.2699   -6.6274 H   0  0  0  0  0  0  0  0  0  0  0  0
    2.1077    1.8827   -5.9880 H   0  0  0  0  0  0  0  0  0  0  0  0
    4.4386    1.0930   -5.6510 H   0  0  0  0  0  0  0  0  0  0  0  0
    3.9682   -0.5846   -6.1539 H   0  0  0  0  0  0  0  0  0  0  0  0
    3.9146    0.7718   -7.3443 H   0  0  0  0  0  0  0  0  0  0  0  0
   -2.4602    4.7056   -3.9133 H   0  0  0  0  0  0  0  0  0  0  0  0
   -4.3603    6.6643   -3.0866 H   0  0  0  0  0  0  0  0  0  0  0  0
   -6.4722    8.4398   -6.5276 H   0  0  0  0  0  0  0  0  0  0  0  0
   -7.2007    9.4645   -5.2308 H   0  0  0  0  0  0  0  0  0  0  0  0
   -5.0668   10.5754   -4.8163 H   0  0  0  0  0  0  0  0  0  0  0  0
   -5.3273   10.5774   -6.6143 H   0  0  0  0  0  0  0  0  0  0  0  0
   -4.1832    9.4010   -5.8712 H   0  0  0  0  0  0  0  0  0  0  0  0
  1  2  2  3
  2  3  1  0
  3  4  2  0
  3  5  1  0
  5  6  1  0
  6  7  1  0
  7  8  2  0
  8  9  1  0
  9 10  1  0
 10 11  2  3
 11 12  1  0
 12 13  3  0
 11 14  1  0
 14 15  3  0
  1 16  1  0
 16 17  2  0
 17 18  1  0
 18 19  1  0
 19 20  1  0
 20 21  1  0
 21 22  2  0
 22 23  1  0
 23 24  2  0
 24 25  1  0
 25 26  2  0
 26 27  1  0
 27 28  1  0
 26 29  1  0
 22 30  1  0
 30 31  1  0
 31 32  1  0
 32 33  2  0
 33 34  1  0
 34 35  2  0
 35 36  1  0
 36 37  1  0
 35 38  1  0
 38 39  2  0
 31 40  1  0
 40 41  2  0
 41 42  1  0
 42 43  2  0
 43 44  1  0
 44 45  1  0
 43 46  1  0
 46 47  2  0
 31 48  1  0
 48 49  2  0
 49 50  1  0
 50 51  1  0
 51 52  2  0
 52 53  1  0
 53 54  1  0
 54 55  2  0
 55 56  1  0
 56 57  2  0
 57 58  1  0
 58 59  1  0
 57 60  1  0
 60 61  2  0
 53 62  1  0
 62 63  2  0
 63 64  1  0
 64 65  2  0
 65 66  1  0
 66 67  1  0
 65 68  1  0
 68 69  2  0
 53 70  1  0
 70 71  1  0
 71 72  1  0
 51 73  1  0
 73 74  2  0
 74 75  1  0
 75 76  2  0
 76 77  1  0
 77 78  1  0
 76 79  1  0
 49 80  1  0
 80 81  1  0
 81 82  1  0
 82 83  2  0
 83 84  1  0
 84 85  1  0
 83 86  1  0
 86 87  2  3
 87 88  1  0
 88 89  3  0
 87 90  1  0
 90 91  2  0
 90 92  1  0
 92 93  1  0
 93 94  1  0
 10  2  1  0
 72 16  1  0
 79 73  1  0
 85 81  2  0
  9  5  2  0
 71 18  2  0
 70 20  2  0
 52 21  1  0
 61 54  1  0
 69 62  1  0
 29 23  1  0
 50 30  2  0
 39 32  1  0
 47 40  1  0
 85 48  1  0
  1 95  1  0
  7 96  1  0
  8 97  1  0
 17 98  1  0
 24 99  1  0
 25100  1  0
 27101  1  0
 27102  1  0
 28103  1  0
 28104  1  0
 28105  1  0
 33106  1  0
 34107  1  0
 36108  1  0
 36109  1  0
 37110  1  0
 37111  1  0
 37112  1  0
 38113  1  0
 39114  1  0
 41115  1  0
 42116  1  0
 44117  1  0
 44118  1  0
 45119  1  0
 45120  1  0
 45121  1  0
 46122  1  0
 47123  1  0
 55124  1  0
 56125  1  0
 58126  1  0
 58127  1  0
 59128  1  0
 59129  1  0
 59130  1  0
 60131  1  0
 61132  1  0
 63133  1  0
 64134  1  0
 66135  1  0
 66136  1  0
 67137  1  0
 67138  1  0
 67139  1  0
 68140  1  0
 69141  1  0
 74142  1  0
 75143  1  0
 77144  1  0
 77145  1  0
 78146  1  0
 78147  1  0
 78148  1  0
 82149  1  0
 86150  1  0
 93151  1  0
 93152  1  0
 94153  1  0
 94154  1  0
 94155  1  0
M  END

