
     RDKit          3D

 94105  0  0  0  0  0  0  0  0999 V2000
    7.7840    2.2753   -1.4551 C   0  0  0  0  0  0  0  0  0  0  0  0
    8.1218    3.5148   -1.0632 C   0  0  0  0  0  0  0  0  0  0  0  0
    7.3693    4.7521   -1.3697 C   0  0  0  0  0  0  0  0  0  0  0  0
    6.2279    4.8463   -1.8914 O   0  0  0  0  0  0  0  0  0  0  0  0
    8.2536    5.8549   -1.0963 C   0  0  0  0  0  0  0  0  0  0  0  0
    8.2417    7.5115   -1.3480 S   0  0  0  0  0  0  0  0  0  0  0  0
    9.8632    7.6915   -0.8505 C   0  0  0  0  0  0  0  0  0  0  0  0
   10.4048    6.4430   -0.5145 C   0  0  0  0  0  0  0  0  0  0  0  0
    9.4618    5.4201   -0.6649 C   0  0  0  0  0  0  0  0  0  0  0  0
    9.4610    3.9466   -0.5337 C   0  0  0  0  0  0  0  0  0  0  0  0
   10.3926    3.1964    0.1053 C   0  0  0  0  0  0  0  0  0  0  0  0
   10.1888    1.8052    0.4105 C   0  0  0  0  0  0  0  0  0  0  0  0
   10.0288    0.6860    0.6651 N   0  0  0  0  0  0  0  0  0  0  0  0
   11.6038    3.7763    0.6291 C   0  0  0  0  0  0  0  0  0  0  0  0
   12.5783    4.2311    1.0551 N   0  0  0  0  0  0  0  0  0  0  0  0
    6.4509    1.9126   -1.9576 C   0  0  0  0  0  0  0  0  0  0  0  0
    6.1927    1.1595   -3.1120 C   0  0  0  0  0  0  0  0  0  0  0  0
    7.2404    0.6413   -4.0612 C   0  0  0  0  0  0  0  0  0  0  0  0
    7.7159   -0.7403   -3.6263 C   0  0  0  0  0  0  0  0  0  0  0  0
    4.8308    0.8763   -3.2308 C   0  0  0  0  0  0  0  0  0  0  0  0
    3.9439   -0.0807   -4.3236 S   0  0  0  0  0  0  0  0  0  0  0  0
    2.5282    0.1782   -3.4262 C   0  0  0  0  0  0  0  0  0  0  0  0
    1.2894   -0.3780   -3.3295 C   0  0  0  0  0  0  0  0  0  0  0  0
    0.7029   -1.3744   -4.1131 C   0  0  0  0  0  0  0  0  0  0  0  0
   -0.5403   -1.9212   -3.7038 C   0  0  0  0  0  0  0  0  0  0  0  0
   -1.0788   -2.8906   -4.4876 N   0  0  0  0  0  0  0  0  0  0  0  0
    0.0945   -2.9874   -5.6538 S   0  0  0  0  0  0  0  0  0  0  0  0
    1.2556   -1.8784   -5.2458 N   0  0  0  0  0  0  0  0  0  0  0  0
   -1.1298   -1.4390   -2.5356 C   0  0  0  0  0  0  0  0  0  0  0  0
   -2.3095   -1.7759   -1.9534 C   0  0  0  0  0  0  0  0  0  0  0  0
   -3.5869   -2.8671   -2.1783 S   0  0  0  0  0  0  0  0  0  0  0  0
   -4.3541   -2.2829   -0.7695 C   0  0  0  0  0  0  0  0  0  0  0  0
   -5.4515   -2.7333   -0.0360 C   0  0  0  0  0  0  0  0  0  0  0  0
   -6.2720   -3.9345   -0.4282 C   0  0  0  0  0  0  0  0  0  0  0  0
   -5.6546   -5.2182    0.1152 C   0  0  0  0  0  0  0  0  0  0  0  0
   -5.5547   -2.0335    1.1864 C   0  0  0  0  0  0  0  0  0  0  0  0
   -4.2645   -0.9274    1.3361 S   0  0  0  0  0  0  0  0  0  0  0  0
   -3.6264   -1.2825   -0.1727 C   0  0  0  0  0  0  0  0  0  0  0  0
   -2.4531   -0.9996   -0.8616 C   0  0  0  0  0  0  0  0  0  0  0  0
   -1.4307   -0.1222   -0.6922 N   0  0  0  0  0  0  0  0  0  0  0  0
   -0.5596   -0.4271   -1.7272 C   0  0  0  0  0  0  0  0  0  0  0  0
    0.7252    0.0985   -2.1221 C   0  0  0  0  0  0  0  0  0  0  0  0
    1.6538    0.8947   -1.4722 N   0  0  0  0  0  0  0  0  0  0  0  0
    2.7221    0.9188   -2.3126 C   0  0  0  0  0  0  0  0  0  0  0  0
    4.0472    1.3311   -2.1958 C   0  0  0  0  0  0  0  0  0  0  0  0
    5.0060    2.1397   -1.0808 S   0  0  0  0  0  0  0  0  0  0  0  0
    1.7044    1.3793   -0.0898 C   0  0  0  0  0  0  0  0  0  0  0  0
    1.8179    0.2206    0.9011 C   0  0  0  0  0  0  0  0  0  0  0  0
   -1.5502    1.0781    0.1460 C   0  0  0  0  0  0  0  0  0  0  0  0
   -1.6368    2.3479   -0.7061 C   0  0  0  0  0  0  0  0  0  0  0  0
   -6.4033   -2.4216    2.3236 C   0  0  0  0  0  0  0  0  0  0  0  0
   -7.7476   -2.3874    2.2978 C   0  0  0  0  0  0  0  0  0  0  0  0
   -8.5689   -1.6761    1.3120 C   0  0  0  0  0  0  0  0  0  0  0  0
   -8.1762   -1.2033    0.2124 O   0  0  0  0  0  0  0  0  0  0  0  0
   -9.9061   -1.5300    1.8502 C   0  0  0  0  0  0  0  0  0  0  0  0
  -10.9916   -0.8448    1.2989 C   0  0  0  0  0  0  0  0  0  0  0  0
  -12.1819   -0.7813    2.0382 C   0  0  0  0  0  0  0  0  0  0  0  0
  -13.2668   -0.1449    1.5174 F   0  0  0  0  0  0  0  0  0  0  0  0
  -12.2525   -1.3638    3.3190 C   0  0  0  0  0  0  0  0  0  0  0  0
  -13.3964   -1.2637    4.0386 F   0  0  0  0  0  0  0  0  0  0  0  0
  -11.1477   -2.0406    3.8580 C   0  0  0  0  0  0  0  0  0  0  0  0
   -9.9700   -2.1356    3.0948 C   0  0  0  0  0  0  0  0  0  0  0  0
   -8.6679   -2.7918    3.3988 C   0  0  0  0  0  0  0  0  0  0  0  0
   -8.4391   -3.7650    4.3212 C   0  0  0  0  0  0  0  0  0  0  0  0
   -7.2548   -4.5864    4.2895 C   0  0  0  0  0  0  0  0  0  0  0  0
   -6.3177   -5.2619    4.2611 N   0  0  0  0  0  0  0  0  0  0  0  0
   -9.4254   -4.1713    5.2883 C   0  0  0  0  0  0  0  0  0  0  0  0
  -10.2031   -4.5176    6.0744 N   0  0  0  0  0  0  0  0  0  0  0  0
    8.5325    1.4978   -1.4859 H   0  0  0  0  0  0  0  0  0  0  0  0
   10.4161    8.6226   -0.8392 H   0  0  0  0  0  0  0  0  0  0  0  0
   11.4350    6.3044   -0.2158 H   0  0  0  0  0  0  0  0  0  0  0  0
    6.8186    0.5672   -5.0868 H   0  0  0  0  0  0  0  0  0  0  0  0
    8.1038    1.3464   -4.1018 H   0  0  0  0  0  0  0  0  0  0  0  0
    8.3988   -1.1530   -4.3970 H   0  0  0  0  0  0  0  0  0  0  0  0
    8.2614   -0.6705   -2.6644 H   0  0  0  0  0  0  0  0  0  0  0  0
    6.8552   -1.4305   -3.4983 H   0  0  0  0  0  0  0  0  0  0  0  0
   -7.3089   -3.8462   -0.0458 H   0  0  0  0  0  0  0  0  0  0  0  0
   -6.3372   -4.0041   -1.5353 H   0  0  0  0  0  0  0  0  0  0  0  0
   -5.6442   -5.2056    1.2279 H   0  0  0  0  0  0  0  0  0  0  0  0
   -6.2534   -6.0875   -0.2300 H   0  0  0  0  0  0  0  0  0  0  0  0
   -4.6153   -5.3305   -0.2606 H   0  0  0  0  0  0  0  0  0  0  0  0
    0.8767    2.0608    0.1129 H   0  0  0  0  0  0  0  0  0  0  0  0
    2.5829    2.0322    0.0655 H   0  0  0  0  0  0  0  0  0  0  0  0
    2.7863   -0.3149    0.7609 H   0  0  0  0  0  0  0  0  0  0  0  0
    1.7778    0.6207    1.9371 H   0  0  0  0  0  0  0  0  0  0  0  0
    0.9872   -0.5064    0.7674 H   0  0  0  0  0  0  0  0  0  0  0  0
   -2.4973    1.0477    0.7336 H   0  0  0  0  0  0  0  0  0  0  0  0
   -0.7667    1.1032    0.9195 H   0  0  0  0  0  0  0  0  0  0  0  0
   -0.8023    2.4096   -1.4381 H   0  0  0  0  0  0  0  0  0  0  0  0
   -1.6035    3.2439   -0.0475 H   0  0  0  0  0  0  0  0  0  0  0  0
   -2.5981    2.3491   -1.2711 H   0  0  0  0  0  0  0  0  0  0  0  0
   -5.8907   -2.7097    3.2346 H   0  0  0  0  0  0  0  0  0  0  0  0
  -10.9199   -0.3754    0.3214 H   0  0  0  0  0  0  0  0  0  0  0  0
  -11.2212   -2.4310    4.8605 H   0  0  0  0  0  0  0  0  0  0  0  0
  1  2  2  3
  2  3  1  0
  3  4  2  0
  3  5  1  0
  5  6  1  0
  6  7  1  0
  7  8  2  0
  8  9  1  0
  9 10  1  0
 10 11  2  3
 11 12  1  0
 12 13  3  0
 11 14  1  0
 14 15  3  0
  1 16  1  0
 16 17  2  0
 17 18  1  0
 18 19  1  0
 17 20  1  0
 20 21  1  0
 21 22  1  0
 22 23  1  0
 23 24  1  0
 24 25  1  0
 25 26  2  0
 26 27  1  0
 27 28  1  0
 25 29  1  0
 29 30  1  0
 30 31  1  0
 31 32  1  0
 32 33  1  0
 33 34  1  0
 34 35  1  0
 33 36  2  0
 36 37  1  0
 37 38  1  0
 38 39  1  0
 39 40  1  0
 40 41  1  0
 41 42  1  0
 42 43  1  0
 43 44  1  0
 44 45  1  0
 45 46  1  0
 43 47  1  0
 47 48  1  0
 40 49  1  0
 49 50  1  0
 36 51  1  0
 51 52  2  3
 52 53  1  0
 53 54  2  0
 53 55  1  0
 55 56  2  0
 56 57  1  0
 57 58  1  0
 57 59  2  0
 59 60  1  0
 59 61  1  0
 61 62  2  0
 62 63  1  0
 63 64  2  3
 64 65  1  0
 65 66  3  0
 64 67  1  0
 67 68  3  0
 10  2  1  0
 46 16  1  0
 63 52  1  0
  9  5  2  0
 45 20  2  0
 62 55  1  0
 44 22  2  0
 42 23  2  0
 28 24  2  0
 41 29  2  0
 39 30  2  0
 38 32  2  0
  1 69  1  0
  7 70  1  0
  8 71  1  0
 18 72  1  0
 18 73  1  0
 19 74  1  0
 19 75  1  0
 19 76  1  0
 34 77  1  0
 34 78  1  0
 35 79  1  0
 35 80  1  0
 35 81  1  0
 47 82  1  0
 47 83  1  0
 48 84  1  0
 48 85  1  0
 48 86  1  0
 49 87  1  0
 49 88  1  0
 50 89  1  0
 50 90  1  0
 50 91  1  0
 51 92  1  0
 56 93  1  0
 61 94  1  0
M  END

