
     RDKit          3D

 97108  0  0  0  0  0  0  0  0999 V2000
    4.6923   -0.3545   -7.0511 C   0  0  0  0  0  0  0  0  0  0  0  0
    5.8446    0.1894   -6.6230 C   0  0  0  0  0  0  0  0  0  0  0  0
    6.5463    1.2369   -7.3823 C   0  0  0  0  0  0  0  0  0  0  0  0
    6.3093    1.6081   -8.5589 O   0  0  0  0  0  0  0  0  0  0  0  0
    7.4604    1.8722   -6.4705 C   0  0  0  0  0  0  0  0  0  0  0  0
    8.4485    3.2147   -6.4745 S   0  0  0  0  0  0  0  0  0  0  0  0
    8.8319    3.0636   -4.8204 C   0  0  0  0  0  0  0  0  0  0  0  0
    8.1496    1.9676   -4.2762 C   0  0  0  0  0  0  0  0  0  0  0  0
    7.3882    1.3103   -5.2435 C   0  0  0  0  0  0  0  0  0  0  0  0
    6.4757    0.1458   -5.2602 C   0  0  0  0  0  0  0  0  0  0  0  0
    6.5559   -0.9116   -4.4244 C   0  0  0  0  0  0  0  0  0  0  0  0
    7.3916   -0.8851   -3.2487 C   0  0  0  0  0  0  0  0  0  0  0  0
    8.0607   -0.8889   -2.3014 N   0  0  0  0  0  0  0  0  0  0  0  0
    5.9779   -2.1897   -4.7566 C   0  0  0  0  0  0  0  0  0  0  0  0
    5.5268   -3.2192   -5.0218 N   0  0  0  0  0  0  0  0  0  0  0  0
    3.6615   -0.9121   -6.1721 C   0  0  0  0  0  0  0  0  0  0  0  0
    2.7970   -1.9687   -6.5141 C   0  0  0  0  0  0  0  0  0  0  0  0
    2.8727   -2.7930   -7.7730 C   0  0  0  0  0  0  0  0  0  0  0  0
    1.8872   -2.3031   -8.8195 C   0  0  0  0  0  0  0  0  0  0  0  0
    1.8157   -2.1483   -5.5340 C   0  0  0  0  0  0  0  0  0  0  0  0
    0.4760   -3.1943   -5.4010 S   0  0  0  0  0  0  0  0  0  0  0  0
    0.0317   -2.4680   -3.9341 C   0  0  0  0  0  0  0  0  0  0  0  0
   -0.8856   -2.6367   -2.9464 C   0  0  0  0  0  0  0  0  0  0  0  0
   -1.8916   -3.5955   -2.8297 C   0  0  0  0  0  0  0  0  0  0  0  0
   -2.6751   -3.6157   -1.6536 C   0  0  0  0  0  0  0  0  0  0  0  0
   -3.6627   -4.5422   -1.5823 N   0  0  0  0  0  0  0  0  0  0  0  0
   -3.4436   -5.2992   -3.0371 S   0  0  0  0  0  0  0  0  0  0  0  0
   -2.1873   -4.5146   -3.7850 N   0  0  0  0  0  0  0  0  0  0  0  0
   -2.4133   -2.6790   -0.6573 C   0  0  0  0  0  0  0  0  0  0  0  0
   -3.1620   -2.3756    0.4347 C   0  0  0  0  0  0  0  0  0  0  0  0
   -4.7428   -2.7227    0.9506 S   0  0  0  0  0  0  0  0  0  0  0  0
   -4.7364   -1.3550    1.9585 C   0  0  0  0  0  0  0  0  0  0  0  0
   -5.7092   -0.7707    2.7780 C   0  0  0  0  0  0  0  0  0  0  0  0
   -7.0987   -1.3213    2.9676 C   0  0  0  0  0  0  0  0  0  0  0  0
   -7.1817   -2.1980    4.2115 C   0  0  0  0  0  0  0  0  0  0  0  0
   -5.1963    0.3667    3.4259 C   0  0  0  0  0  0  0  0  0  0  0  0
   -3.6165    0.6974    2.8535 S   0  0  0  0  0  0  0  0  0  0  0  0
   -3.5568   -0.6572    1.8583 C   0  0  0  0  0  0  0  0  0  0  0  0
   -2.6605   -1.2326    0.9602 C   0  0  0  0  0  0  0  0  0  0  0  0
   -1.5892   -0.7536    0.2630 N   0  0  0  0  0  0  0  0  0  0  0  0
   -1.4204   -1.6710   -0.7638 C   0  0  0  0  0  0  0  0  0  0  0  0
   -0.5878   -1.6827   -1.9463 C   0  0  0  0  0  0  0  0  0  0  0  0
    0.5385   -0.9746   -2.3277 N   0  0  0  0  0  0  0  0  0  0  0  0
    0.8592   -1.4862   -3.5452 C   0  0  0  0  0  0  0  0  0  0  0  0
    1.8975   -1.2924   -4.4560 C   0  0  0  0  0  0  0  0  0  0  0  0
    3.1801   -0.2316   -4.6758 S   0  0  0  0  0  0  0  0  0  0  0  0
    1.4158   -0.0706   -1.5757 C   0  0  0  0  0  0  0  0  0  0  0  0
    2.0484   -0.7912   -0.3856 C   0  0  0  0  0  0  0  0  0  0  0  0
   -1.1026    0.6171    0.4140 C   0  0  0  0  0  0  0  0  0  0  0  0
   -1.6656    1.5259   -0.6822 C   0  0  0  0  0  0  0  0  0  0  0  0
   -5.9475    1.2138    4.3641 C   0  0  0  0  0  0  0  0  0  0  0  0
   -5.4302    1.7996    5.4569 C   0  0  0  0  0  0  0  0  0  0  0  0
   -6.0711    2.9446    6.1051 C   0  0  0  0  0  0  0  0  0  0  0  0
   -7.2513    3.3465    5.9034 O   0  0  0  0  0  0  0  0  0  0  0  0
   -5.0809    3.6191    6.9225 C   0  0  0  0  0  0  0  0  0  0  0  0
   -5.2053    4.8086    7.6331 C   0  0  0  0  0  0  0  0  0  0  0  0
   -4.0690    5.3264    8.2911 C   0  0  0  0  0  0  0  0  0  0  0  0
   -4.1668    6.5863    9.1040 C   0  0  0  0  0  0  0  0  0  0  0  0
   -2.8414    4.6400    8.2020 C   0  0  0  0  0  0  0  0  0  0  0  0
   -1.7417    5.1228    8.8234 F   0  0  0  0  0  0  0  0  0  0  0  0
   -2.7500    3.4412    7.4779 C   0  0  0  0  0  0  0  0  0  0  0  0
   -3.8976    2.9164    6.8677 C   0  0  0  0  0  0  0  0  0  0  0  0
   -4.0800    1.6686    6.0770 C   0  0  0  0  0  0  0  0  0  0  0  0
   -3.3762    0.5223    6.2585 C   0  0  0  0  0  0  0  0  0  0  0  0
   -2.1884    0.4680    7.0660 C   0  0  0  0  0  0  0  0  0  0  0  0
   -1.2417    0.4032    7.7256 N   0  0  0  0  0  0  0  0  0  0  0  0
   -3.8529   -0.7699    5.8304 C   0  0  0  0  0  0  0  0  0  0  0  0
   -4.2104   -1.8200    5.5039 N   0  0  0  0  0  0  0  0  0  0  0  0
    4.4207   -0.2478   -8.0913 H   0  0  0  0  0  0  0  0  0  0  0  0
    9.4937    3.7302   -4.2743 H   0  0  0  0  0  0  0  0  0  0  0  0
    8.1691    1.7117   -3.2256 H   0  0  0  0  0  0  0  0  0  0  0  0
    2.6490   -3.8486   -7.5254 H   0  0  0  0  0  0  0  0  0  0  0  0
    3.8932   -2.7564   -8.2040 H   0  0  0  0  0  0  0  0  0  0  0  0
    1.9528   -2.9659   -9.7079 H   0  0  0  0  0  0  0  0  0  0  0  0
    0.8405   -2.3357   -8.4271 H   0  0  0  0  0  0  0  0  0  0  0  0
    2.1451   -1.2650   -9.1238 H   0  0  0  0  0  0  0  0  0  0  0  0
   -7.4048   -1.9043    2.0789 H   0  0  0  0  0  0  0  0  0  0  0  0
   -7.8286   -0.4865    3.0622 H   0  0  0  0  0  0  0  0  0  0  0  0
   -6.4402   -3.0212    4.1523 H   0  0  0  0  0  0  0  0  0  0  0  0
   -6.9826   -1.5792    5.1172 H   0  0  0  0  0  0  0  0  0  0  0  0
   -8.2102   -2.6148    4.3016 H   0  0  0  0  0  0  0  0  0  0  0  0
    0.8908    0.8540   -1.3245 H   0  0  0  0  0  0  0  0  0  0  0  0
    2.2501    0.2834   -2.2083 H   0  0  0  0  0  0  0  0  0  0  0  0
    1.2753   -1.2814    0.2447 H   0  0  0  0  0  0  0  0  0  0  0  0
    2.6117   -0.0614    0.2355 H   0  0  0  0  0  0  0  0  0  0  0  0
    2.7531   -1.5647   -0.7595 H   0  0  0  0  0  0  0  0  0  0  0  0
   -0.0098    0.6518    0.5069 H   0  0  0  0  0  0  0  0  0  0  0  0
   -1.4161    1.0339    1.4012 H   0  0  0  0  0  0  0  0  0  0  0  0
   -2.7714    1.5928   -0.5609 H   0  0  0  0  0  0  0  0  0  0  0  0
   -1.4291    1.1488   -1.7056 H   0  0  0  0  0  0  0  0  0  0  0  0
   -1.2329    2.5416   -0.5702 H   0  0  0  0  0  0  0  0  0  0  0  0
   -6.9600    1.4622    4.0801 H   0  0  0  0  0  0  0  0  0  0  0  0
   -6.1483    5.3243    7.6479 H   0  0  0  0  0  0  0  0  0  0  0  0
   -4.1905    6.3566   10.1882 H   0  0  0  0  0  0  0  0  0  0  0  0
   -3.2924    7.2405    8.9038 H   0  0  0  0  0  0  0  0  0  0  0  0
   -5.0796    7.1620    8.8384 H   0  0  0  0  0  0  0  0  0  0  0  0
   -1.7944    2.9690    7.3840 H   0  0  0  0  0  0  0  0  0  0  0  0
  1  2  2  3
  2  3  1  0
  3  4  2  0
  3  5  1  0
  5  6  1  0
  6  7  1  0
  7  8  2  0
  8  9  1  0
  9 10  1  0
 10 11  2  3
 11 12  1  0
 12 13  3  0
 11 14  1  0
 14 15  3  0
  1 16  1  0
 16 17  2  0
 17 18  1  0
 18 19  1  0
 17 20  1  0
 20 21  1  0
 21 22  1  0
 22 23  1  0
 23 24  1  0
 24 25  1  0
 25 26  2  0
 26 27  1  0
 27 28  1  0
 25 29  1  0
 29 30  1  0
 30 31  1  0
 31 32  1  0
 32 33  1  0
 33 34  1  0
 34 35  1  0
 33 36  2  0
 36 37  1  0
 37 38  1  0
 38 39  1  0
 39 40  1  0
 40 41  1  0
 41 42  1  0
 42 43  1  0
 43 44  1  0
 44 45  1  0
 45 46  1  0
 43 47  1  0
 47 48  1  0
 40 49  1  0
 49 50  1  0
 36 51  1  0
 51 52  2  3
 52 53  1  0
 53 54  2  0
 53 55  1  0
 55 56  2  0
 56 57  1  0
 57 58  1  0
 57 59  2  0
 59 60  1  0
 59 61  1  0
 61 62  2  0
 62 63  1  0
 63 64  2  3
 64 65  1  0
 65 66  3  0
 64 67  1  0
 67 68  3  0
 10  2  1  0
 46 16  1  0
 63 52  1  0
  9  5  2  0
 45 20  2  0
 62 55  1  0
 44 22  2  0
 42 23  2  0
 28 24  2  0
 41 29  2  0
 39 30  2  0
 38 32  2  0
  1 69  1  0
  7 70  1  0
  8 71  1  0
 18 72  1  0
 18 73  1  0
 19 74  1  0
 19 75  1  0
 19 76  1  0
 34 77  1  0
 34 78  1  0
 35 79  1  0
 35 80  1  0
 35 81  1  0
 47 82  1  0
 47 83  1  0
 48 84  1  0
 48 85  1  0
 48 86  1  0
 49 87  1  0
 49 88  1  0
 50 89  1  0
 50 90  1  0
 50 91  1  0
 51 92  1  0
 56 93  1  0
 58 94  1  0
 58 95  1  0
 58 96  1  0
 61 97  1  0
M  END

