
     RDKit          3D

112124  0  0  0  0  0  0  0  0999 V2000
   -7.1885   -4.5324   -2.2763 C   0  0  0  0  0  0  0  0  0  0  0  0
   -7.2800   -5.8472   -1.9946 C   0  0  0  0  0  0  0  0  0  0  0  0
   -7.9257   -6.7896   -2.9242 C   0  0  0  0  0  0  0  0  0  0  0  0
   -8.7567   -6.5053   -3.8274 O   0  0  0  0  0  0  0  0  0  0  0  0
   -7.3173   -8.0841   -2.7059 C   0  0  0  0  0  0  0  0  0  0  0  0
   -7.0225   -9.4129   -3.6824 S   0  0  0  0  0  0  0  0  0  0  0  0
   -5.7170   -9.9639   -2.7349 C   0  0  0  0  0  0  0  0  0  0  0  0
   -5.4697   -9.0522   -1.7018 C   0  0  0  0  0  0  0  0  0  0  0  0
   -6.3957   -8.0103   -1.7120 C   0  0  0  0  0  0  0  0  0  0  0  0
   -6.4226   -6.6757   -1.0922 C   0  0  0  0  0  0  0  0  0  0  0  0
   -6.1578   -6.4307    0.2085 C   0  0  0  0  0  0  0  0  0  0  0  0
   -5.5160   -7.4175    1.0424 C   0  0  0  0  0  0  0  0  0  0  0  0
   -5.0079   -8.2100    1.7158 N   0  0  0  0  0  0  0  0  0  0  0  0
   -6.6581   -5.2490    0.8685 C   0  0  0  0  0  0  0  0  0  0  0  0
   -7.0596   -4.3061    1.4100 N   0  0  0  0  0  0  0  0  0  0  0  0
   -6.0335   -3.6535   -1.9714 C   0  0  0  0  0  0  0  0  0  0  0  0
   -5.9184   -2.3407   -2.4623 C   0  0  0  0  0  0  0  0  0  0  0  0
   -4.6357   -1.8351   -2.2626 C   0  0  0  0  0  0  0  0  0  0  0  0
   -3.9118   -0.3342   -2.5741 S   0  0  0  0  0  0  0  0  0  0  0  0
   -2.4310   -0.8729   -1.9243 C   0  0  0  0  0  0  0  0  0  0  0  0
   -1.2783   -0.2173   -1.3823 C   0  0  0  0  0  0  0  0  0  0  0  0
   -0.8176    1.0883   -1.6013 C   0  0  0  0  0  0  0  0  0  0  0  0
    0.3428    1.4749   -0.9195 C   0  0  0  0  0  0  0  0  0  0  0  0
    1.1149    2.7883   -1.0430 C   0  0  0  0  0  0  0  0  0  0  0  0
    0.2272    3.9657   -0.6147 C   0  0  0  0  0  0  0  0  0  0  0  0
   -0.0812    5.0460   -1.4757 C   0  0  0  0  0  0  0  0  0  0  0  0
   -0.8767    6.1050   -1.0362 C   0  0  0  0  0  0  0  0  0  0  0  0
   -1.4026    6.1119    0.2625 C   0  0  0  0  0  0  0  0  0  0  0  0
   -2.2847    7.2439    0.7163 C   0  0  0  0  0  0  0  0  0  0  0  0
   -3.7092    7.0660    0.1977 C   0  0  0  0  0  0  0  0  0  0  0  0
   -1.1278    5.0368    1.1166 C   0  0  0  0  0  0  0  0  0  0  0  0
   -0.3215    3.9790    0.6860 C   0  0  0  0  0  0  0  0  0  0  0  0
    1.7186    2.8641   -2.4769 C   0  0  0  0  0  0  0  0  0  0  0  0
    2.8437    3.8899   -2.6464 C   0  0  0  0  0  0  0  0  0  0  0  0
    2.1972    2.5152   -0.0172 C   0  0  0  0  0  0  0  0  0  0  0  0
    2.0932    1.2681    0.5300 C   0  0  0  0  0  0  0  0  0  0  0  0
    0.9484    0.5996   -0.0162 C   0  0  0  0  0  0  0  0  0  0  0  0
    0.4750   -0.6912    0.2254 C   0  0  0  0  0  0  0  0  0  0  0  0
   -0.6364   -1.1256   -0.5233 C   0  0  0  0  0  0  0  0  0  0  0  0
   -1.3005   -2.5184   -0.5636 C   0  0  0  0  0  0  0  0  0  0  0  0
   -1.8264   -2.9963    0.8178 C   0  0  0  0  0  0  0  0  0  0  0  0
   -0.7636   -3.2579    1.8859 C   0  0  0  0  0  0  0  0  0  0  0  0
   -0.4214   -3.5855   -1.2605 C   0  0  0  0  0  0  0  0  0  0  0  0
    0.9830   -3.6174   -1.1000 C   0  0  0  0  0  0  0  0  0  0  0  0
    1.7602   -4.6273   -1.6727 C   0  0  0  0  0  0  0  0  0  0  0  0
    1.1592   -5.6501   -2.4128 C   0  0  0  0  0  0  0  0  0  0  0  0
    1.9986   -6.7405   -3.0263 C   0  0  0  0  0  0  0  0  0  0  0  0
    2.6238   -6.2759   -4.3380 C   0  0  0  0  0  0  0  0  0  0  0  0
   -0.2273   -5.6397   -2.5835 C   0  0  0  0  0  0  0  0  0  0  0  0
   -1.0045   -4.6307   -2.0125 C   0  0  0  0  0  0  0  0  0  0  0  0
   -2.4949   -2.1484   -1.4351 C   0  0  0  0  0  0  0  0  0  0  0  0
   -3.7654   -2.6814   -1.6376 C   0  0  0  0  0  0  0  0  0  0  0  0
   -4.5382   -4.1228   -1.2922 S   0  0  0  0  0  0  0  0  0  0  0  0
    3.0064    1.0919    1.9515 S   0  0  0  0  0  0  0  0  0  0  0  0
    3.5979    2.6735    1.8057 C   0  0  0  0  0  0  0  0  0  0  0  0
    4.4180    3.4575    2.6061 C   0  0  0  0  0  0  0  0  0  0  0  0
    4.5037    4.7647    2.0995 C   0  0  0  0  0  0  0  0  0  0  0  0
    3.5734    4.9077    0.6727 S   0  0  0  0  0  0  0  0  0  0  0  0
    3.0654    3.3095    0.7199 C   0  0  0  0  0  0  0  0  0  0  0  0
    5.3725    5.8276    2.6266 C   0  0  0  0  0  0  0  0  0  0  0  0
    5.6383    6.0075    3.9317 C   0  0  0  0  0  0  0  0  0  0  0  0
    6.9181    6.5599    4.4089 C   0  0  0  0  0  0  0  0  0  0  0  0
    7.7946    7.1528    3.7244 O   0  0  0  0  0  0  0  0  0  0  0  0
    7.0439    6.1682    5.7900 C   0  0  0  0  0  0  0  0  0  0  0  0
    8.2303    6.2177    6.9709 S   0  0  0  0  0  0  0  0  0  0  0  0
    7.2859    5.3486    8.0892 C   0  0  0  0  0  0  0  0  0  0  0  0
    6.0532    5.0156    7.5186 C   0  0  0  0  0  0  0  0  0  0  0  0
    5.9529    5.4840    6.2073 C   0  0  0  0  0  0  0  0  0  0  0  0
    4.9460    5.4151    5.1269 C   0  0  0  0  0  0  0  0  0  0  0  0
    3.6192    5.2221    5.2996 C   0  0  0  0  0  0  0  0  0  0  0  0
    2.6584    5.6276    4.3036 C   0  0  0  0  0  0  0  0  0  0  0  0
    1.8850    5.9574    3.5098 N   0  0  0  0  0  0  0  0  0  0  0  0
    3.0741    4.7455    6.5450 C   0  0  0  0  0  0  0  0  0  0  0  0
    2.6268    4.3640    7.5418 N   0  0  0  0  0  0  0  0  0  0  0  0
   -7.9022   -4.1240   -2.9845 H   0  0  0  0  0  0  0  0  0  0  0  0
   -5.1137  -10.8353   -2.9533 H   0  0  0  0  0  0  0  0  0  0  0  0
   -4.6179   -9.1132   -1.0410 H   0  0  0  0  0  0  0  0  0  0  0  0
   -6.7059   -1.8046   -2.9740 H   0  0  0  0  0  0  0  0  0  0  0  0
   -1.3198    1.7603   -2.2836 H   0  0  0  0  0  0  0  0  0  0  0  0
    0.2819    5.0899   -2.4911 H   0  0  0  0  0  0  0  0  0  0  0  0
   -1.0871    6.9247   -1.7121 H   0  0  0  0  0  0  0  0  0  0  0  0
   -1.8770    8.2081    0.3399 H   0  0  0  0  0  0  0  0  0  0  0  0
   -2.3087    7.3015    1.8270 H   0  0  0  0  0  0  0  0  0  0  0  0
   -3.7162    7.0283   -0.9144 H   0  0  0  0  0  0  0  0  0  0  0  0
   -4.3334    7.9209    0.5269 H   0  0  0  0  0  0  0  0  0  0  0  0
   -4.1507    6.1283    0.5960 H   0  0  0  0  0  0  0  0  0  0  0  0
   -1.5338    5.0151    2.1208 H   0  0  0  0  0  0  0  0  0  0  0  0
   -0.1188    3.1671    1.3737 H   0  0  0  0  0  0  0  0  0  0  0  0
    2.1403    1.8701   -2.7623 H   0  0  0  0  0  0  0  0  0  0  0  0
    0.9121    3.0652   -3.2160 H   0  0  0  0  0  0  0  0  0  0  0  0
    3.0172    4.0713   -3.7278 H   0  0  0  0  0  0  0  0  0  0  0  0
    3.7892    3.4991   -2.2080 H   0  0  0  0  0  0  0  0  0  0  0  0
    2.5991    4.8594   -2.1666 H   0  0  0  0  0  0  0  0  0  0  0  0
    0.9905   -1.3241    0.9291 H   0  0  0  0  0  0  0  0  0  0  0  0
   -2.3849   -3.9469    0.6703 H   0  0  0  0  0  0  0  0  0  0  0  0
   -2.5521   -2.2537    1.2248 H   0  0  0  0  0  0  0  0  0  0  0  0
    0.1059   -3.8112    1.4748 H   0  0  0  0  0  0  0  0  0  0  0  0
   -0.4338   -2.3039    2.3485 H   0  0  0  0  0  0  0  0  0  0  0  0
   -1.2092   -3.8707    2.6985 H   0  0  0  0  0  0  0  0  0  0  0  0
    1.5084   -2.8862   -0.5195 H   0  0  0  0  0  0  0  0  0  0  0  0
    2.8329   -4.6155   -1.5330 H   0  0  0  0  0  0  0  0  0  0  0  0
    1.3801   -7.6446   -3.2213 H   0  0  0  0  0  0  0  0  0  0  0  0
    2.8009   -7.0396   -2.3198 H   0  0  0  0  0  0  0  0  0  0  0  0
    3.2117   -7.1088   -4.7793 H   0  0  0  0  0  0  0  0  0  0  0  0
    1.8377   -5.9710   -5.0584 H   0  0  0  0  0  0  0  0  0  0  0  0
    3.3053   -5.4185   -4.1562 H   0  0  0  0  0  0  0  0  0  0  0  0
   -0.7127   -6.4221   -3.1537 H   0  0  0  0  0  0  0  0  0  0  0  0
   -2.0644   -4.6859   -2.1651 H   0  0  0  0  0  0  0  0  0  0  0  0
    4.9270    3.0960    3.4889 H   0  0  0  0  0  0  0  0  0  0  0  0
    5.9559    6.3762    1.8970 H   0  0  0  0  0  0  0  0  0  0  0  0
    7.6006    5.0805    9.0898 H   0  0  0  0  0  0  0  0  0  0  0  0
    5.2996    4.4411    8.0341 H   0  0  0  0  0  0  0  0  0  0  0  0
  1  2  2  3
  2  3  1  0
  3  4  2  0
  3  5  1  0
  5  6  1  0
  6  7  1  0
  7  8  2  0
  8  9  1  0
  9 10  1  0
 10 11  2  3
 11 12  1  0
 12 13  3  0
 11 14  1  0
 14 15  3  0
  1 16  1  0
 16 17  2  0
 17 18  1  0
 18 19  1  0
 19 20  1  0
 20 21  1  0
 21 22  2  0
 22 23  1  0
 23 24  1  0
 24 25  1  0
 25 26  2  0
 26 27  1  0
 27 28  2  0
 28 29  1  0
 29 30  1  0
 28 31  1  0
 31 32  2  0
 24 33  1  0
 33 34  1  0
 24 35  1  0
 35 36  2  0
 36 37  1  0
 37 38  1  0
 38 39  2  0
 39 40  1  0
 40 41  1  0
 41 42  1  0
 40 43  1  0
 43 44  2  0
 44 45  1  0
 45 46  2  0
 46 47  1  0
 47 48  1  0
 46 49  1  0
 49 50  2  0
 40 51  1  0
 51 52  1  0
 52 53  1  0
 36 54  1  0
 54 55  1  0
 55 56  1  0
 56 57  2  0
 57 58  1  0
 58 59  1  0
 57 60  1  0
 60 61  2  3
 61 62  1  0
 62 63  2  0
 62 64  1  0
 64 65  1  0
 65 66  1  0
 66 67  2  0
 67 68  1  0
 68 69  1  0
 69 70  2  3
 70 71  1  0
 71 72  3  0
 70 73  1  0
 73 74  3  0
 10  2  1  0
 53 16  1  0
 59 55  2  0
 69 61  1  0
  9  5  2  0
 52 18  2  0
 68 64  2  0
 51 20  2  0
 39 21  1  0
 50 43  1  0
 37 23  2  0
 32 25  1  0
 59 35  1  0
  1 75  1  0
  7 76  1  0
  8 77  1  0
 17 78  1  0
 22 79  1  0
 26 80  1  0
 27 81  1  0
 29 82  1  0
 29 83  1  0
 30 84  1  0
 30 85  1  0
 30 86  1  0
 31 87  1  0
 32 88  1  0
 33 89  1  0
 33 90  1  0
 34 91  1  0
 34 92  1  0
 34 93  1  0
 38 94  1  0
 41 95  1  0
 41 96  1  0
 42 97  1  0
 42 98  1  0
 42 99  1  0
 44100  1  0
 45101  1  0
 47102  1  0
 47103  1  0
 48104  1  0
 48105  1  0
 48106  1  0
 49107  1  0
 50108  1  0
 56109  1  0
 60110  1  0
 66111  1  0
 67112  1  0
M  END

