
     RDKit          3D

116128  0  0  0  0  0  0  0  0999 V2000
   -5.5230    2.6529   -4.5615 C   0  0  0  0  0  0  0  0  0  0  0  0
   -5.4350    2.1885   -5.8202 C   0  0  0  0  0  0  0  0  0  0  0  0
   -4.0825    1.4971   -6.5315 S   0  0  0  0  0  0  0  0  0  0  0  0
   -4.8049    1.2244   -8.0346 C   0  0  0  0  0  0  0  0  0  0  0  0
   -4.1359    0.6366   -9.0630 C   0  0  0  0  0  0  0  0  0  0  0  0
   -2.7622    0.2234   -8.8944 C   0  0  0  0  0  0  0  0  0  0  0  0
   -1.6651   -0.1194   -8.7565 N   0  0  0  0  0  0  0  0  0  0  0  0
   -4.7147    0.3147  -10.3458 C   0  0  0  0  0  0  0  0  0  0  0  0
   -5.1582    0.0434  -11.3817 N   0  0  0  0  0  0  0  0  0  0  0  0
   -6.1021    1.6802   -8.0073 N   0  0  0  0  0  0  0  0  0  0  0  0
   -7.0836    1.6238   -9.1081 C   0  0  0  0  0  0  0  0  0  0  0  0
   -7.7592    0.2557   -9.1605 C   0  0  0  0  0  0  0  0  0  0  0  0
   -6.4457    2.1900   -6.7764 C   0  0  0  0  0  0  0  0  0  0  0  0
   -7.5961    2.6424   -6.5309 O   0  0  0  0  0  0  0  0  0  0  0  0
   -4.3437    2.7835   -3.6832 C   0  0  0  0  0  0  0  0  0  0  0  0
   -3.1866    3.5414   -3.9662 C   0  0  0  0  0  0  0  0  0  0  0  0
   -2.9925    4.3618   -5.1903 C   0  0  0  0  0  0  0  0  0  0  0  0
   -1.9355    4.0274   -6.0583 C   0  0  0  0  0  0  0  0  0  0  0  0
   -1.7655    4.6945   -7.2708 C   0  0  0  0  0  0  0  0  0  0  0  0
   -2.6565    5.6909   -7.6505 C   0  0  0  0  0  0  0  0  0  0  0  0
   -3.7032    6.0462   -6.8032 C   0  0  0  0  0  0  0  0  0  0  0  0
   -3.8796    5.4062   -5.5625 C   0  0  0  0  0  0  0  0  0  0  0  0
   -4.9850    5.9157   -4.6582 C   0  0  0  0  0  0  0  0  0  0  0  0
   -4.6469    7.2910   -4.0828 C   0  0  0  0  0  0  0  0  0  0  0  0
   -2.1840    3.2614   -3.0317 C   0  0  0  0  0  0  0  0  0  0  0  0
   -0.5014    3.4980   -3.0777 S   0  0  0  0  0  0  0  0  0  0  0  0
   -0.2853    2.5160   -1.7149 C   0  0  0  0  0  0  0  0  0  0  0  0
    0.7253    1.7371   -1.2336 C   0  0  0  0  0  0  0  0  0  0  0  0
    2.0185    1.5642   -1.7322 C   0  0  0  0  0  0  0  0  0  0  0  0
    2.7844    0.4575   -1.2781 C   0  0  0  0  0  0  0  0  0  0  0  0
    4.0266    0.3132   -1.8016 N   0  0  0  0  0  0  0  0  0  0  0  0
    4.0492    1.6071   -2.8330 S   0  0  0  0  0  0  0  0  0  0  0  0
    2.5875    2.3654   -2.6681 N   0  0  0  0  0  0  0  0  0  0  0  0
    2.2406   -0.3834   -0.3064 C   0  0  0  0  0  0  0  0  0  0  0  0
    2.8531   -1.3153    0.4750 C   0  0  0  0  0  0  0  0  0  0  0  0
    4.4489   -1.8226    0.7347 S   0  0  0  0  0  0  0  0  0  0  0  0
    4.0337   -2.4095    2.2725 C   0  0  0  0  0  0  0  0  0  0  0  0
    4.8028   -2.9280    3.3130 C   0  0  0  0  0  0  0  0  0  0  0  0
    6.1657   -3.4776    3.1137 C   0  0  0  0  0  0  0  0  0  0  0  0
    7.3243   -2.9393    3.7348 C   0  0  0  0  0  0  0  0  0  0  0  0
    7.2859   -1.7022    4.5950 C   0  0  0  0  0  0  0  0  0  0  0  0
    7.4301   -0.4423    3.7427 C   0  0  0  0  0  0  0  0  0  0  0  0
    8.5783   -3.5211    3.4691 C   0  0  0  0  0  0  0  0  0  0  0  0
    8.6854   -4.6314    2.6282 C   0  0  0  0  0  0  0  0  0  0  0  0
    7.5469   -5.1661    2.0315 C   0  0  0  0  0  0  0  0  0  0  0  0
    6.2969   -4.5946    2.2686 C   0  0  0  0  0  0  0  0  0  0  0  0
    4.0369   -3.0390    4.4900 C   0  0  0  0  0  0  0  0  0  0  0  0
    2.4166   -2.5901    4.1667 S   0  0  0  0  0  0  0  0  0  0  0  0
    2.7123   -2.1756    2.5683 C   0  0  0  0  0  0  0  0  0  0  0  0
    2.0278   -1.5634    1.5204 C   0  0  0  0  0  0  0  0  0  0  0  0
    0.8539   -0.8815    1.4369 N   0  0  0  0  0  0  0  0  0  0  0  0
    0.9636   -0.1782    0.2506 C   0  0  0  0  0  0  0  0  0  0  0  0
    0.1348    0.8372   -0.3250 C   0  0  0  0  0  0  0  0  0  0  0  0
   -1.2421    0.9649   -0.3747 N   0  0  0  0  0  0  0  0  0  0  0  0
   -1.4476    1.9982   -1.2377 C   0  0  0  0  0  0  0  0  0  0  0  0
   -2.5397    2.4001   -2.0130 C   0  0  0  0  0  0  0  0  0  0  0  0
   -4.1142    1.8585   -2.2681 S   0  0  0  0  0  0  0  0  0  0  0  0
   -2.3000    0.1005    0.1601 C   0  0  0  0  0  0  0  0  0  0  0  0
   -2.1753   -1.3388   -0.3379 C   0  0  0  0  0  0  0  0  0  0  0  0
   -0.0687   -0.6767    2.5619 C   0  0  0  0  0  0  0  0  0  0  0  0
   -0.0451    0.7709    3.0483 C   0  0  0  0  0  0  0  0  0  0  0  0
    4.5408   -3.5728    5.7647 C   0  0  0  0  0  0  0  0  0  0  0  0
    4.1983   -3.1704    7.0069 C   0  0  0  0  0  0  0  0  0  0  0  0
    4.4907   -4.0072    8.1695 C   0  0  0  0  0  0  0  0  0  0  0  0
    5.2245   -5.0331    8.1764 O   0  0  0  0  0  0  0  0  0  0  0  0
    3.7602   -3.5015    9.3060 C   0  0  0  0  0  0  0  0  0  0  0  0
    3.7798   -3.9809   10.6157 C   0  0  0  0  0  0  0  0  0  0  0  0
    3.0806   -3.2717   11.6013 C   0  0  0  0  0  0  0  0  0  0  0  0
    3.1121   -3.8376   13.2644 Cl  0  0  0  0  0  0  0  0  0  0  0  0
    2.3869   -2.0938   11.2583 C   0  0  0  0  0  0  0  0  0  0  0  0
    1.7514   -1.3756   12.2226 F   0  0  0  0  0  0  0  0  0  0  0  0
    2.3790   -1.6317    9.9315 C   0  0  0  0  0  0  0  0  0  0  0  0
    3.0576   -2.3664    8.9386 C   0  0  0  0  0  0  0  0  0  0  0  0
    3.3234   -2.0511    7.4969 C   0  0  0  0  0  0  0  0  0  0  0  0
    3.0764   -0.8539    6.8992 C   0  0  0  0  0  0  0  0  0  0  0  0
    3.8580   -0.3417    5.8069 C   0  0  0  0  0  0  0  0  0  0  0  0
    4.4646    0.1008    4.9207 N   0  0  0  0  0  0  0  0  0  0  0  0
    2.0466    0.0423    7.3566 C   0  0  0  0  0  0  0  0  0  0  0  0
    1.2169    0.7722    7.7034 N   0  0  0  0  0  0  0  0  0  0  0  0
   -6.4765    2.9925   -4.1789 H   0  0  0  0  0  0  0  0  0  0  0  0
   -6.6106    1.8947  -10.0719 H   0  0  0  0  0  0  0  0  0  0  0  0
   -7.8785    2.3922   -8.9721 H   0  0  0  0  0  0  0  0  0  0  0  0
   -8.3109    0.1455  -10.1192 H   0  0  0  0  0  0  0  0  0  0  0  0
   -7.0116   -0.5597   -9.0842 H   0  0  0  0  0  0  0  0  0  0  0  0
   -8.4705    0.1624   -8.3171 H   0  0  0  0  0  0  0  0  0  0  0  0
   -1.2582    3.2148   -5.8182 H   0  0  0  0  0  0  0  0  0  0  0  0
   -0.9516    4.4210   -7.9327 H   0  0  0  0  0  0  0  0  0  0  0  0
   -2.5286    6.2065   -8.5912 H   0  0  0  0  0  0  0  0  0  0  0  0
   -4.3744    6.8447   -7.1018 H   0  0  0  0  0  0  0  0  0  0  0  0
   -5.9264    5.9916   -5.2417 H   0  0  0  0  0  0  0  0  0  0  0  0
   -5.1874    5.2429   -3.8069 H   0  0  0  0  0  0  0  0  0  0  0  0
   -3.6847    7.2475   -3.5285 H   0  0  0  0  0  0  0  0  0  0  0  0
   -5.4472    7.5991   -3.3760 H   0  0  0  0  0  0  0  0  0  0  0  0
   -4.5784    8.0536   -4.8897 H   0  0  0  0  0  0  0  0  0  0  0  0
    8.1081   -1.7304    5.3438 H   0  0  0  0  0  0  0  0  0  0  0  0
    6.3451   -1.6525    5.1749 H   0  0  0  0  0  0  0  0  0  0  0  0
    6.6439   -0.4119    2.9595 H   0  0  0  0  0  0  0  0  0  0  0  0
    7.3185    0.4497    4.3880 H   0  0  0  0  0  0  0  0  0  0  0  0
    8.4308   -0.4131    3.2647 H   0  0  0  0  0  0  0  0  0  0  0  0
    9.4808   -3.1165    3.9164 H   0  0  0  0  0  0  0  0  0  0  0  0
    9.6541   -5.0754    2.4369 H   0  0  0  0  0  0  0  0  0  0  0  0
    7.6298   -6.0291    1.3787 H   0  0  0  0  0  0  0  0  0  0  0  0
    5.4237   -5.0268    1.7972 H   0  0  0  0  0  0  0  0  0  0  0  0
   -3.2946    0.4691   -0.1499 H   0  0  0  0  0  0  0  0  0  0  0  0
   -2.3511    0.1827    1.2578 H   0  0  0  0  0  0  0  0  0  0  0  0
   -2.2344   -1.3639   -1.4442 H   0  0  0  0  0  0  0  0  0  0  0  0
   -3.0039   -1.9422    0.0817 H   0  0  0  0  0  0  0  0  0  0  0  0
   -1.2228   -1.7998   -0.0111 H   0  0  0  0  0  0  0  0  0  0  0  0
    0.2183   -1.3117    3.4184 H   0  0  0  0  0  0  0  0  0  0  0  0
   -1.0749   -1.0431    2.3179 H   0  0  0  0  0  0  0  0  0  0  0  0
   -0.5268    1.4487    2.3097 H   0  0  0  0  0  0  0  0  0  0  0  0
   -0.5791    0.8587    4.0175 H   0  0  0  0  0  0  0  0  0  0  0  0
    1.0079    1.0984    3.1984 H   0  0  0  0  0  0  0  0  0  0  0  0
    5.2409   -4.3967    5.6747 H   0  0  0  0  0  0  0  0  0  0  0  0
    4.3478   -4.8664   10.8685 H   0  0  0  0  0  0  0  0  0  0  0  0
    1.8626   -0.7119    9.7288 H   0  0  0  0  0  0  0  0  0  0  0  0
  1  2  2  3
  2  3  1  0
  3  4  1  0
  4  5  2  3
  5  6  1  0
  6  7  3  0
  5  8  1  0
  8  9  3  0
  4 10  1  0
 10 11  1  0
 11 12  1  0
 10 13  1  0
 13 14  2  0
  1 15  1  0
 15 16  2  0
 16 17  1  0
 17 18  2  0
 18 19  1  0
 19 20  2  0
 20 21  1  0
 21 22  2  0
 22 23  1  0
 23 24  1  0
 16 25  1  0
 25 26  1  0
 26 27  1  0
 27 28  1  0
 28 29  1  0
 29 30  1  0
 30 31  2  0
 31 32  1  0
 32 33  1  0
 30 34  1  0
 34 35  1  0
 35 36  1  0
 36 37  1  0
 37 38  1  0
 38 39  1  0
 39 40  2  0
 40 41  1  0
 41 42  1  0
 40 43  1  0
 43 44  2  0
 44 45  1  0
 45 46  2  0
 38 47  2  0
 47 48  1  0
 48 49  1  0
 49 50  1  0
 50 51  1  0
 51 52  1  0
 52 53  1  0
 53 54  1  0
 54 55  1  0
 55 56  1  0
 56 57  1  0
 54 58  1  0
 58 59  1  0
 51 60  1  0
 60 61  1  0
 47 62  1  0
 62 63  2  3
 63 64  1  0
 64 65  2  0
 64 66  1  0
 66 67  2  0
 67 68  1  0
 68 69  1  0
 68 70  2  0
 70 71  1  0
 70 72  1  0
 72 73  2  0
 73 74  1  0
 74 75  2  3
 75 76  1  0
 76 77  3  0
 75 78  1  0
 78 79  3  0
 13  2  1  0
 57 15  1  0
 74 63  1  0
 22 17  1  0
 56 25  2  0
 73 66  1  0
 55 27  2  0
 53 28  2  0
 33 29  2  0
 52 34  2  0
 50 35  2  0
 49 37  2  0
 46 39  1  0
  1 80  1  0
 11 81  1  0
 11 82  1  0
 12 83  1  0
 12 84  1  0
 12 85  1  0
 18 86  1  0
 19 87  1  0
 20 88  1  0
 21 89  1  0
 23 90  1  0
 23 91  1  0
 24 92  1  0
 24 93  1  0
 24 94  1  0
 41 95  1  0
 41 96  1  0
 42 97  1  0
 42 98  1  0
 42 99  1  0
 43100  1  0
 44101  1  0
 45102  1  0
 46103  1  0
 58104  1  0
 58105  1  0
 59106  1  0
 59107  1  0
 59108  1  0
 60109  1  0
 60110  1  0
 61111  1  0
 61112  1  0
 61113  1  0
 62114  1  0
 67115  1  0
 72116  1  0
M  END

