
     RDKit          3D

 96106  0  0  0  0  0  0  0  0999 V2000
   -2.6065    5.5901    4.5282 C   0  0  0  0  0  0  0  0  0  0  0  0
   -2.2352    5.0484    5.6987 C   0  0  0  0  0  0  0  0  0  0  0  0
   -1.1571    3.7839    5.9249 S   0  0  0  0  0  0  0  0  0  0  0  0
   -1.1758    3.8430    7.6133 C   0  0  0  0  0  0  0  0  0  0  0  0
   -0.4139    3.0154    8.3794 C   0  0  0  0  0  0  0  0  0  0  0  0
    0.4389    2.0270    7.7655 C   0  0  0  0  0  0  0  0  0  0  0  0
    1.1263    1.2342    7.2796 N   0  0  0  0  0  0  0  0  0  0  0  0
   -0.3638    3.0419    9.8175 C   0  0  0  0  0  0  0  0  0  0  0  0
   -0.3150    3.0574   10.9742 N   0  0  0  0  0  0  0  0  0  0  0  0
   -2.0366    4.8371    8.0267 N   0  0  0  0  0  0  0  0  0  0  0  0
   -2.2930    5.2767    9.4097 C   0  0  0  0  0  0  0  0  0  0  0  0
   -1.2134    6.2533    9.8687 C   0  0  0  0  0  0  0  0  0  0  0  0
   -2.6047    5.4999    6.9652 C   0  0  0  0  0  0  0  0  0  0  0  0
   -3.3950    6.4717    7.1276 O   0  0  0  0  0  0  0  0  0  0  0  0
   -2.1188    5.1161    3.2182 C   0  0  0  0  0  0  0  0  0  0  0  0
   -1.6723    5.9491    2.1712 C   0  0  0  0  0  0  0  0  0  0  0  0
   -1.6505    7.4487    2.2160 C   0  0  0  0  0  0  0  0  0  0  0  0
   -2.9376    8.0293    1.6412 C   0  0  0  0  0  0  0  0  0  0  0  0
   -1.2772    5.1938    1.0652 C   0  0  0  0  0  0  0  0  0  0  0  0
   -0.6161    5.5800   -0.4663 S   0  0  0  0  0  0  0  0  0  0  0  0
   -0.4785    3.9318   -0.8467 C   0  0  0  0  0  0  0  0  0  0  0  0
   -0.1812    3.1216   -1.9063 C   0  0  0  0  0  0  0  0  0  0  0  0
    0.1999    3.3833   -3.2274 C   0  0  0  0  0  0  0  0  0  0  0  0
    0.3450    2.2832   -4.1322 C   0  0  0  0  0  0  0  0  0  0  0  0
    0.7478    2.5780   -5.3935 N   0  0  0  0  0  0  0  0  0  0  0  0
    0.8566    4.2281   -5.2774 S   0  0  0  0  0  0  0  0  0  0  0  0
    0.4514    4.6248   -3.7162 N   0  0  0  0  0  0  0  0  0  0  0  0
    0.1217    0.9830   -3.6538 C   0  0  0  0  0  0  0  0  0  0  0  0
    0.4196   -0.2404   -4.1855 C   0  0  0  0  0  0  0  0  0  0  0  0
    1.2617   -0.8388   -5.5372 S   0  0  0  0  0  0  0  0  0  0  0  0
    1.4771   -2.3505   -4.7716 C   0  0  0  0  0  0  0  0  0  0  0  0
    2.1664   -3.5152   -5.1073 C   0  0  0  0  0  0  0  0  0  0  0  0
    2.9407   -3.7035   -6.3819 C   0  0  0  0  0  0  0  0  0  0  0  0
    4.4082   -3.3484   -6.1682 C   0  0  0  0  0  0  0  0  0  0  0  0
    2.1496   -4.4253   -4.0333 C   0  0  0  0  0  0  0  0  0  0  0  0
    1.3332   -3.7682   -2.6944 S   0  0  0  0  0  0  0  0  0  0  0  0
    0.9620   -2.3415   -3.4982 C   0  0  0  0  0  0  0  0  0  0  0  0
    0.3548   -1.1395   -3.1649 C   0  0  0  0  0  0  0  0  0  0  0  0
    0.0432   -0.5732   -1.9719 N   0  0  0  0  0  0  0  0  0  0  0  0
   -0.1906    0.7339   -2.3070 C   0  0  0  0  0  0  0  0  0  0  0  0
   -0.4439    1.8246   -1.4519 C   0  0  0  0  0  0  0  0  0  0  0  0
   -1.0164    1.8247   -0.2120 N   0  0  0  0  0  0  0  0  0  0  0  0
   -0.9452    3.1288    0.1416 C   0  0  0  0  0  0  0  0  0  0  0  0
   -1.4045    3.8429    1.2276 C   0  0  0  0  0  0  0  0  0  0  0  0
   -2.0261    3.4791    2.7358 S   0  0  0  0  0  0  0  0  0  0  0  0
   -2.0681    0.9039    0.2460 C   0  0  0  0  0  0  0  0  0  0  0  0
   -3.4502    1.4032   -0.1720 C   0  0  0  0  0  0  0  0  0  0  0  0
    0.5715   -1.0558   -0.6835 C   0  0  0  0  0  0  0  0  0  0  0  0
    2.0866   -0.8670   -0.6105 C   0  0  0  0  0  0  0  0  0  0  0  0
    2.8013   -5.7396   -4.0127 C   0  0  0  0  0  0  0  0  0  0  0  0
    2.3172   -6.7956   -4.6930 C   0  0  0  0  0  0  0  0  0  0  0  0
    0.9931   -6.8439   -5.3285 C   0  0  0  0  0  0  0  0  0  0  0  0
    0.1414   -5.9155   -5.3627 O   0  0  0  0  0  0  0  0  0  0  0  0
    0.7707   -8.1747   -5.8359 C   0  0  0  0  0  0  0  0  0  0  0  0
   -0.3548   -8.6511   -6.5093 C   0  0  0  0  0  0  0  0  0  0  0  0
   -0.3439   -9.9721   -6.9704 C   0  0  0  0  0  0  0  0  0  0  0  0
   -1.4121  -10.4586   -7.6462 F   0  0  0  0  0  0  0  0  0  0  0  0
    0.7824  -10.7837   -6.7546 C   0  0  0  0  0  0  0  0  0  0  0  0
    1.8994  -10.2867   -6.0594 C   0  0  0  0  0  0  0  0  0  0  0  0
    1.8773   -8.9667   -5.5769 C   0  0  0  0  0  0  0  0  0  0  0  0
    2.9046   -8.1691   -4.8346 C   0  0  0  0  0  0  0  0  0  0  0  0
    4.1275   -8.6022   -4.4148 C   0  0  0  0  0  0  0  0  0  0  0  0
    5.1385   -7.7210   -3.8893 C   0  0  0  0  0  0  0  0  0  0  0  0
    5.9646   -7.0273   -3.4645 N   0  0  0  0  0  0  0  0  0  0  0  0
    4.5312   -9.9829   -4.4788 C   0  0  0  0  0  0  0  0  0  0  0  0
    4.8756  -11.0878   -4.5193 N   0  0  0  0  0  0  0  0  0  0  0  0
   -3.2303    6.4741    4.5371 H   0  0  0  0  0  0  0  0  0  0  0  0
   -3.2780    5.7868    9.4790 H   0  0  0  0  0  0  0  0  0  0  0  0
   -2.3883    4.4186   10.0961 H   0  0  0  0  0  0  0  0  0  0  0  0
   -0.2116    5.7837    9.7984 H   0  0  0  0  0  0  0  0  0  0  0  0
   -1.4013    6.5526   10.9199 H   0  0  0  0  0  0  0  0  0  0  0  0
   -1.2228    7.1622    9.2329 H   0  0  0  0  0  0  0  0  0  0  0  0
   -1.5270    7.7957    3.2643 H   0  0  0  0  0  0  0  0  0  0  0  0
   -0.7877    7.8295    1.6336 H   0  0  0  0  0  0  0  0  0  0  0  0
   -2.9174    9.1384    1.7196 H   0  0  0  0  0  0  0  0  0  0  0  0
   -3.8164    7.6474    2.2050 H   0  0  0  0  0  0  0  0  0  0  0  0
   -3.0316    7.7524    0.5686 H   0  0  0  0  0  0  0  0  0  0  0  0
    2.8653   -4.7576   -6.7162 H   0  0  0  0  0  0  0  0  0  0  0  0
    2.5129   -3.0670   -7.1841 H   0  0  0  0  0  0  0  0  0  0  0  0
    4.5108   -2.2903   -5.8552 H   0  0  0  0  0  0  0  0  0  0  0  0
    4.8609   -4.0024   -5.3933 H   0  0  0  0  0  0  0  0  0  0  0  0
    4.9583   -3.4850   -7.1204 H   0  0  0  0  0  0  0  0  0  0  0  0
   -1.9470   -0.1039   -0.1984 H   0  0  0  0  0  0  0  0  0  0  0  0
   -2.0229    0.8061    1.3480 H   0  0  0  0  0  0  0  0  0  0  0  0
   -4.2117    0.6315    0.0580 H   0  0  0  0  0  0  0  0  0  0  0  0
   -3.4729    1.6136   -1.2592 H   0  0  0  0  0  0  0  0  0  0  0  0
   -3.7142    2.3277    0.3824 H   0  0  0  0  0  0  0  0  0  0  0  0
    0.1491   -0.5035    0.1724 H   0  0  0  0  0  0  0  0  0  0  0  0
    0.3166   -2.1265   -0.5461 H   0  0  0  0  0  0  0  0  0  0  0  0
    2.4636   -1.2337    0.3676 H   0  0  0  0  0  0  0  0  0  0  0  0
    2.3419    0.2146   -0.7060 H   0  0  0  0  0  0  0  0  0  0  0  0
    2.5998   -1.4308   -1.4138 H   0  0  0  0  0  0  0  0  0  0  0  0
    3.6696   -5.8115   -3.3913 H   0  0  0  0  0  0  0  0  0  0  0  0
   -1.2127   -8.0156   -6.6740 H   0  0  0  0  0  0  0  0  0  0  0  0
    0.7907  -11.7985   -7.1295 H   0  0  0  0  0  0  0  0  0  0  0  0
    2.7473  -10.9364   -5.9448 H   0  0  0  0  0  0  0  0  0  0  0  0
  1  2  2  3
  2  3  1  0
  3  4  1  0
  4  5  2  3
  5  6  1  0
  6  7  3  0
  5  8  1  0
  8  9  3  0
  4 10  1  0
 10 11  1  0
 11 12  1  0
 10 13  1  0
 13 14  2  0
  1 15  1  0
 15 16  2  0
 16 17  1  0
 17 18  1  0
 16 19  1  0
 19 20  1  0
 20 21  1  0
 21 22  1  0
 22 23  1  0
 23 24  1  0
 24 25  2  0
 25 26  1  0
 26 27  1  0
 24 28  1  0
 28 29  1  0
 29 30  1  0
 30 31  1  0
 31 32  1  0
 32 33  1  0
 33 34  1  0
 32 35  2  0
 35 36  1  0
 36 37  1  0
 37 38  1  0
 38 39  1  0
 39 40  1  0
 40 41  1  0
 41 42  1  0
 42 43  1  0
 43 44  1  0
 44 45  1  0
 42 46  1  0
 46 47  1  0
 39 48  1  0
 48 49  1  0
 35 50  1  0
 50 51  2  3
 51 52  1  0
 52 53  2  0
 52 54  1  0
 54 55  2  0
 55 56  1  0
 56 57  1  0
 56 58  2  0
 58 59  1  0
 59 60  2  0
 60 61  1  0
 61 62  2  3
 62 63  1  0
 63 64  3  0
 62 65  1  0
 65 66  3  0
 13  2  1  0
 45 15  1  0
 61 51  1  0
 44 19  2  0
 60 54  1  0
 43 21  2  0
 41 22  2  0
 27 23  2  0
 40 28  2  0
 38 29  2  0
 37 31  2  0
  1 67  1  0
 11 68  1  0
 11 69  1  0
 12 70  1  0
 12 71  1  0
 12 72  1  0
 17 73  1  0
 17 74  1  0
 18 75  1  0
 18 76  1  0
 18 77  1  0
 33 78  1  0
 33 79  1  0
 34 80  1  0
 34 81  1  0
 34 82  1  0
 46 83  1  0
 46 84  1  0
 47 85  1  0
 47 86  1  0
 47 87  1  0
 48 88  1  0
 48 89  1  0
 49 90  1  0
 49 91  1  0
 49 92  1  0
 50 93  1  0
 55 94  1  0
 58 95  1  0
 59 96  1  0
M  END

