
     RDKit          3D

102112  0  0  0  0  0  0  0  0999 V2000
   -0.3659   -7.7551    0.9697 C   0  0  0  0  0  0  0  0  0  0  0  0
    0.9526   -7.7318    0.6623 C   0  0  0  0  0  0  0  0  0  0  0  0
    1.6002   -6.5233    0.0938 C   0  0  0  0  0  0  0  0  0  0  0  0
    0.9526   -5.7355   -0.6498 O   0  0  0  0  0  0  0  0  0  0  0  0
    2.9914   -6.2923    0.3477 N   0  0  0  0  0  0  0  0  0  0  0  0
    3.6020   -4.9941    0.0234 C   0  0  0  0  0  0  0  0  0  0  0  0
    4.2142   -5.0194   -1.3741 C   0  0  0  0  0  0  0  0  0  0  0  0
    3.7804   -7.3759    0.8732 C   0  0  0  0  0  0  0  0  0  0  0  0
    5.0075   -7.2015    1.1211 O   0  0  0  0  0  0  0  0  0  0  0  0
    3.1747   -8.7152    1.0833 C   0  0  0  0  0  0  0  0  0  0  0  0
    1.8388   -8.9068    0.9401 C   0  0  0  0  0  0  0  0  0  0  0  0
    1.2209  -10.2815    1.1120 C   0  0  0  0  0  0  0  0  0  0  0  0
    4.0550   -9.8035    1.4485 C   0  0  0  0  0  0  0  0  0  0  0  0
    4.7535  -10.6768    1.7377 N   0  0  0  0  0  0  0  0  0  0  0  0
   -1.2151   -6.5506    0.9594 C   0  0  0  0  0  0  0  0  0  0  0  0
   -2.3343   -6.3342    0.1279 C   0  0  0  0  0  0  0  0  0  0  0  0
   -2.8859   -7.3325   -0.8519 C   0  0  0  0  0  0  0  0  0  0  0  0
   -3.8430   -8.2985   -0.1588 C   0  0  0  0  0  0  0  0  0  0  0  0
   -2.8069   -5.0274    0.2722 C   0  0  0  0  0  0  0  0  0  0  0  0
   -3.9329   -4.0832   -0.6052 S   0  0  0  0  0  0  0  0  0  0  0  0
   -3.4329   -2.6836    0.2168 C   0  0  0  0  0  0  0  0  0  0  0  0
   -3.6182   -1.3288    0.2010 C   0  0  0  0  0  0  0  0  0  0  0  0
   -4.5248   -0.5020   -0.4682 C   0  0  0  0  0  0  0  0  0  0  0  0
   -4.4506    0.9092   -0.2491 C   0  0  0  0  0  0  0  0  0  0  0  0
   -5.3372    1.6820   -0.9226 N   0  0  0  0  0  0  0  0  0  0  0  0
   -6.1749    0.5036   -1.7325 S   0  0  0  0  0  0  0  0  0  0  0  0
   -5.4869   -0.9465   -1.3147 N   0  0  0  0  0  0  0  0  0  0  0  0
   -3.4380    1.4132    0.5819 C   0  0  0  0  0  0  0  0  0  0  0  0
   -2.9386    2.6798    0.7000 C   0  0  0  0  0  0  0  0  0  0  0  0
   -3.1594    4.1486   -0.1255 S   0  0  0  0  0  0  0  0  0  0  0  0
   -1.6049    4.6780    0.3237 C   0  0  0  0  0  0  0  0  0  0  0  0
   -0.8305    5.7857   -0.0260 C   0  0  0  0  0  0  0  0  0  0  0  0
   -1.3238    6.9488   -0.8401 C   0  0  0  0  0  0  0  0  0  0  0  0
   -1.8105    8.0763    0.0599 C   0  0  0  0  0  0  0  0  0  0  0  0
    0.4818    5.6487    0.4617 C   0  0  0  0  0  0  0  0  0  0  0  0
    0.6605    4.1616    1.2680 S   0  0  0  0  0  0  0  0  0  0  0  0
   -0.9364    3.7095    1.0282 C   0  0  0  0  0  0  0  0  0  0  0  0
   -1.6953    2.5669    1.2455 C   0  0  0  0  0  0  0  0  0  0  0  0
   -1.3429    1.2788    1.4941 N   0  0  0  0  0  0  0  0  0  0  0  0
   -2.4790    0.5777    1.1741 C   0  0  0  0  0  0  0  0  0  0  0  0
   -2.6472   -0.8183    1.0747 C   0  0  0  0  0  0  0  0  0  0  0  0
   -1.9673   -1.8175    1.7105 N   0  0  0  0  0  0  0  0  0  0  0  0
   -2.4503   -2.9308    1.1155 C   0  0  0  0  0  0  0  0  0  0  0  0
   -2.1033   -4.2628    1.1685 C   0  0  0  0  0  0  0  0  0  0  0  0
   -0.8416   -5.1313    1.8363 S   0  0  0  0  0  0  0  0  0  0  0  0
   -1.4136   -1.7770    3.0722 C   0  0  0  0  0  0  0  0  0  0  0  0
   -2.4352   -2.2777    4.0864 C   0  0  0  0  0  0  0  0  0  0  0  0
    0.0413    0.7904    1.3673 C   0  0  0  0  0  0  0  0  0  0  0  0
    0.4784    0.7638   -0.0955 C   0  0  0  0  0  0  0  0  0  0  0  0
    1.5937    6.5758    0.2211 C   0  0  0  0  0  0  0  0  0  0  0  0
    2.3046    6.5715   -0.9233 C   0  0  0  0  0  0  0  0  0  0  0  0
    1.9889    5.7724   -2.1128 C   0  0  0  0  0  0  0  0  0  0  0  0
    1.1683    4.8198   -2.1831 O   0  0  0  0  0  0  0  0  0  0  0  0
    2.7242    6.3090   -3.2298 C   0  0  0  0  0  0  0  0  0  0  0  0
    2.6415    5.9332   -4.5674 C   0  0  0  0  0  0  0  0  0  0  0  0
    3.3773    6.6560   -5.5209 C   0  0  0  0  0  0  0  0  0  0  0  0
    3.3068    6.2832   -6.9748 C   0  0  0  0  0  0  0  0  0  0  0  0
    4.1697    7.7503   -5.1031 C   0  0  0  0  0  0  0  0  0  0  0  0
    4.8459    8.4893   -6.0161 F   0  0  0  0  0  0  0  0  0  0  0  0
    4.2365    8.1106   -3.7454 C   0  0  0  0  0  0  0  0  0  0  0  0
    3.5232    7.3557   -2.8019 C   0  0  0  0  0  0  0  0  0  0  0  0
    3.3947    7.5132   -1.3232 C   0  0  0  0  0  0  0  0  0  0  0  0
    4.2481    8.1725   -0.5004 C   0  0  0  0  0  0  0  0  0  0  0  0
    4.1814    8.0515    0.9324 C   0  0  0  0  0  0  0  0  0  0  0  0
    4.1385    7.9506    2.0853 N   0  0  0  0  0  0  0  0  0  0  0  0
    5.3651    8.9377   -0.9919 C   0  0  0  0  0  0  0  0  0  0  0  0
    6.2665    9.5555   -1.3743 N   0  0  0  0  0  0  0  0  0  0  0  0
   -0.8340   -8.6625    1.3284 H   0  0  0  0  0  0  0  0  0  0  0  0
    2.8421   -4.1836    0.0786 H   0  0  0  0  0  0  0  0  0  0  0  0
    4.3900   -4.7458    0.7652 H   0  0  0  0  0  0  0  0  0  0  0  0
    5.0458   -5.7437   -1.4092 H   0  0  0  0  0  0  0  0  0  0  0  0
    4.6050   -4.0142   -1.6340 H   0  0  0  0  0  0  0  0  0  0  0  0
    3.4538   -5.3122   -2.1209 H   0  0  0  0  0  0  0  0  0  0  0  0
    0.8489  -10.3924    2.1489 H   0  0  0  0  0  0  0  0  0  0  0  0
    1.9382  -11.0954    0.8925 H   0  0  0  0  0  0  0  0  0  0  0  0
    0.3787  -10.4155    0.4030 H   0  0  0  0  0  0  0  0  0  0  0  0
   -3.4250   -6.8119   -1.6731 H   0  0  0  0  0  0  0  0  0  0  0  0
   -2.0518   -7.8978   -1.3193 H   0  0  0  0  0  0  0  0  0  0  0  0
   -4.2487   -9.0124   -0.9039 H   0  0  0  0  0  0  0  0  0  0  0  0
   -4.6884   -7.7437    0.3033 H   0  0  0  0  0  0  0  0  0  0  0  0
   -3.3154   -8.8732    0.6298 H   0  0  0  0  0  0  0  0  0  0  0  0
   -2.1574    6.6263   -1.4995 H   0  0  0  0  0  0  0  0  0  0  0  0
   -0.5064    7.3220   -1.4943 H   0  0  0  0  0  0  0  0  0  0  0  0
   -2.1253    8.9363   -0.5663 H   0  0  0  0  0  0  0  0  0  0  0  0
   -0.9970    8.4151    0.7364 H   0  0  0  0  0  0  0  0  0  0  0  0
   -2.6791    7.7296    0.6637 H   0  0  0  0  0  0  0  0  0  0  0  0
   -1.1604   -0.7414    3.3683 H   0  0  0  0  0  0  0  0  0  0  0  0
   -0.4987   -2.4012    3.1270 H   0  0  0  0  0  0  0  0  0  0  0  0
   -3.3637   -1.6746    4.0140 H   0  0  0  0  0  0  0  0  0  0  0  0
   -2.0224   -2.1787    5.1135 H   0  0  0  0  0  0  0  0  0  0  0  0
   -2.6759   -3.3438    3.9016 H   0  0  0  0  0  0  0  0  0  0  0  0
    0.7291    1.4382    1.9499 H   0  0  0  0  0  0  0  0  0  0  0  0
    0.1657   -0.2294    1.7601 H   0  0  0  0  0  0  0  0  0  0  0  0
    1.5015    0.3431   -0.1646 H   0  0  0  0  0  0  0  0  0  0  0  0
   -0.2079    0.1295   -0.6900 H   0  0  0  0  0  0  0  0  0  0  0  0
    0.4840    1.7859   -0.5198 H   0  0  0  0  0  0  0  0  0  0  0  0
    1.7741    7.3135    0.9842 H   0  0  0  0  0  0  0  0  0  0  0  0
    2.0144    5.1032   -4.8582 H   0  0  0  0  0  0  0  0  0  0  0  0
    2.8442    7.1146   -7.5500 H   0  0  0  0  0  0  0  0  0  0  0  0
    2.7022    5.3660   -7.1386 H   0  0  0  0  0  0  0  0  0  0  0  0
    4.3304    6.0932   -7.3645 H   0  0  0  0  0  0  0  0  0  0  0  0
    4.8055    8.9842   -3.4731 H   0  0  0  0  0  0  0  0  0  0  0  0
  1  2  2  3
  2  3  1  0
  3  4  2  0
  3  5  1  0
  5  6  1  0
  6  7  1  0
  5  8  1  0
  8  9  2  0
  8 10  1  0
 10 11  2  0
 11 12  1  0
 10 13  1  0
 13 14  3  0
  1 15  1  0
 15 16  2  0
 16 17  1  0
 17 18  1  0
 16 19  1  0
 19 20  1  0
 20 21  1  0
 21 22  1  0
 22 23  1  0
 23 24  1  0
 24 25  2  0
 25 26  1  0
 26 27  1  0
 24 28  1  0
 28 29  1  0
 29 30  1  0
 30 31  1  0
 31 32  1  0
 32 33  1  0
 33 34  1  0
 32 35  2  0
 35 36  1  0
 36 37  1  0
 37 38  1  0
 38 39  1  0
 39 40  1  0
 40 41  1  0
 41 42  1  0
 42 43  1  0
 43 44  1  0
 44 45  1  0
 42 46  1  0
 46 47  1  0
 39 48  1  0
 48 49  1  0
 35 50  1  0
 50 51  2  3
 51 52  1  0
 52 53  2  0
 52 54  1  0
 54 55  2  0
 55 56  1  0
 56 57  1  0
 56 58  2  0
 58 59  1  0
 58 60  1  0
 60 61  2  0
 61 62  1  0
 62 63  2  3
 63 64  1  0
 64 65  3  0
 63 66  1  0
 66 67  3  0
 11  2  1  0
 45 15  1  0
 62 51  1  0
 44 19  2  0
 61 54  1  0
 43 21  2  0
 41 22  2  0
 27 23  2  0
 40 28  2  0
 38 29  2  0
 37 31  2  0
  1 68  1  0
  6 69  1  0
  6 70  1  0
  7 71  1  0
  7 72  1  0
  7 73  1  0
 12 74  1  0
 12 75  1  0
 12 76  1  0
 17 77  1  0
 17 78  1  0
 18 79  1  0
 18 80  1  0
 18 81  1  0
 33 82  1  0
 33 83  1  0
 34 84  1  0
 34 85  1  0
 34 86  1  0
 46 87  1  0
 46 88  1  0
 47 89  1  0
 47 90  1  0
 47 91  1  0
 48 92  1  0
 48 93  1  0
 49 94  1  0
 49 95  1  0
 49 96  1  0
 50 97  1  0
 55 98  1  0
 57 99  1  0
 57100  1  0
 57101  1  0
 60102  1  0
M  END

