
     RDKit          3D

105116  0  0  0  0  0  0  0  0999 V2000
    3.6651   -2.7136   -7.7524 C   0  0  0  0  0  0  0  0  0  0  0  0
    4.4913   -3.6798   -7.2577 C   0  0  0  0  0  0  0  0  0  0  0  0
    4.3262   -4.2201   -5.8889 C   0  0  0  0  0  0  0  0  0  0  0  0
    3.1833   -4.2468   -5.3598 O   0  0  0  0  0  0  0  0  0  0  0  0
    5.4378   -4.7988   -5.1998 N   0  0  0  0  0  0  0  0  0  0  0  0
    5.3099   -5.2300   -3.7996 C   0  0  0  0  0  0  0  0  0  0  0  0
    4.9647   -6.7144   -3.7360 C   0  0  0  0  0  0  0  0  0  0  0  0
    6.6394   -5.0908   -5.9406 C   0  0  0  0  0  0  0  0  0  0  0  0
    7.6398   -5.5919   -5.3588 O   0  0  0  0  0  0  0  0  0  0  0  0
    6.7115   -4.7958   -7.3989 C   0  0  0  0  0  0  0  0  0  0  0  0
    5.6921   -4.1659   -8.0393 C   0  0  0  0  0  0  0  0  0  0  0  0
    5.7899   -3.8321   -9.5240 C   0  0  0  0  0  0  0  0  0  0  0  0
    7.9202   -5.1758   -8.0903 C   0  0  0  0  0  0  0  0  0  0  0  0
    8.8931   -5.4895   -8.6309 N   0  0  0  0  0  0  0  0  0  0  0  0
    2.9755   -1.7067   -6.9264 C   0  0  0  0  0  0  0  0  0  0  0  0
    3.3613   -0.3492   -6.9082 C   0  0  0  0  0  0  0  0  0  0  0  0
    4.5798    0.2296   -7.5778 C   0  0  0  0  0  0  0  0  0  0  0  0
    5.8233    0.0305   -6.7171 C   0  0  0  0  0  0  0  0  0  0  0  0
    2.5739    0.3978   -6.0406 C   0  0  0  0  0  0  0  0  0  0  0  0
    2.7204    1.9891   -5.4341 S   0  0  0  0  0  0  0  0  0  0  0  0
    1.4321    1.7130   -4.3647 C   0  0  0  0  0  0  0  0  0  0  0  0
    0.9659    2.2801   -3.2170 C   0  0  0  0  0  0  0  0  0  0  0  0
    1.3823    3.4649   -2.6064 C   0  0  0  0  0  0  0  0  0  0  0  0
    0.9265    3.7471   -1.2979 C   0  0  0  0  0  0  0  0  0  0  0  0
    1.3393    4.9130   -0.7327 N   0  0  0  0  0  0  0  0  0  0  0  0
    2.2804    5.4939   -1.9640 S   0  0  0  0  0  0  0  0  0  0  0  0
    2.2050    4.3762   -3.1837 N   0  0  0  0  0  0  0  0  0  0  0  0
    0.0945    2.8164   -0.6608 C   0  0  0  0  0  0  0  0  0  0  0  0
   -0.5212    2.9001    0.5538 C   0  0  0  0  0  0  0  0  0  0  0  0
   -0.6979    4.0378    1.7982 S   0  0  0  0  0  0  0  0  0  0  0  0
   -1.8992    3.0631    2.5221 C   0  0  0  0  0  0  0  0  0  0  0  0
   -2.7433    3.2598    3.6174 C   0  0  0  0  0  0  0  0  0  0  0  0
   -2.7584    4.5418    4.4167 C   0  0  0  0  0  0  0  0  0  0  0  0
   -3.2434    5.7355    3.5789 C   0  0  0  0  0  0  0  0  0  0  0  0
   -3.6781    2.2122    3.7361 C   0  0  0  0  0  0  0  0  0  0  0  0
   -3.4889    1.1311    2.4478 S   0  0  0  0  0  0  0  0  0  0  0  0
   -2.1522    1.9326    1.7971 C   0  0  0  0  0  0  0  0  0  0  0  0
   -1.3417    1.8395    0.6673 C   0  0  0  0  0  0  0  0  0  0  0  0
   -1.2796    1.0261   -0.4241 N   0  0  0  0  0  0  0  0  0  0  0  0
   -0.3485    1.6191   -1.2654 C   0  0  0  0  0  0  0  0  0  0  0  0
    0.1329    1.3225   -2.5897 C   0  0  0  0  0  0  0  0  0  0  0  0
    0.1239    0.1726   -3.3681 N   0  0  0  0  0  0  0  0  0  0  0  0
    0.9324    0.4579   -4.4268 C   0  0  0  0  0  0  0  0  0  0  0  0
    1.5853   -0.3053   -5.4008 C   0  0  0  0  0  0  0  0  0  0  0  0
    1.6317   -1.9144   -5.9005 S   0  0  0  0  0  0  0  0  0  0  0  0
   -0.3663   -1.1776   -3.0984 C   0  0  0  0  0  0  0  0  0  0  0  0
    0.5022   -1.8829   -2.0492 C   0  0  0  0  0  0  0  0  0  0  0  0
   -2.2080   -0.0808   -0.6409 C   0  0  0  0  0  0  0  0  0  0  0  0
   -3.2839    0.3031   -1.6480 C   0  0  0  0  0  0  0  0  0  0  0  0
   -4.8980    2.3298    4.5364 C   0  0  0  0  0  0  0  0  0  0  0  0
   -4.9217    2.2209    5.8868 C   0  0  0  0  0  0  0  0  0  0  0  0
   -3.9886    1.4141    6.6887 C   0  0  0  0  0  0  0  0  0  0  0  0
   -3.0034    0.7581    6.2610 O   0  0  0  0  0  0  0  0  0  0  0  0
   -4.4415    1.4372    8.0596 C   0  0  0  0  0  0  0  0  0  0  0  0
   -3.9171    0.7772    9.1809 C   0  0  0  0  0  0  0  0  0  0  0  0
   -4.5432    0.9742   10.4289 C   0  0  0  0  0  0  0  0  0  0  0  0
   -4.0608    0.3129   11.5633 C   0  0  0  0  0  0  0  0  0  0  0  0
   -4.6880    0.4944   12.8002 C   0  0  0  0  0  0  0  0  0  0  0  0
   -4.2397   -0.1725   13.8918 F   0  0  0  0  0  0  0  0  0  0  0  0
   -5.7846    1.3525   12.9138 C   0  0  0  0  0  0  0  0  0  0  0  0
   -6.3863    1.5376   14.1210 F   0  0  0  0  0  0  0  0  0  0  0  0
   -6.2788    2.0244   11.7908 C   0  0  0  0  0  0  0  0  0  0  0  0
   -5.6719    1.8332   10.5372 C   0  0  0  0  0  0  0  0  0  0  0  0
   -6.1908    2.4628    9.3759 C   0  0  0  0  0  0  0  0  0  0  0  0
   -5.5639    2.2531    8.1371 C   0  0  0  0  0  0  0  0  0  0  0  0
   -5.9429    2.8491    6.8170 C   0  0  0  0  0  0  0  0  0  0  0  0
   -6.2287    4.1711    6.7512 C   0  0  0  0  0  0  0  0  0  0  0  0
   -6.8083    4.6434    5.5296 C   0  0  0  0  0  0  0  0  0  0  0  0
   -7.2543    5.0422    4.5317 N   0  0  0  0  0  0  0  0  0  0  0  0
   -5.1976    5.0391    7.2971 C   0  0  0  0  0  0  0  0  0  0  0  0
   -4.3363    5.7160    7.7044 N   0  0  0  0  0  0  0  0  0  0  0  0
    3.8101   -2.3994   -8.7738 H   0  0  0  0  0  0  0  0  0  0  0  0
    4.5245   -4.6521   -3.2792 H   0  0  0  0  0  0  0  0  0  0  0  0
    6.2528   -5.0409   -3.2600 H   0  0  0  0  0  0  0  0  0  0  0  0
    4.7084   -6.9912   -2.6967 H   0  0  0  0  0  0  0  0  0  0  0  0
    5.8362   -7.3231   -4.0599 H   0  0  0  0  0  0  0  0  0  0  0  0
    4.1053   -6.9486   -4.4079 H   0  0  0  0  0  0  0  0  0  0  0  0
    4.8672   -4.1512  -10.0475 H   0  0  0  0  0  0  0  0  0  0  0  0
    6.6537   -4.3020  -10.0636 H   0  0  0  0  0  0  0  0  0  0  0  0
    5.9389   -2.7375   -9.6484 H   0  0  0  0  0  0  0  0  0  0  0  0
    4.7460   -0.2179   -8.5844 H   0  0  0  0  0  0  0  0  0  0  0  0
    4.4206    1.3158   -7.7732 H   0  0  0  0  0  0  0  0  0  0  0  0
    5.5790   -0.0627   -5.6389 H   0  0  0  0  0  0  0  0  0  0  0  0
    6.4969    0.9221   -6.8395 H   0  0  0  0  0  0  0  0  0  0  0  0
    6.3788   -0.8849   -7.0504 H   0  0  0  0  0  0  0  0  0  0  0  0
   -3.4195    4.4466    5.3004 H   0  0  0  0  0  0  0  0  0  0  0  0
   -1.7271    4.7339    4.8012 H   0  0  0  0  0  0  0  0  0  0  0  0
   -3.9318    5.4210    2.7514 H   0  0  0  0  0  0  0  0  0  0  0  0
   -2.3682    6.2533    3.1213 H   0  0  0  0  0  0  0  0  0  0  0  0
   -3.7820    6.4636    4.2312 H   0  0  0  0  0  0  0  0  0  0  0  0
   -0.3292   -1.8025   -4.0335 H   0  0  0  0  0  0  0  0  0  0  0  0
   -1.4323   -1.1787   -2.8904 H   0  0  0  0  0  0  0  0  0  0  0  0
    0.0409   -2.8615   -1.7855 H   0  0  0  0  0  0  0  0  0  0  0  0
    0.5884   -1.2664   -1.1313 H   0  0  0  0  0  0  0  0  0  0  0  0
    1.5199   -2.0533   -2.4589 H   0  0  0  0  0  0  0  0  0  0  0  0
   -1.6885   -1.0036   -0.8548 H   0  0  0  0  0  0  0  0  0  0  0  0
   -2.7194   -0.3622    0.3275 H   0  0  0  0  0  0  0  0  0  0  0  0
   -2.8364    0.8193   -2.5260 H   0  0  0  0  0  0  0  0  0  0  0  0
   -4.0261    0.9912   -1.1693 H   0  0  0  0  0  0  0  0  0  0  0  0
   -3.8231   -0.6056   -1.9892 H   0  0  0  0  0  0  0  0  0  0  0  0
   -5.8053    2.6036    3.9779 H   0  0  0  0  0  0  0  0  0  0  0  0
   -3.0452    0.1295    9.0702 H   0  0  0  0  0  0  0  0  0  0  0  0
   -3.2080   -0.3548   11.5051 H   0  0  0  0  0  0  0  0  0  0  0  0
   -7.1433    2.6756   11.8960 H   0  0  0  0  0  0  0  0  0  0  0  0
   -7.0661    3.1160    9.4469 H   0  0  0  0  0  0  0  0  0  0  0  0
  1  2  2  3
  2  3  1  0
  3  4  2  0
  3  5  1  0
  5  6  1  0
  6  7  1  0
  5  8  1  0
  8  9  2  0
  8 10  1  0
 10 11  2  0
 11 12  1  0
 10 13  1  0
 13 14  3  0
  1 15  1  0
 15 16  2  0
 16 17  1  0
 17 18  1  0
 16 19  1  0
 19 20  1  0
 20 21  1  0
 21 22  1  0
 22 23  1  0
 23 24  1  0
 24 25  2  0
 25 26  1  0
 26 27  1  0
 24 28  1  0
 28 29  1  0
 29 30  1  0
 30 31  1  0
 31 32  1  0
 32 33  1  0
 33 34  1  0
 32 35  2  0
 35 36  1  0
 36 37  1  0
 37 38  1  0
 38 39  1  0
 39 40  1  0
 40 41  1  0
 41 42  1  0
 42 43  1  0
 43 44  1  0
 44 45  1  0
 42 46  1  0
 46 47  1  0
 39 48  1  0
 48 49  1  0
 35 50  1  0
 50 51  2  3
 51 52  1  0
 52 53  2  0
 52 54  1  0
 54 55  2  0
 55 56  1  0
 56 57  2  0
 57 58  1  0
 58 59  1  0
 58 60  2  0
 60 61  1  0
 60 62  1  0
 62 63  2  0
 63 64  1  0
 64 65  2  0
 65 66  1  0
 66 67  2  3
 67 68  1  0
 68 69  3  0
 67 70  1  0
 70 71  3  0
 11  2  1  0
 45 15  1  0
 66 51  1  0
 44 19  2  0
 65 54  1  0
 43 21  2  0
 63 56  1  0
 41 22  2  0
 27 23  2  0
 40 28  2  0
 38 29  2  0
 37 31  2  0
  1 72  1  0
  6 73  1  0
  6 74  1  0
  7 75  1  0
  7 76  1  0
  7 77  1  0
 12 78  1  0
 12 79  1  0
 12 80  1  0
 17 81  1  0
 17 82  1  0
 18 83  1  0
 18 84  1  0
 18 85  1  0
 33 86  1  0
 33 87  1  0
 34 88  1  0
 34 89  1  0
 34 90  1  0
 46 91  1  0
 46 92  1  0
 47 93  1  0
 47 94  1  0
 47 95  1  0
 48 96  1  0
 48 97  1  0
 49 98  1  0
 49 99  1  0
 49100  1  0
 50101  1  0
 55102  1  0
 57103  1  0
 62104  1  0
 64105  1  0
M  END

