
     RDKit          3D

121134  0  0  0  0  0  0  0  0999 V2000
    7.9191    0.7658   -4.0778 C   0  0  0  0  0  0  0  0  0  0  0  0
    7.2871    0.4873   -5.2410 C   0  0  0  0  0  0  0  0  0  0  0  0
    7.9983    0.7196   -6.5184 C   0  0  0  0  0  0  0  0  0  0  0  0
    9.2598    0.7589   -6.5478 O   0  0  0  0  0  0  0  0  0  0  0  0
    7.2360    0.9508   -7.7162 N   0  0  0  0  0  0  0  0  0  0  0  0
    7.8982    1.4000   -8.9484 C   0  0  0  0  0  0  0  0  0  0  0  0
    8.0305    2.9188   -8.9525 C   0  0  0  0  0  0  0  0  0  0  0  0
    5.7995    0.8696   -7.6457 C   0  0  0  0  0  0  0  0  0  0  0  0
    5.0960    1.2524   -8.6199 O   0  0  0  0  0  0  0  0  0  0  0  0
    5.1462    0.2884   -6.4498 C   0  0  0  0  0  0  0  0  0  0  0  0
    5.8620    0.0251   -5.3316 C   0  0  0  0  0  0  0  0  0  0  0  0
    5.2751   -0.8690   -4.2573 C   0  0  0  0  0  0  0  0  0  0  0  0
    3.7430   -0.0574   -6.5404 C   0  0  0  0  0  0  0  0  0  0  0  0
    2.6211   -0.3323   -6.6199 N   0  0  0  0  0  0  0  0  0  0  0  0
    7.2435    0.9598   -2.7830 C   0  0  0  0  0  0  0  0  0  0  0  0
    7.6598    0.4159   -1.5538 C   0  0  0  0  0  0  0  0  0  0  0  0
    8.8120   -0.5350   -1.3680 C   0  0  0  0  0  0  0  0  0  0  0  0
    8.3633   -1.9852   -1.5071 C   0  0  0  0  0  0  0  0  0  0  0  0
    6.7979    0.8069   -0.5267 C   0  0  0  0  0  0  0  0  0  0  0  0
    5.7935    1.6621   -0.9028 C   0  0  0  0  0  0  0  0  0  0  0  0
    5.8763    1.9545   -2.5510 S   0  0  0  0  0  0  0  0  0  0  0  0
    4.8987    1.9357    0.1256 C   0  0  0  0  0  0  0  0  0  0  0  0
    5.2171    1.2617    1.2617 C   0  0  0  0  0  0  0  0  0  0  0  0
    6.5907    0.2810    1.0797 S   0  0  0  0  0  0  0  0  0  0  0  0
    4.0912    1.2269    2.0369 C   0  0  0  0  0  0  0  0  0  0  0  0
    3.7458    0.3341    3.0655 C   0  0  0  0  0  0  0  0  0  0  0  0
    4.6603   -0.4891    3.6419 N   0  0  0  0  0  0  0  0  0  0  0  0
    4.3028   -1.3806    4.6090 C   0  0  0  0  0  0  0  0  0  0  0  0
    5.3554   -2.2804    5.1915 C   0  0  0  0  0  0  0  0  0  0  0  0
    2.9495   -1.4559    5.0122 C   0  0  0  0  0  0  0  0  0  0  0  0
    2.4910   -2.4090    6.0754 C   0  0  0  0  0  0  0  0  0  0  0  0
    2.0325   -0.6414    4.4199 N   0  0  0  0  0  0  0  0  0  0  0  0
    2.3935    0.2430    3.4562 C   0  0  0  0  0  0  0  0  0  0  0  0
    1.4606    1.0729    2.8235 C   0  0  0  0  0  0  0  0  0  0  0  0
    0.1184    1.2111    2.9929 C   0  0  0  0  0  0  0  0  0  0  0  0
   -1.1529    0.4820    3.8483 S   0  0  0  0  0  0  0  0  0  0  0  0
   -2.2669    1.5609    3.1321 C   0  0  0  0  0  0  0  0  0  0  0  0
   -3.6607    1.6371    3.1507 C   0  0  0  0  0  0  0  0  0  0  0  0
   -4.5237    0.8029    4.0620 C   0  0  0  0  0  0  0  0  0  0  0  0
   -4.3609    1.2346    5.5166 C   0  0  0  0  0  0  0  0  0  0  0  0
   -4.1136    2.6352    2.2600 C   0  0  0  0  0  0  0  0  0  0  0  0
   -2.7832    3.4314    1.5484 S   0  0  0  0  0  0  0  0  0  0  0  0
   -1.6453    2.4634    2.3037 C   0  0  0  0  0  0  0  0  0  0  0  0
   -0.2827    2.2340    2.2034 C   0  0  0  0  0  0  0  0  0  0  0  0
    0.7295    2.7904    1.4928 N   0  0  0  0  0  0  0  0  0  0  0  0
    0.7727    4.2141    1.1277 C   0  0  0  0  0  0  0  0  0  0  0  0
   -0.0860    4.5222   -0.1074 C   0  0  0  0  0  0  0  0  0  0  0  0
    1.8038    2.0061    1.8370 C   0  0  0  0  0  0  0  0  0  0  0  0
    3.1379    2.0097    1.3581 C   0  0  0  0  0  0  0  0  0  0  0  0
    3.6212    2.3965    0.1302 N   0  0  0  0  0  0  0  0  0  0  0  0
    2.8549    2.6761   -1.0917 C   0  0  0  0  0  0  0  0  0  0  0  0
    2.2009    1.4052   -1.6329 C   0  0  0  0  0  0  0  0  0  0  0  0
   -5.5078    2.9260    1.8911 C   0  0  0  0  0  0  0  0  0  0  0  0
   -6.3806    2.0006    1.4507 C   0  0  0  0  0  0  0  0  0  0  0  0
   -7.8298    2.1858    1.5385 C   0  0  0  0  0  0  0  0  0  0  0  0
   -8.4321    3.2875    1.6612 O   0  0  0  0  0  0  0  0  0  0  0  0
   -8.4559    0.8786    1.5573 C   0  0  0  0  0  0  0  0  0  0  0  0
   -9.8285    0.5824    1.7266 C   0  0  0  0  0  0  0  0  0  0  0  0
  -10.1076   -0.7714    1.7755 C   0  0  0  0  0  0  0  0  0  0  0  0
   -9.0969   -1.7815    1.6840 C   0  0  0  0  0  0  0  0  0  0  0  0
   -7.7524   -1.4986    1.5227 C   0  0  0  0  0  0  0  0  0  0  0  0
   -7.4504   -0.1130    1.4291 C   0  0  0  0  0  0  0  0  0  0  0  0
   -6.1425    0.5526    1.1846 C   0  0  0  0  0  0  0  0  0  0  0  0
   -5.1177    0.0333    0.4632 C   0  0  0  0  0  0  0  0  0  0  0  0
   -5.0188   -1.3693    0.1612 C   0  0  0  0  0  0  0  0  0  0  0  0
   -4.9296   -2.4947   -0.0944 N   0  0  0  0  0  0  0  0  0  0  0  0
   -4.1890    0.8717   -0.2489 C   0  0  0  0  0  0  0  0  0  0  0  0
   -3.4544    1.5296   -0.8527 N   0  0  0  0  0  0  0  0  0  0  0  0
  -10.1331   -2.8568    1.8051 C   0  0  0  0  0  0  0  0  0  0  0  0
  -10.4859   -3.6198    0.4942 C   0  0  0  0  0  0  0  0  0  0  0  0
  -11.7826   -4.3398    0.7718 C   0  0  0  0  0  0  0  0  0  0  0  0
  -12.7301   -3.3977    0.8529 C   0  0  0  0  0  0  0  0  0  0  0  0
  -12.0387   -2.0737    0.6235 C   0  0  0  0  0  0  0  0  0  0  0  0
  -11.0188   -2.5222   -0.4107 C   0  0  0  0  0  0  0  0  0  0  0  0
  -11.1692   -1.8226    1.8904 C   0  0  0  0  0  0  0  0  0  0  0  0
    8.9790    0.9904   -4.0904 H   0  0  0  0  0  0  0  0  0  0  0  0
    8.9082    0.9419   -9.0372 H   0  0  0  0  0  0  0  0  0  0  0  0
    7.3216    1.0732   -9.8424 H   0  0  0  0  0  0  0  0  0  0  0  0
    7.0268    3.3904   -8.9023 H   0  0  0  0  0  0  0  0  0  0  0  0
    8.5300    3.2475   -9.8912 H   0  0  0  0  0  0  0  0  0  0  0  0
    8.6373    3.2548   -8.0863 H   0  0  0  0  0  0  0  0  0  0  0  0
    4.5012   -0.3209   -3.6806 H   0  0  0  0  0  0  0  0  0  0  0  0
    6.0518   -1.2448   -3.5697 H   0  0  0  0  0  0  0  0  0  0  0  0
    4.8100   -1.7639   -4.7191 H   0  0  0  0  0  0  0  0  0  0  0  0
    9.6066   -0.3267   -2.1165 H   0  0  0  0  0  0  0  0  0  0  0  0
    9.2582   -0.3838   -0.3629 H   0  0  0  0  0  0  0  0  0  0  0  0
    7.9651   -2.1716   -2.5254 H   0  0  0  0  0  0  0  0  0  0  0  0
    9.2304   -2.6561   -1.3402 H   0  0  0  0  0  0  0  0  0  0  0  0
    7.5816   -2.2194   -0.7564 H   0  0  0  0  0  0  0  0  0  0  0  0
    6.3627   -1.9897    4.8239 H   0  0  0  0  0  0  0  0  0  0  0  0
    5.1550   -3.3290    4.8804 H   0  0  0  0  0  0  0  0  0  0  0  0
    5.3507   -2.2100    6.2941 H   0  0  0  0  0  0  0  0  0  0  0  0
    1.3976   -2.3109    6.2411 H   0  0  0  0  0  0  0  0  0  0  0  0
    2.7099   -3.4538    5.7713 H   0  0  0  0  0  0  0  0  0  0  0  0
    3.0074   -2.1830    7.0351 H   0  0  0  0  0  0  0  0  0  0  0  0
   -5.5952    0.9026    3.7969 H   0  0  0  0  0  0  0  0  0  0  0  0
   -4.2480   -0.2677    3.9565 H   0  0  0  0  0  0  0  0  0  0  0  0
   -3.3308    1.0448    5.8662 H   0  0  0  0  0  0  0  0  0  0  0  0
   -4.5930    2.3158    5.6247 H   0  0  0  0  0  0  0  0  0  0  0  0
   -5.0629    0.6573    6.1532 H   0  0  0  0  0  0  0  0  0  0  0  0
    0.4120    4.8239    1.9849 H   0  0  0  0  0  0  0  0  0  0  0  0
    1.8232    4.5371    0.9618 H   0  0  0  0  0  0  0  0  0  0  0  0
    0.4842    5.1590   -0.8180 H   0  0  0  0  0  0  0  0  0  0  0  0
   -0.9898    5.0923    0.1814 H   0  0  0  0  0  0  0  0  0  0  0  0
   -0.3889    3.5919   -0.6309 H   0  0  0  0  0  0  0  0  0  0  0  0
    3.5126    3.1172   -1.8651 H   0  0  0  0  0  0  0  0  0  0  0  0
    2.0887    3.4324   -0.9192 H   0  0  0  0  0  0  0  0  0  0  0  0
    2.9798    0.6403   -1.8564 H   0  0  0  0  0  0  0  0  0  0  0  0
    1.6466    1.6420   -2.5634 H   0  0  0  0  0  0  0  0  0  0  0  0
    1.4870    0.9924   -0.8825 H   0  0  0  0  0  0  0  0  0  0  0  0
   -5.8491    3.9443    2.0528 H   0  0  0  0  0  0  0  0  0  0  0  0
  -10.5923    1.3436    1.8136 H   0  0  0  0  0  0  0  0  0  0  0  0
   -7.0198   -2.2880    1.4891 H   0  0  0  0  0  0  0  0  0  0  0  0
  -10.0256   -3.4802    2.7203 H   0  0  0  0  0  0  0  0  0  0  0  0
   -9.6758   -4.2481    0.0714 H   0  0  0  0  0  0  0  0  0  0  0  0
  -11.9449   -5.4116    0.8039 H   0  0  0  0  0  0  0  0  0  0  0  0
  -13.7949   -3.5773    0.9520 H   0  0  0  0  0  0  0  0  0  0  0  0
  -12.7039   -1.2365    0.3206 H   0  0  0  0  0  0  0  0  0  0  0  0
  -10.2661   -1.7493   -0.6800 H   0  0  0  0  0  0  0  0  0  0  0  0
  -11.4807   -2.9069   -1.3514 H   0  0  0  0  0  0  0  0  0  0  0  0
  -11.7179   -1.7950    2.8578 H   0  0  0  0  0  0  0  0  0  0  0  0
  1  2  2  3
  2  3  1  0
  3  4  2  0
  3  5  1  0
  5  6  1  0
  6  7  1  0
  5  8  1  0
  8  9  2  0
  8 10  1  0
 10 11  2  0
 11 12  1  0
 10 13  1  0
 13 14  3  0
  1 15  1  0
 15 16  2  0
 16 17  1  0
 17 18  1  0
 16 19  1  0
 19 20  2  0
 20 21  1  0
 20 22  1  0
 22 23  2  0
 23 24  1  0
 23 25  1  0
 25 26  2  0
 26 27  1  0
 27 28  2  0
 28 29  1  0
 28 30  1  0
 30 31  1  0
 30 32  2  0
 32 33  1  0
 33 34  2  0
 34 35  1  0
 35 36  1  0
 36 37  1  0
 37 38  1  0
 38 39  1  0
 39 40  1  0
 38 41  2  0
 41 42  1  0
 42 43  1  0
 43 44  1  0
 44 45  1  0
 45 46  1  0
 46 47  1  0
 45 48  1  0
 48 49  2  0
 49 50  1  0
 50 51  1  0
 51 52  1  0
 41 53  1  0
 53 54  2  3
 54 55  1  0
 55 56  2  0
 55 57  1  0
 57 58  2  0
 58 59  1  0
 59 60  2  0
 60 61  1  0
 61 62  2  0
 62 63  1  0
 63 64  2  3
 64 65  1  0
 65 66  3  0
 64 67  1  0
 67 68  3  0
 60 69  1  0
 69 70  1  0
 70 71  1  0
 71 72  2  0
 72 73  1  0
 73 74  1  0
 73 75  1  0
 11  2  1  0
 21 15  1  0
 50 22  1  0
 63 54  1  0
 75 69  1  0
 24 19  1  0
 49 25  1  0
 62 57  1  0
 74 70  1  0
 33 26  1  0
 48 34  1  0
 75 59  1  0
 44 35  2  0
 43 37  2  0
  1 76  1  0
  6 77  1  0
  6 78  1  0
  7 79  1  0
  7 80  1  0
  7 81  1  0
 12 82  1  0
 12 83  1  0
 12 84  1  0
 17 85  1  0
 17 86  1  0
 18 87  1  0
 18 88  1  0
 18 89  1  0
 29 90  1  0
 29 91  1  0
 29 92  1  0
 31 93  1  0
 31 94  1  0
 31 95  1  0
 39 96  1  0
 39 97  1  0
 40 98  1  0
 40 99  1  0
 40100  1  0
 46101  1  0
 46102  1  0
 47103  1  0
 47104  1  0
 47105  1  0
 51106  1  0
 51107  1  0
 52108  1  0
 52109  1  0
 52110  1  0
 53111  1  0
 58112  1  0
 61113  1  0
 69114  1  0
 70115  1  0
 71116  1  0
 72117  1  0
 73118  1  0
 74119  1  0
 74120  1  0
 75121  1  0
M  END

