
     RDKit          3D

121133  0  0  0  0  0  0  0  0999 V2000
    6.1239   -2.7219    3.2942 C   0  0  0  0  0  0  0  0  0  0  0  0
    7.0177   -3.2070    2.4103 C   0  0  0  0  0  0  0  0  0  0  0  0
    6.6493   -4.0461    1.2398 C   0  0  0  0  0  0  0  0  0  0  0  0
    5.5522   -4.6685    1.2260 O   0  0  0  0  0  0  0  0  0  0  0  0
    7.5976   -4.2351    0.1682 N   0  0  0  0  0  0  0  0  0  0  0  0
    7.2181   -5.0147   -1.0211 C   0  0  0  0  0  0  0  0  0  0  0  0
    6.5166   -4.1190   -2.0360 C   0  0  0  0  0  0  0  0  0  0  0  0
    8.8742   -3.5603    0.2168 C   0  0  0  0  0  0  0  0  0  0  0  0
    9.7326   -3.7640   -0.6897 O   0  0  0  0  0  0  0  0  0  0  0  0
    9.1668   -2.5671    1.3186 C   0  0  0  0  0  0  0  0  0  0  0  0
   10.6154   -2.3480    1.4968 C   0  0  0  0  0  0  0  0  0  0  0  0
   11.7507   -2.1750    1.6373 N   0  0  0  0  0  0  0  0  0  0  0  0
    8.4930   -2.9822    2.6505 C   0  0  0  0  0  0  0  0  0  0  0  0
    9.1180   -4.2406    3.2795 C   0  0  0  0  0  0  0  0  0  0  0  0
    4.6635   -2.6878    3.0990 C   0  0  0  0  0  0  0  0  0  0  0  0
    3.7209   -2.7823    4.1358 C   0  0  0  0  0  0  0  0  0  0  0  0
    4.0588   -3.0453    5.5448 C   0  0  0  0  0  0  0  0  0  0  0  0
    4.3168   -1.9517    6.3861 C   0  0  0  0  0  0  0  0  0  0  0  0
    4.6574   -2.1548    7.7241 C   0  0  0  0  0  0  0  0  0  0  0  0
    4.7428   -3.4510    8.2348 C   0  0  0  0  0  0  0  0  0  0  0  0
    4.4903   -4.5480    7.4075 C   0  0  0  0  0  0  0  0  0  0  0  0
    4.1595   -4.3630    6.0533 C   0  0  0  0  0  0  0  0  0  0  0  0
    3.8663   -5.5778    5.2013 C   0  0  0  0  0  0  0  0  0  0  0  0
    2.3959   -5.9719    5.3146 C   0  0  0  0  0  0  0  0  0  0  0  0
    2.4336   -2.5016    3.6835 C   0  0  0  0  0  0  0  0  0  0  0  0
    0.9638   -2.2312    4.4955 S   0  0  0  0  0  0  0  0  0  0  0  0
    0.2174   -1.7719    3.0405 C   0  0  0  0  0  0  0  0  0  0  0  0
   -0.8507   -0.9971    2.6952 C   0  0  0  0  0  0  0  0  0  0  0  0
   -1.8239   -0.3934    3.4983 C   0  0  0  0  0  0  0  0  0  0  0  0
   -2.6764    0.5901    2.9217 C   0  0  0  0  0  0  0  0  0  0  0  0
   -3.6021    1.1565    3.7320 N   0  0  0  0  0  0  0  0  0  0  0  0
   -3.2522    0.3701    5.1471 S   0  0  0  0  0  0  0  0  0  0  0  0
   -1.9994   -0.6620    4.8164 N   0  0  0  0  0  0  0  0  0  0  0  0
   -2.5202    0.8994    1.5668 C   0  0  0  0  0  0  0  0  0  0  0  0
   -3.3219    1.6135    0.7256 C   0  0  0  0  0  0  0  0  0  0  0  0
   -4.8087    2.4317    0.7879 S   0  0  0  0  0  0  0  0  0  0  0  0
   -4.8816    2.4630   -0.9146 C   0  0  0  0  0  0  0  0  0  0  0  0
   -5.8248    2.9489   -1.8220 C   0  0  0  0  0  0  0  0  0  0  0  0
   -7.0640    3.6478   -1.4266 C   0  0  0  0  0  0  0  0  0  0  0  0
   -7.0450    4.9804   -0.9399 C   0  0  0  0  0  0  0  0  0  0  0  0
   -5.7710    5.7950   -0.8769 C   0  0  0  0  0  0  0  0  0  0  0  0
   -5.4933    6.4657   -2.2191 C   0  0  0  0  0  0  0  0  0  0  0  0
   -8.2607    5.5936   -0.5863 C   0  0  0  0  0  0  0  0  0  0  0  0
   -9.4678    4.8987   -0.6938 C   0  0  0  0  0  0  0  0  0  0  0  0
   -9.4816    3.5885   -1.1738 C   0  0  0  0  0  0  0  0  0  0  0  0
   -8.2872    2.9653   -1.5357 C   0  0  0  0  0  0  0  0  0  0  0  0
   -5.4479    2.6613   -3.1471 C   0  0  0  0  0  0  0  0  0  0  0  0
   -3.9923    1.7662   -3.1458 S   0  0  0  0  0  0  0  0  0  0  0  0
   -3.8163    1.8101   -1.4801 C   0  0  0  0  0  0  0  0  0  0  0  0
   -2.9142    1.3409   -0.5370 C   0  0  0  0  0  0  0  0  0  0  0  0
   -1.8561    0.4900   -0.5834 N   0  0  0  0  0  0  0  0  0  0  0  0
   -1.5683    0.2656    0.7450 C   0  0  0  0  0  0  0  0  0  0  0  0
   -0.6448   -0.6325    1.3526 C   0  0  0  0  0  0  0  0  0  0  0  0
    0.5894   -1.0631    0.9244 N   0  0  0  0  0  0  0  0  0  0  0  0
    1.0664   -1.7756    1.9793 C   0  0  0  0  0  0  0  0  0  0  0  0
    2.3456   -2.1798    2.3520 C   0  0  0  0  0  0  0  0  0  0  0  0
    3.8784   -2.1864    1.6661 S   0  0  0  0  0  0  0  0  0  0  0  0
    1.4423   -0.4592   -0.1055 C   0  0  0  0  0  0  0  0  0  0  0  0
    1.8326   -1.4915   -1.1675 C   0  0  0  0  0  0  0  0  0  0  0  0
   -1.5451   -0.3622   -1.7403 C   0  0  0  0  0  0  0  0  0  0  0  0
   -2.1631   -1.7486   -1.5812 C   0  0  0  0  0  0  0  0  0  0  0  0
   -6.2772    2.9253   -4.3417 C   0  0  0  0  0  0  0  0  0  0  0  0
   -5.7880    3.2770   -5.5462 C   0  0  0  0  0  0  0  0  0  0  0  0
   -4.4613    3.8549   -5.7918 C   0  0  0  0  0  0  0  0  0  0  0  0
   -3.5615    4.0705   -4.9365 O   0  0  0  0  0  0  0  0  0  0  0  0
   -4.4155    4.3297   -7.1555 C   0  0  0  0  0  0  0  0  0  0  0  0
   -3.3647    4.9835   -7.7989 C   0  0  0  0  0  0  0  0  0  0  0  0
   -3.5594    5.4335   -9.1102 C   0  0  0  0  0  0  0  0  0  0  0  0
   -2.5527    6.0670   -9.7649 F   0  0  0  0  0  0  0  0  0  0  0  0
   -4.7977    5.2344   -9.7488 C   0  0  0  0  0  0  0  0  0  0  0  0
   -4.9866    5.6892  -11.0142 F   0  0  0  0  0  0  0  0  0  0  0  0
   -5.8450    4.5766   -9.0825 C   0  0  0  0  0  0  0  0  0  0  0  0
   -5.6329    4.1046   -7.7730 C   0  0  0  0  0  0  0  0  0  0  0  0
   -6.5400    3.3723   -6.8409 C   0  0  0  0  0  0  0  0  0  0  0  0
   -7.6987    2.7357   -7.1637 C   0  0  0  0  0  0  0  0  0  0  0  0
   -8.2585    2.7587   -8.4921 C   0  0  0  0  0  0  0  0  0  0  0  0
   -8.7233    2.7549   -9.5540 N   0  0  0  0  0  0  0  0  0  0  0  0
   -8.3912    1.8671   -6.2484 C   0  0  0  0  0  0  0  0  0  0  0  0
   -8.9564    1.1650   -5.5218 N   0  0  0  0  0  0  0  0  0  0  0  0
    6.4888   -2.2685    4.2091 H   0  0  0  0  0  0  0  0  0  0  0  0
    6.5435   -5.8522   -0.7384 H   0  0  0  0  0  0  0  0  0  0  0  0
    8.1132   -5.4752   -1.4921 H   0  0  0  0  0  0  0  0  0  0  0  0
    6.2120   -4.7198   -2.9183 H   0  0  0  0  0  0  0  0  0  0  0  0
    7.2015   -3.3115   -2.3716 H   0  0  0  0  0  0  0  0  0  0  0  0
    5.6094   -3.6631   -1.5847 H   0  0  0  0  0  0  0  0  0  0  0  0
    8.7343   -1.5935    1.0021 H   0  0  0  0  0  0  0  0  0  0  0  0
    8.6358   -2.1412    3.3680 H   0  0  0  0  0  0  0  0  0  0  0  0
    8.5541   -4.5314    4.1931 H   0  0  0  0  0  0  0  0  0  0  0  0
    9.1020   -5.0921    2.5682 H   0  0  0  0  0  0  0  0  0  0  0  0
   10.1683   -4.0428    3.5804 H   0  0  0  0  0  0  0  0  0  0  0  0
    4.2577   -0.9395    6.0017 H   0  0  0  0  0  0  0  0  0  0  0  0
    4.8585   -1.3061    8.3660 H   0  0  0  0  0  0  0  0  0  0  0  0
    4.9986   -3.6061    9.2753 H   0  0  0  0  0  0  0  0  0  0  0  0
    4.5504   -5.5463    7.8251 H   0  0  0  0  0  0  0  0  0  0  0  0
    4.4940   -6.4325    5.5323 H   0  0  0  0  0  0  0  0  0  0  0  0
    4.1190   -5.3916    4.1341 H   0  0  0  0  0  0  0  0  0  0  0  0
    2.1407   -6.2106    6.3691 H   0  0  0  0  0  0  0  0  0  0  0  0
    2.2011   -6.8709    4.6908 H   0  0  0  0  0  0  0  0  0  0  0  0
    1.7445   -5.1485    4.9568 H   0  0  0  0  0  0  0  0  0  0  0  0
   -4.9039    5.1647   -0.5932 H   0  0  0  0  0  0  0  0  0  0  0  0
   -5.8592    6.5794   -0.0944 H   0  0  0  0  0  0  0  0  0  0  0  0
   -4.5543    7.0567   -2.1521 H   0  0  0  0  0  0  0  0  0  0  0  0
   -6.3276    7.1515   -2.4846 H   0  0  0  0  0  0  0  0  0  0  0  0
   -5.3799    5.7035   -3.0194 H   0  0  0  0  0  0  0  0  0  0  0  0
   -8.2741    6.6155   -0.2276 H   0  0  0  0  0  0  0  0  0  0  0  0
  -10.3958    5.3802   -0.4146 H   0  0  0  0  0  0  0  0  0  0  0  0
  -10.4195    3.0548   -1.2627 H   0  0  0  0  0  0  0  0  0  0  0  0
   -8.3136    1.9457   -1.9055 H   0  0  0  0  0  0  0  0  0  0  0  0
    0.9470    0.4211   -0.5614 H   0  0  0  0  0  0  0  0  0  0  0  0
    2.3637   -0.0520    0.3629 H   0  0  0  0  0  0  0  0  0  0  0  0
    2.2458   -0.9704   -2.0567 H   0  0  0  0  0  0  0  0  0  0  0  0
    0.9579   -2.1025   -1.4736 H   0  0  0  0  0  0  0  0  0  0  0  0
    2.6044   -2.1838   -0.7815 H   0  0  0  0  0  0  0  0  0  0  0  0
   -0.4698   -0.4424   -1.9099 H   0  0  0  0  0  0  0  0  0  0  0  0
   -1.9315    0.0901   -2.6727 H   0  0  0  0  0  0  0  0  0  0  0  0
   -3.2649   -1.6614   -1.4644 H   0  0  0  0  0  0  0  0  0  0  0  0
   -1.9469   -2.3594   -2.4814 H   0  0  0  0  0  0  0  0  0  0  0  0
   -1.7439   -2.2629   -0.6941 H   0  0  0  0  0  0  0  0  0  0  0  0
   -7.3393    2.8115   -4.2070 H   0  0  0  0  0  0  0  0  0  0  0  0
   -2.4214    5.1404   -7.2977 H   0  0  0  0  0  0  0  0  0  0  0  0
   -6.7911    4.4808   -9.5875 H   0  0  0  0  0  0  0  0  0  0  0  0
  1  2  2  3
  2  3  1  0
  3  4  2  0
  3  5  1  0
  5  6  1  0
  6  7  1  0
  5  8  1  0
  8  9  2  0
  8 10  1  0
 10 11  1  0
 11 12  3  0
 10 13  1  0
 13 14  1  0
  1 15  1  0
 15 16  2  0
 16 17  1  0
 17 18  2  0
 18 19  1  0
 19 20  2  0
 20 21  1  0
 21 22  2  0
 22 23  1  0
 23 24  1  0
 16 25  1  0
 25 26  1  0
 26 27  1  0
 27 28  1  0
 28 29  1  0
 29 30  1  0
 30 31  2  0
 31 32  1  0
 32 33  1  0
 30 34  1  0
 34 35  1  0
 35 36  1  0
 36 37  1  0
 37 38  1  0
 38 39  1  0
 39 40  2  0
 40 41  1  0
 41 42  1  0
 40 43  1  0
 43 44  2  0
 44 45  1  0
 45 46  2  0
 38 47  2  0
 47 48  1  0
 48 49  1  0
 49 50  1  0
 50 51  1  0
 51 52  1  0
 52 53  1  0
 53 54  1  0
 54 55  1  0
 55 56  1  0
 56 57  1  0
 54 58  1  0
 58 59  1  0
 51 60  1  0
 60 61  1  0
 47 62  1  0
 62 63  2  3
 63 64  1  0
 64 65  2  0
 64 66  1  0
 66 67  2  0
 67 68  1  0
 68 69  1  0
 68 70  2  0
 70 71  1  0
 70 72  1  0
 72 73  2  0
 73 74  1  0
 74 75  2  3
 75 76  1  0
 76 77  3  0
 75 78  1  0
 78 79  3  0
 13  2  1  0
 57 15  1  0
 74 63  1  0
 22 17  1  0
 56 25  2  0
 73 66  1  0
 55 27  2  0
 53 28  2  0
 33 29  2  0
 52 34  2  0
 50 35  2  0
 49 37  2  0
 46 39  1  0
  1 80  1  0
  6 81  1  0
  6 82  1  0
  7 83  1  0
  7 84  1  0
  7 85  1  0
 10 86  1  0
 13 87  1  0
 14 88  1  0
 14 89  1  0
 14 90  1  0
 18 91  1  0
 19 92  1  0
 20 93  1  0
 21 94  1  0
 23 95  1  0
 23 96  1  0
 24 97  1  0
 24 98  1  0
 24 99  1  0
 41100  1  0
 41101  1  0
 42102  1  0
 42103  1  0
 42104  1  0
 43105  1  0
 44106  1  0
 45107  1  0
 46108  1  0
 58109  1  0
 58110  1  0
 59111  1  0
 59112  1  0
 59113  1  0
 60114  1  0
 60115  1  0
 61116  1  0
 61117  1  0
 61118  1  0
 62119  1  0
 67120  1  0
 72121  1  0
M  END

