
     RDKit          3D

134149  0  0  0  0  0  0  0  0999 V2000
   -5.9781    4.3669   -2.9165 C   0  0  0  0  0  0  0  0  0  0  0  0
   -5.3454    4.6066   -4.0915 C   0  0  0  0  0  0  0  0  0  0  0  0
   -4.4597    3.6228   -4.7812 C   0  0  0  0  0  0  0  0  0  0  0  0
   -4.0303    2.5929   -4.1948 O   0  0  0  0  0  0  0  0  0  0  0  0
   -4.0806    3.8666   -6.1500 N   0  0  0  0  0  0  0  0  0  0  0  0
   -2.7831    3.4139   -6.6661 C   0  0  0  0  0  0  0  0  0  0  0  0
   -2.8991    2.7462   -8.0372 C   0  0  0  0  0  0  0  0  0  0  0  0
   -4.9617    4.6996   -6.9135 C   0  0  0  0  0  0  0  0  0  0  0  0
   -5.3914    4.2980   -8.0331 O   0  0  0  0  0  0  0  0  0  0  0  0
   -5.6038    5.9062   -6.2855 C   0  0  0  0  0  0  0  0  0  0  0  0
   -5.1261    7.1102   -6.9985 C   0  0  0  0  0  0  0  0  0  0  0  0
   -4.7536    8.0595   -7.5622 N   0  0  0  0  0  0  0  0  0  0  0  0
   -5.4405    5.9846   -4.7272 C   0  0  0  0  0  0  0  0  0  0  0  0
   -4.2149    6.8074   -4.2815 C   0  0  0  0  0  0  0  0  0  0  0  0
   -5.7073    3.1921   -2.0732 C   0  0  0  0  0  0  0  0  0  0  0  0
   -6.5625    2.0959   -1.8228 C   0  0  0  0  0  0  0  0  0  0  0  0
   -7.9965    2.0257   -2.1656 C   0  0  0  0  0  0  0  0  0  0  0  0
   -8.9078    2.1337   -1.1014 C   0  0  0  0  0  0  0  0  0  0  0  0
  -10.2845    2.0572   -1.3274 C   0  0  0  0  0  0  0  0  0  0  0  0
  -10.7690    1.8713   -2.6192 C   0  0  0  0  0  0  0  0  0  0  0  0
   -9.8812    1.7530   -3.6913 C   0  0  0  0  0  0  0  0  0  0  0  0
   -8.4879    1.8222   -3.4868 C   0  0  0  0  0  0  0  0  0  0  0  0
   -7.5811    1.6340   -4.6761 C   0  0  0  0  0  0  0  0  0  0  0  0
   -7.7230    2.7841   -5.6712 C   0  0  0  0  0  0  0  0  0  0  0  0
   -5.9074    1.1319   -1.0523 C   0  0  0  0  0  0  0  0  0  0  0  0
   -6.2682   -0.4802   -0.6376 S   0  0  0  0  0  0  0  0  0  0  0  0
   -4.7289   -0.6761    0.0827 C   0  0  0  0  0  0  0  0  0  0  0  0
   -3.8591   -1.7216    0.3087 C   0  0  0  0  0  0  0  0  0  0  0  0
   -4.0138   -3.1127    0.1308 C   0  0  0  0  0  0  0  0  0  0  0  0
   -2.8452   -3.9427    0.0909 C   0  0  0  0  0  0  0  0  0  0  0  0
   -3.0379   -5.2725   -0.1060 N   0  0  0  0  0  0  0  0  0  0  0  0
   -4.6866   -5.2895   -0.2342 S   0  0  0  0  0  0  0  0  0  0  0  0
   -5.2056   -3.7235   -0.0611 N   0  0  0  0  0  0  0  0  0  0  0  0
   -1.5916   -3.3432    0.2688 C   0  0  0  0  0  0  0  0  0  0  0  0
   -0.3073   -3.8301    0.2717 C   0  0  0  0  0  0  0  0  0  0  0  0
    0.5953   -5.2624    0.0371 S   0  0  0  0  0  0  0  0  0  0  0  0
    2.0618   -4.4367    0.3811 C   0  0  0  0  0  0  0  0  0  0  0  0
    3.4144   -4.7892    0.4284 C   0  0  0  0  0  0  0  0  0  0  0  0
    3.9243   -6.1445    0.1493 C   0  0  0  0  0  0  0  0  0  0  0  0
    4.2766   -7.0319    1.1927 C   0  0  0  0  0  0  0  0  0  0  0  0
    4.0496   -6.6816    2.6447 C   0  0  0  0  0  0  0  0  0  0  0  0
    2.6555   -7.1081    3.0967 C   0  0  0  0  0  0  0  0  0  0  0  0
    4.7925   -8.2973    0.8731 C   0  0  0  0  0  0  0  0  0  0  0  0
    4.9780   -8.6775   -0.4601 C   0  0  0  0  0  0  0  0  0  0  0  0
    4.6457   -7.7870   -1.4831 C   0  0  0  0  0  0  0  0  0  0  0  0
    4.1127   -6.5299   -1.1864 C   0  0  0  0  0  0  0  0  0  0  0  0
    4.2307   -3.6782    0.7649 C   0  0  0  0  0  0  0  0  0  0  0  0
    3.2246   -2.3312    1.0674 S   0  0  0  0  0  0  0  0  0  0  0  0
    1.8185   -3.1353    0.6943 C   0  0  0  0  0  0  0  0  0  0  0  0
    0.4916   -2.7874    0.6029 C   0  0  0  0  0  0  0  0  0  0  0  0
   -0.1787   -1.6374    0.8400 N   0  0  0  0  0  0  0  0  0  0  0  0
   -1.4642   -1.9692    0.5345 C   0  0  0  0  0  0  0  0  0  0  0  0
   -2.5945   -1.1319    0.4342 C   0  0  0  0  0  0  0  0  0  0  0  0
   -2.6452    0.2119    0.1562 N   0  0  0  0  0  0  0  0  0  0  0  0
   -3.9678    0.4503   -0.0189 C   0  0  0  0  0  0  0  0  0  0  0  0
   -4.6348    1.4690   -0.6733 C   0  0  0  0  0  0  0  0  0  0  0  0
   -4.2150    2.9666   -1.2865 S   0  0  0  0  0  0  0  0  0  0  0  0
   -1.5673    1.0450   -0.4053 C   0  0  0  0  0  0  0  0  0  0  0  0
   -1.3061    2.2919    0.4484 C   0  0  0  0  0  0  0  0  0  0  0  0
    0.2684   -0.5983    1.7766 C   0  0  0  0  0  0  0  0  0  0  0  0
    0.3757   -1.1571    3.1943 C   0  0  0  0  0  0  0  0  0  0  0  0
    5.6897   -3.7426    1.0462 C   0  0  0  0  0  0  0  0  0  0  0  0
    6.4978   -2.6815    1.2418 C   0  0  0  0  0  0  0  0  0  0  0  0
    6.1613   -1.2650    1.0546 C   0  0  0  0  0  0  0  0  0  0  0  0
    5.4731   -0.7816    0.1159 O   0  0  0  0  0  0  0  0  0  0  0  0
    6.9049   -0.4822    2.0093 C   0  0  0  0  0  0  0  0  0  0  0  0
    6.6999    0.8745    2.3410 C   0  0  0  0  0  0  0  0  0  0  0  0
    7.4775    1.3010    3.4028 C   0  0  0  0  0  0  0  0  0  0  0  0
    8.4084    0.4567    4.0908 C   0  0  0  0  0  0  0  0  0  0  0  0
    8.6107   -0.8768    3.7654 C   0  0  0  0  0  0  0  0  0  0  0  0
    7.8259   -1.3316    2.6708 C   0  0  0  0  0  0  0  0  0  0  0  0
    7.7220   -2.6993    2.0861 C   0  0  0  0  0  0  0  0  0  0  0  0
    8.6848   -3.6574    2.0926 C   0  0  0  0  0  0  0  0  0  0  0  0
    8.6333   -4.7443    1.1492 C   0  0  0  0  0  0  0  0  0  0  0  0
    8.5922   -5.5867    0.3606 N   0  0  0  0  0  0  0  0  0  0  0  0
    9.9726   -3.4298    2.6959 C   0  0  0  0  0  0  0  0  0  0  0  0
   11.0183   -3.2354    3.1588 N   0  0  0  0  0  0  0  0  0  0  0  0
    8.7238    1.5604    5.0557 C   0  0  0  0  0  0  0  0  0  0  0  0
    8.1409    1.4593    6.4994 C   0  0  0  0  0  0  0  0  0  0  0  0
    6.8451    0.6859    6.4833 C   0  0  0  0  0  0  0  0  0  0  0  0
    5.9580    1.4524    5.8423 C   0  0  0  0  0  0  0  0  0  0  0  0
    6.6786    2.7196    5.4468 C   0  0  0  0  0  0  0  0  0  0  0  0
    7.5760    2.8629    6.6612 C   0  0  0  0  0  0  0  0  0  0  0  0
    7.7594    2.4176    4.3604 C   0  0  0  0  0  0  0  0  0  0  0  0
   -6.6307    5.1270   -2.4978 H   0  0  0  0  0  0  0  0  0  0  0  0
   -2.0900    4.2844   -6.7360 H   0  0  0  0  0  0  0  0  0  0  0  0
   -2.3345    2.6724   -5.9746 H   0  0  0  0  0  0  0  0  0  0  0  0
   -3.6685    1.9410   -8.0105 H   0  0  0  0  0  0  0  0  0  0  0  0
   -3.1545    3.4908   -8.8177 H   0  0  0  0  0  0  0  0  0  0  0  0
   -1.9265    2.2911   -8.3087 H   0  0  0  0  0  0  0  0  0  0  0  0
   -6.6988    5.8363   -6.4835 H   0  0  0  0  0  0  0  0  0  0  0  0
   -6.3411    6.5146   -4.3411 H   0  0  0  0  0  0  0  0  0  0  0  0
   -4.3336    7.8708   -4.5822 H   0  0  0  0  0  0  0  0  0  0  0  0
   -3.2890    6.4036   -4.7408 H   0  0  0  0  0  0  0  0  0  0  0  0
   -4.1161    6.7888   -3.1759 H   0  0  0  0  0  0  0  0  0  0  0  0
   -8.5561    2.2807   -0.0893 H   0  0  0  0  0  0  0  0  0  0  0  0
  -10.9723    2.1419   -0.4968 H   0  0  0  0  0  0  0  0  0  0  0  0
  -11.8361    1.8149   -2.7954 H   0  0  0  0  0  0  0  0  0  0  0  0
  -10.2884    1.5944   -4.6843 H   0  0  0  0  0  0  0  0  0  0  0  0
   -7.8477    0.6833   -5.1938 H   0  0  0  0  0  0  0  0  0  0  0  0
   -6.5198    1.5423   -4.3663 H   0  0  0  0  0  0  0  0  0  0  0  0
   -6.9126    2.7148   -6.4227 H   0  0  0  0  0  0  0  0  0  0  0  0
   -8.6973    2.7202   -6.1936 H   0  0  0  0  0  0  0  0  0  0  0  0
   -7.6665    3.7658   -5.1564 H   0  0  0  0  0  0  0  0  0  0  0  0
    4.1756   -5.5973    2.8343 H   0  0  0  0  0  0  0  0  0  0  0  0
    4.8012   -7.2005    3.2843 H   0  0  0  0  0  0  0  0  0  0  0  0
    1.8772   -6.5578    2.5251 H   0  0  0  0  0  0  0  0  0  0  0  0
    2.5143   -8.1965    2.9362 H   0  0  0  0  0  0  0  0  0  0  0  0
    2.5220   -6.8880    4.1767 H   0  0  0  0  0  0  0  0  0  0  0  0
    5.0481   -8.9931    1.6587 H   0  0  0  0  0  0  0  0  0  0  0  0
    5.3929   -9.6532   -0.6949 H   0  0  0  0  0  0  0  0  0  0  0  0
    4.8010   -8.0689   -2.5145 H   0  0  0  0  0  0  0  0  0  0  0  0
    3.8511   -5.8550   -1.9971 H   0  0  0  0  0  0  0  0  0  0  0  0
   -1.8368    1.3503   -1.4389 H   0  0  0  0  0  0  0  0  0  0  0  0
   -0.6348    0.4660   -0.5177 H   0  0  0  0  0  0  0  0  0  0  0  0
   -1.6797    3.2028   -0.0605 H   0  0  0  0  0  0  0  0  0  0  0  0
   -1.8117    2.2182    1.4393 H   0  0  0  0  0  0  0  0  0  0  0  0
   -0.2171    2.4136    0.6183 H   0  0  0  0  0  0  0  0  0  0  0  0
    1.2359   -0.1722    1.4452 H   0  0  0  0  0  0  0  0  0  0  0  0
   -0.4631    0.2183    1.8294 H   0  0  0  0  0  0  0  0  0  0  0  0
    0.7461   -0.3740    3.8836 H   0  0  0  0  0  0  0  0  0  0  0  0
    1.0783   -2.0139    3.2219 H   0  0  0  0  0  0  0  0  0  0  0  0
   -0.6222   -1.4995    3.5495 H   0  0  0  0  0  0  0  0  0  0  0  0
    6.0658   -4.7247    1.3034 H   0  0  0  0  0  0  0  0  0  0  0  0
    5.9593    1.5082    1.8675 H   0  0  0  0  0  0  0  0  0  0  0  0
    9.2527   -1.5171    4.3565 H   0  0  0  0  0  0  0  0  0  0  0  0
    9.7703    1.9346    4.9976 H   0  0  0  0  0  0  0  0  0  0  0  0
    8.8628    1.1436    7.2821 H   0  0  0  0  0  0  0  0  0  0  0  0
    6.6542   -0.2904    6.9227 H   0  0  0  0  0  0  0  0  0  0  0  0
    4.9207    1.1962    5.6490 H   0  0  0  0  0  0  0  0  0  0  0  0
    6.0222    3.5861    5.2351 H   0  0  0  0  0  0  0  0  0  0  0  0
    7.0209    3.0156    7.6143 H   0  0  0  0  0  0  0  0  0  0  0  0
    8.3425    3.6686    6.5611 H   0  0  0  0  0  0  0  0  0  0  0  0
    8.2055    3.3208    3.8862 H   0  0  0  0  0  0  0  0  0  0  0  0
  1  2  2  3
  2  3  1  0
  3  4  2  0
  3  5  1  0
  5  6  1  0
  6  7  1  0
  5  8  1  0
  8  9  2  0
  8 10  1  0
 10 11  1  0
 11 12  3  0
 10 13  1  0
 13 14  1  0
  1 15  1  0
 15 16  2  0
 16 17  1  0
 17 18  2  0
 18 19  1  0
 19 20  2  0
 20 21  1  0
 21 22  2  0
 22 23  1  0
 23 24  1  0
 16 25  1  0
 25 26  1  0
 26 27  1  0
 27 28  1  0
 28 29  1  0
 29 30  1  0
 30 31  2  0
 31 32  1  0
 32 33  1  0
 30 34  1  0
 34 35  1  0
 35 36  1  0
 36 37  1  0
 37 38  1  0
 38 39  1  0
 39 40  2  0
 40 41  1  0
 41 42  1  0
 40 43  1  0
 43 44  2  0
 44 45  1  0
 45 46  2  0
 38 47  2  0
 47 48  1  0
 48 49  1  0
 49 50  1  0
 50 51  1  0
 51 52  1  0
 52 53  1  0
 53 54  1  0
 54 55  1  0
 55 56  1  0
 56 57  1  0
 54 58  1  0
 58 59  1  0
 51 60  1  0
 60 61  1  0
 47 62  1  0
 62 63  2  3
 63 64  1  0
 64 65  2  0
 64 66  1  0
 66 67  2  0
 67 68  1  0
 68 69  2  0
 69 70  1  0
 70 71  2  0
 71 72  1  0
 72 73  2  3
 73 74  1  0
 74 75  3  0
 73 76  1  0
 76 77  3  0
 69 78  1  0
 78 79  1  0
 79 80  1  0
 80 81  2  0
 81 82  1  0
 82 83  1  0
 82 84  1  0
 13  2  1  0
 57 15  1  0
 72 63  1  0
 84 78  1  0
 22 17  1  0
 56 25  2  0
 71 66  1  0
 83 79  1  0
 55 27  2  0
 84 68  1  0
 53 28  2  0
 33 29  2  0
 52 34  2  0
 50 35  2  0
 49 37  2  0
 46 39  1  0
  1 85  1  0
  6 86  1  0
  6 87  1  0
  7 88  1  0
  7 89  1  0
  7 90  1  0
 10 91  1  0
 13 92  1  0
 14 93  1  0
 14 94  1  0
 14 95  1  0
 18 96  1  0
 19 97  1  0
 20 98  1  0
 21 99  1  0
 23100  1  0
 23101  1  0
 24102  1  0
 24103  1  0
 24104  1  0
 41105  1  0
 41106  1  0
 42107  1  0
 42108  1  0
 42109  1  0
 43110  1  0
 44111  1  0
 45112  1  0
 46113  1  0
 58114  1  0
 58115  1  0
 59116  1  0
 59117  1  0
 59118  1  0
 60119  1  0
 60120  1  0
 61121  1  0
 61122  1  0
 61123  1  0
 62124  1  0
 67125  1  0
 70126  1  0
 78127  1  0
 79128  1  0
 80129  1  0
 81130  1  0
 82131  1  0
 83132  1  0
 83133  1  0
 84134  1  0
M  END

