
     RDKit          3D

107118  0  0  0  0  0  0  0  0999 V2000
   -3.5594   -6.1606   -3.3711 C   0  0  0  0  0  0  0  0  0  0  0  0
   -3.9764   -5.4900   -4.4712 C   0  0  0  0  0  0  0  0  0  0  0  0
   -3.8810   -4.0195   -4.5833 C   0  0  0  0  0  0  0  0  0  0  0  0
   -4.0365   -3.2932   -3.5625 O   0  0  0  0  0  0  0  0  0  0  0  0
   -3.6809   -3.4221   -5.8780 N   0  0  0  0  0  0  0  0  0  0  0  0
   -3.5759   -1.9608   -6.0062 C   0  0  0  0  0  0  0  0  0  0  0  0
   -4.9531   -1.3507   -6.2333 C   0  0  0  0  0  0  0  0  0  0  0  0
   -3.6619   -4.2576   -7.0561 C   0  0  0  0  0  0  0  0  0  0  0  0
   -3.3932   -3.7470   -8.1796 O   0  0  0  0  0  0  0  0  0  0  0  0
   -3.8779   -5.7564   -6.9617 C   0  0  0  0  0  0  0  0  0  0  0  0
   -4.6076   -6.2191   -8.1585 C   0  0  0  0  0  0  0  0  0  0  0  0
   -5.1785   -6.5819   -9.0982 N   0  0  0  0  0  0  0  0  0  0  0  0
   -4.6358   -6.1619   -5.6700 C   0  0  0  0  0  0  0  0  0  0  0  0
   -4.7634   -7.6970   -5.5558 C   0  0  0  0  0  0  0  0  0  0  0  0
   -2.7789   -5.5634   -2.2693 C   0  0  0  0  0  0  0  0  0  0  0  0
   -2.9624   -5.8473   -0.9013 C   0  0  0  0  0  0  0  0  0  0  0  0
   -4.0870   -6.6666   -0.3307 C   0  0  0  0  0  0  0  0  0  0  0  0
   -5.3623   -5.8367   -0.2390 C   0  0  0  0  0  0  0  0  0  0  0  0
   -2.0350   -5.1541   -0.1230 C   0  0  0  0  0  0  0  0  0  0  0  0
   -1.8151   -4.9812    1.5627 S   0  0  0  0  0  0  0  0  0  0  0  0
   -0.5438   -3.8877    1.2996 C   0  0  0  0  0  0  0  0  0  0  0  0
    0.3384   -3.1301    2.0085 C   0  0  0  0  0  0  0  0  0  0  0  0
    0.5678   -3.0480    3.3807 C   0  0  0  0  0  0  0  0  0  0  0  0
    1.5843   -2.1742    3.8489 C   0  0  0  0  0  0  0  0  0  0  0  0
    1.7668   -2.1068    5.1908 N   0  0  0  0  0  0  0  0  0  0  0  0
    0.6177   -3.1920    5.6835 S   0  0  0  0  0  0  0  0  0  0  0  0
   -0.1221   -3.7508    4.3120 N   0  0  0  0  0  0  0  0  0  0  0  0
    2.2887   -1.4006    2.9211 C   0  0  0  0  0  0  0  0  0  0  0  0
    3.0671   -0.3018    3.1358 C   0  0  0  0  0  0  0  0  0  0  0  0
    3.3999    0.6924    4.4697 S   0  0  0  0  0  0  0  0  0  0  0  0
    3.7643    2.0007    3.4447 C   0  0  0  0  0  0  0  0  0  0  0  0
    3.9827    3.3561    3.6920 C   0  0  0  0  0  0  0  0  0  0  0  0
    4.1534    3.9506    5.0604 C   0  0  0  0  0  0  0  0  0  0  0  0
    5.6164    3.8993    5.4831 C   0  0  0  0  0  0  0  0  0  0  0  0
    3.9659    4.0877    2.4930 C   0  0  0  0  0  0  0  0  0  0  0  0
    3.6541    3.0544    1.1765 S   0  0  0  0  0  0  0  0  0  0  0  0
    3.5781    1.6702    2.1240 C   0  0  0  0  0  0  0  0  0  0  0  0
    3.1821    0.3449    1.9494 C   0  0  0  0  0  0  0  0  0  0  0  0
    2.5573   -0.3106    0.9351 N   0  0  0  0  0  0  0  0  0  0  0  0
    2.0244   -1.4347    1.5355 C   0  0  0  0  0  0  0  0  0  0  0  0
    1.0808   -2.4016    1.0563 C   0  0  0  0  0  0  0  0  0  0  0  0
    0.7306   -2.8027   -0.2179 N   0  0  0  0  0  0  0  0  0  0  0  0
   -0.2912   -3.6692   -0.0072 C   0  0  0  0  0  0  0  0  0  0  0  0
   -1.1347   -4.3992   -0.8304 C   0  0  0  0  0  0  0  0  0  0  0  0
   -1.4420   -4.5150   -2.4727 S   0  0  0  0  0  0  0  0  0  0  0  0
    1.4743   -2.7300   -1.4827 C   0  0  0  0  0  0  0  0  0  0  0  0
    2.9491   -3.0997   -1.3008 C   0  0  0  0  0  0  0  0  0  0  0  0
    2.2729    0.2859   -0.3742 C   0  0  0  0  0  0  0  0  0  0  0  0
    0.8090    0.6994   -0.4955 C   0  0  0  0  0  0  0  0  0  0  0  0
    4.0330    5.5498    2.3842 C   0  0  0  0  0  0  0  0  0  0  0  0
    2.9378    6.3147    2.2115 C   0  0  0  0  0  0  0  0  0  0  0  0
    1.5481    5.8488    2.3199 C   0  0  0  0  0  0  0  0  0  0  0  0
    1.1781    4.6452    2.3302 O   0  0  0  0  0  0  0  0  0  0  0  0
    0.6770    7.0070    2.5022 C   0  0  0  0  0  0  0  0  0  0  0  0
    1.4627    8.1538    2.4612 C   0  0  0  0  0  0  0  0  0  0  0  0
    0.9029    9.4027    2.7714 C   0  0  0  0  0  0  0  0  0  0  0  0
   -0.4676    9.4906    3.0392 C   0  0  0  0  0  0  0  0  0  0  0  0
   -1.2793    8.3416    3.0379 C   0  0  0  0  0  0  0  0  0  0  0  0
   -2.6498    8.4484    3.3217 C   0  0  0  0  0  0  0  0  0  0  0  0
   -3.4560    7.3078    3.3316 C   0  0  0  0  0  0  0  0  0  0  0  0
   -2.9008    6.0556    3.0728 C   0  0  0  0  0  0  0  0  0  0  0  0
   -1.5374    5.9290    2.7916 C   0  0  0  0  0  0  0  0  0  0  0  0
   -0.7084    7.0677    2.7706 C   0  0  0  0  0  0  0  0  0  0  0  0
    2.8809    7.8025    2.1651 C   0  0  0  0  0  0  0  0  0  0  0  0
    3.8426    8.6352    1.6874 C   0  0  0  0  0  0  0  0  0  0  0  0
    5.1075    8.1504    1.2016 C   0  0  0  0  0  0  0  0  0  0  0  0
    6.1264    7.7685    0.8064 N   0  0  0  0  0  0  0  0  0  0  0  0
    3.6197   10.0423    1.4852 C   0  0  0  0  0  0  0  0  0  0  0  0
    3.4521   11.1750    1.3137 N   0  0  0  0  0  0  0  0  0  0  0  0
   -3.7603   -7.2142   -3.2655 H   0  0  0  0  0  0  0  0  0  0  0  0
   -3.1257   -1.5199   -5.0914 H   0  0  0  0  0  0  0  0  0  0  0  0
   -2.9008   -1.6887   -6.8464 H   0  0  0  0  0  0  0  0  0  0  0  0
   -5.4041   -1.7581   -7.1618 H   0  0  0  0  0  0  0  0  0  0  0  0
   -4.8610   -0.2496   -6.3340 H   0  0  0  0  0  0  0  0  0  0  0  0
   -5.6188   -1.5763   -5.3732 H   0  0  0  0  0  0  0  0  0  0  0  0
   -2.8797   -6.2423   -6.9607 H   0  0  0  0  0  0  0  0  0  0  0  0
   -5.6721   -5.7573   -5.7383 H   0  0  0  0  0  0  0  0  0  0  0  0
   -3.7617   -8.1699   -5.4766 H   0  0  0  0  0  0  0  0  0  0  0  0
   -5.3800   -7.9662   -4.6718 H   0  0  0  0  0  0  0  0  0  0  0  0
   -5.2796   -8.1211   -6.4430 H   0  0  0  0  0  0  0  0  0  0  0  0
   -3.8160   -7.0335    0.6831 H   0  0  0  0  0  0  0  0  0  0  0  0
   -4.2717   -7.5560   -0.9681 H   0  0  0  0  0  0  0  0  0  0  0  0
   -5.6674   -5.4855   -1.2492 H   0  0  0  0  0  0  0  0  0  0  0  0
   -5.2028   -4.9593    0.4244 H   0  0  0  0  0  0  0  0  0  0  0  0
   -6.1797   -6.4562    0.1853 H   0  0  0  0  0  0  0  0  0  0  0  0
    3.8075    5.0065    5.0664 H   0  0  0  0  0  0  0  0  0  0  0  0
    3.5339    3.3932    5.7952 H   0  0  0  0  0  0  0  0  0  0  0  0
    5.9553    2.8429    5.5644 H   0  0  0  0  0  0  0  0  0  0  0  0
    6.2505    4.4332    4.7417 H   0  0  0  0  0  0  0  0  0  0  0  0
    5.7336    4.3881    6.4720 H   0  0  0  0  0  0  0  0  0  0  0  0
    1.0702   -3.4683   -2.2035 H   0  0  0  0  0  0  0  0  0  0  0  0
    1.3059   -1.7615   -1.9813 H   0  0  0  0  0  0  0  0  0  0  0  0
    3.0319   -4.1470   -0.9353 H   0  0  0  0  0  0  0  0  0  0  0  0
    3.4746   -3.0204   -2.2757 H   0  0  0  0  0  0  0  0  0  0  0  0
    3.4551   -2.4343   -0.5740 H   0  0  0  0  0  0  0  0  0  0  0  0
    2.8938    1.1848   -0.5335 H   0  0  0  0  0  0  0  0  0  0  0  0
    2.6119   -0.3676   -1.1854 H   0  0  0  0  0  0  0  0  0  0  0  0
    0.5588    1.4327    0.3009 H   0  0  0  0  0  0  0  0  0  0  0  0
    0.6395    1.1698   -1.4861 H   0  0  0  0  0  0  0  0  0  0  0  0
    0.1366   -0.1757   -0.3982 H   0  0  0  0  0  0  0  0  0  0  0  0
    4.9974    6.0003    2.5466 H   0  0  0  0  0  0  0  0  0  0  0  0
    1.4972   10.2989    2.8460 H   0  0  0  0  0  0  0  0  0  0  0  0
   -0.8923   10.4603    3.2681 H   0  0  0  0  0  0  0  0  0  0  0  0
   -3.0979    9.4122    3.5314 H   0  0  0  0  0  0  0  0  0  0  0  0
   -4.5115    7.3961    3.5512 H   0  0  0  0  0  0  0  0  0  0  0  0
   -3.5314    5.1757    3.0814 H   0  0  0  0  0  0  0  0  0  0  0  0
   -1.1555    4.9415    2.5874 H   0  0  0  0  0  0  0  0  0  0  0  0
  1  2  2  3
  2  3  1  0
  3  4  2  0
  3  5  1  0
  5  6  1  0
  6  7  1  0
  5  8  1  0
  8  9  2  0
  8 10  1  0
 10 11  1  0
 11 12  3  0
 10 13  1  0
 13 14  1  0
  1 15  1  0
 15 16  2  0
 16 17  1  0
 17 18  1  0
 16 19  1  0
 19 20  1  0
 20 21  1  0
 21 22  1  0
 22 23  1  0
 23 24  1  0
 24 25  2  0
 25 26  1  0
 26 27  1  0
 24 28  1  0
 28 29  1  0
 29 30  1  0
 30 31  1  0
 31 32  1  0
 32 33  1  0
 33 34  1  0
 32 35  2  0
 35 36  1  0
 36 37  1  0
 37 38  1  0
 38 39  1  0
 39 40  1  0
 40 41  1  0
 41 42  1  0
 42 43  1  0
 43 44  1  0
 44 45  1  0
 42 46  1  0
 46 47  1  0
 39 48  1  0
 48 49  1  0
 35 50  1  0
 50 51  2  3
 51 52  1  0
 52 53  2  0
 52 54  1  0
 54 55  2  0
 55 56  1  0
 56 57  2  0
 57 58  1  0
 58 59  2  0
 59 60  1  0
 60 61  2  0
 61 62  1  0
 62 63  2  0
 55 64  1  0
 64 65  2  3
 65 66  1  0
 66 67  3  0
 65 68  1  0
 68 69  3  0
 13  2  1  0
 45 15  1  0
 64 51  1  0
 44 19  2  0
 63 54  1  0
 43 21  2  0
 63 58  1  0
 41 22  2  0
 27 23  2  0
 40 28  2  0
 38 29  2  0
 37 31  2  0
  1 70  1  0
  6 71  1  0
  6 72  1  0
  7 73  1  0
  7 74  1  0
  7 75  1  0
 10 76  1  0
 13 77  1  0
 14 78  1  0
 14 79  1  0
 14 80  1  0
 17 81  1  0
 17 82  1  0
 18 83  1  0
 18 84  1  0
 18 85  1  0
 33 86  1  0
 33 87  1  0
 34 88  1  0
 34 89  1  0
 34 90  1  0
 46 91  1  0
 46 92  1  0
 47 93  1  0
 47 94  1  0
 47 95  1  0
 48 96  1  0
 48 97  1  0
 49 98  1  0
 49 99  1  0
 49100  1  0
 50101  1  0
 56102  1  0
 57103  1  0
 59104  1  0
 60105  1  0
 61106  1  0
 62107  1  0
M  END

