
     RDKit          3D

104114  0  0  0  0  0  0  0  0999 V2000
    4.5397    3.5263    4.5214 C   0  0  0  0  0  0  0  0  0  0  0  0
    4.0188    4.6436    3.9600 C   0  0  0  0  0  0  0  0  0  0  0  0
    2.6302    4.6891    3.4381 C   0  0  0  0  0  0  0  0  0  0  0  0
    1.7309    3.9593    3.9426 O   0  0  0  0  0  0  0  0  0  0  0  0
    2.3025    5.5964    2.3624 N   0  0  0  0  0  0  0  0  0  0  0  0
    0.9573    5.5624    1.7689 C   0  0  0  0  0  0  0  0  0  0  0  0
    0.8741    4.4648    0.7141 C   0  0  0  0  0  0  0  0  0  0  0  0
    3.3277    6.4497    1.8063 C   0  0  0  0  0  0  0  0  0  0  0  0
    3.0506    7.2553    0.8749 O   0  0  0  0  0  0  0  0  0  0  0  0
    4.7526    6.3531    2.2769 C   0  0  0  0  0  0  0  0  0  0  0  0
    5.4643    5.4049    1.4080 C   0  0  0  0  0  0  0  0  0  0  0  0
    6.0209    4.6523    0.7275 N   0  0  0  0  0  0  0  0  0  0  0  0
    4.8087    5.9277    3.7638 C   0  0  0  0  0  0  0  0  0  0  0  0
    6.2557    5.9133    4.2927 C   0  0  0  0  0  0  0  0  0  0  0  0
    3.8491    2.2264    4.4824 C   0  0  0  0  0  0  0  0  0  0  0  0
    3.0647    1.6997    5.5240 C   0  0  0  0  0  0  0  0  0  0  0  0
    2.9677    2.2933    6.9011 C   0  0  0  0  0  0  0  0  0  0  0  0
    4.2400    2.0299    7.7018 C   0  0  0  0  0  0  0  0  0  0  0  0
    2.2657    0.6545    5.0568 C   0  0  0  0  0  0  0  0  0  0  0  0
    0.8712   -0.1057    5.6900 S   0  0  0  0  0  0  0  0  0  0  0  0
    0.5395   -0.8066    4.1836 C   0  0  0  0  0  0  0  0  0  0  0  0
   -0.4617   -1.4836    3.5536 C   0  0  0  0  0  0  0  0  0  0  0  0
   -1.6171   -2.0791    4.0617 C   0  0  0  0  0  0  0  0  0  0  0  0
   -2.4797   -2.7617    3.1614 C   0  0  0  0  0  0  0  0  0  0  0  0
   -3.5925   -3.3310    3.6874 N   0  0  0  0  0  0  0  0  0  0  0  0
   -3.3824   -2.9377    5.2823 S   0  0  0  0  0  0  0  0  0  0  0  0
   -1.9716   -2.0720    5.3718 N   0  0  0  0  0  0  0  0  0  0  0  0
   -2.1671   -2.7638    1.7985 C   0  0  0  0  0  0  0  0  0  0  0  0
   -2.9015   -3.1820    0.7291 C   0  0  0  0  0  0  0  0  0  0  0  0
   -4.4262   -3.8576    0.4156 S   0  0  0  0  0  0  0  0  0  0  0  0
   -4.2067   -3.6206   -1.2611 C   0  0  0  0  0  0  0  0  0  0  0  0
   -4.9879   -3.9046   -2.3815 C   0  0  0  0  0  0  0  0  0  0  0  0
   -6.3646   -4.5137   -2.3209 C   0  0  0  0  0  0  0  0  0  0  0  0
   -7.4353   -3.4626   -2.5804 C   0  0  0  0  0  0  0  0  0  0  0  0
   -4.3470   -3.4729   -3.5572 C   0  0  0  0  0  0  0  0  0  0  0  0
   -2.8201   -2.8000   -3.1804 S   0  0  0  0  0  0  0  0  0  0  0  0
   -3.0081   -3.0058   -1.5301 C   0  0  0  0  0  0  0  0  0  0  0  0
   -2.2658   -2.7566   -0.3828 C   0  0  0  0  0  0  0  0  0  0  0  0
   -1.1360   -2.0531   -0.1132 N   0  0  0  0  0  0  0  0  0  0  0  0
   -1.0370   -2.1127    1.2647 C   0  0  0  0  0  0  0  0  0  0  0  0
   -0.1137   -1.5149    2.1836 C   0  0  0  0  0  0  0  0  0  0  0  0
    1.1227   -0.9326    2.0020 N   0  0  0  0  0  0  0  0  0  0  0  0
    1.4424   -0.4768    3.2378 C   0  0  0  0  0  0  0  0  0  0  0  0
    2.4369    0.3515    3.7280 C   0  0  0  0  0  0  0  0  0  0  0  0
    3.5398    1.3921    3.0271 S   0  0  0  0  0  0  0  0  0  0  0  0
    2.1188   -1.1038    0.9375 C   0  0  0  0  0  0  0  0  0  0  0  0
    2.3136   -2.5815    0.5937 C   0  0  0  0  0  0  0  0  0  0  0  0
   -0.4929   -1.1414   -1.0676 C   0  0  0  0  0  0  0  0  0  0  0  0
   -0.7047    0.3215   -0.6806 C   0  0  0  0  0  0  0  0  0  0  0  0
   -4.8318   -3.7178   -4.9265 C   0  0  0  0  0  0  0  0  0  0  0  0
   -4.8428   -2.7921   -5.9013 C   0  0  0  0  0  0  0  0  0  0  0  0
   -4.7374   -1.3388   -5.7092 C   0  0  0  0  0  0  0  0  0  0  0  0
   -4.4265   -0.7387   -4.6482 O   0  0  0  0  0  0  0  0  0  0  0  0
   -5.1613   -0.6857   -6.9278 C   0  0  0  0  0  0  0  0  0  0  0  0
   -5.2874    0.6843   -7.1594 C   0  0  0  0  0  0  0  0  0  0  0  0
   -5.8081    1.1141   -8.3903 C   0  0  0  0  0  0  0  0  0  0  0  0
   -5.9437    2.5765   -8.6820 C   0  0  0  0  0  0  0  0  0  0  0  0
   -6.1808    0.1554   -9.3598 C   0  0  0  0  0  0  0  0  0  0  0  0
   -6.6972    0.5530  -10.5507 F   0  0  0  0  0  0  0  0  0  0  0  0
   -6.0563   -1.2172   -9.0972 C   0  0  0  0  0  0  0  0  0  0  0  0
   -5.5136   -1.6346   -7.8699 C   0  0  0  0  0  0  0  0  0  0  0  0
   -5.2537   -2.9978   -7.3264 C   0  0  0  0  0  0  0  0  0  0  0  0
   -5.1958   -4.1592   -8.0309 C   0  0  0  0  0  0  0  0  0  0  0  0
   -5.4929   -4.2332   -9.4395 C   0  0  0  0  0  0  0  0  0  0  0  0
   -5.7241   -4.3096  -10.5722 N   0  0  0  0  0  0  0  0  0  0  0  0
   -4.6928   -5.3843   -7.4603 C   0  0  0  0  0  0  0  0  0  0  0  0
   -4.2841   -6.3685   -7.0035 N   0  0  0  0  0  0  0  0  0  0  0  0
    5.5291    3.5232    4.9541 H   0  0  0  0  0  0  0  0  0  0  0  0
    0.7029    6.5401    1.3066 H   0  0  0  0  0  0  0  0  0  0  0  0
    0.1925    5.3762    2.5581 H   0  0  0  0  0  0  0  0  0  0  0  0
    1.1191    3.4776    1.1611 H   0  0  0  0  0  0  0  0  0  0  0  0
    1.5800    4.6795   -0.1166 H   0  0  0  0  0  0  0  0  0  0  0  0
   -0.1557    4.4226    0.2990 H   0  0  0  0  0  0  0  0  0  0  0  0
    5.2328    7.3505    2.1716 H   0  0  0  0  0  0  0  0  0  0  0  0
    4.2823    6.7116    4.3497 H   0  0  0  0  0  0  0  0  0  0  0  0
    6.2673    5.7432    5.3896 H   0  0  0  0  0  0  0  0  0  0  0  0
    6.7393    6.8933    4.0935 H   0  0  0  0  0  0  0  0  0  0  0  0
    6.8505    5.1257    3.7920 H   0  0  0  0  0  0  0  0  0  0  0  0
    2.1115    1.8475    7.4425 H   0  0  0  0  0  0  0  0  0  0  0  0
    2.7866    3.3863    6.8247 H   0  0  0  0  0  0  0  0  0  0  0  0
    5.1025    2.5349    7.2265 H   0  0  0  0  0  0  0  0  0  0  0  0
    4.1226    2.4355    8.7298 H   0  0  0  0  0  0  0  0  0  0  0  0
    4.4337    0.9386    7.7744 H   0  0  0  0  0  0  0  0  0  0  0  0
   -6.5385   -4.9726   -1.3267 H   0  0  0  0  0  0  0  0  0  0  0  0
   -6.4521   -5.3242   -3.0726 H   0  0  0  0  0  0  0  0  0  0  0  0
   -8.4460   -3.9270   -2.5494 H   0  0  0  0  0  0  0  0  0  0  0  0
   -7.2950   -3.0137   -3.5833 H   0  0  0  0  0  0  0  0  0  0  0  0
   -7.3843   -2.6622   -1.8131 H   0  0  0  0  0  0  0  0  0  0  0  0
    3.1099   -0.7405    1.2821 H   0  0  0  0  0  0  0  0  0  0  0  0
    1.8840   -0.4635    0.0717 H   0  0  0  0  0  0  0  0  0  0  0  0
    1.3791   -3.0384    0.2211 H   0  0  0  0  0  0  0  0  0  0  0  0
    2.6428   -3.1440    1.4944 H   0  0  0  0  0  0  0  0  0  0  0  0
    3.0864   -2.6785   -0.1923 H   0  0  0  0  0  0  0  0  0  0  0  0
   -0.9264   -1.2677   -2.0761 H   0  0  0  0  0  0  0  0  0  0  0  0
    0.5610   -1.4078   -1.2216 H   0  0  0  0  0  0  0  0  0  0  0  0
   -0.2395    0.5524    0.2969 H   0  0  0  0  0  0  0  0  0  0  0  0
   -0.2541    0.9814   -1.4517 H   0  0  0  0  0  0  0  0  0  0  0  0
   -1.7978    0.5403   -0.6127 H   0  0  0  0  0  0  0  0  0  0  0  0
   -5.2395   -4.6977   -5.1140 H   0  0  0  0  0  0  0  0  0  0  0  0
   -4.9957    1.3969   -6.4008 H   0  0  0  0  0  0  0  0  0  0  0  0
   -6.9610    2.7983   -9.0753 H   0  0  0  0  0  0  0  0  0  0  0  0
   -5.7826    3.1899   -7.7728 H   0  0  0  0  0  0  0  0  0  0  0  0
   -5.1860    2.8645   -9.4381 H   0  0  0  0  0  0  0  0  0  0  0  0
   -6.4045   -1.9141   -9.8399 H   0  0  0  0  0  0  0  0  0  0  0  0
  1  2  2  3
  2  3  1  0
  3  4  2  0
  3  5  1  0
  5  6  1  0
  6  7  1  0
  5  8  1  0
  8  9  2  0
  8 10  1  0
 10 11  1  0
 11 12  3  0
 10 13  1  0
 13 14  1  0
  1 15  1  0
 15 16  2  0
 16 17  1  0
 17 18  1  0
 16 19  1  0
 19 20  1  0
 20 21  1  0
 21 22  1  0
 22 23  1  0
 23 24  1  0
 24 25  2  0
 25 26  1  0
 26 27  1  0
 24 28  1  0
 28 29  1  0
 29 30  1  0
 30 31  1  0
 31 32  1  0
 32 33  1  0
 33 34  1  0
 32 35  2  0
 35 36  1  0
 36 37  1  0
 37 38  1  0
 38 39  1  0
 39 40  1  0
 40 41  1  0
 41 42  1  0
 42 43  1  0
 43 44  1  0
 44 45  1  0
 42 46  1  0
 46 47  1  0
 39 48  1  0
 48 49  1  0
 35 50  1  0
 50 51  2  3
 51 52  1  0
 52 53  2  0
 52 54  1  0
 54 55  2  0
 55 56  1  0
 56 57  1  0
 56 58  2  0
 58 59  1  0
 58 60  1  0
 60 61  2  0
 61 62  1  0
 62 63  2  3
 63 64  1  0
 64 65  3  0
 63 66  1  0
 66 67  3  0
 13  2  1  0
 45 15  1  0
 62 51  1  0
 44 19  2  0
 61 54  1  0
 43 21  2  0
 41 22  2  0
 27 23  2  0
 40 28  2  0
 38 29  2  0
 37 31  2  0
  1 68  1  0
  6 69  1  0
  6 70  1  0
  7 71  1  0
  7 72  1  0
  7 73  1  0
 10 74  1  0
 13 75  1  0
 14 76  1  0
 14 77  1  0
 14 78  1  0
 17 79  1  0
 17 80  1  0
 18 81  1  0
 18 82  1  0
 18 83  1  0
 33 84  1  0
 33 85  1  0
 34 86  1  0
 34 87  1  0
 34 88  1  0
 46 89  1  0
 46 90  1  0
 47 91  1  0
 47 92  1  0
 47 93  1  0
 48 94  1  0
 48 95  1  0
 49 96  1  0
 49 97  1  0
 49 98  1  0
 50 99  1  0
 55100  1  0
 57101  1  0
 57102  1  0
 57103  1  0
 60104  1  0
M  END

