
     RDKit          3D

101111  0  0  0  0  0  0  0  0999 V2000
    6.1498   -3.0844   -2.4779 C   0  0  0  0  0  0  0  0  0  0  0  0
    6.7891   -1.9195   -2.7284 C   0  0  0  0  0  0  0  0  0  0  0  0
    6.3724   -0.6116   -2.1508 C   0  0  0  0  0  0  0  0  0  0  0  0
    5.6550   -0.5578   -1.1161 O   0  0  0  0  0  0  0  0  0  0  0  0
    6.8716    0.6098   -2.7275 N   0  0  0  0  0  0  0  0  0  0  0  0
    6.1780    1.8815   -2.4827 C   0  0  0  0  0  0  0  0  0  0  0  0
    6.7110    2.5466   -1.2204 C   0  0  0  0  0  0  0  0  0  0  0  0
    8.1302    0.5735   -3.4158 C   0  0  0  0  0  0  0  0  0  0  0  0
    8.6078    1.6241   -3.9180 O   0  0  0  0  0  0  0  0  0  0  0  0
    8.9070   -0.7200   -3.4495 C   0  0  0  0  0  0  0  0  0  0  0  0
   10.0247   -0.6788   -4.4110 C   0  0  0  0  0  0  0  0  0  0  0  0
   10.9054   -0.6557   -5.1618 N   0  0  0  0  0  0  0  0  0  0  0  0
    7.9537   -1.9216   -3.7111 C   0  0  0  0  0  0  0  0  0  0  0  0
    7.3987   -1.9332   -5.1505 C   0  0  0  0  0  0  0  0  0  0  0  0
    4.8640   -3.2148   -1.7622 C   0  0  0  0  0  0  0  0  0  0  0  0
    4.5629   -4.2068   -0.8052 C   0  0  0  0  0  0  0  0  0  0  0  0
    5.5352   -5.2190   -0.2728 C   0  0  0  0  0  0  0  0  0  0  0  0
    6.3648   -4.6309    0.8634 C   0  0  0  0  0  0  0  0  0  0  0  0
    3.2532   -4.0682   -0.3472 C   0  0  0  0  0  0  0  0  0  0  0  0
    2.3170   -4.8845    0.8276 S   0  0  0  0  0  0  0  0  0  0  0  0
    1.0155   -3.8287    0.5459 C   0  0  0  0  0  0  0  0  0  0  0  0
   -0.3001   -3.6721    0.8890 C   0  0  0  0  0  0  0  0  0  0  0  0
   -1.1758   -4.4548    1.6502 C   0  0  0  0  0  0  0  0  0  0  0  0
   -2.5618   -4.1102    1.6768 C   0  0  0  0  0  0  0  0  0  0  0  0
   -3.3758   -4.8916    2.4317 N   0  0  0  0  0  0  0  0  0  0  0  0
   -2.2709   -5.9929    2.9849 S   0  0  0  0  0  0  0  0  0  0  0  0
   -0.8029   -5.5496    2.3561 N   0  0  0  0  0  0  0  0  0  0  0  0
   -2.9868   -2.9822    0.9616 C   0  0  0  0  0  0  0  0  0  0  0  0
   -4.1695   -2.2974    0.9499 C   0  0  0  0  0  0  0  0  0  0  0  0
   -5.6618   -2.3351    1.7592 S   0  0  0  0  0  0  0  0  0  0  0  0
   -6.0128   -0.7411    1.2331 C   0  0  0  0  0  0  0  0  0  0  0  0
   -7.0640    0.1458    1.4726 C   0  0  0  0  0  0  0  0  0  0  0  0
   -8.2758   -0.1850    2.2969 C   0  0  0  0  0  0  0  0  0  0  0  0
   -8.0483    0.1831    3.7616 C   0  0  0  0  0  0  0  0  0  0  0  0
   -6.7828    1.4133    0.9204 C   0  0  0  0  0  0  0  0  0  0  0  0
   -5.2802    1.3821    0.1088 S   0  0  0  0  0  0  0  0  0  0  0  0
   -4.9781   -0.2132    0.5073 C   0  0  0  0  0  0  0  0  0  0  0  0
   -3.9323   -1.1041    0.3425 C   0  0  0  0  0  0  0  0  0  0  0  0
   -2.6412   -0.9457   -0.0362 N   0  0  0  0  0  0  0  0  0  0  0  0
   -2.0874   -2.1637    0.2630 C   0  0  0  0  0  0  0  0  0  0  0  0
   -0.7459   -2.5763    0.1396 C   0  0  0  0  0  0  0  0  0  0  0  0
    0.2096   -2.1508   -0.7460 N   0  0  0  0  0  0  0  0  0  0  0  0
    1.2818   -2.9094   -0.4131 C   0  0  0  0  0  0  0  0  0  0  0  0
    2.5475   -3.0555   -0.9399 C   0  0  0  0  0  0  0  0  0  0  0  0
    3.4783   -2.2590   -2.0731 S   0  0  0  0  0  0  0  0  0  0  0  0
   -0.0140   -1.5736   -2.0813 C   0  0  0  0  0  0  0  0  0  0  0  0
   -0.1396   -2.6779   -3.1276 C   0  0  0  0  0  0  0  0  0  0  0  0
   -1.9356    0.3490   -0.0257 C   0  0  0  0  0  0  0  0  0  0  0  0
   -1.8646    0.9187    1.3884 C   0  0  0  0  0  0  0  0  0  0  0  0
   -7.6970    2.5682    0.9085 C   0  0  0  0  0  0  0  0  0  0  0  0
   -7.3055    3.8252    1.1877 C   0  0  0  0  0  0  0  0  0  0  0  0
   -5.9687    4.2241    1.6390 C   0  0  0  0  0  0  0  0  0  0  0  0
   -5.1479    3.4954    2.2580 O   0  0  0  0  0  0  0  0  0  0  0  0
   -5.7942    5.6384    1.3642 C   0  0  0  0  0  0  0  0  0  0  0  0
   -4.6384    6.4221    1.4855 C   0  0  0  0  0  0  0  0  0  0  0  0
   -3.1311    5.7641    2.1036 Cl  0  0  0  0  0  0  0  0  0  0  0  0
   -4.6915    7.7585    1.0681 C   0  0  0  0  0  0  0  0  0  0  0  0
   -5.8795    8.2818    0.5306 C   0  0  0  0  0  0  0  0  0  0  0  0
   -7.0278    7.4838    0.4203 C   0  0  0  0  0  0  0  0  0  0  0  0
   -6.9798    6.1508    0.8584 C   0  0  0  0  0  0  0  0  0  0  0  0
   -8.0259    5.0836    0.8408 C   0  0  0  0  0  0  0  0  0  0  0  0
   -9.3700    5.2568    0.7305 C   0  0  0  0  0  0  0  0  0  0  0  0
  -10.3052    4.2001    1.0311 C   0  0  0  0  0  0  0  0  0  0  0  0
  -11.0593    3.3587    1.2847 N   0  0  0  0  0  0  0  0  0  0  0  0
   -9.9700    6.5143    0.3764 C   0  0  0  0  0  0  0  0  0  0  0  0
  -10.4766    7.5114    0.0857 N   0  0  0  0  0  0  0  0  0  0  0  0
    6.5690   -4.0028   -2.8689 H   0  0  0  0  0  0  0  0  0  0  0  0
    5.0910    1.7052   -2.3672 H   0  0  0  0  0  0  0  0  0  0  0  0
    6.3043    2.5654   -3.3467 H   0  0  0  0  0  0  0  0  0  0  0  0
    6.6014    1.8642   -0.3525 H   0  0  0  0  0  0  0  0  0  0  0  0
    7.7810    2.8104   -1.3439 H   0  0  0  0  0  0  0  0  0  0  0  0
    6.1408    3.4752   -1.0052 H   0  0  0  0  0  0  0  0  0  0  0  0
    9.3612   -0.8574   -2.4442 H   0  0  0  0  0  0  0  0  0  0  0  0
    8.5485   -2.8530   -3.5659 H   0  0  0  0  0  0  0  0  0  0  0  0
    6.8416   -0.9973   -5.3625 H   0  0  0  0  0  0  0  0  0  0  0  0
    8.2180   -2.0372   -5.8910 H   0  0  0  0  0  0  0  0  0  0  0  0
    6.7083   -2.7926   -5.2950 H   0  0  0  0  0  0  0  0  0  0  0  0
    6.2053   -5.5638   -1.0870 H   0  0  0  0  0  0  0  0  0  0  0  0
    4.9846   -6.1083    0.0999 H   0  0  0  0  0  0  0  0  0  0  0  0
    6.9572   -3.7656    0.4960 H   0  0  0  0  0  0  0  0  0  0  0  0
    5.7041   -4.3025    1.6980 H   0  0  0  0  0  0  0  0  0  0  0  0
    7.0680   -5.4012    1.2464 H   0  0  0  0  0  0  0  0  0  0  0  0
   -9.1665    0.3627    1.9095 H   0  0  0  0  0  0  0  0  0  0  0  0
   -8.4927   -1.2758    2.2233 H   0  0  0  0  0  0  0  0  0  0  0  0
   -8.9505   -0.0841    4.3538 H   0  0  0  0  0  0  0  0  0  0  0  0
   -7.8570    1.2770    3.8621 H   0  0  0  0  0  0  0  0  0  0  0  0
   -7.1747   -0.3780    4.1676 H   0  0  0  0  0  0  0  0  0  0  0  0
   -0.9535   -0.9928   -2.1332 H   0  0  0  0  0  0  0  0  0  0  0  0
    0.8255   -0.8953   -2.3333 H   0  0  0  0  0  0  0  0  0  0  0  0
   -0.3499   -2.2336   -4.1243 H   0  0  0  0  0  0  0  0  0  0  0  0
   -0.9771   -3.3607   -2.8567 H   0  0  0  0  0  0  0  0  0  0  0  0
    0.8046   -3.2564   -3.1960 H   0  0  0  0  0  0  0  0  0  0  0  0
   -2.4472    1.0653   -0.7030 H   0  0  0  0  0  0  0  0  0  0  0  0
   -0.8941    0.2496   -0.3736 H   0  0  0  0  0  0  0  0  0  0  0  0
   -1.4398    0.1662    2.0871 H   0  0  0  0  0  0  0  0  0  0  0  0
   -2.8735    1.2124    1.7443 H   0  0  0  0  0  0  0  0  0  0  0  0
   -1.2149    1.8229    1.3931 H   0  0  0  0  0  0  0  0  0  0  0  0
   -8.6795    2.3687    0.5279 H   0  0  0  0  0  0  0  0  0  0  0  0
   -3.8104    8.3847    1.1384 H   0  0  0  0  0  0  0  0  0  0  0  0
   -5.9067    9.3086    0.1898 H   0  0  0  0  0  0  0  0  0  0  0  0
   -7.9032    7.9141   -0.0362 H   0  0  0  0  0  0  0  0  0  0  0  0
  1  2  2  3
  2  3  1  0
  3  4  2  0
  3  5  1  0
  5  6  1  0
  6  7  1  0
  5  8  1  0
  8  9  2  0
  8 10  1  0
 10 11  1  0
 11 12  3  0
 10 13  1  0
 13 14  1  0
  1 15  1  0
 15 16  2  0
 16 17  1  0
 17 18  1  0
 16 19  1  0
 19 20  1  0
 20 21  1  0
 21 22  1  0
 22 23  1  0
 23 24  1  0
 24 25  2  0
 25 26  1  0
 26 27  1  0
 24 28  1  0
 28 29  1  0
 29 30  1  0
 30 31  1  0
 31 32  1  0
 32 33  1  0
 33 34  1  0
 32 35  2  0
 35 36  1  0
 36 37  1  0
 37 38  1  0
 38 39  1  0
 39 40  1  0
 40 41  1  0
 41 42  1  0
 42 43  1  0
 43 44  1  0
 44 45  1  0
 42 46  1  0
 46 47  1  0
 39 48  1  0
 48 49  1  0
 35 50  1  0
 50 51  2  3
 51 52  1  0
 52 53  2  0
 52 54  1  0
 54 55  2  0
 55 56  1  0
 55 57  1  0
 57 58  2  0
 58 59  1  0
 59 60  2  0
 60 61  1  0
 61 62  2  3
 62 63  1  0
 63 64  3  0
 62 65  1  0
 65 66  3  0
 13  2  1  0
 45 15  1  0
 61 51  1  0
 44 19  2  0
 60 54  1  0
 43 21  2  0
 41 22  2  0
 27 23  2  0
 40 28  2  0
 38 29  2  0
 37 31  2  0
  1 67  1  0
  6 68  1  0
  6 69  1  0
  7 70  1  0
  7 71  1  0
  7 72  1  0
 10 73  1  0
 13 74  1  0
 14 75  1  0
 14 76  1  0
 14 77  1  0
 17 78  1  0
 17 79  1  0
 18 80  1  0
 18 81  1  0
 18 82  1  0
 33 83  1  0
 33 84  1  0
 34 85  1  0
 34 86  1  0
 34 87  1  0
 46 88  1  0
 46 89  1  0
 47 90  1  0
 47 91  1  0
 47 92  1  0
 48 93  1  0
 48 94  1  0
 49 95  1  0
 49 96  1  0
 49 97  1  0
 50 98  1  0
 57 99  1  0
 58100  1  0
 59101  1  0
M  END

