
     RDKit          3D

142159  0  0  0  0  0  0  0  0999 V2000
   -1.3010    7.4005    1.0192 C   0  0  0  0  0  0  0  0  0  0  0  0
   -2.6028    7.5913    1.3152 C   0  0  0  0  0  0  0  0  0  0  0  0
   -3.6352    6.5325    1.4449 C   0  0  0  0  0  0  0  0  0  0  0  0
   -3.4885    5.2943    1.2635 O   0  0  0  0  0  0  0  0  0  0  0  0
   -4.8968    7.1791    1.7051 C   0  0  0  0  0  0  0  0  0  0  0  0
   -4.7307    8.5264    1.6855 C   0  0  0  0  0  0  0  0  0  0  0  0
   -6.1817    9.3059    2.0810 S   0  0  0  0  0  0  0  0  0  0  0  0
   -7.0300    7.8424    2.2563 C   0  0  0  0  0  0  0  0  0  0  0  0
   -8.3651    7.6629    2.6119 C   0  0  0  0  0  0  0  0  0  0  0  0
   -8.8503    6.3521    2.7403 C   0  0  0  0  0  0  0  0  0  0  0  0
   -7.9997    5.2496    2.5183 C   0  0  0  0  0  0  0  0  0  0  0  0
   -6.6558    5.4462    2.1572 C   0  0  0  0  0  0  0  0  0  0  0  0
   -6.1855    6.7572    2.0240 C   0  0  0  0  0  0  0  0  0  0  0  0
   -3.3269    8.9080    1.4558 C   0  0  0  0  0  0  0  0  0  0  0  0
   -2.8508   10.1768    1.4579 C   0  0  0  0  0  0  0  0  0  0  0  0
   -1.4499   10.4961    1.3817 C   0  0  0  0  0  0  0  0  0  0  0  0
   -0.3259   10.7704    1.3233 N   0  0  0  0  0  0  0  0  0  0  0  0
   -3.7418   11.3066    1.5591 C   0  0  0  0  0  0  0  0  0  0  0  0
   -4.4554   12.2169    1.6330 N   0  0  0  0  0  0  0  0  0  0  0  0
   -0.6182    6.0904    1.0174 C   0  0  0  0  0  0  0  0  0  0  0  0
    0.3646    5.6913    0.0920 C   0  0  0  0  0  0  0  0  0  0  0  0
    0.7271    6.4323   -1.1655 C   0  0  0  0  0  0  0  0  0  0  0  0
   -0.2339    6.0695   -2.2907 C   0  0  0  0  0  0  0  0  0  0  0  0
    0.8616    4.4254    0.4080 C   0  0  0  0  0  0  0  0  0  0  0  0
    2.0105    3.4035   -0.3346 S   0  0  0  0  0  0  0  0  0  0  0  0
    1.7043    2.2010    0.8209 C   0  0  0  0  0  0  0  0  0  0  0  0
    2.1581    0.9650    1.1723 C   0  0  0  0  0  0  0  0  0  0  0  0
    3.2355    0.2138    0.6983 C   0  0  0  0  0  0  0  0  0  0  0  0
    4.0231    0.6435   -0.3182 N   0  0  0  0  0  0  0  0  0  0  0  0
    5.0928   -0.0833   -0.7475 C   0  0  0  0  0  0  0  0  0  0  0  0
    5.9347    0.4885   -1.8183 C   0  0  0  0  0  0  0  0  0  0  0  0
    7.6214    0.4491   -1.8995 S   0  0  0  0  0  0  0  0  0  0  0  0
    7.7500    1.3221   -3.3311 C   0  0  0  0  0  0  0  0  0  0  0  0
    9.0201    1.5344   -4.0963 C   0  0  0  0  0  0  0  0  0  0  0  0
    9.1814    0.4575   -5.1652 C   0  0  0  0  0  0  0  0  0  0  0  0
    6.4720    1.6611   -3.7584 C   0  0  0  0  0  0  0  0  0  0  0  0
    5.4566    1.2186   -2.9028 C   0  0  0  0  0  0  0  0  0  0  0  0
    6.2243    2.3321   -4.9131 F   0  0  0  0  0  0  0  0  0  0  0  0
    5.3681   -1.3294   -0.1259 C   0  0  0  0  0  0  0  0  0  0  0  0
    6.4753   -2.2059   -0.5353 C   0  0  0  0  0  0  0  0  0  0  0  0
    6.7358   -2.6618   -1.8243 C   0  0  0  0  0  0  0  0  0  0  0  0
    7.8848   -3.4570   -1.8975 C   0  0  0  0  0  0  0  0  0  0  0  0
    8.3589   -3.9622   -3.0623 F   0  0  0  0  0  0  0  0  0  0  0  0
    8.5053   -3.6560   -0.6675 C   0  0  0  0  0  0  0  0  0  0  0  0
    9.8116   -4.3484   -0.4375 C   0  0  0  0  0  0  0  0  0  0  0  0
   10.9756   -3.3984   -0.7083 C   0  0  0  0  0  0  0  0  0  0  0  0
    7.6443   -2.8173    0.5102 S   0  0  0  0  0  0  0  0  0  0  0  0
    4.5647   -1.7558    0.8844 N   0  0  0  0  0  0  0  0  0  0  0  0
    3.5128   -1.0170    1.3191 C   0  0  0  0  0  0  0  0  0  0  0  0
    2.6423   -1.4843    2.3200 C   0  0  0  0  0  0  0  0  0  0  0  0
    2.3990   -2.7897    2.6621 C   0  0  0  0  0  0  0  0  0  0  0  0
    2.8068   -4.2314    1.8604 S   0  0  0  0  0  0  0  0  0  0  0  0
    1.3247   -4.9505    2.2466 C   0  0  0  0  0  0  0  0  0  0  0  0
    0.6562   -6.0369    1.6718 C   0  0  0  0  0  0  0  0  0  0  0  0
    1.2910   -7.0241    0.7297 C   0  0  0  0  0  0  0  0  0  0  0  0
    1.6933   -8.2925    1.4740 C   0  0  0  0  0  0  0  0  0  0  0  0
   -0.7110   -6.0068    1.9877 C   0  0  0  0  0  0  0  0  0  0  0  0
   -1.0550   -4.6224    2.9097 S   0  0  0  0  0  0  0  0  0  0  0  0
    0.5321   -4.0782    2.9543 C   0  0  0  0  0  0  0  0  0  0  0  0
    1.1345   -2.8327    3.1798 C   0  0  0  0  0  0  0  0  0  0  0  0
    0.5738   -1.5940    3.2690 N   0  0  0  0  0  0  0  0  0  0  0  0
   -0.8678   -1.3539    3.4190 C   0  0  0  0  0  0  0  0  0  0  0  0
   -1.5560   -1.2051    2.0632 C   0  0  0  0  0  0  0  0  0  0  0  0
    1.5291   -0.7460    2.7617 C   0  0  0  0  0  0  0  0  0  0  0  0
    1.3665    0.5713    2.2598 C   0  0  0  0  0  0  0  0  0  0  0  0
    0.5351    1.5925    2.6560 N   0  0  0  0  0  0  0  0  0  0  0  0
    0.7661    2.5547    1.7279 C   0  0  0  0  0  0  0  0  0  0  0  0
    0.3142    3.8488    1.5238 C   0  0  0  0  0  0  0  0  0  0  0  0
   -0.7866    4.8905    2.2252 S   0  0  0  0  0  0  0  0  0  0  0  0
    0.0278    1.8633    4.0102 C   0  0  0  0  0  0  0  0  0  0  0  0
   -1.4925    2.0722    4.0217 C   0  0  0  0  0  0  0  0  0  0  0  0
   -1.7548   -6.8051    1.3310 C   0  0  0  0  0  0  0  0  0  0  0  0
   -2.4124   -6.3626    0.2385 C   0  0  0  0  0  0  0  0  0  0  0  0
   -2.2130   -5.0553   -0.4031 C   0  0  0  0  0  0  0  0  0  0  0  0
   -1.2022   -4.3117   -0.2911 O   0  0  0  0  0  0  0  0  0  0  0  0
   -3.3769   -4.7536   -1.2054 C   0  0  0  0  0  0  0  0  0  0  0  0
   -3.6618   -3.5379   -1.8677 C   0  0  0  0  0  0  0  0  0  0  0  0
   -4.9159   -3.4989   -2.4481 C   0  0  0  0  0  0  0  0  0  0  0  0
   -5.8463   -4.5843   -2.3739 C   0  0  0  0  0  0  0  0  0  0  0  0
   -5.5718   -5.7797   -1.7301 C   0  0  0  0  0  0  0  0  0  0  0  0
   -4.2721   -5.8530   -1.1516 C   0  0  0  0  0  0  0  0  0  0  0  0
   -3.6445   -6.9517   -0.3648 C   0  0  0  0  0  0  0  0  0  0  0  0
   -3.9768   -8.2676   -0.4076 C   0  0  0  0  0  0  0  0  0  0  0  0
   -3.1391   -9.2870    0.1696 C   0  0  0  0  0  0  0  0  0  0  0  0
   -2.4659  -10.1110    0.6278 N   0  0  0  0  0  0  0  0  0  0  0  0
   -5.0959   -8.7569   -1.1674 C   0  0  0  0  0  0  0  0  0  0  0  0
   -5.9924   -9.1659   -1.7751 N   0  0  0  0  0  0  0  0  0  0  0  0
   -6.8624   -3.7865   -3.1364 C   0  0  0  0  0  0  0  0  0  0  0  0
   -7.1173   -4.1666   -4.6265 C   0  0  0  0  0  0  0  0  0  0  0  0
   -5.8593   -4.7426   -5.2362 C   0  0  0  0  0  0  0  0  0  0  0  0
   -4.9822   -3.7411   -5.3132 C   0  0  0  0  0  0  0  0  0  0  0  0
   -5.6726   -2.5171   -4.7575 C   0  0  0  0  0  0  0  0  0  0  0  0
   -7.0795   -2.7879   -5.2601 C   0  0  0  0  0  0  0  0  0  0  0  0
   -5.9035   -2.6805   -3.2248 C   0  0  0  0  0  0  0  0  0  0  0  0
   -0.6853    8.2347    0.7505 H   0  0  0  0  0  0  0  0  0  0  0  0
   -9.0086    8.5124    2.7935 H   0  0  0  0  0  0  0  0  0  0  0  0
   -9.8826    6.1879    3.0210 H   0  0  0  0  0  0  0  0  0  0  0  0
   -8.3851    4.2436    2.6314 H   0  0  0  0  0  0  0  0  0  0  0  0
   -6.0045    4.5971    1.9901 H   0  0  0  0  0  0  0  0  0  0  0  0
    0.7027    7.5296   -0.9927 H   0  0  0  0  0  0  0  0  0  0  0  0
    1.7639    6.1707   -1.4706 H   0  0  0  0  0  0  0  0  0  0  0  0
   -1.2627    6.4033   -2.0392 H   0  0  0  0  0  0  0  0  0  0  0  0
    0.0859    6.5700   -3.2279 H   0  0  0  0  0  0  0  0  0  0  0  0
   -0.2356    4.9709   -2.4614 H   0  0  0  0  0  0  0  0  0  0  0  0
    9.0065    2.5369   -4.5758 H   0  0  0  0  0  0  0  0  0  0  0  0
    9.8849    1.4930   -3.3990 H   0  0  0  0  0  0  0  0  0  0  0  0
    8.3500    0.5143   -5.8988 H   0  0  0  0  0  0  0  0  0  0  0  0
    9.1895   -0.5501   -4.6997 H   0  0  0  0  0  0  0  0  0  0  0  0
   10.1411    0.6055   -5.7063 H   0  0  0  0  0  0  0  0  0  0  0  0
    4.4069    1.3989   -3.0893 H   0  0  0  0  0  0  0  0  0  0  0  0
    6.1279   -2.4106   -2.6858 H   0  0  0  0  0  0  0  0  0  0  0  0
    9.8602   -4.7042    0.6141 H   0  0  0  0  0  0  0  0  0  0  0  0
    9.8937   -5.2333   -1.1047 H   0  0  0  0  0  0  0  0  0  0  0  0
   10.8985   -2.4955   -0.0663 H   0  0  0  0  0  0  0  0  0  0  0  0
   10.9741   -3.0846   -1.7747 H   0  0  0  0  0  0  0  0  0  0  0  0
   11.9344   -3.9129   -0.4894 H   0  0  0  0  0  0  0  0  0  0  0  0
    0.5772   -7.2846   -0.0819 H   0  0  0  0  0  0  0  0  0  0  0  0
    2.1914   -6.5799    0.2511 H   0  0  0  0  0  0  0  0  0  0  0  0
    2.4571   -8.0617    2.2457 H   0  0  0  0  0  0  0  0  0  0  0  0
    0.8068   -8.7516    1.9582 H   0  0  0  0  0  0  0  0  0  0  0  0
    2.1205   -9.0211    0.7542 H   0  0  0  0  0  0  0  0  0  0  0  0
   -1.0579   -0.4807    4.0403 H   0  0  0  0  0  0  0  0  0  0  0  0
   -1.3380   -2.1793    3.9913 H   0  0  0  0  0  0  0  0  0  0  0  0
   -1.2130   -0.2804    1.5514 H   0  0  0  0  0  0  0  0  0  0  0  0
   -1.3326   -2.0768    1.4168 H   0  0  0  0  0  0  0  0  0  0  0  0
   -2.6540   -1.1416    2.2113 H   0  0  0  0  0  0  0  0  0  0  0  0
    0.5224    2.7755    4.4080 H   0  0  0  0  0  0  0  0  0  0  0  0
    0.3258    1.0505    4.7068 H   0  0  0  0  0  0  0  0  0  0  0  0
   -1.7374    3.1418    4.1801 H   0  0  0  0  0  0  0  0  0  0  0  0
   -1.9500    1.5031    4.8575 H   0  0  0  0  0  0  0  0  0  0  0  0
   -1.9539    1.7337    3.0690 H   0  0  0  0  0  0  0  0  0  0  0  0
   -2.0696   -7.6998    1.8419 H   0  0  0  0  0  0  0  0  0  0  0  0
   -2.9800   -2.6983   -1.8923 H   0  0  0  0  0  0  0  0  0  0  0  0
   -6.3215   -6.5512   -1.6591 H   0  0  0  0  0  0  0  0  0  0  0  0
   -7.7767   -3.5378   -2.5499 H   0  0  0  0  0  0  0  0  0  0  0  0
   -8.0412   -4.7530   -4.8153 H   0  0  0  0  0  0  0  0  0  0  0  0
   -5.7104   -5.7509   -5.6088 H   0  0  0  0  0  0  0  0  0  0  0  0
   -3.9966   -3.7949   -5.7632 H   0  0  0  0  0  0  0  0  0  0  0  0
   -5.2321   -1.5466   -5.0700 H   0  0  0  0  0  0  0  0  0  0  0  0
   -7.8431   -2.0876   -4.8475 H   0  0  0  0  0  0  0  0  0  0  0  0
   -7.1582   -2.8102   -6.3733 H   0  0  0  0  0  0  0  0  0  0  0  0
   -6.2331   -1.7580   -2.6954 H   0  0  0  0  0  0  0  0  0  0  0  0
  1  2  2  3
  2  3  1  0
  3  4  2  0
  3  5  1  0
  5  6  2  0
  6  7  1  0
  7  8  1  0
  8  9  2  0
  9 10  1  0
 10 11  2  0
 11 12  1  0
 12 13  2  0
  6 14  1  0
 14 15  2  3
 15 16  1  0
 16 17  3  0
 15 18  1  0
 18 19  3  0
  1 20  1  0
 20 21  2  0
 21 22  1  0
 22 23  1  0
 21 24  1  0
 24 25  1  0
 25 26  1  0
 26 27  1  0
 27 28  2  0
 28 29  1  0
 29 30  2  0
 30 31  1  0
 31 32  1  0
 32 33  1  0
 33 34  1  0
 34 35  1  0
 33 36  2  0
 36 37  1  0
 36 38  1  0
 30 39  1  0
 39 40  1  0
 40 41  2  0
 41 42  1  0
 42 43  1  0
 42 44  2  0
 44 45  1  0
 45 46  1  0
 44 47  1  0
 39 48  2  0
 48 49  1  0
 49 50  2  0
 50 51  1  0
 51 52  1  0
 52 53  1  0
 53 54  1  0
 54 55  1  0
 55 56  1  0
 54 57  2  0
 57 58  1  0
 58 59  1  0
 59 60  1  0
 60 61  1  0
 61 62  1  0
 62 63  1  0
 61 64  1  0
 64 65  2  0
 65 66  1  0
 66 67  1  0
 67 68  1  0
 68 69  1  0
 66 70  1  0
 70 71  1  0
 57 72  1  0
 72 73  2  3
 73 74  1  0
 74 75  2  0
 74 76  1  0
 76 77  2  0
 77 78  1  0
 78 79  2  0
 79 80  1  0
 80 81  2  0
 81 82  1  0
 82 83  2  3
 83 84  1  0
 84 85  3  0
 83 86  1  0
 86 87  3  0
 79 88  1  0
 88 89  1  0
 89 90  1  0
 90 91  2  0
 91 92  1  0
 92 93  1  0
 92 94  1  0
 14  2  1  0
 69 20  1  0
 82 73  1  0
 94 88  1  0
 13  5  1  0
 68 24  2  0
 81 76  1  0
 93 89  1  0
 13  8  1  0
 67 26  2  0
 94 78  1  0
 65 27  1  0
 49 28  1  0
 64 50  1  0
 37 31  2  0
 47 40  1  0
 60 51  2  0
 59 53  2  0
  1 95  1  0
  9 96  1  0
 10 97  1  0
 11 98  1  0
 12 99  1  0
 22100  1  0
 22101  1  0
 23102  1  0
 23103  1  0
 23104  1  0
 34105  1  0
 34106  1  0
 35107  1  0
 35108  1  0
 35109  1  0
 37110  1  0
 41111  1  0
 45112  1  0
 45113  1  0
 46114  1  0
 46115  1  0
 46116  1  0
 55117  1  0
 55118  1  0
 56119  1  0
 56120  1  0
 56121  1  0
 62122  1  0
 62123  1  0
 63124  1  0
 63125  1  0
 63126  1  0
 70127  1  0
 70128  1  0
 71129  1  0
 71130  1  0
 71131  1  0
 72132  1  0
 77133  1  0
 80134  1  0
 88135  1  0
 89136  1  0
 90137  1  0
 91138  1  0
 92139  1  0
 93140  1  0
 93141  1  0
 94142  1  0
M  END

