
     RDKit          3D

142155  0  0  0  0  0  0  0  0999 V2000
    2.1964    2.4418    5.6329 C   0  0  0  0  0  0  0  0  0  0  0  0
    3.4096    2.9870    5.4454 C   0  0  0  0  0  0  0  0  0  0  0  0
    4.5773    2.4855    6.1853 C   0  0  0  0  0  0  0  0  0  0  0  0
    4.5536    1.7885    7.2383 O   0  0  0  0  0  0  0  0  0  0  0  0
    5.7577    2.8470    5.4372 C   0  0  0  0  0  0  0  0  0  0  0  0
    5.3945    3.5837    4.3501 C   0  0  0  0  0  0  0  0  0  0  0  0
    6.7633    4.1196    3.5070 S   0  0  0  0  0  0  0  0  0  0  0  0
    7.8340    3.3212    4.5679 C   0  0  0  0  0  0  0  0  0  0  0  0
    9.2284    3.2905    4.5267 C   0  0  0  0  0  0  0  0  0  0  0  0
    9.9111    2.5616    5.5093 C   0  0  0  0  0  0  0  0  0  0  0  0
    9.2013    1.8835    6.5189 C   0  0  0  0  0  0  0  0  0  0  0  0
    7.7987    1.9318    6.5581 C   0  0  0  0  0  0  0  0  0  0  0  0
    7.1317    2.6631    5.5764 C   0  0  0  0  0  0  0  0  0  0  0  0
    3.9402    3.8103    4.3091 C   0  0  0  0  0  0  0  0  0  0  0  0
    3.3331    4.8478    3.6954 C   0  0  0  0  0  0  0  0  0  0  0  0
    2.0270    5.3086    4.0984 C   0  0  0  0  0  0  0  0  0  0  0  0
    0.9825    5.7039    4.4094 N   0  0  0  0  0  0  0  0  0  0  0  0
    4.0091    5.6210    2.6821 C   0  0  0  0  0  0  0  0  0  0  0  0
    4.5404    6.2456    1.8667 N   0  0  0  0  0  0  0  0  0  0  0  0
    1.1619    2.1908    4.6065 C   0  0  0  0  0  0  0  0  0  0  0  0
    0.1094    1.3043    4.8445 C   0  0  0  0  0  0  0  0  0  0  0  0
   -0.5680    0.9583    3.6785 C   0  0  0  0  0  0  0  0  0  0  0  0
   -1.3793   -0.2853    3.3498 C   0  0  0  0  0  0  0  0  0  0  0  0
   -0.8827   -1.5329    4.0877 C   0  0  0  0  0  0  0  0  0  0  0  0
   -1.7755   -2.4300    4.7121 C   0  0  0  0  0  0  0  0  0  0  0  0
   -1.3140   -3.6323    5.2622 C   0  0  0  0  0  0  0  0  0  0  0  0
    0.0341   -3.9850    5.1748 C   0  0  0  0  0  0  0  0  0  0  0  0
    0.4208   -5.2381    5.6810 O   0  0  0  0  0  0  0  0  0  0  0  0
    1.6376   -5.9285    5.3643 C   0  0  0  0  0  0  0  0  0  0  0  0
    1.7192   -6.2567    3.8754 C   0  0  0  0  0  0  0  0  0  0  0  0
    0.9388   -3.0932    4.5804 C   0  0  0  0  0  0  0  0  0  0  0  0
    0.4841   -1.8827    4.0416 C   0  0  0  0  0  0  0  0  0  0  0  0
   -2.8636    0.0477    3.5802 C   0  0  0  0  0  0  0  0  0  0  0  0
   -3.2598    0.6943    4.7675 C   0  0  0  0  0  0  0  0  0  0  0  0
   -4.5751    1.1183    4.9476 C   0  0  0  0  0  0  0  0  0  0  0  0
   -5.5453    0.8725    3.9556 C   0  0  0  0  0  0  0  0  0  0  0  0
   -6.8697    1.3246    4.0526 O   0  0  0  0  0  0  0  0  0  0  0  0
   -7.3849    2.1603    5.0939 C   0  0  0  0  0  0  0  0  0  0  0  0
   -6.9542    3.6102    4.8965 C   0  0  0  0  0  0  0  0  0  0  0  0
   -5.1787    0.1471    2.8183 C   0  0  0  0  0  0  0  0  0  0  0  0
   -3.8585   -0.2710    2.6342 C   0  0  0  0  0  0  0  0  0  0  0  0
   -1.0389   -0.3729    1.8629 C   0  0  0  0  0  0  0  0  0  0  0  0
   -0.4650    0.8120    1.4060 C   0  0  0  0  0  0  0  0  0  0  0  0
   -0.1385    1.6089    2.5575 C   0  0  0  0  0  0  0  0  0  0  0  0
    1.2522    2.4721    2.9309 S   0  0  0  0  0  0  0  0  0  0  0  0
   -0.1631    1.0330    0.0560 C   0  0  0  0  0  0  0  0  0  0  0  0
   -0.3401   -0.0490   -0.8215 C   0  0  0  0  0  0  0  0  0  0  0  0
   -0.1557   -0.1179   -2.3511 C   0  0  0  0  0  0  0  0  0  0  0  0
   -1.3964    0.3458   -3.1252 C   0  0  0  0  0  0  0  0  0  0  0  0
   -2.6695    0.4508   -2.5140 C   0  0  0  0  0  0  0  0  0  0  0  0
   -3.8052    0.7543   -3.2723 C   0  0  0  0  0  0  0  0  0  0  0  0
   -3.7054    0.9627   -4.6586 C   0  0  0  0  0  0  0  0  0  0  0  0
   -4.8114    1.2788   -5.4624 O   0  0  0  0  0  0  0  0  0  0  0  0
   -6.1818    1.1537   -5.0785 C   0  0  0  0  0  0  0  0  0  0  0  0
   -6.5919   -0.3136   -5.0094 C   0  0  0  0  0  0  0  0  0  0  0  0
   -2.4563    0.8488   -5.2722 C   0  0  0  0  0  0  0  0  0  0  0  0
   -1.3203    0.5268   -4.5218 C   0  0  0  0  0  0  0  0  0  0  0  0
    1.0941    0.6733   -2.7635 C   0  0  0  0  0  0  0  0  0  0  0  0
    2.3243    0.0661   -3.1027 C   0  0  0  0  0  0  0  0  0  0  0  0
    3.4224    0.8476   -3.5004 C   0  0  0  0  0  0  0  0  0  0  0  0
    3.3343    2.2488   -3.5053 C   0  0  0  0  0  0  0  0  0  0  0  0
    4.4045    3.0915   -3.8646 O   0  0  0  0  0  0  0  0  0  0  0  0
    5.6870    2.6749   -4.3415 C   0  0  0  0  0  0  0  0  0  0  0  0
    6.5714    2.2126   -3.1872 C   0  0  0  0  0  0  0  0  0  0  0  0
    2.1265    2.8565   -3.1541 C   0  0  0  0  0  0  0  0  0  0  0  0
    1.0180    2.0828   -2.8107 C   0  0  0  0  0  0  0  0  0  0  0  0
   -0.0960   -1.6221   -2.4979 C   0  0  0  0  0  0  0  0  0  0  0  0
   -0.4844   -2.2500   -1.3599 C   0  0  0  0  0  0  0  0  0  0  0  0
   -0.6816   -1.2998   -0.3041 C   0  0  0  0  0  0  0  0  0  0  0  0
   -1.0878   -1.4932    1.0204 C   0  0  0  0  0  0  0  0  0  0  0  0
   -0.3229   -3.9130   -1.4674 S   0  0  0  0  0  0  0  0  0  0  0  0
    0.1441   -3.8286   -3.0992 C   0  0  0  0  0  0  0  0  0  0  0  0
    0.2327   -2.4980   -3.5312 C   0  0  0  0  0  0  0  0  0  0  0  0
    0.5535   -5.0093   -3.8705 C   0  0  0  0  0  0  0  0  0  0  0  0
   -0.1309   -5.4881   -4.9202 C   0  0  0  0  0  0  0  0  0  0  0  0
    0.2843   -6.8934   -5.7325 S   0  0  0  0  0  0  0  0  0  0  0  0
   -1.0305   -6.8549   -6.7971 C   0  0  0  0  0  0  0  0  0  0  0  0
   -1.2068   -7.7594   -7.7931 C   0  0  0  0  0  0  0  0  0  0  0  0
   -0.3538   -8.9123   -7.8969 C   0  0  0  0  0  0  0  0  0  0  0  0
    0.3362   -9.8397   -7.9773 N   0  0  0  0  0  0  0  0  0  0  0  0
   -2.2043   -7.6261   -8.8208 C   0  0  0  0  0  0  0  0  0  0  0  0
   -3.0080   -7.5333   -9.6513 N   0  0  0  0  0  0  0  0  0  0  0  0
   -1.8073   -5.7573   -6.5279 N   0  0  0  0  0  0  0  0  0  0  0  0
   -3.0999   -5.4730   -7.0904 C   0  0  0  0  0  0  0  0  0  0  0  0
   -3.3172   -4.3060   -7.8335 C   0  0  0  0  0  0  0  0  0  0  0  0
   -4.5905   -4.0211   -8.3426 C   0  0  0  0  0  0  0  0  0  0  0  0
   -5.6542   -4.8946   -8.1006 C   0  0  0  0  0  0  0  0  0  0  0  0
   -5.4486   -6.0465   -7.3356 C   0  0  0  0  0  0  0  0  0  0  0  0
   -4.1787   -6.3328   -6.8270 C   0  0  0  0  0  0  0  0  0  0  0  0
   -1.3071   -5.0042   -5.4961 C   0  0  0  0  0  0  0  0  0  0  0  0
   -1.8950   -3.9709   -5.0866 O   0  0  0  0  0  0  0  0  0  0  0  0
    2.0444    1.8978    6.5565 H   0  0  0  0  0  0  0  0  0  0  0  0
    9.7736    3.8111    3.7445 H   0  0  0  0  0  0  0  0  0  0  0  0
   10.9953    2.5239    5.4939 H   0  0  0  0  0  0  0  0  0  0  0  0
    9.7403    1.3188    7.2656 H   0  0  0  0  0  0  0  0  0  0  0  0
    7.2534    1.4078    7.3306 H   0  0  0  0  0  0  0  0  0  0  0  0
   -0.0458    0.8056    5.7944 H   0  0  0  0  0  0  0  0  0  0  0  0
   -2.8387   -2.2390    4.7482 H   0  0  0  0  0  0  0  0  0  0  0  0
   -2.0246   -4.3053    5.7244 H   0  0  0  0  0  0  0  0  0  0  0  0
    1.6522   -6.8755    5.9424 H   0  0  0  0  0  0  0  0  0  0  0  0
    2.5200   -5.3351    5.6824 H   0  0  0  0  0  0  0  0  0  0  0  0
    0.6985   -6.4489    3.4684 H   0  0  0  0  0  0  0  0  0  0  0  0
    2.3306   -7.1762    3.7096 H   0  0  0  0  0  0  0  0  0  0  0  0
    2.1595   -5.4107    3.3152 H   0  0  0  0  0  0  0  0  0  0  0  0
    1.9946   -3.3171    4.5278 H   0  0  0  0  0  0  0  0  0  0  0  0
    1.1963   -1.2363    3.5451 H   0  0  0  0  0  0  0  0  0  0  0  0
   -2.5437    0.9087    5.5493 H   0  0  0  0  0  0  0  0  0  0  0  0
   -4.8234    1.6618    5.8490 H   0  0  0  0  0  0  0  0  0  0  0  0
   -7.0672    1.7913    6.0923 H   0  0  0  0  0  0  0  0  0  0  0  0
   -8.4961    2.1230    5.0680 H   0  0  0  0  0  0  0  0  0  0  0  0
   -7.3061    4.2278    5.7519 H   0  0  0  0  0  0  0  0  0  0  0  0
   -5.8458    3.6885    4.8292 H   0  0  0  0  0  0  0  0  0  0  0  0
   -7.4071    4.0229    3.9630 H   0  0  0  0  0  0  0  0  0  0  0  0
   -5.9113   -0.0673    2.0504 H   0  0  0  0  0  0  0  0  0  0  0  0
   -3.6195   -0.8179    1.7321 H   0  0  0  0  0  0  0  0  0  0  0  0
    0.2184    1.9865   -0.2696 H   0  0  0  0  0  0  0  0  0  0  0  0
   -2.7972    0.2745   -1.4577 H   0  0  0  0  0  0  0  0  0  0  0  0
   -4.7548    0.8276   -2.7678 H   0  0  0  0  0  0  0  0  0  0  0  0
   -6.3726    1.6620   -4.1126 H   0  0  0  0  0  0  0  0  0  0  0  0
   -6.8065    1.6439   -5.8528 H   0  0  0  0  0  0  0  0  0  0  0  0
   -5.9426   -0.8707   -4.3010 H   0  0  0  0  0  0  0  0  0  0  0  0
   -6.4878   -0.7708   -6.0142 H   0  0  0  0  0  0  0  0  0  0  0  0
   -7.6496   -0.4111   -4.6841 H   0  0  0  0  0  0  0  0  0  0  0  0
   -2.3659    0.9993   -6.3417 H   0  0  0  0  0  0  0  0  0  0  0  0
   -0.3758    0.4113   -5.0412 H   0  0  0  0  0  0  0  0  0  0  0  0
    2.4383   -1.0040   -3.0825 H   0  0  0  0  0  0  0  0  0  0  0  0
    4.3367    0.3404   -3.7770 H   0  0  0  0  0  0  0  0  0  0  0  0
    6.1761    3.5535   -4.8000 H   0  0  0  0  0  0  0  0  0  0  0  0
    5.5869    1.8927   -5.1159 H   0  0  0  0  0  0  0  0  0  0  0  0
    6.4986    2.9302   -2.3394 H   0  0  0  0  0  0  0  0  0  0  0  0
    6.2753    1.1982   -2.8494 H   0  0  0  0  0  0  0  0  0  0  0  0
    7.6260    2.1695   -3.5338 H   0  0  0  0  0  0  0  0  0  0  0  0
    2.0447    3.9343   -3.1592 H   0  0  0  0  0  0  0  0  0  0  0  0
    0.0931    2.5905   -2.5727 H   0  0  0  0  0  0  0  0  0  0  0  0
   -1.4007   -2.4641    1.3868 H   0  0  0  0  0  0  0  0  0  0  0  0
    0.5473   -2.1899   -4.5167 H   0  0  0  0  0  0  0  0  0  0  0  0
    1.3841   -5.5850   -3.4854 H   0  0  0  0  0  0  0  0  0  0  0  0
   -2.4965   -3.6278   -8.0243 H   0  0  0  0  0  0  0  0  0  0  0  0
   -4.7504   -3.1183   -8.9207 H   0  0  0  0  0  0  0  0  0  0  0  0
   -6.6372   -4.6627   -8.4831 H   0  0  0  0  0  0  0  0  0  0  0  0
   -6.2823   -6.7119   -7.1192 H   0  0  0  0  0  0  0  0  0  0  0  0
   -4.0402   -7.2319   -6.2402 H   0  0  0  0  0  0  0  0  0  0  0  0
  1  2  2  3
  2  3  1  0
  3  4  2  0
  3  5  1  0
  5  6  2  0
  6  7  1  0
  7  8  1  0
  8  9  2  0
  9 10  1  0
 10 11  2  0
 11 12  1  0
 12 13  2  0
  6 14  1  0
 14 15  2  3
 15 16  1  0
 16 17  3  0
 15 18  1  0
 18 19  3  0
  1 20  1  0
 20 21  2  0
 21 22  1  0
 22 23  1  0
 23 24  1  0
 24 25  2  0
 25 26  1  0
 26 27  2  0
 27 28  1  0
 28 29  1  0
 29 30  1  0
 27 31  1  0
 31 32  2  0
 23 33  1  0
 33 34  2  0
 34 35  1  0
 35 36  2  0
 36 37  1  0
 37 38  1  0
 38 39  1  0
 36 40  1  0
 40 41  2  0
 23 42  1  0
 42 43  2  0
 43 44  1  0
 44 45  1  0
 43 46  1  0
 46 47  2  0
 47 48  1  0
 48 49  1  0
 49 50  2  0
 50 51  1  0
 51 52  2  0
 52 53  1  0
 53 54  1  0
 54 55  1  0
 52 56  1  0
 56 57  2  0
 48 58  1  0
 58 59  2  0
 59 60  1  0
 60 61  2  0
 61 62  1  0
 62 63  1  0
 63 64  1  0
 61 65  1  0
 65 66  2  0
 48 67  1  0
 67 68  2  0
 68 69  1  0
 69 70  2  0
 68 71  1  0
 71 72  1  0
 72 73  2  0
 72 74  1  0
 74 75  2  3
 75 76  1  0
 76 77  1  0
 77 78  2  3
 78 79  1  0
 79 80  3  0
 78 81  1  0
 81 82  3  0
 77 83  1  0
 83 84  1  0
 84 85  2  0
 85 86  1  0
 86 87  2  0
 87 88  1  0
 88 89  2  0
 83 90  1  0
 90 91  2  0
 14  2  1  0
 45 20  1  0
 69 47  1  0
 90 75  1  0
 13  5  1  0
 44 22  2  0
 57 49  1  0
 66 58  1  0
 73 67  1  0
 89 84  1  0
 13  8  1  0
 32 24  1  0
 41 33  1  0
 70 42  1  0
  1 92  1  0
  9 93  1  0
 10 94  1  0
 11 95  1  0
 12 96  1  0
 21 97  1  0
 25 98  1  0
 26 99  1  0
 29100  1  0
 29101  1  0
 30102  1  0
 30103  1  0
 30104  1  0
 31105  1  0
 32106  1  0
 34107  1  0
 35108  1  0
 38109  1  0
 38110  1  0
 39111  1  0
 39112  1  0
 39113  1  0
 40114  1  0
 41115  1  0
 46116  1  0
 50117  1  0
 51118  1  0
 54119  1  0
 54120  1  0
 55121  1  0
 55122  1  0
 55123  1  0
 56124  1  0
 57125  1  0
 59126  1  0
 60127  1  0
 63128  1  0
 63129  1  0
 64130  1  0
 64131  1  0
 64132  1  0
 65133  1  0
 66134  1  0
 70135  1  0
 73136  1  0
 74137  1  0
 85138  1  0
 86139  1  0
 87140  1  0
 88141  1  0
 89142  1  0
M  END

