
     RDKit          3D

 91101  0  0  0  0  0  0  0  0999 V2000
    6.1044    3.6667    0.5924 C   0  0  0  0  0  0  0  0  0  0  0  0
    6.3120    4.6690   -0.2721 C   0  0  0  0  0  0  0  0  0  0  0  0
    5.5188    5.0371   -1.4588 C   0  0  0  0  0  0  0  0  0  0  0  0
    4.4915    4.4453   -1.8873 O   0  0  0  0  0  0  0  0  0  0  0  0
    6.0990    6.2447   -2.0354 C   0  0  0  0  0  0  0  0  0  0  0  0
    5.6985    6.9687   -3.1567 C   0  0  0  0  0  0  0  0  0  0  0  0
    6.4242    8.1247   -3.4994 C   0  0  0  0  0  0  0  0  0  0  0  0
    5.9190    9.0525   -4.9081 Cl  0  0  0  0  0  0  0  0  0  0  0  0
    7.5389    8.5271   -2.7170 C   0  0  0  0  0  0  0  0  0  0  0  0
    8.4530    9.9753   -3.1195 Cl  0  0  0  0  0  0  0  0  0  0  0  0
    7.9234    7.7746   -1.5906 C   0  0  0  0  0  0  0  0  0  0  0  0
    7.1848    6.6338   -1.2764 C   0  0  0  0  0  0  0  0  0  0  0  0
    7.3583    5.6933   -0.1730 C   0  0  0  0  0  0  0  0  0  0  0  0
    8.2542    5.7560    0.7094 O   0  0  0  0  0  0  0  0  0  0  0  0
    4.9761    2.7369    0.4501 C   0  0  0  0  0  0  0  0  0  0  0  0
    3.8888    2.7135    1.3311 C   0  0  0  0  0  0  0  0  0  0  0  0
    3.0587    1.7702    0.7737 C   0  0  0  0  0  0  0  0  0  0  0  0
    3.6503    1.2404   -0.2990 C   0  0  0  0  0  0  0  0  0  0  0  0
    4.8478    1.8082   -0.5488 N   0  0  0  0  0  0  0  0  0  0  0  0
    5.8729    1.4255   -1.5220 C   0  0  0  0  0  0  0  0  0  0  0  0
    6.7747    0.3384   -0.9446 C   0  0  0  0  0  0  0  0  0  0  0  0
    2.9485    0.1046   -0.6443 C   0  0  0  0  0  0  0  0  0  0  0  0
    3.1900   -0.9707   -1.5188 C   0  0  0  0  0  0  0  0  0  0  0  0
    2.2894   -2.0826   -1.5057 C   0  0  0  0  0  0  0  0  0  0  0  0
    2.5422   -3.0885   -2.3808 N   0  0  0  0  0  0  0  0  0  0  0  0
    3.9140   -2.5061   -3.1001 S   0  0  0  0  0  0  0  0  0  0  0  0
    4.2236   -1.0424   -2.3936 N   0  0  0  0  0  0  0  0  0  0  0  0
    1.1856   -2.0536   -0.6434 C   0  0  0  0  0  0  0  0  0  0  0  0
    0.0536   -2.8214   -0.6206 C   0  0  0  0  0  0  0  0  0  0  0  0
   -0.6499   -3.9857   -1.6412 S   0  0  0  0  0  0  0  0  0  0  0  0
   -2.2009   -3.6301   -1.0324 C   0  0  0  0  0  0  0  0  0  0  0  0
   -3.4842   -4.0327   -1.4053 C   0  0  0  0  0  0  0  0  0  0  0  0
   -3.7610   -5.0469   -2.4765 C   0  0  0  0  0  0  0  0  0  0  0  0
   -3.7882   -4.3973   -3.8571 C   0  0  0  0  0  0  0  0  0  0  0  0
   -4.4618   -3.2996   -0.7093 C   0  0  0  0  0  0  0  0  0  0  0  0
   -3.7075   -2.1453    0.2993 S   0  0  0  0  0  0  0  0  0  0  0  0
   -2.1550   -2.6133   -0.1154 C   0  0  0  0  0  0  0  0  0  0  0  0
   -0.8683   -2.1458    0.1198 C   0  0  0  0  0  0  0  0  0  0  0  0
   -0.4027   -0.9561    0.5828 N   0  0  0  0  0  0  0  0  0  0  0  0
    0.9092   -0.9502    0.1762 C   0  0  0  0  0  0  0  0  0  0  0  0
    1.8576    0.0955    0.2518 C   0  0  0  0  0  0  0  0  0  0  0  0
    1.9688    1.0895    1.1916 N   0  0  0  0  0  0  0  0  0  0  0  0
    1.5112    1.0449    2.5889 C   0  0  0  0  0  0  0  0  0  0  0  0
    0.9146    2.3872    3.0211 C   0  0  0  0  0  0  0  0  0  0  0  0
   -1.2637    0.2210    0.7791 C   0  0  0  0  0  0  0  0  0  0  0  0
   -1.7088    0.8023   -0.5633 C   0  0  0  0  0  0  0  0  0  0  0  0
   -5.9118   -3.3562   -0.9580 C   0  0  0  0  0  0  0  0  0  0  0  0
   -6.8464   -3.1685   -0.0091 C   0  0  0  0  0  0  0  0  0  0  0  0
   -8.1854   -2.6609   -0.3127 C   0  0  0  0  0  0  0  0  0  0  0  0
   -8.7319   -2.6230   -1.4504 O   0  0  0  0  0  0  0  0  0  0  0  0
   -8.7442   -2.1021    0.9030 C   0  0  0  0  0  0  0  0  0  0  0  0
   -9.9347   -1.3939    1.0663 C   0  0  0  0  0  0  0  0  0  0  0  0
  -10.2356   -0.8722    2.3334 C   0  0  0  0  0  0  0  0  0  0  0  0
   -9.3306   -1.0405    3.4002 C   0  0  0  0  0  0  0  0  0  0  0  0
   -9.6902   -0.3379    4.9627 Cl  0  0  0  0  0  0  0  0  0  0  0  0
   -8.1333   -1.7488    3.2140 C   0  0  0  0  0  0  0  0  0  0  0  0
   -7.8564   -2.2985    1.9500 C   0  0  0  0  0  0  0  0  0  0  0  0
   -6.6892   -3.0961    1.4746 C   0  0  0  0  0  0  0  0  0  0  0  0
   -5.9252   -3.9188    2.2384 C   0  0  0  0  0  0  0  0  0  0  0  0
   -5.1558   -4.9948    1.6685 C   0  0  0  0  0  0  0  0  0  0  0  0
   -4.5390   -5.8670    1.2236 N   0  0  0  0  0  0  0  0  0  0  0  0
   -5.9697   -3.9030    3.6764 C   0  0  0  0  0  0  0  0  0  0  0  0
   -6.0001   -3.9028    4.8336 N   0  0  0  0  0  0  0  0  0  0  0  0
    6.7137    3.6002    1.4869 H   0  0  0  0  0  0  0  0  0  0  0  0
    4.8406    6.6521   -3.7381 H   0  0  0  0  0  0  0  0  0  0  0  0
    8.7685    8.0718   -0.9805 H   0  0  0  0  0  0  0  0  0  0  0  0
    3.7591    3.2888    2.2384 H   0  0  0  0  0  0  0  0  0  0  0  0
    6.4992    2.3056   -1.7768 H   0  0  0  0  0  0  0  0  0  0  0  0
    5.4071    1.0986   -2.4721 H   0  0  0  0  0  0  0  0  0  0  0  0
    6.1721   -0.5367   -0.6257 H   0  0  0  0  0  0  0  0  0  0  0  0
    7.3216    0.7349   -0.0611 H   0  0  0  0  0  0  0  0  0  0  0  0
    7.5096    0.0121   -1.7117 H   0  0  0  0  0  0  0  0  0  0  0  0
   -4.7303   -5.5496   -2.2843 H   0  0  0  0  0  0  0  0  0  0  0  0
   -2.9714   -5.8275   -2.4531 H   0  0  0  0  0  0  0  0  0  0  0  0
   -4.6214   -3.6667   -3.9244 H   0  0  0  0  0  0  0  0  0  0  0  0
   -3.9330   -5.1823   -4.6314 H   0  0  0  0  0  0  0  0  0  0  0  0
   -2.8267   -3.8777   -4.0530 H   0  0  0  0  0  0  0  0  0  0  0  0
    2.3714    0.7948    3.2473 H   0  0  0  0  0  0  0  0  0  0  0  0
    0.7707    0.2301    2.7356 H   0  0  0  0  0  0  0  0  0  0  0  0
    0.2913    2.8172    2.2149 H   0  0  0  0  0  0  0  0  0  0  0  0
    1.7163    3.1132    3.2673 H   0  0  0  0  0  0  0  0  0  0  0  0
    0.2852    2.2475    3.9264 H   0  0  0  0  0  0  0  0  0  0  0  0
   -0.7456    1.0180    1.3167 H   0  0  0  0  0  0  0  0  0  0  0  0
   -2.1457   -0.0594    1.3928 H   0  0  0  0  0  0  0  0  0  0  0  0
   -2.3297    0.0725   -1.1230 H   0  0  0  0  0  0  0  0  0  0  0  0
   -0.8198    1.0626   -1.1794 H   0  0  0  0  0  0  0  0  0  0  0  0
   -2.3062    1.7254   -0.3877 H   0  0  0  0  0  0  0  0  0  0  0  0
   -6.2270   -3.3939   -1.9925 H   0  0  0  0  0  0  0  0  0  0  0  0
  -10.6131   -1.2432    0.2352 H   0  0  0  0  0  0  0  0  0  0  0  0
  -11.1601   -0.3249    2.4823 H   0  0  0  0  0  0  0  0  0  0  0  0
   -7.4412   -1.8365    4.0356 H   0  0  0  0  0  0  0  0  0  0  0  0
  1  2  2  3
  2  3  1  0
  3  4  2  0
  3  5  1  0
  5  6  2  0
  6  7  1  0
  7  8  1  0
  7  9  2  0
  9 10  1  0
  9 11  1  0
 11 12  2  0
 12 13  1  0
 13 14  2  0
  1 15  1  0
 15 16  2  0
 16 17  1  0
 17 18  2  0
 18 19  1  0
 19 20  1  0
 20 21  1  0
 18 22  1  0
 22 23  1  0
 23 24  1  0
 24 25  2  0
 25 26  1  0
 26 27  1  0
 24 28  1  0
 28 29  1  0
 29 30  1  0
 30 31  1  0
 31 32  1  0
 32 33  1  0
 33 34  1  0
 32 35  2  0
 35 36  1  0
 36 37  1  0
 37 38  1  0
 38 39  1  0
 39 40  1  0
 40 41  1  0
 41 42  1  0
 42 43  1  0
 43 44  1  0
 39 45  1  0
 45 46  1  0
 35 47  1  0
 47 48  2  3
 48 49  1  0
 49 50  2  0
 49 51  1  0
 51 52  2  0
 52 53  1  0
 53 54  2  0
 54 55  1  0
 54 56  1  0
 56 57  2  0
 57 58  1  0
 58 59  2  3
 59 60  1  0
 60 61  3  0
 59 62  1  0
 62 63  3  0
 13  2  1  0
 19 15  1  0
 41 22  2  0
 58 48  1  0
 12  5  1  0
 42 17  1  0
 57 51  1  0
 27 23  2  0
 40 28  2  0
 38 29  2  0
 37 31  2  0
  1 64  1  0
  6 65  1  0
 11 66  1  0
 16 67  1  0
 20 68  1  0
 20 69  1  0
 21 70  1  0
 21 71  1  0
 21 72  1  0
 33 73  1  0
 33 74  1  0
 34 75  1  0
 34 76  1  0
 34 77  1  0
 43 78  1  0
 43 79  1  0
 44 80  1  0
 44 81  1  0
 44 82  1  0
 45 83  1  0
 45 84  1  0
 46 85  1  0
 46 86  1  0
 46 87  1  0
 47 88  1  0
 52 89  1  0
 53 90  1  0
 56 91  1  0
M  END

