
     RDKit          3D

113126  0  0  0  0  0  0  0  0999 V2000
    1.9744   -7.6242   -3.1851 C   0  0  0  0  0  0  0  0  0  0  0  0
    1.2434   -8.7468   -3.1544 C   0  0  0  0  0  0  0  0  0  0  0  0
    1.3313   -9.8402   -4.1303 C   0  0  0  0  0  0  0  0  0  0  0  0
    2.1523   -9.9143   -5.0853 O   0  0  0  0  0  0  0  0  0  0  0  0
    0.2671  -10.7980   -3.8447 C   0  0  0  0  0  0  0  0  0  0  0  0
   -0.1050  -11.9485   -4.5413 C   0  0  0  0  0  0  0  0  0  0  0  0
   -1.2335  -12.6587   -4.1034 C   0  0  0  0  0  0  0  0  0  0  0  0
   -1.7264  -14.1007   -4.9880 Cl  0  0  0  0  0  0  0  0  0  0  0  0
   -1.9429  -12.2282   -2.9512 C   0  0  0  0  0  0  0  0  0  0  0  0
   -3.3429  -13.1137   -2.3646 Cl  0  0  0  0  0  0  0  0  0  0  0  0
   -1.5479  -11.0626   -2.2703 C   0  0  0  0  0  0  0  0  0  0  0  0
   -0.4490  -10.3581   -2.7481 C   0  0  0  0  0  0  0  0  0  0  0  0
    0.0924   -9.0806   -2.3023 C   0  0  0  0  0  0  0  0  0  0  0  0
   -0.4093   -8.3574   -1.4033 O   0  0  0  0  0  0  0  0  0  0  0  0
    1.8258   -6.5086   -2.2363 C   0  0  0  0  0  0  0  0  0  0  0  0
    1.9966   -6.5469   -0.8311 C   0  0  0  0  0  0  0  0  0  0  0  0
    2.3261   -7.7651   -0.0485 C   0  0  0  0  0  0  0  0  0  0  0  0
    3.4611   -8.5051   -0.4304 C   0  0  0  0  0  0  0  0  0  0  0  0
    3.7740   -9.7083    0.1973 C   0  0  0  0  0  0  0  0  0  0  0  0
    2.9624  -10.1931    1.2206 C   0  0  0  0  0  0  0  0  0  0  0  0
    1.8363   -9.4738    1.6179 C   0  0  0  0  0  0  0  0  0  0  0  0
    1.5070   -8.2474    1.0131 C   0  0  0  0  0  0  0  0  0  0  0  0
    0.2372   -7.5511    1.4645 C   0  0  0  0  0  0  0  0  0  0  0  0
    0.3224   -7.1120    2.9282 C   0  0  0  0  0  0  0  0  0  0  0  0
    1.9476   -5.2523   -0.3036 C   0  0  0  0  0  0  0  0  0  0  0  0
    2.2198   -4.5929    1.2504 S   0  0  0  0  0  0  0  0  0  0  0  0
    1.9621   -3.0198    0.6624 C   0  0  0  0  0  0  0  0  0  0  0  0
    2.0779   -1.7225    1.0732 C   0  0  0  0  0  0  0  0  0  0  0  0
    2.4642   -1.1639    2.2912 C   0  0  0  0  0  0  0  0  0  0  0  0
    2.5709    0.2519    2.3851 C   0  0  0  0  0  0  0  0  0  0  0  0
    2.9476    0.7573    3.5854 N   0  0  0  0  0  0  0  0  0  0  0  0
    3.1344   -0.6489    4.4403 S   0  0  0  0  0  0  0  0  0  0  0  0
    2.7563   -1.8819    3.4039 N   0  0  0  0  0  0  0  0  0  0  0  0
    2.2374    1.0350    1.2702 C   0  0  0  0  0  0  0  0  0  0  0  0
    1.8876    2.3577    1.2172 C   0  0  0  0  0  0  0  0  0  0  0  0
    1.4434    3.4797    2.4181 S   0  0  0  0  0  0  0  0  0  0  0  0
    0.3819    4.2761    1.3588 C   0  0  0  0  0  0  0  0  0  0  0  0
   -0.6050    5.2458    1.5576 C   0  0  0  0  0  0  0  0  0  0  0  0
   -0.8920    5.8880    2.8541 C   0  0  0  0  0  0  0  0  0  0  0  0
   -0.6937    7.2744    3.0657 C   0  0  0  0  0  0  0  0  0  0  0  0
   -0.0424    8.1558    2.0240 C   0  0  0  0  0  0  0  0  0  0  0  0
    1.4749    7.9994    2.0502 C   0  0  0  0  0  0  0  0  0  0  0  0
   -1.0443    7.8343    4.3073 C   0  0  0  0  0  0  0  0  0  0  0  0
   -1.5979    7.0392    5.3149 C   0  0  0  0  0  0  0  0  0  0  0  0
   -1.7884    5.6764    5.1028 C   0  0  0  0  0  0  0  0  0  0  0  0
   -1.4336    5.0997    3.8823 C   0  0  0  0  0  0  0  0  0  0  0  0
   -1.4043    5.3883    0.4134 C   0  0  0  0  0  0  0  0  0  0  0  0
   -0.9340    4.2513   -0.7584 S   0  0  0  0  0  0  0  0  0  0  0  0
    0.3428    3.6457    0.1406 C   0  0  0  0  0  0  0  0  0  0  0  0
    1.1906    2.5387    0.0563 C   0  0  0  0  0  0  0  0  0  0  0  0
    1.1015    1.3976   -0.6790 N   0  0  0  0  0  0  0  0  0  0  0  0
    1.8021    0.4706    0.0585 C   0  0  0  0  0  0  0  0  0  0  0  0
    1.8270   -0.9443   -0.0685 C   0  0  0  0  0  0  0  0  0  0  0  0
    1.6909   -1.7395   -1.1783 N   0  0  0  0  0  0  0  0  0  0  0  0
    1.7237   -2.9941   -0.6688 C   0  0  0  0  0  0  0  0  0  0  0  0
    1.7310   -4.2602   -1.2279 C   0  0  0  0  0  0  0  0  0  0  0  0
    1.6253   -4.9023   -2.7675 S   0  0  0  0  0  0  0  0  0  0  0  0
    2.0391   -1.4077   -2.5658 C   0  0  0  0  0  0  0  0  0  0  0  0
    3.4952   -1.7589   -2.8754 C   0  0  0  0  0  0  0  0  0  0  0  0
    0.0422    1.1396   -1.6707 C   0  0  0  0  0  0  0  0  0  0  0  0
    0.3144    1.8925   -2.9802 C   0  0  0  0  0  0  0  0  0  0  0  0
   -2.6557    6.1529    0.3312 C   0  0  0  0  0  0  0  0  0  0  0  0
   -2.9758    6.9250   -0.7194 C   0  0  0  0  0  0  0  0  0  0  0  0
   -2.0479    7.4588   -1.7211 C   0  0  0  0  0  0  0  0  0  0  0  0
   -0.8442    7.1216   -1.8705 O   0  0  0  0  0  0  0  0  0  0  0  0
   -2.7102    8.5636   -2.4052 C   0  0  0  0  0  0  0  0  0  0  0  0
   -2.1725    9.4713   -3.3245 C   0  0  0  0  0  0  0  0  0  0  0  0
   -0.5560    9.2263   -3.9948 Cl  0  0  0  0  0  0  0  0  0  0  0  0
   -2.9485   10.5881   -3.6940 C   0  0  0  0  0  0  0  0  0  0  0  0
   -2.3283   11.7335   -4.8877 Cl  0  0  0  0  0  0  0  0  0  0  0  0
   -4.2017   10.8177   -3.0773 C   0  0  0  0  0  0  0  0  0  0  0  0
   -5.1186   12.2748   -3.4691 Cl  0  0  0  0  0  0  0  0  0  0  0  0
   -4.7076    9.9029   -2.1307 C   0  0  0  0  0  0  0  0  0  0  0  0
   -6.1071   10.3490   -1.1553 Cl  0  0  0  0  0  0  0  0  0  0  0  0
   -3.9849    8.7210   -1.8810 C   0  0  0  0  0  0  0  0  0  0  0  0
   -4.2785    7.6009   -0.9478 C   0  0  0  0  0  0  0  0  0  0  0  0
   -5.4810    6.9863   -0.8152 C   0  0  0  0  0  0  0  0  0  0  0  0
   -6.6149    7.3676   -1.6183 C   0  0  0  0  0  0  0  0  0  0  0  0
   -7.5192    7.6592   -2.2764 N   0  0  0  0  0  0  0  0  0  0  0  0
   -5.6287    5.7417   -0.0984 C   0  0  0  0  0  0  0  0  0  0  0  0
   -5.7481    4.7406    0.4708 N   0  0  0  0  0  0  0  0  0  0  0  0
    2.6919   -7.4893   -3.9887 H   0  0  0  0  0  0  0  0  0  0  0  0
    0.4498  -12.2599   -5.4182 H   0  0  0  0  0  0  0  0  0  0  0  0
   -2.0905  -10.7169   -1.3966 H   0  0  0  0  0  0  0  0  0  0  0  0
    4.1024   -8.1510   -1.2300 H   0  0  0  0  0  0  0  0  0  0  0  0
    4.6367  -10.2750   -0.1189 H   0  0  0  0  0  0  0  0  0  0  0  0
    3.1986  -11.1374    1.6981 H   0  0  0  0  0  0  0  0  0  0  0  0
    1.2128   -9.8860    2.3996 H   0  0  0  0  0  0  0  0  0  0  0  0
   -0.0046   -6.6687    0.8430 H   0  0  0  0  0  0  0  0  0  0  0  0
   -0.6183   -8.2521    1.3591 H   0  0  0  0  0  0  0  0  0  0  0  0
    1.2686   -6.5631    3.1210 H   0  0  0  0  0  0  0  0  0  0  0  0
   -0.5344   -6.4458    3.1616 H   0  0  0  0  0  0  0  0  0  0  0  0
    0.2712   -7.9928    3.5989 H   0  0  0  0  0  0  0  0  0  0  0  0
   -0.4200    7.9127    1.0113 H   0  0  0  0  0  0  0  0  0  0  0  0
   -0.2933    9.2239    2.2051 H   0  0  0  0  0  0  0  0  0  0  0  0
    1.7615    6.9467    1.8329 H   0  0  0  0  0  0  0  0  0  0  0  0
    1.8760    8.2867    3.0489 H   0  0  0  0  0  0  0  0  0  0  0  0
    1.9268    8.6489    1.2736 H   0  0  0  0  0  0  0  0  0  0  0  0
   -0.8911    8.8885    4.4945 H   0  0  0  0  0  0  0  0  0  0  0  0
   -1.8721    7.4845    6.2621 H   0  0  0  0  0  0  0  0  0  0  0  0
   -2.2136    5.0623    5.8860 H   0  0  0  0  0  0  0  0  0  0  0  0
   -1.6039    4.0399    3.7283 H   0  0  0  0  0  0  0  0  0  0  0  0
    1.9362   -0.3309   -2.7462 H   0  0  0  0  0  0  0  0  0  0  0  0
    1.3572   -1.9453   -3.2625 H   0  0  0  0  0  0  0  0  0  0  0  0
    4.1740   -1.1311   -2.2657 H   0  0  0  0  0  0  0  0  0  0  0  0
    3.7031   -2.8267   -2.6617 H   0  0  0  0  0  0  0  0  0  0  0  0
    3.6995   -1.5743   -3.9460 H   0  0  0  0  0  0  0  0  0  0  0  0
   -0.9394    1.4601   -1.2586 H   0  0  0  0  0  0  0  0  0  0  0  0
   -0.0768    0.0587   -1.8706 H   0  0  0  0  0  0  0  0  0  0  0  0
    0.3410    2.9855   -2.8183 H   0  0  0  0  0  0  0  0  0  0  0  0
   -0.4912    1.6684   -3.7113 H   0  0  0  0  0  0  0  0  0  0  0  0
    1.2825    1.6072   -3.4285 H   0  0  0  0  0  0  0  0  0  0  0  0
   -3.3449    6.0607    1.1602 H   0  0  0  0  0  0  0  0  0  0  0  0
  1  2  2  3
  2  3  1  0
  3  4  2  0
  3  5  1  0
  5  6  2  0
  6  7  1  0
  7  8  1  0
  7  9  2  0
  9 10  1  0
  9 11  1  0
 11 12  2  0
 12 13  1  0
 13 14  2  0
  1 15  1  0
 15 16  2  0
 16 17  1  0
 17 18  2  0
 18 19  1  0
 19 20  2  0
 20 21  1  0
 21 22  2  0
 22 23  1  0
 23 24  1  0
 16 25  1  0
 25 26  1  0
 26 27  1  0
 27 28  1  0
 28 29  1  0
 29 30  1  0
 30 31  2  0
 31 32  1  0
 32 33  1  0
 30 34  1  0
 34 35  1  0
 35 36  1  0
 36 37  1  0
 37 38  1  0
 38 39  1  0
 39 40  2  0
 40 41  1  0
 41 42  1  0
 40 43  1  0
 43 44  2  0
 44 45  1  0
 45 46  2  0
 38 47  2  0
 47 48  1  0
 48 49  1  0
 49 50  1  0
 50 51  1  0
 51 52  1  0
 52 53  1  0
 53 54  1  0
 54 55  1  0
 55 56  1  0
 56 57  1  0
 54 58  1  0
 58 59  1  0
 51 60  1  0
 60 61  1  0
 47 62  1  0
 62 63  2  3
 63 64  1  0
 64 65  2  0
 64 66  1  0
 66 67  2  0
 67 68  1  0
 67 69  1  0
 69 70  1  0
 69 71  2  0
 71 72  1  0
 71 73  1  0
 73 74  1  0
 73 75  2  0
 75 76  1  0
 76 77  2  3
 77 78  1  0
 78 79  3  0
 77 80  1  0
 80 81  3  0
 13  2  1  0
 57 15  1  0
 76 63  1  0
 12  5  1  0
 22 17  1  0
 56 25  2  0
 75 66  1  0
 55 27  2  0
 53 28  2  0
 33 29  2  0
 52 34  2  0
 50 35  2  0
 49 37  2  0
 46 39  1  0
  1 82  1  0
  6 83  1  0
 11 84  1  0
 18 85  1  0
 19 86  1  0
 20 87  1  0
 21 88  1  0
 23 89  1  0
 23 90  1  0
 24 91  1  0
 24 92  1  0
 24 93  1  0
 41 94  1  0
 41 95  1  0
 42 96  1  0
 42 97  1  0
 42 98  1  0
 43 99  1  0
 44100  1  0
 45101  1  0
 46102  1  0
 58103  1  0
 58104  1  0
 59105  1  0
 59106  1  0
 59107  1  0
 60108  1  0
 60109  1  0
 61110  1  0
 61111  1  0
 61112  1  0
 62113  1  0
M  END

