
     RDKit          3D

110125  0  0  0  0  0  0  0  0999 V2000
    0.5409   11.0817    0.7403 C   0  0  0  0  0  0  0  0  0  0  0  0
    1.8009   11.4929    0.9397 C   0  0  0  0  0  0  0  0  0  0  0  0
    2.2079   12.8160    1.4318 C   0  0  0  0  0  0  0  0  0  0  0  0
    1.4342   13.7714    1.7182 O   0  0  0  0  0  0  0  0  0  0  0  0
    3.6664   12.8406    1.5229 C   0  0  0  0  0  0  0  0  0  0  0  0
    4.5145   13.8496    1.9682 C   0  0  0  0  0  0  0  0  0  0  0  0
    5.9008   13.6137    1.9601 C   0  0  0  0  0  0  0  0  0  0  0  0
    6.9811   14.8962    2.5047 Cl  0  0  0  0  0  0  0  0  0  0  0  0
    6.4106   12.3678    1.5147 C   0  0  0  0  0  0  0  0  0  0  0  0
    8.1386   12.0365    1.5170 Cl  0  0  0  0  0  0  0  0  0  0  0  0
    5.5321   11.3706    1.0619 C   0  0  0  0  0  0  0  0  0  0  0  0
    4.1639   11.6338    1.0787 C   0  0  0  0  0  0  0  0  0  0  0  0
    3.0573   10.7730    0.6717 C   0  0  0  0  0  0  0  0  0  0  0  0
    3.1747    9.6935    0.0392 O   0  0  0  0  0  0  0  0  0  0  0  0
    0.1994    9.6892    0.4090 C   0  0  0  0  0  0  0  0  0  0  0  0
   -0.8731    9.2282   -0.8431 S   0  0  0  0  0  0  0  0  0  0  0  0
   -0.6858    7.5988   -0.4892 C   0  0  0  0  0  0  0  0  0  0  0  0
   -0.8723    6.3897   -1.0801 C   0  0  0  0  0  0  0  0  0  0  0  0
   -1.3770    5.8418   -2.6028 S   0  0  0  0  0  0  0  0  0  0  0  0
   -0.7385    4.3138   -2.2258 C   0  0  0  0  0  0  0  0  0  0  0  0
   -0.5649    3.1200   -2.8638 C   0  0  0  0  0  0  0  0  0  0  0  0
   -0.7324    2.7620   -4.2058 C   0  0  0  0  0  0  0  0  0  0  0  0
   -0.2653    1.4855   -4.6376 C   0  0  0  0  0  0  0  0  0  0  0  0
   -0.4247    1.1834   -5.9481 N   0  0  0  0  0  0  0  0  0  0  0  0
   -1.1324    2.5854   -6.4718 S   0  0  0  0  0  0  0  0  0  0  0  0
   -1.2714    3.5712   -5.1492 N   0  0  0  0  0  0  0  0  0  0  0  0
    0.2984    0.6198   -3.6929 C   0  0  0  0  0  0  0  0  0  0  0  0
    0.6194   -0.7064   -3.7759 C   0  0  0  0  0  0  0  0  0  0  0  0
    0.4111   -1.9728   -4.8929 S   0  0  0  0  0  0  0  0  0  0  0  0
    0.5830   -3.1364   -3.6559 C   0  0  0  0  0  0  0  0  0  0  0  0
    0.4686   -4.5290   -3.6106 C   0  0  0  0  0  0  0  0  0  0  0  0
    0.2957   -5.4016   -4.8204 C   0  0  0  0  0  0  0  0  0  0  0  0
    1.6505   -5.7826   -5.4045 C   0  0  0  0  0  0  0  0  0  0  0  0
    0.5577   -4.9900   -2.2844 C   0  0  0  0  0  0  0  0  0  0  0  0
    0.7440   -3.6802   -1.2151 S   0  0  0  0  0  0  0  0  0  0  0  0
    0.7405   -2.5340   -2.4335 C   0  0  0  0  0  0  0  0  0  0  0  0
    0.7776   -1.1506   -2.5012 C   0  0  0  0  0  0  0  0  0  0  0  0
    0.5699   -0.1831   -1.5691 N   0  0  0  0  0  0  0  0  0  0  0  0
    0.3669    0.9453   -2.3262 C   0  0  0  0  0  0  0  0  0  0  0  0
    0.0369    2.2730   -1.9233 C   0  0  0  0  0  0  0  0  0  0  0  0
    0.3516    2.9677   -0.7780 N   0  0  0  0  0  0  0  0  0  0  0  0
   -0.1200    4.2307   -1.0103 C   0  0  0  0  0  0  0  0  0  0  0  0
   -0.1341    5.4766   -0.3520 C   0  0  0  0  0  0  0  0  0  0  0  0
    0.5813    6.0993    0.6439 N   0  0  0  0  0  0  0  0  0  0  0  0
    0.1804    7.3946    0.5319 C   0  0  0  0  0  0  0  0  0  0  0  0
    0.7053    8.5637    1.0758 C   0  0  0  0  0  0  0  0  0  0  0  0
    1.8469    5.7211    1.2822 C   0  0  0  0  0  0  0  0  0  0  0  0
    3.0028    5.8088    0.2882 C   0  0  0  0  0  0  0  0  0  0  0  0
    1.2074    2.5305    0.3234 C   0  0  0  0  0  0  0  0  0  0  0  0
    0.4581    2.5599    1.6629 C   0  0  0  0  0  0  0  0  0  0  0  0
   -0.0571   -0.4775   -0.2718 C   0  0  0  0  0  0  0  0  0  0  0  0
    0.9603   -1.0046    0.7492 C   0  0  0  0  0  0  0  0  0  0  0  0
    0.4988   -6.3838   -1.8269 C   0  0  0  0  0  0  0  0  0  0  0  0
   -0.5811   -6.8728   -1.1865 C   0  0  0  0  0  0  0  0  0  0  0  0
   -1.8666   -6.1717   -1.0629 C   0  0  0  0  0  0  0  0  0  0  0  0
   -2.2329   -5.1630   -1.7252 O   0  0  0  0  0  0  0  0  0  0  0  0
   -2.6633   -6.8313   -0.0561 C   0  0  0  0  0  0  0  0  0  0  0  0
   -3.9031   -6.3924    0.4645 C   0  0  0  0  0  0  0  0  0  0  0  0
   -4.3448   -7.1271    1.5464 C   0  0  0  0  0  0  0  0  0  0  0  0
   -3.6041   -8.2186    2.1048 C   0  0  0  0  0  0  0  0  0  0  0  0
   -2.3934   -8.6577    1.5927 C   0  0  0  0  0  0  0  0  0  0  0  0
   -1.9442   -7.9464    0.4423 C   0  0  0  0  0  0  0  0  0  0  0  0
   -0.6758   -8.0976   -0.3282 C   0  0  0  0  0  0  0  0  0  0  0  0
    0.1398   -9.1893   -0.3327 C   0  0  0  0  0  0  0  0  0  0  0  0
   -0.1774  -10.3892    0.3968 C   0  0  0  0  0  0  0  0  0  0  0  0
   -0.4272  -11.3612    0.9718 N   0  0  0  0  0  0  0  0  0  0  0  0
    1.3336   -9.2784   -1.1326 C   0  0  0  0  0  0  0  0  0  0  0  0
    2.3036   -9.3645   -1.7637 N   0  0  0  0  0  0  0  0  0  0  0  0
   -4.6279   -8.3792    3.1908 C   0  0  0  0  0  0  0  0  0  0  0  0
   -4.2747   -7.8493    4.6152 C   0  0  0  0  0  0  0  0  0  0  0  0
   -3.3464   -6.6588    4.5145 C   0  0  0  0  0  0  0  0  0  0  0  0
   -4.0596   -5.6632    3.9848 C   0  0  0  0  0  0  0  0  0  0  0  0
   -5.4461   -6.2115    3.7373 C   0  0  0  0  0  0  0  0  0  0  0  0
   -5.5644   -7.1199    4.9475 C   0  0  0  0  0  0  0  0  0  0  0  0
   -5.4000   -7.2785    2.6013 C   0  0  0  0  0  0  0  0  0  0  0  0
   -0.2747   11.7848    0.8695 H   0  0  0  0  0  0  0  0  0  0  0  0
    4.1158   14.8043    2.2949 H   0  0  0  0  0  0  0  0  0  0  0  0
    5.9061   10.4103    0.7252 H   0  0  0  0  0  0  0  0  0  0  0  0
   -0.2626   -6.3222   -4.5437 H   0  0  0  0  0  0  0  0  0  0  0  0
   -0.3001   -4.8636   -5.5908 H   0  0  0  0  0  0  0  0  0  0  0  0
    1.4990   -6.3961   -6.3189 H   0  0  0  0  0  0  0  0  0  0  0  0
    2.2343   -6.3737   -4.6673 H   0  0  0  0  0  0  0  0  0  0  0  0
    2.2224   -4.8702   -5.6788 H   0  0  0  0  0  0  0  0  0  0  0  0
    1.4294    8.6075    1.8724 H   0  0  0  0  0  0  0  0  0  0  0  0
    1.7907    4.7373    1.7559 H   0  0  0  0  0  0  0  0  0  0  0  0
    2.0609    6.4030    2.1324 H   0  0  0  0  0  0  0  0  0  0  0  0
    3.9432    5.4864    0.7839 H   0  0  0  0  0  0  0  0  0  0  0  0
    2.8130    5.1631   -0.5937 H   0  0  0  0  0  0  0  0  0  0  0  0
    3.1234    6.8589   -0.0588 H   0  0  0  0  0  0  0  0  0  0  0  0
    2.1143    3.1549    0.3500 H   0  0  0  0  0  0  0  0  0  0  0  0
    1.6149    1.5259    0.1240 H   0  0  0  0  0  0  0  0  0  0  0  0
   -0.2573    1.7269    1.7606 H   0  0  0  0  0  0  0  0  0  0  0  0
   -0.1137    3.5017    1.7806 H   0  0  0  0  0  0  0  0  0  0  0  0
    1.1867    2.4798    2.4943 H   0  0  0  0  0  0  0  0  0  0  0  0
   -0.8496   -1.2432   -0.4216 H   0  0  0  0  0  0  0  0  0  0  0  0
   -0.5986    0.4048    0.1058 H   0  0  0  0  0  0  0  0  0  0  0  0
    1.8888   -1.3569    0.2512 H   0  0  0  0  0  0  0  0  0  0  0  0
    0.5179   -1.8513    1.3178 H   0  0  0  0  0  0  0  0  0  0  0  0
    1.2297   -0.2239    1.4890 H   0  0  0  0  0  0  0  0  0  0  0  0
    1.4346   -6.9103   -1.8492 H   0  0  0  0  0  0  0  0  0  0  0  0
   -4.4332   -5.5272    0.0919 H   0  0  0  0  0  0  0  0  0  0  0  0
   -1.8350   -9.4344    2.0917 H   0  0  0  0  0  0  0  0  0  0  0  0
   -5.1595   -9.3574    3.1714 H   0  0  0  0  0  0  0  0  0  0  0  0
   -3.9634   -8.6254    5.3436 H   0  0  0  0  0  0  0  0  0  0  0  0
   -2.3267   -6.5851    4.8741 H   0  0  0  0  0  0  0  0  0  0  0  0
   -3.7208   -4.6434    3.8409 H   0  0  0  0  0  0  0  0  0  0  0  0
   -6.2434   -5.4443    3.6349 H   0  0  0  0  0  0  0  0  0  0  0  0
   -6.4666   -7.7769    4.9265 H   0  0  0  0  0  0  0  0  0  0  0  0
   -5.5254   -6.5706    5.9190 H   0  0  0  0  0  0  0  0  0  0  0  0
   -6.3926   -7.5896    2.2091 H   0  0  0  0  0  0  0  0  0  0  0  0
  1  2  2  3
  2  3  1  0
  3  4  2  0
  3  5  1  0
  5  6  2  0
  6  7  1  0
  7  8  1  0
  7  9  2  0
  9 10  1  0
  9 11  1  0
 11 12  2  0
 12 13  1  0
 13 14  2  0
  1 15  1  0
 15 16  1  0
 16 17  1  0
 17 18  1  0
 18 19  1  0
 19 20  1  0
 20 21  1  0
 21 22  1  0
 22 23  1  0
 23 24  2  0
 24 25  1  0
 25 26  1  0
 23 27  1  0
 27 28  1  0
 28 29  1  0
 29 30  1  0
 30 31  1  0
 31 32  1  0
 32 33  1  0
 31 34  2  0
 34 35  1  0
 35 36  1  0
 36 37  1  0
 37 38  1  0
 38 39  1  0
 39 40  1  0
 40 41  1  0
 41 42  1  0
 42 43  1  0
 43 44  1  0
 44 45  1  0
 45 46  1  0
 44 47  1  0
 47 48  1  0
 41 49  1  0
 49 50  1  0
 38 51  1  0
 51 52  1  0
 34 53  1  0
 53 54  2  3
 54 55  1  0
 55 56  2  0
 55 57  1  0
 57 58  2  0
 58 59  1  0
 59 60  2  0
 60 61  1  0
 61 62  2  0
 62 63  1  0
 63 64  2  3
 64 65  1  0
 65 66  3  0
 64 67  1  0
 67 68  3  0
 60 69  1  0
 69 70  1  0
 70 71  1  0
 71 72  2  0
 72 73  1  0
 73 74  1  0
 73 75  1  0
 13  2  1  0
 46 15  2  0
 63 54  1  0
 75 69  1  0
 12  5  1  0
 45 17  2  0
 62 57  1  0
 74 70  1  0
 43 18  2  0
 75 59  1  0
 42 20  2  0
 40 21  2  0
 26 22  2  0
 39 27  2  0
 37 28  2  0
 36 30  2  0
  1 76  1  0
  6 77  1  0
 11 78  1  0
 32 79  1  0
 32 80  1  0
 33 81  1  0
 33 82  1  0
 33 83  1  0
 46 84  1  0
 47 85  1  0
 47 86  1  0
 48 87  1  0
 48 88  1  0
 48 89  1  0
 49 90  1  0
 49 91  1  0
 50 92  1  0
 50 93  1  0
 50 94  1  0
 51 95  1  0
 51 96  1  0
 52 97  1  0
 52 98  1  0
 52 99  1  0
 53100  1  0
 58101  1  0
 61102  1  0
 69103  1  0
 70104  1  0
 71105  1  0
 72106  1  0
 73107  1  0
 74108  1  0
 74109  1  0
 75110  1  0
M  END

