
     RDKit          3D

 93104  0  0  0  0  0  0  0  0999 V2000
    4.1238    4.8645    4.3263 C   0  0  0  0  0  0  0  0  0  0  0  0
    3.0096    5.3377    4.9016 C   0  0  0  0  0  0  0  0  0  0  0  0
    1.6082    5.1937    4.4700 C   0  0  0  0  0  0  0  0  0  0  0  0
    1.1994    4.6412    3.4163 O   0  0  0  0  0  0  0  0  0  0  0  0
    0.7653    5.8940    5.4318 C   0  0  0  0  0  0  0  0  0  0  0  0
   -0.6224    6.0224    5.4592 C   0  0  0  0  0  0  0  0  0  0  0  0
   -1.2054    6.7767    6.4933 C   0  0  0  0  0  0  0  0  0  0  0  0
   -2.9561    6.9411    6.5390 Cl  0  0  0  0  0  0  0  0  0  0  0  0
   -0.3860    7.3815    7.4819 C   0  0  0  0  0  0  0  0  0  0  0  0
   -1.0893    8.3264    8.7876 Cl  0  0  0  0  0  0  0  0  0  0  0  0
    1.0121    7.2378    7.4263 C   0  0  0  0  0  0  0  0  0  0  0  0
    1.5625    6.4847    6.3906 C   0  0  0  0  0  0  0  0  0  0  0  0
    2.9605    6.1761    6.1051 C   0  0  0  0  0  0  0  0  0  0  0  0
    3.9517    6.5707    6.7748 O   0  0  0  0  0  0  0  0  0  0  0  0
    4.1128    3.9782    3.1511 C   0  0  0  0  0  0  0  0  0  0  0  0
    4.7869    4.2243    1.9406 C   0  0  0  0  0  0  0  0  0  0  0  0
    5.5409    5.4826    1.6176 C   0  0  0  0  0  0  0  0  0  0  0  0
    4.5904    6.5695    1.1247 C   0  0  0  0  0  0  0  0  0  0  0  0
    4.5275    3.2117    1.0170 C   0  0  0  0  0  0  0  0  0  0  0  0
    4.9240    2.9877   -0.6327 S   0  0  0  0  0  0  0  0  0  0  0  0
    3.9909    1.5683   -0.6801 C   0  0  0  0  0  0  0  0  0  0  0  0
    3.6786    0.5469   -1.5310 C   0  0  0  0  0  0  0  0  0  0  0  0
    4.1103    0.2286   -2.8221 C   0  0  0  0  0  0  0  0  0  0  0  0
    3.6623   -0.9950   -3.4091 C   0  0  0  0  0  0  0  0  0  0  0  0
    4.0929   -1.2657   -4.6657 N   0  0  0  0  0  0  0  0  0  0  0  0
    5.0339    0.0728   -4.9328 S   0  0  0  0  0  0  0  0  0  0  0  0
    4.9450    0.9994   -3.5616 N   0  0  0  0  0  0  0  0  0  0  0  0
    2.7774   -1.8085   -2.6840 C   0  0  0  0  0  0  0  0  0  0  0  0
    1.9790   -2.8407   -3.0884 C   0  0  0  0  0  0  0  0  0  0  0  0
    1.5355   -3.5085   -4.5872 S   0  0  0  0  0  0  0  0  0  0  0  0
    0.0706   -4.0807   -3.9352 C   0  0  0  0  0  0  0  0  0  0  0  0
   -1.0570   -4.6797   -4.5011 C   0  0  0  0  0  0  0  0  0  0  0  0
   -1.1762   -5.0417   -5.9557 C   0  0  0  0  0  0  0  0  0  0  0  0
   -1.7811   -3.8874   -6.7504 C   0  0  0  0  0  0  0  0  0  0  0  0
   -2.1114   -4.7374   -3.5701 C   0  0  0  0  0  0  0  0  0  0  0  0
   -1.5993   -4.1024   -2.0686 S   0  0  0  0  0  0  0  0  0  0  0  0
   -0.0665   -3.7156   -2.6213 C   0  0  0  0  0  0  0  0  0  0  0  0
    1.0184   -3.0004   -2.1346 C   0  0  0  0  0  0  0  0  0  0  0  0
    1.1301   -2.1004   -1.1220 N   0  0  0  0  0  0  0  0  0  0  0  0
    2.2904   -1.4356   -1.4222 C   0  0  0  0  0  0  0  0  0  0  0  0
    2.8362   -0.2975   -0.7947 C   0  0  0  0  0  0  0  0  0  0  0  0
    2.7344    0.1072    0.5083 N   0  0  0  0  0  0  0  0  0  0  0  0
    3.4127    1.2786    0.5104 C   0  0  0  0  0  0  0  0  0  0  0  0
    3.7345    2.1989    1.4894 C   0  0  0  0  0  0  0  0  0  0  0  0
    3.2797    2.4878    3.0719 S   0  0  0  0  0  0  0  0  0  0  0  0
    2.5599   -0.7531    1.6903 C   0  0  0  0  0  0  0  0  0  0  0  0
    3.9104   -1.1866    2.2591 C   0  0  0  0  0  0  0  0  0  0  0  0
   -0.0281   -1.5267   -0.4130 C   0  0  0  0  0  0  0  0  0  0  0  0
   -0.8362   -0.6129   -1.3319 C   0  0  0  0  0  0  0  0  0  0  0  0
   -3.4454   -5.3046   -3.8343 C   0  0  0  0  0  0  0  0  0  0  0  0
   -4.6031   -4.6721   -3.5603 C   0  0  0  0  0  0  0  0  0  0  0  0
   -4.7456   -3.3441   -2.9499 C   0  0  0  0  0  0  0  0  0  0  0  0
   -3.8865   -2.4236   -2.9434 O   0  0  0  0  0  0  0  0  0  0  0  0
   -6.0904   -3.2284   -2.4297 C   0  0  0  0  0  0  0  0  0  0  0  0
   -6.6246   -2.2121   -1.6390 C   0  0  0  0  0  0  0  0  0  0  0  0
   -7.9341   -2.3559   -1.1597 C   0  0  0  0  0  0  0  0  0  0  0  0
   -8.6315   -1.0970   -0.1544 Cl  0  0  0  0  0  0  0  0  0  0  0  0
   -8.6730   -3.5162   -1.4603 C   0  0  0  0  0  0  0  0  0  0  0  0
   -9.9250   -3.6744   -0.9609 F   0  0  0  0  0  0  0  0  0  0  0  0
   -8.1120   -4.5311   -2.2550 C   0  0  0  0  0  0  0  0  0  0  0  0
   -6.8150   -4.3587   -2.7634 C   0  0  0  0  0  0  0  0  0  0  0  0
   -5.9774   -5.2587   -3.6052 C   0  0  0  0  0  0  0  0  0  0  0  0
   -6.4246   -6.2266   -4.4486 C   0  0  0  0  0  0  0  0  0  0  0  0
   -7.8155   -6.5892   -4.5384 C   0  0  0  0  0  0  0  0  0  0  0  0
   -8.9332   -6.8830   -4.6254 N   0  0  0  0  0  0  0  0  0  0  0  0
   -5.5746   -6.8435   -5.4326 C   0  0  0  0  0  0  0  0  0  0  0  0
   -4.9015   -7.3403   -6.2313 N   0  0  0  0  0  0  0  0  0  0  0  0
    5.0857    5.1714    4.7165 H   0  0  0  0  0  0  0  0  0  0  0  0
   -1.2345    5.5509    4.7007 H   0  0  0  0  0  0  0  0  0  0  0  0
    1.6470    7.6924    8.1767 H   0  0  0  0  0  0  0  0  0  0  0  0
    6.2978    5.2771    0.8321 H   0  0  0  0  0  0  0  0  0  0  0  0
    6.0832    5.8430    2.5167 H   0  0  0  0  0  0  0  0  0  0  0  0
    4.0662    6.2355    0.2034 H   0  0  0  0  0  0  0  0  0  0  0  0
    3.8388    6.8082    1.9067 H   0  0  0  0  0  0  0  0  0  0  0  0
    5.1650    7.4911    0.8941 H   0  0  0  0  0  0  0  0  0  0  0  0
   -0.1741   -5.2868   -6.3687 H   0  0  0  0  0  0  0  0  0  0  0  0
   -1.8143   -5.9419   -6.0729 H   0  0  0  0  0  0  0  0  0  0  0  0
   -1.8492   -4.1709   -7.8225 H   0  0  0  0  0  0  0  0  0  0  0  0
   -1.1390   -2.9845   -6.6597 H   0  0  0  0  0  0  0  0  0  0  0  0
   -2.8003   -3.6524   -6.3748 H   0  0  0  0  0  0  0  0  0  0  0  0
    2.0197   -1.6840    1.4344 H   0  0  0  0  0  0  0  0  0  0  0  0
    1.9814   -0.2091    2.4659 H   0  0  0  0  0  0  0  0  0  0  0  0
    4.5034   -1.7054    1.4765 H   0  0  0  0  0  0  0  0  0  0  0  0
    3.7518   -1.8861    3.1083 H   0  0  0  0  0  0  0  0  0  0  0  0
    4.4800   -0.3112    2.6291 H   0  0  0  0  0  0  0  0  0  0  0  0
   -0.6720   -2.3399   -0.0211 H   0  0  0  0  0  0  0  0  0  0  0  0
    0.2778   -0.9125    0.4478 H   0  0  0  0  0  0  0  0  0  0  0  0
   -1.6618   -0.1410   -0.7534 H   0  0  0  0  0  0  0  0  0  0  0  0
   -1.2784   -1.1860   -2.1721 H   0  0  0  0  0  0  0  0  0  0  0  0
   -0.1866    0.1880   -1.7450 H   0  0  0  0  0  0  0  0  0  0  0  0
   -3.4494   -6.3092   -4.2206 H   0  0  0  0  0  0  0  0  0  0  0  0
   -6.0371   -1.3380   -1.3877 H   0  0  0  0  0  0  0  0  0  0  0  0
   -8.6814   -5.4302   -2.4253 H   0  0  0  0  0  0  0  0  0  0  0  0
  1  2  2  3
  2  3  1  0
  3  4  2  0
  3  5  1  0
  5  6  2  0
  6  7  1  0
  7  8  1  0
  7  9  2  0
  9 10  1  0
  9 11  1  0
 11 12  2  0
 12 13  1  0
 13 14  2  0
  1 15  1  0
 15 16  2  0
 16 17  1  0
 17 18  1  0
 16 19  1  0
 19 20  1  0
 20 21  1  0
 21 22  1  0
 22 23  1  0
 23 24  1  0
 24 25  2  0
 25 26  1  0
 26 27  1  0
 24 28  1  0
 28 29  1  0
 29 30  1  0
 30 31  1  0
 31 32  1  0
 32 33  1  0
 33 34  1  0
 32 35  2  0
 35 36  1  0
 36 37  1  0
 37 38  1  0
 38 39  1  0
 39 40  1  0
 40 41  1  0
 41 42  1  0
 42 43  1  0
 43 44  1  0
 44 45  1  0
 42 46  1  0
 46 47  1  0
 39 48  1  0
 48 49  1  0
 35 50  1  0
 50 51  2  3
 51 52  1  0
 52 53  2  0
 52 54  1  0
 54 55  2  0
 55 56  1  0
 56 57  1  0
 56 58  2  0
 58 59  1  0
 58 60  1  0
 60 61  2  0
 61 62  1  0
 62 63  2  3
 63 64  1  0
 64 65  3  0
 63 66  1  0
 66 67  3  0
 13  2  1  0
 45 15  1  0
 62 51  1  0
 12  5  1  0
 44 19  2  0
 61 54  1  0
 43 21  2  0
 41 22  2  0
 27 23  2  0
 40 28  2  0
 38 29  2  0
 37 31  2  0
  1 68  1  0
  6 69  1  0
 11 70  1  0
 17 71  1  0
 17 72  1  0
 18 73  1  0
 18 74  1  0
 18 75  1  0
 33 76  1  0
 33 77  1  0
 34 78  1  0
 34 79  1  0
 34 80  1  0
 46 81  1  0
 46 82  1  0
 47 83  1  0
 47 84  1  0
 47 85  1  0
 48 86  1  0
 48 87  1  0
 49 88  1  0
 49 89  1  0
 49 90  1  0
 50 91  1  0
 55 92  1  0
 60 93  1  0
M  END

