
     RDKit          3D

136152  0  0  0  0  0  0  0  0999 V2000
   -2.0593   -3.9997   -8.7381 C   0  0  0  0  0  0  0  0  0  0  0  0
   -1.4267   -3.8358   -9.9218 C   0  0  0  0  0  0  0  0  0  0  0  0
   -1.9135   -4.5011  -11.1640 C   0  0  0  0  0  0  0  0  0  0  0  0
   -2.7897   -5.3860  -11.2443 O   0  0  0  0  0  0  0  0  0  0  0  0
   -0.9036   -4.2672  -12.1860 C   0  0  0  0  0  0  0  0  0  0  0  0
   -0.6782   -4.6370  -13.8045 S   0  0  0  0  0  0  0  0  0  0  0  0
    0.8638   -3.9003  -13.8324 C   0  0  0  0  0  0  0  0  0  0  0  0
    1.8462   -3.7133  -15.2897 Cl  0  0  0  0  0  0  0  0  0  0  0  0
    1.1753   -3.3578  -12.6025 C   0  0  0  0  0  0  0  0  0  0  0  0
    0.1758   -3.6351  -11.6638 C   0  0  0  0  0  0  0  0  0  0  0  0
   -0.0722   -3.2552  -10.2719 C   0  0  0  0  0  0  0  0  0  0  0  0
    0.7507   -2.4815   -9.4951 C   0  0  0  0  0  0  0  0  0  0  0  0
    0.2421   -1.3389   -8.7938 C   0  0  0  0  0  0  0  0  0  0  0  0
   -0.1728   -0.3813   -8.2920 N   0  0  0  0  0  0  0  0  0  0  0  0
    2.1704   -2.5068   -9.7473 C   0  0  0  0  0  0  0  0  0  0  0  0
    3.3085   -2.6262   -9.9785 N   0  0  0  0  0  0  0  0  0  0  0  0
   -1.5703   -3.5693   -7.4003 C   0  0  0  0  0  0  0  0  0  0  0  0
   -0.3362   -3.9140   -6.7792 C   0  0  0  0  0  0  0  0  0  0  0  0
    0.6298   -4.9627   -7.3058 C   0  0  0  0  0  0  0  0  0  0  0  0
    2.0869   -4.5996   -7.0446 C   0  0  0  0  0  0  0  0  0  0  0  0
   -0.3156   -3.4432   -5.4620 C   0  0  0  0  0  0  0  0  0  0  0  0
    0.8537   -3.4959   -4.2166 S   0  0  0  0  0  0  0  0  0  0  0  0
   -0.2027   -2.7420   -3.1538 C   0  0  0  0  0  0  0  0  0  0  0  0
   -0.2665   -2.4719   -1.8188 C   0  0  0  0  0  0  0  0  0  0  0  0
    0.7632   -2.4845   -0.8732 C   0  0  0  0  0  0  0  0  0  0  0  0
    2.0540   -2.6764   -1.2204 N   0  0  0  0  0  0  0  0  0  0  0  0
    3.0747   -2.5426   -0.3376 C   0  0  0  0  0  0  0  0  0  0  0  0
    4.4511   -2.6202   -0.8925 C   0  0  0  0  0  0  0  0  0  0  0  0
    5.9130   -2.9290   -0.0729 S   0  0  0  0  0  0  0  0  0  0  0  0
    6.9026   -2.7887   -1.4409 C   0  0  0  0  0  0  0  0  0  0  0  0
    8.4092   -2.7844   -1.4385 C   0  0  0  0  0  0  0  0  0  0  0  0
    8.9415   -1.3885   -1.1285 C   0  0  0  0  0  0  0  0  0  0  0  0
    6.1091   -2.4975   -2.5397 C   0  0  0  0  0  0  0  0  0  0  0  0
    4.7484   -2.4038   -2.2425 C   0  0  0  0  0  0  0  0  0  0  0  0
    6.6040   -2.2468   -3.7855 F   0  0  0  0  0  0  0  0  0  0  0  0
    2.7690   -2.1815    1.0041 C   0  0  0  0  0  0  0  0  0  0  0  0
    3.7834   -1.8388    2.0036 C   0  0  0  0  0  0  0  0  0  0  0  0
    4.4892   -2.7441    2.7903 C   0  0  0  0  0  0  0  0  0  0  0  0
    5.3974   -2.1253    3.6473 C   0  0  0  0  0  0  0  0  0  0  0  0
    6.2072   -2.8166    4.4939 F   0  0  0  0  0  0  0  0  0  0  0  0
    5.4122   -0.7458    3.5330 C   0  0  0  0  0  0  0  0  0  0  0  0
    6.2434    0.1929    4.3510 C   0  0  0  0  0  0  0  0  0  0  0  0
    5.7321    0.2980    5.7884 C   0  0  0  0  0  0  0  0  0  0  0  0
    4.2640   -0.2681    2.3944 S   0  0  0  0  0  0  0  0  0  0  0  0
    1.4658   -1.9867    1.3566 N   0  0  0  0  0  0  0  0  0  0  0  0
    0.4586   -2.1306    0.4552 C   0  0  0  0  0  0  0  0  0  0  0  0
   -0.8701   -1.8123    0.7760 C   0  0  0  0  0  0  0  0  0  0  0  0
   -1.3762   -1.3322    1.9416 C   0  0  0  0  0  0  0  0  0  0  0  0
   -0.7874   -0.9107    3.4651 S   0  0  0  0  0  0  0  0  0  0  0  0
   -2.2541   -0.1311    3.8356 C   0  0  0  0  0  0  0  0  0  0  0  0
   -2.6321    0.6302    4.9300 C   0  0  0  0  0  0  0  0  0  0  0  0
   -1.7973    0.6697    6.1722 C   0  0  0  0  0  0  0  0  0  0  0  0
   -0.7187    1.7381    6.0645 C   0  0  0  0  0  0  0  0  0  0  0  0
   -3.8651    1.2975    4.6823 C   0  0  0  0  0  0  0  0  0  0  0  0
   -4.4527    0.7934    3.1295 S   0  0  0  0  0  0  0  0  0  0  0  0
   -3.1521   -0.1989    2.7992 C   0  0  0  0  0  0  0  0  0  0  0  0
   -2.6307   -0.9130    1.7107 C   0  0  0  0  0  0  0  0  0  0  0  0
   -3.0315   -1.1319    0.4325 N   0  0  0  0  0  0  0  0  0  0  0  0
   -4.3564   -0.7535   -0.0542 C   0  0  0  0  0  0  0  0  0  0  0  0
   -4.3166    0.6071   -0.7404 C   0  0  0  0  0  0  0  0  0  0  0  0
   -1.9132   -1.6978   -0.1780 C   0  0  0  0  0  0  0  0  0  0  0  0
   -1.5906   -2.0700   -1.5515 C   0  0  0  0  0  0  0  0  0  0  0  0
   -2.3183   -2.1085   -2.7393 N   0  0  0  0  0  0  0  0  0  0  0  0
   -1.4166   -2.5000   -3.6684 C   0  0  0  0  0  0  0  0  0  0  0  0
   -1.4878   -2.8686   -5.0159 C   0  0  0  0  0  0  0  0  0  0  0  0
   -2.6221   -2.8548   -6.2499 S   0  0  0  0  0  0  0  0  0  0  0  0
   -3.7605   -2.1251   -2.9797 C   0  0  0  0  0  0  0  0  0  0  0  0
   -4.3741   -3.4334   -2.4594 C   0  0  0  0  0  0  0  0  0  0  0  0
   -4.5823    2.3512    5.4708 C   0  0  0  0  0  0  0  0  0  0  0  0
   -4.0028    3.4898    5.8928 C   0  0  0  0  0  0  0  0  0  0  0  0
   -3.2212    3.6295    7.1601 C   0  0  0  0  0  0  0  0  0  0  0  0
   -2.9639    2.7300    7.9824 O   0  0  0  0  0  0  0  0  0  0  0  0
   -3.0102    5.0376    7.4334 C   0  0  0  0  0  0  0  0  0  0  0  0
   -2.0123    5.5942    8.2583 C   0  0  0  0  0  0  0  0  0  0  0  0
   -1.7822    6.9496    7.9978 C   0  0  0  0  0  0  0  0  0  0  0  0
   -2.4888    7.6999    6.9972 C   0  0  0  0  0  0  0  0  0  0  0  0
   -3.5114    7.1659    6.2350 C   0  0  0  0  0  0  0  0  0  0  0  0
   -3.7632    5.7862    6.4920 C   0  0  0  0  0  0  0  0  0  0  0  0
   -4.4939    4.8808    5.6073 C   0  0  0  0  0  0  0  0  0  0  0  0
   -5.6312    5.1717    4.9731 C   0  0  0  0  0  0  0  0  0  0  0  0
   -5.7921    4.7747    3.6023 C   0  0  0  0  0  0  0  0  0  0  0  0
   -5.8032    4.4946    2.4833 N   0  0  0  0  0  0  0  0  0  0  0  0
   -6.5511    6.1186    5.5536 C   0  0  0  0  0  0  0  0  0  0  0  0
   -7.3157    6.7845    6.1250 N   0  0  0  0  0  0  0  0  0  0  0  0
   -1.5606    8.8719    7.1982 C   0  0  0  0  0  0  0  0  0  0  0  0
   -0.4350    9.0931    6.1297 C   0  0  0  0  0  0  0  0  0  0  0  0
    0.0085    7.7689    5.5411 C   0  0  0  0  0  0  0  0  0  0  0  0
    0.6498    7.1132    6.5098 C   0  0  0  0  0  0  0  0  0  0  0  0
    0.6031    8.0071    7.7343 C   0  0  0  0  0  0  0  0  0  0  0  0
    0.7518    9.3395    7.0410 C   0  0  0  0  0  0  0  0  0  0  0  0
   -0.8736    8.1193    8.2670 C   0  0  0  0  0  0  0  0  0  0  0  0
   -3.0588   -4.4554   -8.7590 H   0  0  0  0  0  0  0  0  0  0  0  0
    2.0835   -2.8223  -12.3902 H   0  0  0  0  0  0  0  0  0  0  0  0
    0.3962   -5.9226   -6.8087 H   0  0  0  0  0  0  0  0  0  0  0  0
    0.4897   -5.1238   -8.3911 H   0  0  0  0  0  0  0  0  0  0  0  0
    2.2559   -3.5067   -7.1477 H   0  0  0  0  0  0  0  0  0  0  0  0
    2.7365   -5.1398   -7.7564 H   0  0  0  0  0  0  0  0  0  0  0  0
    2.3786   -4.9196   -6.0365 H   0  0  0  0  0  0  0  0  0  0  0  0
    8.7717   -3.1179   -2.4344 H   0  0  0  0  0  0  0  0  0  0  0  0
    8.7823   -3.5093   -0.6734 H   0  0  0  0  0  0  0  0  0  0  0  0
   10.0510   -1.3982   -1.1491 H   0  0  0  0  0  0  0  0  0  0  0  0
    8.5882   -1.0685   -0.1263 H   0  0  0  0  0  0  0  0  0  0  0  0
    8.5750   -0.6706   -1.8950 H   0  0  0  0  0  0  0  0  0  0  0  0
    4.0039   -2.2062   -2.9910 H   0  0  0  0  0  0  0  0  0  0  0  0
    4.3516   -3.8145    2.7317 H   0  0  0  0  0  0  0  0  0  0  0  0
    7.3073   -0.1545    4.3493 H   0  0  0  0  0  0  0  0  0  0  0  0
    6.2251    1.2131    3.8911 H   0  0  0  0  0  0  0  0  0  0  0  0
    5.8617   -0.6693    6.3119 H   0  0  0  0  0  0  0  0  0  0  0  0
    6.3002    1.0852    6.3346 H   0  0  0  0  0  0  0  0  0  0  0  0
    4.6538    0.5731    5.7854 H   0  0  0  0  0  0  0  0  0  0  0  0
   -1.2974   -0.3041    6.2759 H   0  0  0  0  0  0  0  0  0  0  0  0
   -2.4361    0.7579    7.0687 H   0  0  0  0  0  0  0  0  0  0  0  0
   -0.1679    1.8221    7.0144 H   0  0  0  0  0  0  0  0  0  0  0  0
    0.0071    1.4419    5.2681 H   0  0  0  0  0  0  0  0  0  0  0  0
   -1.1225    2.7378    5.7987 H   0  0  0  0  0  0  0  0  0  0  0  0
   -5.0518   -0.6783    0.7963 H   0  0  0  0  0  0  0  0  0  0  0  0
   -4.8089   -1.5665   -0.6441 H   0  0  0  0  0  0  0  0  0  0  0  0
   -3.4438    0.6972   -1.4343 H   0  0  0  0  0  0  0  0  0  0  0  0
   -5.2648    0.7628   -1.2930 H   0  0  0  0  0  0  0  0  0  0  0  0
   -4.2152    1.4020    0.0304 H   0  0  0  0  0  0  0  0  0  0  0  0
   -4.2339   -1.2066   -2.6213 H   0  0  0  0  0  0  0  0  0  0  0  0
   -3.9685   -2.0811   -4.0518 H   0  0  0  0  0  0  0  0  0  0  0  0
   -3.9864   -3.6686   -1.4410 H   0  0  0  0  0  0  0  0  0  0  0  0
   -4.0848   -4.2607   -3.1430 H   0  0  0  0  0  0  0  0  0  0  0  0
   -5.4791   -3.3486   -2.4304 H   0  0  0  0  0  0  0  0  0  0  0  0
   -5.5836    2.4764    5.0647 H   0  0  0  0  0  0  0  0  0  0  0  0
   -1.3940    5.0115    8.9352 H   0  0  0  0  0  0  0  0  0  0  0  0
   -3.9771    7.7297    5.4304 H   0  0  0  0  0  0  0  0  0  0  0  0
   -2.0609    9.8048    7.5533 H   0  0  0  0  0  0  0  0  0  0  0  0
   -0.6372    9.8878    5.3757 H   0  0  0  0  0  0  0  0  0  0  0  0
   -0.1787    7.3987    4.5383 H   0  0  0  0  0  0  0  0  0  0  0  0
    1.1146    6.1319    6.4291 H   0  0  0  0  0  0  0  0  0  0  0  0
    1.3644    7.7709    8.5105 H   0  0  0  0  0  0  0  0  0  0  0  0
    0.6025   10.2026    7.7393 H   0  0  0  0  0  0  0  0  0  0  0  0
    1.7259    9.4546    6.4928 H   0  0  0  0  0  0  0  0  0  0  0  0
   -0.9921    8.5689    9.2920 H   0  0  0  0  0  0  0  0  0  0  0  0
  1  2  2  3
  2  3  1  0
  3  4  2  0
  3  5  1  0
  5  6  1  0
  6  7  1  0
  7  8  1  0
  7  9  2  0
  9 10  1  0
 10 11  1  0
 11 12  2  3
 12 13  1  0
 13 14  3  0
 12 15  1  0
 15 16  3  0
  1 17  1  0
 17 18  2  0
 18 19  1  0
 19 20  1  0
 18 21  1  0
 21 22  1  0
 22 23  1  0
 23 24  1  0
 24 25  2  0
 25 26  1  0
 26 27  2  0
 27 28  1  0
 28 29  1  0
 29 30  1  0
 30 31  1  0
 31 32  1  0
 30 33  2  0
 33 34  1  0
 33 35  1  0
 27 36  1  0
 36 37  1  0
 37 38  2  0
 38 39  1  0
 39 40  1  0
 39 41  2  0
 41 42  1  0
 42 43  1  0
 41 44  1  0
 36 45  2  0
 45 46  1  0
 46 47  2  0
 47 48  1  0
 48 49  1  0
 49 50  1  0
 50 51  1  0
 51 52  1  0
 52 53  1  0
 51 54  2  0
 54 55  1  0
 55 56  1  0
 56 57  1  0
 57 58  1  0
 58 59  1  0
 59 60  1  0
 58 61  1  0
 61 62  2  0
 62 63  1  0
 63 64  1  0
 64 65  1  0
 65 66  1  0
 63 67  1  0
 67 68  1  0
 54 69  1  0
 69 70  2  3
 70 71  1  0
 71 72  2  0
 71 73  1  0
 73 74  2  0
 74 75  1  0
 75 76  2  0
 76 77  1  0
 77 78  2  0
 78 79  1  0
 79 80  2  3
 80 81  1  0
 81 82  3  0
 80 83  1  0
 83 84  3  0
 76 85  1  0
 85 86  1  0
 86 87  1  0
 87 88  2  0
 88 89  1  0
 89 90  1  0
 89 91  1  0
 11  2  1  0
 66 17  1  0
 79 70  1  0
 91 85  1  0
 10  5  2  0
 65 21  2  0
 78 73  1  0
 90 86  1  0
 64 23  2  0
 91 75  1  0
 62 24  1  0
 46 25  1  0
 61 47  1  0
 34 28  2  0
 44 37  1  0
 57 48  2  0
 56 50  2  0
  1 92  1  0
  9 93  1  0
 19 94  1  0
 19 95  1  0
 20 96  1  0
 20 97  1  0
 20 98  1  0
 31 99  1  0
 31100  1  0
 32101  1  0
 32102  1  0
 32103  1  0
 34104  1  0
 38105  1  0
 42106  1  0
 42107  1  0
 43108  1  0
 43109  1  0
 43110  1  0
 52111  1  0
 52112  1  0
 53113  1  0
 53114  1  0
 53115  1  0
 59116  1  0
 59117  1  0
 60118  1  0
 60119  1  0
 60120  1  0
 67121  1  0
 67122  1  0
 68123  1  0
 68124  1  0
 68125  1  0
 69126  1  0
 74127  1  0
 77128  1  0
 85129  1  0
 86130  1  0
 87131  1  0
 88132  1  0
 89133  1  0
 90134  1  0
 90135  1  0
 91136  1  0
M  END

