
     RDKit          3D

111126  0  0  0  0  0  0  0  0999 V2000
   -4.5077    9.0896    5.5322 C   0  0  0  0  0  0  0  0  0  0  0  0
   -4.1802    8.7985    6.8026 C   0  0  0  0  0  0  0  0  0  0  0  0
   -4.1960    9.8115    7.8678 C   0  0  0  0  0  0  0  0  0  0  0  0
   -4.7538   10.9404    7.8363 O   0  0  0  0  0  0  0  0  0  0  0  0
   -3.3618    9.3038    8.9268 C   0  0  0  0  0  0  0  0  0  0  0  0
   -2.8314    9.8394   10.4240 S   0  0  0  0  0  0  0  0  0  0  0  0
   -1.9602    8.4066   10.7107 C   0  0  0  0  0  0  0  0  0  0  0  0
   -1.0442    8.0858   12.1680 Cl  0  0  0  0  0  0  0  0  0  0  0  0
   -2.0977    7.5170    9.6418 C   0  0  0  0  0  0  0  0  0  0  0  0
   -2.8975    8.0637    8.6374 C   0  0  0  0  0  0  0  0  0  0  0  0
   -3.4570    7.5988    7.3506 C   0  0  0  0  0  0  0  0  0  0  0  0
   -3.6089    6.3033    6.9857 C   0  0  0  0  0  0  0  0  0  0  0  0
   -2.8729    5.2449    7.6235 C   0  0  0  0  0  0  0  0  0  0  0  0
   -2.2845    4.3870    8.1263 N   0  0  0  0  0  0  0  0  0  0  0  0
   -4.6071    5.8889    6.0341 C   0  0  0  0  0  0  0  0  0  0  0  0
   -5.4126    5.5468    5.2768 N   0  0  0  0  0  0  0  0  0  0  0  0
   -4.0509    8.3361    4.3570 C   0  0  0  0  0  0  0  0  0  0  0  0
   -5.0429    8.0143    3.0088 S   0  0  0  0  0  0  0  0  0  0  0  0
   -3.8499    7.1403    2.2275 C   0  0  0  0  0  0  0  0  0  0  0  0
   -3.8242    6.0944    1.3562 C   0  0  0  0  0  0  0  0  0  0  0  0
   -5.0137    5.1221    0.6243 S   0  0  0  0  0  0  0  0  0  0  0  0
   -3.8965    3.8427    0.5551 C   0  0  0  0  0  0  0  0  0  0  0  0
   -3.7900    2.6272   -0.0485 C   0  0  0  0  0  0  0  0  0  0  0  0
   -4.6748    1.9159   -0.8685 C   0  0  0  0  0  0  0  0  0  0  0  0
   -4.2196    0.7112   -1.4789 C   0  0  0  0  0  0  0  0  0  0  0  0
   -5.1036    0.0430   -2.2597 N   0  0  0  0  0  0  0  0  0  0  0  0
   -6.4096    1.0537   -2.1264 S   0  0  0  0  0  0  0  0  0  0  0  0
   -5.9492    2.2975   -1.1331 N   0  0  0  0  0  0  0  0  0  0  0  0
   -2.9107    0.2840   -1.2223 C   0  0  0  0  0  0  0  0  0  0  0  0
   -2.2699   -0.8820   -1.5223 C   0  0  0  0  0  0  0  0  0  0  0  0
   -2.6250   -2.3800   -2.2375 S   0  0  0  0  0  0  0  0  0  0  0  0
   -1.1499   -3.0208   -1.6620 C   0  0  0  0  0  0  0  0  0  0  0  0
   -0.5365   -4.2681   -1.7761 C   0  0  0  0  0  0  0  0  0  0  0  0
   -1.1862   -5.4651   -2.4161 C   0  0  0  0  0  0  0  0  0  0  0  0
   -1.9260   -6.2881   -1.3674 C   0  0  0  0  0  0  0  0  0  0  0  0
    0.7000   -4.2754   -1.0959 C   0  0  0  0  0  0  0  0  0  0  0  0
    0.9639   -2.7772   -0.3260 S   0  0  0  0  0  0  0  0  0  0  0  0
   -0.4578   -2.1068   -0.9080 C   0  0  0  0  0  0  0  0  0  0  0  0
   -1.1002   -0.8819   -0.8378 C   0  0  0  0  0  0  0  0  0  0  0  0
   -0.9268    0.2277   -0.0784 N   0  0  0  0  0  0  0  0  0  0  0  0
   -2.0380    0.9820   -0.3698 C   0  0  0  0  0  0  0  0  0  0  0  0
   -2.4663    2.2188    0.1718 C   0  0  0  0  0  0  0  0  0  0  0  0
   -1.7394    3.2020    0.7943 N   0  0  0  0  0  0  0  0  0  0  0  0
   -2.6845    4.1334    1.0999 C   0  0  0  0  0  0  0  0  0  0  0  0
   -2.6387    5.4345    1.5905 C   0  0  0  0  0  0  0  0  0  0  0  0
   -1.9559    5.9756    2.6391 N   0  0  0  0  0  0  0  0  0  0  0  0
   -2.7268    7.0414    2.9900 C   0  0  0  0  0  0  0  0  0  0  0  0
   -2.7951    7.7264    4.2006 C   0  0  0  0  0  0  0  0  0  0  0  0
   -0.9923    5.3081    3.5177 C   0  0  0  0  0  0  0  0  0  0  0  0
    0.3852    5.9509    3.3907 C   0  0  0  0  0  0  0  0  0  0  0  0
   -0.3122    3.4788    0.5511 C   0  0  0  0  0  0  0  0  0  0  0  0
   -0.1046    4.7207   -0.3148 C   0  0  0  0  0  0  0  0  0  0  0  0
   -0.0925    0.2762    1.1320 C   0  0  0  0  0  0  0  0  0  0  0  0
    1.3965    0.4302    0.7883 C   0  0  0  0  0  0  0  0  0  0  0  0
    1.6610   -5.3853   -1.0380 C   0  0  0  0  0  0  0  0  0  0  0  0
    2.2475   -5.9112   -2.1309 C   0  0  0  0  0  0  0  0  0  0  0  0
    2.2184   -5.3131   -3.4732 C   0  0  0  0  0  0  0  0  0  0  0  0
    1.5453   -4.3122   -3.8364 O   0  0  0  0  0  0  0  0  0  0  0  0
    3.1707   -5.9957   -4.3100 C   0  0  0  0  0  0  0  0  0  0  0  0
    3.4743   -5.6954   -5.6575 C   0  0  0  0  0  0  0  0  0  0  0  0
    4.4686   -6.4873   -6.1957 C   0  0  0  0  0  0  0  0  0  0  0  0
    5.1436   -7.5083   -5.4542 C   0  0  0  0  0  0  0  0  0  0  0  0
    4.8552   -7.8030   -4.1331 C   0  0  0  0  0  0  0  0  0  0  0  0
    3.8173   -7.0103   -3.5576 C   0  0  0  0  0  0  0  0  0  0  0  0
    3.2232   -7.0507   -2.1849 C   0  0  0  0  0  0  0  0  0  0  0  0
    3.4020   -8.0199   -1.2449 C   0  0  0  0  0  0  0  0  0  0  0  0
    4.3800   -9.0656   -1.3809 C   0  0  0  0  0  0  0  0  0  0  0  0
    5.1715   -9.9086   -1.4659 N   0  0  0  0  0  0  0  0  0  0  0  0
    2.6210   -8.0890   -0.0386 C   0  0  0  0  0  0  0  0  0  0  0  0
    2.0020   -8.1425    0.9372 N   0  0  0  0  0  0  0  0  0  0  0  0
    6.0069   -7.8239   -6.6410 C   0  0  0  0  0  0  0  0  0  0  0  0
    7.4848   -7.3278   -6.6251 C   0  0  0  0  0  0  0  0  0  0  0  0
    7.5981   -6.0497   -5.8255 C   0  0  0  0  0  0  0  0  0  0  0  0
    6.9617   -5.1070   -6.5219 C   0  0  0  0  0  0  0  0  0  0  0  0
    6.4371   -5.7749   -7.7716 C   0  0  0  0  0  0  0  0  0  0  0  0
    7.5782   -6.7419   -8.0221 C   0  0  0  0  0  0  0  0  0  0  0  0
    5.3068   -6.7840   -7.4033 C   0  0  0  0  0  0  0  0  0  0  0  0
   -5.0648    9.9958    5.3331 H   0  0  0  0  0  0  0  0  0  0  0  0
   -1.6329    6.5439    9.6106 H   0  0  0  0  0  0  0  0  0  0  0  0
   -0.4269   -6.1068   -2.9092 H   0  0  0  0  0  0  0  0  0  0  0  0
   -1.9015   -5.1347   -3.1999 H   0  0  0  0  0  0  0  0  0  0  0  0
   -2.4270   -7.1453   -1.8626 H   0  0  0  0  0  0  0  0  0  0  0  0
   -2.6958   -5.6691   -0.8597 H   0  0  0  0  0  0  0  0  0  0  0  0
   -1.2133   -6.6889   -0.6145 H   0  0  0  0  0  0  0  0  0  0  0  0
   -2.0216    7.7098    4.9540 H   0  0  0  0  0  0  0  0  0  0  0  0
   -1.3313    5.3759    4.5746 H   0  0  0  0  0  0  0  0  0  0  0  0
   -0.9368    4.2256    3.2907 H   0  0  0  0  0  0  0  0  0  0  0  0
    0.7546    5.8769    2.3489 H   0  0  0  0  0  0  0  0  0  0  0  0
    0.3352    7.0216    3.6820 H   0  0  0  0  0  0  0  0  0  0  0  0
    1.1036    5.4322    4.0625 H   0  0  0  0  0  0  0  0  0  0  0  0
    0.2313    3.5781    1.5085 H   0  0  0  0  0  0  0  0  0  0  0  0
    0.1420    2.6479   -0.0179 H   0  0  0  0  0  0  0  0  0  0  0  0
    0.9689    4.7969   -0.5984 H   0  0  0  0  0  0  0  0  0  0  0  0
   -0.7138    4.6475   -1.2372 H   0  0  0  0  0  0  0  0  0  0  0  0
   -0.3772    5.6423    0.2339 H   0  0  0  0  0  0  0  0  0  0  0  0
   -0.2428   -0.6606    1.7142 H   0  0  0  0  0  0  0  0  0  0  0  0
   -0.4190    1.0959    1.8023 H   0  0  0  0  0  0  0  0  0  0  0  0
    1.9818   -0.3966    1.2434 H   0  0  0  0  0  0  0  0  0  0  0  0
    1.5673    0.4170   -0.3107 H   0  0  0  0  0  0  0  0  0  0  0  0
    1.7947    1.3829    1.1965 H   0  0  0  0  0  0  0  0  0  0  0  0
    1.9668   -5.6897   -0.0535 H   0  0  0  0  0  0  0  0  0  0  0  0
    2.9815   -4.9116   -6.2187 H   0  0  0  0  0  0  0  0  0  0  0  0
    5.4160   -8.5584   -3.6166 H   0  0  0  0  0  0  0  0  0  0  0  0
    5.8562   -8.8483   -7.0509 H   0  0  0  0  0  0  0  0  0  0  0  0
    8.2380   -8.1033   -6.3809 H   0  0  0  0  0  0  0  0  0  0  0  0
    8.1508   -5.8963   -4.9045 H   0  0  0  0  0  0  0  0  0  0  0  0
    6.9070   -4.0538   -6.2686 H   0  0  0  0  0  0  0  0  0  0  0  0
    6.2041   -5.0881   -8.6111 H   0  0  0  0  0  0  0  0  0  0  0  0
    7.3621   -7.4814   -8.8291 H   0  0  0  0  0  0  0  0  0  0  0  0
    8.5511   -6.2350   -8.2270 H   0  0  0  0  0  0  0  0  0  0  0  0
    4.7269   -7.1769   -8.2693 H   0  0  0  0  0  0  0  0  0  0  0  0
  1  2  2  3
  2  3  1  0
  3  4  2  0
  3  5  1  0
  5  6  1  0
  6  7  1  0
  7  8  1  0
  7  9  2  0
  9 10  1  0
 10 11  1  0
 11 12  2  3
 12 13  1  0
 13 14  3  0
 12 15  1  0
 15 16  3  0
  1 17  1  0
 17 18  1  0
 18 19  1  0
 19 20  1  0
 20 21  1  0
 21 22  1  0
 22 23  1  0
 23 24  1  0
 24 25  1  0
 25 26  2  0
 26 27  1  0
 27 28  1  0
 25 29  1  0
 29 30  1  0
 30 31  1  0
 31 32  1  0
 32 33  1  0
 33 34  1  0
 34 35  1  0
 33 36  2  0
 36 37  1  0
 37 38  1  0
 38 39  1  0
 39 40  1  0
 40 41  1  0
 41 42  1  0
 42 43  1  0
 43 44  1  0
 44 45  1  0
 45 46  1  0
 46 47  1  0
 47 48  1  0
 46 49  1  0
 49 50  1  0
 43 51  1  0
 51 52  1  0
 40 53  1  0
 53 54  1  0
 36 55  1  0
 55 56  2  3
 56 57  1  0
 57 58  2  0
 57 59  1  0
 59 60  2  0
 60 61  1  0
 61 62  2  0
 62 63  1  0
 63 64  2  0
 64 65  1  0
 65 66  2  3
 66 67  1  0
 67 68  3  0
 66 69  1  0
 69 70  3  0
 62 71  1  0
 71 72  1  0
 72 73  1  0
 73 74  2  0
 74 75  1  0
 75 76  1  0
 75 77  1  0
 11  2  1  0
 48 17  2  0
 65 56  1  0
 77 71  1  0
 10  5  2  0
 47 19  2  0
 64 59  1  0
 76 72  1  0
 45 20  2  0
 77 61  1  0
 44 22  2  0
 42 23  2  0
 28 24  2  0
 41 29  2  0
 39 30  2  0
 38 32  2  0
  1 78  1  0
  9 79  1  0
 34 80  1  0
 34 81  1  0
 35 82  1  0
 35 83  1  0
 35 84  1  0
 48 85  1  0
 49 86  1  0
 49 87  1  0
 50 88  1  0
 50 89  1  0
 50 90  1  0
 51 91  1  0
 51 92  1  0
 52 93  1  0
 52 94  1  0
 52 95  1  0
 53 96  1  0
 53 97  1  0
 54 98  1  0
 54 99  1  0
 54100  1  0
 55101  1  0
 60102  1  0
 63103  1  0
 71104  1  0
 72105  1  0
 73106  1  0
 74107  1  0
 75108  1  0
 76109  1  0
 76110  1  0
 77111  1  0
M  END

