
     RDKit          3D

 94105  0  0  0  0  0  0  0  0999 V2000
    8.0070   -0.9239   -1.3137 C   0  0  0  0  0  0  0  0  0  0  0  0
    8.2824    0.3859   -1.4629 C   0  0  0  0  0  0  0  0  0  0  0  0
    7.2989    1.4277   -1.8330 C   0  0  0  0  0  0  0  0  0  0  0  0
    6.0461    1.3154   -1.8911 O   0  0  0  0  0  0  0  0  0  0  0  0
    8.0497    2.5976   -2.1983 C   0  0  0  0  0  0  0  0  0  0  0  0
    7.7082    4.0920   -2.8743 S   0  0  0  0  0  0  0  0  0  0  0  0
    9.3539    4.5028   -2.9936 C   0  0  0  0  0  0  0  0  0  0  0  0
    9.9470    6.0088   -3.6632 Cl  0  0  0  0  0  0  0  0  0  0  0  0
   10.1580    3.4620   -2.5182 C   0  0  0  0  0  0  0  0  0  0  0  0
    9.3815    2.3875   -2.0727 C   0  0  0  0  0  0  0  0  0  0  0  0
    9.6420    1.0264   -1.5474 C   0  0  0  0  0  0  0  0  0  0  0  0
   10.8358    0.5487   -1.1176 C   0  0  0  0  0  0  0  0  0  0  0  0
   10.9643   -0.7062   -0.4275 C   0  0  0  0  0  0  0  0  0  0  0  0
   11.0803   -1.7119    0.1344 N   0  0  0  0  0  0  0  0  0  0  0  0
   12.0468    1.3179   -1.2283 C   0  0  0  0  0  0  0  0  0  0  0  0
   13.0257    1.9291   -1.3108 N   0  0  0  0  0  0  0  0  0  0  0  0
    6.6392   -1.4544   -1.3505 C   0  0  0  0  0  0  0  0  0  0  0  0
    6.0557   -2.0969   -2.4542 C   0  0  0  0  0  0  0  0  0  0  0  0
    6.7350   -2.3270   -3.7776 C   0  0  0  0  0  0  0  0  0  0  0  0
    6.5617   -1.1235   -4.7000 C   0  0  0  0  0  0  0  0  0  0  0  0
    4.7126   -2.3749   -2.2041 C   0  0  0  0  0  0  0  0  0  0  0  0
    3.4435   -2.9590   -3.1853 S   0  0  0  0  0  0  0  0  0  0  0  0
    2.3377   -2.7065   -1.9220 C   0  0  0  0  0  0  0  0  0  0  0  0
    1.0044   -2.8185   -1.6759 C   0  0  0  0  0  0  0  0  0  0  0  0
   -0.0245   -3.3077   -2.4801 C   0  0  0  0  0  0  0  0  0  0  0  0
   -1.3470   -3.3029   -1.9660 C   0  0  0  0  0  0  0  0  0  0  0  0
   -2.3256   -3.7699   -2.7822 N   0  0  0  0  0  0  0  0  0  0  0  0
   -1.4178   -4.1735   -4.1070 S   0  0  0  0  0  0  0  0  0  0  0  0
    0.1492   -3.7869   -3.7381 N   0  0  0  0  0  0  0  0  0  0  0  0
   -1.5713   -2.7820   -0.6878 C   0  0  0  0  0  0  0  0  0  0  0  0
   -2.7507   -2.4308   -0.1031 C   0  0  0  0  0  0  0  0  0  0  0  0
   -4.3537   -2.2480   -0.6272 S   0  0  0  0  0  0  0  0  0  0  0  0
   -4.6833   -1.1793    0.6555 C   0  0  0  0  0  0  0  0  0  0  0  0
   -5.7856   -0.3731    0.9491 C   0  0  0  0  0  0  0  0  0  0  0  0
   -6.9916   -0.2658    0.0533 C   0  0  0  0  0  0  0  0  0  0  0  0
   -6.7185    0.6977   -1.0993 C   0  0  0  0  0  0  0  0  0  0  0  0
   -5.4858    0.5009    2.0145 C   0  0  0  0  0  0  0  0  0  0  0  0
   -3.8675    0.2951    2.5013 S   0  0  0  0  0  0  0  0  0  0  0  0
   -3.5629   -0.9481    1.4163 C   0  0  0  0  0  0  0  0  0  0  0  0
   -2.4517   -1.6641    0.9716 C   0  0  0  0  0  0  0  0  0  0  0  0
   -1.1117   -1.5151    1.1517 N   0  0  0  0  0  0  0  0  0  0  0  0
   -0.5467   -2.2458    0.1227 C   0  0  0  0  0  0  0  0  0  0  0  0
    0.8028   -2.3308   -0.3647 C   0  0  0  0  0  0  0  0  0  0  0  0
    2.0213   -2.0090    0.2054 N   0  0  0  0  0  0  0  0  0  0  0  0
    2.9046   -2.2105   -0.8031 C   0  0  0  0  0  0  0  0  0  0  0  0
    4.2680   -2.0138   -0.9562 C   0  0  0  0  0  0  0  0  0  0  0  0
    5.5009   -1.2749   -0.0903 S   0  0  0  0  0  0  0  0  0  0  0  0
    2.4274   -1.9238    1.6143 C   0  0  0  0  0  0  0  0  0  0  0  0
    1.8955   -3.1044    2.4281 C   0  0  0  0  0  0  0  0  0  0  0  0
   -0.5176   -0.5146    2.0423 C   0  0  0  0  0  0  0  0  0  0  0  0
   -0.0016    0.6886    1.2570 C   0  0  0  0  0  0  0  0  0  0  0  0
   -6.3404    1.5847    2.5183 C   0  0  0  0  0  0  0  0  0  0  0  0
   -7.5259    1.3760    3.1202 C   0  0  0  0  0  0  0  0  0  0  0  0
   -8.1737    0.0699    3.3013 C   0  0  0  0  0  0  0  0  0  0  0  0
   -7.6146   -1.0584    3.2587 O   0  0  0  0  0  0  0  0  0  0  0  0
   -9.5777    0.2951    3.5632 C   0  0  0  0  0  0  0  0  0  0  0  0
  -10.6033   -0.6487    3.6470 C   0  0  0  0  0  0  0  0  0  0  0  0
  -11.9206   -0.1952    3.7969 C   0  0  0  0  0  0  0  0  0  0  0  0
  -12.9384   -1.0874    3.8629 F   0  0  0  0  0  0  0  0  0  0  0  0
  -12.1909    1.1854    3.8507 C   0  0  0  0  0  0  0  0  0  0  0  0
  -13.4700    1.6186    3.9656 F   0  0  0  0  0  0  0  0  0  0  0  0
  -11.1441    2.1183    3.7528 C   0  0  0  0  0  0  0  0  0  0  0  0
   -9.8237    1.6561    3.6354 C   0  0  0  0  0  0  0  0  0  0  0  0
   -8.5425    2.4058    3.4879 C   0  0  0  0  0  0  0  0  0  0  0  0
   -8.3089    3.6978    3.8368 C   0  0  0  0  0  0  0  0  0  0  0  0
   -6.9800    4.2408    3.9328 C   0  0  0  0  0  0  0  0  0  0  0  0
   -5.9134    4.6849    4.0099 N   0  0  0  0  0  0  0  0  0  0  0  0
   -9.3540    4.5816    4.2757 C   0  0  0  0  0  0  0  0  0  0  0  0
  -10.1886    5.3010    4.6282 N   0  0  0  0  0  0  0  0  0  0  0  0
    8.7941   -1.6555   -1.2679 H   0  0  0  0  0  0  0  0  0  0  0  0
   11.2352    3.4904   -2.5375 H   0  0  0  0  0  0  0  0  0  0  0  0
    6.3043   -3.2262   -4.2660 H   0  0  0  0  0  0  0  0  0  0  0  0
    7.8187   -2.5224   -3.6222 H   0  0  0  0  0  0  0  0  0  0  0  0
    7.0592   -0.2308   -4.2677 H   0  0  0  0  0  0  0  0  0  0  0  0
    7.0255   -1.3412   -5.6868 H   0  0  0  0  0  0  0  0  0  0  0  0
    5.4837   -0.9039   -4.8544 H   0  0  0  0  0  0  0  0  0  0  0  0
   -7.2442   -1.2651   -0.3536 H   0  0  0  0  0  0  0  0  0  0  0  0
   -7.8730    0.1002    0.6176 H   0  0  0  0  0  0  0  0  0  0  0  0
   -6.4548    1.7013   -0.7070 H   0  0  0  0  0  0  0  0  0  0  0  0
   -7.6273    0.7919   -1.7303 H   0  0  0  0  0  0  0  0  0  0  0  0
   -5.8852    0.3199   -1.7285 H   0  0  0  0  0  0  0  0  0  0  0  0
    3.5321   -1.9757    1.6967 H   0  0  0  0  0  0  0  0  0  0  0  0
    2.1849   -0.9371    2.0350 H   0  0  0  0  0  0  0  0  0  0  0  0
    0.7923   -3.1792    2.3794 H   0  0  0  0  0  0  0  0  0  0  0  0
    2.3289   -4.0510    2.0407 H   0  0  0  0  0  0  0  0  0  0  0  0
    2.1916   -2.9868    3.4908 H   0  0  0  0  0  0  0  0  0  0  0  0
    0.2277   -0.9721    2.7017 H   0  0  0  0  0  0  0  0  0  0  0  0
   -1.2623   -0.1512    2.7712 H   0  0  0  0  0  0  0  0  0  0  0  0
    0.4341    1.4280    1.9616 H   0  0  0  0  0  0  0  0  0  0  0  0
    0.7746    0.3882    0.5253 H   0  0  0  0  0  0  0  0  0  0  0  0
   -0.8439    1.1639    0.7133 H   0  0  0  0  0  0  0  0  0  0  0  0
   -5.9755    2.5814    2.3413 H   0  0  0  0  0  0  0  0  0  0  0  0
  -10.3865   -1.7059    3.5750 H   0  0  0  0  0  0  0  0  0  0  0  0
  -11.3888    3.1651    3.7332 H   0  0  0  0  0  0  0  0  0  0  0  0
  1  2  2  3
  2  3  1  0
  3  4  2  0
  3  5  1  0
  5  6  1  0
  6  7  1  0
  7  8  1  0
  7  9  2  0
  9 10  1  0
 10 11  1  0
 11 12  2  3
 12 13  1  0
 13 14  3  0
 12 15  1  0
 15 16  3  0
  1 17  1  0
 17 18  2  0
 18 19  1  0
 19 20  1  0
 18 21  1  0
 21 22  1  0
 22 23  1  0
 23 24  1  0
 24 25  1  0
 25 26  1  0
 26 27  2  0
 27 28  1  0
 28 29  1  0
 26 30  1  0
 30 31  1  0
 31 32  1  0
 32 33  1  0
 33 34  1  0
 34 35  1  0
 35 36  1  0
 34 37  2  0
 37 38  1  0
 38 39  1  0
 39 40  1  0
 40 41  1  0
 41 42  1  0
 42 43  1  0
 43 44  1  0
 44 45  1  0
 45 46  1  0
 46 47  1  0
 44 48  1  0
 48 49  1  0
 41 50  1  0
 50 51  1  0
 37 52  1  0
 52 53  2  3
 53 54  1  0
 54 55  2  0
 54 56  1  0
 56 57  2  0
 57 58  1  0
 58 59  1  0
 58 60  2  0
 60 61  1  0
 60 62  1  0
 62 63  2  0
 63 64  1  0
 64 65  2  3
 65 66  1  0
 66 67  3  0
 65 68  1  0
 68 69  3  0
 11  2  1  0
 47 17  1  0
 64 53  1  0
 10  5  2  0
 46 21  2  0
 63 56  1  0
 45 23  2  0
 43 24  2  0
 29 25  2  0
 42 30  2  0
 40 31  2  0
 39 33  2  0
  1 70  1  0
  9 71  1  0
 19 72  1  0
 19 73  1  0
 20 74  1  0
 20 75  1  0
 20 76  1  0
 35 77  1  0
 35 78  1  0
 36 79  1  0
 36 80  1  0
 36 81  1  0
 48 82  1  0
 48 83  1  0
 49 84  1  0
 49 85  1  0
 49 86  1  0
 50 87  1  0
 50 88  1  0
 51 89  1  0
 51 90  1  0
 51 91  1  0
 52 92  1  0
 57 93  1  0
 62 94  1  0
M  END

