
     RDKit          3D

139153  0  0  0  0  0  0  0  0999 V2000
   -7.7549   -0.0023   -0.9724 C   0  0  0  0  0  0  0  0  0  0  0  0
   -7.5496    0.2414    0.3387 C   0  0  0  0  0  0  0  0  0  0  0  0
   -6.3880   -0.1995    1.1373 C   0  0  0  0  0  0  0  0  0  0  0  0
   -5.6971   -1.2384    0.9665 O   0  0  0  0  0  0  0  0  0  0  0  0
   -6.3089    0.6447    2.2983 C   0  0  0  0  0  0  0  0  0  0  0  0
   -5.5368    0.5332    3.7741 S   0  0  0  0  0  0  0  0  0  0  0  0
   -6.5295    1.7195    4.4831 C   0  0  0  0  0  0  0  0  0  0  0  0
   -6.4221    2.2196    6.1530 Cl  0  0  0  0  0  0  0  0  0  0  0  0
   -7.5084    2.1393    3.5756 C   0  0  0  0  0  0  0  0  0  0  0  0
   -7.3446    1.5216    2.3343 C   0  0  0  0  0  0  0  0  0  0  0  0
   -8.2171    1.3265    1.1531 C   0  0  0  0  0  0  0  0  0  0  0  0
   -9.3797    1.9833    0.9082 C   0  0  0  0  0  0  0  0  0  0  0  0
  -10.3130    1.5528   -0.0974 C   0  0  0  0  0  0  0  0  0  0  0  0
  -11.0722    1.2114   -0.9029 N   0  0  0  0  0  0  0  0  0  0  0  0
   -9.8014    3.1133    1.7052 C   0  0  0  0  0  0  0  0  0  0  0  0
  -10.1662    4.0258    2.3219 N   0  0  0  0  0  0  0  0  0  0  0  0
   -6.7379   -0.5772   -1.8752 C   0  0  0  0  0  0  0  0  0  0  0  0
   -6.0965    0.2057   -2.8333 C   0  0  0  0  0  0  0  0  0  0  0  0
   -4.9993   -0.4554   -3.3752 C   0  0  0  0  0  0  0  0  0  0  0  0
   -3.6081    0.2102   -4.0073 S   0  0  0  0  0  0  0  0  0  0  0  0
   -2.7190   -1.2076   -3.7514 C   0  0  0  0  0  0  0  0  0  0  0  0
   -1.4061   -1.2642   -3.1565 C   0  0  0  0  0  0  0  0  0  0  0  0
   -0.4542   -0.2378   -3.1205 C   0  0  0  0  0  0  0  0  0  0  0  0
    0.6011   -0.3667   -2.2136 C   0  0  0  0  0  0  0  0  0  0  0  0
    1.5859    0.7265   -1.7760 C   0  0  0  0  0  0  0  0  0  0  0  0
    0.7610    1.9144   -1.2514 C   0  0  0  0  0  0  0  0  0  0  0  0
    0.2693    2.8729   -2.1593 C   0  0  0  0  0  0  0  0  0  0  0  0
   -0.5136    3.9426   -1.7229 C   0  0  0  0  0  0  0  0  0  0  0  0
   -0.8656    4.0476   -0.3786 C   0  0  0  0  0  0  0  0  0  0  0  0
   -0.4587    3.0744    0.5389 C   0  0  0  0  0  0  0  0  0  0  0  0
   -0.8780    3.2034    1.8728 O   0  0  0  0  0  0  0  0  0  0  0  0
   -0.8788    2.1605    2.8425 C   0  0  0  0  0  0  0  0  0  0  0  0
   -1.9667    1.1385    2.5283 C   0  0  0  0  0  0  0  0  0  0  0  0
    0.3572    2.0087    0.1018 C   0  0  0  0  0  0  0  0  0  0  0  0
    2.6031    1.1388   -2.8394 C   0  0  0  0  0  0  0  0  0  0  0  0
    2.9089    0.3121   -3.9360 C   0  0  0  0  0  0  0  0  0  0  0  0
    3.8841    0.6911   -4.8607 C   0  0  0  0  0  0  0  0  0  0  0  0
    4.5705    1.8975   -4.7037 C   0  0  0  0  0  0  0  0  0  0  0  0
    4.2972    2.7383   -3.6056 C   0  0  0  0  0  0  0  0  0  0  0  0
    4.9324    3.9721   -3.4043 O   0  0  0  0  0  0  0  0  0  0  0  0
    5.9922    4.5007   -4.1967 C   0  0  0  0  0  0  0  0  0  0  0  0
    7.3166    3.8692   -3.7936 C   0  0  0  0  0  0  0  0  0  0  0  0
    3.3410    2.3349   -2.6699 C   0  0  0  0  0  0  0  0  0  0  0  0
    2.3090   -0.0438   -0.6939 C   0  0  0  0  0  0  0  0  0  0  0  0
    1.8029   -1.2929   -0.5094 C   0  0  0  0  0  0  0  0  0  0  0  0
    0.7159   -1.5144   -1.4281 C   0  0  0  0  0  0  0  0  0  0  0  0
   -0.2455   -2.5299   -1.4422 C   0  0  0  0  0  0  0  0  0  0  0  0
   -1.3546   -2.3675   -2.3012 C   0  0  0  0  0  0  0  0  0  0  0  0
   -2.6115   -3.2474   -2.4695 C   0  0  0  0  0  0  0  0  0  0  0  0
   -3.2734   -3.8329   -1.2142 C   0  0  0  0  0  0  0  0  0  0  0  0
   -4.3281   -4.7622   -1.3814 C   0  0  0  0  0  0  0  0  0  0  0  0
   -4.8878   -5.4207   -0.2883 C   0  0  0  0  0  0  0  0  0  0  0  0
   -4.3517   -5.2373    0.9874 C   0  0  0  0  0  0  0  0  0  0  0  0
   -3.2926   -4.3512    1.1753 C   0  0  0  0  0  0  0  0  0  0  0  0
   -2.6298   -4.3457    2.4140 O   0  0  0  0  0  0  0  0  0  0  0  0
   -1.2077   -4.3837    2.5367 C   0  0  0  0  0  0  0  0  0  0  0  0
   -0.6237   -5.5612    1.7420 C   0  0  0  0  0  0  0  0  0  0  0  0
   -2.8299   -3.5638    0.0998 C   0  0  0  0  0  0  0  0  0  0  0  0
   -2.2248   -4.4197   -3.3913 C   0  0  0  0  0  0  0  0  0  0  0  0
   -2.9784   -4.7552   -4.5366 C   0  0  0  0  0  0  0  0  0  0  0  0
   -2.5963   -5.8273   -5.3538 C   0  0  0  0  0  0  0  0  0  0  0  0
   -1.4740   -6.5997   -5.0291 C   0  0  0  0  0  0  0  0  0  0  0  0
   -0.7341   -6.3061   -3.8684 C   0  0  0  0  0  0  0  0  0  0  0  0
    0.4131   -7.0210   -3.4910 O   0  0  0  0  0  0  0  0  0  0  0  0
    0.8597   -8.2321   -4.0900 C   0  0  0  0  0  0  0  0  0  0  0  0
    2.2162   -8.6064   -3.5123 C   0  0  0  0  0  0  0  0  0  0  0  0
   -1.1334   -5.2446   -3.0529 C   0  0  0  0  0  0  0  0  0  0  0  0
   -3.4900   -2.2089   -3.1777 C   0  0  0  0  0  0  0  0  0  0  0  0
   -4.7839   -1.7318   -2.9320 C   0  0  0  0  0  0  0  0  0  0  0  0
   -5.9576   -2.0951   -1.7733 S   0  0  0  0  0  0  0  0  0  0  0  0
    2.5321   -2.1255    0.7858 S   0  0  0  0  0  0  0  0  0  0  0  0
    3.5557   -0.8089    1.0830 C   0  0  0  0  0  0  0  0  0  0  0  0
    4.5586   -0.5664    2.0147 C   0  0  0  0  0  0  0  0  0  0  0  0
    5.0824    0.7271    1.8494 C   0  0  0  0  0  0  0  0  0  0  0  0
    4.3189    1.5247    0.5431 S   0  0  0  0  0  0  0  0  0  0  0  0
    3.3168    0.2211    0.2108 C   0  0  0  0  0  0  0  0  0  0  0  0
    6.1857    1.2936    2.6374 C   0  0  0  0  0  0  0  0  0  0  0  0
    6.0486    2.3799    3.4233 C   0  0  0  0  0  0  0  0  0  0  0  0
    4.7934    3.1108    3.6426 C   0  0  0  0  0  0  0  0  0  0  0  0
    3.6368    2.7419    3.2984 O   0  0  0  0  0  0  0  0  0  0  0  0
    5.0885    4.3220    4.3777 C   0  0  0  0  0  0  0  0  0  0  0  0
    4.1994    5.3371    4.7422 C   0  0  0  0  0  0  0  0  0  0  0  0
    4.6970    6.4509    5.4274 C   0  0  0  0  0  0  0  0  0  0  0  0
    3.5833    7.7355    5.8797 Cl  0  0  0  0  0  0  0  0  0  0  0  0
    6.0758    6.5483    5.7165 C   0  0  0  0  0  0  0  0  0  0  0  0
    6.8096    8.0787    6.6154 Br  0  0  0  0  0  0  0  0  0  0  0  0
    6.9505    5.5190    5.3209 C   0  0  0  0  0  0  0  0  0  0  0  0
    6.4385    4.3837    4.6684 C   0  0  0  0  0  0  0  0  0  0  0  0
    7.1236    3.1444    4.1593 C   0  0  0  0  0  0  0  0  0  0  0  0
    8.4077    2.7543    4.4172 C   0  0  0  0  0  0  0  0  0  0  0  0
    8.9249    1.4665    4.0424 C   0  0  0  0  0  0  0  0  0  0  0  0
    9.3666    0.4341    3.7484 N   0  0  0  0  0  0  0  0  0  0  0  0
    9.3335    3.5641    5.1612 C   0  0  0  0  0  0  0  0  0  0  0  0
   10.0948    4.2076    5.7550 N   0  0  0  0  0  0  0  0  0  0  0  0
   -8.5290    0.5383   -1.4918 H   0  0  0  0  0  0  0  0  0  0  0  0
   -8.3066    2.8143    3.8348 H   0  0  0  0  0  0  0  0  0  0  0  0
   -6.3064    1.2587   -2.9995 H   0  0  0  0  0  0  0  0  0  0  0  0
   -0.5905    0.6676   -3.6978 H   0  0  0  0  0  0  0  0  0  0  0  0
    0.5057    2.8027   -3.2162 H   0  0  0  0  0  0  0  0  0  0  0  0
   -0.8684    4.6735   -2.4364 H   0  0  0  0  0  0  0  0  0  0  0  0
   -1.4946    4.8670   -0.0540 H   0  0  0  0  0  0  0  0  0  0  0  0
    0.1207    1.6801    2.9098 H   0  0  0  0  0  0  0  0  0  0  0  0
   -1.1009    2.6017    3.8417 H   0  0  0  0  0  0  0  0  0  0  0  0
   -1.8195    0.7210    1.5137 H   0  0  0  0  0  0  0  0  0  0  0  0
   -2.9529    1.6304    2.5894 H   0  0  0  0  0  0  0  0  0  0  0  0
   -1.9311    0.3121    3.2746 H   0  0  0  0  0  0  0  0  0  0  0  0
    0.6687    1.2541    0.8087 H   0  0  0  0  0  0  0  0  0  0  0  0
    2.4053   -0.6338   -4.0806 H   0  0  0  0  0  0  0  0  0  0  0  0
    4.1161    0.0446   -5.6971 H   0  0  0  0  0  0  0  0  0  0  0  0
    5.3179    2.1622   -5.4364 H   0  0  0  0  0  0  0  0  0  0  0  0
    5.7802    4.3585   -5.2792 H   0  0  0  0  0  0  0  0  0  0  0  0
    6.0475    5.5971   -4.0219 H   0  0  0  0  0  0  0  0  0  0  0  0
    7.2700    2.7637   -3.8966 H   0  0  0  0  0  0  0  0  0  0  0  0
    7.5453    4.1302   -2.7437 H   0  0  0  0  0  0  0  0  0  0  0  0
    8.1350    4.2660   -4.4393 H   0  0  0  0  0  0  0  0  0  0  0  0
    3.1724    2.9653   -1.8065 H   0  0  0  0  0  0  0  0  0  0  0  0
   -0.1870   -3.3476   -0.7172 H   0  0  0  0  0  0  0  0  0  0  0  0
   -4.7260   -4.9748   -2.3687 H   0  0  0  0  0  0  0  0  0  0  0  0
   -5.7044   -6.1176   -0.4379 H   0  0  0  0  0  0  0  0  0  0  0  0
   -4.7373   -5.8186    1.8197 H   0  0  0  0  0  0  0  0  0  0  0  0
   -0.9490   -4.5174    3.6120 H   0  0  0  0  0  0  0  0  0  0  0  0
   -0.7542   -3.4310    2.1901 H   0  0  0  0  0  0  0  0  0  0  0  0
   -0.5083   -5.2858    0.6756 H   0  0  0  0  0  0  0  0  0  0  0  0
   -1.3054   -6.4339    1.8189 H   0  0  0  0  0  0  0  0  0  0  0  0
    0.3687   -5.8540    2.1414 H   0  0  0  0  0  0  0  0  0  0  0  0
   -2.1374   -2.7747    0.2899 H   0  0  0  0  0  0  0  0  0  0  0  0
   -3.8571   -4.1900   -4.8242 H   0  0  0  0  0  0  0  0  0  0  0  0
   -3.1742   -6.0572   -6.2466 H   0  0  0  0  0  0  0  0  0  0  0  0
   -1.2101   -7.4305   -5.6744 H   0  0  0  0  0  0  0  0  0  0  0  0
    0.9607   -8.1182   -5.1887 H   0  0  0  0  0  0  0  0  0  0  0  0
    0.1324   -9.0414   -3.8763 H   0  0  0  0  0  0  0  0  0  0  0  0
    2.9671   -7.8496   -3.8107 H   0  0  0  0  0  0  0  0  0  0  0  0
    2.1467   -8.6595   -2.4088 H   0  0  0  0  0  0  0  0  0  0  0  0
    2.5327   -9.5991   -3.8968 H   0  0  0  0  0  0  0  0  0  0  0  0
   -0.5766   -5.0790   -2.1470 H   0  0  0  0  0  0  0  0  0  0  0  0
    4.8889   -1.2741    2.7682 H   0  0  0  0  0  0  0  0  0  0  0  0
    7.1415    0.8256    2.4883 H   0  0  0  0  0  0  0  0  0  0  0  0
    3.1471    5.2643    4.4939 H   0  0  0  0  0  0  0  0  0  0  0  0
    7.9974    5.6425    5.5236 H   0  0  0  0  0  0  0  0  0  0  0  0
  1  2  2  3
  2  3  1  0
  3  4  2  0
  3  5  1  0
  5  6  1  0
  6  7  1  0
  7  8  1  0
  7  9  2  0
  9 10  1  0
 10 11  1  0
 11 12  2  3
 12 13  1  0
 13 14  3  0
 12 15  1  0
 15 16  3  0
  1 17  1  0
 17 18  2  0
 18 19  1  0
 19 20  1  0
 20 21  1  0
 21 22  1  0
 22 23  2  0
 23 24  1  0
 24 25  1  0
 25 26  1  0
 26 27  2  0
 27 28  1  0
 28 29  2  0
 29 30  1  0
 30 31  1  0
 31 32  1  0
 32 33  1  0
 30 34  2  0
 25 35  1  0
 35 36  2  0
 36 37  1  0
 37 38  2  0
 38 39  1  0
 39 40  1  0
 40 41  1  0
 41 42  1  0
 39 43  2  0
 25 44  1  0
 44 45  2  0
 45 46  1  0
 46 47  1  0
 47 48  2  0
 48 49  1  0
 49 50  1  0
 50 51  2  0
 51 52  1  0
 52 53  2  0
 53 54  1  0
 54 55  1  0
 55 56  1  0
 56 57  1  0
 54 58  2  0
 49 59  1  0
 59 60  2  0
 60 61  1  0
 61 62  2  0
 62 63  1  0
 63 64  1  0
 64 65  1  0
 65 66  1  0
 63 67  2  0
 49 68  1  0
 68 69  1  0
 69 70  1  0
 45 71  1  0
 71 72  1  0
 72 73  1  0
 73 74  2  0
 74 75  1  0
 75 76  1  0
 74 77  1  0
 77 78  2  3
 78 79  1  0
 79 80  2  0
 79 81  1  0
 81 82  2  0
 82 83  1  0
 83 84  1  0
 83 85  2  0
 85 86  1  0
 85 87  1  0
 87 88  2  0
 88 89  1  0
 89 90  2  3
 90 91  1  0
 91 92  3  0
 90 93  1  0
 93 94  3  0
 11  2  1  0
 70 17  1  0
 76 72  2  0
 89 78  1  0
 10  5  2  0
 69 19  2  0
 88 81  1  0
 68 21  2  0
 48 22  1  0
 58 50  1  0
 67 59  1  0
 46 24  2  0
 34 26  1  0
 43 35  1  0
 76 44  1  0
  1 95  1  0
  9 96  1  0
 18 97  1  0
 23 98  1  0
 27 99  1  0
 28100  1  0
 29101  1  0
 32102  1  0
 32103  1  0
 33104  1  0
 33105  1  0
 33106  1  0
 34107  1  0
 36108  1  0
 37109  1  0
 38110  1  0
 41111  1  0
 41112  1  0
 42113  1  0
 42114  1  0
 42115  1  0
 43116  1  0
 47117  1  0
 51118  1  0
 52119  1  0
 53120  1  0
 56121  1  0
 56122  1  0
 57123  1  0
 57124  1  0
 57125  1  0
 58126  1  0
 60127  1  0
 61128  1  0
 62129  1  0
 65130  1  0
 65131  1  0
 66132  1  0
 66133  1  0
 66134  1  0
 67135  1  0
 73136  1  0
 77137  1  0
 82138  1  0
 87139  1  0
M  END

