
     RDKit          3D

120133  0  0  0  0  0  0  0  0999 V2000
    3.5673   -4.3837   -5.0947 C   0  0  0  0  0  0  0  0  0  0  0  0
    4.4177   -5.1632   -4.3975 C   0  0  0  0  0  0  0  0  0  0  0  0
    4.7507   -5.0019   -2.9757 C   0  0  0  0  0  0  0  0  0  0  0  0
    4.4364   -4.0320   -2.2358 O   0  0  0  0  0  0  0  0  0  0  0  0
    5.4436   -6.1912   -2.5326 C   0  0  0  0  0  0  0  0  0  0  0  0
    5.8760   -6.5035   -1.2438 C   0  0  0  0  0  0  0  0  0  0  0  0
    6.4913   -7.7427   -1.0249 C   0  0  0  0  0  0  0  0  0  0  0  0
    6.6347   -8.6649   -2.0814 C   0  0  0  0  0  0  0  0  0  0  0  0
    7.3262   -9.9753   -1.8470 C   0  0  0  0  0  0  0  0  0  0  0  0
    6.1793   -8.3280   -3.3731 C   0  0  0  0  0  0  0  0  0  0  0  0
    5.6074   -7.0615   -3.5940 C   0  0  0  0  0  0  0  0  0  0  0  0
    5.0663   -6.4369   -4.8398 C   0  0  0  0  0  0  0  0  0  0  0  0
    5.3419   -6.8101   -6.1178 C   0  0  0  0  0  0  0  0  0  0  0  0
    6.1458   -7.9633   -6.4316 C   0  0  0  0  0  0  0  0  0  0  0  0
    6.8031   -8.8748   -6.7054 N   0  0  0  0  0  0  0  0  0  0  0  0
    4.9594   -6.0179   -7.2596 C   0  0  0  0  0  0  0  0  0  0  0  0
    4.6572   -5.3976   -8.1926 N   0  0  0  0  0  0  0  0  0  0  0  0
    3.0507   -3.1196   -4.5578 C   0  0  0  0  0  0  0  0  0  0  0  0
    3.7197   -1.8849   -4.6002 C   0  0  0  0  0  0  0  0  0  0  0  0
    4.9609   -1.6265   -5.3456 C   0  0  0  0  0  0  0  0  0  0  0  0
    6.1843   -1.9466   -4.7412 C   0  0  0  0  0  0  0  0  0  0  0  0
    7.3850   -1.6954   -5.4062 C   0  0  0  0  0  0  0  0  0  0  0  0
    7.3761   -1.1217   -6.6760 C   0  0  0  0  0  0  0  0  0  0  0  0
    6.1630   -0.8051   -7.2916 C   0  0  0  0  0  0  0  0  0  0  0  0
    4.9421   -1.0508   -6.6385 C   0  0  0  0  0  0  0  0  0  0  0  0
    3.6495   -0.7374   -7.3650 C   0  0  0  0  0  0  0  0  0  0  0  0
    3.3142   -1.8415   -8.3627 C   0  0  0  0  0  0  0  0  0  0  0  0
    3.0578   -0.9324   -3.8316 C   0  0  0  0  0  0  0  0  0  0  0  0
    3.3922    0.6928   -3.4255 S   0  0  0  0  0  0  0  0  0  0  0  0
    2.0210    0.7447   -2.4253 C   0  0  0  0  0  0  0  0  0  0  0  0
    1.2628    1.6695   -1.7612 C   0  0  0  0  0  0  0  0  0  0  0  0
    1.3671    3.0641   -1.6486 C   0  0  0  0  0  0  0  0  0  0  0  0
    0.2823    3.7877   -1.0631 C   0  0  0  0  0  0  0  0  0  0  0  0
    0.4266    5.1337   -0.9615 N   0  0  0  0  0  0  0  0  0  0  0  0
    1.9248    5.3057   -1.6442 S   0  0  0  0  0  0  0  0  0  0  0  0
    2.4316    3.7859   -2.0712 N   0  0  0  0  0  0  0  0  0  0  0  0
   -0.8290    3.0727   -0.5933 C   0  0  0  0  0  0  0  0  0  0  0  0
   -1.8899    3.4502    0.1861 C   0  0  0  0  0  0  0  0  0  0  0  0
   -2.4614    4.8271    0.9986 S   0  0  0  0  0  0  0  0  0  0  0  0
   -3.5053    3.8787    1.9592 C   0  0  0  0  0  0  0  0  0  0  0  0
   -4.4559    4.1527    2.9472 C   0  0  0  0  0  0  0  0  0  0  0  0
   -4.7926    5.5104    3.4181 C   0  0  0  0  0  0  0  0  0  0  0  0
   -3.9097    6.2713    4.2326 C   0  0  0  0  0  0  0  0  0  0  0  0
   -2.6292    5.6992    4.8122 C   0  0  0  0  0  0  0  0  0  0  0  0
   -1.3792    6.3298    4.1948 C   0  0  0  0  0  0  0  0  0  0  0  0
   -4.2701    7.5864    4.5870 C   0  0  0  0  0  0  0  0  0  0  0  0
   -5.4903    8.1225    4.1772 C   0  0  0  0  0  0  0  0  0  0  0  0
   -6.3724    7.3578    3.4127 C   0  0  0  0  0  0  0  0  0  0  0  0
   -6.0236    6.0600    3.0298 C   0  0  0  0  0  0  0  0  0  0  0  0
   -5.0861    2.9633    3.3754 C   0  0  0  0  0  0  0  0  0  0  0  0
   -4.4408    1.6261    2.5379 S   0  0  0  0  0  0  0  0  0  0  0  0
   -3.3806    2.5527    1.6475 C   0  0  0  0  0  0  0  0  0  0  0  0
   -2.4747    2.3114    0.6322 C   0  0  0  0  0  0  0  0  0  0  0  0
   -1.8621    1.1838    0.1896 N   0  0  0  0  0  0  0  0  0  0  0  0
   -0.8885    1.6691   -0.6449 C   0  0  0  0  0  0  0  0  0  0  0  0
    0.1319    0.9667   -1.3227 C   0  0  0  0  0  0  0  0  0  0  0  0
    0.1232   -0.3240   -1.7954 N   0  0  0  0  0  0  0  0  0  0  0  0
    1.3210   -0.4182   -2.4275 C   0  0  0  0  0  0  0  0  0  0  0  0
    1.9051   -1.3762   -3.2398 C   0  0  0  0  0  0  0  0  0  0  0  0
    1.6417   -2.9897   -3.6092 S   0  0  0  0  0  0  0  0  0  0  0  0
   -1.0674   -1.0990   -2.1734 C   0  0  0  0  0  0  0  0  0  0  0  0
   -1.0172   -2.5344   -1.6427 C   0  0  0  0  0  0  0  0  0  0  0  0
   -1.7871   -0.0556    0.9730 C   0  0  0  0  0  0  0  0  0  0  0  0
   -1.0102    0.1633    2.2687 C   0  0  0  0  0  0  0  0  0  0  0  0
   -6.3567    2.8319    4.0931 C   0  0  0  0  0  0  0  0  0  0  0  0
   -6.4083    2.3562    5.3428 C   0  0  0  0  0  0  0  0  0  0  0  0
   -5.4676    2.6642    6.4197 C   0  0  0  0  0  0  0  0  0  0  0  0
   -4.4484    3.4039    6.3157 O   0  0  0  0  0  0  0  0  0  0  0  0
   -6.0401    2.1641    7.6663 C   0  0  0  0  0  0  0  0  0  0  0  0
   -5.6080    2.3797    8.9818 C   0  0  0  0  0  0  0  0  0  0  0  0
   -4.0967    3.2301    9.3102 Cl  0  0  0  0  0  0  0  0  0  0  0  0
   -6.4308    1.9317   10.0363 C   0  0  0  0  0  0  0  0  0  0  0  0
   -5.9081    2.1673   11.7099 Cl  0  0  0  0  0  0  0  0  0  0  0  0
   -7.7078    1.3882    9.7673 C   0  0  0  0  0  0  0  0  0  0  0  0
   -8.7608    0.8847   11.0987 Cl  0  0  0  0  0  0  0  0  0  0  0  0
   -8.1469    1.2424    8.4326 C   0  0  0  0  0  0  0  0  0  0  0  0
   -9.8370    0.8305    8.1118 Cl  0  0  0  0  0  0  0  0  0  0  0  0
   -7.2566    1.5600    7.3902 C   0  0  0  0  0  0  0  0  0  0  0  0
   -7.4718    1.4941    5.9225 C   0  0  0  0  0  0  0  0  0  0  0  0
   -8.0349    0.4444    5.2636 C   0  0  0  0  0  0  0  0  0  0  0  0
   -8.0576    0.3607    3.8257 C   0  0  0  0  0  0  0  0  0  0  0  0
   -8.0746    0.2776    2.6701 N   0  0  0  0  0  0  0  0  0  0  0  0
   -8.3860   -0.7741    5.9534 C   0  0  0  0  0  0  0  0  0  0  0  0
   -8.6566   -1.7600    6.5002 N   0  0  0  0  0  0  0  0  0  0  0  0
    3.2141   -4.6745   -6.0706 H   0  0  0  0  0  0  0  0  0  0  0  0
    5.7506   -5.7976   -0.4270 H   0  0  0  0  0  0  0  0  0  0  0  0
    6.8483   -7.9861   -0.0315 H   0  0  0  0  0  0  0  0  0  0  0  0
    6.8688  -10.7797   -2.4615 H   0  0  0  0  0  0  0  0  0  0  0  0
    8.3985   -9.8800   -2.1175 H   0  0  0  0  0  0  0  0  0  0  0  0
    7.2541  -10.2754   -0.7774 H   0  0  0  0  0  0  0  0  0  0  0  0
    6.2603   -9.0585   -4.1625 H   0  0  0  0  0  0  0  0  0  0  0  0
    6.2111   -2.3784   -3.7476 H   0  0  0  0  0  0  0  0  0  0  0  0
    8.3283   -1.9438   -4.9327 H   0  0  0  0  0  0  0  0  0  0  0  0
    8.3063   -0.9308   -7.1904 H   0  0  0  0  0  0  0  0  0  0  0  0
    6.1688   -0.3704   -8.2831 H   0  0  0  0  0  0  0  0  0  0  0  0
    3.7579    0.2232   -7.9109 H   0  0  0  0  0  0  0  0  0  0  0  0
    2.7987   -0.6109   -6.6644 H   0  0  0  0  0  0  0  0  0  0  0  0
    2.3564   -1.6065   -8.8807 H   0  0  0  0  0  0  0  0  0  0  0  0
    3.2052   -2.8192   -7.8506 H   0  0  0  0  0  0  0  0  0  0  0  0
    4.1119   -1.9205   -9.1313 H   0  0  0  0  0  0  0  0  0  0  0  0
   -2.6156    5.8911    5.9031 H   0  0  0  0  0  0  0  0  0  0  0  0
   -2.5773    4.5981    4.6834 H   0  0  0  0  0  0  0  0  0  0  0  0
   -1.3267    6.1054    3.1245 H   0  0  0  0  0  0  0  0  0  0  0  0
   -0.4830    5.8610    4.6733 H   0  0  0  0  0  0  0  0  0  0  0  0
   -1.3564    7.4266    4.3551 H   0  0  0  0  0  0  0  0  0  0  0  0
   -3.5985    8.1941    5.1749 H   0  0  0  0  0  0  0  0  0  0  0  0
   -5.7563    9.1345    4.4506 H   0  0  0  0  0  0  0  0  0  0  0  0
   -7.3213    7.7760    3.0983 H   0  0  0  0  0  0  0  0  0  0  0  0
   -6.7142    5.4805    2.4329 H   0  0  0  0  0  0  0  0  0  0  0  0
   -1.9892   -0.6020   -1.8085 H   0  0  0  0  0  0  0  0  0  0  0  0
   -1.1519   -1.1168   -3.2807 H   0  0  0  0  0  0  0  0  0  0  0  0
   -0.9977   -3.2548   -2.4889 H   0  0  0  0  0  0  0  0  0  0  0  0
   -1.9226   -2.7549   -1.0369 H   0  0  0  0  0  0  0  0  0  0  0  0
   -0.1200   -2.6970   -1.0099 H   0  0  0  0  0  0  0  0  0  0  0  0
   -1.2589   -0.8416    0.4189 H   0  0  0  0  0  0  0  0  0  0  0  0
   -2.8038   -0.4299    1.1963 H   0  0  0  0  0  0  0  0  0  0  0  0
   -0.9531   -0.7907    2.8358 H   0  0  0  0  0  0  0  0  0  0  0  0
    0.0239    0.5070    2.0343 H   0  0  0  0  0  0  0  0  0  0  0  0
   -1.5026    0.9242    2.9083 H   0  0  0  0  0  0  0  0  0  0  0  0
   -7.2248    2.7497    3.4596 H   0  0  0  0  0  0  0  0  0  0  0  0
  1  2  2  3
  2  3  1  0
  3  4  2  0
  3  5  1  0
  5  6  2  0
  6  7  1  0
  7  8  2  0
  8  9  1  0
  8 10  1  0
 10 11  2  0
 11 12  1  0
 12 13  2  3
 13 14  1  0
 14 15  3  0
 13 16  1  0
 16 17  3  0
  1 18  1  0
 18 19  2  0
 19 20  1  0
 20 21  2  0
 21 22  1  0
 22 23  2  0
 23 24  1  0
 24 25  2  0
 25 26  1  0
 26 27  1  0
 19 28  1  0
 28 29  1  0
 29 30  1  0
 30 31  1  0
 31 32  1  0
 32 33  1  0
 33 34  2  0
 34 35  1  0
 35 36  1  0
 33 37  1  0
 37 38  1  0
 38 39  1  0
 39 40  1  0
 40 41  1  0
 41 42  1  0
 42 43  2  0
 43 44  1  0
 44 45  1  0
 43 46  1  0
 46 47  2  0
 47 48  1  0
 48 49  2  0
 41 50  2  0
 50 51  1  0
 51 52  1  0
 52 53  1  0
 53 54  1  0
 54 55  1  0
 55 56  1  0
 56 57  1  0
 57 58  1  0
 58 59  1  0
 59 60  1  0
 57 61  1  0
 61 62  1  0
 54 63  1  0
 63 64  1  0
 50 65  1  0
 65 66  2  3
 66 67  1  0
 67 68  2  0
 67 69  1  0
 69 70  2  0
 70 71  1  0
 70 72  1  0
 72 73  1  0
 72 74  2  0
 74 75  1  0
 74 76  1  0
 76 77  1  0
 76 78  2  0
 78 79  1  0
 79 80  2  3
 80 81  1  0
 81 82  3  0
 80 83  1  0
 83 84  3  0
 12  2  1  0
 60 18  1  0
 79 66  1  0
 11  5  1  0
 25 20  1  0
 59 28  2  0
 78 69  1  0
 58 30  2  0
 56 31  2  0
 36 32  2  0
 55 37  2  0
 53 38  2  0
 52 40  2  0
 49 42  1  0
  1 85  1  0
  6 86  1  0
  7 87  1  0
  9 88  1  0
  9 89  1  0
  9 90  1  0
 10 91  1  0
 21 92  1  0
 22 93  1  0
 23 94  1  0
 24 95  1  0
 26 96  1  0
 26 97  1  0
 27 98  1  0
 27 99  1  0
 27100  1  0
 44101  1  0
 44102  1  0
 45103  1  0
 45104  1  0
 45105  1  0
 46106  1  0
 47107  1  0
 48108  1  0
 49109  1  0
 61110  1  0
 61111  1  0
 62112  1  0
 62113  1  0
 62114  1  0
 63115  1  0
 63116  1  0
 64117  1  0
 64118  1  0
 64119  1  0
 65120  1  0
M  END

