
     RDKit          3D

 95107  0  0  0  0  0  0  0  0999 V2000
    1.1695   -6.3843    2.5878 C   0  0  0  0  0  0  0  0  0  0  0  0
    2.3625   -6.6162    2.0051 C   0  0  0  0  0  0  0  0  0  0  0  0
    3.1109   -5.6532    1.1828 C   0  0  0  0  0  0  0  0  0  0  0  0
    2.8543   -4.4300    1.0402 O   0  0  0  0  0  0  0  0  0  0  0  0
    4.2441   -6.3255    0.5937 C   0  0  0  0  0  0  0  0  0  0  0  0
    5.1948   -5.8016   -0.2808 C   0  0  0  0  0  0  0  0  0  0  0  0
    6.2064   -6.6409   -0.7518 C   0  0  0  0  0  0  0  0  0  0  0  0
    6.2431   -7.9941   -0.3645 C   0  0  0  0  0  0  0  0  0  0  0  0
    7.3456   -8.8875   -0.8444 C   0  0  0  0  0  0  0  0  0  0  0  0
    5.2772   -8.5006    0.5316 C   0  0  0  0  0  0  0  0  0  0  0  0
    4.2808   -7.6388    1.0278 C   0  0  0  0  0  0  0  0  0  0  0  0
    3.1720   -7.8868    2.0022 C   0  0  0  0  0  0  0  0  0  0  0  0
    3.0380   -8.9729    2.8189 C   0  0  0  0  0  0  0  0  0  0  0  0
    2.0493   -9.0547    3.8606 C   0  0  0  0  0  0  0  0  0  0  0  0
    1.2662   -9.1316    4.7083 N   0  0  0  0  0  0  0  0  0  0  0  0
    3.9597  -10.0810    2.8119 C   0  0  0  0  0  0  0  0  0  0  0  0
    4.6943  -10.9774    2.8257 N   0  0  0  0  0  0  0  0  0  0  0  0
    0.4158   -5.1287    2.4505 C   0  0  0  0  0  0  0  0  0  0  0  0
   -0.1854   -4.2374    3.7796 S   0  0  0  0  0  0  0  0  0  0  0  0
   -0.8893   -3.0940    2.7810 C   0  0  0  0  0  0  0  0  0  0  0  0
   -1.6582   -1.9722    2.8549 C   0  0  0  0  0  0  0  0  0  0  0  0
   -2.2259   -1.3150    3.9482 C   0  0  0  0  0  0  0  0  0  0  0  0
   -3.0327   -0.1674    3.7101 C   0  0  0  0  0  0  0  0  0  0  0  0
   -3.5477    0.4608    4.7962 N   0  0  0  0  0  0  0  0  0  0  0  0
   -2.9510   -0.5219    5.9906 S   0  0  0  0  0  0  0  0  0  0  0  0
   -2.0624   -1.6986    5.2388 N   0  0  0  0  0  0  0  0  0  0  0  0
   -3.1981    0.2740    2.3928 C   0  0  0  0  0  0  0  0  0  0  0  0
   -3.6772    1.4621    1.9241 C   0  0  0  0  0  0  0  0  0  0  0  0
   -3.2964    1.5657    0.6331 C   0  0  0  0  0  0  0  0  0  0  0  0
   -2.6119    0.4772    0.1972 N   0  0  0  0  0  0  0  0  0  0  0  0
   -1.7355    0.5001   -0.9857 C   0  0  0  0  0  0  0  0  0  0  0  0
   -0.2606    0.5613   -0.5928 C   0  0  0  0  0  0  0  0  0  0  0  0
   -2.5944   -0.3640    1.2881 C   0  0  0  0  0  0  0  0  0  0  0  0
   -1.8798   -1.5777    1.5221 C   0  0  0  0  0  0  0  0  0  0  0  0
   -1.3512   -2.5162    0.6610 N   0  0  0  0  0  0  0  0  0  0  0  0
   -0.7154   -3.3867    1.4830 C   0  0  0  0  0  0  0  0  0  0  0  0
    0.0024   -4.5546    1.2388 C   0  0  0  0  0  0  0  0  0  0  0  0
   -1.6830   -2.8225   -0.7373 C   0  0  0  0  0  0  0  0  0  0  0  0
   -3.1915   -2.7821   -0.9877 C   0  0  0  0  0  0  0  0  0  0  0  0
   -3.3969    2.8495    0.1076 C   0  0  0  0  0  0  0  0  0  0  0  0
   -3.8484    3.7505    1.0833 C   0  0  0  0  0  0  0  0  0  0  0  0
   -4.1124    2.9524    2.5707 S   0  0  0  0  0  0  0  0  0  0  0  0
   -3.9389    5.2041    0.8782 C   0  0  0  0  0  0  0  0  0  0  0  0
   -2.9106    5.9178    0.3752 C   0  0  0  0  0  0  0  0  0  0  0  0
   -1.5640    5.3900    0.1179 C   0  0  0  0  0  0  0  0  0  0  0  0
   -1.0038    4.4414    0.7356 O   0  0  0  0  0  0  0  0  0  0  0  0
   -0.9425    6.1932   -0.9098 C   0  0  0  0  0  0  0  0  0  0  0  0
    0.2453    5.8955   -1.6168 C   0  0  0  0  0  0  0  0  0  0  0  0
    0.4872    6.7456   -2.6814 C   0  0  0  0  0  0  0  0  0  0  0  0
   -0.3885    7.8211   -3.0419 C   0  0  0  0  0  0  0  0  0  0  0  0
   -1.5532    8.1164   -2.3490 C   0  0  0  0  0  0  0  0  0  0  0  0
   -1.8084    7.2652   -1.2343 C   0  0  0  0  0  0  0  0  0  0  0  0
   -2.9966    7.2270   -0.3354 C   0  0  0  0  0  0  0  0  0  0  0  0
   -3.8310    8.2555   -0.0489 C   0  0  0  0  0  0  0  0  0  0  0  0
   -3.7051    9.5449   -0.6755 C   0  0  0  0  0  0  0  0  0  0  0  0
   -3.6103   10.5867   -1.1717 N   0  0  0  0  0  0  0  0  0  0  0  0
   -4.8138    8.1800    0.9986 C   0  0  0  0  0  0  0  0  0  0  0  0
   -5.6035    8.1280    1.8424 N   0  0  0  0  0  0  0  0  0  0  0  0
    0.4729    8.1434   -4.2288 C   0  0  0  0  0  0  0  0  0  0  0  0
   -0.0716    7.7082   -5.6232 C   0  0  0  0  0  0  0  0  0  0  0  0
    1.1033    7.7621   -6.5693 C   0  0  0  0  0  0  0  0  0  0  0  0
    1.9202    6.7653   -6.2200 C   0  0  0  0  0  0  0  0  0  0  0  0
    1.2637    6.0600   -5.0560 C   0  0  0  0  0  0  0  0  0  0  0  0
   -0.1884    6.1997   -5.4890 C   0  0  0  0  0  0  0  0  0  0  0  0
    1.3720    7.0452   -3.8536 C   0  0  0  0  0  0  0  0  0  0  0  0
    0.6910   -7.1287    3.1989 H   0  0  0  0  0  0  0  0  0  0  0  0
    5.1480   -4.7677   -0.5919 H   0  0  0  0  0  0  0  0  0  0  0  0
    6.9538   -6.2347   -1.4178 H   0  0  0  0  0  0  0  0  0  0  0  0
    8.0825   -9.0291   -0.0277 H   0  0  0  0  0  0  0  0  0  0  0  0
    6.9326   -9.8713   -1.1493 H   0  0  0  0  0  0  0  0  0  0  0  0
    7.8668   -8.4486   -1.7212 H   0  0  0  0  0  0  0  0  0  0  0  0
    5.3123   -9.5428    0.7846 H   0  0  0  0  0  0  0  0  0  0  0  0
   -1.9701   -0.3268   -1.6644 H   0  0  0  0  0  0  0  0  0  0  0  0
   -1.9400    1.3899   -1.6098 H   0  0  0  0  0  0  0  0  0  0  0  0
    0.0490   -0.3592   -0.0568 H   0  0  0  0  0  0  0  0  0  0  0  0
   -0.0839    1.4394    0.0645 H   0  0  0  0  0  0  0  0  0  0  0  0
    0.3625    0.6658   -1.5062 H   0  0  0  0  0  0  0  0  0  0  0  0
    0.2191   -4.9622    0.2618 H   0  0  0  0  0  0  0  0  0  0  0  0
   -1.3671   -3.8553   -0.9800 H   0  0  0  0  0  0  0  0  0  0  0  0
   -1.0989   -2.1928   -1.4282 H   0  0  0  0  0  0  0  0  0  0  0  0
   -3.4073   -3.1235   -2.0242 H   0  0  0  0  0  0  0  0  0  0  0  0
   -3.7082   -3.4536   -0.2696 H   0  0  0  0  0  0  0  0  0  0  0  0
   -3.6026   -1.7621   -0.8736 H   0  0  0  0  0  0  0  0  0  0  0  0
   -3.0836    3.1472   -0.8869 H   0  0  0  0  0  0  0  0  0  0  0  0
   -4.9210    5.6385    0.9886 H   0  0  0  0  0  0  0  0  0  0  0  0
    0.8809    5.0513   -1.3878 H   0  0  0  0  0  0  0  0  0  0  0  0
   -2.2210    8.8862   -2.6941 H   0  0  0  0  0  0  0  0  0  0  0  0
    0.9338    9.1556   -4.1768 H   0  0  0  0  0  0  0  0  0  0  0  0
   -0.9860    8.2392   -5.9607 H   0  0  0  0  0  0  0  0  0  0  0  0
    1.2251    8.4253   -7.4220 H   0  0  0  0  0  0  0  0  0  0  0  0
    2.8166    6.4605   -6.7529 H   0  0  0  0  0  0  0  0  0  0  0  0
    1.6202    5.0231   -4.8631 H   0  0  0  0  0  0  0  0  0  0  0  0
   -0.9222    5.8574   -4.7269 H   0  0  0  0  0  0  0  0  0  0  0  0
   -0.4122    5.6897   -6.4568 H   0  0  0  0  0  0  0  0  0  0  0  0
    2.4053    7.3647   -3.5815 H   0  0  0  0  0  0  0  0  0  0  0  0
  1  2  2  3
  2  3  1  0
  3  4  2  0
  3  5  1  0
  5  6  2  0
  6  7  1  0
  7  8  2  0
  8  9  1  0
  8 10  1  0
 10 11  2  0
 11 12  1  0
 12 13  2  3
 13 14  1  0
 14 15  3  0
 13 16  1  0
 16 17  3  0
  1 18  1  0
 18 19  1  0
 19 20  1  0
 20 21  1  0
 21 22  1  0
 22 23  1  0
 23 24  2  0
 24 25  1  0
 25 26  1  0
 23 27  1  0
 27 28  1  0
 28 29  2  0
 29 30  1  0
 30 31  1  0
 31 32  1  0
 30 33  1  0
 33 34  1  0
 34 35  1  0
 35 36  1  0
 36 37  1  0
 35 38  1  0
 38 39  1  0
 29 40  1  0
 40 41  2  0
 41 42  1  0
 41 43  1  0
 43 44  2  3
 44 45  1  0
 45 46  2  0
 45 47  1  0
 47 48  2  0
 48 49  1  0
 49 50  2  0
 50 51  1  0
 51 52  2  0
 52 53  1  0
 53 54  2  3
 54 55  1  0
 55 56  3  0
 54 57  1  0
 57 58  3  0
 50 59  1  0
 59 60  1  0
 60 61  1  0
 61 62  2  0
 62 63  1  0
 63 64  1  0
 63 65  1  0
 12  2  1  0
 37 18  2  0
 53 44  1  0
 65 59  1  0
 11  5  1  0
 36 20  2  0
 52 47  1  0
 64 60  1  0
 34 21  2  0
 65 49  1  0
 26 22  2  0
 33 27  2  0
 42 28  1  0
  1 66  1  0
  6 67  1  0
  7 68  1  0
  9 69  1  0
  9 70  1  0
  9 71  1  0
 10 72  1  0
 31 73  1  0
 31 74  1  0
 32 75  1  0
 32 76  1  0
 32 77  1  0
 37 78  1  0
 38 79  1  0
 38 80  1  0
 39 81  1  0
 39 82  1  0
 39 83  1  0
 40 84  1  0
 43 85  1  0
 48 86  1  0
 51 87  1  0
 59 88  1  0
 60 89  1  0
 61 90  1  0
 62 91  1  0
 63 92  1  0
 64 93  1  0
 64 94  1  0
 65 95  1  0
M  END

