
     RDKit          3D

 88 99  0  0  0  0  0  0  0  0999 V2000
    1.0060   -1.6496    6.9978 C   0  0  0  0  0  0  0  0  0  0  0  0
    1.2771   -2.8684    7.2291 C   0  0  0  0  0  0  0  0  0  0  0  0
    1.9568   -3.8104    6.3776 C   0  0  0  0  0  0  0  0  0  0  0  0
    2.4681   -3.6212    5.2268 O   0  0  0  0  0  0  0  0  0  0  0  0
    1.9644   -5.0776    7.0763 C   0  0  0  0  0  0  0  0  0  0  0  0
    2.5078   -6.2380    6.6737 C   0  0  0  0  0  0  0  0  0  0  0  0
    2.4744   -7.3830    7.4843 C   0  0  0  0  0  0  0  0  0  0  0  0
    1.8584   -7.2660    8.7328 C   0  0  0  0  0  0  0  0  0  0  0  0
    1.9249   -8.4732    9.6414 C   0  0  0  0  0  0  0  0  0  0  0  0
    1.3234   -6.0745    9.0864 C   0  0  0  0  0  0  0  0  0  0  0  0
    1.3263   -4.9342    8.3285 C   0  0  0  0  0  0  0  0  0  0  0  0
    0.8888   -3.5780    8.4666 C   0  0  0  0  0  0  0  0  0  0  0  0
    0.5911   -2.9123    9.6695 C   0  0  0  0  0  0  0  0  0  0  0  0
    0.6554   -1.7774    9.8043 C   0  0  0  0  0  0  0  0  0  0  0  0
    0.7274   -0.2783    9.9593 N   0  0  0  0  0  0  0  0  0  0  0  0
   -0.0228   -3.8407   10.7863 C   0  0  0  0  0  0  0  0  0  0  0  0
   -0.4212   -4.4417   11.4857 N   0  0  0  0  0  0  0  0  0  0  0  0
    1.2984   -0.8404    5.8485 C   0  0  0  0  0  0  0  0  0  0  0  0
    2.3186   -0.1542    5.3890 C   0  0  0  0  0  0  0  0  0  0  0  0
    2.2580    0.6282    4.2471 C   0  0  0  0  0  0  0  0  0  0  0  0
    3.3517    1.7083    3.3788 S   0  0  0  0  0  0  0  0  0  0  0  0
    2.2759    2.2072    2.1701 C   0  0  0  0  0  0  0  0  0  0  0  0
    2.1375    2.9930    1.0312 C   0  0  0  0  0  0  0  0  0  0  0  0
    2.9921    3.8350    0.4015 C   0  0  0  0  0  0  0  0  0  0  0  0
    2.5957    4.5079   -0.6960 C   0  0  0  0  0  0  0  0  0  0  0  0
    3.4746    5.3325   -1.2769 N   0  0  0  0  0  0  0  0  0  0  0  0
    4.8490    5.2008   -0.3243 S   0  0  0  0  0  0  0  0  0  0  0  0
    4.2756    4.0970    0.7928 N   0  0  0  0  0  0  0  0  0  0  0  0
    1.2814    4.2599   -1.1471 C   0  0  0  0  0  0  0  0  0  0  0  0
    0.6567    4.6935   -2.2998 C   0  0  0  0  0  0  0  0  0  0  0  0
   -0.5391    4.1200   -2.3718 C   0  0  0  0  0  0  0  0  0  0  0  0
   -0.7146    3.3100   -1.2739 N   0  0  0  0  0  0  0  0  0  0  0  0
   -1.8756    2.4511   -1.0870 C   0  0  0  0  0  0  0  0  0  0  0  0
   -1.6242    1.0724   -1.7110 C   0  0  0  0  0  0  0  0  0  0  0  0
    0.3980    3.4136   -0.5357 C   0  0  0  0  0  0  0  0  0  0  0  0
    0.8088    2.7693    0.5960 C   0  0  0  0  0  0  0  0  0  0  0  0
    0.2254    1.9219    1.4477 N   0  0  0  0  0  0  0  0  0  0  0  0
    1.1469    1.5608    2.4350 C   0  0  0  0  0  0  0  0  0  0  0  0
    1.1918    0.7476    3.5412 C   0  0  0  0  0  0  0  0  0  0  0  0
   -0.0172   -0.4101    4.5451 Se  0  0  0  0  0  2  0  0  0  0  0  0
   -1.1337    1.5059    1.5089 C   0  0  0  0  0  0  0  0  0  0  0  0
   -1.9915    2.4146    2.3728 C   0  0  0  0  0  0  0  0  0  0  0  0
   -1.2565    4.3892   -3.5368 C   0  0  0  0  0  0  0  0  0  0  0  0
   -0.7949    5.1550   -4.4753 C   0  0  0  0  0  0  0  0  0  0  0  0
    0.7619    5.5864   -3.7848 S   0  0  0  0  0  0  0  0  0  0  0  0
   -1.4453    5.3903   -5.6565 C   0  0  0  0  0  0  0  0  0  0  0  0
   -2.5724    4.9197   -6.0217 C   0  0  0  0  0  0  0  0  0  0  0  0
   -2.9428    3.7990   -4.2593 Se  0  0  0  0  0  2  0  0  0  0  0  0
   -3.6483    4.5186   -6.8880 C   0  0  0  0  0  0  0  0  0  0  0  0
   -3.2383    3.6525   -7.8716 C   0  0  0  0  0  0  0  0  0  0  0  0
   -1.9947    3.1051   -8.2724 C   0  0  0  0  0  0  0  0  0  0  0  0
   -0.9246    3.8277   -8.3547 O   0  0  0  0  0  0  0  0  0  0  0  0
   -2.0571    1.6959   -8.5453 C   0  0  0  0  0  0  0  0  0  0  0  0
   -1.1013    0.7888   -8.9497 C   0  0  0  0  0  0  0  0  0  0  0  0
   -1.3646   -0.5500   -9.1815 C   0  0  0  0  0  0  0  0  0  0  0  0
   -0.4052   -1.3989   -9.5430 F   0  0  0  0  0  0  0  0  0  0  0  0
   -2.6907   -0.9697   -8.9688 C   0  0  0  0  0  0  0  0  0  0  0  0
   -3.0242   -2.2299   -9.1579 F   0  0  0  0  0  0  0  0  0  0  0  0
   -3.6485   -0.0428   -8.5567 C   0  0  0  0  0  0  0  0  0  0  0  0
   -3.3473    1.2839   -8.3316 C   0  0  0  0  0  0  0  0  0  0  0  0
   -4.1596    2.4437   -7.9066 C   0  0  0  0  0  0  0  0  0  0  0  0
   -5.4859    2.3535   -7.7478 C   0  0  0  0  0  0  0  0  0  0  0  0
   -6.3814    3.3197   -7.5769 C   0  0  0  0  0  0  0  0  0  0  0  0
   -7.3060    4.3088   -7.4248 N   0  0  0  0  0  0  0  0  0  0  0  0
   -5.8615    1.1606   -7.1408 C   0  0  0  0  0  0  0  0  0  0  0  0
   -6.2352   -0.0274   -6.5308 N   0  0  0  0  0  0  0  0  0  0  0  0
    0.3505   -1.1356    7.7565 H   0  0  0  0  0  0  0  0  0  0  0  0
    3.0138   -6.4082    5.6994 H   0  0  0  0  0  0  0  0  0  0  0  0
    2.9075   -8.2949    7.1405 H   0  0  0  0  0  0  0  0  0  0  0  0
    0.9985   -8.5550   10.2830 H   0  0  0  0  0  0  0  0  0  0  0  0
    2.8756   -8.4135   10.2094 H   0  0  0  0  0  0  0  0  0  0  0  0
    1.9298   -9.4027    8.9827 H   0  0  0  0  0  0  0  0  0  0  0  0
    0.8310   -6.0218   10.0708 H   0  0  0  0  0  0  0  0  0  0  0  0
    3.3005   -0.2046    5.9810 H   0  0  0  0  0  0  0  0  0  0  0  0
   -2.6583    2.8365   -1.8791 H   0  0  0  0  0  0  0  0  0  0  0  0
   -2.5012    2.5441   -0.2632 H   0  0  0  0  0  0  0  0  0  0  0  0
   -1.4488    1.1447   -2.8326 H   0  0  0  0  0  0  0  0  0  0  0  0
   -2.4084    0.3375   -1.5657 H   0  0  0  0  0  0  0  0  0  0  0  0
   -0.6038    0.7989   -1.3811 H   0  0  0  0  0  0  0  0  0  0  0  0
   -1.0848    0.5784    2.2541 H   0  0  0  0  0  0  0  0  0  0  0  0
   -1.6301    0.9383    0.7497 H   0  0  0  0  0  0  0  0  0  0  0  0
   -2.9836    2.6440    1.9392 H   0  0  0  0  0  0  0  0  0  0  0  0
   -2.2062    1.9654    3.3549 H   0  0  0  0  0  0  0  0  0  0  0  0
   -1.4019    3.3544    2.6165 H   0  0  0  0  0  0  0  0  0  0  0  0
   -0.9092    6.0865   -6.4408 H   0  0  0  0  0  0  0  0  0  0  0  0
   -4.6254    4.8198   -6.8275 H   0  0  0  0  0  0  0  0  0  0  0  0
   -0.0699    1.1849   -9.0989 H   0  0  0  0  0  0  0  0  0  0  0  0
   -4.6495   -0.4502   -8.4595 H   0  0  0  0  0  0  0  0  0  0  0  0
  1  2  2  3
  2  3  1  0
  3  4  2  0
  3  5  1  0
  5  6  2  0
  6  7  1  0
  7  8  2  0
  8  9  1  0
  8 10  1  0
 10 11  2  0
 11 12  1  0
 12 13  2  3
 13 14  1  0
 14 15  3  0
 13 16  1  0
 16 17  3  0
  1 18  1  0
 18 19  2  0
 19 20  1  0
 20 21  1  0
 21 22  1  0
 22 23  1  0
 23 24  1  0
 24 25  1  0
 25 26  2  0
 26 27  1  0
 27 28  1  0
 25 29  1  0
 29 30  1  0
 30 31  2  0
 31 32  1  0
 32 33  1  0
 33 34  1  0
 32 35  1  0
 35 36  1  0
 36 37  1  0
 37 38  1  0
 38 39  1  0
 39 40  1  0
 37 41  1  0
 41 42  1  0
 31 43  1  0
 43 44  2  0
 44 45  1  0
 44 46  1  0
 46 47  2  0
 47 48  1  0
 47 49  1  0
 49 50  2  3
 50 51  1  0
 51 52  2  0
 51 53  1  0
 53 54  2  0
 54 55  1  0
 55 56  1  0
 55 57  2  0
 57 58  1  0
 57 59  1  0
 59 60  2  0
 60 61  1  0
 61 62  2  3
 62 63  1  0
 63 64  3  0
 62 65  1  0
 65 66  3  0
 12  2  1  0
 40 18  1  0
 48 43  1  0
 61 50  1  0
 11  5  1  0
 39 20  2  0
 60 53  1  0
 38 22  2  0
 36 23  2  0
 28 24  2  0
 35 29  2  0
 45 30  1  0
  1 67  1  0
  6 68  1  0
  7 69  1  0
  9 70  1  0
  9 71  1  0
  9 72  1  0
 10 73  1  0
 19 74  1  0
 33 75  1  0
 33 76  1  0
 34 77  1  0
 34 78  1  0
 34 79  1  0
 41 80  1  0
 41 81  1  0
 42 82  1  0
 42 83  1  0
 42 84  1  0
 46 85  1  0
 49 86  1  0
 54 87  1  0
 59 88  1  0
M  END

