
     RDKit          3D

133149  0  0  0  0  0  0  0  0999 V2000
   -1.5304   -7.2839   -2.2431 C   0  0  0  0  0  0  0  0  0  0  0  0
   -1.4147   -7.8308   -1.0200 C   0  0  0  0  0  0  0  0  0  0  0  0
   -0.4531   -7.4103    0.0133 C   0  0  0  0  0  0  0  0  0  0  0  0
    0.2125   -6.3409    0.0343 O   0  0  0  0  0  0  0  0  0  0  0  0
   -0.3239   -8.4891    0.9720 C   0  0  0  0  0  0  0  0  0  0  0  0
    0.5732   -8.5888    2.0344 C   0  0  0  0  0  0  0  0  0  0  0  0
    0.6250   -9.7873    2.7561 C   0  0  0  0  0  0  0  0  0  0  0  0
   -0.1885  -10.8789    2.3844 C   0  0  0  0  0  0  0  0  0  0  0  0
   -0.1057  -12.1644    3.1488 C   0  0  0  0  0  0  0  0  0  0  0  0
   -1.0968  -10.7449    1.3125 C   0  0  0  0  0  0  0  0  0  0  0  0
   -1.1719   -9.5248    0.6241 C   0  0  0  0  0  0  0  0  0  0  0  0
   -1.9781   -9.1338   -0.5658 C   0  0  0  0  0  0  0  0  0  0  0  0
   -3.1553   -9.6842   -0.9617 C   0  0  0  0  0  0  0  0  0  0  0  0
   -3.9906   -9.0685   -1.9620 C   0  0  0  0  0  0  0  0  0  0  0  0
   -4.6739   -8.5806   -2.7615 N   0  0  0  0  0  0  0  0  0  0  0  0
   -3.7164  -10.8515   -0.3340 C   0  0  0  0  0  0  0  0  0  0  0  0
   -4.1798  -11.7896    0.1609 N   0  0  0  0  0  0  0  0  0  0  0  0
   -0.8934   -6.0080   -2.5920 C   0  0  0  0  0  0  0  0  0  0  0  0
    0.2852   -5.8590   -3.3383 C   0  0  0  0  0  0  0  0  0  0  0  0
    1.0305   -6.9578   -3.9802 C   0  0  0  0  0  0  0  0  0  0  0  0
    1.7323   -7.8629   -3.1712 C   0  0  0  0  0  0  0  0  0  0  0  0
    2.4508   -8.9140   -3.7444 C   0  0  0  0  0  0  0  0  0  0  0  0
    2.4646   -9.0767   -5.1313 C   0  0  0  0  0  0  0  0  0  0  0  0
    1.7644   -8.1882   -5.9468 C   0  0  0  0  0  0  0  0  0  0  0  0
    1.0522   -7.1112   -5.3882 C   0  0  0  0  0  0  0  0  0  0  0  0
    0.2758   -6.1931   -6.3064 C   0  0  0  0  0  0  0  0  0  0  0  0
   -1.1741   -6.6448   -6.4357 C   0  0  0  0  0  0  0  0  0  0  0  0
    0.7175   -4.5360   -3.3244 C   0  0  0  0  0  0  0  0  0  0  0  0
    2.1993   -3.8003   -3.7420 S   0  0  0  0  0  0  0  0  0  0  0  0
    1.6851   -2.3266   -3.0726 C   0  0  0  0  0  0  0  0  0  0  0  0
    2.2948   -1.2236   -2.5409 C   0  0  0  0  0  0  0  0  0  0  0  0
    3.6502   -0.8686   -2.4555 C   0  0  0  0  0  0  0  0  0  0  0  0
    4.0254    0.2057   -1.5895 C   0  0  0  0  0  0  0  0  0  0  0  0
    5.3426    0.5193   -1.5322 N   0  0  0  0  0  0  0  0  0  0  0  0
    5.9438   -0.6216   -2.5727 S   0  0  0  0  0  0  0  0  0  0  0  0
    4.6494   -1.4986   -3.1197 N   0  0  0  0  0  0  0  0  0  0  0  0
    3.0240    0.8811   -0.8801 C   0  0  0  0  0  0  0  0  0  0  0  0
    3.0406    2.0485   -0.1699 C   0  0  0  0  0  0  0  0  0  0  0  0
    4.1429    3.2444    0.3175 S   0  0  0  0  0  0  0  0  0  0  0  0
    2.8593    4.2810    0.7578 C   0  0  0  0  0  0  0  0  0  0  0  0
    2.7967    5.5600    1.3145 C   0  0  0  0  0  0  0  0  0  0  0  0
    3.9711    6.2694    1.8571 C   0  0  0  0  0  0  0  0  0  0  0  0
    4.6045    5.8573    3.0588 C   0  0  0  0  0  0  0  0  0  0  0  0
    4.0474    4.7596    3.9385 C   0  0  0  0  0  0  0  0  0  0  0  0
    3.2183    5.3443    5.0776 C   0  0  0  0  0  0  0  0  0  0  0  0
    5.7568    6.5367    3.4899 C   0  0  0  0  0  0  0  0  0  0  0  0
    6.2773    7.5990    2.7445 C   0  0  0  0  0  0  0  0  0  0  0  0
    5.6507    8.0012    1.5645 C   0  0  0  0  0  0  0  0  0  0  0  0
    4.5041    7.3396    1.1250 C   0  0  0  0  0  0  0  0  0  0  0  0
    1.4681    6.0205    1.3677 C   0  0  0  0  0  0  0  0  0  0  0  0
    0.4204    4.7866    0.8175 S   0  0  0  0  0  0  0  0  0  0  0  0
    1.6449    3.7142    0.4792 C   0  0  0  0  0  0  0  0  0  0  0  0
    1.7489    2.4228    0.0025 C   0  0  0  0  0  0  0  0  0  0  0  0
    0.8605    1.5345   -0.5054 N   0  0  0  0  0  0  0  0  0  0  0  0
    1.6672    0.5420   -1.0008 C   0  0  0  0  0  0  0  0  0  0  0  0
    1.3155   -0.6024   -1.7513 C   0  0  0  0  0  0  0  0  0  0  0  0
    0.1974   -1.3868   -1.6467 N   0  0  0  0  0  0  0  0  0  0  0  0
    0.4464   -2.4028   -2.5126 C   0  0  0  0  0  0  0  0  0  0  0  0
   -0.0992   -3.6728   -2.6446 C   0  0  0  0  0  0  0  0  0  0  0  0
   -1.3952   -4.5009   -1.9765 S   0  0  0  0  0  0  0  0  0  0  0  0
   -0.6552   -1.5192   -0.4555 C   0  0  0  0  0  0  0  0  0  0  0  0
    0.0000   -2.4247    0.5895 C   0  0  0  0  0  0  0  0  0  0  0  0
   -0.5209    1.8521   -0.8973 C   0  0  0  0  0  0  0  0  0  0  0  0
   -1.4428    1.9656    0.3219 C   0  0  0  0  0  0  0  0  0  0  0  0
    0.9965    7.2377    2.0582 C   0  0  0  0  0  0  0  0  0  0  0  0
   -0.2034    7.7806    1.7978 C   0  0  0  0  0  0  0  0  0  0  0  0
   -1.1417    8.1107    2.8709 C   0  0  0  0  0  0  0  0  0  0  0  0
   -0.8298    8.4322    4.0466 O   0  0  0  0  0  0  0  0  0  0  0  0
   -2.4909    7.8373    2.4033 C   0  0  0  0  0  0  0  0  0  0  0  0
   -3.6594    7.6982    3.1888 C   0  0  0  0  0  0  0  0  0  0  0  0
   -4.7349    7.1544    2.5062 C   0  0  0  0  0  0  0  0  0  0  0  0
   -4.6712    6.7723    1.1271 C   0  0  0  0  0  0  0  0  0  0  0  0
   -3.5390    6.9108    0.3487 C   0  0  0  0  0  0  0  0  0  0  0  0
   -2.4280    7.4737    1.0340 C   0  0  0  0  0  0  0  0  0  0  0  0
   -1.0249    7.5685    0.5764 C   0  0  0  0  0  0  0  0  0  0  0  0
   -0.5927    7.7078   -0.7005 C   0  0  0  0  0  0  0  0  0  0  0  0
    0.7843    8.0127   -0.9986 C   0  0  0  0  0  0  0  0  0  0  0  0
    1.8856    8.2636   -1.2456 N   0  0  0  0  0  0  0  0  0  0  0  0
   -1.4983    7.7252   -1.8200 C   0  0  0  0  0  0  0  0  0  0  0  0
   -2.2243    7.7536   -2.7213 N   0  0  0  0  0  0  0  0  0  0  0  0
   -6.0763    6.2611    1.1835 C   0  0  0  0  0  0  0  0  0  0  0  0
   -7.1624    7.1479    0.5078 C   0  0  0  0  0  0  0  0  0  0  0  0
   -8.4868    6.6374    1.0213 C   0  0  0  0  0  0  0  0  0  0  0  0
   -8.5527    6.9834    2.3123 C   0  0  0  0  0  0  0  0  0  0  0  0
   -7.2715    7.7219    2.6246 C   0  0  0  0  0  0  0  0  0  0  0  0
   -7.0887    8.4433    1.2986 C   0  0  0  0  0  0  0  0  0  0  0  0
   -6.1432    6.6495    2.5950 C   0  0  0  0  0  0  0  0  0  0  0  0
   -2.0429   -7.8068   -3.0363 H   0  0  0  0  0  0  0  0  0  0  0  0
    1.2397   -7.7695    2.2793 H   0  0  0  0  0  0  0  0  0  0  0  0
    1.3155   -9.8760    3.5845 H   0  0  0  0  0  0  0  0  0  0  0  0
   -0.4400  -13.0214    2.5221 H   0  0  0  0  0  0  0  0  0  0  0  0
    0.9414  -12.3614    3.4651 H   0  0  0  0  0  0  0  0  0  0  0  0
   -0.7519  -12.1063    4.0477 H   0  0  0  0  0  0  0  0  0  0  0  0
   -1.6880  -11.5960    1.0161 H   0  0  0  0  0  0  0  0  0  0  0  0
    1.7346   -7.7486   -2.0952 H   0  0  0  0  0  0  0  0  0  0  0  0
    2.9930   -9.6081   -3.1143 H   0  0  0  0  0  0  0  0  0  0  0  0
    3.0196   -9.8943   -5.5731 H   0  0  0  0  0  0  0  0  0  0  0  0
    1.7775   -8.3386   -7.0198 H   0  0  0  0  0  0  0  0  0  0  0  0
    0.3069   -5.1463   -5.9387 H   0  0  0  0  0  0  0  0  0  0  0  0
    0.7394   -6.1775   -7.3183 H   0  0  0  0  0  0  0  0  0  0  0  0
   -1.7397   -5.9088   -7.0443 H   0  0  0  0  0  0  0  0  0  0  0  0
   -1.6549   -6.7210   -5.4384 H   0  0  0  0  0  0  0  0  0  0  0  0
   -1.2222   -7.6341   -6.9399 H   0  0  0  0  0  0  0  0  0  0  0  0
    4.8829    4.1585    4.3650 H   0  0  0  0  0  0  0  0  0  0  0  0
    3.4137    4.0482    3.3684 H   0  0  0  0  0  0  0  0  0  0  0  0
    3.8512    6.0030    5.7110 H   0  0  0  0  0  0  0  0  0  0  0  0
    2.8195    4.5243    5.7102 H   0  0  0  0  0  0  0  0  0  0  0  0
    2.3652    5.9321    4.6754 H   0  0  0  0  0  0  0  0  0  0  0  0
    6.2474    6.2520    4.4107 H   0  0  0  0  0  0  0  0  0  0  0  0
    7.1695    8.1073    3.0824 H   0  0  0  0  0  0  0  0  0  0  0  0
    6.0594    8.8196    0.9873 H   0  0  0  0  0  0  0  0  0  0  0  0
    4.0364    7.6537    0.2036 H   0  0  0  0  0  0  0  0  0  0  0  0
   -0.8101   -0.5517    0.0299 H   0  0  0  0  0  0  0  0  0  0  0  0
   -1.6507   -1.9189   -0.7413 H   0  0  0  0  0  0  0  0  0  0  0  0
   -0.6771   -2.5113    1.4688 H   0  0  0  0  0  0  0  0  0  0  0  0
    0.1919   -3.4388    0.1886 H   0  0  0  0  0  0  0  0  0  0  0  0
    0.9650   -1.9869    0.9218 H   0  0  0  0  0  0  0  0  0  0  0  0
   -0.5250    2.8139   -1.4601 H   0  0  0  0  0  0  0  0  0  0  0  0
   -0.9127    1.0847   -1.5953 H   0  0  0  0  0  0  0  0  0  0  0  0
   -2.3757    1.3828    0.1401 H   0  0  0  0  0  0  0  0  0  0  0  0
   -1.7403    3.0214    0.4923 H   0  0  0  0  0  0  0  0  0  0  0  0
   -0.9610    1.5703    1.2424 H   0  0  0  0  0  0  0  0  0  0  0  0
    1.4726    7.4598    3.0123 H   0  0  0  0  0  0  0  0  0  0  0  0
   -3.6913    7.9151    4.2483 H   0  0  0  0  0  0  0  0  0  0  0  0
   -3.5028    6.5277   -0.6583 H   0  0  0  0  0  0  0  0  0  0  0  0
   -6.1598    5.1673    0.9976 H   0  0  0  0  0  0  0  0  0  0  0  0
   -7.0859    7.2449   -0.5962 H   0  0  0  0  0  0  0  0  0  0  0  0
   -9.2703    6.1487    0.4489 H   0  0  0  0  0  0  0  0  0  0  0  0
   -9.3983    6.8250    2.9700 H   0  0  0  0  0  0  0  0  0  0  0  0
   -7.2975    8.3633    3.5284 H   0  0  0  0  0  0  0  0  0  0  0  0
   -7.9153    9.1547    1.0641 H   0  0  0  0  0  0  0  0  0  0  0  0
   -6.1177    8.9773    1.1977 H   0  0  0  0  0  0  0  0  0  0  0  0
   -6.2656    5.7959    3.2967 H   0  0  0  0  0  0  0  0  0  0  0  0
  1  2  2  3
  2  3  1  0
  3  4  2  0
  3  5  1  0
  5  6  2  0
  6  7  1  0
  7  8  2  0
  8  9  1  0
  8 10  1  0
 10 11  2  0
 11 12  1  0
 12 13  2  3
 13 14  1  0
 14 15  3  0
 13 16  1  0
 16 17  3  0
  1 18  1  0
 18 19  2  0
 19 20  1  0
 20 21  2  0
 21 22  1  0
 22 23  2  0
 23 24  1  0
 24 25  2  0
 25 26  1  0
 26 27  1  0
 19 28  1  0
 28 29  1  0
 29 30  1  0
 30 31  1  0
 31 32  1  0
 32 33  1  0
 33 34  2  0
 34 35  1  0
 35 36  1  0
 33 37  1  0
 37 38  1  0
 38 39  1  0
 39 40  1  0
 40 41  1  0
 41 42  1  0
 42 43  2  0
 43 44  1  0
 44 45  1  0
 43 46  1  0
 46 47  2  0
 47 48  1  0
 48 49  2  0
 41 50  2  0
 50 51  1  0
 51 52  1  0
 52 53  1  0
 53 54  1  0
 54 55  1  0
 55 56  1  0
 56 57  1  0
 57 58  1  0
 58 59  1  0
 59 60  1  0
 57 61  1  0
 61 62  1  0
 54 63  1  0
 63 64  1  0
 50 65  1  0
 65 66  2  3
 66 67  1  0
 67 68  2  0
 67 69  1  0
 69 70  2  0
 70 71  1  0
 71 72  2  0
 72 73  1  0
 73 74  2  0
 74 75  1  0
 75 76  2  3
 76 77  1  0
 77 78  3  0
 76 79  1  0
 79 80  3  0
 72 81  1  0
 81 82  1  0
 82 83  1  0
 83 84  2  0
 84 85  1  0
 85 86  1  0
 85 87  1  0
 12  2  1  0
 60 18  1  0
 75 66  1  0
 87 81  1  0
 11  5  1  0
 25 20  1  0
 59 28  2  0
 74 69  1  0
 86 82  1  0
 58 30  2  0
 87 71  1  0
 56 31  2  0
 36 32  2  0
 55 37  2  0
 53 38  2  0
 52 40  2  0
 49 42  1  0
  1 88  1  0
  6 89  1  0
  7 90  1  0
  9 91  1  0
  9 92  1  0
  9 93  1  0
 10 94  1  0
 21 95  1  0
 22 96  1  0
 23 97  1  0
 24 98  1  0
 26 99  1  0
 26100  1  0
 27101  1  0
 27102  1  0
 27103  1  0
 44104  1  0
 44105  1  0
 45106  1  0
 45107  1  0
 45108  1  0
 46109  1  0
 47110  1  0
 48111  1  0
 49112  1  0
 61113  1  0
 61114  1  0
 62115  1  0
 62116  1  0
 62117  1  0
 63118  1  0
 63119  1  0
 64120  1  0
 64121  1  0
 64122  1  0
 65123  1  0
 70124  1  0
 73125  1  0
 81126  1  0
 82127  1  0
 83128  1  0
 84129  1  0
 85130  1  0
 86131  1  0
 86132  1  0
 87133  1  0
M  END

