
     RDKit          3D

 91102  0  0  0  0  0  0  0  0999 V2000
   -1.8679    6.8474   -3.5393 C   0  0  0  0  0  0  0  0  0  0  0  0
   -2.7453    5.9324   -3.9317 C   0  0  0  0  0  0  0  0  0  0  0  0
   -3.0739    4.6404   -3.4321 C   0  0  0  0  0  0  0  0  0  0  0  0
   -2.7354    4.0881   -2.3333 O   0  0  0  0  0  0  0  0  0  0  0  0
   -3.9452    3.9151   -4.4158 C   0  0  0  0  0  0  0  0  0  0  0  0
   -4.3722    2.5998   -4.4109 C   0  0  0  0  0  0  0  0  0  0  0  0
   -5.0099    2.1015   -5.4795 C   0  0  0  0  0  0  0  0  0  0  0  0
   -5.2481    2.9149   -6.6117 C   0  0  0  0  0  0  0  0  0  0  0  0
   -5.9316    2.2018   -7.6994 C   0  0  0  0  0  0  0  0  0  0  0  0
   -4.8045    4.2094   -6.5627 C   0  0  0  0  0  0  0  0  0  0  0  0
   -4.1449    4.7578   -5.4832 C   0  0  0  0  0  0  0  0  0  0  0  0
   -3.4132    6.0327   -5.2171 C   0  0  0  0  0  0  0  0  0  0  0  0
   -3.1277    6.9233   -6.2476 C   0  0  0  0  0  0  0  0  0  0  0  0
   -3.7355    7.0312   -7.3216 C   0  0  0  0  0  0  0  0  0  0  0  0
   -4.4805    7.1750   -8.5958 N   0  0  0  0  0  0  0  0  0  0  0  0
   -1.9579    7.5156   -6.1386 C   0  0  0  0  0  0  0  0  0  0  0  0
   -0.5598    8.2308   -6.0255 N   0  0  0  0  0  0  0  0  0  0  0  0
   -0.9872    6.5800   -2.4399 C   0  0  0  0  0  0  0  0  0  0  0  0
   -0.2813    7.0529   -1.4571 C   0  0  0  0  0  0  0  0  0  0  0  0
    0.5917    6.3507   -0.6613 C   0  0  0  0  0  0  0  0  0  0  0  0
    1.5675    6.6191    0.8339 S   0  0  0  0  0  0  0  0  0  0  0  0
    2.1137    4.9584    1.0738 C   0  0  0  0  0  0  0  0  0  0  0  0
    2.7029    4.0412    1.9124 C   0  0  0  0  0  0  0  0  0  0  0  0
    3.4222    4.1866    3.1064 C   0  0  0  0  0  0  0  0  0  0  0  0
    3.9027    3.0708    3.7215 C   0  0  0  0  0  0  0  0  0  0  0  0
    4.6191    3.2769    4.8109 N   0  0  0  0  0  0  0  0  0  0  0  0
    4.6450    4.9591    5.0226 S   0  0  0  0  0  0  0  0  0  0  0  0
    3.7080    5.3566    3.6630 N   0  0  0  0  0  0  0  0  0  0  0  0
    3.6399    1.7930    3.1643 C   0  0  0  0  0  0  0  0  0  0  0  0
    3.7920    0.4960    3.7160 C   0  0  0  0  0  0  0  0  0  0  0  0
    3.1817   -0.3589    2.8976 C   0  0  0  0  0  0  0  0  0  0  0  0
    2.6534    0.3121    1.8347 N   0  0  0  0  0  0  0  0  0  0  0  0
    1.8804   -0.3713    0.8368 C   0  0  0  0  0  0  0  0  0  0  0  0
    0.4166   -0.3995    1.2209 C   0  0  0  0  0  0  0  0  0  0  0  0
    2.9491    1.6411    2.0026 C   0  0  0  0  0  0  0  0  0  0  0  0
    2.4975    2.8003    1.3706 C   0  0  0  0  0  0  0  0  0  0  0  0
    1.8384    2.9708    0.2312 N   0  0  0  0  0  0  0  0  0  0  0  0
    1.5599    4.3170    0.0177 C   0  0  0  0  0  0  0  0  0  0  0  0
    0.8559    5.1135   -0.7486 C   0  0  0  0  0  0  0  0  0  0  0  0
   -0.4083    4.7045   -2.3895 Se  0  0  0  0  0  2  0  0  0  0  0  0
    1.6233    2.0759   -0.8559 C   0  0  0  0  0  0  0  0  0  0  0  0
    0.3673    1.5123   -1.2807 C   0  0  0  0  0  0  0  0  0  0  0  0
    3.2097   -1.6642    3.3485 C   0  0  0  0  0  0  0  0  0  0  0  0
    3.7710   -2.0418    4.4220 C   0  0  0  0  0  0  0  0  0  0  0  0
    4.3767   -0.4799    4.9696 S   0  0  0  0  0  0  0  0  0  0  0  0
    3.6784   -3.3427    4.9189 C   0  0  0  0  0  0  0  0  0  0  0  0
    3.0157   -4.2855    4.3218 C   0  0  0  0  0  0  0  0  0  0  0  0
    2.3335   -3.2641    2.7271 Se  0  0  0  0  0  2  0  0  0  0  0  0
    2.5654   -5.7051    4.3108 C   0  0  0  0  0  0  0  0  0  0  0  0
    2.4928   -6.2251    3.0268 C   0  0  0  0  0  0  0  0  0  0  0  0
    2.8751   -5.5715    1.8228 C   0  0  0  0  0  0  0  0  0  0  0  0
    3.9288   -4.8293    1.7614 O   0  0  0  0  0  0  0  0  0  0  0  0
    1.9391   -5.8591    0.7162 C   0  0  0  0  0  0  0  0  0  0  0  0
    1.8781   -5.3333   -0.5502 C   0  0  0  0  0  0  0  0  0  0  0  0
    0.8752   -5.5769   -1.4106 C   0  0  0  0  0  0  0  0  0  0  0  0
   -0.1427   -6.4270   -0.9690 C   0  0  0  0  0  0  0  0  0  0  0  0
   -1.3601   -6.6832   -1.8167 C   0  0  0  0  0  0  0  0  0  0  0  0
   -0.0535   -6.9424    0.3080 C   0  0  0  0  0  0  0  0  0  0  0  0
    0.9770   -6.6894    1.2176 C   0  0  0  0  0  0  0  0  0  0  0  0
    1.2339   -6.9922    2.6303 C   0  0  0  0  0  0  0  0  0  0  0  0
    0.5703   -7.7170    3.4240 C   0  0  0  0  0  0  0  0  0  0  0  0
    0.8077   -7.9960    4.8142 C   0  0  0  0  0  0  0  0  0  0  0  0
    0.9862   -8.2102    5.9106 N   0  0  0  0  0  0  0  0  0  0  0  0
   -0.7193   -8.3952    2.9452 C   0  0  0  0  0  0  0  0  0  0  0  0
   -1.6179   -8.8469    2.6137 N   0  0  0  0  0  0  0  0  0  0  0  0
   -1.8679    7.8253   -4.0056 H   0  0  0  0  0  0  0  0  0  0  0  0
   -4.1522    2.0080   -3.5192 H   0  0  0  0  0  0  0  0  0  0  0  0
   -5.3198    1.0507   -5.4434 H   0  0  0  0  0  0  0  0  0  0  0  0
   -6.3026    2.8062   -8.5181 H   0  0  0  0  0  0  0  0  0  0  0  0
   -5.1493    1.4635   -8.0891 H   0  0  0  0  0  0  0  0  0  0  0  0
   -6.7445    1.4951   -7.3685 H   0  0  0  0  0  0  0  0  0  0  0  0
   -5.0054    4.7952   -7.4487 H   0  0  0  0  0  0  0  0  0  0  0  0
   -0.4153    8.1915   -1.2430 H   0  0  0  0  0  0  0  0  0  0  0  0
    2.2102   -1.4886    0.9260 H   0  0  0  0  0  0  0  0  0  0  0  0
    2.0561   -0.2705   -0.2190 H   0  0  0  0  0  0  0  0  0  0  0  0
    0.1788    0.4730    1.8386 H   0  0  0  0  0  0  0  0  0  0  0  0
    0.2317   -1.2740    1.9665 H   0  0  0  0  0  0  0  0  0  0  0  0
   -0.2763   -0.5043    0.4171 H   0  0  0  0  0  0  0  0  0  0  0  0
    2.5908    1.4953   -1.0433 H   0  0  0  0  0  0  0  0  0  0  0  0
    1.9027    2.7747   -1.8231 H   0  0  0  0  0  0  0  0  0  0  0  0
   -0.4781    1.5943   -0.6434 H   0  0  0  0  0  0  0  0  0  0  0  0
    0.5305    0.4255   -1.5784 H   0  0  0  0  0  0  0  0  0  0  0  0
    0.0775    1.9137   -2.3241 H   0  0  0  0  0  0  0  0  0  0  0  0
    4.1898   -3.6463    5.8821 H   0  0  0  0  0  0  0  0  0  0  0  0
    2.3815   -6.1817    5.1721 H   0  0  0  0  0  0  0  0  0  0  0  0
    2.7157   -4.6844   -0.8374 H   0  0  0  0  0  0  0  0  0  0  0  0
    0.7760   -5.1779   -2.3800 H   0  0  0  0  0  0  0  0  0  0  0  0
   -1.6876   -7.7269   -1.5855 H   0  0  0  0  0  0  0  0  0  0  0  0
   -1.0910   -6.4792   -2.8524 H   0  0  0  0  0  0  0  0  0  0  0  0
   -2.1881   -6.0050   -1.3720 H   0  0  0  0  0  0  0  0  0  0  0  0
   -0.8336   -7.6095    0.6273 H   0  0  0  0  0  0  0  0  0  0  0  0
  1  2  2  3
  2  3  1  0
  3  4  2  0
  3  5  1  0
  5  6  2  0
  6  7  1  0
  7  8  2  0
  8  9  1  0
  8 10  1  0
 10 11  2  0
 11 12  1  0
 12 13  2  3
 13 14  1  0
 14 15  3  0
 13 16  1  0
 16 17  3  0
  1 18  1  0
 18 19  2  0
 19 20  1  0
 20 21  1  0
 21 22  1  0
 22 23  1  0
 23 24  1  0
 24 25  1  0
 25 26  2  0
 26 27  1  0
 27 28  1  0
 25 29  1  0
 29 30  1  0
 30 31  2  0
 31 32  1  0
 32 33  1  0
 33 34  1  0
 32 35  1  0
 35 36  1  0
 36 37  1  0
 37 38  1  0
 38 39  1  0
 39 40  1  0
 37 41  1  0
 41 42  1  0
 31 43  1  0
 43 44  2  0
 44 45  1  0
 44 46  1  0
 46 47  2  0
 47 48  1  0
 47 49  1  0
 49 50  2  3
 50 51  1  0
 51 52  2  0
 51 53  1  0
 53 54  2  0
 54 55  1  0
 55 56  2  0
 56 57  1  0
 56 58  1  0
 58 59  2  0
 59 60  1  0
 60 61  2  3
 61 62  1  0
 62 63  3  0
 61 64  1  0
 64 65  3  0
 12  2  1  0
 40 18  1  0
 48 43  1  0
 60 50  1  0
 11  5  1  0
 39 20  2  0
 59 53  1  0
 38 22  2  0
 36 23  2  0
 28 24  2  0
 35 29  2  0
 45 30  1  0
  1 66  1  0
  6 67  1  0
  7 68  1  0
  9 69  1  0
  9 70  1  0
  9 71  1  0
 10 72  1  0
 19 73  1  0
 33 74  1  0
 33 75  1  0
 34 76  1  0
 34 77  1  0
 34 78  1  0
 41 79  1  0
 41 80  1  0
 42 81  1  0
 42 82  1  0
 42 83  1  0
 46 84  1  0
 49 85  1  0
 54 86  1  0
 55 87  1  0
 57 88  1  0
 57 89  1  0
 57 90  1  0
 58 91  1  0
M  END

