
     RDKit          3D

133149  0  0  0  0  0  0  0  0999 V2000
    5.9792    5.8666   -1.2106 C   0  0  0  0  0  0  0  0  0  0  0  0
    6.0170    5.8184    0.1352 C   0  0  0  0  0  0  0  0  0  0  0  0
    4.9649    5.2607    0.9982 C   0  0  0  0  0  0  0  0  0  0  0  0
    3.7754    5.0085    0.6667 O   0  0  0  0  0  0  0  0  0  0  0  0
    5.5352    5.0082    2.3033 C   0  0  0  0  0  0  0  0  0  0  0  0
    4.9513    4.3426    3.3796 C   0  0  0  0  0  0  0  0  0  0  0  0
    5.7349    4.0802    4.5093 C   0  0  0  0  0  0  0  0  0  0  0  0
    7.0890    4.4678    4.5441 C   0  0  0  0  0  0  0  0  0  0  0  0
    7.9437    4.0938    5.7201 C   0  0  0  0  0  0  0  0  0  0  0  0
    7.6619    5.1256    3.4328 C   0  0  0  0  0  0  0  0  0  0  0  0
    6.8543    5.4237    2.3211 C   0  0  0  0  0  0  0  0  0  0  0  0
    7.1960    6.0662    1.0198 C   0  0  0  0  0  0  0  0  0  0  0  0
    8.2384    6.9017    0.7788 C   0  0  0  0  0  0  0  0  0  0  0  0
    8.3590    7.6431   -0.4504 C   0  0  0  0  0  0  0  0  0  0  0  0
    8.4660    8.2465   -1.4320 N   0  0  0  0  0  0  0  0  0  0  0  0
    9.2051    7.2355    1.7900 C   0  0  0  0  0  0  0  0  0  0  0  0
    9.9826    7.5243    2.5975 N   0  0  0  0  0  0  0  0  0  0  0  0
    4.8062    5.4208   -1.9747 C   0  0  0  0  0  0  0  0  0  0  0  0
    3.6301    6.1755   -2.1761 C   0  0  0  0  0  0  0  0  0  0  0  0
    3.4820    7.6091   -1.8353 C   0  0  0  0  0  0  0  0  0  0  0  0
    4.4496    8.5362   -2.2527 C   0  0  0  0  0  0  0  0  0  0  0  0
    4.3004    9.8966   -1.9626 C   0  0  0  0  0  0  0  0  0  0  0  0
    3.1885   10.3480   -1.2343 C   0  0  0  0  0  0  0  0  0  0  0  0
    3.0081   11.8118   -0.9368 C   0  0  0  0  0  0  0  0  0  0  0  0
    1.9937   12.4438   -1.8902 C   0  0  0  0  0  0  0  0  0  0  0  0
    2.2252    9.4221   -0.8059 C   0  0  0  0  0  0  0  0  0  0  0  0
    2.3714    8.0628   -1.1048 C   0  0  0  0  0  0  0  0  0  0  0  0
    2.5994    5.3529   -2.6386 C   0  0  0  0  0  0  0  0  0  0  0  0
    0.9126    5.5755   -2.8225 S   0  0  0  0  0  0  0  0  0  0  0  0
    0.6976    3.9134   -3.0832 C   0  0  0  0  0  0  0  0  0  0  0  0
   -0.3138    2.9974   -3.1153 C   0  0  0  0  0  0  0  0  0  0  0  0
   -1.7009    3.1495   -3.1337 C   0  0  0  0  0  0  0  0  0  0  0  0
   -2.5116    1.9801   -3.0700 C   0  0  0  0  0  0  0  0  0  0  0  0
   -3.8547    2.1699   -3.0594 N   0  0  0  0  0  0  0  0  0  0  0  0
   -3.9094    3.8223   -3.1537 S   0  0  0  0  0  0  0  0  0  0  0  0
   -2.3373    4.3448   -3.1937 N   0  0  0  0  0  0  0  0  0  0  0  0
   -1.8917    0.7294   -2.9418 C   0  0  0  0  0  0  0  0  0  0  0  0
   -2.4232   -0.4543   -2.5176 C   0  0  0  0  0  0  0  0  0  0  0  0
   -3.9067   -0.9030   -1.8242 S   0  0  0  0  0  0  0  0  0  0  0  0
   -3.1815   -2.2109   -1.0152 C   0  0  0  0  0  0  0  0  0  0  0  0
   -3.6448   -3.0982   -0.0399 C   0  0  0  0  0  0  0  0  0  0  0  0
   -5.0375   -3.1338    0.4573 C   0  0  0  0  0  0  0  0  0  0  0  0
   -5.2975   -3.1481    1.8365 C   0  0  0  0  0  0  0  0  0  0  0  0
   -6.6105   -3.1243    2.3113 C   0  0  0  0  0  0  0  0  0  0  0  0
   -7.6867   -3.0889    1.4124 C   0  0  0  0  0  0  0  0  0  0  0  0
   -9.0978   -2.9925    1.9291 C   0  0  0  0  0  0  0  0  0  0  0  0
   -9.4611   -1.5465    2.2494 C   0  0  0  0  0  0  0  0  0  0  0  0
   -7.4302   -3.0703    0.0320 C   0  0  0  0  0  0  0  0  0  0  0  0
   -6.1157   -3.0982   -0.4419 C   0  0  0  0  0  0  0  0  0  0  0  0
   -2.5795   -3.8588    0.4802 C   0  0  0  0  0  0  0  0  0  0  0  0
   -1.1094   -3.3767   -0.2290 S   0  0  0  0  0  0  0  0  0  0  0  0
   -1.8248   -2.2389   -1.2360 C   0  0  0  0  0  0  0  0  0  0  0  0
   -1.3891   -1.2332   -2.0995 C   0  0  0  0  0  0  0  0  0  0  0  0
   -0.1823   -0.6271   -2.2604 N   0  0  0  0  0  0  0  0  0  0  0  0
   -0.4942    0.5844   -2.8406 C   0  0  0  0  0  0  0  0  0  0  0  0
    0.3137    1.7414   -3.0365 C   0  0  0  0  0  0  0  0  0  0  0  0
    1.6794    1.8798   -3.0655 N   0  0  0  0  0  0  0  0  0  0  0  0
    1.8571    3.2212   -3.0355 C   0  0  0  0  0  0  0  0  0  0  0  0
    2.9492    4.0322   -2.7956 C   0  0  0  0  0  0  0  0  0  0  0  0
    4.5364    3.7759   -2.3391 S   0  0  0  0  0  0  0  0  0  0  0  0
    2.6692    0.9242   -3.5807 C   0  0  0  0  0  0  0  0  0  0  0  0
    3.2175    1.3618   -4.9386 C   0  0  0  0  0  0  0  0  0  0  0  0
    1.0256   -1.0025   -1.5106 C   0  0  0  0  0  0  0  0  0  0  0  0
    1.6852   -2.2436   -2.1139 C   0  0  0  0  0  0  0  0  0  0  0  0
   -2.6982   -4.9714    1.4287 C   0  0  0  0  0  0  0  0  0  0  0  0
   -3.0395   -6.2137    1.0412 C   0  0  0  0  0  0  0  0  0  0  0  0
   -3.1328   -6.6691   -0.3534 C   0  0  0  0  0  0  0  0  0  0  0  0
   -3.1945   -5.9379   -1.3784 O   0  0  0  0  0  0  0  0  0  0  0  0
   -3.0812   -8.1152   -0.3688 C   0  0  0  0  0  0  0  0  0  0  0  0
   -2.9932   -8.9528   -1.5047 C   0  0  0  0  0  0  0  0  0  0  0  0
   -2.8197  -10.2893   -1.2009 C   0  0  0  0  0  0  0  0  0  0  0  0
   -2.7233  -10.7815    0.1412 C   0  0  0  0  0  0  0  0  0  0  0  0
   -2.8041   -9.9664    1.2581 C   0  0  0  0  0  0  0  0  0  0  0  0
   -3.0166   -8.5898    0.9676 C   0  0  0  0  0  0  0  0  0  0  0  0
   -3.1153   -7.4323    1.8995 C   0  0  0  0  0  0  0  0  0  0  0  0
   -3.4771   -7.4765    3.2085 C   0  0  0  0  0  0  0  0  0  0  0  0
   -3.7292   -8.7143    3.8966 C   0  0  0  0  0  0  0  0  0  0  0  0
   -3.9410   -9.7045    4.4578 N   0  0  0  0  0  0  0  0  0  0  0  0
   -3.7998   -6.2877    3.9576 C   0  0  0  0  0  0  0  0  0  0  0  0
   -4.0651   -5.3394    4.5681 N   0  0  0  0  0  0  0  0  0  0  0  0
   -2.5036  -12.1745   -0.3671 C   0  0  0  0  0  0  0  0  0  0  0  0
   -1.0456  -12.7233   -0.2909 C   0  0  0  0  0  0  0  0  0  0  0  0
   -1.0124  -13.9327   -1.1926 C   0  0  0  0  0  0  0  0  0  0  0  0
   -1.1103  -13.4748   -2.4464 C   0  0  0  0  0  0  0  0  0  0  0  0
   -1.2059  -11.9711   -2.3481 C   0  0  0  0  0  0  0  0  0  0  0  0
   -0.2682  -11.7571   -1.1699 C   0  0  0  0  0  0  0  0  0  0  0  0
   -2.6089  -11.6716   -1.7406 C   0  0  0  0  0  0  0  0  0  0  0  0
    6.8548    6.1192   -1.7875 H   0  0  0  0  0  0  0  0  0  0  0  0
    3.9195    4.0148    3.3377 H   0  0  0  0  0  0  0  0  0  0  0  0
    5.2974    3.5496    5.3457 H   0  0  0  0  0  0  0  0  0  0  0  0
    8.3686    3.0801    5.5600 H   0  0  0  0  0  0  0  0  0  0  0  0
    8.7779    4.8174    5.8453 H   0  0  0  0  0  0  0  0  0  0  0  0
    7.3457    4.0891    6.6556 H   0  0  0  0  0  0  0  0  0  0  0  0
    8.7157    5.3537    3.4432 H   0  0  0  0  0  0  0  0  0  0  0  0
    5.3135    8.2105   -2.8154 H   0  0  0  0  0  0  0  0  0  0  0  0
    5.0510   10.5971   -2.3088 H   0  0  0  0  0  0  0  0  0  0  0  0
    3.9770   12.3530   -1.0306 H   0  0  0  0  0  0  0  0  0  0  0  0
    2.6535   11.9402    0.1102 H   0  0  0  0  0  0  0  0  0  0  0  0
    1.0076   11.9402   -1.8004 H   0  0  0  0  0  0  0  0  0  0  0  0
    2.3511   12.3671   -2.9378 H   0  0  0  0  0  0  0  0  0  0  0  0
    1.8642   13.5168   -1.6344 H   0  0  0  0  0  0  0  0  0  0  0  0
    1.3589    9.7530   -0.2449 H   0  0  0  0  0  0  0  0  0  0  0  0
    1.6239    7.3701   -0.7474 H   0  0  0  0  0  0  0  0  0  0  0  0
   -4.4827   -3.1423    2.5500 H   0  0  0  0  0  0  0  0  0  0  0  0
   -6.7889   -3.1176    3.3802 H   0  0  0  0  0  0  0  0  0  0  0  0
   -9.2073   -3.6126    2.8450 H   0  0  0  0  0  0  0  0  0  0  0  0
   -9.8131   -3.3913    1.1753 H   0  0  0  0  0  0  0  0  0  0  0  0
  -10.5033   -1.5004    2.6312 H   0  0  0  0  0  0  0  0  0  0  0  0
   -8.7804   -1.1387    3.0288 H   0  0  0  0  0  0  0  0  0  0  0  0
   -9.3908   -0.9189    1.3348 H   0  0  0  0  0  0  0  0  0  0  0  0
   -8.2500   -3.0283   -0.6747 H   0  0  0  0  0  0  0  0  0  0  0  0
   -5.9416   -3.0931   -1.5112 H   0  0  0  0  0  0  0  0  0  0  0  0
    3.5016    0.8147   -2.8553 H   0  0  0  0  0  0  0  0  0  0  0  0
    2.1904   -0.0528   -3.7471 H   0  0  0  0  0  0  0  0  0  0  0  0
    2.3827    1.5451   -5.6480 H   0  0  0  0  0  0  0  0  0  0  0  0
    3.8665    0.5608   -5.3517 H   0  0  0  0  0  0  0  0  0  0  0  0
    3.8266    2.2816   -4.8415 H   0  0  0  0  0  0  0  0  0  0  0  0
    0.7604   -1.2018   -0.4540 H   0  0  0  0  0  0  0  0  0  0  0  0
    1.7453   -0.1676   -1.4595 H   0  0  0  0  0  0  0  0  0  0  0  0
    1.0636   -3.1436   -1.9379 H   0  0  0  0  0  0  0  0  0  0  0  0
    1.8183   -2.1422   -3.2093 H   0  0  0  0  0  0  0  0  0  0  0  0
    2.6788   -2.4037   -1.6450 H   0  0  0  0  0  0  0  0  0  0  0  0
   -2.4265   -4.7647    2.4527 H   0  0  0  0  0  0  0  0  0  0  0  0
   -3.0151   -8.5814   -2.5204 H   0  0  0  0  0  0  0  0  0  0  0  0
   -2.6590  -10.3663    2.2488 H   0  0  0  0  0  0  0  0  0  0  0  0
   -3.3031  -12.8895   -0.0712 H   0  0  0  0  0  0  0  0  0  0  0  0
   -0.6440  -12.8823    0.7304 H   0  0  0  0  0  0  0  0  0  0  0  0
   -0.8452  -14.9657   -0.9037 H   0  0  0  0  0  0  0  0  0  0  0  0
   -1.0362  -14.0730   -3.3472 H   0  0  0  0  0  0  0  0  0  0  0  0
   -0.9536  -11.4172   -3.2774 H   0  0  0  0  0  0  0  0  0  0  0  0
   -0.2462  -10.7123   -0.7892 H   0  0  0  0  0  0  0  0  0  0  0  0
    0.7792  -12.0828   -1.3728 H   0  0  0  0  0  0  0  0  0  0  0  0
   -3.4767  -12.0632   -2.3144 H   0  0  0  0  0  0  0  0  0  0  0  0
  1  2  2  3
  2  3  1  0
  3  4  2  0
  3  5  1  0
  5  6  2  0
  6  7  1  0
  7  8  2  0
  8  9  1  0
  8 10  1  0
 10 11  2  0
 11 12  1  0
 12 13  2  3
 13 14  1  0
 14 15  3  0
 13 16  1  0
 16 17  3  0
  1 18  1  0
 18 19  2  0
 19 20  1  0
 20 21  2  0
 21 22  1  0
 22 23  2  0
 23 24  1  0
 24 25  1  0
 23 26  1  0
 26 27  2  0
 19 28  1  0
 28 29  1  0
 29 30  1  0
 30 31  1  0
 31 32  1  0
 32 33  1  0
 33 34  2  0
 34 35  1  0
 35 36  1  0
 33 37  1  0
 37 38  1  0
 38 39  1  0
 39 40  1  0
 40 41  1  0
 41 42  1  0
 42 43  2  0
 43 44  1  0
 44 45  2  0
 45 46  1  0
 46 47  1  0
 45 48  1  0
 48 49  2  0
 41 50  2  0
 50 51  1  0
 51 52  1  0
 52 53  1  0
 53 54  1  0
 54 55  1  0
 55 56  1  0
 56 57  1  0
 57 58  1  0
 58 59  1  0
 59 60  1  0
 57 61  1  0
 61 62  1  0
 54 63  1  0
 63 64  1  0
 50 65  1  0
 65 66  2  3
 66 67  1  0
 67 68  2  0
 67 69  1  0
 69 70  2  0
 70 71  1  0
 71 72  2  0
 72 73  1  0
 73 74  2  0
 74 75  1  0
 75 76  2  3
 76 77  1  0
 77 78  3  0
 76 79  1  0
 79 80  3  0
 72 81  1  0
 81 82  1  0
 82 83  1  0
 83 84  2  0
 84 85  1  0
 85 86  1  0
 85 87  1  0
 12  2  1  0
 60 18  1  0
 75 66  1  0
 87 81  1  0
 11  5  1  0
 27 20  1  0
 59 28  2  0
 74 69  1  0
 86 82  1  0
 58 30  2  0
 87 71  1  0
 56 31  2  0
 36 32  2  0
 55 37  2  0
 53 38  2  0
 52 40  2  0
 49 42  1  0
  1 88  1  0
  6 89  1  0
  7 90  1  0
  9 91  1  0
  9 92  1  0
  9 93  1  0
 10 94  1  0
 21 95  1  0
 22 96  1  0
 24 97  1  0
 24 98  1  0
 25 99  1  0
 25100  1  0
 25101  1  0
 26102  1  0
 27103  1  0
 43104  1  0
 44105  1  0
 46106  1  0
 46107  1  0
 47108  1  0
 47109  1  0
 47110  1  0
 48111  1  0
 49112  1  0
 61113  1  0
 61114  1  0
 62115  1  0
 62116  1  0
 62117  1  0
 63118  1  0
 63119  1  0
 64120  1  0
 64121  1  0
 64122  1  0
 65123  1  0
 70124  1  0
 73125  1  0
 81126  1  0
 82127  1  0
 83128  1  0
 84129  1  0
 85130  1  0
 86131  1  0
 86132  1  0
 87133  1  0
M  END

