
     RDKit          3D

111124  0  0  0  0  0  0  0  0999 V2000
   -2.7825   -3.9602    5.6226 C   0  0  0  0  0  0  0  0  0  0  0  0
   -3.9741   -3.3323    5.6635 C   0  0  0  0  0  0  0  0  0  0  0  0
   -4.4445   -2.3156    4.7139 C   0  0  0  0  0  0  0  0  0  0  0  0
   -4.0488   -2.1605    3.5264 O   0  0  0  0  0  0  0  0  0  0  0  0
   -5.5019   -1.5584    5.3456 C   0  0  0  0  0  0  0  0  0  0  0  0
   -6.1353   -0.4099    4.8766 C   0  0  0  0  0  0  0  0  0  0  0  0
   -7.0519    0.2354    5.7158 C   0  0  0  0  0  0  0  0  0  0  0  0
   -7.2948   -0.2507    7.0201 C   0  0  0  0  0  0  0  0  0  0  0  0
   -8.2545    0.4638    7.9266 C   0  0  0  0  0  0  0  0  0  0  0  0
   -6.6556   -1.4281    7.4612 C   0  0  0  0  0  0  0  0  0  0  0  0
   -5.7712   -2.0935    6.5945 C   0  0  0  0  0  0  0  0  0  0  0  0
   -4.9390   -3.3130    6.8061 C   0  0  0  0  0  0  0  0  0  0  0  0
   -5.1711   -4.3101    7.6991 C   0  0  0  0  0  0  0  0  0  0  0  0
   -6.2351   -4.2464    8.6669 C   0  0  0  0  0  0  0  0  0  0  0  0
   -7.0898   -4.2113    9.4462 N   0  0  0  0  0  0  0  0  0  0  0  0
   -4.4688   -5.5668    7.6506 C   0  0  0  0  0  0  0  0  0  0  0  0
   -3.9153   -6.5835    7.6180 N   0  0  0  0  0  0  0  0  0  0  0  0
   -1.7309   -3.6449    4.6389 C   0  0  0  0  0  0  0  0  0  0  0  0
   -1.2706   -2.3526    4.3732 C   0  0  0  0  0  0  0  0  0  0  0  0
   -0.3187   -2.5352    3.3980 C   0  0  0  0  0  0  0  0  0  0  0  0
   -0.2458   -3.8426    3.0981 C   0  0  0  0  0  0  0  0  0  0  0  0
   -1.1011   -4.5690    3.8561 N   0  0  0  0  0  0  0  0  0  0  0  0
   -1.4095   -5.9976    3.7928 C   0  0  0  0  0  0  0  0  0  0  0  0
   -2.6113   -6.2481    2.8874 C   0  0  0  0  0  0  0  0  0  0  0  0
    0.2786   -3.9368    1.8156 C   0  0  0  0  0  0  0  0  0  0  0  0
    0.3215   -4.9733    0.8543 C   0  0  0  0  0  0  0  0  0  0  0  0
    0.6746   -4.6512   -0.4951 C   0  0  0  0  0  0  0  0  0  0  0  0
    0.6812   -5.6656   -1.3950 N   0  0  0  0  0  0  0  0  0  0  0  0
    0.2371   -6.9163   -0.4073 S   0  0  0  0  0  0  0  0  0  0  0  0
    0.0306   -6.2714    1.1029 N   0  0  0  0  0  0  0  0  0  0  0  0
    1.0113   -3.3345   -0.8076 C   0  0  0  0  0  0  0  0  0  0  0  0
    1.4167   -2.7360   -1.9714 C   0  0  0  0  0  0  0  0  0  0  0  0
    1.6386   -3.0694   -3.6249 S   0  0  0  0  0  0  0  0  0  0  0  0
    2.1417   -1.4573   -3.9126 C   0  0  0  0  0  0  0  0  0  0  0  0
    2.4048   -0.7136   -5.0700 C   0  0  0  0  0  0  0  0  0  0  0  0
    2.3237   -1.2959   -6.4552 C   0  0  0  0  0  0  0  0  0  0  0  0
    0.8904   -1.2624   -6.9831 C   0  0  0  0  0  0  0  0  0  0  0  0
    2.5961    0.6569   -4.7651 C   0  0  0  0  0  0  0  0  0  0  0  0
    2.4003    0.8784   -3.0766 S   0  0  0  0  0  0  0  0  0  0  0  0
    2.1375   -0.7289   -2.7554 C   0  0  0  0  0  0  0  0  0  0  0  0
    1.7203   -1.4557   -1.6632 C   0  0  0  0  0  0  0  0  0  0  0  0
    1.5649   -1.1645   -0.3526 N   0  0  0  0  0  0  0  0  0  0  0  0
    1.0443   -2.3219    0.1595 C   0  0  0  0  0  0  0  0  0  0  0  0
    0.5776   -2.5992    1.4647 C   0  0  0  0  0  0  0  0  0  0  0  0
    0.1246   -1.7211    2.4151 N   0  0  0  0  0  0  0  0  0  0  0  0
   -0.3996   -0.3616    2.1980 C   0  0  0  0  0  0  0  0  0  0  0  0
    0.1343    0.6117    3.2497 C   0  0  0  0  0  0  0  0  0  0  0  0
    2.3130   -0.1231    0.3663 C   0  0  0  0  0  0  0  0  0  0  0  0
    3.8212   -0.2811    0.1668 C   0  0  0  0  0  0  0  0  0  0  0  0
    2.5694    1.7554   -5.7659 C   0  0  0  0  0  0  0  0  0  0  0  0
    2.7811    3.0607   -5.4945 C   0  0  0  0  0  0  0  0  0  0  0  0
    3.2820    3.6145   -4.2336 C   0  0  0  0  0  0  0  0  0  0  0  0
    4.2161    3.1384   -3.5349 O   0  0  0  0  0  0  0  0  0  0  0  0
    2.6141    4.8728   -3.9822 C   0  0  0  0  0  0  0  0  0  0  0  0
    2.5801    5.5892   -2.7652 C   0  0  0  0  0  0  0  0  0  0  0  0
    1.6718    6.6312   -2.7580 C   0  0  0  0  0  0  0  0  0  0  0  0
    0.8461    6.9607   -3.8829 C   0  0  0  0  0  0  0  0  0  0  0  0
    0.8888    6.2718   -5.0849 C   0  0  0  0  0  0  0  0  0  0  0  0
    1.8264    5.2026   -5.1133 C   0  0  0  0  0  0  0  0  0  0  0  0
    2.0506    4.1731   -6.1647 C   0  0  0  0  0  0  0  0  0  0  0  0
    1.8240    4.3035   -7.4936 C   0  0  0  0  0  0  0  0  0  0  0  0
    2.3338    3.3483   -8.4461 C   0  0  0  0  0  0  0  0  0  0  0  0
    2.7422    2.5848   -9.2127 N   0  0  0  0  0  0  0  0  0  0  0  0
    1.1962    5.4705   -8.0555 C   0  0  0  0  0  0  0  0  0  0  0  0
    0.6913    6.4033   -8.5188 N   0  0  0  0  0  0  0  0  0  0  0  0
    0.1828    8.0534   -3.0963 C   0  0  0  0  0  0  0  0  0  0  0  0
    0.5682    9.5293   -3.4178 C   0  0  0  0  0  0  0  0  0  0  0  0
    1.9967    9.5942   -3.9086 C   0  0  0  0  0  0  0  0  0  0  0  0
    2.7716    9.2886   -2.8661 C   0  0  0  0  0  0  0  0  0  0  0  0
    1.8449    9.0257   -1.7008 C   0  0  0  0  0  0  0  0  0  0  0  0
    0.7727   10.0562   -2.0089 C   0  0  0  0  0  0  0  0  0  0  0  0
    1.0316    7.7191   -1.9480 C   0  0  0  0  0  0  0  0  0  0  0  0
   -2.4972   -4.6487    6.3991 H   0  0  0  0  0  0  0  0  0  0  0  0
   -5.9094   -0.0089    3.8964 H   0  0  0  0  0  0  0  0  0  0  0  0
   -7.5475    1.1318    5.3665 H   0  0  0  0  0  0  0  0  0  0  0  0
   -9.2707    0.0307    7.8079 H   0  0  0  0  0  0  0  0  0  0  0  0
   -7.9374    0.3629    8.9863 H   0  0  0  0  0  0  0  0  0  0  0  0
   -8.2944    1.5472    7.6842 H   0  0  0  0  0  0  0  0  0  0  0  0
   -6.8202   -1.7710    8.4693 H   0  0  0  0  0  0  0  0  0  0  0  0
   -1.6655   -1.4232    4.7582 H   0  0  0  0  0  0  0  0  0  0  0  0
   -1.6440   -6.3764    4.8105 H   0  0  0  0  0  0  0  0  0  0  0  0
   -0.5217   -6.5694    3.4545 H   0  0  0  0  0  0  0  0  0  0  0  0
   -2.7564   -7.3399    2.7550 H   0  0  0  0  0  0  0  0  0  0  0  0
   -2.4582   -5.7820    1.8922 H   0  0  0  0  0  0  0  0  0  0  0  0
   -3.5279   -5.8184    3.3437 H   0  0  0  0  0  0  0  0  0  0  0  0
    2.6740   -2.3490   -6.4356 H   0  0  0  0  0  0  0  0  0  0  0  0
    2.9898   -0.7367   -7.1473 H   0  0  0  0  0  0  0  0  0  0  0  0
    0.2018   -1.7654   -6.2745 H   0  0  0  0  0  0  0  0  0  0  0  0
    0.5561   -0.2157   -7.1286 H   0  0  0  0  0  0  0  0  0  0  0  0
    0.8419   -1.7845   -7.9620 H   0  0  0  0  0  0  0  0  0  0  0  0
   -1.5094   -0.3810    2.2478 H   0  0  0  0  0  0  0  0  0  0  0  0
   -0.1620    0.0079    1.1850 H   0  0  0  0  0  0  0  0  0  0  0  0
    1.2178    0.4552    3.4260 H   0  0  0  0  0  0  0  0  0  0  0  0
   -0.3992    0.4725    4.2118 H   0  0  0  0  0  0  0  0  0  0  0  0
   -0.0286    1.6552    2.9102 H   0  0  0  0  0  0  0  0  0  0  0  0
    1.9852    0.8808    0.0220 H   0  0  0  0  0  0  0  0  0  0  0  0
    2.1400   -0.2072    1.4521 H   0  0  0  0  0  0  0  0  0  0  0  0
    4.1025   -0.0698   -0.8831 H   0  0  0  0  0  0  0  0  0  0  0  0
    4.3580    0.4387    0.8183 H   0  0  0  0  0  0  0  0  0  0  0  0
    4.1416   -1.3102    0.4317 H   0  0  0  0  0  0  0  0  0  0  0  0
    2.1189    1.4977   -6.7100 H   0  0  0  0  0  0  0  0  0  0  0  0
    3.1538    5.3041   -1.8929 H   0  0  0  0  0  0  0  0  0  0  0  0
    0.2029    6.5013   -5.8844 H   0  0  0  0  0  0  0  0  0  0  0  0
   -0.9005    7.8817   -2.9116 H   0  0  0  0  0  0  0  0  0  0  0  0
   -0.1652   10.0897   -4.0340 H   0  0  0  0  0  0  0  0  0  0  0  0
    2.3419    9.9122   -4.8868 H   0  0  0  0  0  0  0  0  0  0  0  0
    3.8564    9.3166   -2.8508 H   0  0  0  0  0  0  0  0  0  0  0  0
    2.3139    9.1075   -0.6959 H   0  0  0  0  0  0  0  0  0  0  0  0
    1.1471   11.1087   -1.9780 H   0  0  0  0  0  0  0  0  0  0  0  0
   -0.1330    9.9626   -1.3620 H   0  0  0  0  0  0  0  0  0  0  0  0
    0.4647    7.3488   -1.0652 H   0  0  0  0  0  0  0  0  0  0  0  0
  1  2  2  3
  2  3  1  0
  3  4  2  0
  3  5  1  0
  5  6  2  0
  6  7  1  0
  7  8  2  0
  8  9  1  0
  8 10  1  0
 10 11  2  0
 11 12  1  0
 12 13  2  3
 13 14  1  0
 14 15  3  0
 13 16  1  0
 16 17  3  0
  1 18  1  0
 18 19  2  0
 19 20  1  0
 20 21  2  0
 21 22  1  0
 22 23  1  0
 23 24  1  0
 21 25  1  0
 25 26  1  0
 26 27  1  0
 27 28  2  0
 28 29  1  0
 29 30  1  0
 27 31  1  0
 31 32  1  0
 32 33  1  0
 33 34  1  0
 34 35  1  0
 35 36  1  0
 36 37  1  0
 35 38  2  0
 38 39  1  0
 39 40  1  0
 40 41  1  0
 41 42  1  0
 42 43  1  0
 43 44  1  0
 44 45  1  0
 45 46  1  0
 46 47  1  0
 42 48  1  0
 48 49  1  0
 38 50  1  0
 50 51  2  3
 51 52  1  0
 52 53  2  0
 52 54  1  0
 54 55  2  0
 55 56  1  0
 56 57  2  0
 57 58  1  0
 58 59  2  0
 59 60  1  0
 60 61  2  3
 61 62  1  0
 62 63  3  0
 61 64  1  0
 64 65  3  0
 57 66  1  0
 66 67  1  0
 67 68  1  0
 68 69  2  0
 69 70  1  0
 70 71  1  0
 70 72  1  0
 12  2  1  0
 22 18  1  0
 44 25  2  0
 60 51  1  0
 72 66  1  0
 11  5  1  0
 45 20  1  0
 59 54  1  0
 71 67  1  0
 30 26  2  0
 43 31  2  0
 72 56  1  0
 41 32  2  0
 40 34  2  0
  1 73  1  0
  6 74  1  0
  7 75  1  0
  9 76  1  0
  9 77  1  0
  9 78  1  0
 10 79  1  0
 19 80  1  0
 23 81  1  0
 23 82  1  0
 24 83  1  0
 24 84  1  0
 24 85  1  0
 36 86  1  0
 36 87  1  0
 37 88  1  0
 37 89  1  0
 37 90  1  0
 46 91  1  0
 46 92  1  0
 47 93  1  0
 47 94  1  0
 47 95  1  0
 48 96  1  0
 48 97  1  0
 49 98  1  0
 49 99  1  0
 49100  1  0
 50101  1  0
 55102  1  0
 58103  1  0
 66104  1  0
 67105  1  0
 68106  1  0
 69107  1  0
 70108  1  0
 71109  1  0
 71110  1  0
 72111  1  0
M  END

