
     RDKit          3D

103115  0  0  0  0  0  0  0  0999 V2000
    4.8562   -6.2600    4.8170 C   0  0  0  0  0  0  0  0  0  0  0  0
    6.1442   -5.8760    4.8571 C   0  0  0  0  0  0  0  0  0  0  0  0
    7.2244   -6.8324    5.0980 C   0  0  0  0  0  0  0  0  0  0  0  0
    7.1368   -7.8921    5.7736 O   0  0  0  0  0  0  0  0  0  0  0  0
    8.3761   -6.4163    4.3171 C   0  0  0  0  0  0  0  0  0  0  0  0
    9.5849   -7.0835    4.1217 C   0  0  0  0  0  0  0  0  0  0  0  0
   10.5264   -6.5153    3.2516 C   0  0  0  0  0  0  0  0  0  0  0  0
   10.2320   -5.3225    2.5554 C   0  0  0  0  0  0  0  0  0  0  0  0
   11.2512   -4.7147    1.6387 C   0  0  0  0  0  0  0  0  0  0  0  0
    9.0040   -4.6646    2.7768 C   0  0  0  0  0  0  0  0  0  0  0  0
    8.0864   -5.2251    3.6759 C   0  0  0  0  0  0  0  0  0  0  0  0
    6.7527   -4.7437    4.1114 C   0  0  0  0  0  0  0  0  0  0  0  0
    6.4020   -3.4471    4.2700 C   0  0  0  0  0  0  0  0  0  0  0  0
    5.4549   -3.0544    5.2855 C   0  0  0  0  0  0  0  0  0  0  0  0
    4.7040   -2.7361    6.1081 N   0  0  0  0  0  0  0  0  0  0  0  0
    7.0786   -2.3710    3.5936 C   0  0  0  0  0  0  0  0  0  0  0  0
    7.6081   -1.4964    3.0489 N   0  0  0  0  0  0  0  0  0  0  0  0
    3.9391   -5.7862    3.7643 C   0  0  0  0  0  0  0  0  0  0  0  0
    3.7198   -6.4545    2.5420 C   0  0  0  0  0  0  0  0  0  0  0  0
    4.3256   -7.7748    2.1568 C   0  0  0  0  0  0  0  0  0  0  0  0
    3.4315   -8.9268    2.6002 C   0  0  0  0  0  0  0  0  0  0  0  0
    2.8276   -5.7450    1.7386 C   0  0  0  0  0  0  0  0  0  0  0  0
    2.1732   -6.0099    0.1814 S   0  0  0  0  0  0  0  0  0  0  0  0
    1.3555   -4.5247    0.2585 C   0  0  0  0  0  0  0  0  0  0  0  0
    0.4132   -3.8267   -0.4372 C   0  0  0  0  0  0  0  0  0  0  0  0
   -0.3118   -4.1480   -1.5888 C   0  0  0  0  0  0  0  0  0  0  0  0
   -1.3501   -3.2644   -2.0083 C   0  0  0  0  0  0  0  0  0  0  0  0
   -2.0236   -3.5987   -3.1374 N   0  0  0  0  0  0  0  0  0  0  0  0
   -1.2522   -5.0191   -3.5089 S   0  0  0  0  0  0  0  0  0  0  0  0
   -0.1031   -5.2583   -2.3393 N   0  0  0  0  0  0  0  0  0  0  0  0
   -1.5844   -2.0970   -1.2679 C   0  0  0  0  0  0  0  0  0  0  0  0
   -2.2903   -0.9763   -1.5978 C   0  0  0  0  0  0  0  0  0  0  0  0
   -3.0666   -0.4066   -2.9994 S   0  0  0  0  0  0  0  0  0  0  0  0
   -2.8849    1.1934   -2.4620 C   0  0  0  0  0  0  0  0  0  0  0  0
   -3.1025    2.4330   -3.0333 C   0  0  0  0  0  0  0  0  0  0  0  0
   -3.8189    3.0050   -4.4352 S   0  0  0  0  0  0  0  0  0  0  0  0
   -3.4436    4.6339   -4.0827 C   0  0  0  0  0  0  0  0  0  0  0  0
   -2.7274    4.7248   -2.8773 C   0  0  0  0  0  0  0  0  0  0  0  0
   -2.2499    6.0027   -2.2466 C   0  0  0  0  0  0  0  0  0  0  0  0
   -3.3020    6.5574   -1.2948 C   0  0  0  0  0  0  0  0  0  0  0  0
   -2.5681    3.4628   -2.3097 C   0  0  0  0  0  0  0  0  0  0  0  0
   -1.7802    2.8914   -0.9172 S   0  0  0  0  0  0  0  0  0  0  0  0
   -2.1825    1.2755   -1.2755 C   0  0  0  0  0  0  0  0  0  0  0  0
   -1.8674    0.0185   -0.7682 C   0  0  0  0  0  0  0  0  0  0  0  0
   -0.9497   -0.4089    0.1389 N   0  0  0  0  0  0  0  0  0  0  0  0
   -0.8160   -1.7488   -0.1415 C   0  0  0  0  0  0  0  0  0  0  0  0
    0.1411   -2.6861    0.3373 C   0  0  0  0  0  0  0  0  0  0  0  0
    0.8092   -2.7404    1.5367 N   0  0  0  0  0  0  0  0  0  0  0  0
    1.5582   -3.8643    1.4225 C   0  0  0  0  0  0  0  0  0  0  0  0
    2.3741   -4.5729    2.2862 C   0  0  0  0  0  0  0  0  0  0  0  0
    3.0096   -4.3571    3.8191 S   0  0  0  0  0  0  0  0  0  0  0  0
    0.3756   -2.1738    2.8177 C   0  0  0  0  0  0  0  0  0  0  0  0
    1.4740   -1.3284    3.4681 C   0  0  0  0  0  0  0  0  0  0  0  0
    0.0073    0.4703    0.8179 C   0  0  0  0  0  0  0  0  0  0  0  0
   -0.6495    1.2180    1.9772 C   0  0  0  0  0  0  0  0  0  0  0  0
   -3.7991    5.7674   -4.9426 C   0  0  0  0  0  0  0  0  0  0  0  0
   -5.0232    6.3212   -4.9431 C   0  0  0  0  0  0  0  0  0  0  0  0
   -6.1302    5.9802   -4.0463 C   0  0  0  0  0  0  0  0  0  0  0  0
   -6.2217    4.9381   -3.3459 O   0  0  0  0  0  0  0  0  0  0  0  0
   -7.0663    7.0955   -4.0333 C   0  0  0  0  0  0  0  0  0  0  0  0
   -8.1792    7.2964   -3.2092 C   0  0  0  0  0  0  0  0  0  0  0  0
   -8.7637    6.0152   -2.1515 Cl  0  0  0  0  0  0  0  0  0  0  0  0
   -8.8039    8.5598   -3.2240 C   0  0  0  0  0  0  0  0  0  0  0  0
  -10.2306    8.8465   -2.2250 Cl  0  0  0  0  0  0  0  0  0  0  0  0
   -8.2576    9.6114   -3.9968 C   0  0  0  0  0  0  0  0  0  0  0  0
   -8.9703   11.2233   -3.9158 Cl  0  0  0  0  0  0  0  0  0  0  0  0
   -7.1218    9.3865   -4.8052 C   0  0  0  0  0  0  0  0  0  0  0  0
   -6.2447   10.7629   -5.4722 Cl  0  0  0  0  0  0  0  0  0  0  0  0
   -6.6014    8.0814   -4.8885 C   0  0  0  0  0  0  0  0  0  0  0  0
   -5.4244    7.5684   -5.6411 C   0  0  0  0  0  0  0  0  0  0  0  0
   -5.1182    7.8609   -6.9295 C   0  0  0  0  0  0  0  0  0  0  0  0
   -4.1061    7.1392   -7.6563 C   0  0  0  0  0  0  0  0  0  0  0  0
   -3.2960    6.5632   -8.2497 N   0  0  0  0  0  0  0  0  0  0  0  0
   -5.9432    8.7370   -7.7251 C   0  0  0  0  0  0  0  0  0  0  0  0
   -6.6072    9.4282   -8.3749 N   0  0  0  0  0  0  0  0  0  0  0  0
    4.5959   -7.2112    5.2655 H   0  0  0  0  0  0  0  0  0  0  0  0
    9.7935   -8.0148    4.6316 H   0  0  0  0  0  0  0  0  0  0  0  0
   11.4738   -7.0204    3.0985 H   0  0  0  0  0  0  0  0  0  0  0  0
   10.7514   -4.2042    0.7872 H   0  0  0  0  0  0  0  0  0  0  0  0
   11.9271   -5.4949    1.2253 H   0  0  0  0  0  0  0  0  0  0  0  0
   11.8552   -3.9713    2.2020 H   0  0  0  0  0  0  0  0  0  0  0  0
    8.7770   -3.7614    2.2303 H   0  0  0  0  0  0  0  0  0  0  0  0
    5.3275   -7.8825    2.6221 H   0  0  0  0  0  0  0  0  0  0  0  0
    4.4619   -7.8166    1.0547 H   0  0  0  0  0  0  0  0  0  0  0  0
    3.3013   -8.9135    3.7043 H   0  0  0  0  0  0  0  0  0  0  0  0
    2.4361   -8.8462    2.1123 H   0  0  0  0  0  0  0  0  0  0  0  0
    3.8963   -9.8927    2.3044 H   0  0  0  0  0  0  0  0  0  0  0  0
   -1.3084    5.8164   -1.6839 H   0  0  0  0  0  0  0  0  0  0  0  0
   -2.0271    6.7578   -3.0314 H   0  0  0  0  0  0  0  0  0  0  0  0
   -2.9352    7.5010   -0.8434 H   0  0  0  0  0  0  0  0  0  0  0  0
   -4.2453    6.7713   -1.8390 H   0  0  0  0  0  0  0  0  0  0  0  0
   -3.5051    5.8311   -0.4797 H   0  0  0  0  0  0  0  0  0  0  0  0
    0.0939   -2.9993    3.5030 H   0  0  0  0  0  0  0  0  0  0  0  0
   -0.5480   -1.5834    2.6810 H   0  0  0  0  0  0  0  0  0  0  0  0
    1.8363   -1.8101    4.3985 H   0  0  0  0  0  0  0  0  0  0  0  0
    1.0799   -0.3306    3.7467 H   0  0  0  0  0  0  0  0  0  0  0  0
    2.3383   -1.1864    2.7877 H   0  0  0  0  0  0  0  0  0  0  0  0
    0.4143    1.2045    0.0923 H   0  0  0  0  0  0  0  0  0  0  0  0
    0.8818   -0.0993    1.1742 H   0  0  0  0  0  0  0  0  0  0  0  0
    0.1128    1.8325    2.5008 H   0  0  0  0  0  0  0  0  0  0  0  0
   -1.4473    1.8908    1.6155 H   0  0  0  0  0  0  0  0  0  0  0  0
   -1.1090    0.5236    2.7084 H   0  0  0  0  0  0  0  0  0  0  0  0
   -2.9940    6.2357   -5.4869 H   0  0  0  0  0  0  0  0  0  0  0  0
  1  2  2  3
  2  3  1  0
  3  4  2  0
  3  5  1  0
  5  6  2  0
  6  7  1  0
  7  8  2  0
  8  9  1  0
  8 10  1  0
 10 11  2  0
 11 12  1  0
 12 13  2  3
 13 14  1  0
 14 15  3  0
 13 16  1  0
 16 17  3  0
  1 18  1  0
 18 19  2  0
 19 20  1  0
 20 21  1  0
 19 22  1  0
 22 23  1  0
 23 24  1  0
 24 25  1  0
 25 26  1  0
 26 27  1  0
 27 28  2  0
 28 29  1  0
 29 30  1  0
 27 31  1  0
 31 32  1  0
 32 33  1  0
 33 34  1  0
 34 35  1  0
 35 36  1  0
 36 37  1  0
 37 38  2  0
 38 39  1  0
 39 40  1  0
 38 41  1  0
 41 42  1  0
 42 43  1  0
 43 44  1  0
 44 45  1  0
 45 46  1  0
 46 47  1  0
 47 48  1  0
 48 49  1  0
 49 50  1  0
 50 51  1  0
 48 52  1  0
 52 53  1  0
 45 54  1  0
 54 55  1  0
 37 56  1  0
 56 57  2  3
 57 58  1  0
 58 59  2  0
 58 60  1  0
 60 61  2  0
 61 62  1  0
 61 63  1  0
 63 64  1  0
 63 65  2  0
 65 66  1  0
 65 67  1  0
 67 68  1  0
 67 69  2  0
 69 70  1  0
 70 71  2  3
 71 72  1  0
 72 73  3  0
 71 74  1  0
 74 75  3  0
 12  2  1  0
 51 18  1  0
 70 57  1  0
 11  5  1  0
 50 22  2  0
 69 60  1  0
 49 24  2  0
 47 25  2  0
 30 26  2  0
 46 31  2  0
 44 32  2  0
 43 34  2  0
 41 35  2  0
  1 76  1  0
  6 77  1  0
  7 78  1  0
  9 79  1  0
  9 80  1  0
  9 81  1  0
 10 82  1  0
 20 83  1  0
 20 84  1  0
 21 85  1  0
 21 86  1  0
 21 87  1  0
 39 88  1  0
 39 89  1  0
 40 90  1  0
 40 91  1  0
 40 92  1  0
 52 93  1  0
 52 94  1  0
 53 95  1  0
 53 96  1  0
 53 97  1  0
 54 98  1  0
 54 99  1  0
 55100  1  0
 55101  1  0
 55102  1  0
 56103  1  0
M  END

