
     RDKit          3D

104116  0  0  0  0  0  0  0  0999 V2000
   -6.3554   -5.1035    1.8461 C   0  0  0  0  0  0  0  0  0  0  0  0
   -5.6316   -6.2422    1.8160 C   0  0  0  0  0  0  0  0  0  0  0  0
   -4.2788   -6.3726    1.2540 C   0  0  0  0  0  0  0  0  0  0  0  0
   -3.5933   -5.4581    0.7271 O   0  0  0  0  0  0  0  0  0  0  0  0
   -3.9239   -7.7714    1.2233 C   0  0  0  0  0  0  0  0  0  0  0  0
   -2.7275   -8.3345    0.7863 C   0  0  0  0  0  0  0  0  0  0  0  0
   -2.5915   -9.7273    0.8176 C   0  0  0  0  0  0  0  0  0  0  0  0
   -3.6565  -10.5377    1.2574 C   0  0  0  0  0  0  0  0  0  0  0  0
   -3.5002  -12.0282    1.3040 C   0  0  0  0  0  0  0  0  0  0  0  0
   -4.8540   -9.9402    1.7045 C   0  0  0  0  0  0  0  0  0  0  0  0
   -4.9803   -8.5383    1.6839 C   0  0  0  0  0  0  0  0  0  0  0  0
   -6.0996   -7.6399    2.1170 C   0  0  0  0  0  0  0  0  0  0  0  0
   -7.2413   -8.0076    2.7620 C   0  0  0  0  0  0  0  0  0  0  0  0
   -7.6022   -9.3792    2.9997 C   0  0  0  0  0  0  0  0  0  0  0  0
   -7.9131  -10.4767    3.2083 N   0  0  0  0  0  0  0  0  0  0  0  0
   -8.1608   -7.0537    3.3392 C   0  0  0  0  0  0  0  0  0  0  0  0
   -8.9050   -6.2985    3.8152 N   0  0  0  0  0  0  0  0  0  0  0  0
   -5.7882   -3.7518    1.6981 C   0  0  0  0  0  0  0  0  0  0  0  0
   -6.5592   -2.4922    0.8305 S   0  0  0  0  0  0  0  0  0  0  0  0
   -5.3320   -1.4053    1.1768 C   0  0  0  0  0  0  0  0  0  0  0  0
   -4.8446   -0.2300    0.7039 C   0  0  0  0  0  0  0  0  0  0  0  0
   -5.2442    0.8135   -0.5641 S   0  0  0  0  0  0  0  0  0  0  0  0
   -3.7227    1.5419   -0.3988 C   0  0  0  0  0  0  0  0  0  0  0  0
   -2.9793    2.3979   -1.1528 C   0  0  0  0  0  0  0  0  0  0  0  0
   -3.2391    2.9204   -2.4252 C   0  0  0  0  0  0  0  0  0  0  0  0
   -2.1631    3.4871   -3.1637 C   0  0  0  0  0  0  0  0  0  0  0  0
   -2.4408    3.9511   -4.4093 N   0  0  0  0  0  0  0  0  0  0  0  0
   -4.0558    3.5910   -4.4821 S   0  0  0  0  0  0  0  0  0  0  0  0
   -4.4472    2.8715   -3.0401 N   0  0  0  0  0  0  0  0  0  0  0  0
   -0.9042    3.5520   -2.5662 C   0  0  0  0  0  0  0  0  0  0  0  0
    0.2683    4.0807   -3.0056 C   0  0  0  0  0  0  0  0  0  0  0  0
    0.9242    4.7858   -4.4029 S   0  0  0  0  0  0  0  0  0  0  0  0
    2.3966    5.0581   -3.5836 C   0  0  0  0  0  0  0  0  0  0  0  0
    3.6329    5.5616   -3.9900 C   0  0  0  0  0  0  0  0  0  0  0  0
    3.9325    5.9916   -5.4001 C   0  0  0  0  0  0  0  0  0  0  0  0
    4.5659    4.8484   -6.1902 C   0  0  0  0  0  0  0  0  0  0  0  0
    4.5750    5.4906   -2.9381 C   0  0  0  0  0  0  0  0  0  0  0  0
    3.8197    4.8703   -1.5301 S   0  0  0  0  0  0  0  0  0  0  0  0
    2.3388    4.6442   -2.2765 C   0  0  0  0  0  0  0  0  0  0  0  0
    1.1217    4.0646   -1.9587 C   0  0  0  0  0  0  0  0  0  0  0  0
    0.5785    3.5616   -0.8210 N   0  0  0  0  0  0  0  0  0  0  0  0
   -0.6676    3.1401   -1.2424 C   0  0  0  0  0  0  0  0  0  0  0  0
   -1.7070    2.4303   -0.5625 C   0  0  0  0  0  0  0  0  0  0  0  0
   -1.6391    1.5087    0.4592 N   0  0  0  0  0  0  0  0  0  0  0  0
   -2.8980    0.9729    0.5331 C   0  0  0  0  0  0  0  0  0  0  0  0
   -3.5497   -0.1139    1.1732 C   0  0  0  0  0  0  0  0  0  0  0  0
   -3.2098   -1.2160    1.9287 N   0  0  0  0  0  0  0  0  0  0  0  0
   -4.3462   -1.9662    1.9048 C   0  0  0  0  0  0  0  0  0  0  0  0
   -4.5758   -3.3004    2.2509 C   0  0  0  0  0  0  0  0  0  0  0  0
   -1.9194   -1.7507    2.3696 C   0  0  0  0  0  0  0  0  0  0  0  0
   -1.2482   -2.5348    1.2418 C   0  0  0  0  0  0  0  0  0  0  0  0
   -0.4451    1.0718    1.1736 C   0  0  0  0  0  0  0  0  0  0  0  0
   -0.4817    1.5685    2.6227 C   0  0  0  0  0  0  0  0  0  0  0  0
    0.9483    4.0867    0.5066 C   0  0  0  0  0  0  0  0  0  0  0  0
   -0.0767    5.1076    1.0006 C   0  0  0  0  0  0  0  0  0  0  0  0
    5.9626    5.9970   -3.0135 C   0  0  0  0  0  0  0  0  0  0  0  0
    6.9866    5.5975   -2.2356 C   0  0  0  0  0  0  0  0  0  0  0  0
    8.1321    6.4587   -1.9432 C   0  0  0  0  0  0  0  0  0  0  0  0
    8.4580    7.4989   -2.5769 O   0  0  0  0  0  0  0  0  0  0  0  0
    8.7496    5.9901   -0.7187 C   0  0  0  0  0  0  0  0  0  0  0  0
    9.7719    6.5859    0.0244 C   0  0  0  0  0  0  0  0  0  0  0  0
   10.3880    7.7119   -0.4090 F   0  0  0  0  0  0  0  0  0  0  0  0
   10.1322    6.0059    1.2496 C   0  0  0  0  0  0  0  0  0  0  0  0
    9.4522    4.8652    1.7200 C   0  0  0  0  0  0  0  0  0  0  0  0
    8.4253    4.2848    0.9586 C   0  0  0  0  0  0  0  0  0  0  0  0
    8.0921    4.8550   -0.2797 C   0  0  0  0  0  0  0  0  0  0  0  0
    7.0649    4.4571   -1.2775 C   0  0  0  0  0  0  0  0  0  0  0  0
    6.6634    3.1859   -1.5328 C   0  0  0  0  0  0  0  0  0  0  0  0
    6.0839    2.8141   -2.8028 C   0  0  0  0  0  0  0  0  0  0  0  0
    5.6300    2.5112   -3.8233 N   0  0  0  0  0  0  0  0  0  0  0  0
    6.9220    2.0971   -0.6251 C   0  0  0  0  0  0  0  0  0  0  0  0
    7.1219    1.2130    0.0974 N   0  0  0  0  0  0  0  0  0  0  0  0
   -7.4252   -5.1393    1.9623 H   0  0  0  0  0  0  0  0  0  0  0  0
   -1.9160   -7.7078    0.4395 H   0  0  0  0  0  0  0  0  0  0  0  0
   -1.6557  -10.1671    0.5020 H   0  0  0  0  0  0  0  0  0  0  0  0
   -2.6762  -12.3642    0.6383 H   0  0  0  0  0  0  0  0  0  0  0  0
   -4.4348  -12.5216    0.9701 H   0  0  0  0  0  0  0  0  0  0  0  0
   -3.2735  -12.3458    2.3433 H   0  0  0  0  0  0  0  0  0  0  0  0
   -5.6466  -10.5833    2.0364 H   0  0  0  0  0  0  0  0  0  0  0  0
    4.6128    6.8736   -5.4051 H   0  0  0  0  0  0  0  0  0  0  0  0
    2.9933    6.3011   -5.9062 H   0  0  0  0  0  0  0  0  0  0  0  0
    5.5738    4.6172   -5.7823 H   0  0  0  0  0  0  0  0  0  0  0  0
    3.9277    3.9405   -6.1362 H   0  0  0  0  0  0  0  0  0  0  0  0
    4.6735    5.1464   -7.2516 H   0  0  0  0  0  0  0  0  0  0  0  0
   -3.8912   -3.9211    2.8152 H   0  0  0  0  0  0  0  0  0  0  0  0
   -1.2753   -0.9620    2.7769 H   0  0  0  0  0  0  0  0  0  0  0  0
   -2.0748   -2.4404    3.2301 H   0  0  0  0  0  0  0  0  0  0  0  0
   -0.2147   -2.8130    1.5413 H   0  0  0  0  0  0  0  0  0  0  0  0
   -1.8211   -3.4623    1.0370 H   0  0  0  0  0  0  0  0  0  0  0  0
   -1.2120   -1.9364    0.3048 H   0  0  0  0  0  0  0  0  0  0  0  0
   -0.3515   -0.0178    1.1178 H   0  0  0  0  0  0  0  0  0  0  0  0
    0.4677    1.3966    0.6492 H   0  0  0  0  0  0  0  0  0  0  0  0
   -0.5063    2.6754    2.6650 H   0  0  0  0  0  0  0  0  0  0  0  0
    0.4127    1.2071    3.1722 H   0  0  0  0  0  0  0  0  0  0  0  0
   -1.3969    1.2161    3.1389 H   0  0  0  0  0  0  0  0  0  0  0  0
    1.1018    3.2943    1.2503 H   0  0  0  0  0  0  0  0  0  0  0  0
    1.9309    4.6003    0.4612 H   0  0  0  0  0  0  0  0  0  0  0  0
    0.2777    5.5642    1.9503 H   0  0  0  0  0  0  0  0  0  0  0  0
   -0.2167    5.9121    0.2400 H   0  0  0  0  0  0  0  0  0  0  0  0
   -1.0552    4.6126    1.1837 H   0  0  0  0  0  0  0  0  0  0  0  0
    6.1254    6.8509   -3.6606 H   0  0  0  0  0  0  0  0  0  0  0  0
   10.9203    6.4479    1.8465 H   0  0  0  0  0  0  0  0  0  0  0  0
    9.7099    4.4461    2.6829 H   0  0  0  0  0  0  0  0  0  0  0  0
    7.8869    3.4441    1.3627 H   0  0  0  0  0  0  0  0  0  0  0  0
  1  2  2  3
  2  3  1  0
  3  4  2  0
  3  5  1  0
  5  6  2  0
  6  7  1  0
  7  8  2  0
  8  9  1  0
  8 10  1  0
 10 11  2  0
 11 12  1  0
 12 13  2  3
 13 14  1  0
 14 15  3  0
 13 16  1  0
 16 17  3  0
  1 18  1  0
 18 19  1  0
 19 20  1  0
 20 21  1  0
 21 22  1  0
 22 23  1  0
 23 24  1  0
 24 25  1  0
 25 26  1  0
 26 27  2  0
 27 28  1  0
 28 29  1  0
 26 30  1  0
 30 31  1  0
 31 32  1  0
 32 33  1  0
 33 34  1  0
 34 35  1  0
 35 36  1  0
 34 37  2  0
 37 38  1  0
 38 39  1  0
 39 40  1  0
 40 41  1  0
 41 42  1  0
 42 43  1  0
 43 44  1  0
 44 45  1  0
 45 46  1  0
 46 47  1  0
 47 48  1  0
 48 49  1  0
 47 50  1  0
 50 51  1  0
 44 52  1  0
 52 53  1  0
 41 54  1  0
 54 55  1  0
 37 56  1  0
 56 57  2  3
 57 58  1  0
 58 59  2  0
 58 60  1  0
 60 61  2  0
 61 62  1  0
 61 63  1  0
 63 64  2  0
 64 65  1  0
 65 66  2  0
 66 67  1  0
 67 68  2  3
 68 69  1  0
 69 70  3  0
 68 71  1  0
 71 72  3  0
 12  2  1  0
 49 18  2  0
 67 57  1  0
 11  5  1  0
 48 20  2  0
 66 60  1  0
 46 21  2  0
 45 23  2  0
 43 24  2  0
 29 25  2  0
 42 30  2  0
 40 31  2  0
 39 33  2  0
  1 73  1  0
  6 74  1  0
  7 75  1  0
  9 76  1  0
  9 77  1  0
  9 78  1  0
 10 79  1  0
 35 80  1  0
 35 81  1  0
 36 82  1  0
 36 83  1  0
 36 84  1  0
 49 85  1  0
 50 86  1  0
 50 87  1  0
 51 88  1  0
 51 89  1  0
 51 90  1  0
 52 91  1  0
 52 92  1  0
 53 93  1  0
 53 94  1  0
 53 95  1  0
 54 96  1  0
 54 97  1  0
 55 98  1  0
 55 99  1  0
 55100  1  0
 56101  1  0
 63102  1  0
 64103  1  0
 65104  1  0
M  END

