
     RDKit          3D

 96106  0  0  0  0  0  0  0  0999 V2000
   -3.1865    4.8286    1.9707 C   0  0  0  0  0  0  0  0  0  0  0  0
   -4.5310    4.8662    1.9177 C   0  0  0  0  0  0  0  0  0  0  0  0
   -5.3675    4.0321    1.0400 C   0  0  0  0  0  0  0  0  0  0  0  0
   -4.9919    3.4184    0.0023 O   0  0  0  0  0  0  0  0  0  0  0  0
   -6.7367    4.1256    1.5062 C   0  0  0  0  0  0  0  0  0  0  0  0
   -7.8556    3.4365    1.0360 C   0  0  0  0  0  0  0  0  0  0  0  0
   -9.0801    3.6180    1.6895 C   0  0  0  0  0  0  0  0  0  0  0  0
   -9.1580    4.4476    2.8227 C   0  0  0  0  0  0  0  0  0  0  0  0
  -10.4769    4.6514    3.5125 C   0  0  0  0  0  0  0  0  0  0  0  0
   -8.0133    5.1371    3.2752 C   0  0  0  0  0  0  0  0  0  0  0  0
   -6.8078    5.0000    2.5758 C   0  0  0  0  0  0  0  0  0  0  0  0
   -5.4682    5.6126    2.8164 C   0  0  0  0  0  0  0  0  0  0  0  0
   -5.2180    6.7595    3.5001 C   0  0  0  0  0  0  0  0  0  0  0  0
   -6.2511    7.4980    4.1876 C   0  0  0  0  0  0  0  0  0  0  0  0
   -7.0649    8.0976    4.7553 N   0  0  0  0  0  0  0  0  0  0  0  0
   -3.9228    7.3960    3.5088 C   0  0  0  0  0  0  0  0  0  0  0  0
   -2.8920    7.9233    3.5209 N   0  0  0  0  0  0  0  0  0  0  0  0
   -2.3839    3.8255    1.2582 C   0  0  0  0  0  0  0  0  0  0  0  0
   -2.5968    2.4419    1.3153 C   0  0  0  0  0  0  0  0  0  0  0  0
   -1.6212    1.7662    0.5956 C   0  0  0  0  0  0  0  0  0  0  0  0
   -1.3443    0.1327    0.3032 S   0  0  0  0  0  0  0  0  0  0  0  0
    0.0427    0.4367   -0.6421 C   0  0  0  0  0  0  0  0  0  0  0  0
    0.8894   -0.5102   -1.2369 C   0  0  0  0  0  0  0  0  0  0  0  0
    0.7005   -1.9435   -0.9866 C   0  0  0  0  0  0  0  0  0  0  0  0
    1.4964   -2.7089   -0.1419 C   0  0  0  0  0  0  0  0  0  0  0  0
    1.1600   -4.0676   -0.1437 C   0  0  0  0  0  0  0  0  0  0  0  0
    0.0971   -4.3625   -1.0003 C   0  0  0  0  0  0  0  0  0  0  0  0
   -0.5082   -5.7232   -1.1878 C   0  0  0  0  0  0  0  0  0  0  0  0
   -0.7107   -6.0490   -2.6652 C   0  0  0  0  0  0  0  0  0  0  0  0
   -0.4514   -2.9278   -1.7113 S   0  0  0  0  0  0  0  0  0  0  0  0
    1.9867   -0.0159   -1.9694 C   0  0  0  0  0  0  0  0  0  0  0  0
    2.2281    1.3668   -2.0688 C   0  0  0  0  0  0  0  0  0  0  0  0
    1.4063    2.3147   -1.4310 C   0  0  0  0  0  0  0  0  0  0  0  0
    1.7898    3.7288   -1.3910 C   0  0  0  0  0  0  0  0  0  0  0  0
    2.5926    4.3057   -0.4205 C   0  0  0  0  0  0  0  0  0  0  0  0
    2.8885    5.6511   -0.6745 C   0  0  0  0  0  0  0  0  0  0  0  0
    2.3037    6.1284   -1.8421 C   0  0  0  0  0  0  0  0  0  0  0  0
    2.4409    7.5248   -2.3775 C   0  0  0  0  0  0  0  0  0  0  0  0
    3.6310    7.6307   -3.3240 C   0  0  0  0  0  0  0  0  0  0  0  0
    1.4520    4.8723   -2.5722 S   0  0  0  0  0  0  0  0  0  0  0  0
    0.2972    1.8221   -0.7158 C   0  0  0  0  0  0  0  0  0  0  0  0
   -0.6620    2.5393    0.0091 C   0  0  0  0  0  0  0  0  0  0  0  0
   -0.9740    4.1602    0.3583 S   0  0  0  0  0  0  0  0  0  0  0  0
    3.6817    1.6460   -2.9228 S   0  0  0  0  0  0  0  0  0  0  0  0
    3.9836    0.0131   -3.1706 C   0  0  0  0  0  0  0  0  0  0  0  0
    5.0707   -0.6924   -3.6842 C   0  0  0  0  0  0  0  0  0  0  0  0
    4.9089   -2.0650   -3.4701 C   0  0  0  0  0  0  0  0  0  0  0  0
    3.3995   -2.3524   -2.7332 S   0  0  0  0  0  0  0  0  0  0  0  0
    2.9878   -0.7349   -2.6201 C   0  0  0  0  0  0  0  0  0  0  0  0
    5.9273   -3.0922   -3.7477 C   0  0  0  0  0  0  0  0  0  0  0  0
    6.2000   -4.1208   -2.9221 C   0  0  0  0  0  0  0  0  0  0  0  0
    6.7966   -5.3731   -3.3789 C   0  0  0  0  0  0  0  0  0  0  0  0
    7.3715   -5.5588   -4.4840 O   0  0  0  0  0  0  0  0  0  0  0  0
    6.5109   -6.4004   -2.3934 C   0  0  0  0  0  0  0  0  0  0  0  0
    6.8124   -7.7622   -2.4400 C   0  0  0  0  0  0  0  0  0  0  0  0
    6.4010   -8.5765   -1.3781 C   0  0  0  0  0  0  0  0  0  0  0  0
    5.6752   -8.0309   -0.2964 C   0  0  0  0  0  0  0  0  0  0  0  0
    5.2356   -8.9289    0.8272 C   0  0  0  0  0  0  0  0  0  0  0  0
    5.3687   -6.6551   -0.2876 C   0  0  0  0  0  0  0  0  0  0  0  0
    5.8337   -5.8388   -1.3314 C   0  0  0  0  0  0  0  0  0  0  0  0
    5.7196   -4.3632   -1.5265 C   0  0  0  0  0  0  0  0  0  0  0  0
    5.6537   -3.4392   -0.5344 C   0  0  0  0  0  0  0  0  0  0  0  0
    5.2814   -3.7681    0.8203 C   0  0  0  0  0  0  0  0  0  0  0  0
    4.9897   -4.0060    1.9113 N   0  0  0  0  0  0  0  0  0  0  0  0
    6.1253   -2.0912   -0.7318 C   0  0  0  0  0  0  0  0  0  0  0  0
    6.5186   -1.0157   -0.8971 N   0  0  0  0  0  0  0  0  0  0  0  0
   -2.6372    5.4560    2.6493 H   0  0  0  0  0  0  0  0  0  0  0  0
   -7.7829    2.7726    0.1912 H   0  0  0  0  0  0  0  0  0  0  0  0
   -9.9616    3.0917    1.3285 H   0  0  0  0  0  0  0  0  0  0  0  0
  -10.3317    4.7373    4.6074 H   0  0  0  0  0  0  0  0  0  0  0  0
  -11.1618    3.7950    3.3285 H   0  0  0  0  0  0  0  0  0  0  0  0
  -10.9565    5.5678    3.1197 H   0  0  0  0  0  0  0  0  0  0  0  0
   -8.0822    5.7276    4.1684 H   0  0  0  0  0  0  0  0  0  0  0  0
   -3.3864    1.9489    1.8647 H   0  0  0  0  0  0  0  0  0  0  0  0
    2.3214   -2.3000    0.4215 H   0  0  0  0  0  0  0  0  0  0  0  0
    1.6857   -4.8133    0.4453 H   0  0  0  0  0  0  0  0  0  0  0  0
   -1.5023   -5.7713   -0.6734 H   0  0  0  0  0  0  0  0  0  0  0  0
    0.1593   -6.4968   -0.7433 H   0  0  0  0  0  0  0  0  0  0  0  0
   -1.3662   -5.2953   -3.1583 H   0  0  0  0  0  0  0  0  0  0  0  0
   -1.1921   -7.0457   -2.7634 H   0  0  0  0  0  0  0  0  0  0  0  0
    0.2712   -6.0757   -3.1825 H   0  0  0  0  0  0  0  0  0  0  0  0
    2.9645    3.7615    0.4323 H   0  0  0  0  0  0  0  0  0  0  0  0
    3.5036    6.2560   -0.0244 H   0  0  0  0  0  0  0  0  0  0  0  0
    1.5133    7.8231   -2.9201 H   0  0  0  0  0  0  0  0  0  0  0  0
    2.5947    8.2309   -1.5274 H   0  0  0  0  0  0  0  0  0  0  0  0
    3.4511    7.0182   -4.2323 H   0  0  0  0  0  0  0  0  0  0  0  0
    4.5633    7.2883   -2.8285 H   0  0  0  0  0  0  0  0  0  0  0  0
    3.7631    8.6826   -3.6285 H   0  0  0  0  0  0  0  0  0  0  0  0
    5.9587   -0.2211   -4.0843 H   0  0  0  0  0  0  0  0  0  0  0  0
    6.4169   -3.0528   -4.7221 H   0  0  0  0  0  0  0  0  0  0  0  0
    7.3506   -8.1835   -3.2781 H   0  0  0  0  0  0  0  0  0  0  0  0
    6.6291   -9.6337   -1.4012 H   0  0  0  0  0  0  0  0  0  0  0  0
    6.0820   -9.5812    1.1423 H   0  0  0  0  0  0  0  0  0  0  0  0
    4.9156   -8.3331    1.7138 H   0  0  0  0  0  0  0  0  0  0  0  0
    4.3855   -9.5630    0.4795 H   0  0  0  0  0  0  0  0  0  0  0  0
    4.7700   -6.2532    0.5035 H   0  0  0  0  0  0  0  0  0  0  0  0
  1  2  2  3
  2  3  1  0
  3  4  2  0
  3  5  1  0
  5  6  2  0
  6  7  1  0
  7  8  2  0
  8  9  1  0
  8 10  1  0
 10 11  2  0
 11 12  1  0
 12 13  2  3
 13 14  1  0
 14 15  3  0
 13 16  1  0
 16 17  3  0
  1 18  1  0
 18 19  2  0
 19 20  1  0
 20 21  1  0
 21 22  1  0
 22 23  2  0
 23 24  1  0
 24 25  2  0
 25 26  1  0
 26 27  2  0
 27 28  1  0
 28 29  1  0
 27 30  1  0
 23 31  1  0
 31 32  2  0
 32 33  1  0
 33 34  1  0
 34 35  2  0
 35 36  1  0
 36 37  2  0
 37 38  1  0
 38 39  1  0
 37 40  1  0
 33 41  2  0
 41 42  1  0
 42 43  1  0
 32 44  1  0
 44 45  1  0
 45 46  1  0
 46 47  2  0
 47 48  1  0
 48 49  1  0
 47 50  1  0
 50 51  2  3
 51 52  1  0
 52 53  2  0
 52 54  1  0
 54 55  2  0
 55 56  1  0
 56 57  2  0
 57 58  1  0
 57 59  1  0
 59 60  2  0
 60 61  1  0
 61 62  2  3
 62 63  1  0
 63 64  3  0
 62 65  1  0
 65 66  3  0
 12  2  1  0
 43 18  1  0
 49 45  2  0
 61 51  1  0
 11  5  1  0
 42 20  2  0
 60 54  1  0
 41 22  1  0
 30 24  1  0
 49 31  1  0
 40 34  1  0
  1 67  1  0
  6 68  1  0
  7 69  1  0
  9 70  1  0
  9 71  1  0
  9 72  1  0
 10 73  1  0
 19 74  1  0
 25 75  1  0
 26 76  1  0
 28 77  1  0
 28 78  1  0
 29 79  1  0
 29 80  1  0
 29 81  1  0
 35 82  1  0
 36 83  1  0
 38 84  1  0
 38 85  1  0
 39 86  1  0
 39 87  1  0
 39 88  1  0
 46 89  1  0
 50 90  1  0
 55 91  1  0
 56 92  1  0
 58 93  1  0
 58 94  1  0
 58 95  1  0
 59 96  1  0
M  END

