
     RDKit          3D

106118  0  0  0  0  0  0  0  0999 V2000
    1.6734   -7.8756   -2.7842 C   0  0  0  0  0  0  0  0  0  0  0  0
    2.6932   -7.5375   -3.5968 C   0  0  0  0  0  0  0  0  0  0  0  0
    3.3400   -6.2222   -3.6773 C   0  0  0  0  0  0  0  0  0  0  0  0
    3.3476   -5.3325   -2.7850 O   0  0  0  0  0  0  0  0  0  0  0  0
    4.0544   -6.1456   -4.9309 C   0  0  0  0  0  0  0  0  0  0  0  0
    4.6968   -5.0426   -5.4895 C   0  0  0  0  0  0  0  0  0  0  0  0
    5.2652   -5.1752   -6.7642 C   0  0  0  0  0  0  0  0  0  0  0  0
    5.1744   -6.3961   -7.4639 C   0  0  0  0  0  0  0  0  0  0  0  0
    5.7221   -6.5034   -8.8570 C   0  0  0  0  0  0  0  0  0  0  0  0
    4.5000   -7.4903   -6.8829 C   0  0  0  0  0  0  0  0  0  0  0  0
    3.9697   -7.3602   -5.5885 C   0  0  0  0  0  0  0  0  0  0  0  0
    3.2292   -8.3373   -4.7403 C   0  0  0  0  0  0  0  0  0  0  0  0
    3.2593   -9.6917   -4.8492 C   0  0  0  0  0  0  0  0  0  0  0  0
    2.7713  -10.5595   -3.8093 C   0  0  0  0  0  0  0  0  0  0  0  0
    2.3841  -11.2637   -2.9766 N   0  0  0  0  0  0  0  0  0  0  0  0
    3.9040  -10.3683   -5.9449 C   0  0  0  0  0  0  0  0  0  0  0  0
    4.4201  -10.9267   -6.8203 N   0  0  0  0  0  0  0  0  0  0  0  0
    1.0338   -6.9572   -1.8265 C   0  0  0  0  0  0  0  0  0  0  0  0
    0.7276   -7.2643   -0.4885 C   0  0  0  0  0  0  0  0  0  0  0  0
    1.2112   -8.4859    0.2411 C   0  0  0  0  0  0  0  0  0  0  0  0
    2.6178   -8.2643    0.7888 C   0  0  0  0  0  0  0  0  0  0  0  0
    0.0501   -6.2063    0.1221 C   0  0  0  0  0  0  0  0  0  0  0  0
   -0.3625   -5.8731    1.7408 S   0  0  0  0  0  0  0  0  0  0  0  0
   -0.9326   -4.3322    1.3099 C   0  0  0  0  0  0  0  0  0  0  0  0
   -1.0800   -3.1355    1.9510 C   0  0  0  0  0  0  0  0  0  0  0  0
   -0.9428   -2.8170    3.3075 C   0  0  0  0  0  0  0  0  0  0  0  0
   -0.8489   -1.4476    3.6855 C   0  0  0  0  0  0  0  0  0  0  0  0
   -0.7015   -1.1795    5.0066 N   0  0  0  0  0  0  0  0  0  0  0  0
   -0.6842   -2.7253    5.6026 S   0  0  0  0  0  0  0  0  0  0  0  0
   -0.8517   -3.7352    4.3007 N   0  0  0  0  0  0  0  0  0  0  0  0
   -0.9295   -0.4738    2.6878 C   0  0  0  0  0  0  0  0  0  0  0  0
   -0.9744    0.8857    2.7614 C   0  0  0  0  0  0  0  0  0  0  0  0
   -0.8439    2.1247    3.9131 S   0  0  0  0  0  0  0  0  0  0  0  0
   -1.1430    3.3006    2.7079 C   0  0  0  0  0  0  0  0  0  0  0  0
   -1.1041    4.6955    2.7037 C   0  0  0  0  0  0  0  0  0  0  0  0
   -0.6965    5.5176    3.8953 C   0  0  0  0  0  0  0  0  0  0  0  0
    0.8203    5.6486    3.9675 C   0  0  0  0  0  0  0  0  0  0  0  0
   -1.2925    5.1913    1.3965 C   0  0  0  0  0  0  0  0  0  0  0  0
   -1.4643    3.9038    0.2921 S   0  0  0  0  0  0  0  0  0  0  0  0
   -1.3496    2.7252    1.4789 C   0  0  0  0  0  0  0  0  0  0  0  0
   -1.2361    1.3442    1.5169 C   0  0  0  0  0  0  0  0  0  0  0  0
   -1.3737    0.3541    0.5995 N   0  0  0  0  0  0  0  0  0  0  0  0
   -1.1076   -0.7857    1.3276 C   0  0  0  0  0  0  0  0  0  0  0  0
   -1.0888   -2.1560    0.9407 C   0  0  0  0  0  0  0  0  0  0  0  0
   -0.8305   -2.7278   -0.2830 N   0  0  0  0  0  0  0  0  0  0  0  0
   -0.7736   -4.0587   -0.0125 C   0  0  0  0  0  0  0  0  0  0  0  0
   -0.2033   -5.1311   -0.6908 C   0  0  0  0  0  0  0  0  0  0  0  0
    0.4147   -5.4178   -2.2213 S   0  0  0  0  0  0  0  0  0  0  0  0
   -0.1791   -2.1072   -1.4419 C   0  0  0  0  0  0  0  0  0  0  0  0
   -1.0642   -2.2056   -2.6858 C   0  0  0  0  0  0  0  0  0  0  0  0
   -2.1598    0.5007   -0.6361 C   0  0  0  0  0  0  0  0  0  0  0  0
   -3.4959   -0.2332   -0.5391 C   0  0  0  0  0  0  0  0  0  0  0  0
   -1.1299    6.5865    0.9691 C   0  0  0  0  0  0  0  0  0  0  0  0
   -2.0046    7.5646    1.2683 C   0  0  0  0  0  0  0  0  0  0  0  0
   -3.1810    7.4240    2.1327 C   0  0  0  0  0  0  0  0  0  0  0  0
   -3.7080    6.3429    2.5112 O   0  0  0  0  0  0  0  0  0  0  0  0
   -3.6400    8.7465    2.4963 C   0  0  0  0  0  0  0  0  0  0  0  0
   -4.6477    9.0880    3.3983 C   0  0  0  0  0  0  0  0  0  0  0  0
   -4.8680   10.4482    3.6786 C   0  0  0  0  0  0  0  0  0  0  0  0
   -5.8677   10.8367    4.5831 C   0  0  0  0  0  0  0  0  0  0  0  0
   -6.0623   12.1898    4.8757 C   0  0  0  0  0  0  0  0  0  0  0  0
   -5.2635   13.1642    4.2714 C   0  0  0  0  0  0  0  0  0  0  0  0
   -5.4566   14.4733    4.5654 F   0  0  0  0  0  0  0  0  0  0  0  0
   -4.2603   12.7928    3.3713 C   0  0  0  0  0  0  0  0  0  0  0  0
   -4.0532   11.4388    3.0628 C   0  0  0  0  0  0  0  0  0  0  0  0
   -3.0388   11.0582    2.1609 C   0  0  0  0  0  0  0  0  0  0  0  0
   -2.8608    9.6982    1.8604 C   0  0  0  0  0  0  0  0  0  0  0  0
   -1.8725    9.0248    0.9679 C   0  0  0  0  0  0  0  0  0  0  0  0
   -1.1798    9.5950   -0.0543 C   0  0  0  0  0  0  0  0  0  0  0  0
   -0.4401    8.8218   -1.0169 C   0  0  0  0  0  0  0  0  0  0  0  0
    0.1554    8.2089   -1.7981 N   0  0  0  0  0  0  0  0  0  0  0  0
   -1.2452   11.0018   -0.3486 C   0  0  0  0  0  0  0  0  0  0  0  0
   -1.2890   12.1304   -0.6037 N   0  0  0  0  0  0  0  0  0  0  0  0
    1.2200   -8.8489   -2.8567 H   0  0  0  0  0  0  0  0  0  0  0  0
    4.7445   -4.0997   -4.9624 H   0  0  0  0  0  0  0  0  0  0  0  0
    5.7540   -4.3229   -7.2177 H   0  0  0  0  0  0  0  0  0  0  0  0
    6.0215   -7.5519   -9.0829 H   0  0  0  0  0  0  0  0  0  0  0  0
    4.9457   -6.1829   -9.5835 H   0  0  0  0  0  0  0  0  0  0  0  0
    6.6189   -5.8570   -8.9748 H   0  0  0  0  0  0  0  0  0  0  0  0
    4.3772   -8.3950   -7.4566 H   0  0  0  0  0  0  0  0  0  0  0  0
    0.5223   -8.7207    1.0806 H   0  0  0  0  0  0  0  0  0  0  0  0
    1.2126   -9.3617   -0.4405 H   0  0  0  0  0  0  0  0  0  0  0  0
    2.6113   -7.4435    1.5345 H   0  0  0  0  0  0  0  0  0  0  0  0
    2.9734   -9.1914    1.2833 H   0  0  0  0  0  0  0  0  0  0  0  0
    3.3188   -8.0074   -0.0321 H   0  0  0  0  0  0  0  0  0  0  0  0
   -1.1478    6.5279    3.8407 H   0  0  0  0  0  0  0  0  0  0  0  0
   -1.0679    5.0371    4.8249 H   0  0  0  0  0  0  0  0  0  0  0  0
    1.2068    6.1485    3.0543 H   0  0  0  0  0  0  0  0  0  0  0  0
    1.2894    4.6473    4.0652 H   0  0  0  0  0  0  0  0  0  0  0  0
    1.0991    6.2586    4.8526 H   0  0  0  0  0  0  0  0  0  0  0  0
    0.1068   -1.0614   -1.2227 H   0  0  0  0  0  0  0  0  0  0  0  0
    0.7861   -2.6189   -1.6472 H   0  0  0  0  0  0  0  0  0  0  0  0
   -2.0735   -1.7956   -2.4917 H   0  0  0  0  0  0  0  0  0  0  0  0
   -1.1902   -3.2600   -2.9989 H   0  0  0  0  0  0  0  0  0  0  0  0
   -0.5955   -1.6456   -3.5204 H   0  0  0  0  0  0  0  0  0  0  0  0
   -2.3908    1.5680   -0.8210 H   0  0  0  0  0  0  0  0  0  0  0  0
   -1.5916    0.1884   -1.5216 H   0  0  0  0  0  0  0  0  0  0  0  0
   -4.0761   -0.0739   -1.4735 H   0  0  0  0  0  0  0  0  0  0  0  0
   -3.3435   -1.3243   -0.4027 H   0  0  0  0  0  0  0  0  0  0  0  0
   -4.0839    0.1631    0.3181 H   0  0  0  0  0  0  0  0  0  0  0  0
   -0.2316    6.7956    0.4157 H   0  0  0  0  0  0  0  0  0  0  0  0
   -5.2335    8.3139    3.8823 H   0  0  0  0  0  0  0  0  0  0  0  0
   -6.4971   10.0960    5.0626 H   0  0  0  0  0  0  0  0  0  0  0  0
   -6.8377   12.4833    5.5717 H   0  0  0  0  0  0  0  0  0  0  0  0
   -3.6506   13.5627    2.9133 H   0  0  0  0  0  0  0  0  0  0  0  0
   -2.3937   11.8159    1.7489 H   0  0  0  0  0  0  0  0  0  0  0  0
  1  2  2  3
  2  3  1  0
  3  4  2  0
  3  5  1  0
  5  6  2  0
  6  7  1  0
  7  8  2  0
  8  9  1  0
  8 10  1  0
 10 11  2  0
 11 12  1  0
 12 13  2  3
 13 14  1  0
 14 15  3  0
 13 16  1  0
 16 17  3  0
  1 18  1  0
 18 19  2  0
 19 20  1  0
 20 21  1  0
 19 22  1  0
 22 23  1  0
 23 24  1  0
 24 25  1  0
 25 26  1  0
 26 27  1  0
 27 28  2  0
 28 29  1  0
 29 30  1  0
 27 31  1  0
 31 32  1  0
 32 33  1  0
 33 34  1  0
 34 35  1  0
 35 36  1  0
 36 37  1  0
 35 38  2  0
 38 39  1  0
 39 40  1  0
 40 41  1  0
 41 42  1  0
 42 43  1  0
 43 44  1  0
 44 45  1  0
 45 46  1  0
 46 47  1  0
 47 48  1  0
 45 49  1  0
 49 50  1  0
 42 51  1  0
 51 52  1  0
 38 53  1  0
 53 54  2  3
 54 55  1  0
 55 56  2  0
 55 57  1  0
 57 58  2  0
 58 59  1  0
 59 60  2  0
 60 61  1  0
 61 62  2  0
 62 63  1  0
 62 64  1  0
 64 65  2  0
 65 66  1  0
 66 67  2  0
 67 68  1  0
 68 69  2  3
 69 70  1  0
 70 71  3  0
 69 72  1  0
 72 73  3  0
 12  2  1  0
 48 18  1  0
 68 54  1  0
 11  5  1  0
 47 22  2  0
 67 57  1  0
 46 24  2  0
 65 59  1  0
 44 25  2  0
 30 26  2  0
 43 31  2  0
 41 32  2  0
 40 34  2  0
  1 74  1  0
  6 75  1  0
  7 76  1  0
  9 77  1  0
  9 78  1  0
  9 79  1  0
 10 80  1  0
 20 81  1  0
 20 82  1  0
 21 83  1  0
 21 84  1  0
 21 85  1  0
 36 86  1  0
 36 87  1  0
 37 88  1  0
 37 89  1  0
 37 90  1  0
 49 91  1  0
 49 92  1  0
 50 93  1  0
 50 94  1  0
 50 95  1  0
 51 96  1  0
 51 97  1  0
 52 98  1  0
 52 99  1  0
 52100  1  0
 53101  1  0
 58102  1  0
 60103  1  0
 61104  1  0
 64105  1  0
 66106  1  0
M  END

