
     RDKit          3D

158174  0  0  0  0  0  0  0  0999 V2000
    1.7697    6.1880   -4.8652 C   0  0  0  0  0  0  0  0  0  0  0  0
    1.9378    6.3104   -6.1966 C   0  0  0  0  0  0  0  0  0  0  0  0
    2.6481    5.3553   -7.0601 C   0  0  0  0  0  0  0  0  0  0  0  0
    3.1668    4.2635   -6.7045 O   0  0  0  0  0  0  0  0  0  0  0  0
    2.8465    5.9664   -8.3523 C   0  0  0  0  0  0  0  0  0  0  0  0
    3.5266    5.4422   -9.4497 C   0  0  0  0  0  0  0  0  0  0  0  0
    3.6790    6.2395  -10.5880 C   0  0  0  0  0  0  0  0  0  0  0  0
    3.1643    7.5516  -10.6124 C   0  0  0  0  0  0  0  0  0  0  0  0
    3.3824    8.4211  -11.8149 C   0  0  0  0  0  0  0  0  0  0  0  0
    2.5102    8.0716   -9.4768 C   0  0  0  0  0  0  0  0  0  0  0  0
    2.3268    7.2489   -8.3507 C   0  0  0  0  0  0  0  0  0  0  0  0
    1.6705    7.5224   -7.0372 C   0  0  0  0  0  0  0  0  0  0  0  0
    0.8157    8.5429   -6.7502 C   0  0  0  0  0  0  0  0  0  0  0  0
    0.0396    8.5894   -5.5371 C   0  0  0  0  0  0  0  0  0  0  0  0
   -0.5917    8.6346   -4.5681 N   0  0  0  0  0  0  0  0  0  0  0  0
    0.5231    9.5996   -7.6815 C   0  0  0  0  0  0  0  0  0  0  0  0
    0.2708   10.4576   -8.4161 N   0  0  0  0  0  0  0  0  0  0  0  0
    1.8438    4.9141   -4.1264 C   0  0  0  0  0  0  0  0  0  0  0  0
    1.2172    3.4149   -4.6894 S   0  0  0  0  0  0  0  0  0  0  0  0
    1.5127    2.6626   -3.2330 C   0  0  0  0  0  0  0  0  0  0  0  0
    1.2375    1.5029   -2.5774 C   0  0  0  0  0  0  0  0  0  0  0  0
    0.4693    0.0302   -2.8664 S   0  0  0  0  0  0  0  0  0  0  0  0
    0.6530   -0.3530   -1.2174 C   0  0  0  0  0  0  0  0  0  0  0  0
    0.1992   -1.4210   -0.3805 C   0  0  0  0  0  0  0  0  0  0  0  0
   -0.6006   -2.5165   -0.7131 C   0  0  0  0  0  0  0  0  0  0  0  0
   -1.0497   -3.3314    0.3405 C   0  0  0  0  0  0  0  0  0  0  0  0
   -2.1638   -4.3893    0.2807 C   0  0  0  0  0  0  0  0  0  0  0  0
   -1.6177   -5.6983   -0.3220 C   0  0  0  0  0  0  0  0  0  0  0  0
   -1.1117   -5.7110   -1.6390 C   0  0  0  0  0  0  0  0  0  0  0  0
   -0.6191   -6.8857   -2.2133 C   0  0  0  0  0  0  0  0  0  0  0  0
   -0.6339   -8.0870   -1.4954 C   0  0  0  0  0  0  0  0  0  0  0  0
   -0.1122   -9.3549   -2.1199 C   0  0  0  0  0  0  0  0  0  0  0  0
   -1.1756  -10.0034   -3.0019 C   0  0  0  0  0  0  0  0  0  0  0  0
   -1.1804   -8.1051   -0.2060 C   0  0  0  0  0  0  0  0  0  0  0  0
   -1.6628   -6.9289    0.3768 C   0  0  0  0  0  0  0  0  0  0  0  0
   -3.4136   -3.8526   -0.4282 C   0  0  0  0  0  0  0  0  0  0  0  0
   -3.8375   -2.5236   -0.2062 C   0  0  0  0  0  0  0  0  0  0  0  0
   -4.9704   -2.0161   -0.8446 C   0  0  0  0  0  0  0  0  0  0  0  0
   -5.7171   -2.8254   -1.7088 C   0  0  0  0  0  0  0  0  0  0  0  0
   -6.9433   -2.2788   -2.3886 C   0  0  0  0  0  0  0  0  0  0  0  0
   -8.1827   -2.5099   -1.5306 C   0  0  0  0  0  0  0  0  0  0  0  0
   -5.3449   -4.1656   -1.8871 C   0  0  0  0  0  0  0  0  0  0  0  0
   -4.2148   -4.6780   -1.2459 C   0  0  0  0  0  0  0  0  0  0  0  0
   -2.4363   -4.5022    1.7663 C   0  0  0  0  0  0  0  0  0  0  0  0
   -1.5416   -3.8042    2.5117 C   0  0  0  0  0  0  0  0  0  0  0  0
   -0.6980   -3.0184    1.6596 C   0  0  0  0  0  0  0  0  0  0  0  0
    0.0808   -1.9032    1.9929 C   0  0  0  0  0  0  0  0  0  0  0  0
    0.5269   -1.0922    0.9350 C   0  0  0  0  0  0  0  0  0  0  0  0
    1.2176    0.2755    1.0243 C   0  0  0  0  0  0  0  0  0  0  0  0
    2.6700    0.1563    1.5135 C   0  0  0  0  0  0  0  0  0  0  0  0
    3.3114    1.2288    2.1662 C   0  0  0  0  0  0  0  0  0  0  0  0
    4.6568    1.1502    2.5300 C   0  0  0  0  0  0  0  0  0  0  0  0
    5.4099    0.0101    2.2263 C   0  0  0  0  0  0  0  0  0  0  0  0
    6.8574   -0.0761    2.6271 C   0  0  0  0  0  0  0  0  0  0  0  0
    6.9987   -0.7088    4.0070 C   0  0  0  0  0  0  0  0  0  0  0  0
    4.7896   -1.0597    1.5683 C   0  0  0  0  0  0  0  0  0  0  0  0
    3.4437   -0.9846    1.2026 C   0  0  0  0  0  0  0  0  0  0  0  0
    0.3077    1.1860    1.8640 C   0  0  0  0  0  0  0  0  0  0  0  0
   -0.7893    1.8592    1.2827 C   0  0  0  0  0  0  0  0  0  0  0  0
   -1.6551    2.6298    2.0643 C   0  0  0  0  0  0  0  0  0  0  0  0
   -1.4761    2.7099    3.4507 C   0  0  0  0  0  0  0  0  0  0  0  0
   -2.3690    3.5836    4.2887 C   0  0  0  0  0  0  0  0  0  0  0  0
   -1.7576    4.9703    4.4637 C   0  0  0  0  0  0  0  0  0  0  0  0
   -0.4295    1.9946    4.0491 C   0  0  0  0  0  0  0  0  0  0  0  0
    0.4297    1.2170    3.2707 C   0  0  0  0  0  0  0  0  0  0  0  0
    1.2324    0.6331   -0.4542 C   0  0  0  0  0  0  0  0  0  0  0  0
    1.5734    1.7143   -1.2679 C   0  0  0  0  0  0  0  0  0  0  0  0
    2.0630    2.9716   -1.0707 N   0  0  0  0  0  0  0  0  0  0  0  0
    2.0084    3.5200   -2.3121 C   0  0  0  0  0  0  0  0  0  0  0  0
    2.1997    4.8208   -2.7673 C   0  0  0  0  0  0  0  0  0  0  0  0
    2.4064    3.6550    0.1334 C   0  0  0  0  0  0  0  0  0  0  0  0
    1.4800    4.2917    0.9643 C   0  0  0  0  0  0  0  0  0  0  0  0
    2.1394    5.0677    1.9078 C   0  0  0  0  0  0  0  0  0  0  0  0
    1.6346    6.0853    3.1367 S   0  0  0  0  0  0  0  0  0  0  0  0
    3.2233    6.5446    3.5567 C   0  0  0  0  0  0  0  0  0  0  0  0
    3.5629    7.5381    4.6240 C   0  0  0  0  0  0  0  0  0  0  0  0
    3.3908    8.9630    4.1109 C   0  0  0  0  0  0  0  0  0  0  0  0
    4.1485    5.9164    2.7138 C   0  0  0  0  0  0  0  0  0  0  0  0
    3.4937    5.0961    1.8050 C   0  0  0  0  0  0  0  0  0  0  0  0
    3.9953    4.1525    0.5141 S   0  0  0  0  0  0  0  0  0  0  0  0
   -2.0328   -3.6954    4.1064 S   0  0  0  0  0  0  0  0  0  0  0  0
   -3.4459   -4.6118    3.8420 C   0  0  0  0  0  0  0  0  0  0  0  0
   -3.5224   -4.9919    2.4969 C   0  0  0  0  0  0  0  0  0  0  0  0
   -4.3884   -5.0579    4.8826 C   0  0  0  0  0  0  0  0  0  0  0  0
   -4.6871   -4.3809    6.0086 C   0  0  0  0  0  0  0  0  0  0  0  0
   -4.9448   -5.0767    7.2608 C   0  0  0  0  0  0  0  0  0  0  0  0
   -5.2446   -6.2977    7.3679 O   0  0  0  0  0  0  0  0  0  0  0  0
   -4.7326   -4.1528    8.3655 C   0  0  0  0  0  0  0  0  0  0  0  0
   -4.8105   -4.4184    9.7410 C   0  0  0  0  0  0  0  0  0  0  0  0
   -5.0705   -6.0593   10.3341 Cl  0  0  0  0  0  0  0  0  0  0  0  0
   -4.6727   -3.3461   10.6380 C   0  0  0  0  0  0  0  0  0  0  0  0
   -4.7128   -3.6450   12.3773 Cl  0  0  0  0  0  0  0  0  0  0  0  0
   -4.5622   -2.0259   10.1480 C   0  0  0  0  0  0  0  0  0  0  0  0
   -4.4988   -0.6782   11.2868 Cl  0  0  0  0  0  0  0  0  0  0  0  0
   -4.5322   -1.7760    8.7560 C   0  0  0  0  0  0  0  0  0  0  0  0
   -4.8081   -0.1251    8.2114 Cl  0  0  0  0  0  0  0  0  0  0  0  0
   -4.4878   -2.8777    7.8685 C   0  0  0  0  0  0  0  0  0  0  0  0
   -4.4379   -2.9540    6.3687 C   0  0  0  0  0  0  0  0  0  0  0  0
   -4.2977   -1.9297    5.4987 C   0  0  0  0  0  0  0  0  0  0  0  0
   -4.8772   -1.9828    4.1785 C   0  0  0  0  0  0  0  0  0  0  0  0
   -5.3475   -2.0210    3.1216 N   0  0  0  0  0  0  0  0  0  0  0  0
   -3.3590   -0.8659    5.7424 C   0  0  0  0  0  0  0  0  0  0  0  0
   -2.5880   -0.0194    5.9263 N   0  0  0  0  0  0  0  0  0  0  0  0
    1.5477    7.0583   -4.2690 H   0  0  0  0  0  0  0  0  0  0  0  0
    3.9408    4.4404   -9.4193 H   0  0  0  0  0  0  0  0  0  0  0  0
    4.2114    5.8411  -11.4435 H   0  0  0  0  0  0  0  0  0  0  0  0
    2.5041    9.0826  -11.9770 H   0  0  0  0  0  0  0  0  0  0  0  0
    4.2868    9.0480  -11.6609 H   0  0  0  0  0  0  0  0  0  0  0  0
    3.5212    7.8064  -12.7299 H   0  0  0  0  0  0  0  0  0  0  0  0
    2.1898    9.0989   -9.4910 H   0  0  0  0  0  0  0  0  0  0  0  0
   -0.9490   -2.6504   -1.7270 H   0  0  0  0  0  0  0  0  0  0  0  0
   -1.1186   -4.8157   -2.2402 H   0  0  0  0  0  0  0  0  0  0  0  0
   -0.2343   -6.8590   -3.2263 H   0  0  0  0  0  0  0  0  0  0  0  0
    0.7879   -9.1309   -2.7330 H   0  0  0  0  0  0  0  0  0  0  0  0
    0.1989  -10.0744   -1.3305 H   0  0  0  0  0  0  0  0  0  0  0  0
   -0.7799  -10.9561   -3.4176 H   0  0  0  0  0  0  0  0  0  0  0  0
   -1.4347   -9.3274   -3.8480 H   0  0  0  0  0  0  0  0  0  0  0  0
   -2.0931  -10.2236   -2.4127 H   0  0  0  0  0  0  0  0  0  0  0  0
   -1.2361   -9.0322    0.3517 H   0  0  0  0  0  0  0  0  0  0  0  0
   -2.0750   -7.0021    1.3730 H   0  0  0  0  0  0  0  0  0  0  0  0
   -3.2892   -1.8713    0.4627 H   0  0  0  0  0  0  0  0  0  0  0  0
   -5.2606   -0.9885   -0.6672 H   0  0  0  0  0  0  0  0  0  0  0  0
   -6.8234   -1.1881   -2.5759 H   0  0  0  0  0  0  0  0  0  0  0  0
   -7.0830   -2.7678   -3.3781 H   0  0  0  0  0  0  0  0  0  0  0  0
   -8.3543   -3.5974   -1.3892 H   0  0  0  0  0  0  0  0  0  0  0  0
   -8.0629   -2.0263   -0.5368 H   0  0  0  0  0  0  0  0  0  0  0  0
   -9.0698   -2.0712   -2.0367 H   0  0  0  0  0  0  0  0  0  0  0  0
   -5.9339   -4.8161   -2.5225 H   0  0  0  0  0  0  0  0  0  0  0  0
   -3.9726   -5.7209   -1.4006 H   0  0  0  0  0  0  0  0  0  0  0  0
    0.2564   -1.6322    3.0253 H   0  0  0  0  0  0  0  0  0  0  0  0
    2.7775    2.1366    2.4033 H   0  0  0  0  0  0  0  0  0  0  0  0
    5.1138    1.9876    3.0436 H   0  0  0  0  0  0  0  0  0  0  0  0
    7.4222   -0.6836    1.8872 H   0  0  0  0  0  0  0  0  0  0  0  0
    7.3129    0.9360    2.6412 H   0  0  0  0  0  0  0  0  0  0  0  0
    6.4656   -0.0944    4.7668 H   0  0  0  0  0  0  0  0  0  0  0  0
    8.0719   -0.7594    4.2819 H   0  0  0  0  0  0  0  0  0  0  0  0
    6.5815   -1.7373    4.0093 H   0  0  0  0  0  0  0  0  0  0  0  0
    5.3557   -1.9487    1.3231 H   0  0  0  0  0  0  0  0  0  0  0  0
    3.0165   -1.8170    0.6623 H   0  0  0  0  0  0  0  0  0  0  0  0
   -0.9782    1.8047    0.2185 H   0  0  0  0  0  0  0  0  0  0  0  0
   -2.4626    3.1671    1.5835 H   0  0  0  0  0  0  0  0  0  0  0  0
   -2.5240    3.1240    5.2888 H   0  0  0  0  0  0  0  0  0  0  0  0
   -3.3679    3.6861    3.8144 H   0  0  0  0  0  0  0  0  0  0  0  0
   -1.6866    5.4861    3.4805 H   0  0  0  0  0  0  0  0  0  0  0  0
   -0.7430    4.8987    4.9124 H   0  0  0  0  0  0  0  0  0  0  0  0
   -2.4016    5.5770    5.1364 H   0  0  0  0  0  0  0  0  0  0  0  0
   -0.2842    2.0321    5.1214 H   0  0  0  0  0  0  0  0  0  0  0  0
    1.1963    0.6420    3.7731 H   0  0  0  0  0  0  0  0  0  0  0  0
    2.5271    5.6500   -2.1558 H   0  0  0  0  0  0  0  0  0  0  0  0
    0.4067    4.2488    0.8477 H   0  0  0  0  0  0  0  0  0  0  0  0
    2.8980    7.3751    5.5007 H   0  0  0  0  0  0  0  0  0  0  0  0
    4.6144    7.3913    4.9550 H   0  0  0  0  0  0  0  0  0  0  0  0
    3.6046    9.6796    4.9341 H   0  0  0  0  0  0  0  0  0  0  0  0
    4.0884    9.1589    3.2669 H   0  0  0  0  0  0  0  0  0  0  0  0
    2.3449    9.1222    3.7684 H   0  0  0  0  0  0  0  0  0  0  0  0
    5.2178    6.0675    2.7479 H   0  0  0  0  0  0  0  0  0  0  0  0
   -4.3401   -5.5505    2.0620 H   0  0  0  0  0  0  0  0  0  0  0  0
   -4.6985   -6.0954    4.8078 H   0  0  0  0  0  0  0  0  0  0  0  0
  1  2  2  3
  2  3  1  0
  3  4  2  0
  3  5  1  0
  5  6  2  0
  6  7  1  0
  7  8  2  0
  8  9  1  0
  8 10  1  0
 10 11  2  0
 11 12  1  0
 12 13  2  3
 13 14  1  0
 14 15  3  0
 13 16  1  0
 16 17  3  0
  1 18  1  0
 18 19  1  0
 19 20  1  0
 20 21  1  0
 21 22  1  0
 22 23  1  0
 23 24  1  0
 24 25  2  0
 25 26  1  0
 26 27  1  0
 27 28  1  0
 28 29  2  0
 29 30  1  0
 30 31  2  0
 31 32  1  0
 32 33  1  0
 31 34  1  0
 34 35  2  0
 27 36  1  0
 36 37  2  0
 37 38  1  0
 38 39  2  0
 39 40  1  0
 40 41  1  0
 39 42  1  0
 42 43  2  0
 27 44  1  0
 44 45  2  0
 45 46  1  0
 46 47  1  0
 47 48  2  0
 48 49  1  0
 49 50  1  0
 50 51  2  0
 51 52  1  0
 52 53  2  0
 53 54  1  0
 54 55  1  0
 53 56  1  0
 56 57  2  0
 49 58  1  0
 58 59  2  0
 59 60  1  0
 60 61  2  0
 61 62  1  0
 62 63  1  0
 61 64  1  0
 64 65  2  0
 49 66  1  0
 66 67  1  0
 67 68  1  0
 68 69  1  0
 69 70  1  0
 68 71  1  0
 71 72  2  0
 72 73  1  0
 73 74  1  0
 74 75  1  0
 75 76  1  0
 76 77  1  0
 75 78  2  0
 78 79  1  0
 79 80  1  0
 45 81  1  0
 81 82  1  0
 82 83  2  0
 82 84  1  0
 84 85  2  3
 85 86  1  0
 86 87  2  0
 86 88  1  0
 88 89  2  0
 89 90  1  0
 89 91  1  0
 91 92  1  0
 91 93  2  0
 93 94  1  0
 93 95  1  0
 95 96  1  0
 95 97  2  0
 97 98  1  0
 98 99  2  3
 99100  1  0
100101  3  0
 99102  1  0
102103  3  0
 12  2  1  0
 70 18  2  0
 80 71  1  0
 98 85  1  0
 11  5  1  0
 69 20  2  0
 79 73  2  0
 97 88  1  0
 67 21  2  0
 66 23  2  0
 48 24  1  0
 57 50  1  0
 65 58  1  0
 46 26  2  0
 35 28  1  0
 43 36  1  0
 83 44  1  0
  1104  1  0
  6105  1  0
  7106  1  0
  9107  1  0
  9108  1  0
  9109  1  0
 10110  1  0
 25111  1  0
 29112  1  0
 30113  1  0
 32114  1  0
 32115  1  0
 33116  1  0
 33117  1  0
 33118  1  0
 34119  1  0
 35120  1  0
 37121  1  0
 38122  1  0
 40123  1  0
 40124  1  0
 41125  1  0
 41126  1  0
 41127  1  0
 42128  1  0
 43129  1  0
 47130  1  0
 51131  1  0
 52132  1  0
 54133  1  0
 54134  1  0
 55135  1  0
 55136  1  0
 55137  1  0
 56138  1  0
 57139  1  0
 59140  1  0
 60141  1  0
 62142  1  0
 62143  1  0
 63144  1  0
 63145  1  0
 63146  1  0
 64147  1  0
 65148  1  0
 70149  1  0
 72150  1  0
 76151  1  0
 76152  1  0
 77153  1  0
 77154  1  0
 77155  1  0
 78156  1  0
 83157  1  0
 84158  1  0
M  END

