
     RDKit          3D

172189  0  0  0  0  0  0  0  0999 V2000
   -8.0748   -0.0978    2.8406 C   0  0  0  0  0  0  0  0  0  0  0  0
   -8.7795    0.9976    3.1761 C   0  0  0  0  0  0  0  0  0  0  0  0
  -10.1745    0.9130    3.6366 C   0  0  0  0  0  0  0  0  0  0  0  0
  -10.9480   -0.0742    3.5291 O   0  0  0  0  0  0  0  0  0  0  0  0
  -10.4649    2.1361    4.3530 C   0  0  0  0  0  0  0  0  0  0  0  0
  -11.5731    2.5947    5.0363 C   0  0  0  0  0  0  0  0  0  0  0  0
  -11.1395    4.1376    5.5655 S   0  0  0  0  0  0  0  0  0  0  0  0
   -9.5707    4.1952    4.9356 C   0  0  0  0  0  0  0  0  0  0  0  0
   -9.3825    2.9830    4.2861 C   0  0  0  0  0  0  0  0  0  0  0  0
   -8.3033    2.3863    3.4622 C   0  0  0  0  0  0  0  0  0  0  0  0
   -7.3224    3.0703    2.8211 C   0  0  0  0  0  0  0  0  0  0  0  0
   -7.0186    4.4421    3.1403 C   0  0  0  0  0  0  0  0  0  0  0  0
   -6.7724    5.5435    3.3935 N   0  0  0  0  0  0  0  0  0  0  0  0
   -6.6318    2.5080    1.6875 C   0  0  0  0  0  0  0  0  0  0  0  0
   -6.0717    2.0718    0.7703 N   0  0  0  0  0  0  0  0  0  0  0  0
   -6.6196   -0.2595    2.9399 C   0  0  0  0  0  0  0  0  0  0  0  0
   -5.7667    0.3536    3.8787 C   0  0  0  0  0  0  0  0  0  0  0  0
   -4.4903   -0.2011    3.8237 C   0  0  0  0  0  0  0  0  0  0  0  0
   -3.0142    0.1868    4.5610 S   0  0  0  0  0  0  0  0  0  0  0  0
   -2.2202   -1.0642    3.7276 C   0  0  0  0  0  0  0  0  0  0  0  0
   -0.8638   -1.3040    3.3411 C   0  0  0  0  0  0  0  0  0  0  0  0
    0.4996   -0.3154    3.4224 S   0  0  0  0  0  0  0  0  0  0  0  0
    1.2332   -1.1659    2.1594 C   0  0  0  0  0  0  0  0  0  0  0  0
    2.2057   -0.7522    1.1872 C   0  0  0  0  0  0  0  0  0  0  0  0
    3.0703    0.3468    1.2339 C   0  0  0  0  0  0  0  0  0  0  0  0
    3.7388    0.6805    0.0500 C   0  0  0  0  0  0  0  0  0  0  0  0
    4.5076    1.9711   -0.2205 C   0  0  0  0  0  0  0  0  0  0  0  0
    5.9855    1.8994    0.1902 C   0  0  0  0  0  0  0  0  0  0  0  0
    6.8761    2.8991   -0.2468 C   0  0  0  0  0  0  0  0  0  0  0  0
    8.2334    2.8462    0.0742 C   0  0  0  0  0  0  0  0  0  0  0  0
    8.7358    1.7937    0.8540 C   0  0  0  0  0  0  0  0  0  0  0  0
   10.2042    1.7070    1.1685 C   0  0  0  0  0  0  0  0  0  0  0  0
   10.9233    0.7808    0.1923 C   0  0  0  0  0  0  0  0  0  0  0  0
    7.8557    0.8013    1.3116 C   0  0  0  0  0  0  0  0  0  0  0  0
    6.4964    0.8577    0.9954 C   0  0  0  0  0  0  0  0  0  0  0  0
    3.7493    3.1668    0.3781 C   0  0  0  0  0  0  0  0  0  0  0  0
    4.2603    3.9040    1.4656 C   0  0  0  0  0  0  0  0  0  0  0  0
    3.5161    4.9405    2.0371 C   0  0  0  0  0  0  0  0  0  0  0  0
    2.2442    5.2568    1.5452 C   0  0  0  0  0  0  0  0  0  0  0  0
    1.4216    6.3354    2.2027 C   0  0  0  0  0  0  0  0  0  0  0  0
    0.4157    5.7267    3.1821 C   0  0  0  0  0  0  0  0  0  0  0  0
    1.7078    4.4987    0.4944 C   0  0  0  0  0  0  0  0  0  0  0  0
    2.4460    3.4597   -0.0696 C   0  0  0  0  0  0  0  0  0  0  0  0
    4.4469    1.9442   -1.7338 C   0  0  0  0  0  0  0  0  0  0  0  0
    4.0020    0.7475   -2.2153 C   0  0  0  0  0  0  0  0  0  0  0  0
    3.5234   -0.0579   -1.1159 C   0  0  0  0  0  0  0  0  0  0  0  0
    2.7082   -1.1995   -1.1473 C   0  0  0  0  0  0  0  0  0  0  0  0
    2.0197   -1.5253    0.0366 C   0  0  0  0  0  0  0  0  0  0  0  0
    1.0723   -2.6933    0.3363 C   0  0  0  0  0  0  0  0  0  0  0  0
    0.0752   -3.0951   -0.7561 C   0  0  0  0  0  0  0  0  0  0  0  0
   -0.5354   -4.3670   -0.6691 C   0  0  0  0  0  0  0  0  0  0  0  0
   -1.2423   -4.9030   -1.7449 C   0  0  0  0  0  0  0  0  0  0  0  0
   -1.3520   -4.1864   -2.9449 C   0  0  0  0  0  0  0  0  0  0  0  0
   -1.9966   -4.8311   -4.1423 C   0  0  0  0  0  0  0  0  0  0  0  0
   -1.0284   -5.8041   -4.8151 C   0  0  0  0  0  0  0  0  0  0  0  0
   -0.8092   -2.8951   -3.0206 C   0  0  0  0  0  0  0  0  0  0  0  0
   -0.1392   -2.3390   -1.9263 C   0  0  0  0  0  0  0  0  0  0  0  0
    2.0076   -3.8835    0.6328 C   0  0  0  0  0  0  0  0  0  0  0  0
    2.7225   -4.4686   -0.4357 C   0  0  0  0  0  0  0  0  0  0  0  0
    3.6455   -5.4897   -0.2100 C   0  0  0  0  0  0  0  0  0  0  0  0
    3.8808   -5.9554    1.0888 C   0  0  0  0  0  0  0  0  0  0  0  0
    4.9019   -7.0377    1.3267 C   0  0  0  0  0  0  0  0  0  0  0  0
    4.3683   -8.3992    0.8983 C   0  0  0  0  0  0  0  0  0  0  0  0
    3.1546   -5.4131    2.1559 C   0  0  0  0  0  0  0  0  0  0  0  0
    2.2355   -4.3803    1.9353 C   0  0  0  0  0  0  0  0  0  0  0  0
    0.4221   -2.1275    1.6059 C   0  0  0  0  0  0  0  0  0  0  0  0
   -0.8390   -2.1507    2.2438 C   0  0  0  0  0  0  0  0  0  0  0  0
   -2.2733   -2.5055    1.7927 C   0  0  0  0  0  0  0  0  0  0  0  0
   -2.6092   -3.9991    1.9885 C   0  0  0  0  0  0  0  0  0  0  0  0
   -1.6934   -4.8825    2.6127 C   0  0  0  0  0  0  0  0  0  0  0  0
   -2.0734   -6.1701    2.9952 C   0  0  0  0  0  0  0  0  0  0  0  0
   -3.3762   -6.6235    2.7602 C   0  0  0  0  0  0  0  0  0  0  0  0
   -3.8262   -7.9626    3.2832 C   0  0  0  0  0  0  0  0  0  0  0  0
   -4.5162   -7.8060    4.6360 C   0  0  0  0  0  0  0  0  0  0  0  0
   -4.2960   -5.7691    2.1399 C   0  0  0  0  0  0  0  0  0  0  0  0
   -3.9205   -4.4733    1.7761 C   0  0  0  0  0  0  0  0  0  0  0  0
   -2.5839   -1.8502    0.4290 C   0  0  0  0  0  0  0  0  0  0  0  0
   -3.2682   -2.5050   -0.6165 C   0  0  0  0  0  0  0  0  0  0  0  0
   -3.6671   -1.8061   -1.7622 C   0  0  0  0  0  0  0  0  0  0  0  0
   -3.3734   -0.4425   -1.9041 C   0  0  0  0  0  0  0  0  0  0  0  0
   -3.8148    0.3177   -3.1242 C   0  0  0  0  0  0  0  0  0  0  0  0
   -2.9216   -0.0022   -4.3206 C   0  0  0  0  0  0  0  0  0  0  0  0
   -2.6523    0.2089   -0.8993 C   0  0  0  0  0  0  0  0  0  0  0  0
   -2.2697   -0.4813    0.2479 C   0  0  0  0  0  0  0  0  0  0  0  0
   -3.0416   -1.7254    2.8515 C   0  0  0  0  0  0  0  0  0  0  0  0
   -4.3322   -1.2115    2.9136 C   0  0  0  0  0  0  0  0  0  0  0  0
   -5.7681   -1.4584    2.0828 S   0  0  0  0  0  0  0  0  0  0  0  0
    3.5005    0.9146   -3.8111 S   0  0  0  0  0  0  0  0  0  0  0  0
    3.9687    2.5461   -3.9105 C   0  0  0  0  0  0  0  0  0  0  0  0
    4.4461    2.9794   -2.6723 C   0  0  0  0  0  0  0  0  0  0  0  0
    3.7073    3.4323   -5.0448 C   0  0  0  0  0  0  0  0  0  0  0  0
    2.6941    4.3156   -5.0586 C   0  0  0  0  0  0  0  0  0  0  0  0
    1.5178    4.2982   -4.1890 C   0  0  0  0  0  0  0  0  0  0  0  0
    1.3677    3.5861   -3.1608 O   0  0  0  0  0  0  0  0  0  0  0  0
    0.4833    5.1172   -4.8024 C   0  0  0  0  0  0  0  0  0  0  0  0
   -0.8439    5.3036   -4.4003 C   0  0  0  0  0  0  0  0  0  0  0  0
   -1.4088    4.6851   -2.8500 Cl  0  0  0  0  0  0  0  0  0  0  0  0
   -1.7100    6.0085   -5.2594 C   0  0  0  0  0  0  0  0  0  0  0  0
   -3.3719    6.3131   -4.7632 Cl  0  0  0  0  0  0  0  0  0  0  0  0
   -1.2577    6.4303   -6.5317 C   0  0  0  0  0  0  0  0  0  0  0  0
   -2.3764    7.2287   -7.6426 Cl  0  0  0  0  0  0  0  0  0  0  0  0
    0.0794    6.2075   -6.9254 C   0  0  0  0  0  0  0  0  0  0  0  0
    0.5333    6.4432   -8.6175 Cl  0  0  0  0  0  0  0  0  0  0  0  0
    0.9709    5.6385   -5.9929 C   0  0  0  0  0  0  0  0  0  0  0  0
    2.4228    5.3267   -6.1098 C   0  0  0  0  0  0  0  0  0  0  0  0
    3.3759    6.1599   -6.6145 C   0  0  0  0  0  0  0  0  0  0  0  0
    3.0460    7.4279   -7.2141 C   0  0  0  0  0  0  0  0  0  0  0  0
    2.8009    8.4554   -7.6899 N   0  0  0  0  0  0  0  0  0  0  0  0
    4.7678    5.9970   -6.2777 C   0  0  0  0  0  0  0  0  0  0  0  0
    5.8725    5.8872   -5.9686 N   0  0  0  0  0  0  0  0  0  0  0  0
   -8.6218   -1.0153    2.6616 H   0  0  0  0  0  0  0  0  0  0  0  0
  -12.5147    2.0798    5.1869 H   0  0  0  0  0  0  0  0  0  0  0  0
   -8.8726    5.0082    5.0372 H   0  0  0  0  0  0  0  0  0  0  0  0
   -6.0581    1.1352    4.5623 H   0  0  0  0  0  0  0  0  0  0  0  0
    3.1385    0.9680    2.1150 H   0  0  0  0  0  0  0  0  0  0  0  0
    6.5185    3.7308   -0.8382 H   0  0  0  0  0  0  0  0  0  0  0  0
    8.8918    3.6284   -0.2842 H   0  0  0  0  0  0  0  0  0  0  0  0
   10.3433    1.3259    2.2046 H   0  0  0  0  0  0  0  0  0  0  0  0
   10.6693    2.7153    1.1200 H   0  0  0  0  0  0  0  0  0  0  0  0
   10.8228    1.1545   -0.8511 H   0  0  0  0  0  0  0  0  0  0  0  0
   10.5061   -0.2451    0.2518 H   0  0  0  0  0  0  0  0  0  0  0  0
   12.0037    0.7347    0.4515 H   0  0  0  0  0  0  0  0  0  0  0  0
    8.2261   -0.0149    1.9172 H   0  0  0  0  0  0  0  0  0  0  0  0
    5.8595    0.0738    1.3753 H   0  0  0  0  0  0  0  0  0  0  0  0
    5.2212    3.6728    1.9066 H   0  0  0  0  0  0  0  0  0  0  0  0
    3.9347    5.4899    2.8754 H   0  0  0  0  0  0  0  0  0  0  0  0
    0.8794    6.9231    1.4297 H   0  0  0  0  0  0  0  0  0  0  0  0
    2.0826    7.0375    2.7524 H   0  0  0  0  0  0  0  0  0  0  0  0
   -0.0685    6.5353    3.7750 H   0  0  0  0  0  0  0  0  0  0  0  0
    0.9197    5.0157    3.8710 H   0  0  0  0  0  0  0  0  0  0  0  0
   -0.3773    5.1935    2.6181 H   0  0  0  0  0  0  0  0  0  0  0  0
    0.7046    4.6991    0.1363 H   0  0  0  0  0  0  0  0  0  0  0  0
    1.9852    2.8513   -0.8359 H   0  0  0  0  0  0  0  0  0  0  0  0
    2.5732   -1.7551   -2.0651 H   0  0  0  0  0  0  0  0  0  0  0  0
   -0.4070   -4.9803    0.2101 H   0  0  0  0  0  0  0  0  0  0  0  0
   -1.6727   -5.8927   -1.6560 H   0  0  0  0  0  0  0  0  0  0  0  0
   -2.9058   -5.3831   -3.8304 H   0  0  0  0  0  0  0  0  0  0  0  0
   -2.3079   -4.0582   -4.8822 H   0  0  0  0  0  0  0  0  0  0  0  0
   -1.5104   -6.2501   -5.7134 H   0  0  0  0  0  0  0  0  0  0  0  0
   -0.1069   -5.2741   -5.1323 H   0  0  0  0  0  0  0  0  0  0  0  0
   -0.7600   -6.6280   -4.1207 H   0  0  0  0  0  0  0  0  0  0  0  0
   -0.8892   -2.3206   -3.9368 H   0  0  0  0  0  0  0  0  0  0  0  0
    0.2452   -1.3348   -2.0227 H   0  0  0  0  0  0  0  0  0  0  0  0
    2.5648   -4.1327   -1.4482 H   0  0  0  0  0  0  0  0  0  0  0  0
    4.1782   -5.9132   -1.0517 H   0  0  0  0  0  0  0  0  0  0  0  0
    5.8259   -6.8076    0.7505 H   0  0  0  0  0  0  0  0  0  0  0  0
    5.1846   -7.0769    2.4025 H   0  0  0  0  0  0  0  0  0  0  0  0
    5.1432   -9.1731    1.0694 H   0  0  0  0  0  0  0  0  0  0  0  0
    4.1114   -8.3965   -0.1831 H   0  0  0  0  0  0  0  0  0  0  0  0
    3.4632   -8.6599    1.4873 H   0  0  0  0  0  0  0  0  0  0  0  0
    3.3035   -5.7822    3.1641 H   0  0  0  0  0  0  0  0  0  0  0  0
    1.7271   -3.9684    2.7953 H   0  0  0  0  0  0  0  0  0  0  0  0
   -0.6896   -4.5744    2.8554 H   0  0  0  0  0  0  0  0  0  0  0  0
   -1.3605   -6.8040    3.5068 H   0  0  0  0  0  0  0  0  0  0  0  0
   -4.5253   -8.4360    2.5632 H   0  0  0  0  0  0  0  0  0  0  0  0
   -2.9549   -8.6462    3.3956 H   0  0  0  0  0  0  0  0  0  0  0  0
   -4.8197   -8.8063    5.0155 H   0  0  0  0  0  0  0  0  0  0  0  0
   -3.8323   -7.3354    5.3690 H   0  0  0  0  0  0  0  0  0  0  0  0
   -5.4262   -7.1751    4.5293 H   0  0  0  0  0  0  0  0  0  0  0  0
   -5.3161   -6.0908    1.9738 H   0  0  0  0  0  0  0  0  0  0  0  0
   -4.6760   -3.8360    1.3537 H   0  0  0  0  0  0  0  0  0  0  0  0
   -3.4895   -3.5604   -0.5787 H   0  0  0  0  0  0  0  0  0  0  0  0
   -4.2053   -2.3338   -2.5418 H   0  0  0  0  0  0  0  0  0  0  0  0
   -4.8674    0.0600   -3.3683 H   0  0  0  0  0  0  0  0  0  0  0  0
   -3.7779    1.4141   -2.9379 H   0  0  0  0  0  0  0  0  0  0  0  0
   -3.0239   -1.0742   -4.5918 H   0  0  0  0  0  0  0  0  0  0  0  0
   -3.2318    0.6171   -5.1876 H   0  0  0  0  0  0  0  0  0  0  0  0
   -1.8617    0.2209   -4.0744 H   0  0  0  0  0  0  0  0  0  0  0  0
   -2.4063    1.2599   -0.9868 H   0  0  0  0  0  0  0  0  0  0  0  0
   -1.7546    0.0733    1.0190 H   0  0  0  0  0  0  0  0  0  0  0  0
    4.6659    4.0151   -2.4408 H   0  0  0  0  0  0  0  0  0  0  0  0
    4.3930    3.3848   -5.8813 H   0  0  0  0  0  0  0  0  0  0  0  0
  1  2  2  3
  2  3  1  0
  3  4  2  0
  3  5  1  0
  5  6  2  0
  6  7  1  0
  7  8  1  0
  8  9  2  0
  9 10  1  0
 10 11  2  3
 11 12  1  0
 12 13  3  0
 11 14  1  0
 14 15  3  0
  1 16  1  0
 16 17  2  0
 17 18  1  0
 18 19  1  0
 19 20  1  0
 20 21  1  0
 21 22  1  0
 22 23  1  0
 23 24  1  0
 24 25  2  0
 25 26  1  0
 26 27  1  0
 27 28  1  0
 28 29  2  0
 29 30  1  0
 30 31  2  0
 31 32  1  0
 32 33  1  0
 31 34  1  0
 34 35  2  0
 27 36  1  0
 36 37  2  0
 37 38  1  0
 38 39  2  0
 39 40  1  0
 40 41  1  0
 39 42  1  0
 42 43  2  0
 27 44  1  0
 44 45  2  0
 45 46  1  0
 46 47  1  0
 47 48  2  0
 48 49  1  0
 49 50  1  0
 50 51  2  0
 51 52  1  0
 52 53  2  0
 53 54  1  0
 54 55  1  0
 53 56  1  0
 56 57  2  0
 49 58  1  0
 58 59  2  0
 59 60  1  0
 60 61  2  0
 61 62  1  0
 62 63  1  0
 61 64  1  0
 64 65  2  0
 49 66  1  0
 66 67  1  0
 67 68  1  0
 68 69  1  0
 69 70  2  0
 70 71  1  0
 71 72  2  0
 72 73  1  0
 73 74  1  0
 72 75  1  0
 75 76  2  0
 68 77  1  0
 77 78  2  0
 78 79  1  0
 79 80  2  0
 80 81  1  0
 81 82  1  0
 80 83  1  0
 83 84  2  0
 68 85  1  0
 85 86  1  0
 86 87  1  0
 45 88  1  0
 88 89  1  0
 89 90  2  0
 89 91  1  0
 91 92  2  3
 92 93  1  0
 93 94  2  0
 93 95  1  0
 95 96  2  0
 96 97  1  0
 96 98  1  0
 98 99  1  0
 98100  2  0
100101  1  0
100102  1  0
102103  1  0
102104  2  0
104105  1  0
105106  2  3
106107  1  0
107108  3  0
106109  1  0
109110  3  0
 10  2  1  0
 87 16  1  0
105 92  1  0
  9  5  1  0
 86 18  2  0
104 95  1  0
 85 20  2  0
 67 21  2  0
 76 69  1  0
 84 77  1  0
 66 23  2  0
 48 24  1  0
 57 50  1  0
 65 58  1  0
 46 26  2  0
 35 28  1  0
 43 36  1  0
 90 44  1  0
  1111  1  0
  6112  1  0
  8113  1  0
 17114  1  0
 25115  1  0
 29116  1  0
 30117  1  0
 32118  1  0
 32119  1  0
 33120  1  0
 33121  1  0
 33122  1  0
 34123  1  0
 35124  1  0
 37125  1  0
 38126  1  0
 40127  1  0
 40128  1  0
 41129  1  0
 41130  1  0
 41131  1  0
 42132  1  0
 43133  1  0
 47134  1  0
 51135  1  0
 52136  1  0
 54137  1  0
 54138  1  0
 55139  1  0
 55140  1  0
 55141  1  0
 56142  1  0
 57143  1  0
 59144  1  0
 60145  1  0
 62146  1  0
 62147  1  0
 63148  1  0
 63149  1  0
 63150  1  0
 64151  1  0
 65152  1  0
 70153  1  0
 71154  1  0
 73155  1  0
 73156  1  0
 74157  1  0
 74158  1  0
 74159  1  0
 75160  1  0
 76161  1  0
 78162  1  0
 79163  1  0
 81164  1  0
 81165  1  0
 82166  1  0
 82167  1  0
 82168  1  0
 83169  1  0
 84170  1  0
 90171  1  0
 91172  1  0
M  END

