
     RDKit          3D

172189  0  0  0  0  0  0  0  0999 V2000
   -5.8484    4.1719    4.5850 C   0  0  0  0  0  0  0  0  0  0  0  0
   -7.1636    4.4532    4.6535 C   0  0  0  0  0  0  0  0  0  0  0  0
   -8.2584    3.4609    4.6194 C   0  0  0  0  0  0  0  0  0  0  0  0
   -8.1536    2.2093    4.5410 O   0  0  0  0  0  0  0  0  0  0  0  0
   -9.4902    4.1586    4.8865 C   0  0  0  0  0  0  0  0  0  0  0  0
  -10.8141    3.7569    4.9316 C   0  0  0  0  0  0  0  0  0  0  0  0
  -11.6913    5.1731    5.2300 S   0  0  0  0  0  0  0  0  0  0  0  0
  -10.3897    6.2542    5.3032 C   0  0  0  0  0  0  0  0  0  0  0  0
   -9.2448    5.4892    5.1006 C   0  0  0  0  0  0  0  0  0  0  0  0
   -7.7993    5.7844    4.9652 C   0  0  0  0  0  0  0  0  0  0  0  0
   -7.2216    7.0100    5.0179 C   0  0  0  0  0  0  0  0  0  0  0  0
   -5.8488    7.2501    4.6514 C   0  0  0  0  0  0  0  0  0  0  0  0
   -4.7509    7.4626    4.3562 N   0  0  0  0  0  0  0  0  0  0  0  0
   -7.9610    8.1837    5.3979 C   0  0  0  0  0  0  0  0  0  0  0  0
   -8.5319    9.1427    5.7049 N   0  0  0  0  0  0  0  0  0  0  0  0
   -5.2813    2.9027    4.0931 C   0  0  0  0  0  0  0  0  0  0  0  0
   -5.7705    2.1494    3.0113 C   0  0  0  0  0  0  0  0  0  0  0  0
   -4.9353    1.0731    2.7426 C   0  0  0  0  0  0  0  0  0  0  0  0
   -4.9326   -0.1149    1.5294 S   0  0  0  0  0  0  0  0  0  0  0  0
   -3.4895   -0.7700    2.1343 C   0  0  0  0  0  0  0  0  0  0  0  0
   -2.4513   -1.5699    1.5944 C   0  0  0  0  0  0  0  0  0  0  0  0
   -2.3085   -2.4901    0.2033 S   0  0  0  0  0  0  0  0  0  0  0  0
   -0.6571   -2.6923    0.4978 C   0  0  0  0  0  0  0  0  0  0  0  0
    0.3998   -3.0105   -0.4146 C   0  0  0  0  0  0  0  0  0  0  0  0
    0.2685   -3.3935   -1.7460 C   0  0  0  0  0  0  0  0  0  0  0  0
    1.3957   -3.2662   -2.5606 C   0  0  0  0  0  0  0  0  0  0  0  0
    1.3957   -3.2058   -4.0824 C   0  0  0  0  0  0  0  0  0  0  0  0
    0.9563   -4.5125   -4.7548 C   0  0  0  0  0  0  0  0  0  0  0  0
    0.4587   -4.5017   -6.0757 C   0  0  0  0  0  0  0  0  0  0  0  0
    0.0135   -5.6809   -6.6837 C   0  0  0  0  0  0  0  0  0  0  0  0
    0.0974   -6.9058   -6.0036 C   0  0  0  0  0  0  0  0  0  0  0  0
   -0.4295   -8.1696   -6.6257 C   0  0  0  0  0  0  0  0  0  0  0  0
   -1.7092   -8.6280   -5.9258 C   0  0  0  0  0  0  0  0  0  0  0  0
    0.6693   -6.9361   -4.7187 C   0  0  0  0  0  0  0  0  0  0  0  0
    1.1044   -5.7555   -4.1069 C   0  0  0  0  0  0  0  0  0  0  0  0
    0.5332   -1.9803   -4.4520 C   0  0  0  0  0  0  0  0  0  0  0  0
    1.0875   -0.6748   -4.4869 C   0  0  0  0  0  0  0  0  0  0  0  0
    0.2662    0.4508   -4.5626 C   0  0  0  0  0  0  0  0  0  0  0  0
   -1.1247    0.3133   -4.6020 C   0  0  0  0  0  0  0  0  0  0  0  0
   -1.9993    1.5388   -4.5964 C   0  0  0  0  0  0  0  0  0  0  0  0
   -1.9992    2.2112   -3.2197 C   0  0  0  0  0  0  0  0  0  0  0  0
   -1.6916   -0.9677   -4.5689 C   0  0  0  0  0  0  0  0  0  0  0  0
   -0.8746   -2.0978   -4.5044 C   0  0  0  0  0  0  0  0  0  0  0  0
    2.8671   -2.9640   -4.3139 C   0  0  0  0  0  0  0  0  0  0  0  0
    3.5263   -2.7105   -3.1535 C   0  0  0  0  0  0  0  0  0  0  0  0
    2.6236   -2.8521   -2.0305 C   0  0  0  0  0  0  0  0  0  0  0  0
    2.7423   -2.4202   -0.7047 C   0  0  0  0  0  0  0  0  0  0  0  0
    1.5807   -2.4793    0.0964 C   0  0  0  0  0  0  0  0  0  0  0  0
    1.3201   -1.7132    1.3975 C   0  0  0  0  0  0  0  0  0  0  0  0
    1.5428   -0.2155    1.1149 C   0  0  0  0  0  0  0  0  0  0  0  0
    2.1931    0.6475    2.0185 C   0  0  0  0  0  0  0  0  0  0  0  0
    2.4774    1.9707    1.6570 C   0  0  0  0  0  0  0  0  0  0  0  0
    2.0375    2.4877    0.4272 C   0  0  0  0  0  0  0  0  0  0  0  0
    2.3323    3.9132    0.0406 C   0  0  0  0  0  0  0  0  0  0  0  0
    3.7626    4.0534   -0.4612 C   0  0  0  0  0  0  0  0  0  0  0  0
    1.3171    1.6651   -0.4437 C   0  0  0  0  0  0  0  0  0  0  0  0
    1.0573    0.3411   -0.0984 C   0  0  0  0  0  0  0  0  0  0  0  0
    2.2133   -2.3950    2.4488 C   0  0  0  0  0  0  0  0  0  0  0  0
    3.5771   -2.0607    2.5648 C   0  0  0  0  0  0  0  0  0  0  0  0
    4.4316   -2.7836    3.4034 C   0  0  0  0  0  0  0  0  0  0  0  0
    3.9604   -3.9002    4.1092 C   0  0  0  0  0  0  0  0  0  0  0  0
    4.8781   -4.6849    5.0080 C   0  0  0  0  0  0  0  0  0  0  0  0
    4.7140   -4.2468    6.4590 C   0  0  0  0  0  0  0  0  0  0  0  0
    2.6210   -4.2813    3.9578 C   0  0  0  0  0  0  0  0  0  0  0  0
    1.7678   -3.5618    3.1150 C   0  0  0  0  0  0  0  0  0  0  0  0
   -0.1868   -1.9672    1.5742 C   0  0  0  0  0  0  0  0  0  0  0  0
   -1.2613   -1.3155    2.2479 C   0  0  0  0  0  0  0  0  0  0  0  0
   -1.5181   -0.4366    3.4975 C   0  0  0  0  0  0  0  0  0  0  0  0
   -1.4896   -1.3225    4.7587 C   0  0  0  0  0  0  0  0  0  0  0  0
   -0.3084   -2.0027    5.1152 C   0  0  0  0  0  0  0  0  0  0  0  0
   -0.2779   -2.8817    6.2024 C   0  0  0  0  0  0  0  0  0  0  0  0
   -1.4247   -3.0921    6.9804 C   0  0  0  0  0  0  0  0  0  0  0  0
   -1.4239   -4.0770    8.1232 C   0  0  0  0  0  0  0  0  0  0  0  0
   -2.0693   -5.3955    7.6926 C   0  0  0  0  0  0  0  0  0  0  0  0
   -2.5983   -2.3983    6.6639 C   0  0  0  0  0  0  0  0  0  0  0  0
   -2.6315   -1.5185    5.5786 C   0  0  0  0  0  0  0  0  0  0  0  0
   -0.6763    0.8426    3.5887 C   0  0  0  0  0  0  0  0  0  0  0  0
   -0.7974    1.8259    2.5804 C   0  0  0  0  0  0  0  0  0  0  0  0
   -0.2350    3.0953    2.7456 C   0  0  0  0  0  0  0  0  0  0  0  0
    0.5234    3.3929    3.8863 C   0  0  0  0  0  0  0  0  0  0  0  0
    1.1291    4.7579    4.0665 C   0  0  0  0  0  0  0  0  0  0  0  0
    0.1440    5.6923    4.7622 C   0  0  0  0  0  0  0  0  0  0  0  0
    0.6792    2.4165    4.8779 C   0  0  0  0  0  0  0  0  0  0  0  0
    0.0729    1.1674    4.7402 C   0  0  0  0  0  0  0  0  0  0  0  0
   -2.9645   -0.0495    3.1676 C   0  0  0  0  0  0  0  0  0  0  0  0
   -3.8197    0.9907    3.5278 C   0  0  0  0  0  0  0  0  0  0  0  0
   -3.7808    2.2662    4.6191 S   0  0  0  0  0  0  0  0  0  0  0  0
    5.0510   -2.0583   -3.4531 S   0  0  0  0  0  0  0  0  0  0  0  0
    4.8513   -2.1469   -5.1483 C   0  0  0  0  0  0  0  0  0  0  0  0
    3.5930   -2.6715   -5.4629 C   0  0  0  0  0  0  0  0  0  0  0  0
    5.8640   -1.8150   -6.1637 C   0  0  0  0  0  0  0  0  0  0  0  0
    6.3959   -0.5930   -6.3543 C   0  0  0  0  0  0  0  0  0  0  0  0
    5.9742    0.6471   -5.6867 C   0  0  0  0  0  0  0  0  0  0  0  0
    5.3104    0.7379   -4.6200 O   0  0  0  0  0  0  0  0  0  0  0  0
    6.4001    1.7726   -6.5016 C   0  0  0  0  0  0  0  0  0  0  0  0
    6.1759    3.1308   -6.2822 C   0  0  0  0  0  0  0  0  0  0  0  0
    6.6629    4.0511   -7.2161 C   0  0  0  0  0  0  0  0  0  0  0  0
    7.3400    3.6012   -8.3651 C   0  0  0  0  0  0  0  0  0  0  0  0
    8.0286    4.9936   -9.7903 I   0  0  0  0  0  0  0  0  0  0  0  0
    7.5766    2.2298   -8.5576 C   0  0  0  0  0  0  0  0  0  0  0  0
    7.0814    1.3118   -7.6169 C   0  0  0  0  0  0  0  0  0  0  0  0
    7.2086   -0.1743   -7.5383 C   0  0  0  0  0  0  0  0  0  0  0  0
    7.9949   -0.9761   -8.3006 C   0  0  0  0  0  0  0  0  0  0  0  0
    8.5603   -0.5586   -9.5555 C   0  0  0  0  0  0  0  0  0  0  0  0
    8.9827   -0.2427  -10.5921 N   0  0  0  0  0  0  0  0  0  0  0  0
    8.3569   -2.2987   -7.8653 C   0  0  0  0  0  0  0  0  0  0  0  0
    8.6530   -3.3641   -7.5199 N   0  0  0  0  0  0  0  0  0  0  0  0
   -5.1188    4.8891    4.9182 H   0  0  0  0  0  0  0  0  0  0  0  0
  -11.2026    2.7590    4.7867 H   0  0  0  0  0  0  0  0  0  0  0  0
  -10.4683    7.3235    5.4534 H   0  0  0  0  0  0  0  0  0  0  0  0
   -6.6484    2.3988    2.4247 H   0  0  0  0  0  0  0  0  0  0  0  0
   -0.6979   -3.6401   -2.1608 H   0  0  0  0  0  0  0  0  0  0  0  0
    0.3867   -3.5765   -6.6330 H   0  0  0  0  0  0  0  0  0  0  0  0
   -0.3989   -5.6335   -7.6825 H   0  0  0  0  0  0  0  0  0  0  0  0
    0.3362   -8.9734   -6.5518 H   0  0  0  0  0  0  0  0  0  0  0  0
   -0.6462   -8.0176   -7.7052 H   0  0  0  0  0  0  0  0  0  0  0  0
   -2.1709   -9.4633   -6.4994 H   0  0  0  0  0  0  0  0  0  0  0  0
   -2.4418   -7.7954   -5.8660 H   0  0  0  0  0  0  0  0  0  0  0  0
   -1.4856   -8.9942   -4.9031 H   0  0  0  0  0  0  0  0  0  0  0  0
    0.7746   -7.8774   -4.1919 H   0  0  0  0  0  0  0  0  0  0  0  0
    1.5315   -5.8193   -3.1154 H   0  0  0  0  0  0  0  0  0  0  0  0
    2.1464   -0.5110   -4.3676 H   0  0  0  0  0  0  0  0  0  0  0  0
    0.7179    1.4325   -4.5212 H   0  0  0  0  0  0  0  0  0  0  0  0
   -3.0448    1.2739   -4.8636 H   0  0  0  0  0  0  0  0  0  0  0  0
   -1.6341    2.2559   -5.3635 H   0  0  0  0  0  0  0  0  0  0  0  0
   -2.6760    3.0933   -3.2458 H   0  0  0  0  0  0  0  0  0  0  0  0
   -2.3587    1.5023   -2.4461 H   0  0  0  0  0  0  0  0  0  0  0  0
   -0.9798    2.5606   -2.9544 H   0  0  0  0  0  0  0  0  0  0  0  0
   -2.7657   -1.0947   -4.6029 H   0  0  0  0  0  0  0  0  0  0  0  0
   -1.3514   -3.0680   -4.4430 H   0  0  0  0  0  0  0  0  0  0  0  0
    3.6484   -1.9382   -0.3605 H   0  0  0  0  0  0  0  0  0  0  0  0
    2.4953    0.3077    2.9971 H   0  0  0  0  0  0  0  0  0  0  0  0
    3.0067    2.6062    2.3502 H   0  0  0  0  0  0  0  0  0  0  0  0
    2.1823    4.5812    0.9152 H   0  0  0  0  0  0  0  0  0  0  0  0
    1.6344    4.2526   -0.7510 H   0  0  0  0  0  0  0  0  0  0  0  0
    3.9317    5.0890   -0.8316 H   0  0  0  0  0  0  0  0  0  0  0  0
    4.4784    3.8465    0.3616 H   0  0  0  0  0  0  0  0  0  0  0  0
    3.9524    3.3414   -1.2997 H   0  0  0  0  0  0  0  0  0  0  0  0
    0.9656    2.0437   -1.3958 H   0  0  0  0  0  0  0  0  0  0  0  0
    0.4902   -0.2574   -0.7976 H   0  0  0  0  0  0  0  0  0  0  0  0
    4.0000   -1.2524    1.9874 H   0  0  0  0  0  0  0  0  0  0  0  0
    5.4713   -2.4878    3.4792 H   0  0  0  0  0  0  0  0  0  0  0  0
    4.6481   -5.7667    4.9254 H   0  0  0  0  0  0  0  0  0  0  0  0
    5.9382   -4.5507    4.7051 H   0  0  0  0  0  0  0  0  0  0  0  0
    5.0503   -3.1924    6.5821 H   0  0  0  0  0  0  0  0  0  0  0  0
    5.3298   -4.8960    7.1217 H   0  0  0  0  0  0  0  0  0  0  0  0
    3.6518   -4.3320    6.7811 H   0  0  0  0  0  0  0  0  0  0  0  0
    2.2370   -5.1503    4.4832 H   0  0  0  0  0  0  0  0  0  0  0  0
    0.7537   -3.9197    2.9914 H   0  0  0  0  0  0  0  0  0  0  0  0
    0.5955   -1.8008    4.5704 H   0  0  0  0  0  0  0  0  0  0  0  0
    0.6449   -3.3990    6.4322 H   0  0  0  0  0  0  0  0  0  0  0  0
   -1.9867   -3.6539    8.9798 H   0  0  0  0  0  0  0  0  0  0  0  0
   -0.3875   -4.2736    8.4766 H   0  0  0  0  0  0  0  0  0  0  0  0
   -2.1601   -6.0687    8.5732 H   0  0  0  0  0  0  0  0  0  0  0  0
   -1.4381   -5.8947    6.9255 H   0  0  0  0  0  0  0  0  0  0  0  0
   -3.0856   -5.2218    7.2762 H   0  0  0  0  0  0  0  0  0  0  0  0
   -3.4976   -2.5424    7.2567 H   0  0  0  0  0  0  0  0  0  0  0  0
   -3.5686   -1.0278    5.3838 H   0  0  0  0  0  0  0  0  0  0  0  0
   -1.3773    1.6268    1.6869 H   0  0  0  0  0  0  0  0  0  0  0  0
   -0.3745    3.8432    1.9747 H   0  0  0  0  0  0  0  0  0  0  0  0
    2.0599    4.6908    4.6720 H   0  0  0  0  0  0  0  0  0  0  0  0
    1.4028    5.1862    3.0806 H   0  0  0  0  0  0  0  0  0  0  0  0
   -0.1205    5.2832    5.7625 H   0  0  0  0  0  0  0  0  0  0  0  0
   -0.7757    5.8130    4.1532 H   0  0  0  0  0  0  0  0  0  0  0  0
    0.6139    6.6898    4.9058 H   0  0  0  0  0  0  0  0  0  0  0  0
    1.2410    2.6371    5.7726 H   0  0  0  0  0  0  0  0  0  0  0  0
    0.1764    0.4826    5.5660 H   0  0  0  0  0  0  0  0  0  0  0  0
    3.1969   -2.7744   -6.4691 H   0  0  0  0  0  0  0  0  0  0  0  0
    6.0220   -2.5737   -6.9208 H   0  0  0  0  0  0  0  0  0  0  0  0
    5.6371    3.4698   -5.4041 H   0  0  0  0  0  0  0  0  0  0  0  0
    6.4995    5.1118   -7.0629 H   0  0  0  0  0  0  0  0  0  0  0  0
    8.1108    1.9212   -9.4398 H   0  0  0  0  0  0  0  0  0  0  0  0
  1  2  2  3
  2  3  1  0
  3  4  2  0
  3  5  1  0
  5  6  2  0
  6  7  1  0
  7  8  1  0
  8  9  2  0
  9 10  1  0
 10 11  2  3
 11 12  1  0
 12 13  3  0
 11 14  1  0
 14 15  3  0
  1 16  1  0
 16 17  2  0
 17 18  1  0
 18 19  1  0
 19 20  1  0
 20 21  1  0
 21 22  1  0
 22 23  1  0
 23 24  1  0
 24 25  2  0
 25 26  1  0
 26 27  1  0
 27 28  1  0
 28 29  2  0
 29 30  1  0
 30 31  2  0
 31 32  1  0
 32 33  1  0
 31 34  1  0
 34 35  2  0
 27 36  1  0
 36 37  2  0
 37 38  1  0
 38 39  2  0
 39 40  1  0
 40 41  1  0
 39 42  1  0
 42 43  2  0
 27 44  1  0
 44 45  2  0
 45 46  1  0
 46 47  1  0
 47 48  2  0
 48 49  1  0
 49 50  1  0
 50 51  2  0
 51 52  1  0
 52 53  2  0
 53 54  1  0
 54 55  1  0
 53 56  1  0
 56 57  2  0
 49 58  1  0
 58 59  2  0
 59 60  1  0
 60 61  2  0
 61 62  1  0
 62 63  1  0
 61 64  1  0
 64 65  2  0
 49 66  1  0
 66 67  1  0
 67 68  1  0
 68 69  1  0
 69 70  2  0
 70 71  1  0
 71 72  2  0
 72 73  1  0
 73 74  1  0
 72 75  1  0
 75 76  2  0
 68 77  1  0
 77 78  2  0
 78 79  1  0
 79 80  2  0
 80 81  1  0
 81 82  1  0
 80 83  1  0
 83 84  2  0
 68 85  1  0
 85 86  1  0
 86 87  1  0
 45 88  1  0
 88 89  1  0
 89 90  2  0
 89 91  1  0
 91 92  2  3
 92 93  1  0
 93 94  2  0
 93 95  1  0
 95 96  2  0
 96 97  1  0
 97 98  2  0
 98 99  1  0
 98100  1  0
100101  2  0
101102  1  0
102103  2  3
103104  1  0
104105  3  0
103106  1  0
106107  3  0
 10  2  1  0
 87 16  1  0
102 92  1  0
  9  5  1  0
 86 18  2  0
101 95  1  0
 85 20  2  0
 67 21  2  0
 76 69  1  0
 84 77  1  0
 66 23  2  0
 48 24  1  0
 57 50  1  0
 65 58  1  0
 46 26  2  0
 35 28  1  0
 43 36  1  0
 90 44  1  0
  1108  1  0
  6109  1  0
  8110  1  0
 17111  1  0
 25112  1  0
 29113  1  0
 30114  1  0
 32115  1  0
 32116  1  0
 33117  1  0
 33118  1  0
 33119  1  0
 34120  1  0
 35121  1  0
 37122  1  0
 38123  1  0
 40124  1  0
 40125  1  0
 41126  1  0
 41127  1  0
 41128  1  0
 42129  1  0
 43130  1  0
 47131  1  0
 51132  1  0
 52133  1  0
 54134  1  0
 54135  1  0
 55136  1  0
 55137  1  0
 55138  1  0
 56139  1  0
 57140  1  0
 59141  1  0
 60142  1  0
 62143  1  0
 62144  1  0
 63145  1  0
 63146  1  0
 63147  1  0
 64148  1  0
 65149  1  0
 70150  1  0
 71151  1  0
 73152  1  0
 73153  1  0
 74154  1  0
 74155  1  0
 74156  1  0
 75157  1  0
 76158  1  0
 78159  1  0
 79160  1  0
 81161  1  0
 81162  1  0
 82163  1  0
 82164  1  0
 82165  1  0
 83166  1  0
 84167  1  0
 90168  1  0
 91169  1  0
 96170  1  0
 97171  1  0
100172  1  0
M  END

