
     RDKit          3D

107121  0  0  0  0  0  0  0  0999 V2000
   -5.4345   -6.5895   -4.8448 C   0  0  0  0  0  0  0  0  0  0  0  0
   -5.3217   -6.1007   -6.0543 C   0  0  0  0  0  0  0  0  0  0  0  0
   -4.7133   -4.9356   -6.5807 C   0  0  0  0  0  0  0  0  0  0  0  0
   -4.2208   -3.9955   -5.8704 O   0  0  0  0  0  0  0  0  0  0  0  0
   -4.7454   -4.9895   -8.0672 C   0  0  0  0  0  0  0  0  0  0  0  0
   -4.3172   -4.0997   -9.0366 C   0  0  0  0  0  0  0  0  0  0  0  0
   -4.7614   -4.8672  -10.4832 S   0  0  0  0  0  0  0  0  0  0  0  0
   -5.4631   -6.2708   -9.8448 C   0  0  0  0  0  0  0  0  0  0  0  0
   -5.3273   -6.1031   -8.4701 C   0  0  0  0  0  0  0  0  0  0  0  0
   -5.7545   -6.9310   -7.3008 C   0  0  0  0  0  0  0  0  0  0  0  0
   -6.3646   -7.9493   -7.0870 C   0  0  0  0  0  0  0  0  0  0  0  0
   -7.0646   -9.1305   -6.9388 C   0  0  0  0  0  0  0  0  0  0  0  0
   -7.6400  -10.1074   -6.8357 N   0  0  0  0  0  0  0  0  0  0  0  0
   -5.5841   -8.7489   -8.5398 C   0  0  0  0  0  0  0  0  0  0  0  0
   -5.0741   -9.2809   -9.4713 N   0  0  0  0  0  0  0  0  0  0  0  0
   -4.8829   -5.9913   -3.6307 C   0  0  0  0  0  0  0  0  0  0  0  0
   -4.6235   -6.6877   -2.4664 C   0  0  0  0  0  0  0  0  0  0  0  0
   -5.1361   -8.1021   -2.2586 C   0  0  0  0  0  0  0  0  0  0  0  0
   -6.5938   -7.9202   -1.8818 C   0  0  0  0  0  0  0  0  0  0  0  0
   -3.9564   -6.0189   -1.5115 C   0  0  0  0  0  0  0  0  0  0  0  0
   -3.2124   -6.5174    0.2313 Se  0  0  0  0  0  2  0  0  0  0  0  0
   -2.4378   -4.6898    0.3875 C   0  0  0  0  0  0  0  0  0  0  0  0
   -1.6335   -3.9706    1.1862 C   0  0  0  0  0  0  0  0  0  0  0  0
   -0.9259   -4.2998    2.3488 C   0  0  0  0  0  0  0  0  0  0  0  0
   -0.0453   -3.3800    2.7947 C   0  0  0  0  0  0  0  0  0  0  0  0
    0.6340   -3.7023    3.9121 N   0  0  0  0  0  0  0  0  0  0  0  0
    0.0591   -5.2213    4.3095 S   0  0  0  0  0  0  0  0  0  0  0  0
   -1.0275   -5.4213    3.0587 N   0  0  0  0  0  0  0  0  0  0  0  0
    0.1016   -2.1689    2.1033 C   0  0  0  0  0  0  0  0  0  0  0  0
    0.9275   -1.1131    2.2888 C   0  0  0  0  0  0  0  0  0  0  0  0
    2.4268   -0.5165    3.3921 Se  0  0  0  0  0  2  0  0  0  0  0  0
    2.6020    1.0800    2.3190 C   0  0  0  0  0  0  0  0  0  0  0  0
    3.4204    2.1687    2.3164 C   0  0  0  0  0  0  0  0  0  0  0  0
    4.6192    2.1918    3.2751 C   0  0  0  0  0  0  0  0  0  0  0  0
    5.6145    1.2109    2.6654 C   0  0  0  0  0  0  0  0  0  0  0  0
    3.1996    3.0999    1.3835 C   0  0  0  0  0  0  0  0  0  0  0  0
    1.8975    2.4556    0.5376 S   0  0  0  0  0  0  0  0  0  0  0  0
    1.6482    0.9401    1.4379 C   0  0  0  0  0  0  0  0  0  0  0  0
    0.8063   -0.1360    1.3959 C   0  0  0  0  0  0  0  0  0  0  0  0
   -0.2133   -0.6091    0.5353 N   0  0  0  0  0  0  0  0  0  0  0  0
   -0.6006   -1.8186    0.9748 C   0  0  0  0  0  0  0  0  0  0  0  0
   -1.4971   -2.7776    0.4980 C   0  0  0  0  0  0  0  0  0  0  0  0
   -2.1924   -2.8250   -0.6313 N   0  0  0  0  0  0  0  0  0  0  0  0
   -2.8186   -4.0955   -0.7266 C   0  0  0  0  0  0  0  0  0  0  0  0
   -3.5750   -4.7906   -1.6516 C   0  0  0  0  0  0  0  0  0  0  0  0
   -4.2032   -4.5038   -3.2876 S   0  0  0  0  0  0  0  0  0  0  0  0
   -2.3613   -1.8894   -1.6853 C   0  0  0  0  0  0  0  0  0  0  0  0
   -1.3524   -2.1458   -2.8127 C   0  0  0  0  0  0  0  0  0  0  0  0
   -0.7396    0.2060   -0.5204 C   0  0  0  0  0  0  0  0  0  0  0  0
   -1.9406    1.0263   -0.0197 C   0  0  0  0  0  0  0  0  0  0  0  0
    3.8551    4.4085    1.1329 C   0  0  0  0  0  0  0  0  0  0  0  0
    3.8743    5.3505    2.0461 C   0  0  0  0  0  0  0  0  0  0  0  0
    3.2529    5.2063    3.3408 C   0  0  0  0  0  0  0  0  0  0  0  0
    2.5032    4.2581    3.7809 O   0  0  0  0  0  0  0  0  0  0  0  0
    3.5980    6.3597    4.1500 C   0  0  0  0  0  0  0  0  0  0  0  0
    3.2657    6.6798    5.4526 C   0  0  0  0  0  0  0  0  0  0  0  0
    3.7062    7.8287    6.0585 C   0  0  0  0  0  0  0  0  0  0  0  0
    4.5061    8.6987    5.3577 C   0  0  0  0  0  0  0  0  0  0  0  0
    4.8388    8.3668    4.0326 C   0  0  0  0  0  0  0  0  0  0  0  0
    4.3975    7.2159    3.4218 C   0  0  0  0  0  0  0  0  0  0  0  0
    4.6125    6.6406    2.0720 C   0  0  0  0  0  0  0  0  0  0  0  0
    5.2717    7.1547    1.0854 C   0  0  0  0  0  0  0  0  0  0  0  0
    5.4317    6.5995   -0.2410 C   0  0  0  0  0  0  0  0  0  0  0  0
    5.5664    6.1342   -1.3142 N   0  0  0  0  0  0  0  0  0  0  0  0
    6.0023    8.4349    1.2040 C   0  0  0  0  0  0  0  0  0  0  0  0
    6.5442    9.4025    1.2796 N   0  0  0  0  0  0  0  0  0  0  0  0
    4.5585    9.5666    6.5462 C   0  0  0  0  0  0  0  0  0  0  0  0
    5.8428    9.5123    7.3244 C   0  0  0  0  0  0  0  0  0  0  0  0
    6.3827    8.1296    7.1191 C   0  0  0  0  0  0  0  0  0  0  0  0
    5.6263    7.2912    7.8253 C   0  0  0  0  0  0  0  0  0  0  0  0
    4.5183    8.0822    8.4290 C   0  0  0  0  0  0  0  0  0  0  0  0
    5.3118    9.3691    8.7475 C   0  0  0  0  0  0  0  0  0  0  0  0
    3.6715    8.6039    7.3231 C   0  0  0  0  0  0  0  0  0  0  0  0
   -5.9796   -7.5081   -4.6981 H   0  0  0  0  0  0  0  0  0  0  0  0
   -3.8088   -3.1361   -8.8949 H   0  0  0  0  0  0  0  0  0  0  0  0
   -5.9371   -7.0892  -10.4047 H   0  0  0  0  0  0  0  0  0  0  0  0
   -5.0052   -8.6478   -3.2033 H   0  0  0  0  0  0  0  0  0  0  0  0
   -4.6366   -8.6338   -1.4580 H   0  0  0  0  0  0  0  0  0  0  0  0
   -6.6917   -7.0851   -1.1297 H   0  0  0  0  0  0  0  0  0  0  0  0
   -7.2503   -7.6848   -2.7241 H   0  0  0  0  0  0  0  0  0  0  0  0
   -7.0103   -8.8015   -1.3600 H   0  0  0  0  0  0  0  0  0  0  0  0
    5.0714    3.1817    3.2777 H   0  0  0  0  0  0  0  0  0  0  0  0
    4.3147    1.9085    4.2769 H   0  0  0  0  0  0  0  0  0  0  0  0
    5.7162    1.4323    1.6076 H   0  0  0  0  0  0  0  0  0  0  0  0
    5.1594    0.1923    2.7773 H   0  0  0  0  0  0  0  0  0  0  0  0
    6.5344    1.2166    3.2624 H   0  0  0  0  0  0  0  0  0  0  0  0
   -3.3629   -2.1875   -2.2538 H   0  0  0  0  0  0  0  0  0  0  0  0
   -2.5584   -0.8946   -1.5069 H   0  0  0  0  0  0  0  0  0  0  0  0
   -1.4520   -1.3736   -3.5763 H   0  0  0  0  0  0  0  0  0  0  0  0
   -0.3085   -2.2012   -2.4181 H   0  0  0  0  0  0  0  0  0  0  0  0
   -1.6162   -3.1017   -3.3090 H   0  0  0  0  0  0  0  0  0  0  0  0
    0.0149    1.1074   -0.6188 H   0  0  0  0  0  0  0  0  0  0  0  0
   -0.6697   -0.0584   -1.5350 H   0  0  0  0  0  0  0  0  0  0  0  0
   -2.6572    0.3453    0.5255 H   0  0  0  0  0  0  0  0  0  0  0  0
   -1.6423    1.7759    0.7430 H   0  0  0  0  0  0  0  0  0  0  0  0
   -2.4319    1.5748   -0.8388 H   0  0  0  0  0  0  0  0  0  0  0  0
    4.3117    4.5687    0.1833 H   0  0  0  0  0  0  0  0  0  0  0  0
    2.6268    5.9859    5.9980 H   0  0  0  0  0  0  0  0  0  0  0  0
    5.4524    9.0500    3.5062 H   0  0  0  0  0  0  0  0  0  0  0  0
    4.1142   10.5297    6.3296 H   0  0  0  0  0  0  0  0  0  0  0  0
    6.5348   10.3133    7.1709 H   0  0  0  0  0  0  0  0  0  0  0  0
    7.2142    7.8108    6.5272 H   0  0  0  0  0  0  0  0  0  0  0  0
    5.7681    6.2268    7.9486 H   0  0  0  0  0  0  0  0  0  0  0  0
    4.0374    7.6515    9.2846 H   0  0  0  0  0  0  0  0  0  0  0  0
    6.1194    9.1387    9.4753 H   0  0  0  0  0  0  0  0  0  0  0  0
    4.6490   10.1851    9.0548 H   0  0  0  0  0  0  0  0  0  0  0  0
    2.6691    8.9440    7.5610 H   0  0  0  0  0  0  0  0  0  0  0  0
  1  2  2  3
  2  3  1  0
  3  4  2  0
  3  5  1  0
  5  6  2  0
  6  7  1  0
  7  8  1  0
  8  9  2  0
  9 10  1  0
 10 11  2  3
 11 12  1  0
 12 13  3  0
 11 14  1  0
 14 15  3  0
  1 16  1  0
 16 17  2  0
 17 18  1  0
 18 19  1  0
 17 20  1  0
 20 21  1  0
 21 22  1  0
 22 23  1  0
 23 24  1  0
 24 25  1  0
 25 26  2  0
 26 27  1  0
 27 28  1  0
 25 29  1  0
 29 30  1  0
 30 31  1  0
 31 32  1  0
 32 33  1  0
 33 34  1  0
 34 35  1  0
 33 36  2  0
 36 37  1  0
 37 38  1  0
 38 39  1  0
 39 40  1  0
 40 41  1  0
 41 42  1  0
 42 43  1  0
 43 44  1  0
 44 45  1  0
 45 46  1  0
 43 47  1  0
 47 48  1  0
 40 49  1  0
 49 50  1  0
 36 51  1  0
 51 52  2  3
 52 53  1  0
 53 54  2  0
 53 55  1  0
 55 56  2  0
 56 57  1  0
 57 58  2  0
 58 59  1  0
 59 60  2  0
 60 61  1  0
 61 62  2  3
 62 63  1  0
 63 64  3  0
 62 65  1  0
 65 66  3  0
 58 67  1  0
 67 68  1  0
 68 69  1  0
 69 70  2  0
 70 71  1  0
 71 72  1  0
 71 73  1  0
 10  2  1  0
 46 16  1  0
 61 52  1  0
 73 67  1  0
  9  5  1  0
 45 20  2  0
 60 55  1  0
 72 68  1  0
 44 22  2  0
 73 57  1  0
 42 23  2  0
 28 24  2  0
 41 29  2  0
 39 30  2  0
 38 32  2  0
  1 74  1  0
  6 75  1  0
  8 76  1  0
 18 77  1  0
 18 78  1  0
 19 79  1  0
 19 80  1  0
 19 81  1  0
 34 82  1  0
 34 83  1  0
 35 84  1  0
 35 85  1  0
 35 86  1  0
 47 87  1  0
 47 88  1  0
 48 89  1  0
 48 90  1  0
 48 91  1  0
 49 92  1  0
 49 93  1  0
 50 94  1  0
 50 95  1  0
 50 96  1  0
 51 97  1  0
 56 98  1  0
 59 99  1  0
 67100  1  0
 68101  1  0
 69102  1  0
 70103  1  0
 71104  1  0
 72105  1  0
 72106  1  0
 73107  1  0
M  END

