
     RDKit          3D

101115  0  0  0  0  0  0  0  0999 V2000
   -7.3870   -3.9507   -3.8404 C   0  0  0  0  0  0  0  0  0  0  0  0
   -7.9179   -3.9136   -2.6075 C   0  0  0  0  0  0  0  0  0  0  0  0
   -7.1396   -3.8897   -1.3509 C   0  0  0  0  0  0  0  0  0  0  0  0
   -5.9233   -3.5788   -1.2134 O   0  0  0  0  0  0  0  0  0  0  0  0
   -8.0286   -4.2563   -0.2807 C   0  0  0  0  0  0  0  0  0  0  0  0
   -7.8363   -4.5170    1.0641 C   0  0  0  0  0  0  0  0  0  0  0  0
   -9.3607   -4.9711    1.6366 S   0  0  0  0  0  0  0  0  0  0  0  0
  -10.2288   -4.8237    0.1874 C   0  0  0  0  0  0  0  0  0  0  0  0
   -9.3067   -4.4115   -0.7658 C   0  0  0  0  0  0  0  0  0  0  0  0
   -9.3505   -4.1390   -2.2232 C   0  0  0  0  0  0  0  0  0  0  0  0
  -10.4655   -4.0013   -2.9824 C   0  0  0  0  0  0  0  0  0  0  0  0
  -10.4326   -3.5365   -4.3461 C   0  0  0  0  0  0  0  0  0  0  0  0
  -10.4377   -3.1625   -5.4394 N   0  0  0  0  0  0  0  0  0  0  0  0
  -11.7817   -4.2203   -2.4403 C   0  0  0  0  0  0  0  0  0  0  0  0
  -12.8460   -4.3947   -2.0172 N   0  0  0  0  0  0  0  0  0  0  0  0
   -5.9399   -3.8997   -4.0748 C   0  0  0  0  0  0  0  0  0  0  0  0
   -5.0234   -4.9464   -3.8282 C   0  0  0  0  0  0  0  0  0  0  0  0
   -5.4014   -6.3463   -3.4068 C   0  0  0  0  0  0  0  0  0  0  0  0
   -4.8060   -6.7352   -2.0502 C   0  0  0  0  0  0  0  0  0  0  0  0
   -3.7108   -4.4890   -3.9869 C   0  0  0  0  0  0  0  0  0  0  0  0
   -3.6090   -3.1649   -4.3400 C   0  0  0  0  0  0  0  0  0  0  0  0
   -5.1188   -2.4565   -4.4608 S   0  0  0  0  0  0  0  0  0  0  0  0
   -2.3112   -2.6984   -4.2734 C   0  0  0  0  0  0  0  0  0  0  0  0
   -1.4315   -3.6530   -3.8937 C   0  0  0  0  0  0  0  0  0  0  0  0
   -2.1747   -5.1493   -3.6077 S   0  0  0  0  0  0  0  0  0  0  0  0
   -0.2228   -3.0365   -3.7261 C   0  0  0  0  0  0  0  0  0  0  0  0
    1.0360   -3.5116   -3.3500 C   0  0  0  0  0  0  0  0  0  0  0  0
    1.3103   -4.8123   -3.0826 N   0  0  0  0  0  0  0  0  0  0  0  0
    2.9127   -4.6770   -2.6893 S   0  0  0  0  0  0  0  0  0  0  0  0
    3.3061   -3.0717   -2.8261 N   0  0  0  0  0  0  0  0  0  0  0  0
    2.1088   -2.5763   -3.2259 C   0  0  0  0  0  0  0  0  0  0  0  0
    1.8494   -1.2113   -3.4304 C   0  0  0  0  0  0  0  0  0  0  0  0
    2.5681   -0.1154   -3.0372 C   0  0  0  0  0  0  0  0  0  0  0  0
    3.9090    0.1081   -2.0147 S   0  0  0  0  0  0  0  0  0  0  0  0
    3.3767    1.6668   -1.5934 C   0  0  0  0  0  0  0  0  0  0  0  0
    3.8073    2.5812   -0.6393 C   0  0  0  0  0  0  0  0  0  0  0  0
    2.8877    3.6322   -0.5113 C   0  0  0  0  0  0  0  0  0  0  0  0
    1.5851    3.4095   -1.5833 S   0  0  0  0  0  0  0  0  0  0  0  0
    2.1788    1.9629   -2.1874 C   0  0  0  0  0  0  0  0  0  0  0  0
    1.7022    0.9396   -3.0036 C   0  0  0  0  0  0  0  0  0  0  0  0
    0.4336    0.5839   -3.3500 N   0  0  0  0  0  0  0  0  0  0  0  0
   -0.7561    1.2010   -2.7376 C   0  0  0  0  0  0  0  0  0  0  0  0
   -0.9603    0.6861   -1.3103 C   0  0  0  0  0  0  0  0  0  0  0  0
    0.5579   -0.7355   -3.7127 C   0  0  0  0  0  0  0  0  0  0  0  0
   -0.4650   -1.6778   -3.9733 C   0  0  0  0  0  0  0  0  0  0  0  0
   -1.7514   -1.4722   -4.3941 N   0  0  0  0  0  0  0  0  0  0  0  0
   -2.2265   -0.4245   -5.3103 C   0  0  0  0  0  0  0  0  0  0  0  0
   -2.3905   -0.9590   -6.7323 C   0  0  0  0  0  0  0  0  0  0  0  0
    2.9873    4.7703    0.4173 C   0  0  0  0  0  0  0  0  0  0  0  0
    3.4342    4.6883    1.6833 C   0  0  0  0  0  0  0  0  0  0  0  0
    3.9113    5.8524    2.4304 C   0  0  0  0  0  0  0  0  0  0  0  0
    3.7366    7.0587    2.1102 O   0  0  0  0  0  0  0  0  0  0  0  0
    4.6952    5.3867    3.5570 C   0  0  0  0  0  0  0  0  0  0  0  0
    5.3753    6.1766    4.5157 C   0  0  0  0  0  0  0  0  0  0  0  0
    6.0386    5.4364    5.4780 C   0  0  0  0  0  0  0  0  0  0  0  0
    6.0497    4.0048    5.4924 C   0  0  0  0  0  0  0  0  0  0  0  0
    5.3988    3.2276    4.5503 C   0  0  0  0  0  0  0  0  0  0  0  0
    4.6805    3.9657    3.5694 C   0  0  0  0  0  0  0  0  0  0  0  0
    3.7812    3.4772    2.4858 C   0  0  0  0  0  0  0  0  0  0  0  0
    3.0654    2.3269    2.5269 C   0  0  0  0  0  0  0  0  0  0  0  0
    1.7822    2.2137    1.8890 C   0  0  0  0  0  0  0  0  0  0  0  0
    0.7396    2.1024    1.3911 N   0  0  0  0  0  0  0  0  0  0  0  0
    3.4432    1.1952    3.3364 C   0  0  0  0  0  0  0  0  0  0  0  0
    3.7291    0.2735    3.9781 N   0  0  0  0  0  0  0  0  0  0  0  0
    6.9035    4.0044    6.7229 C   0  0  0  0  0  0  0  0  0  0  0  0
    8.4064    3.6516    6.5287 C   0  0  0  0  0  0  0  0  0  0  0  0
    9.0950    4.0895    7.7981 C   0  0  0  0  0  0  0  0  0  0  0  0
    9.0932    5.4302    7.7885 C   0  0  0  0  0  0  0  0  0  0  0  0
    8.3935    5.8468    6.5164 C   0  0  0  0  0  0  0  0  0  0  0  0
    8.9020    4.7481    5.6006 C   0  0  0  0  0  0  0  0  0  0  0  0
    6.8926    5.4722    6.7131 C   0  0  0  0  0  0  0  0  0  0  0  0
   -8.0066   -4.0876   -4.7113 H   0  0  0  0  0  0  0  0  0  0  0  0
   -6.9094   -4.4782    1.6174 H   0  0  0  0  0  0  0  0  0  0  0  0
  -11.2774   -5.0411    0.0548 H   0  0  0  0  0  0  0  0  0  0  0  0
   -6.5101   -6.4424   -3.3461 H   0  0  0  0  0  0  0  0  0  0  0  0
   -5.0458   -7.0612   -4.1837 H   0  0  0  0  0  0  0  0  0  0  0  0
   -3.7640   -7.0981   -2.1776 H   0  0  0  0  0  0  0  0  0  0  0  0
   -5.4087   -7.5411   -1.5979 H   0  0  0  0  0  0  0  0  0  0  0  0
   -4.8044   -5.8790   -1.3512 H   0  0  0  0  0  0  0  0  0  0  0  0
    4.7051    2.4717   -0.0472 H   0  0  0  0  0  0  0  0  0  0  0  0
   -1.6758    0.9990   -3.2992 H   0  0  0  0  0  0  0  0  0  0  0  0
   -0.6452    2.3048   -2.7282 H   0  0  0  0  0  0  0  0  0  0  0  0
   -1.4186   -0.3230   -1.3449 H   0  0  0  0  0  0  0  0  0  0  0  0
   -1.6315    1.3661   -0.7513 H   0  0  0  0  0  0  0  0  0  0  0  0
    0.0101    0.6172   -0.7748 H   0  0  0  0  0  0  0  0  0  0  0  0
   -3.1994   -0.0244   -4.9507 H   0  0  0  0  0  0  0  0  0  0  0  0
   -1.4904    0.4064   -5.3686 H   0  0  0  0  0  0  0  0  0  0  0  0
   -2.6659   -0.1219   -7.4139 H   0  0  0  0  0  0  0  0  0  0  0  0
   -3.1942   -1.7232   -6.7729 H   0  0  0  0  0  0  0  0  0  0  0  0
   -1.4377   -1.4119   -7.0800 H   0  0  0  0  0  0  0  0  0  0  0  0
    2.7508    5.7492    0.0140 H   0  0  0  0  0  0  0  0  0  0  0  0
    5.3758    7.2617    4.5011 H   0  0  0  0  0  0  0  0  0  0  0  0
    5.4662    2.1551    4.5810 H   0  0  0  0  0  0  0  0  0  0  0  0
    6.4051    3.5376    7.6034 H   0  0  0  0  0  0  0  0  0  0  0  0
    8.6164    2.6097    6.2062 H   0  0  0  0  0  0  0  0  0  0  0  0
    9.5953    3.4632    8.5305 H   0  0  0  0  0  0  0  0  0  0  0  0
    9.5905    6.0740    8.5091 H   0  0  0  0  0  0  0  0  0  0  0  0
    8.5912    6.8855    6.1831 H   0  0  0  0  0  0  0  0  0  0  0  0
   10.0110    4.7487    5.4803 H   0  0  0  0  0  0  0  0  0  0  0  0
    8.4317    4.7363    4.5940 H   0  0  0  0  0  0  0  0  0  0  0  0
    6.3906    5.9325    7.5931 H   0  0  0  0  0  0  0  0  0  0  0  0
  1  2  2  3
  2  3  1  0
  3  4  2  0
  3  5  1  0
  5  6  2  0
  6  7  1  0
  7  8  1  0
  8  9  2  0
  9 10  1  0
 10 11  2  3
 11 12  1  0
 12 13  3  0
 11 14  1  0
 14 15  3  0
  1 16  1  0
 16 17  2  0
 17 18  1  0
 18 19  1  0
 17 20  1  0
 20 21  2  0
 21 22  1  0
 21 23  1  0
 23 24  2  0
 24 25  1  0
 24 26  1  0
 26 27  1  0
 27 28  2  0
 28 29  1  0
 29 30  1  0
 30 31  2  0
 31 32  1  0
 32 33  1  0
 33 34  1  0
 34 35  1  0
 35 36  1  0
 36 37  2  0
 37 38  1  0
 38 39  1  0
 39 40  1  0
 40 41  1  0
 41 42  1  0
 42 43  1  0
 41 44  1  0
 44 45  1  0
 45 46  1  0
 46 47  1  0
 47 48  1  0
 37 49  1  0
 49 50  2  3
 50 51  1  0
 51 52  2  0
 51 53  1  0
 53 54  2  0
 54 55  1  0
 55 56  2  0
 56 57  1  0
 57 58  2  0
 58 59  1  0
 59 60  2  3
 60 61  1  0
 61 62  3  0
 60 63  1  0
 63 64  3  0
 56 65  1  0
 65 66  1  0
 66 67  1  0
 67 68  2  0
 68 69  1  0
 69 70  1  0
 69 71  1  0
 10  2  1  0
 22 16  1  0
 46 23  1  0
 59 50  1  0
 71 65  1  0
  9  5  1  0
 25 20  1  0
 45 26  2  0
 58 53  1  0
 70 66  1  0
 31 27  1  0
 44 32  2  0
 71 55  1  0
 40 33  2  0
 39 35  2  0
  1 72  1  0
  6 73  1  0
  8 74  1  0
 18 75  1  0
 18 76  1  0
 19 77  1  0
 19 78  1  0
 19 79  1  0
 36 80  1  0
 42 81  1  0
 42 82  1  0
 43 83  1  0
 43 84  1  0
 43 85  1  0
 47 86  1  0
 47 87  1  0
 48 88  1  0
 48 89  1  0
 48 90  1  0
 49 91  1  0
 54 92  1  0
 57 93  1  0
 65 94  1  0
 66 95  1  0
 67 96  1  0
 68 97  1  0
 69 98  1  0
 70 99  1  0
 70100  1  0
 71101  1  0
M  END

