
     RDKit          3D

114127  0  0  0  0  0  0  0  0999 V2000
   -0.2325   -1.6567    7.5633 C   0  0  0  0  0  0  0  0  0  0  0  0
   -0.2892   -0.6019    8.4036 C   0  0  0  0  0  0  0  0  0  0  0  0
    0.4326    0.6779    8.2469 C   0  0  0  0  0  0  0  0  0  0  0  0
    1.4791    0.8826    7.5767 O   0  0  0  0  0  0  0  0  0  0  0  0
   -0.1660    1.6292    9.1502 C   0  0  0  0  0  0  0  0  0  0  0  0
    0.0435    2.9778    9.3808 C   0  0  0  0  0  0  0  0  0  0  0  0
   -1.0450    3.3822   10.6063 S   0  0  0  0  0  0  0  0  0  0  0  0
   -1.7501    1.8569   10.8302 C   0  0  0  0  0  0  0  0  0  0  0  0
   -1.1217    1.0131    9.9187 C   0  0  0  0  0  0  0  0  0  0  0  0
   -1.2147   -0.4289    9.5791 C   0  0  0  0  0  0  0  0  0  0  0  0
   -1.8867   -1.3716   10.2847 C   0  0  0  0  0  0  0  0  0  0  0  0
   -1.7750   -2.7793   10.0202 C   0  0  0  0  0  0  0  0  0  0  0  0
   -1.6893   -3.9182    9.8173 N   0  0  0  0  0  0  0  0  0  0  0  0
   -2.7160   -1.0279   11.4133 C   0  0  0  0  0  0  0  0  0  0  0  0
   -3.3869   -0.7681   12.3221 N   0  0  0  0  0  0  0  0  0  0  0  0
    0.5019   -1.6953    6.2813 C   0  0  0  0  0  0  0  0  0  0  0  0
    0.9753   -2.8760    5.6781 C   0  0  0  0  0  0  0  0  0  0  0  0
    0.8643   -4.2181    6.2802 C   0  0  0  0  0  0  0  0  0  0  0  0
    1.7361   -4.5485    7.3297 C   0  0  0  0  0  0  0  0  0  0  0  0
    1.6535   -5.7940    7.9518 C   0  0  0  0  0  0  0  0  0  0  0  0
    0.6951   -6.7193    7.5380 C   0  0  0  0  0  0  0  0  0  0  0  0
   -0.1835   -6.4020    6.5012 C   0  0  0  0  0  0  0  0  0  0  0  0
   -0.1104   -5.1574    5.8555 C   0  0  0  0  0  0  0  0  0  0  0  0
   -1.1471   -4.8367    4.7986 C   0  0  0  0  0  0  0  0  0  0  0  0
   -2.3960   -4.2192    5.4218 C   0  0  0  0  0  0  0  0  0  0  0  0
    1.4501   -2.6378    4.3876 C   0  0  0  0  0  0  0  0  0  0  0  0
    1.9185   -3.6753    3.1220 S   0  0  0  0  0  0  0  0  0  0  0  0
    1.9785   -2.3762    2.0304 C   0  0  0  0  0  0  0  0  0  0  0  0
    1.7644   -2.2554    0.6854 C   0  0  0  0  0  0  0  0  0  0  0  0
    1.5486   -3.2449   -0.2855 C   0  0  0  0  0  0  0  0  0  0  0  0
    0.9516   -2.8716   -1.5284 C   0  0  0  0  0  0  0  0  0  0  0  0
    0.7418   -3.8607   -2.4326 N   0  0  0  0  0  0  0  0  0  0  0  0
    1.3227   -5.1512   -1.5753 S   0  0  0  0  0  0  0  0  0  0  0  0
    1.8330   -4.5590   -0.1132 N   0  0  0  0  0  0  0  0  0  0  0  0
    0.6260   -1.5268   -1.7363 C   0  0  0  0  0  0  0  0  0  0  0  0
    0.2370   -0.8455   -2.8548 C   0  0  0  0  0  0  0  0  0  0  0  0
    0.0733   -1.1753   -4.5094 S   0  0  0  0  0  0  0  0  0  0  0  0
    0.1454    0.4893   -4.8797 C   0  0  0  0  0  0  0  0  0  0  0  0
    0.2572    1.1856   -6.0844 C   0  0  0  0  0  0  0  0  0  0  0  0
    0.1342    0.5593   -7.4236 C   0  0  0  0  0  0  0  0  0  0  0  0
   -1.0755   -0.0333   -7.8824 C   0  0  0  0  0  0  0  0  0  0  0  0
   -2.3352   -0.1086   -7.0399 C   0  0  0  0  0  0  0  0  0  0  0  0
   -2.9804    1.2604   -6.8448 C   0  0  0  0  0  0  0  0  0  0  0  0
   -1.1275   -0.5506   -9.1932 C   0  0  0  0  0  0  0  0  0  0  0  0
   -0.0100   -0.5010  -10.0265 C   0  0  0  0  0  0  0  0  0  0  0  0
    1.1786    0.0569   -9.5660 C   0  0  0  0  0  0  0  0  0  0  0  0
    1.2542    0.5798   -8.2734 C   0  0  0  0  0  0  0  0  0  0  0  0
    0.6413    2.5251   -5.8497 C   0  0  0  0  0  0  0  0  0  0  0  0
    0.8085    2.8030   -4.1786 S   0  0  0  0  0  0  0  0  0  0  0  0
    0.3753    1.2404   -3.7529 C   0  0  0  0  0  0  0  0  0  0  0  0
    0.4025    0.4799   -2.5934 C   0  0  0  0  0  0  0  0  0  0  0  0
    0.8799    0.7120   -1.3434 N   0  0  0  0  0  0  0  0  0  0  0  0
    0.9144   -0.5394   -0.7890 C   0  0  0  0  0  0  0  0  0  0  0  0
    1.3765   -0.9254    0.4836 C   0  0  0  0  0  0  0  0  0  0  0  0
    1.1771   -0.2841    1.6784 N   0  0  0  0  0  0  0  0  0  0  0  0
    1.6013   -1.1932    2.5969 C   0  0  0  0  0  0  0  0  0  0  0  0
    1.3047   -1.3493    3.9478 C   0  0  0  0  0  0  0  0  0  0  0  0
    0.5698   -0.4271    5.1385 S   0  0  0  0  0  0  0  0  0  0  0  0
    0.1426    0.7310    1.9406 C   0  0  0  0  0  0  0  0  0  0  0  0
   -1.2409    0.0871    2.0311 C   0  0  0  0  0  0  0  0  0  0  0  0
    1.7555    1.8379   -0.9855 C   0  0  0  0  0  0  0  0  0  0  0  0
    3.1404    1.6705   -1.6123 C   0  0  0  0  0  0  0  0  0  0  0  0
    1.1883    3.4315   -6.8698 C   0  0  0  0  0  0  0  0  0  0  0  0
    0.4335    4.2188   -7.6544 C   0  0  0  0  0  0  0  0  0  0  0  0
   -0.9663    4.5675   -7.3988 C   0  0  0  0  0  0  0  0  0  0  0  0
   -1.6776    4.1542   -6.4447 O   0  0  0  0  0  0  0  0  0  0  0  0
   -1.3500    5.6214   -8.3128 C   0  0  0  0  0  0  0  0  0  0  0  0
   -2.5619    6.3107   -8.3692 C   0  0  0  0  0  0  0  0  0  0  0  0
   -2.6920    7.3697   -9.2782 C   0  0  0  0  0  0  0  0  0  0  0  0
   -4.2201    8.2303   -9.3587 Cl  0  0  0  0  0  0  0  0  0  0  0  0
   -1.5946    7.7437  -10.0870 C   0  0  0  0  0  0  0  0  0  0  0  0
   -1.7084    9.1074  -11.1892 Cl  0  0  0  0  0  0  0  0  0  0  0  0
   -0.3793    7.0415   -9.9994 C   0  0  0  0  0  0  0  0  0  0  0  0
   -0.2772    5.9483   -9.1219 C   0  0  0  0  0  0  0  0  0  0  0  0
    0.8748    5.0491   -8.8198 C   0  0  0  0  0  0  0  0  0  0  0  0
    1.9814    4.8648   -9.5904 C   0  0  0  0  0  0  0  0  0  0  0  0
    2.9651    3.8505   -9.3177 C   0  0  0  0  0  0  0  0  0  0  0  0
    3.7664    3.0404   -9.1122 N   0  0  0  0  0  0  0  0  0  0  0  0
    2.1997    5.5807  -10.8203 C   0  0  0  0  0  0  0  0  0  0  0  0
    2.3839    6.1398  -11.8151 N   0  0  0  0  0  0  0  0  0  0  0  0
   -0.8037   -2.5404    7.7726 H   0  0  0  0  0  0  0  0  0  0  0  0
    0.7460    3.6261    8.8781 H   0  0  0  0  0  0  0  0  0  0  0  0
   -2.5325    1.6225   11.5356 H   0  0  0  0  0  0  0  0  0  0  0  0
    2.4843   -3.8373    7.6640 H   0  0  0  0  0  0  0  0  0  0  0  0
    2.3353   -6.0417    8.7565 H   0  0  0  0  0  0  0  0  0  0  0  0
    0.6269   -7.6827    8.0244 H   0  0  0  0  0  0  0  0  0  0  0  0
   -0.9317   -7.1282    6.2046 H   0  0  0  0  0  0  0  0  0  0  0  0
   -1.4346   -5.7638    4.2540 H   0  0  0  0  0  0  0  0  0  0  0  0
   -0.7550   -4.1377    4.0328 H   0  0  0  0  0  0  0  0  0  0  0  0
   -2.7990   -4.8751    6.2228 H   0  0  0  0  0  0  0  0  0  0  0  0
   -3.1743   -4.0868    4.6419 H   0  0  0  0  0  0  0  0  0  0  0  0
   -2.1554   -3.2226    5.8483 H   0  0  0  0  0  0  0  0  0  0  0  0
   -2.1254   -0.5635   -6.0544 H   0  0  0  0  0  0  0  0  0  0  0  0
   -3.0840   -0.7731   -7.5238 H   0  0  0  0  0  0  0  0  0  0  0  0
   -2.9947    1.8317   -7.7967 H   0  0  0  0  0  0  0  0  0  0  0  0
   -4.0223    1.1364   -6.4838 H   0  0  0  0  0  0  0  0  0  0  0  0
   -2.4274    1.8241   -6.0711 H   0  0  0  0  0  0  0  0  0  0  0  0
   -2.0366   -0.9946   -9.5764 H   0  0  0  0  0  0  0  0  0  0  0  0
   -0.0627   -0.9045  -11.0287 H   0  0  0  0  0  0  0  0  0  0  0  0
    2.0477    0.0847  -10.2098 H   0  0  0  0  0  0  0  0  0  0  0  0
    2.1933    0.9985   -7.9329 H   0  0  0  0  0  0  0  0  0  0  0  0
    0.0964    1.4848    1.1355 H   0  0  0  0  0  0  0  0  0  0  0  0
    0.3720    1.2753    2.8801 H   0  0  0  0  0  0  0  0  0  0  0  0
   -2.0032    0.8645    2.2468 H   0  0  0  0  0  0  0  0  0  0  0  0
   -1.4957   -0.3984    1.0674 H   0  0  0  0  0  0  0  0  0  0  0  0
   -1.2671   -0.6775    2.8327 H   0  0  0  0  0  0  0  0  0  0  0  0
    1.2980    2.7913   -1.3214 H   0  0  0  0  0  0  0  0  0  0  0  0
    1.9062    1.9043    0.1067 H   0  0  0  0  0  0  0  0  0  0  0  0
    3.7420    2.5837   -1.4271 H   0  0  0  0  0  0  0  0  0  0  0  0
    3.6537    0.7921   -1.1590 H   0  0  0  0  0  0  0  0  0  0  0  0
    3.0659    1.5156   -2.7086 H   0  0  0  0  0  0  0  0  0  0  0  0
    2.2587    3.4180   -6.9746 H   0  0  0  0  0  0  0  0  0  0  0  0
   -3.3823    6.0273   -7.7258 H   0  0  0  0  0  0  0  0  0  0  0  0
    0.4578    7.3911  -10.5775 H   0  0  0  0  0  0  0  0  0  0  0  0
  1  2  2  3
  2  3  1  0
  3  4  2  0
  3  5  1  0
  5  6  2  0
  6  7  1  0
  7  8  1  0
  8  9  2  0
  9 10  1  0
 10 11  2  3
 11 12  1  0
 12 13  3  0
 11 14  1  0
 14 15  3  0
  1 16  1  0
 16 17  2  0
 17 18  1  0
 18 19  2  0
 19 20  1  0
 20 21  2  0
 21 22  1  0
 22 23  2  0
 23 24  1  0
 24 25  1  0
 17 26  1  0
 26 27  1  0
 27 28  1  0
 28 29  1  0
 29 30  1  0
 30 31  1  0
 31 32  2  0
 32 33  1  0
 33 34  1  0
 31 35  1  0
 35 36  1  0
 36 37  1  0
 37 38  1  0
 38 39  1  0
 39 40  1  0
 40 41  2  0
 41 42  1  0
 42 43  1  0
 41 44  1  0
 44 45  2  0
 45 46  1  0
 46 47  2  0
 39 48  2  0
 48 49  1  0
 49 50  1  0
 50 51  1  0
 51 52  1  0
 52 53  1  0
 53 54  1  0
 54 55  1  0
 55 56  1  0
 56 57  1  0
 57 58  1  0
 55 59  1  0
 59 60  1  0
 52 61  1  0
 61 62  1  0
 48 63  1  0
 63 64  2  3
 64 65  1  0
 65 66  2  0
 65 67  1  0
 67 68  2  0
 68 69  1  0
 69 70  1  0
 69 71  2  0
 71 72  1  0
 71 73  1  0
 73 74  2  0
 74 75  1  0
 75 76  2  3
 76 77  1  0
 77 78  3  0
 76 79  1  0
 79 80  3  0
 10  2  1  0
 58 16  1  0
 75 64  1  0
  9  5  1  0
 23 18  1  0
 57 26  2  0
 74 67  1  0
 56 28  2  0
 54 29  2  0
 34 30  2  0
 53 35  2  0
 51 36  2  0
 50 38  2  0
 47 40  1  0
  1 81  1  0
  6 82  1  0
  8 83  1  0
 19 84  1  0
 20 85  1  0
 21 86  1  0
 22 87  1  0
 24 88  1  0
 24 89  1  0
 25 90  1  0
 25 91  1  0
 25 92  1  0
 42 93  1  0
 42 94  1  0
 43 95  1  0
 43 96  1  0
 43 97  1  0
 44 98  1  0
 45 99  1  0
 46100  1  0
 47101  1  0
 59102  1  0
 59103  1  0
 60104  1  0
 60105  1  0
 60106  1  0
 61107  1  0
 61108  1  0
 62109  1  0
 62110  1  0
 62111  1  0
 63112  1  0
 68113  1  0
 73114  1  0
M  END

