
     RDKit          3D

 98110  0  0  0  0  0  0  0  0999 V2000
    1.7947   -6.9819   -4.9403 C   0  0  0  0  0  0  0  0  0  0  0  0
    0.8652   -7.5639   -5.7178 C   0  0  0  0  0  0  0  0  0  0  0  0
    1.0999   -8.8569   -6.3780 C   0  0  0  0  0  0  0  0  0  0  0  0
    1.9930   -9.6975   -6.0883 O   0  0  0  0  0  0  0  0  0  0  0  0
    0.1696   -8.9528   -7.4779 C   0  0  0  0  0  0  0  0  0  0  0  0
   -0.0027   -9.8630   -8.5012 C   0  0  0  0  0  0  0  0  0  0  0  0
   -1.2533   -9.2246   -9.4451 S   0  0  0  0  0  0  0  0  0  0  0  0
   -1.5525   -7.8167   -8.5496 C   0  0  0  0  0  0  0  0  0  0  0  0
   -0.6544   -7.8503   -7.4905 C   0  0  0  0  0  0  0  0  0  0  0  0
   -0.3674   -6.9760   -6.3341 C   0  0  0  0  0  0  0  0  0  0  0  0
   -1.2564   -6.1482   -5.7407 C   0  0  0  0  0  0  0  0  0  0  0  0
   -2.4673   -5.7345   -6.4026 C   0  0  0  0  0  0  0  0  0  0  0  0
   -3.4397   -5.3941   -6.9317 N   0  0  0  0  0  0  0  0  0  0  0  0
   -1.1081   -5.7373   -4.3678 C   0  0  0  0  0  0  0  0  0  0  0  0
   -0.9945   -5.4073   -3.2633 N   0  0  0  0  0  0  0  0  0  0  0  0
    1.9259   -5.5334   -4.7008 C   0  0  0  0  0  0  0  0  0  0  0  0
    1.4568   -4.2755   -5.7755 S   0  0  0  0  0  0  0  0  0  0  0  0
    2.0880   -3.0862   -4.7864 C   0  0  0  0  0  0  0  0  0  0  0  0
    1.9427   -1.7465   -4.5710 C   0  0  0  0  0  0  0  0  0  0  0  0
    0.9186   -0.5108   -5.1407 S   0  0  0  0  0  0  0  0  0  0  0  0
    1.2235    0.3636   -3.7121 C   0  0  0  0  0  0  0  0  0  0  0  0
    0.9377    1.5833   -3.1752 C   0  0  0  0  0  0  0  0  0  0  0  0
    0.2119    2.6646   -3.6799 C   0  0  0  0  0  0  0  0  0  0  0  0
    0.1201    3.8508   -2.8966 C   0  0  0  0  0  0  0  0  0  0  0  0
   -0.6101    4.8725   -3.4084 N   0  0  0  0  0  0  0  0  0  0  0  0
   -1.0725    4.1922   -4.8479 S   0  0  0  0  0  0  0  0  0  0  0  0
   -0.4206    2.6685   -4.8791 N   0  0  0  0  0  0  0  0  0  0  0  0
    0.7409    3.8791   -1.6406 C   0  0  0  0  0  0  0  0  0  0  0  0
    0.5749    4.7531   -0.6045 C   0  0  0  0  0  0  0  0  0  0  0  0
   -0.4927    6.0254   -0.2498 S   0  0  0  0  0  0  0  0  0  0  0  0
   -0.2774    5.7970    1.4241 C   0  0  0  0  0  0  0  0  0  0  0  0
   -0.9666    6.2917    2.5407 C   0  0  0  0  0  0  0  0  0  0  0  0
   -2.0239    7.3575    2.4318 C   0  0  0  0  0  0  0  0  0  0  0  0
   -3.4014    6.7401    2.2192 C   0  0  0  0  0  0  0  0  0  0  0  0
   -0.6790    5.5344    3.7055 C   0  0  0  0  0  0  0  0  0  0  0  0
    0.4090    4.2957    3.2698 S   0  0  0  0  0  0  0  0  0  0  0  0
    0.5524    4.7339    1.6692 C   0  0  0  0  0  0  0  0  0  0  0  0
    1.0492    4.1412    0.5115 C   0  0  0  0  0  0  0  0  0  0  0  0
    1.5726    2.9127    0.2543 N   0  0  0  0  0  0  0  0  0  0  0  0
    1.4208    2.7662   -1.1065 C   0  0  0  0  0  0  0  0  0  0  0  0
    1.5985    1.6197   -1.9354 C   0  0  0  0  0  0  0  0  0  0  0  0
    2.3780    0.4948   -1.7668 N   0  0  0  0  0  0  0  0  0  0  0  0
    2.0329   -0.2756   -2.8319 C   0  0  0  0  0  0  0  0  0  0  0  0
    2.4525   -1.5104   -3.3160 C   0  0  0  0  0  0  0  0  0  0  0  0
    2.8500   -2.6623   -2.7043 N   0  0  0  0  0  0  0  0  0  0  0  0
    2.6293   -3.6073   -3.6570 C   0  0  0  0  0  0  0  0  0  0  0  0
    2.5645   -4.9968   -3.5695 C   0  0  0  0  0  0  0  0  0  0  0  0
    3.0318   -2.9282   -1.2749 C   0  0  0  0  0  0  0  0  0  0  0  0
    4.4781   -3.3141   -0.9858 C   0  0  0  0  0  0  0  0  0  0  0  0
    3.7086    0.4032   -1.1392 C   0  0  0  0  0  0  0  0  0  0  0  0
    4.5132    1.7000   -1.2612 C   0  0  0  0  0  0  0  0  0  0  0  0
    1.8767    1.9042    1.2775 C   0  0  0  0  0  0  0  0  0  0  0  0
    0.8226    0.8003    1.3100 C   0  0  0  0  0  0  0  0  0  0  0  0
   -1.4318    5.6396    4.9887 C   0  0  0  0  0  0  0  0  0  0  0  0
   -1.3504    4.8107    6.0573 C   0  0  0  0  0  0  0  0  0  0  0  0
   -0.4286    3.6832    6.2604 C   0  0  0  0  0  0  0  0  0  0  0  0
    0.8049    3.6721    6.0113 O   0  0  0  0  0  0  0  0  0  0  0  0
   -1.1133    2.6753    7.0431 C   0  0  0  0  0  0  0  0  0  0  0  0
   -0.7168    1.3611    7.3010 C   0  0  0  0  0  0  0  0  0  0  0  0
   -1.5999    0.5230    7.9933 C   0  0  0  0  0  0  0  0  0  0  0  0
   -2.8583    1.0019    8.4023 C   0  0  0  0  0  0  0  0  0  0  0  0
   -4.2074   -0.2994    9.3619 I   0  0  0  0  0  0  0  0  0  0  0  0
   -3.2367    2.3310    8.1348 C   0  0  0  0  0  0  0  0  0  0  0  0
   -2.3311    3.1724    7.4690 C   0  0  0  0  0  0  0  0  0  0  0  0
   -2.4674    4.5866    7.0265 C   0  0  0  0  0  0  0  0  0  0  0  0
   -3.2704    5.5329    7.5766 C   0  0  0  0  0  0  0  0  0  0  0  0
   -4.2098    5.2274    8.6244 C   0  0  0  0  0  0  0  0  0  0  0  0
   -4.9664    4.9928    9.4695 N   0  0  0  0  0  0  0  0  0  0  0  0
   -3.1298    6.9313    7.2634 C   0  0  0  0  0  0  0  0  0  0  0  0
   -3.0166    8.0554    7.0158 N   0  0  0  0  0  0  0  0  0  0  0  0
    2.6005   -7.5996   -4.5560 H   0  0  0  0  0  0  0  0  0  0  0  0
    0.5569  -10.7736   -8.6715 H   0  0  0  0  0  0  0  0  0  0  0  0
   -2.2783   -7.0516   -8.7791 H   0  0  0  0  0  0  0  0  0  0  0  0
   -2.0303    7.9922    3.3436 H   0  0  0  0  0  0  0  0  0  0  0  0
   -1.7920    8.0187    1.5710 H   0  0  0  0  0  0  0  0  0  0  0  0
   -3.7460    6.2370    3.1399 H   0  0  0  0  0  0  0  0  0  0  0  0
   -3.3777    6.0070    1.3817 H   0  0  0  0  0  0  0  0  0  0  0  0
   -4.1302    7.5402    1.9726 H   0  0  0  0  0  0  0  0  0  0  0  0
    2.9004   -5.5792   -2.7222 H   0  0  0  0  0  0  0  0  0  0  0  0
    2.7427   -2.0504   -0.6669 H   0  0  0  0  0  0  0  0  0  0  0  0
    2.3633   -3.7576   -0.9599 H   0  0  0  0  0  0  0  0  0  0  0  0
    4.7469   -4.2369   -1.5392 H   0  0  0  0  0  0  0  0  0  0  0  0
    5.1668   -2.4987   -1.2861 H   0  0  0  0  0  0  0  0  0  0  0  0
    4.6025   -3.5005    0.1015 H   0  0  0  0  0  0  0  0  0  0  0  0
    4.3103   -0.3664   -1.6645 H   0  0  0  0  0  0  0  0  0  0  0  0
    3.6368    0.0414   -0.1004 H   0  0  0  0  0  0  0  0  0  0  0  0
    5.5650    1.5151   -0.9633 H   0  0  0  0  0  0  0  0  0  0  0  0
    4.5041    2.0541   -2.3114 H   0  0  0  0  0  0  0  0  0  0  0  0
    4.1100    2.4943   -0.6067 H   0  0  0  0  0  0  0  0  0  0  0  0
    2.8904    1.5084    1.1513 H   0  0  0  0  0  0  0  0  0  0  0  0
    1.9238    2.3695    2.2784 H   0  0  0  0  0  0  0  0  0  0  0  0
    0.9716    0.1700    2.2101 H   0  0  0  0  0  0  0  0  0  0  0  0
    0.9006    0.1515    0.4128 H   0  0  0  0  0  0  0  0  0  0  0  0
   -0.1951    1.2489    1.3488 H   0  0  0  0  0  0  0  0  0  0  0  0
   -2.2472    6.3426    4.9756 H   0  0  0  0  0  0  0  0  0  0  0  0
    0.2418    0.9928    6.9550 H   0  0  0  0  0  0  0  0  0  0  0  0
   -1.3198   -0.5035    8.1878 H   0  0  0  0  0  0  0  0  0  0  0  0
   -4.2261    2.6579    8.4046 H   0  0  0  0  0  0  0  0  0  0  0  0
  1  2  2  3
  2  3  1  0
  3  4  2  0
  3  5  1  0
  5  6  2  0
  6  7  1  0
  7  8  1  0
  8  9  2  0
  9 10  1  0
 10 11  2  3
 11 12  1  0
 12 13  3  0
 11 14  1  0
 14 15  3  0
  1 16  1  0
 16 17  1  0
 17 18  1  0
 18 19  1  0
 19 20  1  0
 20 21  1  0
 21 22  1  0
 22 23  1  0
 23 24  1  0
 24 25  2  0
 25 26  1  0
 26 27  1  0
 24 28  1  0
 28 29  1  0
 29 30  1  0
 30 31  1  0
 31 32  1  0
 32 33  1  0
 33 34  1  0
 32 35  2  0
 35 36  1  0
 36 37  1  0
 37 38  1  0
 38 39  1  0
 39 40  1  0
 40 41  1  0
 41 42  1  0
 42 43  1  0
 43 44  1  0
 44 45  1  0
 45 46  1  0
 46 47  1  0
 45 48  1  0
 48 49  1  0
 42 50  1  0
 50 51  1  0
 39 52  1  0
 52 53  1  0
 35 54  1  0
 54 55  2  3
 55 56  1  0
 56 57  2  0
 56 58  1  0
 58 59  2  0
 59 60  1  0
 60 61  2  0
 61 62  1  0
 61 63  1  0
 63 64  2  0
 64 65  1  0
 65 66  2  3
 66 67  1  0
 67 68  3  0
 66 69  1  0
 69 70  3  0
 10  2  1  0
 47 16  2  0
 65 55  1  0
  9  5  1  0
 46 18  2  0
 64 58  1  0
 44 19  2  0
 43 21  2  0
 41 22  2  0
 27 23  2  0
 40 28  2  0
 38 29  2  0
 37 31  2  0
  1 71  1  0
  6 72  1  0
  8 73  1  0
 33 74  1  0
 33 75  1  0
 34 76  1  0
 34 77  1  0
 34 78  1  0
 47 79  1  0
 48 80  1  0
 48 81  1  0
 49 82  1  0
 49 83  1  0
 49 84  1  0
 50 85  1  0
 50 86  1  0
 51 87  1  0
 51 88  1  0
 51 89  1  0
 52 90  1  0
 52 91  1  0
 53 92  1  0
 53 93  1  0
 53 94  1  0
 54 95  1  0
 59 96  1  0
 60 97  1  0
 63 98  1  0
M  END

