
     RDKit          3D

 94105  0  0  0  0  0  0  0  0999 V2000
    2.9249    0.4602   -8.0907 C   0  0  0  0  0  0  0  0  0  0  0  0
    3.5923    1.6285   -8.0372 C   0  0  0  0  0  0  0  0  0  0  0  0
    4.2532    2.1754   -6.8310 C   0  0  0  0  0  0  0  0  0  0  0  0
    4.1350    1.7633   -5.6468 O   0  0  0  0  0  0  0  0  0  0  0  0
    5.0831    3.2774   -7.2491 C   0  0  0  0  0  0  0  0  0  0  0  0
    5.9688    4.1045   -6.5797 C   0  0  0  0  0  0  0  0  0  0  0  0
    6.6050    5.1174   -7.7758 S   0  0  0  0  0  0  0  0  0  0  0  0
    5.7532    4.4985   -9.1035 C   0  0  0  0  0  0  0  0  0  0  0  0
    4.9551    3.4750   -8.6024 C   0  0  0  0  0  0  0  0  0  0  0  0
    3.9841    2.5167   -9.1841 C   0  0  0  0  0  0  0  0  0  0  0  0
    3.4840    2.5498  -10.4431 C   0  0  0  0  0  0  0  0  0  0  0  0
    2.3938    1.7134  -10.8707 C   0  0  0  0  0  0  0  0  0  0  0  0
    1.5132    1.0551  -11.2321 N   0  0  0  0  0  0  0  0  0  0  0  0
    3.9574    3.4934  -11.4238 C   0  0  0  0  0  0  0  0  0  0  0  0
    4.3294    4.2482  -12.2193 N   0  0  0  0  0  0  0  0  0  0  0  0
    2.7119   -0.3769   -6.9062 C   0  0  0  0  0  0  0  0  0  0  0  0
    3.6600   -1.2446   -6.3398 C   0  0  0  0  0  0  0  0  0  0  0  0
    5.0155   -1.5344   -6.9264 C   0  0  0  0  0  0  0  0  0  0  0  0
    4.9057   -2.5156   -8.0902 C   0  0  0  0  0  0  0  0  0  0  0  0
    3.2007   -1.7471   -5.1208 C   0  0  0  0  0  0  0  0  0  0  0  0
    4.0013   -2.5319   -3.8452 S   0  0  0  0  0  0  0  0  0  0  0  0
    2.6546   -2.3412   -2.8306 C   0  0  0  0  0  0  0  0  0  0  0  0
    2.4977   -2.2015   -1.4817 C   0  0  0  0  0  0  0  0  0  0  0  0
    3.4459   -2.3132   -0.4544 C   0  0  0  0  0  0  0  0  0  0  0  0
    3.1534   -1.7418    0.8186 C   0  0  0  0  0  0  0  0  0  0  0  0
    4.1063   -1.8494    1.7774 N   0  0  0  0  0  0  0  0  0  0  0  0
    5.2799   -2.6424    0.9175 S   0  0  0  0  0  0  0  0  0  0  0  0
    4.6693   -2.8779   -0.6046 N   0  0  0  0  0  0  0  0  0  0  0  0
    1.9191   -1.1133    1.0022 C   0  0  0  0  0  0  0  0  0  0  0  0
    1.3169   -0.6073    2.1174 C   0  0  0  0  0  0  0  0  0  0  0  0
    1.6211   -0.4711    3.7827 S   0  0  0  0  0  0  0  0  0  0  0  0
   -0.0179   -0.0766    4.0701 C   0  0  0  0  0  0  0  0  0  0  0  0
   -0.7575    0.2050    5.2223 C   0  0  0  0  0  0  0  0  0  0  0  0
   -0.1575    0.4125    6.5924 C   0  0  0  0  0  0  0  0  0  0  0  0
    0.4890   -0.8547    7.1453 C   0  0  0  0  0  0  0  0  0  0  0  0
   -2.1195    0.3927    4.8950 C   0  0  0  0  0  0  0  0  0  0  0  0
   -2.3622    0.2390    3.2154 S   0  0  0  0  0  0  0  0  0  0  0  0
   -0.7487   -0.0881    2.9072 C   0  0  0  0  0  0  0  0  0  0  0  0
    0.0238   -0.3689    1.7925 C   0  0  0  0  0  0  0  0  0  0  0  0
   -0.2686   -0.6875    0.5074 N   0  0  0  0  0  0  0  0  0  0  0  0
    0.9438   -1.0725   -0.0048 C   0  0  0  0  0  0  0  0  0  0  0  0
    1.2808   -1.5211   -1.3065 C   0  0  0  0  0  0  0  0  0  0  0  0
    0.7653   -1.1302   -2.5203 N   0  0  0  0  0  0  0  0  0  0  0  0
    1.6320   -1.6631   -3.4241 C   0  0  0  0  0  0  0  0  0  0  0  0
    1.9627   -1.2987   -4.7300 C   0  0  0  0  0  0  0  0  0  0  0  0
    1.3730   -0.2193   -5.8727 S   0  0  0  0  0  0  0  0  0  0  0  0
   -0.1114    0.0207   -2.7860 C   0  0  0  0  0  0  0  0  0  0  0  0
   -1.3359   -0.3898   -3.6129 C   0  0  0  0  0  0  0  0  0  0  0  0
   -1.5957   -1.1192    0.0562 C   0  0  0  0  0  0  0  0  0  0  0  0
   -1.9723   -2.4633    0.6776 C   0  0  0  0  0  0  0  0  0  0  0  0
   -3.2006    0.7223    5.8334 C   0  0  0  0  0  0  0  0  0  0  0  0
   -3.6535   -0.1471    6.7542 C   0  0  0  0  0  0  0  0  0  0  0  0
   -3.1346   -1.5013    6.9667 C   0  0  0  0  0  0  0  0  0  0  0  0
   -2.5321   -2.2143    6.1161 O   0  0  0  0  0  0  0  0  0  0  0  0
   -3.4833   -1.9121    8.3096 C   0  0  0  0  0  0  0  0  0  0  0  0
   -4.2694   -0.9340    8.9017 C   0  0  0  0  0  0  0  0  0  0  0  0
   -4.6264   -1.0543   10.2546 C   0  0  0  0  0  0  0  0  0  0  0  0
   -4.2239   -2.1984   10.9675 C   0  0  0  0  0  0  0  0  0  0  0  0
   -4.5703   -2.3312   12.2711 F   0  0  0  0  0  0  0  0  0  0  0  0
   -3.4348   -3.1833   10.3511 C   0  0  0  0  0  0  0  0  0  0  0  0
   -3.0237   -4.2646   11.0599 F   0  0  0  0  0  0  0  0  0  0  0  0
   -3.0550   -3.0433    9.0085 C   0  0  0  0  0  0  0  0  0  0  0  0
   -2.2583   -3.9688    8.4187 F   0  0  0  0  0  0  0  0  0  0  0  0
   -4.5314    0.1583    7.9216 C   0  0  0  0  0  0  0  0  0  0  0  0
   -5.5101    1.0962    7.9815 C   0  0  0  0  0  0  0  0  0  0  0  0
   -5.8426    1.9239    6.8523 C   0  0  0  0  0  0  0  0  0  0  0  0
   -6.1155    2.5895    5.9451 N   0  0  0  0  0  0  0  0  0  0  0  0
   -6.3711    1.2460    9.1214 C   0  0  0  0  0  0  0  0  0  0  0  0
   -7.0707    1.3792   10.0325 N   0  0  0  0  0  0  0  0  0  0  0  0
    2.5797    0.0443   -9.0202 H   0  0  0  0  0  0  0  0  0  0  0  0
    6.2096    4.0888   -5.5235 H   0  0  0  0  0  0  0  0  0  0  0  0
    5.8476    4.8371  -10.1219 H   0  0  0  0  0  0  0  0  0  0  0  0
    5.6838   -1.9666   -6.1510 H   0  0  0  0  0  0  0  0  0  0  0  0
    5.4843   -0.5930   -7.2824 H   0  0  0  0  0  0  0  0  0  0  0  0
    4.4473   -3.4714   -7.7524 H   0  0  0  0  0  0  0  0  0  0  0  0
    5.9204   -2.7287   -8.4898 H   0  0  0  0  0  0  0  0  0  0  0  0
    4.2916   -2.0811   -8.9101 H   0  0  0  0  0  0  0  0  0  0  0  0
    0.6067    1.2167    6.5362 H   0  0  0  0  0  0  0  0  0  0  0  0
   -0.9377    0.7508    7.3073 H   0  0  0  0  0  0  0  0  0  0  0  0
   -0.2275   -1.6998    7.1446 H   0  0  0  0  0  0  0  0  0  0  0  0
    0.8101   -0.6756    8.1918 H   0  0  0  0  0  0  0  0  0  0  0  0
    1.3846   -1.1352    6.5525 H   0  0  0  0  0  0  0  0  0  0  0  0
    0.4534    0.8064   -3.3314 H   0  0  0  0  0  0  0  0  0  0  0  0
   -0.4416    0.4995   -1.8425 H   0  0  0  0  0  0  0  0  0  0  0  0
   -1.0615   -0.5850   -4.6677 H   0  0  0  0  0  0  0  0  0  0  0  0
   -2.0836    0.4292   -3.5955 H   0  0  0  0  0  0  0  0  0  0  0  0
   -1.8059   -1.3121   -3.2180 H   0  0  0  0  0  0  0  0  0  0  0  0
   -1.6086   -1.2576   -1.0305 H   0  0  0  0  0  0  0  0  0  0  0  0
   -2.3553   -0.3484    0.3157 H   0  0  0  0  0  0  0  0  0  0  0  0
   -2.9615   -2.7836    0.2899 H   0  0  0  0  0  0  0  0  0  0  0  0
   -2.0355   -2.3869    1.7820 H   0  0  0  0  0  0  0  0  0  0  0  0
   -1.2158   -3.2312    0.4089 H   0  0  0  0  0  0  0  0  0  0  0  0
   -3.5493    1.7422    5.8108 H   0  0  0  0  0  0  0  0  0  0  0  0
   -5.1718   -0.2855   10.7746 H   0  0  0  0  0  0  0  0  0  0  0  0
  1  2  2  3
  2  3  1  0
  3  4  2  0
  3  5  1  0
  5  6  2  0
  6  7  1  0
  7  8  1  0
  8  9  2  0
  9 10  1  0
 10 11  2  3
 11 12  1  0
 12 13  3  0
 11 14  1  0
 14 15  3  0
  1 16  1  0
 16 17  2  0
 17 18  1  0
 18 19  1  0
 17 20  1  0
 20 21  1  0
 21 22  1  0
 22 23  1  0
 23 24  1  0
 24 25  1  0
 25 26  2  0
 26 27  1  0
 27 28  1  0
 25 29  1  0
 29 30  1  0
 30 31  1  0
 31 32  1  0
 32 33  1  0
 33 34  1  0
 34 35  1  0
 33 36  2  0
 36 37  1  0
 37 38  1  0
 38 39  1  0
 39 40  1  0
 40 41  1  0
 41 42  1  0
 42 43  1  0
 43 44  1  0
 44 45  1  0
 45 46  1  0
 43 47  1  0
 47 48  1  0
 40 49  1  0
 49 50  1  0
 36 51  1  0
 51 52  2  3
 52 53  1  0
 53 54  2  0
 53 55  1  0
 55 56  2  0
 56 57  1  0
 57 58  2  0
 58 59  1  0
 58 60  1  0
 60 61  1  0
 60 62  2  0
 62 63  1  0
 56 64  1  0
 64 65  2  3
 65 66  1  0
 66 67  3  0
 65 68  1  0
 68 69  3  0
 10  2  1  0
 46 16  1  0
 64 52  1  0
  9  5  1  0
 45 20  2  0
 62 55  1  0
 44 22  2  0
 42 23  2  0
 28 24  2  0
 41 29  2  0
 39 30  2  0
 38 32  2  0
  1 70  1  0
  6 71  1  0
  8 72  1  0
 18 73  1  0
 18 74  1  0
 19 75  1  0
 19 76  1  0
 19 77  1  0
 34 78  1  0
 34 79  1  0
 35 80  1  0
 35 81  1  0
 35 82  1  0
 47 83  1  0
 47 84  1  0
 48 85  1  0
 48 86  1  0
 48 87  1  0
 49 88  1  0
 49 89  1  0
 50 90  1  0
 50 91  1  0
 50 92  1  0
 51 93  1  0
 57 94  1  0
M  END

