
     RDKit          3D

 94105  0  0  0  0  0  0  0  0999 V2000
    1.1783   -5.8322    5.5911 C   0  0  0  0  0  0  0  0  0  0  0  0
    2.4694   -6.0185    5.9300 C   0  0  0  0  0  0  0  0  0  0  0  0
    3.6191   -5.8892    5.0052 C   0  0  0  0  0  0  0  0  0  0  0  0
    3.6002   -5.4580    3.8212 O   0  0  0  0  0  0  0  0  0  0  0  0
    4.7685   -6.4653    5.6554 C   0  0  0  0  0  0  0  0  0  0  0  0
    6.0745   -6.6797    5.2539 C   0  0  0  0  0  0  0  0  0  0  0  0
    6.7968   -7.4882    6.5557 S   0  0  0  0  0  0  0  0  0  0  0  0
    5.4668   -7.5382    7.5971 C   0  0  0  0  0  0  0  0  0  0  0  0
    4.4247   -6.9230    6.9077 C   0  0  0  0  0  0  0  0  0  0  0  0
    2.9971   -6.6398    7.1957 C   0  0  0  0  0  0  0  0  0  0  0  0
    2.3758   -6.7871    8.3889 C   0  0  0  0  0  0  0  0  0  0  0  0
    1.0703   -6.2399    8.6648 C   0  0  0  0  0  0  0  0  0  0  0  0
    0.0269   -5.7961    8.9052 N   0  0  0  0  0  0  0  0  0  0  0  0
    3.0158   -7.4450    9.4899 C   0  0  0  0  0  0  0  0  0  0  0  0
    3.5309   -7.9867   10.3742 N   0  0  0  0  0  0  0  0  0  0  0  0
    0.7632   -5.2917    4.2924 C   0  0  0  0  0  0  0  0  0  0  0  0
    0.2139   -6.0424    3.2322 C   0  0  0  0  0  0  0  0  0  0  0  0
   -0.0868   -7.5143    3.2834 C   0  0  0  0  0  0  0  0  0  0  0  0
   -1.5175   -7.7603    3.7358 C   0  0  0  0  0  0  0  0  0  0  0  0
    0.0227   -5.2384    2.1076 C   0  0  0  0  0  0  0  0  0  0  0  0
   -0.5245   -5.5476    0.5211 S   0  0  0  0  0  0  0  0  0  0  0  0
   -0.1718   -3.9453    0.0755 C   0  0  0  0  0  0  0  0  0  0  0  0
   -0.3658   -3.1018   -0.9767 C   0  0  0  0  0  0  0  0  0  0  0  0
   -1.1079   -3.2445   -2.1602 C   0  0  0  0  0  0  0  0  0  0  0  0
   -1.3745   -2.0838   -2.9488 C   0  0  0  0  0  0  0  0  0  0  0  0
   -2.1276   -2.2513   -4.0634 N   0  0  0  0  0  0  0  0  0  0  0  0
   -2.4109   -3.8812   -3.9592 S   0  0  0  0  0  0  0  0  0  0  0  0
   -1.6586   -4.4102   -2.5823 N   0  0  0  0  0  0  0  0  0  0  0  0
   -0.8424   -0.8549   -2.5341 C   0  0  0  0  0  0  0  0  0  0  0  0
   -0.8477    0.3886   -3.0965 C   0  0  0  0  0  0  0  0  0  0  0  0
   -1.4058    1.1760   -4.4950 S   0  0  0  0  0  0  0  0  0  0  0  0
   -0.5445    2.5855   -4.0624 C   0  0  0  0  0  0  0  0  0  0  0  0
   -0.3993    3.8401   -4.6499 C   0  0  0  0  0  0  0  0  0  0  0  0
   -1.0168    4.2352   -5.9659 C   0  0  0  0  0  0  0  0  0  0  0  0
   -0.0957    3.8654   -7.1225 C   0  0  0  0  0  0  0  0  0  0  0  0
    0.4534    4.6513   -3.8791 C   0  0  0  0  0  0  0  0  0  0  0  0
    1.0276    3.7986   -2.5190 S   0  0  0  0  0  0  0  0  0  0  0  0
    0.1719    2.4098   -2.9068 C   0  0  0  0  0  0  0  0  0  0  0  0
   -0.0188    1.1603   -2.3506 C   0  0  0  0  0  0  0  0  0  0  0  0
    0.5733    0.4847   -1.3333 N   0  0  0  0  0  0  0  0  0  0  0  0
   -0.0352   -0.7398   -1.3963 C   0  0  0  0  0  0  0  0  0  0  0  0
    0.1141   -1.8562   -0.5415 C   0  0  0  0  0  0  0  0  0  0  0  0
    0.4587   -1.8908    0.7881 N   0  0  0  0  0  0  0  0  0  0  0  0
    0.3129   -3.2029    1.0961 C   0  0  0  0  0  0  0  0  0  0  0  0
    0.4126   -3.9324    2.2664 C   0  0  0  0  0  0  0  0  0  0  0  0
    1.0109   -3.6777    3.8117 S   0  0  0  0  0  0  0  0  0  0  0  0
    0.3383   -0.7983    1.7641 C   0  0  0  0  0  0  0  0  0  0  0  0
   -1.0939   -0.2534    1.7981 C   0  0  0  0  0  0  0  0  0  0  0  0
    1.9511    0.7290   -0.8793 C   0  0  0  0  0  0  0  0  0  0  0  0
    2.9367    0.6043   -2.0375 C   0  0  0  0  0  0  0  0  0  0  0  0
    0.8158    6.0439   -4.1669 C   0  0  0  0  0  0  0  0  0  0  0  0
   -0.0367    7.0691   -3.9803 C   0  0  0  0  0  0  0  0  0  0  0  0
   -1.4512    6.9437   -3.6061 C   0  0  0  0  0  0  0  0  0  0  0  0
   -2.0106    5.9093   -3.1483 O   0  0  0  0  0  0  0  0  0  0  0  0
   -2.1040    8.2145   -3.8487 C   0  0  0  0  0  0  0  0  0  0  0  0
   -3.4687    8.5319   -3.7685 C   0  0  0  0  0  0  0  0  0  0  0  0
   -4.6795    7.3554   -3.2562 Cl  0  0  0  0  0  0  0  0  0  0  0  0
   -3.8721    9.8255   -4.1260 C   0  0  0  0  0  0  0  0  0  0  0  0
   -2.9272   10.7576   -4.5929 C   0  0  0  0  0  0  0  0  0  0  0  0
   -1.5697   10.4099   -4.7031 C   0  0  0  0  0  0  0  0  0  0  0  0
   -1.1581    9.1332   -4.2935 C   0  0  0  0  0  0  0  0  0  0  0  0
    0.1993    8.5122   -4.2989 C   0  0  0  0  0  0  0  0  0  0  0  0
    1.3880    9.1665   -4.3502 C   0  0  0  0  0  0  0  0  0  0  0  0
    2.6418    8.4987   -4.1195 C   0  0  0  0  0  0  0  0  0  0  0  0
    3.6604    7.9808   -3.9323 N   0  0  0  0  0  0  0  0  0  0  0  0
    1.4866   10.5897   -4.5365 C   0  0  0  0  0  0  0  0  0  0  0  0
    1.5828   11.7290   -4.6831 N   0  0  0  0  0  0  0  0  0  0  0  0
    0.3892   -6.1759    6.2300 H   0  0  0  0  0  0  0  0  0  0  0  0
    6.5308   -6.4066    4.3048 H   0  0  0  0  0  0  0  0  0  0  0  0
    5.4589   -7.9708    8.5835 H   0  0  0  0  0  0  0  0  0  0  0  0
    0.0652   -7.9667    2.2816 H   0  0  0  0  0  0  0  0  0  0  0  0
    0.6136   -8.0135    3.9811 H   0  0  0  0  0  0  0  0  0  0  0  0
   -1.7035   -7.2593    4.7078 H   0  0  0  0  0  0  0  0  0  0  0  0
   -1.6889   -8.8478    3.8594 H   0  0  0  0  0  0  0  0  0  0  0  0
   -2.2286   -7.3671    2.9798 H   0  0  0  0  0  0  0  0  0  0  0  0
   -1.9926    3.7193   -6.0917 H   0  0  0  0  0  0  0  0  0  0  0  0
   -1.2130    5.3236   -5.9938 H   0  0  0  0  0  0  0  0  0  0  0  0
    0.1194    2.7761   -7.1102 H   0  0  0  0  0  0  0  0  0  0  0  0
    0.8612    4.4235   -7.0481 H   0  0  0  0  0  0  0  0  0  0  0  0
   -0.5893    4.1190   -8.0858 H   0  0  0  0  0  0  0  0  0  0  0  0
    0.6036   -1.1514    2.7819 H   0  0  0  0  0  0  0  0  0  0  0  0
    1.0328    0.0290    1.5383 H   0  0  0  0  0  0  0  0  0  0  0  0
   -1.8168   -1.0857    1.9248 H   0  0  0  0  0  0  0  0  0  0  0  0
   -1.2048    0.4608    2.6383 H   0  0  0  0  0  0  0  0  0  0  0  0
   -1.3202    0.2866    0.8506 H   0  0  0  0  0  0  0  0  0  0  0  0
    2.2662   -0.0292   -0.1409 H   0  0  0  0  0  0  0  0  0  0  0  0
    2.0274    1.7340   -0.4140 H   0  0  0  0  0  0  0  0  0  0  0  0
    3.9730    0.7278   -1.6500 H   0  0  0  0  0  0  0  0  0  0  0  0
    2.7479    1.3901   -2.8020 H   0  0  0  0  0  0  0  0  0  0  0  0
    2.8432   -0.3994   -2.5096 H   0  0  0  0  0  0  0  0  0  0  0  0
    1.8150    6.2043   -4.5372 H   0  0  0  0  0  0  0  0  0  0  0  0
   -4.9201   10.0981   -4.0795 H   0  0  0  0  0  0  0  0  0  0  0  0
   -3.2494   11.7460   -4.9108 H   0  0  0  0  0  0  0  0  0  0  0  0
   -0.8891   11.1276   -5.1277 H   0  0  0  0  0  0  0  0  0  0  0  0
  1  2  2  3
  2  3  1  0
  3  4  2  0
  3  5  1  0
  5  6  2  0
  6  7  1  0
  7  8  1  0
  8  9  2  0
  9 10  1  0
 10 11  2  3
 11 12  1  0
 12 13  3  0
 11 14  1  0
 14 15  3  0
  1 16  1  0
 16 17  2  0
 17 18  1  0
 18 19  1  0
 17 20  1  0
 20 21  1  0
 21 22  1  0
 22 23  1  0
 23 24  1  0
 24 25  1  0
 25 26  2  0
 26 27  1  0
 27 28  1  0
 25 29  1  0
 29 30  1  0
 30 31  1  0
 31 32  1  0
 32 33  1  0
 33 34  1  0
 34 35  1  0
 33 36  2  0
 36 37  1  0
 37 38  1  0
 38 39  1  0
 39 40  1  0
 40 41  1  0
 41 42  1  0
 42 43  1  0
 43 44  1  0
 44 45  1  0
 45 46  1  0
 43 47  1  0
 47 48  1  0
 40 49  1  0
 49 50  1  0
 36 51  1  0
 51 52  2  3
 52 53  1  0
 53 54  2  0
 53 55  1  0
 55 56  2  0
 56 57  1  0
 56 58  1  0
 58 59  2  0
 59 60  1  0
 60 61  2  0
 61 62  1  0
 62 63  2  3
 63 64  1  0
 64 65  3  0
 63 66  1  0
 66 67  3  0
 10  2  1  0
 46 16  1  0
 62 52  1  0
  9  5  1  0
 45 20  2  0
 61 55  1  0
 44 22  2  0
 42 23  2  0
 28 24  2  0
 41 29  2  0
 39 30  2  0
 38 32  2  0
  1 68  1  0
  6 69  1  0
  8 70  1  0
 18 71  1  0
 18 72  1  0
 19 73  1  0
 19 74  1  0
 19 75  1  0
 34 76  1  0
 34 77  1  0
 35 78  1  0
 35 79  1  0
 35 80  1  0
 47 81  1  0
 47 82  1  0
 48 83  1  0
 48 84  1  0
 48 85  1  0
 49 86  1  0
 49 87  1  0
 50 88  1  0
 50 89  1  0
 50 90  1  0
 51 91  1  0
 58 92  1  0
 59 93  1  0
 60 94  1  0
M  END

