
     RDKit          3D

110125  0  0  0  0  0  0  0  0999 V2000
   -9.5457    1.3933   -3.8723 C   0  0  0  0  0  0  0  0  0  0  0  0
  -10.3480    1.1275   -4.9301 C   0  0  0  0  0  0  0  0  0  0  0  0
  -11.7501    0.7263   -4.7173 C   0  0  0  0  0  0  0  0  0  0  0  0
  -12.3664    0.7001   -3.6167 O   0  0  0  0  0  0  0  0  0  0  0  0
  -12.2892    0.3059   -5.9840 C   0  0  0  0  0  0  0  0  0  0  0  0
  -13.5399   -0.1397   -6.3690 C   0  0  0  0  0  0  0  0  0  0  0  0
  -13.4334   -0.3192   -8.0470 S   0  0  0  0  0  0  0  0  0  0  0  0
  -11.8234    0.1570   -8.2532 C   0  0  0  0  0  0  0  0  0  0  0  0
  -11.3479    0.4516   -6.9721 C   0  0  0  0  0  0  0  0  0  0  0  0
  -10.0822    1.0106   -6.4178 C   0  0  0  0  0  0  0  0  0  0  0  0
   -9.0753    1.5350   -7.1656 C   0  0  0  0  0  0  0  0  0  0  0  0
   -9.0113    1.3464   -8.5899 C   0  0  0  0  0  0  0  0  0  0  0  0
   -8.9488    1.2031   -9.7362 N   0  0  0  0  0  0  0  0  0  0  0  0
   -8.0741    2.4234   -6.6487 C   0  0  0  0  0  0  0  0  0  0  0  0
   -7.2533    3.1484   -6.2789 N   0  0  0  0  0  0  0  0  0  0  0  0
   -8.0868    1.4969   -3.8725 C   0  0  0  0  0  0  0  0  0  0  0  0
   -7.0225    0.1777   -3.9825 S   0  0  0  0  0  0  0  0  0  0  0  0
   -5.6726    1.0255   -3.4326 C   0  0  0  0  0  0  0  0  0  0  0  0
   -4.3664    0.5779   -3.1613 C   0  0  0  0  0  0  0  0  0  0  0  0
   -3.7681   -1.0025   -3.3334 S   0  0  0  0  0  0  0  0  0  0  0  0
   -2.2873   -0.5559   -2.6792 C   0  0  0  0  0  0  0  0  0  0  0  0
   -1.1280   -1.1745   -2.3465 C   0  0  0  0  0  0  0  0  0  0  0  0
   -0.7539   -2.4969   -2.5645 C   0  0  0  0  0  0  0  0  0  0  0  0
    0.5190   -2.9223   -2.1303 C   0  0  0  0  0  0  0  0  0  0  0  0
    0.8473   -4.2197   -2.3544 N   0  0  0  0  0  0  0  0  0  0  0  0
   -0.5312   -4.7323   -3.1113 S   0  0  0  0  0  0  0  0  0  0  0  0
   -1.5371   -3.4204   -3.1783 N   0  0  0  0  0  0  0  0  0  0  0  0
    1.3479   -2.0070   -1.4828 C   0  0  0  0  0  0  0  0  0  0  0  0
    2.5176   -2.2479   -0.8387 C   0  0  0  0  0  0  0  0  0  0  0  0
    3.3356   -3.6347   -0.3506 S   0  0  0  0  0  0  0  0  0  0  0  0
    4.2557   -2.7534    0.7686 C   0  0  0  0  0  0  0  0  0  0  0  0
    5.1619   -3.2733    1.7067 C   0  0  0  0  0  0  0  0  0  0  0  0
    5.7630   -2.4441    2.6479 C   0  0  0  0  0  0  0  0  0  0  0  0
    5.4930   -1.0804    2.5970 C   0  0  0  0  0  0  0  0  0  0  0  0
    6.0413   -0.0932    3.3188 N   0  0  0  0  0  0  0  0  0  0  0  0
    5.4966    1.0162    2.8326 N   0  0  0  0  0  0  0  0  0  0  0  0
    5.8795    2.3509    3.2743 C   0  0  0  0  0  0  0  0  0  0  0  0
    7.1795    2.7743    2.5982 C   0  0  0  0  0  0  0  0  0  0  0  0
    4.6437    0.7860    1.8375 N   0  0  0  0  0  0  0  0  0  0  0  0
    4.6116   -0.5468    1.6879 C   0  0  0  0  0  0  0  0  0  0  0  0
    3.9157   -1.3708    0.7662 C   0  0  0  0  0  0  0  0  0  0  0  0
    2.8748   -1.1299   -0.1722 C   0  0  0  0  0  0  0  0  0  0  0  0
    1.9607   -0.1280   -0.3663 N   0  0  0  0  0  0  0  0  0  0  0  0
    0.9889   -0.6649   -1.2081 C   0  0  0  0  0  0  0  0  0  0  0  0
   -0.3130   -0.2119   -1.7035 C   0  0  0  0  0  0  0  0  0  0  0  0
   -1.0002    1.0020   -1.7115 N   0  0  0  0  0  0  0  0  0  0  0  0
   -2.2019    0.7377   -2.3167 C   0  0  0  0  0  0  0  0  0  0  0  0
   -3.3921    1.4559   -2.6076 C   0  0  0  0  0  0  0  0  0  0  0  0
   -3.7856    2.8046   -2.4245 C   0  0  0  0  0  0  0  0  0  0  0  0
   -5.0765    3.2129   -2.6725 C   0  0  0  0  0  0  0  0  0  0  0  0
   -6.0481    2.3366   -3.1505 C   0  0  0  0  0  0  0  0  0  0  0  0
   -7.4028    2.6020   -3.3586 C   0  0  0  0  0  0  0  0  0  0  0  0
   -5.1812    4.5274   -2.4280 N   0  0  0  0  0  0  0  0  0  0  0  0
   -3.9592    4.8966   -2.0599 N   0  0  0  0  0  0  0  0  0  0  0  0
   -3.6132    6.2592   -1.6773 C   0  0  0  0  0  0  0  0  0  0  0  0
   -3.6350    6.3995   -0.1617 C   0  0  0  0  0  0  0  0  0  0  0  0
   -3.0927    3.8869   -2.0415 N   0  0  0  0  0  0  0  0  0  0  0  0
   -0.5802    2.3388   -1.3024 C   0  0  0  0  0  0  0  0  0  0  0  0
   -1.1829    2.7083    0.0643 C   0  0  0  0  0  0  0  0  0  0  0  0
    2.0150    1.1388    0.3551 C   0  0  0  0  0  0  0  0  0  0  0  0
    2.9783    2.1145   -0.3327 C   0  0  0  0  0  0  0  0  0  0  0  0
    6.5622   -3.1087    3.5737 C   0  0  0  0  0  0  0  0  0  0  0  0
    6.5696   -4.4901    3.3611 C   0  0  0  0  0  0  0  0  0  0  0  0
    5.6344   -4.8658    1.9953 S   0  0  0  0  0  0  0  0  0  0  0  0
    7.2733   -5.4717    4.1986 C   0  0  0  0  0  0  0  0  0  0  0  0
    7.3366   -5.3819    5.5410 C   0  0  0  0  0  0  0  0  0  0  0  0
    8.4643   -5.8917    6.3183 C   0  0  0  0  0  0  0  0  0  0  0  0
    9.3142   -6.7387    5.9330 O   0  0  0  0  0  0  0  0  0  0  0  0
    8.5102   -5.1630    7.5740 C   0  0  0  0  0  0  0  0  0  0  0  0
    9.4949   -5.1954    8.5632 C   0  0  0  0  0  0  0  0  0  0  0  0
    9.3823   -4.3114    9.6458 C   0  0  0  0  0  0  0  0  0  0  0  0
    8.3124   -3.3962    9.7062 C   0  0  0  0  0  0  0  0  0  0  0  0
    8.1844   -2.0360   11.3141 I   0  0  0  0  0  0  0  0  0  0  0  0
    7.3351   -3.3760    8.6976 C   0  0  0  0  0  0  0  0  0  0  0  0
    7.4341   -4.2935    7.6414 C   0  0  0  0  0  0  0  0  0  0  0  0
    6.5659   -4.4879    6.4531 C   0  0  0  0  0  0  0  0  0  0  0  0
    5.2303   -4.2513    6.3952 C   0  0  0  0  0  0  0  0  0  0  0  0
    4.3924   -4.8869    5.4125 C   0  0  0  0  0  0  0  0  0  0  0  0
    3.7070   -5.4036    4.6343 N   0  0  0  0  0  0  0  0  0  0  0  0
    4.5304   -3.5055    7.4092 C   0  0  0  0  0  0  0  0  0  0  0  0
    3.9470   -2.9144    8.2170 N   0  0  0  0  0  0  0  0  0  0  0  0
  -10.0008    1.4653   -2.8868 H   0  0  0  0  0  0  0  0  0  0  0  0
  -14.4028   -0.3064   -5.7386 H   0  0  0  0  0  0  0  0  0  0  0  0
  -11.3050    0.2212   -9.1975 H   0  0  0  0  0  0  0  0  0  0  0  0
    5.0733    3.0795    3.0335 H   0  0  0  0  0  0  0  0  0  0  0  0
    6.0230    2.3422    4.3779 H   0  0  0  0  0  0  0  0  0  0  0  0
    7.9554    1.9898    2.7313 H   0  0  0  0  0  0  0  0  0  0  0  0
    7.0067    2.9342    1.5142 H   0  0  0  0  0  0  0  0  0  0  0  0
    7.5456    3.7173    3.0498 H   0  0  0  0  0  0  0  0  0  0  0  0
   -7.8778    3.5455   -3.1150 H   0  0  0  0  0  0  0  0  0  0  0  0
   -4.3358    6.9731   -2.1297 H   0  0  0  0  0  0  0  0  0  0  0  0
   -2.5976    6.5061   -2.0606 H   0  0  0  0  0  0  0  0  0  0  0  0
   -3.4241    7.4547    0.1210 H   0  0  0  0  0  0  0  0  0  0  0  0
   -4.6355    6.1177    0.2309 H   0  0  0  0  0  0  0  0  0  0  0  0
   -2.8575    5.7518    0.2890 H   0  0  0  0  0  0  0  0  0  0  0  0
   -0.8708    3.0748   -2.0713 H   0  0  0  0  0  0  0  0  0  0  0  0
    0.5073    2.4275   -1.3307 H   0  0  0  0  0  0  0  0  0  0  0  0
   -2.2754    2.8677    0.0088 H   0  0  0  0  0  0  0  0  0  0  0  0
   -1.0454    1.8976    0.8115 H   0  0  0  0  0  0  0  0  0  0  0  0
   -0.7085    3.6378    0.4400 H   0  0  0  0  0  0  0  0  0  0  0  0
    2.3178    0.9623    1.4014 H   0  0  0  0  0  0  0  0  0  0  0  0
    1.0298    1.5531    0.5086 H   0  0  0  0  0  0  0  0  0  0  0  0
    2.6560    2.3391   -1.3669 H   0  0  0  0  0  0  0  0  0  0  0  0
    3.0320    3.0590    0.2487 H   0  0  0  0  0  0  0  0  0  0  0  0
    3.9913    1.6761   -0.4087 H   0  0  0  0  0  0  0  0  0  0  0  0
    7.0944   -2.6124    4.3781 H   0  0  0  0  0  0  0  0  0  0  0  0
    7.8956   -6.1954    3.6886 H   0  0  0  0  0  0  0  0  0  0  0  0
   10.3427   -5.8669    8.4868 H   0  0  0  0  0  0  0  0  0  0  0  0
   10.1345   -4.3160   10.4207 H   0  0  0  0  0  0  0  0  0  0  0  0
    6.5461   -2.6411    8.7428 H   0  0  0  0  0  0  0  0  0  0  0  0
  1  2  2  3
  2  3  1  0
  3  4  2  0
  3  5  1  0
  5  6  2  0
  6  7  1  0
  7  8  1  0
  8  9  2  0
  9 10  1  0
 10 11  2  3
 11 12  1  0
 12 13  3  0
 11 14  1  0
 14 15  3  0
  1 16  1  0
 16 17  1  0
 17 18  1  0
 18 19  1  0
 19 20  1  0
 20 21  1  0
 21 22  1  0
 22 23  1  0
 23 24  1  0
 24 25  2  0
 25 26  1  0
 26 27  1  0
 24 28  1  0
 28 29  1  0
 29 30  1  0
 30 31  1  0
 31 32  1  0
 32 33  2  0
 33 34  1  0
 34 35  2  0
 35 36  1  0
 36 37  1  0
 37 38  1  0
 36 39  1  0
 39 40  2  0
 40 41  1  0
 41 42  1  0
 42 43  1  0
 43 44  1  0
 44 45  1  0
 45 46  1  0
 46 47  1  0
 47 48  1  0
 48 49  1  0
 49 50  1  0
 50 51  1  0
 51 52  1  0
 50 53  2  0
 53 54  1  0
 54 55  1  0
 55 56  1  0
 54 57  1  0
 46 58  1  0
 58 59  1  0
 43 60  1  0
 60 61  1  0
 33 62  1  0
 62 63  2  0
 63 64  1  0
 63 65  1  0
 65 66  2  3
 66 67  1  0
 67 68  2  0
 67 69  1  0
 69 70  2  0
 70 71  1  0
 71 72  2  0
 72 73  1  0
 72 74  1  0
 74 75  2  0
 75 76  1  0
 76 77  2  3
 77 78  1  0
 78 79  3  0
 77 80  1  0
 80 81  3  0
 10  2  1  0
 52 16  2  0
 76 66  1  0
  9  5  1  0
 51 18  2  0
 75 69  1  0
 48 19  2  0
 57 49  2  0
 47 21  2  0
 45 22  2  0
 27 23  2  0
 44 28  2  0
 42 29  2  0
 41 31  2  0
 64 32  1  0
 40 34  1  0
  1 82  1  0
  6 83  1  0
  8 84  1  0
 37 85  1  0
 37 86  1  0
 38 87  1  0
 38 88  1  0
 38 89  1  0
 52 90  1  0
 55 91  1  0
 55 92  1  0
 56 93  1  0
 56 94  1  0
 56 95  1  0
 58 96  1  0
 58 97  1  0
 59 98  1  0
 59 99  1  0
 59100  1  0
 60101  1  0
 60102  1  0
 61103  1  0
 61104  1  0
 61105  1  0
 62106  1  0
 65107  1  0
 70108  1  0
 71109  1  0
 74110  1  0
M  END

