
     RDKit          3D

119133  0  0  0  0  0  0  0  0999 V2000
    7.4635  -11.5557    2.9891 C   0  0  0  0  0  0  0  0  0  0  0  0
    6.0569  -11.6524    2.4087 C   0  0  0  0  0  0  0  0  0  0  0  0
    5.4960  -10.3094    2.1967 N   0  0  0  0  0  0  0  0  0  0  0  0
    4.7747   -9.6427    3.2480 C   0  0  0  0  0  0  0  0  0  0  0  0
    4.6085  -10.2135    4.3599 O   0  0  0  0  0  0  0  0  0  0  0  0
    4.2256   -8.2844    3.0246 C   0  0  0  0  0  0  0  0  0  0  0  0
    3.4888   -7.6489    4.0330 C   0  0  0  0  0  0  0  0  0  0  0  0
    2.9676   -6.3744    3.8351 C   0  0  0  0  0  0  0  0  0  0  0  0
    3.1643   -5.6922    2.6286 C   0  0  0  0  0  0  0  0  0  0  0  0
    3.9203   -6.3078    1.5980 C   0  0  0  0  0  0  0  0  0  0  0  0
    4.2008   -5.6402    0.3882 C   0  0  0  0  0  0  0  0  0  0  0  0
    4.9490   -6.2597   -0.6098 C   0  0  0  0  0  0  0  0  0  0  0  0
    5.4387   -7.5487   -0.4252 C   0  0  0  0  0  0  0  0  0  0  0  0
    5.2002   -8.2374    0.7742 C   0  0  0  0  0  0  0  0  0  0  0  0
    4.4467   -7.6182    1.7986 C   0  0  0  0  0  0  0  0  0  0  0  0
    5.7413   -9.6045    0.9657 C   0  0  0  0  0  0  0  0  0  0  0  0
    6.4245  -10.1464    0.0515 O   0  0  0  0  0  0  0  0  0  0  0  0
    2.5505   -4.3507    2.4875 C   0  0  0  0  0  0  0  0  0  0  0  0
    2.7021   -3.2819    3.3905 C   0  0  0  0  0  0  0  0  0  0  0  0
    3.6270   -3.2584    4.5417 C   0  0  0  0  0  0  0  0  0  0  0  0
    3.0833   -3.2790    5.8354 C   0  0  0  0  0  0  0  0  0  0  0  0
    3.9156   -3.2339    6.9550 C   0  0  0  0  0  0  0  0  0  0  0  0
    5.2989   -3.1561    6.7951 C   0  0  0  0  0  0  0  0  0  0  0  0
    5.8555   -3.1228    5.5150 C   0  0  0  0  0  0  0  0  0  0  0  0
    5.0341   -3.1799    4.3741 C   0  0  0  0  0  0  0  0  0  0  0  0
    5.6772   -3.0519    3.0106 C   0  0  0  0  0  0  0  0  0  0  0  0
    5.6624   -1.6037    2.5323 C   0  0  0  0  0  0  0  0  0  0  0  0
    1.8719   -2.2161    3.0513 C   0  0  0  0  0  0  0  0  0  0  0  0
    1.7052   -0.6415    3.6726 S   0  0  0  0  0  0  0  0  0  0  0  0
    0.5677   -0.2629    2.4733 C   0  0  0  0  0  0  0  0  0  0  0  0
    0.0944    0.8773    1.8970 C   0  0  0  0  0  0  0  0  0  0  0  0
    0.3617    2.2201    2.1968 C   0  0  0  0  0  0  0  0  0  0  0  0
    0.0053    3.2183    1.2451 C   0  0  0  0  0  0  0  0  0  0  0  0
    0.2949    4.5051    1.5608 N   0  0  0  0  0  0  0  0  0  0  0  0
    1.0126    4.2741    3.0363 S   0  0  0  0  0  0  0  0  0  0  0  0
    0.9851    2.6418    3.3251 N   0  0  0  0  0  0  0  0  0  0  0  0
   -0.6206    2.8198    0.0619 C   0  0  0  0  0  0  0  0  0  0  0  0
   -1.1736    3.5436   -0.9533 C   0  0  0  0  0  0  0  0  0  0  0  0
   -1.4510    5.1685   -1.3573 S   0  0  0  0  0  0  0  0  0  0  0  0
   -2.4985    4.6889   -2.6165 C   0  0  0  0  0  0  0  0  0  0  0  0
   -3.2522    5.3950   -3.5498 C   0  0  0  0  0  0  0  0  0  0  0  0
   -3.2371    6.8629   -3.6855 C   0  0  0  0  0  0  0  0  0  0  0  0
   -3.9013    7.7103   -2.7629 C   0  0  0  0  0  0  0  0  0  0  0  0
   -4.7643    7.1733   -1.6390 C   0  0  0  0  0  0  0  0  0  0  0  0
   -6.2401    7.2168   -2.0279 C   0  0  0  0  0  0  0  0  0  0  0  0
   -3.8289    9.1049   -2.9407 C   0  0  0  0  0  0  0  0  0  0  0  0
   -3.1089    9.6492   -4.0048 C   0  0  0  0  0  0  0  0  0  0  0  0
   -2.4646    8.8114   -4.9144 C   0  0  0  0  0  0  0  0  0  0  0  0
   -2.5262    7.4256   -4.7570 C   0  0  0  0  0  0  0  0  0  0  0  0
   -4.0019    4.5207   -4.3515 C   0  0  0  0  0  0  0  0  0  0  0  0
   -3.7137    2.8981   -3.8928 S   0  0  0  0  0  0  0  0  0  0  0  0
   -2.6389    3.3267   -2.6758 C   0  0  0  0  0  0  0  0  0  0  0  0
   -1.8603    2.6734   -1.7324 C   0  0  0  0  0  0  0  0  0  0  0  0
   -1.7968    1.3948   -1.2838 N   0  0  0  0  0  0  0  0  0  0  0  0
   -0.9484    1.4800   -0.2069 C   0  0  0  0  0  0  0  0  0  0  0  0
   -0.4912    0.4730    0.6833 C   0  0  0  0  0  0  0  0  0  0  0  0
   -0.2717   -0.8678    0.4619 N   0  0  0  0  0  0  0  0  0  0  0  0
    0.3515   -1.2797    1.5986 C   0  0  0  0  0  0  0  0  0  0  0  0
    1.1096   -2.4009    1.9258 C   0  0  0  0  0  0  0  0  0  0  0  0
    1.4109   -3.9232    1.2872 S   0  0  0  0  0  0  0  0  0  0  0  0
   -0.1677   -1.5503   -0.8350 C   0  0  0  0  0  0  0  0  0  0  0  0
   -1.1040   -2.7612   -0.9074 C   0  0  0  0  0  0  0  0  0  0  0  0
   -2.8466    0.3962   -1.5132 C   0  0  0  0  0  0  0  0  0  0  0  0
   -4.1520    0.8040   -0.8364 C   0  0  0  0  0  0  0  0  0  0  0  0
   -4.8337    4.9336   -5.4885 C   0  0  0  0  0  0  0  0  0  0  0  0
   -6.1648    4.7932   -5.5141 C   0  0  0  0  0  0  0  0  0  0  0  0
   -7.0468    5.2840   -6.5792 C   0  0  0  0  0  0  0  0  0  0  0  0
   -6.6809    5.8169   -7.6606 O   0  0  0  0  0  0  0  0  0  0  0  0
   -8.4271    5.0775   -6.1592 C   0  0  0  0  0  0  0  0  0  0  0  0
   -9.6121    5.4163   -6.8125 C   0  0  0  0  0  0  0  0  0  0  0  0
  -10.8293    5.1427   -6.1657 C   0  0  0  0  0  0  0  0  0  0  0  0
  -10.8404    4.5495   -4.8851 C   0  0  0  0  0  0  0  0  0  0  0  0
   -9.6333    4.2172   -4.2435 C   0  0  0  0  0  0  0  0  0  0  0  0
   -8.4370    4.4877   -4.9088 C   0  0  0  0  0  0  0  0  0  0  0  0
   -7.0610    4.2788   -4.4670 C   0  0  0  0  0  0  0  0  0  0  0  0
   -6.7168    3.7878   -3.3605 O   0  0  0  0  0  0  0  0  0  0  0  0
    7.9163  -12.5665    3.0444 H   0  0  0  0  0  0  0  0  0  0  0  0
    7.4272  -11.1240    4.0108 H   0  0  0  0  0  0  0  0  0  0  0  0
    8.1044  -10.9150    2.3477 H   0  0  0  0  0  0  0  0  0  0  0  0
    6.0933  -12.2118    1.4495 H   0  0  0  0  0  0  0  0  0  0  0  0
    5.4137  -12.2420    3.0966 H   0  0  0  0  0  0  0  0  0  0  0  0
    3.3068   -8.1438    4.9803 H   0  0  0  0  0  0  0  0  0  0  0  0
    2.3836   -5.9266    4.6291 H   0  0  0  0  0  0  0  0  0  0  0  0
    3.8669   -4.6296    0.2088 H   0  0  0  0  0  0  0  0  0  0  0  0
    5.1559   -5.7348   -1.5335 H   0  0  0  0  0  0  0  0  0  0  0  0
    6.0158   -8.0048   -1.2208 H   0  0  0  0  0  0  0  0  0  0  0  0
    2.0102   -3.3316    5.9763 H   0  0  0  0  0  0  0  0  0  0  0  0
    3.4868   -3.2513    7.9473 H   0  0  0  0  0  0  0  0  0  0  0  0
    5.9398   -3.1088    7.6641 H   0  0  0  0  0  0  0  0  0  0  0  0
    6.9293   -3.0343    5.4116 H   0  0  0  0  0  0  0  0  0  0  0  0
    6.7297   -3.4082    3.0484 H   0  0  0  0  0  0  0  0  0  0  0  0
    5.1604   -3.6881    2.2691 H   0  0  0  0  0  0  0  0  0  0  0  0
    6.0885   -1.5513    1.5095 H   0  0  0  0  0  0  0  0  0  0  0  0
    4.6241   -1.2117    2.4989 H   0  0  0  0  0  0  0  0  0  0  0  0
    6.2719   -0.9682    3.2119 H   0  0  0  0  0  0  0  0  0  0  0  0
   -4.6098    7.7915   -0.7274 H   0  0  0  0  0  0  0  0  0  0  0  0
   -4.4904    6.1332   -1.3689 H   0  0  0  0  0  0  0  0  0  0  0  0
   -6.5389    8.2502   -2.2972 H   0  0  0  0  0  0  0  0  0  0  0  0
   -6.8619    6.8839   -1.1739 H   0  0  0  0  0  0  0  0  0  0  0  0
   -6.4255    6.5535   -2.8994 H   0  0  0  0  0  0  0  0  0  0  0  0
   -4.3399    9.7705   -2.2539 H   0  0  0  0  0  0  0  0  0  0  0  0
   -3.0631   10.7225   -4.1323 H   0  0  0  0  0  0  0  0  0  0  0  0
   -1.9127    9.2381   -5.7414 H   0  0  0  0  0  0  0  0  0  0  0  0
   -2.0114    6.7894   -5.4669 H   0  0  0  0  0  0  0  0  0  0  0  0
    0.8800   -1.8797   -1.0034 H   0  0  0  0  0  0  0  0  0  0  0  0
   -0.3952   -0.8521   -1.6675 H   0  0  0  0  0  0  0  0  0  0  0  0
   -1.9878   -2.6294   -0.2485 H   0  0  0  0  0  0  0  0  0  0  0  0
   -1.4561   -2.9024   -1.9519 H   0  0  0  0  0  0  0  0  0  0  0  0
   -0.5781   -3.6849   -0.6040 H   0  0  0  0  0  0  0  0  0  0  0  0
   -3.0105    0.2665   -2.6032 H   0  0  0  0  0  0  0  0  0  0  0  0
   -2.5656   -0.5757   -1.0912 H   0  0  0  0  0  0  0  0  0  0  0  0
   -4.9138    0.0102   -0.9968 H   0  0  0  0  0  0  0  0  0  0  0  0
   -4.5397    1.7553   -1.2536 H   0  0  0  0  0  0  0  0  0  0  0  0
   -3.9907    0.9267    0.2560 H   0  0  0  0  0  0  0  0  0  0  0  0
   -4.3458    5.4531   -6.3049 H   0  0  0  0  0  0  0  0  0  0  0  0
   -9.5972    5.8834   -7.7890 H   0  0  0  0  0  0  0  0  0  0  0  0
  -11.7651    5.3971   -6.6489 H   0  0  0  0  0  0  0  0  0  0  0  0
  -11.7843    4.3532   -4.3929 H   0  0  0  0  0  0  0  0  0  0  0  0
   -9.6365    3.7710   -3.2574 H   0  0  0  0  0  0  0  0  0  0  0  0
  1  2  1  0
  2  3  1  0
  3  4  1  0
  4  5  2  0
  4  6  1  0
  6  7  1  0
  7  8  2  0
  8  9  1  0
  9 10  2  0
 10 11  1  0
 11 12  2  0
 12 13  1  0
 13 14  2  0
 14 15  1  0
 14 16  1  0
 16 17  2  0
  9 18  1  0
 18 19  2  0
 19 20  1  0
 20 21  2  0
 21 22  1  0
 22 23  2  0
 23 24  1  0
 24 25  2  0
 25 26  1  0
 26 27  1  0
 19 28  1  0
 28 29  1  0
 29 30  1  0
 30 31  1  0
 31 32  1  0
 32 33  1  0
 33 34  2  0
 34 35  1  0
 35 36  1  0
 33 37  1  0
 37 38  1  0
 38 39  1  0
 39 40  1  0
 40 41  1  0
 41 42  1  0
 42 43  2  0
 43 44  1  0
 44 45  1  0
 43 46  1  0
 46 47  2  0
 47 48  1  0
 48 49  2  0
 41 50  2  0
 50 51  1  0
 51 52  1  0
 52 53  1  0
 53 54  1  0
 54 55  1  0
 55 56  1  0
 56 57  1  0
 57 58  1  0
 58 59  1  0
 59 60  1  0
 57 61  1  0
 61 62  1  0
 54 63  1  0
 63 64  1  0
 50 65  1  0
 65 66  2  3
 66 67  1  0
 67 68  2  0
 67 69  1  0
 69 70  2  0
 70 71  1  0
 71 72  2  0
 72 73  1  0
 73 74  2  0
 74 75  1  0
 75 76  2  0
 16  3  1  0
 60 18  1  0
 75 66  1  0
 15  6  2  0
 25 20  1  0
 59 28  2  0
 74 69  1  0
 15 10  1  0
 58 30  2  0
 56 31  2  0
 36 32  2  0
 55 37  2  0
 53 38  2  0
 52 40  2  0
 49 42  1  0
  1 77  1  0
  1 78  1  0
  1 79  1  0
  2 80  1  0
  2 81  1  0
  7 82  1  0
  8 83  1  0
 11 84  1  0
 12 85  1  0
 13 86  1  0
 21 87  1  0
 22 88  1  0
 23 89  1  0
 24 90  1  0
 26 91  1  0
 26 92  1  0
 27 93  1  0
 27 94  1  0
 27 95  1  0
 44 96  1  0
 44 97  1  0
 45 98  1  0
 45 99  1  0
 45100  1  0
 46101  1  0
 47102  1  0
 48103  1  0
 49104  1  0
 61105  1  0
 61106  1  0
 62107  1  0
 62108  1  0
 62109  1  0
 63110  1  0
 63111  1  0
 64112  1  0
 64113  1  0
 64114  1  0
 65115  1  0
 70116  1  0
 71117  1  0
 72118  1  0
 73119  1  0
M  END

