
     RDKit          3D

123137  0  0  0  0  0  0  0  0999 V2000
   -7.8234   -2.3502   -9.5068 C   0  0  0  0  0  0  0  0  0  0  0  0
   -7.2150   -3.7469   -9.4602 C   0  0  0  0  0  0  0  0  0  0  0  0
   -6.1081   -3.7907   -8.4898 N   0  0  0  0  0  0  0  0  0  0  0  0
   -6.3690   -4.0618   -7.1010 C   0  0  0  0  0  0  0  0  0  0  0  0
   -7.5375   -4.3565   -6.7233 O   0  0  0  0  0  0  0  0  0  0  0  0
   -5.2729   -3.9741   -6.1093 C   0  0  0  0  0  0  0  0  0  0  0  0
   -5.5276   -4.2270   -4.7536 C   0  0  0  0  0  0  0  0  0  0  0  0
   -4.5183   -4.0954   -3.8053 C   0  0  0  0  0  0  0  0  0  0  0  0
   -3.2241   -3.7140   -4.1812 C   0  0  0  0  0  0  0  0  0  0  0  0
   -2.9334   -3.5012   -5.5526 C   0  0  0  0  0  0  0  0  0  0  0  0
   -1.6244   -3.2026   -5.9853 C   0  0  0  0  0  0  0  0  0  0  0  0
   -1.3548   -2.9819   -7.3334 C   0  0  0  0  0  0  0  0  0  0  0  0
   -2.3766   -3.0530   -8.2753 C   0  0  0  0  0  0  0  0  0  0  0  0
   -3.6899   -3.3656   -7.8834 C   0  0  0  0  0  0  0  0  0  0  0  0
   -3.9710   -3.6147   -6.5202 C   0  0  0  0  0  0  0  0  0  0  0  0
   -4.7724   -3.4328   -8.8928 C   0  0  0  0  0  0  0  0  0  0  0  0
   -4.5269   -3.1633  -10.0995 O   0  0  0  0  0  0  0  0  0  0  0  0
   -2.2327   -3.4409   -3.1167 C   0  0  0  0  0  0  0  0  0  0  0  0
   -1.7250   -4.3660   -2.1814 C   0  0  0  0  0  0  0  0  0  0  0  0
   -2.0238   -5.8169   -2.1959 C   0  0  0  0  0  0  0  0  0  0  0  0
   -1.7475   -6.5304   -3.3765 C   0  0  0  0  0  0  0  0  0  0  0  0
   -2.0109   -7.8967   -3.4621 C   0  0  0  0  0  0  0  0  0  0  0  0
   -2.5580   -8.5701   -2.3728 C   0  0  0  0  0  0  0  0  0  0  0  0
   -2.8576   -7.8788   -1.1987 C   0  0  0  0  0  0  0  0  0  0  0  0
   -2.5983   -6.4994   -1.0864 C   0  0  0  0  0  0  0  0  0  0  0  0
   -3.0013   -5.8000    0.1987 C   0  0  0  0  0  0  0  0  0  0  0  0
   -4.2560   -4.9511    0.0177 C   0  0  0  0  0  0  0  0  0  0  0  0
   -0.7980   -3.7483   -1.3336 C   0  0  0  0  0  0  0  0  0  0  0  0
    0.2749   -4.3204   -0.1283 S   0  0  0  0  0  0  0  0  0  0  0  0
    0.8627   -2.7471    0.1315 C   0  0  0  0  0  0  0  0  0  0  0  0
    1.8929   -2.1301    0.7785 C   0  0  0  0  0  0  0  0  0  0  0  0
    2.9106   -2.6282    1.6015 C   0  0  0  0  0  0  0  0  0  0  0  0
    3.9459   -1.7373    2.0196 C   0  0  0  0  0  0  0  0  0  0  0  0
    4.8924   -2.2459    2.8477 N   0  0  0  0  0  0  0  0  0  0  0  0
    4.3421   -3.8013    2.9801 S   0  0  0  0  0  0  0  0  0  0  0  0
    2.9658   -3.8998    2.0623 N   0  0  0  0  0  0  0  0  0  0  0  0
    3.9017   -0.4012    1.5993 C   0  0  0  0  0  0  0  0  0  0  0  0
    4.5628    0.7020    2.0716 C   0  0  0  0  0  0  0  0  0  0  0  0
    5.5523    1.0347    3.4144 S   0  0  0  0  0  0  0  0  0  0  0  0
    5.0818    2.6722    3.3989 C   0  0  0  0  0  0  0  0  0  0  0  0
    5.2906    3.7364    4.2780 C   0  0  0  0  0  0  0  0  0  0  0  0
    6.2032    3.6928    5.4354 C   0  0  0  0  0  0  0  0  0  0  0  0
    5.7256    3.5522    6.7628 C   0  0  0  0  0  0  0  0  0  0  0  0
    4.2632    3.3090    7.0689 C   0  0  0  0  0  0  0  0  0  0  0  0
    3.9213    1.8260    6.9478 C   0  0  0  0  0  0  0  0  0  0  0  0
    6.6474    3.5649    7.8242 C   0  0  0  0  0  0  0  0  0  0  0  0
    8.0103    3.7593    7.5805 C   0  0  0  0  0  0  0  0  0  0  0  0
    8.4762    3.9117    6.2730 C   0  0  0  0  0  0  0  0  0  0  0  0
    7.5769    3.8703    5.2040 C   0  0  0  0  0  0  0  0  0  0  0  0
    4.4858    4.8408    3.9420 C   0  0  0  0  0  0  0  0  0  0  0  0
    3.5751    4.4779    2.5425 S   0  0  0  0  0  0  0  0  0  0  0  0
    4.1663    2.9165    2.4106 C   0  0  0  0  0  0  0  0  0  0  0  0
    3.8645    1.7928    1.6515 C   0  0  0  0  0  0  0  0  0  0  0  0
    2.7634    1.4651    0.9265 N   0  0  0  0  0  0  0  0  0  0  0  0
    2.8416    0.0996    0.8233 C   0  0  0  0  0  0  0  0  0  0  0  0
    1.8730   -0.8051    0.3263 C   0  0  0  0  0  0  0  0  0  0  0  0
    0.9320   -0.6243   -0.6601 N   0  0  0  0  0  0  0  0  0  0  0  0
    0.3103   -1.8327   -0.7045 C   0  0  0  0  0  0  0  0  0  0  0  0
   -0.6195   -2.4062   -1.5576 C   0  0  0  0  0  0  0  0  0  0  0  0
   -1.5657   -1.8974   -2.8389 S   0  0  0  0  0  0  0  0  0  0  0  0
    1.0574    0.2723   -1.8206 C   0  0  0  0  0  0  0  0  0  0  0  0
   -0.2397    1.0334   -2.1122 C   0  0  0  0  0  0  0  0  0  0  0  0
    1.5268    2.2615    0.9242 C   0  0  0  0  0  0  0  0  0  0  0  0
    0.7915    2.1346    2.2584 C   0  0  0  0  0  0  0  0  0  0  0  0
    4.5445    6.1572    4.6067 C   0  0  0  0  0  0  0  0  0  0  0  0
    3.4910    6.9809    4.7654 C   0  0  0  0  0  0  0  0  0  0  0  0
    2.0732    6.6080    4.7048 C   0  0  0  0  0  0  0  0  0  0  0  0
    1.6197    5.4574    4.4673 O   0  0  0  0  0  0  0  0  0  0  0  0
    1.2771    7.7306    5.1809 C   0  0  0  0  0  0  0  0  0  0  0  0
   -0.1064    7.7984    5.3839 C   0  0  0  0  0  0  0  0  0  0  0  0
   -1.1646    6.4879    4.8563 Cl  0  0  0  0  0  0  0  0  0  0  0  0
   -0.6346    8.9380    6.0231 C   0  0  0  0  0  0  0  0  0  0  0  0
   -2.3778    9.0994    6.2365 Cl  0  0  0  0  0  0  0  0  0  0  0  0
    0.2347    9.9245    6.5434 C   0  0  0  0  0  0  0  0  0  0  0  0
   -0.4245   11.2813    7.4594 Cl  0  0  0  0  0  0  0  0  0  0  0  0
    1.6307    9.8136    6.3639 C   0  0  0  0  0  0  0  0  0  0  0  0
    2.7049   10.8209    7.3331 Cl  0  0  0  0  0  0  0  0  0  0  0  0
    2.1261    8.7500    5.5757 C   0  0  0  0  0  0  0  0  0  0  0  0
    3.5253    8.4132    5.1884 C   0  0  0  0  0  0  0  0  0  0  0  0
    4.4822    9.3053    4.8270 C   0  0  0  0  0  0  0  0  0  0  0  0
    5.7695    8.9037    4.3127 C   0  0  0  0  0  0  0  0  0  0  0  0
    6.8061    8.5909    3.9014 N   0  0  0  0  0  0  0  0  0  0  0  0
    4.2025   10.7133    4.7068 C   0  0  0  0  0  0  0  0  0  0  0  0
    3.9837   11.8457    4.5938 N   0  0  0  0  0  0  0  0  0  0  0  0
   -8.6471   -2.3276  -10.2503 H   0  0  0  0  0  0  0  0  0  0  0  0
   -8.2327   -2.0785   -8.5117 H   0  0  0  0  0  0  0  0  0  0  0  0
   -7.0512   -1.6072   -9.8022 H   0  0  0  0  0  0  0  0  0  0  0  0
   -8.0011   -4.4853   -9.1893 H   0  0  0  0  0  0  0  0  0  0  0  0
   -6.8564   -4.0289  -10.4718 H   0  0  0  0  0  0  0  0  0  0  0  0
   -6.5169   -4.5115   -4.4207 H   0  0  0  0  0  0  0  0  0  0  0  0
   -4.7606   -4.2620   -2.7660 H   0  0  0  0  0  0  0  0  0  0  0  0
   -0.7952   -3.1606   -5.2896 H   0  0  0  0  0  0  0  0  0  0  0  0
   -0.3451   -2.7576   -7.6493 H   0  0  0  0  0  0  0  0  0  0  0  0
   -2.1393   -2.8673   -9.3151 H   0  0  0  0  0  0  0  0  0  0  0  0
   -1.3222   -6.0217   -4.2341 H   0  0  0  0  0  0  0  0  0  0  0  0
   -1.7904   -8.4345   -4.3757 H   0  0  0  0  0  0  0  0  0  0  0  0
   -2.7606   -9.6298   -2.4422 H   0  0  0  0  0  0  0  0  0  0  0  0
   -3.3006   -8.4243   -0.3731 H   0  0  0  0  0  0  0  0  0  0  0  0
   -2.1878   -5.1601    0.5808 H   0  0  0  0  0  0  0  0  0  0  0  0
   -3.1996   -6.5468    0.9973 H   0  0  0  0  0  0  0  0  0  0  0  0
   -4.0283   -4.0496   -0.5838 H   0  0  0  0  0  0  0  0  0  0  0  0
   -5.0607   -5.5424   -0.4697 H   0  0  0  0  0  0  0  0  0  0  0  0
   -4.6169   -4.6124    1.0127 H   0  0  0  0  0  0  0  0  0  0  0  0
    3.6110    3.8969    6.3944 H   0  0  0  0  0  0  0  0  0  0  0  0
    4.0286    3.6442    8.1047 H   0  0  0  0  0  0  0  0  0  0  0  0
    4.0467    1.4871    5.8991 H   0  0  0  0  0  0  0  0  0  0  0  0
    4.5883    1.2228    7.5987 H   0  0  0  0  0  0  0  0  0  0  0  0
    2.8649    1.6575    7.2493 H   0  0  0  0  0  0  0  0  0  0  0  0
    6.3108    3.4380    8.8463 H   0  0  0  0  0  0  0  0  0  0  0  0
    8.7083    3.7835    8.4079 H   0  0  0  0  0  0  0  0  0  0  0  0
    9.5345    4.0657    6.0901 H   0  0  0  0  0  0  0  0  0  0  0  0
    7.9519    3.9925    4.1944 H   0  0  0  0  0  0  0  0  0  0  0  0
    1.8944    0.9929   -1.6784 H   0  0  0  0  0  0  0  0  0  0  0  0
    1.3378   -0.3341   -2.7098 H   0  0  0  0  0  0  0  0  0  0  0  0
   -0.5133    0.9158   -3.1807 H   0  0  0  0  0  0  0  0  0  0  0  0
   -1.0777    0.6736   -1.4790 H   0  0  0  0  0  0  0  0  0  0  0  0
   -0.1033    2.1203   -1.9317 H   0  0  0  0  0  0  0  0  0  0  0  0
    1.7557    3.3248    0.7136 H   0  0  0  0  0  0  0  0  0  0  0  0
    0.8395    1.9225    0.1433 H   0  0  0  0  0  0  0  0  0  0  0  0
    0.5326    1.0733    2.4493 H   0  0  0  0  0  0  0  0  0  0  0  0
    1.4138    2.5124    3.0920 H   0  0  0  0  0  0  0  0  0  0  0  0
   -0.1465    2.7289    2.2190 H   0  0  0  0  0  0  0  0  0  0  0  0
    5.5100    6.4582    4.9764 H   0  0  0  0  0  0  0  0  0  0  0  0
  1  2  1  0
  2  3  1  0
  3  4  1  0
  4  5  2  0
  4  6  1  0
  6  7  1  0
  7  8  2  0
  8  9  1  0
  9 10  2  0
 10 11  1  0
 11 12  2  0
 12 13  1  0
 13 14  2  0
 14 15  1  0
 14 16  1  0
 16 17  2  0
  9 18  1  0
 18 19  2  0
 19 20  1  0
 20 21  2  0
 21 22  1  0
 22 23  2  0
 23 24  1  0
 24 25  2  0
 25 26  1  0
 26 27  1  0
 19 28  1  0
 28 29  1  0
 29 30  1  0
 30 31  1  0
 31 32  1  0
 32 33  1  0
 33 34  2  0
 34 35  1  0
 35 36  1  0
 33 37  1  0
 37 38  1  0
 38 39  1  0
 39 40  1  0
 40 41  1  0
 41 42  1  0
 42 43  2  0
 43 44  1  0
 44 45  1  0
 43 46  1  0
 46 47  2  0
 47 48  1  0
 48 49  2  0
 41 50  2  0
 50 51  1  0
 51 52  1  0
 52 53  1  0
 53 54  1  0
 54 55  1  0
 55 56  1  0
 56 57  1  0
 57 58  1  0
 58 59  1  0
 59 60  1  0
 57 61  1  0
 61 62  1  0
 54 63  1  0
 63 64  1  0
 50 65  1  0
 65 66  2  3
 66 67  1  0
 67 68  2  0
 67 69  1  0
 69 70  2  0
 70 71  1  0
 70 72  1  0
 72 73  1  0
 72 74  2  0
 74 75  1  0
 74 76  1  0
 76 77  1  0
 76 78  2  0
 78 79  1  0
 79 80  2  3
 80 81  1  0
 81 82  3  0
 80 83  1  0
 83 84  3  0
 16  3  1  0
 60 18  1  0
 79 66  1  0
 15  6  2  0
 25 20  1  0
 59 28  2  0
 78 69  1  0
 15 10  1  0
 58 30  2  0
 56 31  2  0
 36 32  2  0
 55 37  2  0
 53 38  2  0
 52 40  2  0
 49 42  1  0
  1 85  1  0
  1 86  1  0
  1 87  1  0
  2 88  1  0
  2 89  1  0
  7 90  1  0
  8 91  1  0
 11 92  1  0
 12 93  1  0
 13 94  1  0
 21 95  1  0
 22 96  1  0
 23 97  1  0
 24 98  1  0
 26 99  1  0
 26100  1  0
 27101  1  0
 27102  1  0
 27103  1  0
 44104  1  0
 44105  1  0
 45106  1  0
 45107  1  0
 45108  1  0
 46109  1  0
 47110  1  0
 48111  1  0
 49112  1  0
 61113  1  0
 61114  1  0
 62115  1  0
 62116  1  0
 62117  1  0
 63118  1  0
 63119  1  0
 64120  1  0
 64121  1  0
 64122  1  0
 65123  1  0
M  END

