
     RDKit          3D

120136  0  0  0  0  0  0  0  0999 V2000
    6.9693   -0.9115   13.3905 C   0  0  0  0  0  0  0  0  0  0  0  0
    5.9942   -1.9911   13.8466 C   0  0  0  0  0  0  0  0  0  0  0  0
    4.9353   -2.1819   12.8443 N   0  0  0  0  0  0  0  0  0  0  0  0
    5.1036   -3.1301   11.7752 C   0  0  0  0  0  0  0  0  0  0  0  0
    6.1490   -3.8347   11.7150 O   0  0  0  0  0  0  0  0  0  0  0  0
    4.0539   -3.2733   10.7387 C   0  0  0  0  0  0  0  0  0  0  0  0
    4.2015   -4.2175    9.7135 C   0  0  0  0  0  0  0  0  0  0  0  0
    3.2468   -4.3296    8.7071 C   0  0  0  0  0  0  0  0  0  0  0  0
    2.1142   -3.5048    8.6937 C   0  0  0  0  0  0  0  0  0  0  0  0
    1.9081   -2.5910    9.7613 C   0  0  0  0  0  0  0  0  0  0  0  0
    0.7301   -1.8226    9.8591 C   0  0  0  0  0  0  0  0  0  0  0  0
    0.5640   -0.9027   10.8916 C   0  0  0  0  0  0  0  0  0  0  0  0
    1.5545   -0.7385   11.8553 C   0  0  0  0  0  0  0  0  0  0  0  0
    2.7222   -1.5167   11.8163 C   0  0  0  0  0  0  0  0  0  0  0  0
    2.8992   -2.4606   10.7770 C   0  0  0  0  0  0  0  0  0  0  0  0
    3.7617   -1.3497   12.8581 C   0  0  0  0  0  0  0  0  0  0  0  0
    3.6192   -0.4736   13.7565 O   0  0  0  0  0  0  0  0  0  0  0  0
    1.2356   -3.5574    7.5023 C   0  0  0  0  0  0  0  0  0  0  0  0
    0.7484   -5.0020    6.7086 S   0  0  0  0  0  0  0  0  0  0  0  0
    0.0351   -4.1594    5.4533 C   0  0  0  0  0  0  0  0  0  0  0  0
   -0.5984   -4.3538    4.2624 C   0  0  0  0  0  0  0  0  0  0  0  0
   -1.1431   -5.6252    3.2779 S   0  0  0  0  0  0  0  0  0  0  0  0
   -1.6862   -4.4736    2.1425 C   0  0  0  0  0  0  0  0  0  0  0  0
   -2.0679   -4.4825    0.8311 C   0  0  0  0  0  0  0  0  0  0  0  0
   -2.2384   -5.5280   -0.0882 C   0  0  0  0  0  0  0  0  0  0  0  0
   -2.4518   -5.2047   -1.4646 C   0  0  0  0  0  0  0  0  0  0  0  0
   -2.6068   -6.2408   -2.3244 N   0  0  0  0  0  0  0  0  0  0  0  0
   -2.4416   -7.5050   -1.2657 S   0  0  0  0  0  0  0  0  0  0  0  0
   -2.1897   -6.8439    0.2329 N   0  0  0  0  0  0  0  0  0  0  0  0
   -2.5157   -3.8552   -1.8339 C   0  0  0  0  0  0  0  0  0  0  0  0
   -2.8322   -3.2365   -3.0119 C   0  0  0  0  0  0  0  0  0  0  0  0
   -3.1930   -3.6112   -4.6300 S   0  0  0  0  0  0  0  0  0  0  0  0
   -3.5021   -1.9625   -4.9679 C   0  0  0  0  0  0  0  0  0  0  0  0
   -3.7814   -1.2503   -6.1368 C   0  0  0  0  0  0  0  0  0  0  0  0
   -3.8458   -1.8636   -7.5053 C   0  0  0  0  0  0  0  0  0  0  0  0
   -2.4735   -1.8449   -8.1706 C   0  0  0  0  0  0  0  0  0  0  0  0
   -3.8243    0.1306   -5.8736 C   0  0  0  0  0  0  0  0  0  0  0  0
   -3.5716    0.4289   -4.2125 S   0  0  0  0  0  0  0  0  0  0  0  0
   -3.3576   -1.1866   -3.8458 C   0  0  0  0  0  0  0  0  0  0  0  0
   -2.9478   -1.9129   -2.7441 C   0  0  0  0  0  0  0  0  0  0  0  0
   -2.6966   -1.6031   -1.4502 N   0  0  0  0  0  0  0  0  0  0  0  0
   -2.3755   -2.8175   -0.9004 C   0  0  0  0  0  0  0  0  0  0  0  0
   -2.0505   -3.1404    0.4360 C   0  0  0  0  0  0  0  0  0  0  0  0
   -1.5181   -2.3364    1.4082 N   0  0  0  0  0  0  0  0  0  0  0  0
   -1.4101   -3.1744    2.4786 C   0  0  0  0  0  0  0  0  0  0  0  0
   -0.7908   -3.1036    3.7290 C   0  0  0  0  0  0  0  0  0  0  0  0
   -0.3489   -2.1155    4.5644 N   0  0  0  0  0  0  0  0  0  0  0  0
    0.1682   -2.8207    5.6059 C   0  0  0  0  0  0  0  0  0  0  0  0
    0.8498   -2.4304    6.7528 C   0  0  0  0  0  0  0  0  0  0  0  0
   -0.5346   -0.6629    4.5107 C   0  0  0  0  0  0  0  0  0  0  0  0
   -2.0160   -0.3019    4.4340 C   0  0  0  0  0  0  0  0  0  0  0  0
   -0.6233   -1.2038    1.1176 C   0  0  0  0  0  0  0  0  0  0  0  0
    0.8516   -1.5919    1.2522 C   0  0  0  0  0  0  0  0  0  0  0  0
   -3.1875   -0.4003   -0.7603 C   0  0  0  0  0  0  0  0  0  0  0  0
   -2.3721    0.8452   -1.1273 C   0  0  0  0  0  0  0  0  0  0  0  0
   -3.9297    1.1980   -6.8794 C   0  0  0  0  0  0  0  0  0  0  0  0
   -2.9332    2.0769   -7.0992 C   0  0  0  0  0  0  0  0  0  0  0  0
   -1.6303    2.0675   -6.4220 C   0  0  0  0  0  0  0  0  0  0  0  0
   -1.0802    1.0757   -5.8721 O   0  0  0  0  0  0  0  0  0  0  0  0
   -1.0456    3.3836   -6.5264 C   0  0  0  0  0  0  0  0  0  0  0  0
    0.1175    3.8504   -5.8741 C   0  0  0  0  0  0  0  0  0  0  0  0
    0.3618    5.1956   -6.0647 C   0  0  0  0  0  0  0  0  0  0  0  0
   -0.4872    6.0435   -6.8476 C   0  0  0  0  0  0  0  0  0  0  0  0
   -1.6291    5.5911   -7.4906 C   0  0  0  0  0  0  0  0  0  0  0  0
   -1.8855    4.1999   -7.3277 C   0  0  0  0  0  0  0  0  0  0  0  0
   -3.0214    3.3754   -7.8346 C   0  0  0  0  0  0  0  0  0  0  0  0
   -3.8100    3.6523   -8.9040 C   0  0  0  0  0  0  0  0  0  0  0  0
   -4.7056    2.6767   -9.4701 C   0  0  0  0  0  0  0  0  0  0  0  0
   -5.4249    1.8976   -9.9365 N   0  0  0  0  0  0  0  0  0  0  0  0
   -3.7042    4.8843   -9.6415 C   0  0  0  0  0  0  0  0  0  0  0  0
   -3.6253    5.8671  -10.2480 N   0  0  0  0  0  0  0  0  0  0  0  0
    0.3909    7.2220   -6.5513 C   0  0  0  0  0  0  0  0  0  0  0  0
    1.3197    7.7016   -7.7044 C   0  0  0  0  0  0  0  0  0  0  0  0
    2.3521    8.5957   -7.0593 C   0  0  0  0  0  0  0  0  0  0  0  0
    3.1436    7.7988   -6.3309 C   0  0  0  0  0  0  0  0  0  0  0  0
    2.6190    6.3951   -6.5096 C   0  0  0  0  0  0  0  0  0  0  0  0
    2.1970    6.4880   -7.9664 C   0  0  0  0  0  0  0  0  0  0  0  0
    1.2597    6.3515   -5.7519 C   0  0  0  0  0  0  0  0  0  0  0  0
    7.4355   -1.2003   12.4248 H   0  0  0  0  0  0  0  0  0  0  0  0
    6.4377    0.0551   13.2642 H   0  0  0  0  0  0  0  0  0  0  0  0
    7.7694   -0.7835   14.1512 H   0  0  0  0  0  0  0  0  0  0  0  0
    6.5474   -2.9396   14.0168 H   0  0  0  0  0  0  0  0  0  0  0  0
    5.5537   -1.7019   14.8257 H   0  0  0  0  0  0  0  0  0  0  0  0
    5.0739   -4.8577    9.6741 H   0  0  0  0  0  0  0  0  0  0  0  0
    3.4213   -5.0361    7.9048 H   0  0  0  0  0  0  0  0  0  0  0  0
   -0.0828   -1.9397    9.1556 H   0  0  0  0  0  0  0  0  0  0  0  0
   -0.3439   -0.3160   10.9476 H   0  0  0  0  0  0  0  0  0  0  0  0
    1.3972   -0.0113   12.6425 H   0  0  0  0  0  0  0  0  0  0  0  0
   -4.2034   -2.9132   -7.4312 H   0  0  0  0  0  0  0  0  0  0  0  0
   -4.5697   -1.3037   -8.1330 H   0  0  0  0  0  0  0  0  0  0  0  0
   -2.1204   -0.7992   -8.3041 H   0  0  0  0  0  0  0  0  0  0  0  0
   -1.7378   -2.4036   -7.5530 H   0  0  0  0  0  0  0  0  0  0  0  0
   -2.5383   -2.3269   -9.1691 H   0  0  0  0  0  0  0  0  0  0  0  0
    1.1015   -1.4098    7.0065 H   0  0  0  0  0  0  0  0  0  0  0  0
    0.0381   -0.2294    3.6741 H   0  0  0  0  0  0  0  0  0  0  0  0
   -0.1202   -0.1934    5.4278 H   0  0  0  0  0  0  0  0  0  0  0  0
   -2.5525   -0.7183    5.3122 H   0  0  0  0  0  0  0  0  0  0  0  0
   -2.4778   -0.7044    3.5092 H   0  0  0  0  0  0  0  0  0  0  0  0
   -2.1306    0.8026    4.4347 H   0  0  0  0  0  0  0  0  0  0  0  0
   -0.7327   -0.8903    0.0672 H   0  0  0  0  0  0  0  0  0  0  0  0
   -0.8859   -0.3274    1.7330 H   0  0  0  0  0  0  0  0  0  0  0  0
    1.4895   -0.7493    0.9111 H   0  0  0  0  0  0  0  0  0  0  0  0
    1.1248   -1.8265    2.2987 H   0  0  0  0  0  0  0  0  0  0  0  0
    1.0684   -2.4788    0.6190 H   0  0  0  0  0  0  0  0  0  0  0  0
   -4.2520   -0.2400   -1.0348 H   0  0  0  0  0  0  0  0  0  0  0  0
   -3.1740   -0.5446    0.3393 H   0  0  0  0  0  0  0  0  0  0  0  0
   -1.8507    1.2446   -0.2318 H   0  0  0  0  0  0  0  0  0  0  0  0
   -1.6095    0.6200   -1.9035 H   0  0  0  0  0  0  0  0  0  0  0  0
   -3.0460    1.6428   -1.5073 H   0  0  0  0  0  0  0  0  0  0  0  0
   -4.8923    1.3156   -7.3481 H   0  0  0  0  0  0  0  0  0  0  0  0
    0.7448    3.2225   -5.2569 H   0  0  0  0  0  0  0  0  0  0  0  0
   -2.2703    6.2729   -8.0247 H   0  0  0  0  0  0  0  0  0  0  0  0
   -0.1180    8.0253   -5.9731 H   0  0  0  0  0  0  0  0  0  0  0  0
    0.8075    8.1321   -8.5906 H   0  0  0  0  0  0  0  0  0  0  0  0
    2.4956    9.6591   -7.2188 H   0  0  0  0  0  0  0  0  0  0  0  0
    4.0392    8.1051   -5.8003 H   0  0  0  0  0  0  0  0  0  0  0  0
    3.3369    5.5845   -6.2610 H   0  0  0  0  0  0  0  0  0  0  0  0
    1.6449    5.5982   -8.3391 H   0  0  0  0  0  0  0  0  0  0  0  0
    3.0458    6.6959   -8.6610 H   0  0  0  0  0  0  0  0  0  0  0  0
    1.3012    6.6034   -4.6685 H   0  0  0  0  0  0  0  0  0  0  0  0
  1  2  1  0
  2  3  1  0
  3  4  1  0
  4  5  2  0
  4  6  1  0
  6  7  1  0
  7  8  2  0
  8  9  1  0
  9 10  2  0
 10 11  1  0
 11 12  2  0
 12 13  1  0
 13 14  2  0
 14 15  1  0
 14 16  1  0
 16 17  2  0
  9 18  1  0
 18 19  1  0
 19 20  1  0
 20 21  1  0
 21 22  1  0
 22 23  1  0
 23 24  1  0
 24 25  1  0
 25 26  1  0
 26 27  2  0
 27 28  1  0
 28 29  1  0
 26 30  1  0
 30 31  1  0
 31 32  1  0
 32 33  1  0
 33 34  1  0
 34 35  1  0
 35 36  1  0
 34 37  2  0
 37 38  1  0
 38 39  1  0
 39 40  1  0
 40 41  1  0
 41 42  1  0
 42 43  1  0
 43 44  1  0
 44 45  1  0
 45 46  1  0
 46 47  1  0
 47 48  1  0
 48 49  1  0
 47 50  1  0
 50 51  1  0
 44 52  1  0
 52 53  1  0
 41 54  1  0
 54 55  1  0
 37 56  1  0
 56 57  2  3
 57 58  1  0
 58 59  2  0
 58 60  1  0
 60 61  2  0
 61 62  1  0
 62 63  2  0
 63 64  1  0
 64 65  2  0
 65 66  1  0
 66 67  2  3
 67 68  1  0
 68 69  3  0
 67 70  1  0
 70 71  3  0
 63 72  1  0
 72 73  1  0
 73 74  1  0
 74 75  2  0
 75 76  1  0
 76 77  1  0
 76 78  1  0
 16  3  1  0
 49 18  2  0
 66 57  1  0
 78 72  1  0
 15  6  2  0
 48 20  2  0
 65 60  1  0
 77 73  1  0
 15 10  1  0
 46 21  2  0
 78 62  1  0
 45 23  2  0
 43 24  2  0
 29 25  2  0
 42 30  2  0
 40 31  2  0
 39 33  2  0
  1 79  1  0
  1 80  1  0
  1 81  1  0
  2 82  1  0
  2 83  1  0
  7 84  1  0
  8 85  1  0
 11 86  1  0
 12 87  1  0
 13 88  1  0
 35 89  1  0
 35 90  1  0
 36 91  1  0
 36 92  1  0
 36 93  1  0
 49 94  1  0
 50 95  1  0
 50 96  1  0
 51 97  1  0
 51 98  1  0
 51 99  1  0
 52100  1  0
 52101  1  0
 53102  1  0
 53103  1  0
 53104  1  0
 54105  1  0
 54106  1  0
 55107  1  0
 55108  1  0
 55109  1  0
 56110  1  0
 61111  1  0
 64112  1  0
 72113  1  0
 73114  1  0
 74115  1  0
 75116  1  0
 76117  1  0
 77118  1  0
 77119  1  0
 78120  1  0
M  END

