
     RDKit          3D

109122  0  0  0  0  0  0  0  0999 V2000
   -9.1784   -4.4043   -7.7487 C   0  0  0  0  0  0  0  0  0  0  0  0
  -10.0566   -3.9840   -6.5750 C   0  0  0  0  0  0  0  0  0  0  0  0
   -9.2260   -3.6315   -5.4138 N   0  0  0  0  0  0  0  0  0  0  0  0
   -8.7185   -4.6597   -4.5437 C   0  0  0  0  0  0  0  0  0  0  0  0
   -9.0486   -5.8635   -4.7277 O   0  0  0  0  0  0  0  0  0  0  0  0
   -7.8022   -4.3070   -3.4348 C   0  0  0  0  0  0  0  0  0  0  0  0
   -7.3046   -5.3074   -2.5864 C   0  0  0  0  0  0  0  0  0  0  0  0
   -6.4254   -4.9902   -1.5548 C   0  0  0  0  0  0  0  0  0  0  0  0
   -6.0309   -3.6663   -1.3328 C   0  0  0  0  0  0  0  0  0  0  0  0
   -6.5363   -2.6334   -2.1613 C   0  0  0  0  0  0  0  0  0  0  0  0
   -6.1955   -1.2828   -1.9447 C   0  0  0  0  0  0  0  0  0  0  0  0
   -6.6933   -0.2831   -2.7774 C   0  0  0  0  0  0  0  0  0  0  0  0
   -7.5346   -0.6052   -3.8374 C   0  0  0  0  0  0  0  0  0  0  0  0
   -7.9089   -1.9383   -4.0722 C   0  0  0  0  0  0  0  0  0  0  0  0
   -7.4220   -2.9610   -3.2276 C   0  0  0  0  0  0  0  0  0  0  0  0
   -8.8130   -2.2694   -5.1968 C   0  0  0  0  0  0  0  0  0  0  0  0
   -9.2170   -1.3541   -5.9655 O   0  0  0  0  0  0  0  0  0  0  0  0
   -5.0440   -3.4056   -0.2687 C   0  0  0  0  0  0  0  0  0  0  0  0
   -5.2607   -3.5492    1.1170 C   0  0  0  0  0  0  0  0  0  0  0  0
   -6.5799   -3.8826    1.7570 C   0  0  0  0  0  0  0  0  0  0  0  0
   -7.4369   -2.6290    1.9017 C   0  0  0  0  0  0  0  0  0  0  0  0
   -4.1194   -3.1819    1.8309 C   0  0  0  0  0  0  0  0  0  0  0  0
   -3.7778   -2.9919    3.4947 S   0  0  0  0  0  0  0  0  0  0  0  0
   -2.2098   -2.4446    3.1352 C   0  0  0  0  0  0  0  0  0  0  0  0
   -1.1976   -1.7681    3.7574 C   0  0  0  0  0  0  0  0  0  0  0  0
   -1.0435   -1.3021    5.0718 C   0  0  0  0  0  0  0  0  0  0  0  0
    0.0560   -0.4350    5.3693 C   0  0  0  0  0  0  0  0  0  0  0  0
    0.1710   -0.0011    6.6488 N   0  0  0  0  0  0  0  0  0  0  0  0
   -1.1553   -0.7438    7.3117 S   0  0  0  0  0  0  0  0  0  0  0  0
   -1.8856   -1.5988    6.0918 N   0  0  0  0  0  0  0  0  0  0  0  0
    0.9490   -0.1069    4.3418 C   0  0  0  0  0  0  0  0  0  0  0  0
    2.1558    0.5357    4.3431 C   0  0  0  0  0  0  0  0  0  0  0  0
    3.2390    1.2439    5.4443 S   0  0  0  0  0  0  0  0  0  0  0  0
    4.4485    1.3219    4.2370 C   0  0  0  0  0  0  0  0  0  0  0  0
    5.7563    1.8098    4.2015 C   0  0  0  0  0  0  0  0  0  0  0  0
    6.4717    2.4037    5.3814 C   0  0  0  0  0  0  0  0  0  0  0  0
    7.1806    1.3177    6.1813 C   0  0  0  0  0  0  0  0  0  0  0  0
    6.3173    1.6298    2.9222 C   0  0  0  0  0  0  0  0  0  0  0  0
    5.2118    0.8304    1.8933 S   0  0  0  0  0  0  0  0  0  0  0  0
    4.0159    0.7702    3.0596 C   0  0  0  0  0  0  0  0  0  0  0  0
    2.7054    0.3414    3.1186 C   0  0  0  0  0  0  0  0  0  0  0  0
    1.9360   -0.4141    2.2973 N   0  0  0  0  0  0  0  0  0  0  0  0
    0.8039   -0.6104    3.0411 C   0  0  0  0  0  0  0  0  0  0  0  0
   -0.3399   -1.3672    2.7241 C   0  0  0  0  0  0  0  0  0  0  0  0
   -0.8730   -1.6394    1.4931 N   0  0  0  0  0  0  0  0  0  0  0  0
   -1.9742   -2.3693    1.7985 C   0  0  0  0  0  0  0  0  0  0  0  0
   -3.0636   -2.7833    1.0544 C   0  0  0  0  0  0  0  0  0  0  0  0
   -3.4601   -2.8479   -0.5696 S   0  0  0  0  0  0  0  0  0  0  0  0
   -0.7723   -0.7767    0.3033 C   0  0  0  0  0  0  0  0  0  0  0  0
   -1.8043    0.3506    0.3578 C   0  0  0  0  0  0  0  0  0  0  0  0
    2.4782   -1.3206    1.2709 C   0  0  0  0  0  0  0  0  0  0  0  0
    3.2514   -2.4684    1.9169 C   0  0  0  0  0  0  0  0  0  0  0  0
    7.6741    2.0298    2.5164 C   0  0  0  0  0  0  0  0  0  0  0  0
    7.9151    2.8346    1.4614 C   0  0  0  0  0  0  0  0  0  0  0  0
    6.8881    3.4451    0.6095 C   0  0  0  0  0  0  0  0  0  0  0  0
    5.6882    3.6614    0.9221 O   0  0  0  0  0  0  0  0  0  0  0  0
    7.5129    3.8817   -0.6157 C   0  0  0  0  0  0  0  0  0  0  0  0
    6.8894    4.3797   -1.7589 C   0  0  0  0  0  0  0  0  0  0  0  0
    7.6831    4.6801   -2.8777 C   0  0  0  0  0  0  0  0  0  0  0  0
    7.0950    5.1658   -4.0555 C   0  0  0  0  0  0  0  0  0  0  0  0
    7.8888    5.4560   -5.1683 C   0  0  0  0  0  0  0  0  0  0  0  0
    7.3123    5.9160   -6.3065 F   0  0  0  0  0  0  0  0  0  0  0  0
    9.2767    5.2728   -5.1125 C   0  0  0  0  0  0  0  0  0  0  0  0
   10.0412    5.5597   -6.1946 F   0  0  0  0  0  0  0  0  0  0  0  0
    9.8757    4.7821   -3.9481 C   0  0  0  0  0  0  0  0  0  0  0  0
    9.0907    4.4742   -2.8249 C   0  0  0  0  0  0  0  0  0  0  0  0
    9.6868    3.9571   -1.6559 C   0  0  0  0  0  0  0  0  0  0  0  0
    8.8799    3.6743   -0.5408 C   0  0  0  0  0  0  0  0  0  0  0  0
    9.2303    3.1169    0.8014 C   0  0  0  0  0  0  0  0  0  0  0  0
   10.4647    3.0452    1.3616 C   0  0  0  0  0  0  0  0  0  0  0  0
   10.6647    2.7078    2.7470 C   0  0  0  0  0  0  0  0  0  0  0  0
   10.8389    2.4423    3.8598 N   0  0  0  0  0  0  0  0  0  0  0  0
   11.6624    3.4241    0.6603 C   0  0  0  0  0  0  0  0  0  0  0  0
   12.6362    3.7293    0.1136 N   0  0  0  0  0  0  0  0  0  0  0  0
   -8.6781   -5.3691   -7.5248 H   0  0  0  0  0  0  0  0  0  0  0  0
   -9.8065   -4.5331   -8.6569 H   0  0  0  0  0  0  0  0  0  0  0  0
   -8.4106   -3.6274   -7.9535 H   0  0  0  0  0  0  0  0  0  0  0  0
  -10.7512   -4.8114   -6.3154 H   0  0  0  0  0  0  0  0  0  0  0  0
  -10.6901   -3.1232   -6.8815 H   0  0  0  0  0  0  0  0  0  0  0  0
   -7.5833   -6.3446   -2.7287 H   0  0  0  0  0  0  0  0  0  0  0  0
   -6.0353   -5.7891   -0.9335 H   0  0  0  0  0  0  0  0  0  0  0  0
   -5.5595   -0.9844   -1.1235 H   0  0  0  0  0  0  0  0  0  0  0  0
   -6.4201    0.7481   -2.6000 H   0  0  0  0  0  0  0  0  0  0  0  0
   -7.8990    0.1936   -4.4716 H   0  0  0  0  0  0  0  0  0  0  0  0
   -7.1213   -4.6331    1.1455 H   0  0  0  0  0  0  0  0  0  0  0  0
   -6.4093   -4.3300    2.7583 H   0  0  0  0  0  0  0  0  0  0  0  0
   -8.4051   -2.8957    2.3760 H   0  0  0  0  0  0  0  0  0  0  0  0
   -6.9198   -1.8847    2.5429 H   0  0  0  0  0  0  0  0  0  0  0  0
   -7.6383   -2.1797    0.9062 H   0  0  0  0  0  0  0  0  0  0  0  0
    5.7436    2.9261    6.0396 H   0  0  0  0  0  0  0  0  0  0  0  0
    7.2163    3.1540    5.0379 H   0  0  0  0  0  0  0  0  0  0  0  0
    7.9384    0.8052    5.5502 H   0  0  0  0  0  0  0  0  0  0  0  0
    7.6962    1.7742    7.0524 H   0  0  0  0  0  0  0  0  0  0  0  0
    6.4460    0.5722    6.5536 H   0  0  0  0  0  0  0  0  0  0  0  0
   -0.9196   -1.3833   -0.6147 H   0  0  0  0  0  0  0  0  0  0  0  0
    0.2172   -0.2896    0.2337 H   0  0  0  0  0  0  0  0  0  0  0  0
   -1.6582    0.9536    1.2790 H   0  0  0  0  0  0  0  0  0  0  0  0
   -1.6796    1.0113   -0.5247 H   0  0  0  0  0  0  0  0  0  0  0  0
   -2.8360   -0.0559    0.3539 H   0  0  0  0  0  0  0  0  0  0  0  0
    3.1487   -0.7570    0.5875 H   0  0  0  0  0  0  0  0  0  0  0  0
    1.6779   -1.7779    0.6622 H   0  0  0  0  0  0  0  0  0  0  0  0
    3.6579   -3.1360    1.1280 H   0  0  0  0  0  0  0  0  0  0  0  0
    4.0965   -2.0834    2.5249 H   0  0  0  0  0  0  0  0  0  0  0  0
    2.5757   -3.0595    2.5728 H   0  0  0  0  0  0  0  0  0  0  0  0
    8.4763    1.5761    3.0718 H   0  0  0  0  0  0  0  0  0  0  0  0
    5.8135    4.5105   -1.7822 H   0  0  0  0  0  0  0  0  0  0  0  0
    6.0216    5.3128   -4.1161 H   0  0  0  0  0  0  0  0  0  0  0  0
   10.9508    4.6406   -3.9246 H   0  0  0  0  0  0  0  0  0  0  0  0
   10.7457    3.7609   -1.6554 H   0  0  0  0  0  0  0  0  0  0  0  0
  1  2  1  0
  2  3  1  0
  3  4  1  0
  4  5  2  0
  4  6  1  0
  6  7  1  0
  7  8  2  0
  8  9  1  0
  9 10  2  0
 10 11  1  0
 11 12  2  0
 12 13  1  0
 13 14  2  0
 14 15  1  0
 14 16  1  0
 16 17  2  0
  9 18  1  0
 18 19  2  0
 19 20  1  0
 20 21  1  0
 19 22  1  0
 22 23  1  0
 23 24  1  0
 24 25  1  0
 25 26  1  0
 26 27  1  0
 27 28  2  0
 28 29  1  0
 29 30  1  0
 27 31  1  0
 31 32  1  0
 32 33  1  0
 33 34  1  0
 34 35  1  0
 35 36  1  0
 36 37  1  0
 35 38  2  0
 38 39  1  0
 39 40  1  0
 40 41  1  0
 41 42  1  0
 42 43  1  0
 43 44  1  0
 44 45  1  0
 45 46  1  0
 46 47  1  0
 47 48  1  0
 45 49  1  0
 49 50  1  0
 42 51  1  0
 51 52  1  0
 38 53  1  0
 53 54  2  3
 54 55  1  0
 55 56  2  0
 55 57  1  0
 57 58  2  0
 58 59  1  0
 59 60  2  0
 60 61  1  0
 61 62  1  0
 61 63  2  0
 63 64  1  0
 63 65  1  0
 65 66  2  0
 66 67  1  0
 67 68  2  0
 68 69  1  0
 69 70  2  3
 70 71  1  0
 71 72  3  0
 70 73  1  0
 73 74  3  0
 16  3  1  0
 48 18  1  0
 69 54  1  0
 15  6  2  0
 47 22  2  0
 68 57  1  0
 15 10  1  0
 46 24  2  0
 66 59  1  0
 44 25  2  0
 30 26  2  0
 43 31  2  0
 41 32  2  0
 40 34  2  0
  1 75  1  0
  1 76  1  0
  1 77  1  0
  2 78  1  0
  2 79  1  0
  7 80  1  0
  8 81  1  0
 11 82  1  0
 12 83  1  0
 13 84  1  0
 20 85  1  0
 20 86  1  0
 21 87  1  0
 21 88  1  0
 21 89  1  0
 36 90  1  0
 36 91  1  0
 37 92  1  0
 37 93  1  0
 37 94  1  0
 49 95  1  0
 49 96  1  0
 50 97  1  0
 50 98  1  0
 50 99  1  0
 51100  1  0
 51101  1  0
 52102  1  0
 52103  1  0
 52104  1  0
 53105  1  0
 58106  1  0
 60107  1  0
 65108  1  0
 67109  1  0
M  END

