
     RDKit          3D

117130  0  0  0  0  0  0  0  0999 V2000
    5.7540    3.9804   -4.1511 C   0  0  0  0  0  0  0  0  0  0  0  0
    6.9124    3.7707   -3.5069 C   0  0  0  0  0  0  0  0  0  0  0  0
    7.6401    4.8441   -2.8245 C   0  0  0  0  0  0  0  0  0  0  0  0
    7.4893    6.0838   -3.0148 O   0  0  0  0  0  0  0  0  0  0  0  0
    8.4473    4.2450   -1.7780 C   0  0  0  0  0  0  0  0  0  0  0  0
    9.1836    4.8860   -0.7791 C   0  0  0  0  0  0  0  0  0  0  0  0
    9.8134    4.0996    0.1964 C   0  0  0  0  0  0  0  0  0  0  0  0
    9.6896    2.6948    0.1618 C   0  0  0  0  0  0  0  0  0  0  0  0
   10.5268    1.6424    1.5152 Br  0  0  0  0  0  0  0  0  0  0  0  0
    8.9187    2.0711   -0.8357 C   0  0  0  0  0  0  0  0  0  0  0  0
    8.3151    2.8657   -1.8204 C   0  0  0  0  0  0  0  0  0  0  0  0
    7.4451    2.4859   -2.9648 C   0  0  0  0  0  0  0  0  0  0  0  0
    7.4487    1.3004   -3.6261 C   0  0  0  0  0  0  0  0  0  0  0  0
    8.1424    0.1405   -3.1324 C   0  0  0  0  0  0  0  0  0  0  0  0
    8.7040   -0.7980   -2.7502 N   0  0  0  0  0  0  0  0  0  0  0  0
    6.9102    1.1857   -4.9583 C   0  0  0  0  0  0  0  0  0  0  0  0
    6.4946    1.0959   -6.0361 N   0  0  0  0  0  0  0  0  0  0  0  0
    4.6153    3.0428   -4.0654 C   0  0  0  0  0  0  0  0  0  0  0  0
    3.5904    2.8763   -5.0175 C   0  0  0  0  0  0  0  0  0  0  0  0
    3.5845    3.4754   -6.3655 C   0  0  0  0  0  0  0  0  0  0  0  0
    3.8980    2.6520   -7.4589 C   0  0  0  0  0  0  0  0  0  0  0  0
    3.9492    3.1787   -8.7510 C   0  0  0  0  0  0  0  0  0  0  0  0
    3.6720    4.5282   -8.9679 C   0  0  0  0  0  0  0  0  0  0  0  0
    3.3318    5.3537   -7.8946 C   0  0  0  0  0  0  0  0  0  0  0  0
    3.2838    4.8440   -6.5831 C   0  0  0  0  0  0  0  0  0  0  0  0
    2.8007    5.7499   -5.4730 C   0  0  0  0  0  0  0  0  0  0  0  0
    1.2783    5.7209   -5.3771 C   0  0  0  0  0  0  0  0  0  0  0  0
    2.5974    2.0141   -4.5431 C   0  0  0  0  0  0  0  0  0  0  0  0
    1.1124    1.4638   -5.1784 S   0  0  0  0  0  0  0  0  0  0  0  0
    0.7868    0.6078   -3.7444 C   0  0  0  0  0  0  0  0  0  0  0  0
   -0.2654   -0.0106   -3.1347 C   0  0  0  0  0  0  0  0  0  0  0  0
   -1.5806   -0.1963   -3.5695 C   0  0  0  0  0  0  0  0  0  0  0  0
   -2.5480   -0.6741   -2.6432 C   0  0  0  0  0  0  0  0  0  0  0  0
   -3.8174   -0.8266   -3.0972 N   0  0  0  0  0  0  0  0  0  0  0  0
   -3.6130   -0.3238   -4.6636 S   0  0  0  0  0  0  0  0  0  0  0  0
   -2.0151    0.0824   -4.8254 N   0  0  0  0  0  0  0  0  0  0  0  0
   -2.1388   -0.9662   -1.3401 C   0  0  0  0  0  0  0  0  0  0  0  0
   -2.8295   -1.4776   -0.2792 C   0  0  0  0  0  0  0  0  0  0  0  0
   -4.4077   -1.9494    0.1397 S   0  0  0  0  0  0  0  0  0  0  0  0
   -3.8744   -2.4234    1.6910 C   0  0  0  0  0  0  0  0  0  0  0  0
   -4.5185   -2.9421    2.8131 C   0  0  0  0  0  0  0  0  0  0  0  0
   -5.9495   -3.3153    2.8350 C   0  0  0  0  0  0  0  0  0  0  0  0
   -6.3723   -4.6638    2.9767 C   0  0  0  0  0  0  0  0  0  0  0  0
   -5.4053   -5.8239    2.8844 C   0  0  0  0  0  0  0  0  0  0  0  0
   -5.0503   -6.1196    1.4292 C   0  0  0  0  0  0  0  0  0  0  0  0
   -7.7466   -4.9398    3.0885 C   0  0  0  0  0  0  0  0  0  0  0  0
   -8.6850   -3.9082    3.0524 C   0  0  0  0  0  0  0  0  0  0  0  0
   -8.2696   -2.5902    2.8587 C   0  0  0  0  0  0  0  0  0  0  0  0
   -6.9097   -2.2973    2.7412 C   0  0  0  0  0  0  0  0  0  0  0  0
   -3.6106   -3.1057    3.8830 C   0  0  0  0  0  0  0  0  0  0  0  0
   -2.0378   -2.6970    3.3761 S   0  0  0  0  0  0  0  0  0  0  0  0
   -2.5231   -2.2444    1.8365 C   0  0  0  0  0  0  0  0  0  0  0  0
   -1.9342   -1.6931    0.7088 C   0  0  0  0  0  0  0  0  0  0  0  0
   -0.6642   -1.3706    0.3588 N   0  0  0  0  0  0  0  0  0  0  0  0
   -0.8045   -0.8367   -0.9067 C   0  0  0  0  0  0  0  0  0  0  0  0
    0.1435   -0.2568   -1.8070 C   0  0  0  0  0  0  0  0  0  0  0  0
    1.3886    0.2974   -1.5848 N   0  0  0  0  0  0  0  0  0  0  0  0
    1.7498    0.7690   -2.8061 C   0  0  0  0  0  0  0  0  0  0  0  0
    2.7882    1.5662   -3.2618 C   0  0  0  0  0  0  0  0  0  0  0  0
    4.2185    2.1806   -2.6483 S   0  0  0  0  0  0  0  0  0  0  0  0
    2.0152    0.7205   -0.3240 C   0  0  0  0  0  0  0  0  0  0  0  0
    1.0961    1.6378    0.4823 C   0  0  0  0  0  0  0  0  0  0  0  0
    0.5234   -1.8861    1.0520 C   0  0  0  0  0  0  0  0  0  0  0  0
    1.3916   -2.7526    0.1407 C   0  0  0  0  0  0  0  0  0  0  0  0
   -3.9087   -3.6311    5.2285 C   0  0  0  0  0  0  0  0  0  0  0  0
   -4.9473   -3.2360    5.9842 C   0  0  0  0  0  0  0  0  0  0  0  0
   -5.5571   -4.0907    7.0026 C   0  0  0  0  0  0  0  0  0  0  0  0
   -5.0251   -5.0978    7.5440 O   0  0  0  0  0  0  0  0  0  0  0  0
   -6.9266   -3.6494    7.1892 C   0  0  0  0  0  0  0  0  0  0  0  0
   -7.9435   -4.2561    7.9282 C   0  0  0  0  0  0  0  0  0  0  0  0
   -9.2388   -3.7238    7.8421 C   0  0  0  0  0  0  0  0  0  0  0  0
  -10.5361   -4.4488    8.7792 Cl  0  0  0  0  0  0  0  0  0  0  0  0
   -9.4972   -2.6217    7.0012 C   0  0  0  0  0  0  0  0  0  0  0  0
  -10.7581   -2.1345    6.8853 F   0  0  0  0  0  0  0  0  0  0  0  0
   -8.4567   -2.0278    6.2673 C   0  0  0  0  0  0  0  0  0  0  0  0
   -7.1594   -2.5331    6.4034 C   0  0  0  0  0  0  0  0  0  0  0  0
   -5.8975   -2.1147    5.7499 C   0  0  0  0  0  0  0  0  0  0  0  0
   -5.5552   -0.8433    5.4372 C   0  0  0  0  0  0  0  0  0  0  0  0
   -6.5113    0.2333    5.4395 C   0  0  0  0  0  0  0  0  0  0  0  0
   -7.2640    1.1107    5.4419 N   0  0  0  0  0  0  0  0  0  0  0  0
   -4.1765   -0.4495    5.2699 C   0  0  0  0  0  0  0  0  0  0  0  0
   -3.0725   -0.1239    5.1575 N   0  0  0  0  0  0  0  0  0  0  0  0
    5.5460    4.9696   -4.5365 H   0  0  0  0  0  0  0  0  0  0  0  0
    9.2410    5.9653   -0.7382 H   0  0  0  0  0  0  0  0  0  0  0  0
   10.3745    4.5750    0.9933 H   0  0  0  0  0  0  0  0  0  0  0  0
    8.7812    1.0036   -0.7996 H   0  0  0  0  0  0  0  0  0  0  0  0
    4.1081    1.6006   -7.3118 H   0  0  0  0  0  0  0  0  0  0  0  0
    4.2017    2.5387   -9.5865 H   0  0  0  0  0  0  0  0  0  0  0  0
    3.7075    4.9313   -9.9714 H   0  0  0  0  0  0  0  0  0  0  0  0
    3.0972    6.3912   -8.0866 H   0  0  0  0  0  0  0  0  0  0  0  0
    3.1365    6.7937   -5.6620 H   0  0  0  0  0  0  0  0  0  0  0  0
    3.2284    5.4547   -4.4913 H   0  0  0  0  0  0  0  0  0  0  0  0
    0.8312    6.1114   -6.3171 H   0  0  0  0  0  0  0  0  0  0  0  0
    0.9475    6.3667   -4.5372 H   0  0  0  0  0  0  0  0  0  0  0  0
    0.9178    4.6880   -5.2014 H   0  0  0  0  0  0  0  0  0  0  0  0
   -5.8464   -6.7397    3.3397 H   0  0  0  0  0  0  0  0  0  0  0  0
   -4.4757   -5.6186    3.4502 H   0  0  0  0  0  0  0  0  0  0  0  0
   -5.9608   -6.4285    0.8701 H   0  0  0  0  0  0  0  0  0  0  0  0
   -4.3082   -6.9447    1.3861 H   0  0  0  0  0  0  0  0  0  0  0  0
   -4.6126   -5.2246    0.9416 H   0  0  0  0  0  0  0  0  0  0  0  0
   -8.0959   -5.9620    3.1946 H   0  0  0  0  0  0  0  0  0  0  0  0
   -9.7396   -4.1317    3.1562 H   0  0  0  0  0  0  0  0  0  0  0  0
   -9.0013   -1.7940    2.8186 H   0  0  0  0  0  0  0  0  0  0  0  0
   -6.6029   -1.2662    2.6216 H   0  0  0  0  0  0  0  0  0  0  0  0
    2.9400    1.2898   -0.5199 H   0  0  0  0  0  0  0  0  0  0  0  0
    2.3808   -0.1435    0.2452 H   0  0  0  0  0  0  0  0  0  0  0  0
    0.1688    1.1136    0.7917 H   0  0  0  0  0  0  0  0  0  0  0  0
    0.8192    2.5238   -0.1290 H   0  0  0  0  0  0  0  0  0  0  0  0
    1.6232    1.9840    1.3951 H   0  0  0  0  0  0  0  0  0  0  0  0
    0.2244   -2.5447    1.8864 H   0  0  0  0  0  0  0  0  0  0  0  0
    1.0712   -1.0720    1.5526 H   0  0  0  0  0  0  0  0  0  0  0  0
    1.7760   -2.1893   -0.7313 H   0  0  0  0  0  0  0  0  0  0  0  0
    0.8017   -3.6186   -0.2260 H   0  0  0  0  0  0  0  0  0  0  0  0
    2.2617   -3.1390    0.7165 H   0  0  0  0  0  0  0  0  0  0  0  0
   -3.3030   -4.4671    5.5652 H   0  0  0  0  0  0  0  0  0  0  0  0
   -7.7356   -5.1261    8.5397 H   0  0  0  0  0  0  0  0  0  0  0  0
   -8.6779   -1.2122    5.5972 H   0  0  0  0  0  0  0  0  0  0  0  0
  1  2  2  3
  2  3  1  0
  3  4  2  0
  3  5  1  0
  5  6  2  0
  6  7  1  0
  7  8  2  0
  8  9  1  0
  8 10  1  0
 10 11  2  0
 11 12  1  0
 12 13  2  3
 13 14  1  0
 14 15  3  0
 13 16  1  0
 16 17  3  0
  1 18  1  0
 18 19  2  0
 19 20  1  0
 20 21  2  0
 21 22  1  0
 22 23  2  0
 23 24  1  0
 24 25  2  0
 25 26  1  0
 26 27  1  0
 19 28  1  0
 28 29  1  0
 29 30  1  0
 30 31  1  0
 31 32  1  0
 32 33  1  0
 33 34  2  0
 34 35  1  0
 35 36  1  0
 33 37  1  0
 37 38  1  0
 38 39  1  0
 39 40  1  0
 40 41  1  0
 41 42  1  0
 42 43  2  0
 43 44  1  0
 44 45  1  0
 43 46  1  0
 46 47  2  0
 47 48  1  0
 48 49  2  0
 41 50  2  0
 50 51  1  0
 51 52  1  0
 52 53  1  0
 53 54  1  0
 54 55  1  0
 55 56  1  0
 56 57  1  0
 57 58  1  0
 58 59  1  0
 59 60  1  0
 57 61  1  0
 61 62  1  0
 54 63  1  0
 63 64  1  0
 50 65  1  0
 65 66  2  3
 66 67  1  0
 67 68  2  0
 67 69  1  0
 69 70  2  0
 70 71  1  0
 71 72  1  0
 71 73  2  0
 73 74  1  0
 73 75  1  0
 75 76  2  0
 76 77  1  0
 77 78  2  3
 78 79  1  0
 79 80  3  0
 78 81  1  0
 81 82  3  0
 12  2  1  0
 60 18  1  0
 77 66  1  0
 11  5  1  0
 25 20  1  0
 59 28  2  0
 76 69  1  0
 58 30  2  0
 56 31  2  0
 36 32  2  0
 55 37  2  0
 53 38  2  0
 52 40  2  0
 49 42  1  0
  1 83  1  0
  6 84  1  0
  7 85  1  0
 10 86  1  0
 21 87  1  0
 22 88  1  0
 23 89  1  0
 24 90  1  0
 26 91  1  0
 26 92  1  0
 27 93  1  0
 27 94  1  0
 27 95  1  0
 44 96  1  0
 44 97  1  0
 45 98  1  0
 45 99  1  0
 45100  1  0
 46101  1  0
 47102  1  0
 48103  1  0
 49104  1  0
 61105  1  0
 61106  1  0
 62107  1  0
 62108  1  0
 62109  1  0
 63110  1  0
 63111  1  0
 64112  1  0
 64113  1  0
 64114  1  0
 65115  1  0
 70116  1  0
 75117  1  0
M  END

