
     RDKit          3D

 91103  0  0  0  0  0  0  0  0999 V2000
    3.3925   -2.8142    8.0593 C   0  0  0  0  0  0  0  0  0  0  0  0
    3.1514   -3.5423    6.8489 C   0  0  0  0  0  0  0  0  0  0  0  0
    3.1374   -4.4640    5.9812 C   0  0  0  0  0  0  0  0  0  0  0  0
    4.3569   -5.0722    5.7596 O   0  0  0  0  0  0  0  0  0  0  0  0
    2.0146   -4.8464    5.2657 C   0  0  0  0  0  0  0  0  0  0  0  0
    1.8462   -5.7995    4.2565 C   0  0  0  0  0  0  0  0  0  0  0  0
    0.6041   -5.9755    3.6838 C   0  0  0  0  0  0  0  0  0  0  0  0
   -0.4425   -5.2011    4.1230 C   0  0  0  0  0  0  0  0  0  0  0  0
   -2.2046   -5.3853    3.4338 Br  0  0  0  0  0  0  0  0  0  0  0  0
   -0.2066   -4.2470    5.1484 C   0  0  0  0  0  0  0  0  0  0  0  0
    1.0236   -4.0644    5.7088 C   0  0  0  0  0  0  0  0  0  0  0  0
    1.5432   -3.0144    6.8763 C   0  0  0  0  0  0  0  0  0  0  0  0
    0.5313   -2.8040    7.4592 C   0  0  0  0  0  0  0  0  0  0  0  0
   -0.6170   -2.0844    6.6119 C   0  0  0  0  0  0  0  0  0  0  0  0
   -1.5083   -1.5345    5.9827 N   0  0  0  0  0  0  0  0  0  0  0  0
   -0.0201   -3.0630    8.6388 C   0  0  0  0  0  0  0  0  0  0  0  0
   -0.5339   -3.3227    9.7776 N   0  0  0  0  0  0  0  0  0  0  0  0
    2.8544   -1.4753    7.6868 C   0  0  0  0  0  0  0  0  0  0  0  0
    2.5219   -0.2440    7.9612 C   0  0  0  0  0  0  0  0  0  0  0  0
    2.1828    0.5938    6.9513 C   0  0  0  0  0  0  0  0  0  0  0  0
    1.8800    2.5431    7.1584 S   0  0  0  0  0  0  0  0  0  0  0  0
    1.5983    2.7878    5.4286 C   0  0  0  0  0  0  0  0  0  0  0  0
    1.3129    3.5936    4.3846 C   0  0  0  0  0  0  0  0  0  0  0  0
    0.9620    5.0669    4.4427 C   0  0  0  0  0  0  0  0  0  0  0  0
    0.6445    5.4157    3.1532 C   0  0  0  0  0  0  0  0  0  0  0  0
    0.1054    6.8275    3.3689 N   0  0  0  0  0  0  0  0  0  0  0  0
    0.2019    7.1449    4.9616 S   0  0  0  0  0  0  0  0  0  0  0  0
    0.8689    5.6494    5.4366 N   0  0  0  0  0  0  0  0  0  0  0  0
    0.6206    4.7271    1.9984 C   0  0  0  0  0  0  0  0  0  0  0  0
    0.2475    5.1813    0.7371 C   0  0  0  0  0  0  0  0  0  0  0  0
    0.3679    3.9964   -0.0606 C   0  0  0  0  0  0  0  0  0  0  0  0
    0.7936    2.9530    0.7148 N   0  0  0  0  0  0  0  0  0  0  0  0
    1.2921    1.7477    0.1416 C   0  0  0  0  0  0  0  0  0  0  0  0
    0.3252    0.7432   -0.2344 C   0  0  0  0  0  0  0  0  0  0  0  0
    0.9370    3.4004    1.9721 C   0  0  0  0  0  0  0  0  0  0  0  0
    1.2789    2.9048    3.2376 C   0  0  0  0  0  0  0  0  0  0  0  0
    1.5392    1.6140    3.5371 N   0  0  0  0  0  0  0  0  0  0  0  0
    1.7617    1.4064    4.8435 C   0  0  0  0  0  0  0  0  0  0  0  0
    2.0088    0.8831    6.0176 C   0  0  0  0  0  0  0  0  0  0  0  0
    2.6209   -1.3769    5.6749 Se  0  0  0  0  0  2  0  0  0  0  0  0
    1.3779    0.4271    2.6947 C   0  0  0  0  0  0  0  0  0  0  0  0
   -0.0646   -0.0716    2.8113 C   0  0  0  0  0  0  0  0  0  0  0  0
    0.0328    4.2356   -1.3894 C   0  0  0  0  0  0  0  0  0  0  0  0
   -0.3116    5.3870   -1.8542 C   0  0  0  0  0  0  0  0  0  0  0  0
   -0.2148    6.3346   -0.3545 S   0  0  0  0  0  0  0  0  0  0  0  0
   -0.7635    5.4573   -3.0814 C   0  0  0  0  0  0  0  0  0  0  0  0
   -1.0692    4.9398   -4.1064 C   0  0  0  0  0  0  0  0  0  0  0  0
   -0.3734    3.0715   -2.8915 Se  0  0  0  0  0  2  0  0  0  0  0  0
   -1.4103    4.1079   -5.2351 C   0  0  0  0  0  0  0  0  0  0  0  0
   -0.8950    3.1066   -5.8523 C   0  0  0  0  0  0  0  0  0  0  0  0
    0.2397    2.3763   -5.7311 C   0  0  0  0  0  0  0  0  0  0  0  0
    1.3311    2.7238   -4.9574 O   0  0  0  0  0  0  0  0  0  0  0  0
    0.3853    1.1873   -6.4220 C   0  0  0  0  0  0  0  0  0  0  0  0
    1.1868    0.1343   -6.6869 C   0  0  0  0  0  0  0  0  0  0  0  0
    1.0348   -0.9366   -7.4495 C   0  0  0  0  0  0  0  0  0  0  0  0
    1.9469   -1.9393   -7.6392 C   0  0  0  0  0  0  0  0  0  0  0  0
    1.7419   -3.0097   -8.4336 C   0  0  0  0  0  0  0  0  0  0  0  0
    0.4942   -3.1379   -9.1250 C   0  0  0  0  0  0  0  0  0  0  0  0
    0.2732   -4.1867   -9.8978 F   0  0  0  0  0  0  0  0  0  0  0  0
   -0.4139   -2.0968   -8.9149 C   0  0  0  0  0  0  0  0  0  0  0  0
   -0.2115   -1.0092   -8.1228 C   0  0  0  0  0  0  0  0  0  0  0  0
   -1.1140    0.0142   -7.9469 C   0  0  0  0  0  0  0  0  0  0  0  0
   -0.9177    1.1012   -7.1584 C   0  0  0  0  0  0  0  0  0  0  0  0
   -1.7182    2.3018   -6.8187 C   0  0  0  0  0  0  0  0  0  0  0  0
   -2.6603    2.7684   -7.6451 C   0  0  0  0  0  0  0  0  0  0  0  0
   -2.8785    4.1836   -7.6805 C   0  0  0  0  0  0  0  0  0  0  0  0
   -3.0587    5.4046   -7.7275 N   0  0  0  0  0  0  0  0  0  0  0  0
   -3.5467    2.0128   -8.4781 C   0  0  0  0  0  0  0  0  0  0  0  0
   -4.2226    1.4107   -9.1269 N   0  0  0  0  0  0  0  0  0  0  0  0
    3.7853   -3.1754    8.8857 H   0  0  0  0  0  0  0  0  0  0  0  0
    2.6555   -6.3781    3.8688 H   0  0  0  0  0  0  0  0  0  0  0  0
    0.3575   -6.6540    2.8924 H   0  0  0  0  0  0  0  0  0  0  0  0
   -1.1139   -3.7729    5.4330 H   0  0  0  0  0  0  0  0  0  0  0  0
    2.6013    0.0294    9.0791 H   0  0  0  0  0  0  0  0  0  0  0  0
    1.7245    2.0880   -0.9659 H   0  0  0  0  0  0  0  0  0  0  0  0
    2.3207    1.5015    0.4735 H   0  0  0  0  0  0  0  0  0  0  0  0
    0.7447   -0.2890   -0.0678 H   0  0  0  0  0  0  0  0  0  0  0  0
    0.0390    0.6714   -1.3370 H   0  0  0  0  0  0  0  0  0  0  0  0
   -0.6889    0.7471    0.2186 H   0  0  0  0  0  0  0  0  0  0  0  0
    1.9854    0.2166    1.8943 H   0  0  0  0  0  0  0  0  0  0  0  0
    1.8393   -0.4159    3.3973 H   0  0  0  0  0  0  0  0  0  0  0  0
   -0.8283    0.6990    2.4900 H   0  0  0  0  0  0  0  0  0  0  0  0
   -0.2037   -1.0157    2.2479 H   0  0  0  0  0  0  0  0  0  0  0  0
   -0.2483   -0.2887    3.8840 H   0  0  0  0  0  0  0  0  0  0  0  0
   -1.0125    6.6936   -3.3891 H   0  0  0  0  0  0  0  0  0  0  0  0
   -2.4069    4.4234   -5.6159 H   0  0  0  0  0  0  0  0  0  0  0  0
    2.1991    0.1916   -6.1177 H   0  0  0  0  0  0  0  0  0  0  0  0
    2.9221   -1.8553   -7.1173 H   0  0  0  0  0  0  0  0  0  0  0  0
    2.4588   -3.8146   -8.6007 H   0  0  0  0  0  0  0  0  0  0  0  0
   -1.3671   -2.1602   -9.4497 H   0  0  0  0  0  0  0  0  0  0  0  0
   -2.0578   -0.0429   -8.4817 H   0  0  0  0  0  0  0  0  0  0  0  0
  1  2  2  3
  2  3  1  0
  3  4  2  0
  3  5  1  0
  5  6  2  0
  6  7  1  0
  7  8  2  0
  8  9  1  0
  8 10  1  0
 10 11  2  0
 11 12  1  0
 12 13  2  3
 13 14  1  0
 14 15  3  0
 13 16  1  0
 16 17  3  0
  1 18  1  0
 18 19  2  0
 19 20  1  0
 20 21  1  0
 21 22  1  0
 22 23  1  0
 23 24  1  0
 24 25  1  0
 25 26  2  0
 26 27  1  0
 27 28  1  0
 25 29  1  0
 29 30  1  0
 30 31  2  0
 31 32  1  0
 32 33  1  0
 33 34  1  0
 32 35  1  0
 35 36  1  0
 36 37  1  0
 37 38  1  0
 38 39  1  0
 39 40  1  0
 37 41  1  0
 41 42  1  0
 31 43  1  0
 43 44  2  0
 44 45  1  0
 44 46  1  0
 46 47  2  0
 47 48  1  0
 47 49  1  0
 49 50  2  3
 50 51  1  0
 51 52  2  0
 51 53  1  0
 53 54  2  0
 54 55  1  0
 55 56  2  0
 56 57  1  0
 57 58  2  0
 58 59  1  0
 58 60  1  0
 60 61  2  0
 61 62  1  0
 62 63  2  0
 63 64  1  0
 64 65  2  3
 65 66  1  0
 66 67  3  0
 65 68  1  0
 68 69  3  0
 12  2  1  0
 40 18  1  0
 48 43  1  0
 64 50  1  0
 11  5  1  0
 39 20  2  0
 63 53  1  0
 38 22  2  0
 61 55  1  0
 36 23  2  0
 28 24  2  0
 35 29  2  0
 45 30  1  0
  1 70  1  0
  6 71  1  0
  7 72  1  0
 10 73  1  0
 19 74  1  0
 33 75  1  0
 33 76  1  0
 34 77  1  0
 34 78  1  0
 34 79  1  0
 41 80  1  0
 41 81  1  0
 42 82  1  0
 42 83  1  0
 42 84  1  0
 46 85  1  0
 49 86  1  0
 54 87  1  0
 56 88  1  0
 57 89  1  0
 60 90  1  0
 62 91  1  0
M  END

