
     RDKit          3D

117130  0  0  0  0  0  0  0  0999 V2000
   -1.7807   -6.7888    2.0955 C   0  0  0  0  0  0  0  0  0  0  0  0
   -1.1206   -7.9163    2.4178 C   0  0  0  0  0  0  0  0  0  0  0  0
    0.3157   -8.1382    2.2349 C   0  0  0  0  0  0  0  0  0  0  0  0
    1.2015   -7.2494    2.1196 O   0  0  0  0  0  0  0  0  0  0  0  0
    0.5614   -9.5612    2.2668 C   0  0  0  0  0  0  0  0  0  0  0  0
    1.7515  -10.2342    1.9963 C   0  0  0  0  0  0  0  0  0  0  0  0
    1.7388  -11.6355    1.9894 C   0  0  0  0  0  0  0  0  0  0  0  0
    0.5400  -12.3324    2.2217 C   0  0  0  0  0  0  0  0  0  0  0  0
    0.5237  -14.2387    2.1461 Br  0  0  0  0  0  0  0  0  0  0  0  0
   -0.6506  -11.6333    2.4840 C   0  0  0  0  0  0  0  0  0  0  0  0
   -0.6198  -10.2304    2.5391 C   0  0  0  0  0  0  0  0  0  0  0  0
   -1.7095   -9.2420    2.7827 C   0  0  0  0  0  0  0  0  0  0  0  0
   -2.8995   -9.4765    3.3930 C   0  0  0  0  0  0  0  0  0  0  0  0
   -3.7866   -8.4140    3.7931 C   0  0  0  0  0  0  0  0  0  0  0  0
   -4.5062   -7.5672    4.1220 N   0  0  0  0  0  0  0  0  0  0  0  0
   -3.3036  -10.7924    3.8148 C   0  0  0  0  0  0  0  0  0  0  0  0
   -3.6417  -11.8442    4.1608 N   0  0  0  0  0  0  0  0  0  0  0  0
   -1.1369   -5.6625    1.4065 C   0  0  0  0  0  0  0  0  0  0  0  0
   -0.6819   -5.6649    0.0731 C   0  0  0  0  0  0  0  0  0  0  0  0
   -0.7668   -6.8054   -0.8585 C   0  0  0  0  0  0  0  0  0  0  0  0
    0.3541   -7.6405   -1.0000 C   0  0  0  0  0  0  0  0  0  0  0  0
    0.3053   -8.7610   -1.8295 C   0  0  0  0  0  0  0  0  0  0  0  0
   -0.8573   -9.0519   -2.5419 C   0  0  0  0  0  0  0  0  0  0  0  0
   -1.9643   -8.2062   -2.4512 C   0  0  0  0  0  0  0  0  0  0  0  0
   -1.9327   -7.0684   -1.6228 C   0  0  0  0  0  0  0  0  0  0  0  0
   -3.1324   -6.1469   -1.6204 C   0  0  0  0  0  0  0  0  0  0  0  0
   -4.2843   -6.7219   -0.8040 C   0  0  0  0  0  0  0  0  0  0  0  0
   -0.1853   -4.4140   -0.2817 C   0  0  0  0  0  0  0  0  0  0  0  0
    0.5432   -3.8063   -1.6990 S   0  0  0  0  0  0  0  0  0  0  0  0
    0.6871   -2.2740   -0.9809 C   0  0  0  0  0  0  0  0  0  0  0  0
    1.3718   -1.1163   -1.1930 C   0  0  0  0  0  0  0  0  0  0  0  0
    2.2744   -0.7574   -2.1991 C   0  0  0  0  0  0  0  0  0  0  0  0
    3.0321    0.4393   -2.0423 C   0  0  0  0  0  0  0  0  0  0  0  0
    3.8883    0.7614   -3.0433 N   0  0  0  0  0  0  0  0  0  0  0  0
    3.6366   -0.5286   -4.0504 S   0  0  0  0  0  0  0  0  0  0  0  0
    2.5004   -1.4877   -3.3188 N   0  0  0  0  0  0  0  0  0  0  0  0
    2.8155    1.2301   -0.9032 C   0  0  0  0  0  0  0  0  0  0  0  0
    3.1685    2.5239   -0.6490 C   0  0  0  0  0  0  0  0  0  0  0  0
    3.8575    3.7889   -1.5477 S   0  0  0  0  0  0  0  0  0  0  0  0
    3.1054    4.9446   -0.5504 C   0  0  0  0  0  0  0  0  0  0  0  0
    3.0153    6.3353   -0.6013 C   0  0  0  0  0  0  0  0  0  0  0  0
    3.8179    7.1886   -1.4960 C   0  0  0  0  0  0  0  0  0  0  0  0
    3.5295    7.3197   -2.8787 C   0  0  0  0  0  0  0  0  0  0  0  0
    2.3104    6.6927   -3.5134 C   0  0  0  0  0  0  0  0  0  0  0  0
    1.1564    7.6893   -3.5548 C   0  0  0  0  0  0  0  0  0  0  0  0
    4.3511    8.1393   -3.6721 C   0  0  0  0  0  0  0  0  0  0  0  0
    5.4374    8.8120   -3.1130 C   0  0  0  0  0  0  0  0  0  0  0  0
    5.7187    8.6788   -1.7534 C   0  0  0  0  0  0  0  0  0  0  0  0
    4.9113    7.8742   -0.9478 C   0  0  0  0  0  0  0  0  0  0  0  0
    2.0818    6.8091    0.3339 C   0  0  0  0  0  0  0  0  0  0  0  0
    1.4145    5.5082    1.2105 S   0  0  0  0  0  0  0  0  0  0  0  0
    2.3136    4.3478    0.3977 C   0  0  0  0  0  0  0  0  0  0  0  0
    2.3690    2.9599    0.3605 C   0  0  0  0  0  0  0  0  0  0  0  0
    1.5366    1.9950    0.8339 N   0  0  0  0  0  0  0  0  0  0  0  0
    1.8600    0.8962    0.0732 C   0  0  0  0  0  0  0  0  0  0  0  0
    1.2024   -0.3571   -0.0249 C   0  0  0  0  0  0  0  0  0  0  0  0
    0.5507   -1.0854    0.9403 N   0  0  0  0  0  0  0  0  0  0  0  0
    0.2229   -2.2316    0.2924 C   0  0  0  0  0  0  0  0  0  0  0  0
   -0.2611   -3.4641    0.7042 C   0  0  0  0  0  0  0  0  0  0  0  0
   -0.9471   -4.1170    2.0910 S   0  0  0  0  0  0  0  0  0  0  0  0
    0.7759   -1.0170    2.3897 C   0  0  0  0  0  0  0  0  0  0  0  0
    2.2214   -1.3765    2.7393 C   0  0  0  0  0  0  0  0  0  0  0  0
    0.2566    2.2888    1.4970 C   0  0  0  0  0  0  0  0  0  0  0  0
    0.4718    2.7800    2.9358 C   0  0  0  0  0  0  0  0  0  0  0  0
    1.7760    8.2213    0.5917 C   0  0  0  0  0  0  0  0  0  0  0  0
    0.5540    8.7542    0.4098 C   0  0  0  0  0  0  0  0  0  0  0  0
   -0.6340    8.0325   -0.0614 C   0  0  0  0  0  0  0  0  0  0  0  0
   -0.6474    6.9187   -0.6588 O   0  0  0  0  0  0  0  0  0  0  0  0
   -1.7984    8.8496    0.1930 C   0  0  0  0  0  0  0  0  0  0  0  0
   -3.1396    8.5273   -0.0132 C   0  0  0  0  0  0  0  0  0  0  0  0
   -4.1169    9.4587    0.3656 C   0  0  0  0  0  0  0  0  0  0  0  0
   -5.8148    9.0926    0.1174 Cl  0  0  0  0  0  0  0  0  0  0  0  0
   -3.7392   10.6769    0.9612 C   0  0  0  0  0  0  0  0  0  0  0  0
   -2.3820   10.9796    1.1631 C   0  0  0  0  0  0  0  0  0  0  0  0
   -1.4064   10.0599    0.7425 C   0  0  0  0  0  0  0  0  0  0  0  0
    0.0851   10.1226    0.8054 C   0  0  0  0  0  0  0  0  0  0  0  0
    0.8496   11.2384    0.9650 C   0  0  0  0  0  0  0  0  0  0  0  0
    2.2714   11.2459    0.7290 C   0  0  0  0  0  0  0  0  0  0  0  0
    3.4099   11.2593    0.5259 N   0  0  0  0  0  0  0  0  0  0  0  0
    0.2802   12.5361    1.2217 C   0  0  0  0  0  0  0  0  0  0  0  0
   -0.1661   13.5882    1.4184 N   0  0  0  0  0  0  0  0  0  0  0  0
   -2.8430   -6.7035    2.2355 H   0  0  0  0  0  0  0  0  0  0  0  0
    2.6624   -9.6906    1.7799 H   0  0  0  0  0  0  0  0  0  0  0  0
    2.6522  -12.1776    1.7761 H   0  0  0  0  0  0  0  0  0  0  0  0
   -1.5614  -12.1917    2.6014 H   0  0  0  0  0  0  0  0  0  0  0  0
    1.2693   -7.4231   -0.4643 H   0  0  0  0  0  0  0  0  0  0  0  0
    1.1706   -9.4078   -1.9190 H   0  0  0  0  0  0  0  0  0  0  0  0
   -0.8926   -9.9244   -3.1829 H   0  0  0  0  0  0  0  0  0  0  0  0
   -2.8469   -8.4327   -3.0353 H   0  0  0  0  0  0  0  0  0  0  0  0
   -3.4791   -5.9985   -2.6665 H   0  0  0  0  0  0  0  0  0  0  0  0
   -2.8758   -5.1386   -1.2321 H   0  0  0  0  0  0  0  0  0  0  0  0
   -4.5406   -7.7500   -1.1484 H   0  0  0  0  0  0  0  0  0  0  0  0
   -5.1804   -6.0739   -0.9177 H   0  0  0  0  0  0  0  0  0  0  0  0
   -4.0122   -6.7551    0.2714 H   0  0  0  0  0  0  0  0  0  0  0  0
    1.9880    5.7844   -2.9629 H   0  0  0  0  0  0  0  0  0  0  0  0
    2.5488    6.3693   -4.5505 H   0  0  0  0  0  0  0  0  0  0  0  0
    1.4019    8.5374   -4.2294 H   0  0  0  0  0  0  0  0  0  0  0  0
    0.2423    7.1871   -3.9318 H   0  0  0  0  0  0  0  0  0  0  0  0
    0.9499    8.0815   -2.5382 H   0  0  0  0  0  0  0  0  0  0  0  0
    4.1381    8.2692   -4.7270 H   0  0  0  0  0  0  0  0  0  0  0  0
    6.0598    9.4405   -3.7338 H   0  0  0  0  0  0  0  0  0  0  0  0
    6.5581    9.2038   -1.3209 H   0  0  0  0  0  0  0  0  0  0  0  0
    5.1388    7.7836    0.1070 H   0  0  0  0  0  0  0  0  0  0  0  0
    0.5605   -0.0167    2.7780 H   0  0  0  0  0  0  0  0  0  0  0  0
    0.0846   -1.7003    2.9238 H   0  0  0  0  0  0  0  0  0  0  0  0
    2.8911   -0.5475    2.4364 H   0  0  0  0  0  0  0  0  0  0  0  0
    2.3183   -1.5311    3.8308 H   0  0  0  0  0  0  0  0  0  0  0  0
    2.5195   -2.3083    2.2144 H   0  0  0  0  0  0  0  0  0  0  0  0
   -0.2716    3.0786    0.9232 H   0  0  0  0  0  0  0  0  0  0  0  0
   -0.4241    1.4173    1.4766 H   0  0  0  0  0  0  0  0  0  0  0  0
    0.4290    1.9512    3.6678 H   0  0  0  0  0  0  0  0  0  0  0  0
    1.4558    3.2803    3.0553 H   0  0  0  0  0  0  0  0  0  0  0  0
   -0.3245    3.5105    3.2049 H   0  0  0  0  0  0  0  0  0  0  0  0
    2.5779    8.7954    1.0136 H   0  0  0  0  0  0  0  0  0  0  0  0
   -3.4176    7.5791   -0.4516 H   0  0  0  0  0  0  0  0  0  0  0  0
   -4.4958   11.3824    1.2779 H   0  0  0  0  0  0  0  0  0  0  0  0
   -2.1330   11.9042    1.6575 H   0  0  0  0  0  0  0  0  0  0  0  0
  1  2  2  3
  2  3  1  0
  3  4  2  0
  3  5  1  0
  5  6  2  0
  6  7  1  0
  7  8  2  0
  8  9  1  0
  8 10  1  0
 10 11  2  0
 11 12  1  0
 12 13  2  3
 13 14  1  0
 14 15  3  0
 13 16  1  0
 16 17  3  0
  1 18  1  0
 18 19  2  0
 19 20  1  0
 20 21  2  0
 21 22  1  0
 22 23  2  0
 23 24  1  0
 24 25  2  0
 25 26  1  0
 26 27  1  0
 19 28  1  0
 28 29  1  0
 29 30  1  0
 30 31  1  0
 31 32  1  0
 32 33  1  0
 33 34  2  0
 34 35  1  0
 35 36  1  0
 33 37  1  0
 37 38  1  0
 38 39  1  0
 39 40  1  0
 40 41  1  0
 41 42  1  0
 42 43  2  0
 43 44  1  0
 44 45  1  0
 43 46  1  0
 46 47  2  0
 47 48  1  0
 48 49  2  0
 41 50  2  0
 50 51  1  0
 51 52  1  0
 52 53  1  0
 53 54  1  0
 54 55  1  0
 55 56  1  0
 56 57  1  0
 57 58  1  0
 58 59  1  0
 59 60  1  0
 57 61  1  0
 61 62  1  0
 54 63  1  0
 63 64  1  0
 50 65  1  0
 65 66  2  3
 66 67  1  0
 67 68  2  0
 67 69  1  0
 69 70  2  0
 70 71  1  0
 71 72  1  0
 71 73  2  0
 73 74  1  0
 74 75  2  0
 75 76  1  0
 76 77  2  3
 77 78  1  0
 78 79  3  0
 77 80  1  0
 80 81  3  0
 12  2  1  0
 60 18  1  0
 76 66  1  0
 11  5  1  0
 25 20  1  0
 59 28  2  0
 75 69  1  0
 58 30  2  0
 56 31  2  0
 36 32  2  0
 55 37  2  0
 53 38  2  0
 52 40  2  0
 49 42  1  0
  1 82  1  0
  6 83  1  0
  7 84  1  0
 10 85  1  0
 21 86  1  0
 22 87  1  0
 23 88  1  0
 24 89  1  0
 26 90  1  0
 26 91  1  0
 27 92  1  0
 27 93  1  0
 27 94  1  0
 44 95  1  0
 44 96  1  0
 45 97  1  0
 45 98  1  0
 45 99  1  0
 46100  1  0
 47101  1  0
 48102  1  0
 49103  1  0
 61104  1  0
 61105  1  0
 62106  1  0
 62107  1  0
 62108  1  0
 63109  1  0
 63110  1  0
 64111  1  0
 64112  1  0
 64113  1  0
 65114  1  0
 70115  1  0
 73116  1  0
 74117  1  0
M  END

