
     RDKit          3D

107120  0  0  0  0  0  0  0  0999 V2000
    6.4158   -4.7248   -0.9950 C   0  0  0  0  0  0  0  0  0  0  0  0
    6.5744   -5.6008    0.0149 C   0  0  0  0  0  0  0  0  0  0  0  0
    7.8750   -6.2011    0.3108 C   0  0  0  0  0  0  0  0  0  0  0  0
    8.8714   -6.2284   -0.4587 O   0  0  0  0  0  0  0  0  0  0  0  0
    7.8715   -6.6507    1.6830 C   0  0  0  0  0  0  0  0  0  0  0  0
    8.9336   -7.1726    2.4275 C   0  0  0  0  0  0  0  0  0  0  0  0
    8.7241   -7.4484    3.7881 C   0  0  0  0  0  0  0  0  0  0  0  0
    7.4852   -7.1571    4.3834 C   0  0  0  0  0  0  0  0  0  0  0  0
    7.2275   -7.5055    6.2483 Br  0  0  0  0  0  0  0  0  0  0  0  0
    6.4279   -6.6259    3.6167 C   0  0  0  0  0  0  0  0  0  0  0  0
    6.6302   -6.4045    2.2438 C   0  0  0  0  0  0  0  0  0  0  0  0
    5.7035   -5.8900    1.1963 C   0  0  0  0  0  0  0  0  0  0  0  0
    4.3531   -6.0304    1.2004 C   0  0  0  0  0  0  0  0  0  0  0  0
    3.5541   -5.8915    0.0123 C   0  0  0  0  0  0  0  0  0  0  0  0
    2.8791   -5.7828   -0.9261 N   0  0  0  0  0  0  0  0  0  0  0  0
    3.6299   -6.4895    2.3585 C   0  0  0  0  0  0  0  0  0  0  0  0
    3.0320   -6.8689    3.2782 N   0  0  0  0  0  0  0  0  0  0  0  0
    5.2850   -3.8015   -1.1805 C   0  0  0  0  0  0  0  0  0  0  0  0
    4.5691   -3.6180   -2.7122 S   0  0  0  0  0  0  0  0  0  0  0  0
    3.5612   -2.4002   -2.1849 C   0  0  0  0  0  0  0  0  0  0  0  0
    2.7844   -1.4519   -2.7728 C   0  0  0  0  0  0  0  0  0  0  0  0
    2.5620   -1.1939   -4.1280 C   0  0  0  0  0  0  0  0  0  0  0  0
    1.9455    0.0310   -4.4956 C   0  0  0  0  0  0  0  0  0  0  0  0
    1.7445    0.2461   -5.8198 N   0  0  0  0  0  0  0  0  0  0  0  0
    2.4049   -1.1440   -6.4322 S   0  0  0  0  0  0  0  0  0  0  0  0
    2.9257   -2.0294   -5.1328 N   0  0  0  0  0  0  0  0  0  0  0  0
    1.5496    0.9131   -3.4876 C   0  0  0  0  0  0  0  0  0  0  0  0
    0.7384    2.0069   -3.5650 C   0  0  0  0  0  0  0  0  0  0  0  0
   -0.2618    2.6858   -4.7573 S   0  0  0  0  0  0  0  0  0  0  0  0
   -1.2537    3.3979   -3.5762 C   0  0  0  0  0  0  0  0  0  0  0  0
   -2.5008    4.0257   -3.6483 C   0  0  0  0  0  0  0  0  0  0  0  0
   -3.1835    4.4050   -4.9297 C   0  0  0  0  0  0  0  0  0  0  0  0
   -3.9953    3.2419   -5.4887 C   0  0  0  0  0  0  0  0  0  0  0  0
   -3.0731    4.1307   -2.3736 C   0  0  0  0  0  0  0  0  0  0  0  0
   -2.0015    3.5102   -1.2016 S   0  0  0  0  0  0  0  0  0  0  0  0
   -0.8336    3.0633   -2.3122 C   0  0  0  0  0  0  0  0  0  0  0  0
    0.3149    2.2722   -2.3045 C   0  0  0  0  0  0  0  0  0  0  0  0
    0.8357    1.4160   -1.3801 N   0  0  0  0  0  0  0  0  0  0  0  0
    1.6821    0.6105   -2.1165 C   0  0  0  0  0  0  0  0  0  0  0  0
    2.4218   -0.5640   -1.7521 C   0  0  0  0  0  0  0  0  0  0  0  0
    3.0862   -0.9064   -0.5888 N   0  0  0  0  0  0  0  0  0  0  0  0
    3.7786   -2.0483   -0.9004 C   0  0  0  0  0  0  0  0  0  0  0  0
    4.8181   -2.8023   -0.2829 C   0  0  0  0  0  0  0  0  0  0  0  0
    5.5797   -2.4477    0.9759 C   0  0  0  0  0  0  0  0  0  0  0  0
    6.7876   -1.5733    0.6554 C   0  0  0  0  0  0  0  0  0  0  0  0
    3.2159   -0.1268    0.6441 C   0  0  0  0  0  0  0  0  0  0  0  0
    2.4017   -0.7659    1.7802 C   0  0  0  0  0  0  0  0  0  0  0  0
    0.1339    1.0876   -0.1296 C   0  0  0  0  0  0  0  0  0  0  0  0
   -0.8462   -0.0650   -0.3321 C   0  0  0  0  0  0  0  0  0  0  0  0
   -4.4340    4.5986   -2.0710 C   0  0  0  0  0  0  0  0  0  0  0  0
   -5.3183    3.8463   -1.3868 C   0  0  0  0  0  0  0  0  0  0  0  0
   -5.0853    2.4666   -0.9444 C   0  0  0  0  0  0  0  0  0  0  0  0
   -4.3365    1.6189   -1.5018 O   0  0  0  0  0  0  0  0  0  0  0  0
   -5.8873    2.2174    0.2287 C   0  0  0  0  0  0  0  0  0  0  0  0
   -5.7177    1.1608    1.1538 C   0  0  0  0  0  0  0  0  0  0  0  0
   -6.4198    1.3326    2.3309 C   0  0  0  0  0  0  0  0  0  0  0  0
   -7.2685    2.4584    2.5810 C   0  0  0  0  0  0  0  0  0  0  0  0
   -7.4478    3.4905    1.6738 C   0  0  0  0  0  0  0  0  0  0  0  0
   -6.7246    3.3416    0.4555 C   0  0  0  0  0  0  0  0  0  0  0  0
   -6.5121    4.3328   -0.6380 C   0  0  0  0  0  0  0  0  0  0  0  0
   -7.3276    5.3681   -0.9692 C   0  0  0  0  0  0  0  0  0  0  0  0
   -7.1209    6.1451   -2.1625 C   0  0  0  0  0  0  0  0  0  0  0  0
   -6.9622    6.7734   -3.1200 N   0  0  0  0  0  0  0  0  0  0  0  0
   -8.5229    5.6697   -0.2285 C   0  0  0  0  0  0  0  0  0  0  0  0
   -9.4814    5.9257    0.3682 N   0  0  0  0  0  0  0  0  0  0  0  0
   -7.5192    1.9791    3.9826 C   0  0  0  0  0  0  0  0  0  0  0  0
   -6.8002    2.7414    5.1374 C   0  0  0  0  0  0  0  0  0  0  0  0
   -5.4909    3.3135    4.6422 C   0  0  0  0  0  0  0  0  0  0  0  0
   -4.6867    2.2774    4.4088 C   0  0  0  0  0  0  0  0  0  0  0  0
   -5.4751    1.0343    4.7519 C   0  0  0  0  0  0  0  0  0  0  0  0
   -6.2599    1.5704    5.9348 C   0  0  0  0  0  0  0  0  0  0  0  0
   -6.6386    0.8343    3.7301 C   0  0  0  0  0  0  0  0  0  0  0  0
    7.1925   -4.6648   -1.7469 H   0  0  0  0  0  0  0  0  0  0  0  0
    9.8947   -7.3584    1.9686 H   0  0  0  0  0  0  0  0  0  0  0  0
    9.5336   -7.8589    4.3825 H   0  0  0  0  0  0  0  0  0  0  0  0
    5.5052   -6.3680    4.1098 H   0  0  0  0  0  0  0  0  0  0  0  0
   -3.8541    5.2758   -4.7577 H   0  0  0  0  0  0  0  0  0  0  0  0
   -2.4229    4.7156   -5.6777 H   0  0  0  0  0  0  0  0  0  0  0  0
   -4.5222    3.5757   -6.4043 H   0  0  0  0  0  0  0  0  0  0  0  0
   -3.3260    2.3981   -5.7527 H   0  0  0  0  0  0  0  0  0  0  0  0
   -4.7523    2.9008   -4.7509 H   0  0  0  0  0  0  0  0  0  0  0  0
    5.9434   -3.3613    1.4781 H   0  0  0  0  0  0  0  0  0  0  0  0
    4.9588   -1.9576    1.7320 H   0  0  0  0  0  0  0  0  0  0  0  0
    7.3693   -1.4066    1.5860 H   0  0  0  0  0  0  0  0  0  0  0  0
    7.4553   -2.0824   -0.0735 H   0  0  0  0  0  0  0  0  0  0  0  0
    6.4687   -0.5990    0.2398 H   0  0  0  0  0  0  0  0  0  0  0  0
    4.2743   -0.0368    0.9365 H   0  0  0  0  0  0  0  0  0  0  0  0
    2.9155    0.9228    0.4666 H   0  0  0  0  0  0  0  0  0  0  0  0
    2.2429   -0.0270    2.5933 H   0  0  0  0  0  0  0  0  0  0  0  0
    2.9073   -1.6471    2.2138 H   0  0  0  0  0  0  0  0  0  0  0  0
    1.4200   -1.1233    1.4144 H   0  0  0  0  0  0  0  0  0  0  0  0
    0.8165    0.8623    0.6801 H   0  0  0  0  0  0  0  0  0  0  0  0
   -0.4064    1.9702    0.2576 H   0  0  0  0  0  0  0  0  0  0  0  0
   -1.3662   -0.2869    0.6247 H   0  0  0  0  0  0  0  0  0  0  0  0
   -0.3024   -0.9747   -0.6646 H   0  0  0  0  0  0  0  0  0  0  0  0
   -1.6050    0.2093   -1.0933 H   0  0  0  0  0  0  0  0  0  0  0  0
   -4.6404    5.6306   -2.2936 H   0  0  0  0  0  0  0  0  0  0  0  0
   -5.0096    0.3572    1.0124 H   0  0  0  0  0  0  0  0  0  0  0  0
   -8.0082    4.3699    1.9464 H   0  0  0  0  0  0  0  0  0  0  0  0
   -8.5740    1.6895    4.1892 H   0  0  0  0  0  0  0  0  0  0  0  0
   -7.4398    3.4493    5.7039 H   0  0  0  0  0  0  0  0  0  0  0  0
   -5.2241    4.3592    4.5522 H   0  0  0  0  0  0  0  0  0  0  0  0
   -3.6507    2.3374    4.0968 H   0  0  0  0  0  0  0  0  0  0  0  0
   -4.8618    0.1309    4.9565 H   0  0  0  0  0  0  0  0  0  0  0  0
   -7.0501    0.8682    6.2913 H   0  0  0  0  0  0  0  0  0  0  0  0
   -5.6114    1.8750    6.7925 H   0  0  0  0  0  0  0  0  0  0  0  0
   -7.1515   -0.1529    3.7873 H   0  0  0  0  0  0  0  0  0  0  0  0
  1  2  2  3
  2  3  1  0
  3  4  2  0
  3  5  1  0
  5  6  2  0
  6  7  1  0
  7  8  2  0
  8  9  1  0
  8 10  1  0
 10 11  2  0
 11 12  1  0
 12 13  2  3
 13 14  1  0
 14 15  3  0
 13 16  1  0
 16 17  3  0
  1 18  1  0
 18 19  1  0
 19 20  1  0
 20 21  1  0
 21 22  1  0
 22 23  1  0
 23 24  2  0
 24 25  1  0
 25 26  1  0
 23 27  1  0
 27 28  1  0
 28 29  1  0
 29 30  1  0
 30 31  1  0
 31 32  1  0
 32 33  1  0
 31 34  2  0
 34 35  1  0
 35 36  1  0
 36 37  1  0
 37 38  1  0
 38 39  1  0
 39 40  1  0
 40 41  1  0
 41 42  1  0
 42 43  1  0
 43 44  1  0
 44 45  1  0
 41 46  1  0
 46 47  1  0
 38 48  1  0
 48 49  1  0
 34 50  1  0
 50 51  2  3
 51 52  1  0
 52 53  2  0
 52 54  1  0
 54 55  2  0
 55 56  1  0
 56 57  2  0
 57 58  1  0
 58 59  2  0
 59 60  1  0
 60 61  2  3
 61 62  1  0
 62 63  3  0
 61 64  1  0
 64 65  3  0
 57 66  1  0
 66 67  1  0
 67 68  1  0
 68 69  2  0
 69 70  1  0
 70 71  1  0
 70 72  1  0
 12  2  1  0
 43 18  2  0
 60 51  1  0
 72 66  1  0
 11  5  1  0
 42 20  2  0
 59 54  1  0
 71 67  1  0
 40 21  2  0
 72 56  1  0
 26 22  2  0
 39 27  2  0
 37 28  2  0
 36 30  2  0
  1 73  1  0
  6 74  1  0
  7 75  1  0
 10 76  1  0
 32 77  1  0
 32 78  1  0
 33 79  1  0
 33 80  1  0
 33 81  1  0
 44 82  1  0
 44 83  1  0
 45 84  1  0
 45 85  1  0
 45 86  1  0
 46 87  1  0
 46 88  1  0
 47 89  1  0
 47 90  1  0
 47 91  1  0
 48 92  1  0
 48 93  1  0
 49 94  1  0
 49 95  1  0
 49 96  1  0
 50 97  1  0
 55 98  1  0
 58 99  1  0
 66100  1  0
 67101  1  0
 68102  1  0
 69103  1  0
 70104  1  0
 71105  1  0
 71106  1  0
 72107  1  0
M  END

