
     RDKit          3D

141152  0  0  0  0  0  0  0  0999 V2000
   -2.4772    2.3211    3.5211 C   0  0  0  0  0  0  0  0  0  0  0  0
   -1.3068    2.9317    3.3551 C   0  0  0  0  0  0  0  0  0  0  0  0
   -0.3192    2.6429    2.2767 C   0  0  0  0  0  0  0  0  0  0  0  0
   -0.6226    2.4562    1.1206 O   0  0  0  0  0  0  0  0  0  0  0  0
    0.9971    3.0319    2.8043 C   0  0  0  0  0  0  0  0  0  0  0  0
    2.2323    2.6071    2.2340 C   0  0  0  0  0  0  0  0  0  0  0  0
    3.3320    2.5549    3.1069 C   0  0  0  0  0  0  0  0  0  0  0  0
    3.2335    2.9827    4.4256 C   0  0  0  0  0  0  0  0  0  0  0  0
    4.7292    2.7506    5.5807 Br  0  0  0  0  0  0  0  0  0  0  0  0
    2.0458    3.6074    4.8877 C   0  0  0  0  0  0  0  0  0  0  0  0
    0.9068    3.4409    4.0603 C   0  0  0  0  0  0  0  0  0  0  0  0
   -0.5307    3.4968    4.4916 C   0  0  0  0  0  0  0  0  0  0  0  0
   -1.0254    4.2967    5.3961 C   0  0  0  0  0  0  0  0  0  0  0  0
   -0.8929    3.9419    6.8078 C   0  0  0  0  0  0  0  0  0  0  0  0
   -0.7436    3.7131    7.9152 N   0  0  0  0  0  0  0  0  0  0  0  0
   -1.2456    5.6550    5.0775 C   0  0  0  0  0  0  0  0  0  0  0  0
   -1.3342    6.7946    4.8111 N   0  0  0  0  0  0  0  0  0  0  0  0
   -2.7466    1.0441    2.7641 C   0  0  0  0  0  0  0  0  0  0  0  0
   -2.4455   -0.1970    3.2343 C   0  0  0  0  0  0  0  0  0  0  0  0
   -2.1062   -0.4354    4.5256 O   0  0  0  0  0  0  0  0  0  0  0  0
   -2.9740   -1.1042    5.4426 C   0  0  0  0  0  0  0  0  0  0  0  0
   -4.3816   -0.5204    5.5027 C   0  0  0  0  0  0  0  0  0  0  0  0
   -2.1338   -1.0396    2.1387 C   0  0  0  0  0  0  0  0  0  0  0  0
   -1.5419   -2.4053    2.0132 C   0  0  0  0  0  0  0  0  0  0  0  0
   -2.6872   -3.4490    1.9906 C   0  0  0  0  0  0  0  0  0  0  0  0
   -2.4190   -4.6473    1.2876 C   0  0  0  0  0  0  0  0  0  0  0  0
   -3.4378   -5.5726    1.1027 C   0  0  0  0  0  0  0  0  0  0  0  0
   -4.7549   -5.2509    1.4621 C   0  0  0  0  0  0  0  0  0  0  0  0
   -5.8822   -6.1956    1.2198 C   0  0  0  0  0  0  0  0  0  0  0  0
   -5.6619   -7.4284    2.0450 C   0  0  0  0  0  0  0  0  0  0  0  0
   -4.9581   -4.1161    2.2388 C   0  0  0  0  0  0  0  0  0  0  0  0
   -4.0125   -3.1383    2.2633 C   0  0  0  0  0  0  0  0  0  0  0  0
   -0.4874   -2.7325    2.9492 C   0  0  0  0  0  0  0  0  0  0  0  0
    0.4325   -1.7134    3.2138 C   0  0  0  0  0  0  0  0  0  0  0  0
    1.2355   -1.7906    4.3459 C   0  0  0  0  0  0  0  0  0  0  0  0
    0.8943   -2.6611    5.3614 C   0  0  0  0  0  0  0  0  0  0  0  0
    1.4728   -2.5920    6.7888 C   0  0  0  0  0  0  0  0  0  0  0  0
    1.8499   -1.1758    7.1586 C   0  0  0  0  0  0  0  0  0  0  0  0
    0.0569   -3.7524    5.0667 C   0  0  0  0  0  0  0  0  0  0  0  0
   -0.6508   -3.7364    3.8879 C   0  0  0  0  0  0  0  0  0  0  0  0
   -1.1471   -2.3148    0.5636 C   0  0  0  0  0  0  0  0  0  0  0  0
   -2.1051   -1.6095   -0.0819 C   0  0  0  0  0  0  0  0  0  0  0  0
   -2.7490   -0.7575    0.9971 C   0  0  0  0  0  0  0  0  0  0  0  0
   -3.2460    0.8127    1.1857 S   0  0  0  0  0  0  0  0  0  0  0  0
   -2.0781   -1.4672   -1.4672 C   0  0  0  0  0  0  0  0  0  0  0  0
   -0.8088   -1.8409   -2.1014 C   0  0  0  0  0  0  0  0  0  0  0  0
   -0.3182   -1.3150   -3.4342 C   0  0  0  0  0  0  0  0  0  0  0  0
   -0.7316   -2.3644   -4.4068 C   0  0  0  0  0  0  0  0  0  0  0  0
    0.1184   -3.2735   -5.0095 C   0  0  0  0  0  0  0  0  0  0  0  0
   -0.2814   -3.9098   -6.1703 C   0  0  0  0  0  0  0  0  0  0  0  0
   -1.6096   -3.8451   -6.5926 C   0  0  0  0  0  0  0  0  0  0  0  0
   -1.9269   -3.9952   -8.0395 C   0  0  0  0  0  0  0  0  0  0  0  0
   -1.8301   -2.6187   -8.6700 C   0  0  0  0  0  0  0  0  0  0  0  0
   -2.5388   -3.2850   -5.7286 C   0  0  0  0  0  0  0  0  0  0  0  0
   -2.0938   -2.6319   -4.5625 C   0  0  0  0  0  0  0  0  0  0  0  0
   -0.7267    0.0406   -3.6402 C   0  0  0  0  0  0  0  0  0  0  0  0
   -0.1616    1.0161   -2.8148 C   0  0  0  0  0  0  0  0  0  0  0  0
   -0.7973    2.1774   -2.6427 C   0  0  0  0  0  0  0  0  0  0  0  0
   -2.0452    2.3957   -3.2395 C   0  0  0  0  0  0  0  0  0  0  0  0
   -2.8038    3.6425   -2.8646 C   0  0  0  0  0  0  0  0  0  0  0  0
   -1.9929    4.8400   -3.3303 C   0  0  0  0  0  0  0  0  0  0  0  0
   -2.5103    1.4959   -4.2185 C   0  0  0  0  0  0  0  0  0  0  0  0
   -1.7709    0.3569   -4.4616 C   0  0  0  0  0  0  0  0  0  0  0  0
    1.1815   -1.3821   -3.2474 C   0  0  0  0  0  0  0  0  0  0  0  0
    2.2540   -1.0702   -4.1355 C   0  0  0  0  0  0  0  0  0  0  0  0
    2.1252   -0.8234   -5.4351 O   0  0  0  0  0  0  0  0  0  0  0  0
    3.0468   -1.2329   -6.4759 C   0  0  0  0  0  0  0  0  0  0  0  0
    3.2065   -0.0862   -7.4508 C   0  0  0  0  0  0  0  0  0  0  0  0
    3.3852   -0.8450   -3.3526 C   0  0  0  0  0  0  0  0  0  0  0  0
    3.1038   -1.6555   -1.9201 S   0  0  0  0  0  0  0  0  0  0  0  0
    1.4884   -2.0250   -2.1673 C   0  0  0  0  0  0  0  0  0  0  0  0
    0.2378   -2.3495   -1.4036 C   0  0  0  0  0  0  0  0  0  0  0  0
    0.0313   -2.8387   -0.1264 C   0  0  0  0  0  0  0  0  0  0  0  0
    4.6071   -0.0723   -3.7912 C   0  0  0  0  0  0  0  0  0  0  0  0
    5.4157    0.5919   -2.9856 C   0  0  0  0  0  0  0  0  0  0  0  0
    7.1577    0.8279   -3.4014 S   0  0  0  0  0  0  0  0  0  0  0  0
    7.3619    2.0719   -2.1416 C   0  0  0  0  0  0  0  0  0  0  0  0
    8.7709    2.9614   -1.9435 S   0  0  0  0  0  0  0  0  0  0  0  0
    6.1205    2.2909   -1.4437 N   0  0  0  0  0  0  0  0  0  0  0  0
    5.9715    3.4421   -0.5736 C   0  0  0  0  0  0  0  0  0  0  0  0
    6.8007    3.2538    0.6828 C   0  0  0  0  0  0  0  0  0  0  0  0
    5.0248    1.7458   -2.1831 C   0  0  0  0  0  0  0  0  0  0  0  0
    3.8340    2.0607   -1.9696 O   0  0  0  0  0  0  0  0  0  0  0  0
   -3.1278    2.5914    4.3523 H   0  0  0  0  0  0  0  0  0  0  0  0
    2.3087    2.1527    1.3026 H   0  0  0  0  0  0  0  0  0  0  0  0
    4.2622    2.0284    2.7765 H   0  0  0  0  0  0  0  0  0  0  0  0
    1.9593    3.7523    5.9143 H   0  0  0  0  0  0  0  0  0  0  0  0
   -2.5627   -0.9918    6.4554 H   0  0  0  0  0  0  0  0  0  0  0  0
   -3.0595   -2.1589    5.1274 H   0  0  0  0  0  0  0  0  0  0  0  0
   -4.3803    0.6087    5.4752 H   0  0  0  0  0  0  0  0  0  0  0  0
   -4.8418   -0.8206    6.4335 H   0  0  0  0  0  0  0  0  0  0  0  0
   -5.0386   -0.9486    4.6919 H   0  0  0  0  0  0  0  0  0  0  0  0
   -1.3914   -4.9754    1.1910 H   0  0  0  0  0  0  0  0  0  0  0  0
   -3.2710   -6.4125    0.4889 H   0  0  0  0  0  0  0  0  0  0  0  0
   -6.8075   -5.7209    1.5585 H   0  0  0  0  0  0  0  0  0  0  0  0
   -5.9738   -6.4020    0.1397 H   0  0  0  0  0  0  0  0  0  0  0  0
   -6.5526   -8.0585    2.0742 H   0  0  0  0  0  0  0  0  0  0  0  0
   -5.4171   -7.0970    3.0727 H   0  0  0  0  0  0  0  0  0  0  0  0
   -4.7886   -7.9711    1.6174 H   0  0  0  0  0  0  0  0  0  0  0  0
   -5.9491   -3.8599    2.5508 H   0  0  0  0  0  0  0  0  0  0  0  0
   -4.2079   -2.2565    2.7865 H   0  0  0  0  0  0  0  0  0  0  0  0
    0.6670   -0.9994    2.5280 H   0  0  0  0  0  0  0  0  0  0  0  0
    1.8855   -0.9376    4.6382 H   0  0  0  0  0  0  0  0  0  0  0  0
    0.7053   -2.9543    7.4932 H   0  0  0  0  0  0  0  0  0  0  0  0
    2.3561   -3.2746    6.8537 H   0  0  0  0  0  0  0  0  0  0  0  0
    1.1706   -0.4733    6.6483 H   0  0  0  0  0  0  0  0  0  0  0  0
    1.7626   -1.0471    8.2155 H   0  0  0  0  0  0  0  0  0  0  0  0
    2.9071   -1.0155    6.8437 H   0  0  0  0  0  0  0  0  0  0  0  0
   -0.0029   -4.5852    5.7649 H   0  0  0  0  0  0  0  0  0  0  0  0
   -1.3544   -4.5175    3.7639 H   0  0  0  0  0  0  0  0  0  0  0  0
   -2.7191   -0.8315   -1.9474 H   0  0  0  0  0  0  0  0  0  0  0  0
    1.0778   -3.4752   -4.5606 H   0  0  0  0  0  0  0  0  0  0  0  0
    0.4417   -4.4500   -6.7260 H   0  0  0  0  0  0  0  0  0  0  0  0
   -2.9236   -4.4634   -8.1943 H   0  0  0  0  0  0  0  0  0  0  0  0
   -1.1283   -4.6325   -8.4886 H   0  0  0  0  0  0  0  0  0  0  0  0
   -2.7440   -2.0300   -8.4558 H   0  0  0  0  0  0  0  0  0  0  0  0
   -0.9807   -2.1007   -8.1971 H   0  0  0  0  0  0  0  0  0  0  0  0
   -1.6169   -2.6805   -9.7481 H   0  0  0  0  0  0  0  0  0  0  0  0
   -3.5605   -3.3487   -5.9440 H   0  0  0  0  0  0  0  0  0  0  0  0
   -2.8603   -2.1116   -3.9567 H   0  0  0  0  0  0  0  0  0  0  0  0
    0.8178    0.8726   -2.3519 H   0  0  0  0  0  0  0  0  0  0  0  0
   -0.3327    2.9993   -2.0963 H   0  0  0  0  0  0  0  0  0  0  0  0
   -2.8301    3.6601   -1.7472 H   0  0  0  0  0  0  0  0  0  0  0  0
   -3.8475    3.6378   -3.2687 H   0  0  0  0  0  0  0  0  0  0  0  0
   -1.2277    5.0749   -2.5739 H   0  0  0  0  0  0  0  0  0  0  0  0
   -1.4568    4.5598   -4.2605 H   0  0  0  0  0  0  0  0  0  0  0  0
   -2.6562    5.7006   -3.4814 H   0  0  0  0  0  0  0  0  0  0  0  0
   -3.3274    1.7885   -4.8481 H   0  0  0  0  0  0  0  0  0  0  0  0
   -1.8877   -0.1892   -5.3724 H   0  0  0  0  0  0  0  0  0  0  0  0
    4.0162   -1.5963   -6.0501 H   0  0  0  0  0  0  0  0  0  0  0  0
    2.5986   -2.0632   -6.9945 H   0  0  0  0  0  0  0  0  0  0  0  0
    4.1685   -0.1533   -8.0196 H   0  0  0  0  0  0  0  0  0  0  0  0
    2.3610   -0.0841   -8.1201 H   0  0  0  0  0  0  0  0  0  0  0  0
    3.1530    0.8739   -6.8988 H   0  0  0  0  0  0  0  0  0  0  0  0
    0.7911   -3.3057    0.4016 H   0  0  0  0  0  0  0  0  0  0  0  0
    4.7886    0.0913   -4.8705 H   0  0  0  0  0  0  0  0  0  0  0  0
    4.9119    3.6120   -0.3430 H   0  0  0  0  0  0  0  0  0  0  0  0
    6.3184    4.3281   -1.1061 H   0  0  0  0  0  0  0  0  0  0  0  0
    7.3534    4.1752    0.9073 H   0  0  0  0  0  0  0  0  0  0  0  0
    7.5425    2.4363    0.5229 H   0  0  0  0  0  0  0  0  0  0  0  0
    6.0906    2.9771    1.5312 H   0  0  0  0  0  0  0  0  0  0  0  0
  1  2  2  3
  2  3  1  0
  3  4  2  0
  3  5  1  0
  5  6  2  0
  6  7  1  0
  7  8  2  0
  8  9  1  0
  8 10  1  0
 10 11  2  0
 11 12  1  0
 12 13  2  3
 13 14  1  0
 14 15  3  0
 13 16  1  0
 16 17  3  0
  1 18  1  0
 18 19  2  0
 19 20  1  0
 20 21  1  0
 21 22  1  0
 19 23  1  0
 23 24  1  0
 24 25  1  0
 25 26  2  0
 26 27  1  0
 27 28  2  0
 28 29  1  0
 29 30  1  0
 28 31  1  0
 31 32  2  0
 24 33  1  0
 33 34  2  0
 34 35  1  0
 35 36  2  0
 36 37  1  0
 37 38  1  0
 36 39  1  0
 39 40  2  0
 24 41  1  0
 41 42  2  0
 42 43  1  0
 43 44  1  0
 42 45  1  0
 45 46  2  0
 46 47  1  0
 47 48  1  0
 48 49  2  0
 49 50  1  0
 50 51  2  0
 51 52  1  0
 52 53  1  0
 51 54  1  0
 54 55  2  0
 47 56  1  0
 56 57  2  0
 57 58  1  0
 58 59  2  0
 59 60  1  0
 60 61  1  0
 59 62  1  0
 62 63  2  0
 47 64  1  0
 64 65  1  0
 65 66  1  0
 66 67  1  0
 67 68  1  0
 65 69  2  0
 69 70  1  0
 70 71  1  0
 71 72  1  0
 72 73  2  0
 69 74  1  0
 74 75  2  3
 75 76  1  0
 76 77  1  0
 77 78  2  0
 77 79  1  0
 79 80  1  0
 80 81  1  0
 79 82  1  0
 82 83  2  0
 12  2  1  0
 44 18  1  0
 72 46  1  0
 82 75  1  0
 11  5  1  0
 43 23  2  0
 55 48  1  0
 63 56  1  0
 71 64  2  0
 32 25  1  0
 40 33  1  0
 73 41  1  0
  1 84  1  0
  6 85  1  0
  7 86  1  0
 10 87  1  0
 21 88  1  0
 21 89  1  0
 22 90  1  0
 22 91  1  0
 22 92  1  0
 26 93  1  0
 27 94  1  0
 29 95  1  0
 29 96  1  0
 30 97  1  0
 30 98  1  0
 30 99  1  0
 31100  1  0
 32101  1  0
 34102  1  0
 35103  1  0
 37104  1  0
 37105  1  0
 38106  1  0
 38107  1  0
 38108  1  0
 39109  1  0
 40110  1  0
 45111  1  0
 49112  1  0
 50113  1  0
 52114  1  0
 52115  1  0
 53116  1  0
 53117  1  0
 53118  1  0
 54119  1  0
 55120  1  0
 57121  1  0
 58122  1  0
 60123  1  0
 60124  1  0
 61125  1  0
 61126  1  0
 61127  1  0
 62128  1  0
 63129  1  0
 67130  1  0
 67131  1  0
 68132  1  0
 68133  1  0
 68134  1  0
 73135  1  0
 74136  1  0
 80137  1  0
 80138  1  0
 81139  1  0
 81140  1  0
 81141  1  0
M  END

