
     RDKit          3D

103115  0  0  0  0  0  0  0  0999 V2000
    5.8517    5.6251   -0.9603 C   0  0  0  0  0  0  0  0  0  0  0  0
    6.8092    5.3027   -0.0742 C   0  0  0  0  0  0  0  0  0  0  0  0
    8.2331    5.3452   -0.4061 C   0  0  0  0  0  0  0  0  0  0  0  0
    8.7472    5.9179   -1.4040 O   0  0  0  0  0  0  0  0  0  0  0  0
    8.9454    4.5245    0.5499 C   0  0  0  0  0  0  0  0  0  0  0  0
   10.2911    4.1587    0.5480 C   0  0  0  0  0  0  0  0  0  0  0  0
   10.7411    3.2645    1.5301 C   0  0  0  0  0  0  0  0  0  0  0  0
    9.8414    2.7356    2.4739 C   0  0  0  0  0  0  0  0  0  0  0  0
   10.4622    1.4834    3.7785 Br  0  0  0  0  0  0  0  0  0  0  0  0
    8.4853    3.1097    2.4508 C   0  0  0  0  0  0  0  0  0  0  0  0
    8.0517    4.0345    1.4876 C   0  0  0  0  0  0  0  0  0  0  0  0
    6.7001    4.6101    1.2431 C   0  0  0  0  0  0  0  0  0  0  0  0
    5.7601    4.8485    2.1936 C   0  0  0  0  0  0  0  0  0  0  0  0
    5.8357    4.2847    3.5140 C   0  0  0  0  0  0  0  0  0  0  0  0
    5.8821    3.8427    4.5820 N   0  0  0  0  0  0  0  0  0  0  0  0
    4.7278    5.8368    2.0122 C   0  0  0  0  0  0  0  0  0  0  0  0
    3.8993    6.6333    1.8751 N   0  0  0  0  0  0  0  0  0  0  0  0
    4.4469    5.1766   -0.9022 C   0  0  0  0  0  0  0  0  0  0  0  0
    3.3493    5.9116   -1.3891 C   0  0  0  0  0  0  0  0  0  0  0  0
    3.4300    7.2642   -2.0380 C   0  0  0  0  0  0  0  0  0  0  0  0
    3.6765    7.1290   -3.5360 C   0  0  0  0  0  0  0  0  0  0  0  0
    2.1703    5.1746   -1.2891 C   0  0  0  0  0  0  0  0  0  0  0  0
    0.5792    5.4723   -1.8144 S   0  0  0  0  0  0  0  0  0  0  0  0
    0.0955    3.9367   -1.2837 C   0  0  0  0  0  0  0  0  0  0  0  0
   -0.9360    3.0862   -1.5367 C   0  0  0  0  0  0  0  0  0  0  0  0
   -2.0837    3.2686   -2.3132 C   0  0  0  0  0  0  0  0  0  0  0  0
   -2.8830    2.1352   -2.6291 C   0  0  0  0  0  0  0  0  0  0  0  0
   -3.9908    2.3512   -3.3804 N   0  0  0  0  0  0  0  0  0  0  0  0
   -3.8594    3.9871   -3.6044 S   0  0  0  0  0  0  0  0  0  0  0  0
   -2.4878    4.4647   -2.8085 N   0  0  0  0  0  0  0  0  0  0  0  0
   -2.5004    0.8849   -2.1331 C   0  0  0  0  0  0  0  0  0  0  0  0
   -3.1967   -0.2850   -2.0780 C   0  0  0  0  0  0  0  0  0  0  0  0
   -4.7839   -0.7823   -2.4119 S   0  0  0  0  0  0  0  0  0  0  0  0
   -4.6057   -2.1230   -1.3773 C   0  0  0  0  0  0  0  0  0  0  0  0
   -5.4895   -3.1137   -0.9461 C   0  0  0  0  0  0  0  0  0  0  0  0
   -6.8696   -3.3089   -1.5104 C   0  0  0  0  0  0  0  0  0  0  0  0
   -6.8251   -4.1913   -2.7534 C   0  0  0  0  0  0  0  0  0  0  0  0
   -4.9001   -3.9140    0.0516 C   0  0  0  0  0  0  0  0  0  0  0  0
   -3.3086   -3.3691    0.3551 S   0  0  0  0  0  0  0  0  0  0  0  0
   -3.3772   -2.1299   -0.7678 C   0  0  0  0  0  0  0  0  0  0  0  0
   -2.5618   -1.0841   -1.1838 C   0  0  0  0  0  0  0  0  0  0  0  0
   -1.4451   -0.5094   -0.6651 N   0  0  0  0  0  0  0  0  0  0  0  0
   -1.3744    0.7062   -1.3066 C   0  0  0  0  0  0  0  0  0  0  0  0
   -0.5173    1.8247   -1.0766 C   0  0  0  0  0  0  0  0  0  0  0  0
    0.7966    1.8802   -0.6603 N   0  0  0  0  0  0  0  0  0  0  0  0
    1.1114    3.1986   -0.7733 C   0  0  0  0  0  0  0  0  0  0  0  0
    2.3109    3.9069   -0.7826 C   0  0  0  0  0  0  0  0  0  0  0  0
    3.9241    3.6187   -0.4165 S   0  0  0  0  0  0  0  0  0  0  0  0
    1.8012    0.8103   -0.7171 C   0  0  0  0  0  0  0  0  0  0  0  0
    2.0590    0.3786   -2.1568 C   0  0  0  0  0  0  0  0  0  0  0  0
   -0.8440   -0.8908    0.6167 C   0  0  0  0  0  0  0  0  0  0  0  0
    0.0412   -2.1315    0.4603 C   0  0  0  0  0  0  0  0  0  0  0  0
   -5.5165   -5.1137    0.6520 C   0  0  0  0  0  0  0  0  0  0  0  0
   -5.2479   -5.5761    1.8834 C   0  0  0  0  0  0  0  0  0  0  0  0
   -5.3940   -6.9842    2.2450 C   0  0  0  0  0  0  0  0  0  0  0  0
   -6.0725   -7.8432    1.6206 O   0  0  0  0  0  0  0  0  0  0  0  0
   -4.5367   -7.2471    3.3840 C   0  0  0  0  0  0  0  0  0  0  0  0
   -4.2321   -8.4736    3.9720 C   0  0  0  0  0  0  0  0  0  0  0  0
   -3.2709   -8.5068    4.9967 C   0  0  0  0  0  0  0  0  0  0  0  0
   -2.9389   -9.7164    5.6214 C   0  0  0  0  0  0  0  0  0  0  0  0
   -1.9649   -9.7443    6.6236 C   0  0  0  0  0  0  0  0  0  0  0  0
   -1.3181   -8.5688    7.0127 C   0  0  0  0  0  0  0  0  0  0  0  0
   -0.3777   -8.6067    7.9872 F   0  0  0  0  0  0  0  0  0  0  0  0
   -1.6432   -7.3509    6.4058 C   0  0  0  0  0  0  0  0  0  0  0  0
   -2.6183   -7.3048    5.3973 C   0  0  0  0  0  0  0  0  0  0  0  0
   -2.9483   -6.0818    4.7802 C   0  0  0  0  0  0  0  0  0  0  0  0
   -3.9365   -6.0660    3.7867 C   0  0  0  0  0  0  0  0  0  0  0  0
   -4.4720   -4.9366    2.9832 C   0  0  0  0  0  0  0  0  0  0  0  0
   -4.6125   -3.6574    3.4098 C   0  0  0  0  0  0  0  0  0  0  0  0
   -3.9810   -3.1709    4.6092 C   0  0  0  0  0  0  0  0  0  0  0  0
   -3.4803   -2.7703    5.5731 N   0  0  0  0  0  0  0  0  0  0  0  0
   -5.5415   -2.7493    2.7839 C   0  0  0  0  0  0  0  0  0  0  0  0
   -6.2910   -2.0174    2.2916 N   0  0  0  0  0  0  0  0  0  0  0  0
    6.1468    6.1675   -1.8496 H   0  0  0  0  0  0  0  0  0  0  0  0
   10.9721    4.5427   -0.1997 H   0  0  0  0  0  0  0  0  0  0  0  0
   11.7824    2.9688    1.5465 H   0  0  0  0  0  0  0  0  0  0  0  0
    7.8012    2.6568    3.1520 H   0  0  0  0  0  0  0  0  0  0  0  0
    2.4792    7.8142   -1.8680 H   0  0  0  0  0  0  0  0  0  0  0  0
    4.2428    7.8631   -1.5771 H   0  0  0  0  0  0  0  0  0  0  0  0
    3.6126    8.1267   -4.0213 H   0  0  0  0  0  0  0  0  0  0  0  0
    4.6858    6.7071   -3.7212 H   0  0  0  0  0  0  0  0  0  0  0  0
    2.9131    6.4639   -3.9982 H   0  0  0  0  0  0  0  0  0  0  0  0
   -7.5307   -3.7730   -0.7470 H   0  0  0  0  0  0  0  0  0  0  0  0
   -7.3092   -2.3243   -1.7787 H   0  0  0  0  0  0  0  0  0  0  0  0
   -6.2298   -3.7001   -3.5530 H   0  0  0  0  0  0  0  0  0  0  0  0
   -7.8558   -4.3600   -3.1285 H   0  0  0  0  0  0  0  0  0  0  0  0
   -6.3700   -5.1757   -2.5142 H   0  0  0  0  0  0  0  0  0  0  0  0
    1.5095   -0.0554   -0.1245 H   0  0  0  0  0  0  0  0  0  0  0  0
    2.7527    1.1461   -0.2599 H   0  0  0  0  0  0  0  0  0  0  0  0
    1.1389   -0.0655   -2.5951 H   0  0  0  0  0  0  0  0  0  0  0  0
    2.3702    1.2518   -2.7693 H   0  0  0  0  0  0  0  0  0  0  0  0
    2.8657   -0.3841   -2.1814 H   0  0  0  0  0  0  0  0  0  0  0  0
   -1.6494   -1.1090    1.3539 H   0  0  0  0  0  0  0  0  0  0  0  0
   -0.2791   -0.0423    1.0574 H   0  0  0  0  0  0  0  0  0  0  0  0
    0.7363   -2.2044    1.3232 H   0  0  0  0  0  0  0  0  0  0  0  0
   -0.5731   -3.0539    0.4370 H   0  0  0  0  0  0  0  0  0  0  0  0
    0.6253   -2.0917   -0.4815 H   0  0  0  0  0  0  0  0  0  0  0  0
   -6.1255   -5.7222   -0.0025 H   0  0  0  0  0  0  0  0  0  0  0  0
   -4.7162   -9.3788    3.6263 H   0  0  0  0  0  0  0  0  0  0  0  0
   -3.4303  -10.6382    5.3332 H   0  0  0  0  0  0  0  0  0  0  0  0
   -1.7141  -10.6814    7.0997 H   0  0  0  0  0  0  0  0  0  0  0  0
   -1.1310   -6.4488    6.7169 H   0  0  0  0  0  0  0  0  0  0  0  0
   -2.4217   -5.1782    5.0530 H   0  0  0  0  0  0  0  0  0  0  0  0
  1  2  2  3
  2  3  1  0
  3  4  2  0
  3  5  1  0
  5  6  2  0
  6  7  1  0
  7  8  2  0
  8  9  1  0
  8 10  1  0
 10 11  2  0
 11 12  1  0
 12 13  2  3
 13 14  1  0
 14 15  3  0
 13 16  1  0
 16 17  3  0
  1 18  1  0
 18 19  2  0
 19 20  1  0
 20 21  1  0
 19 22  1  0
 22 23  1  0
 23 24  1  0
 24 25  1  0
 25 26  1  0
 26 27  1  0
 27 28  2  0
 28 29  1  0
 29 30  1  0
 27 31  1  0
 31 32  1  0
 32 33  1  0
 33 34  1  0
 34 35  1  0
 35 36  1  0
 36 37  1  0
 35 38  2  0
 38 39  1  0
 39 40  1  0
 40 41  1  0
 41 42  1  0
 42 43  1  0
 43 44  1  0
 44 45  1  0
 45 46  1  0
 46 47  1  0
 47 48  1  0
 45 49  1  0
 49 50  1  0
 42 51  1  0
 51 52  1  0
 38 53  1  0
 53 54  2  3
 54 55  1  0
 55 56  2  0
 55 57  1  0
 57 58  2  0
 58 59  1  0
 59 60  2  0
 60 61  1  0
 61 62  2  0
 62 63  1  0
 62 64  1  0
 64 65  2  0
 65 66  1  0
 66 67  2  0
 67 68  1  0
 68 69  2  3
 69 70  1  0
 70 71  3  0
 69 72  1  0
 72 73  3  0
 12  2  1  0
 48 18  1  0
 68 54  1  0
 11  5  1  0
 47 22  2  0
 67 57  1  0
 46 24  2  0
 65 59  1  0
 44 25  2  0
 30 26  2  0
 43 31  2  0
 41 32  2  0
 40 34  2  0
  1 74  1  0
  6 75  1  0
  7 76  1  0
 10 77  1  0
 20 78  1  0
 20 79  1  0
 21 80  1  0
 21 81  1  0
 21 82  1  0
 36 83  1  0
 36 84  1  0
 37 85  1  0
 37 86  1  0
 37 87  1  0
 49 88  1  0
 49 89  1  0
 50 90  1  0
 50 91  1  0
 50 92  1  0
 51 93  1  0
 51 94  1  0
 52 95  1  0
 52 96  1  0
 52 97  1  0
 53 98  1  0
 58 99  1  0
 60100  1  0
 61101  1  0
 64102  1  0
 66103  1  0
M  END

