
     RDKit          3D

 87 97  0  0  0  0  0  0  0  0999 V2000
    0.0872    5.1869    1.6201 C   0  0  0  0  0  0  0  0  0  0  0  0
   -0.4408    5.6180    0.4581 C   0  0  0  0  0  0  0  0  0  0  0  0
   -1.1292    4.7885   -0.5397 C   0  0  0  0  0  0  0  0  0  0  0  0
   -1.1338    3.5363   -0.5975 O   0  0  0  0  0  0  0  0  0  0  0  0
   -1.9095    5.6568   -1.3989 C   0  0  0  0  0  0  0  0  0  0  0  0
   -2.8025    5.2942   -2.4057 C   0  0  0  0  0  0  0  0  0  0  0  0
   -3.5507    6.2986   -3.0246 C   0  0  0  0  0  0  0  0  0  0  0  0
   -3.4252    7.6333   -2.6042 C   0  0  0  0  0  0  0  0  0  0  0  0
   -4.5242    8.9822   -3.3875 Br  0  0  0  0  0  0  0  0  0  0  0  0
   -2.5155    7.9764   -1.5933 C   0  0  0  0  0  0  0  0  0  0  0  0
   -1.7334    6.9705   -1.0135 C   0  0  0  0  0  0  0  0  0  0  0  0
   -0.7282    7.0347    0.0827 C   0  0  0  0  0  0  0  0  0  0  0  0
   -0.0149    8.1245    0.4635 C   0  0  0  0  0  0  0  0  0  0  0  0
   -0.2337    9.4280   -0.1075 C   0  0  0  0  0  0  0  0  0  0  0  0
   -0.4080   10.4820   -0.5611 N   0  0  0  0  0  0  0  0  0  0  0  0
    1.1119    8.0357    1.3555 C   0  0  0  0  0  0  0  0  0  0  0  0
    2.0259    7.9763    2.0591 N   0  0  0  0  0  0  0  0  0  0  0  0
    0.2682    3.7665    1.9781 C   0  0  0  0  0  0  0  0  0  0  0  0
    1.0406    2.8905    1.1837 C   0  0  0  0  0  0  0  0  0  0  0  0
    1.1748    1.5256    1.5433 C   0  0  0  0  0  0  0  0  0  0  0  0
    0.5608    1.0205    2.7335 C   0  0  0  0  0  0  0  0  0  0  0  0
   -0.1394    1.9386    3.5162 C   0  0  0  0  0  0  0  0  0  0  0  0
   -0.2755    3.2486    3.1556 C   0  0  0  0  0  0  0  0  0  0  0  0
   -1.0384    3.8680    4.0695 N   0  0  0  0  0  0  0  0  0  0  0  0
   -1.3433    2.9209    4.9555 N   0  0  0  0  0  0  0  0  0  0  0  0
   -2.1506    3.1657    6.1441 C   0  0  0  0  0  0  0  0  0  0  0  0
   -1.3173    3.8669    7.2085 C   0  0  0  0  0  0  0  0  0  0  0  0
   -0.8204    1.7333    4.6571 N   0  0  0  0  0  0  0  0  0  0  0  0
    0.6357   -0.3596    3.0569 C   0  0  0  0  0  0  0  0  0  0  0  0
    1.2992   -1.2529    2.1880 C   0  0  0  0  0  0  0  0  0  0  0  0
    1.9016   -0.7183    1.0460 C   0  0  0  0  0  0  0  0  0  0  0  0
    2.5087   -1.3659    0.0366 N   0  0  0  0  0  0  0  0  0  0  0  0
    2.8021   -0.4127   -0.8463 N   0  0  0  0  0  0  0  0  0  0  0  0
    3.4796   -0.6700   -2.1127 C   0  0  0  0  0  0  0  0  0  0  0  0
    4.9728   -0.8586   -1.8854 C   0  0  0  0  0  0  0  0  0  0  0  0
    2.4206    0.8000   -0.4597 N   0  0  0  0  0  0  0  0  0  0  0  0
    1.8438    0.6082    0.7388 C   0  0  0  0  0  0  0  0  0  0  0  0
    1.2001   -2.7094    2.3627 C   0  0  0  0  0  0  0  0  0  0  0  0
    0.2653   -3.4313    1.7150 C   0  0  0  0  0  0  0  0  0  0  0  0
   -0.7524   -2.8726    0.8160 C   0  0  0  0  0  0  0  0  0  0  0  0
   -1.1367   -1.6701    0.7806 O   0  0  0  0  0  0  0  0  0  0  0  0
   -1.2193   -3.9178   -0.0622 C   0  0  0  0  0  0  0  0  0  0  0  0
   -2.0539   -3.7575   -1.1873 C   0  0  0  0  0  0  0  0  0  0  0  0
   -2.1697   -4.8944   -1.9594 C   0  0  0  0  0  0  0  0  0  0  0  0
   -1.5009   -6.1240   -1.6524 C   0  0  0  0  0  0  0  0  0  0  0  0
   -0.6822   -6.2866   -0.5435 C   0  0  0  0  0  0  0  0  0  0  0  0
   -0.5746   -5.1323    0.2822 C   0  0  0  0  0  0  0  0  0  0  0  0
    0.2688   -4.9055    1.4906 C   0  0  0  0  0  0  0  0  0  0  0  0
    0.7364   -5.8535    2.3415 C   0  0  0  0  0  0  0  0  0  0  0  0
    1.3313   -5.5198    3.6131 C   0  0  0  0  0  0  0  0  0  0  0  0
    1.8031   -5.2599    4.6438 N   0  0  0  0  0  0  0  0  0  0  0  0
    0.5046   -7.2576    2.1270 C   0  0  0  0  0  0  0  0  0  0  0  0
    0.3136   -8.3891    1.9807 N   0  0  0  0  0  0  0  0  0  0  0  0
   -2.0237   -6.7421   -2.9156 C   0  0  0  0  0  0  0  0  0  0  0  0
   -1.0311   -6.9194   -4.1072 C   0  0  0  0  0  0  0  0  0  0  0  0
    0.0129   -5.8228   -4.0757 C   0  0  0  0  0  0  0  0  0  0  0  0
   -0.6159   -4.6779   -4.3662 C   0  0  0  0  0  0  0  0  0  0  0  0
   -2.0694   -5.0349   -4.5792 C   0  0  0  0  0  0  0  0  0  0  0  0
   -1.8931   -6.3918   -5.2459 C   0  0  0  0  0  0  0  0  0  0  0  0
   -2.7130   -5.4822   -3.2257 C   0  0  0  0  0  0  0  0  0  0  0  0
    0.3002    5.8948    2.4020 H   0  0  0  0  0  0  0  0  0  0  0  0
   -2.9356    4.2602   -2.6901 H   0  0  0  0  0  0  0  0  0  0  0  0
   -4.2380    6.0386   -3.8190 H   0  0  0  0  0  0  0  0  0  0  0  0
   -2.4833    8.9978   -1.2465 H   0  0  0  0  0  0  0  0  0  0  0  0
    1.5120    3.2668    0.2807 H   0  0  0  0  0  0  0  0  0  0  0  0
   -2.5260    2.1975    6.5490 H   0  0  0  0  0  0  0  0  0  0  0  0
   -3.0241    3.7997    5.8741 H   0  0  0  0  0  0  0  0  0  0  0  0
   -1.9587    4.0964    8.0870 H   0  0  0  0  0  0  0  0  0  0  0  0
   -0.4761    3.2160    7.5329 H   0  0  0  0  0  0  0  0  0  0  0  0
   -0.9041    4.8183    6.8109 H   0  0  0  0  0  0  0  0  0  0  0  0
    0.1396   -0.7388    3.9441 H   0  0  0  0  0  0  0  0  0  0  0  0
    3.3237    0.1864   -2.8066 H   0  0  0  0  0  0  0  0  0  0  0  0
    3.0512   -1.5806   -2.5848 H   0  0  0  0  0  0  0  0  0  0  0  0
    5.4669   -1.0544   -2.8605 H   0  0  0  0  0  0  0  0  0  0  0  0
    5.4120    0.0637   -1.4489 H   0  0  0  0  0  0  0  0  0  0  0  0
    5.1619   -1.7204   -1.2090 H   0  0  0  0  0  0  0  0  0  0  0  0
    2.0234   -3.1942    2.8591 H   0  0  0  0  0  0  0  0  0  0  0  0
   -2.5054   -2.8158   -1.4614 H   0  0  0  0  0  0  0  0  0  0  0  0
   -0.1245   -7.1964   -0.3958 H   0  0  0  0  0  0  0  0  0  0  0  0
   -2.7147   -7.5989   -2.7512 H   0  0  0  0  0  0  0  0  0  0  0  0
   -0.6331   -7.9502   -4.2478 H   0  0  0  0  0  0  0  0  0  0  0  0
    1.0824   -5.9357   -3.9447 H   0  0  0  0  0  0  0  0  0  0  0  0
   -0.1510   -3.7018   -4.5014 H   0  0  0  0  0  0  0  0  0  0  0  0
   -2.6599   -4.2919   -5.1615 H   0  0  0  0  0  0  0  0  0  0  0  0
   -1.3577   -6.3318   -6.2242 H   0  0  0  0  0  0  0  0  0  0  0  0
   -2.8551   -6.9467   -5.3786 H   0  0  0  0  0  0  0  0  0  0  0  0
   -3.8214   -5.5743   -3.2458 H   0  0  0  0  0  0  0  0  0  0  0  0
  1  2  2  3
  2  3  1  0
  3  4  2  0
  3  5  1  0
  5  6  2  0
  6  7  1  0
  7  8  2  0
  8  9  1  0
  8 10  1  0
 10 11  2  0
 11 12  1  0
 12 13  2  3
 13 14  1  0
 14 15  3  0
 13 16  1  0
 16 17  3  0
  1 18  1  0
 18 19  2  0
 19 20  1  0
 20 21  2  0
 21 22  1  0
 22 23  1  0
 23 24  2  0
 24 25  1  0
 25 26  1  0
 26 27  1  0
 25 28  1  0
 21 29  1  0
 29 30  2  0
 30 31  1  0
 31 32  2  0
 32 33  1  0
 33 34  1  0
 34 35  1  0
 33 36  1  0
 36 37  2  0
 30 38  1  0
 38 39  2  3
 39 40  1  0
 40 41  2  0
 40 42  1  0
 42 43  2  0
 43 44  1  0
 44 45  2  0
 45 46  1  0
 46 47  2  0
 47 48  1  0
 48 49  2  3
 49 50  1  0
 50 51  3  0
 49 52  1  0
 52 53  3  0
 45 54  1  0
 54 55  1  0
 55 56  1  0
 56 57  2  0
 57 58  1  0
 58 59  1  0
 58 60  1  0
 12  2  1  0
 23 18  1  0
 37 31  1  0
 48 39  1  0
 60 54  1  0
 11  5  1  0
 37 20  1  0
 47 42  1  0
 59 55  1  0
 28 22  2  0
 60 44  1  0
  1 61  1  0
  6 62  1  0
  7 63  1  0
 10 64  1  0
 19 65  1  0
 26 66  1  0
 26 67  1  0
 27 68  1  0
 27 69  1  0
 27 70  1  0
 29 71  1  0
 34 72  1  0
 34 73  1  0
 35 74  1  0
 35 75  1  0
 35 76  1  0
 38 77  1  0
 43 78  1  0
 46 79  1  0
 54 80  1  0
 55 81  1  0
 56 82  1  0
 57 83  1  0
 58 84  1  0
 59 85  1  0
 59 86  1  0
 60 87  1  0
M  END

