
     RDKit          3D

 98107  0  0  0  0  0  0  0  0999 V2000
    2.3809   -5.7420   -3.3738 C   0  0  0  0  0  0  0  0  0  0  0  0
    1.9355   -6.7506   -2.5962 C   0  0  0  0  0  0  0  0  0  0  0  0
    0.7162   -6.7267   -1.7774 C   0  0  0  0  0  0  0  0  0  0  0  0
    0.0319   -5.7139   -1.4788 O   0  0  0  0  0  0  0  0  0  0  0  0
    0.4416   -8.0696   -1.3231 C   0  0  0  0  0  0  0  0  0  0  0  0
   -0.6572   -8.5211   -0.5916 C   0  0  0  0  0  0  0  0  0  0  0  0
   -0.7479   -9.8883   -0.3038 C   0  0  0  0  0  0  0  0  0  0  0  0
    0.2360  -10.7768   -0.7719 C   0  0  0  0  0  0  0  0  0  0  0  0
    0.0814  -12.6437   -0.4010 Br  0  0  0  0  0  0  0  0  0  0  0  0
    1.3286  -10.3006   -1.5175 C   0  0  0  0  0  0  0  0  0  0  0  0
    1.4433   -8.9214   -1.7575 C   0  0  0  0  0  0  0  0  0  0  0  0
    2.4877   -8.1406   -2.4888 C   0  0  0  0  0  0  0  0  0  0  0  0
    3.7540   -8.5537   -2.7750 C   0  0  0  0  0  0  0  0  0  0  0  0
    4.2204   -9.8842   -2.4875 C   0  0  0  0  0  0  0  0  0  0  0  0
    4.6139  -10.9501   -2.2625 N   0  0  0  0  0  0  0  0  0  0  0  0
    4.7736   -7.6682   -3.2765 C   0  0  0  0  0  0  0  0  0  0  0  0
    5.6057   -6.9690   -3.6780 N   0  0  0  0  0  0  0  0  0  0  0  0
    1.7275   -4.4305   -3.4666 C   0  0  0  0  0  0  0  0  0  0  0  0
    0.4340   -4.1900   -3.9474 C   0  0  0  0  0  0  0  0  0  0  0  0
    0.1251   -2.8299   -3.8836 C   0  0  0  0  0  0  0  0  0  0  0  0
   -1.1580   -2.0580   -4.0667 C   0  0  0  0  0  0  0  0  0  0  0  0
   -1.4549   -1.9765   -5.5889 C   0  0  0  0  0  0  0  0  0  0  0  0
   -2.5781   -1.0144   -5.9865 C   0  0  0  0  0  0  0  0  0  0  0  0
   -2.3252   -2.7040   -3.2673 C   0  0  0  0  0  0  0  0  0  0  0  0
   -2.0738   -2.8047   -1.7578 C   0  0  0  0  0  0  0  0  0  0  0  0
   -0.7162   -0.7151   -3.4826 C   0  0  0  0  0  0  0  0  0  0  0  0
    0.6324   -0.7150   -3.1307 C   0  0  0  0  0  0  0  0  0  0  0  0
    1.1283   -2.0451   -3.4150 C   0  0  0  0  0  0  0  0  0  0  0  0
    2.4558   -2.9742   -2.9795 S   0  0  0  0  0  0  0  0  0  0  0  0
    1.2178    0.3560   -2.4382 C   0  0  0  0  0  0  0  0  0  0  0  0
    2.5962    0.3926   -2.1313 C   0  0  0  0  0  0  0  0  0  0  0  0
    3.1332    1.4457   -1.3805 C   0  0  0  0  0  0  0  0  0  0  0  0
    2.2808    2.4385   -0.8910 C   0  0  0  0  0  0  0  0  0  0  0  0
    2.6328    3.5896    0.0514 C   0  0  0  0  0  0  0  0  0  0  0  0
    3.0173    3.0939    1.4776 C   0  0  0  0  0  0  0  0  0  0  0  0
    4.2630    2.2078    1.5666 C   0  0  0  0  0  0  0  0  0  0  0  0
    3.6956    4.5488   -0.5491 C   0  0  0  0  0  0  0  0  0  0  0  0
    3.2872    5.1886   -1.8815 C   0  0  0  0  0  0  0  0  0  0  0  0
    1.2791    4.2534    0.1381 C   0  0  0  0  0  0  0  0  0  0  0  0
    0.7532    5.1756    1.0460 C   0  0  0  0  0  0  0  0  0  0  0  0
   -0.6443    5.1921    0.9957 C   0  0  0  0  0  0  0  0  0  0  0  0
   -1.2019    4.0658   -0.1433 S   0  0  0  0  0  0  0  0  0  0  0  0
    0.3442    3.6018   -0.6025 C   0  0  0  0  0  0  0  0  0  0  0  0
    0.9348    2.4461   -1.2456 C   0  0  0  0  0  0  0  0  0  0  0  0
    0.3708    1.4315   -2.0374 C   0  0  0  0  0  0  0  0  0  0  0  0
   -0.9894    1.4382   -2.4202 C   0  0  0  0  0  0  0  0  0  0  0  0
   -1.5352    0.3632   -3.1358 C   0  0  0  0  0  0  0  0  0  0  0  0
   -1.5215    5.9333    1.9077 C   0  0  0  0  0  0  0  0  0  0  0  0
   -1.5997    5.6763    3.2290 C   0  0  0  0  0  0  0  0  0  0  0  0
   -0.7724    4.7112    3.9674 C   0  0  0  0  0  0  0  0  0  0  0  0
   -0.0764    3.7842    3.4754 O   0  0  0  0  0  0  0  0  0  0  0  0
   -0.9141    4.9795    5.3798 C   0  0  0  0  0  0  0  0  0  0  0  0
   -0.2328    4.3840    6.4413 C   0  0  0  0  0  0  0  0  0  0  0  0
   -0.4769    4.8534    7.7379 C   0  0  0  0  0  0  0  0  0  0  0  0
   -1.3716    5.9185    7.9488 C   0  0  0  0  0  0  0  0  0  0  0  0
   -1.6421    6.5251    9.5735 Cl  0  0  0  0  0  0  0  0  0  0  0  0
   -2.0422    6.5077    6.8634 C   0  0  0  0  0  0  0  0  0  0  0  0
   -1.8243    6.0048    5.5700 C   0  0  0  0  0  0  0  0  0  0  0  0
   -2.3939    6.4218    4.2560 C   0  0  0  0  0  0  0  0  0  0  0  0
   -3.5449    7.1171    4.0581 C   0  0  0  0  0  0  0  0  0  0  0  0
   -4.1636    7.2365    2.7646 C   0  0  0  0  0  0  0  0  0  0  0  0
   -4.6740    7.3388    1.7306 N   0  0  0  0  0  0  0  0  0  0  0  0
   -4.3185    7.6621    5.1434 C   0  0  0  0  0  0  0  0  0  0  0  0
   -4.9534    8.0996    6.0071 N   0  0  0  0  0  0  0  0  0  0  0  0
    3.2553   -5.8568   -3.9855 H   0  0  0  0  0  0  0  0  0  0  0  0
   -1.4258   -7.8338   -0.2605 H   0  0  0  0  0  0  0  0  0  0  0  0
   -1.5899  -10.2605    0.2649 H   0  0  0  0  0  0  0  0  0  0  0  0
    2.0394  -11.0126   -1.9002 H   0  0  0  0  0  0  0  0  0  0  0  0
   -0.2511   -4.9594   -4.2791 H   0  0  0  0  0  0  0  0  0  0  0  0
   -0.5362   -1.6586   -6.1303 H   0  0  0  0  0  0  0  0  0  0  0  0
   -1.7143   -2.9917   -5.9605 H   0  0  0  0  0  0  0  0  0  0  0  0
   -3.5277   -1.2657   -5.4775 H   0  0  0  0  0  0  0  0  0  0  0  0
   -2.2930    0.0330   -5.7665 H   0  0  0  0  0  0  0  0  0  0  0  0
   -2.7464   -1.0904   -7.0791 H   0  0  0  0  0  0  0  0  0  0  0  0
   -2.5188   -3.7257   -3.6592 H   0  0  0  0  0  0  0  0  0  0  0  0
   -3.2549   -2.1170   -3.4088 H   0  0  0  0  0  0  0  0  0  0  0  0
   -2.9188   -3.3416   -1.2773 H   0  0  0  0  0  0  0  0  0  0  0  0
   -2.0025   -1.7949   -1.3032 H   0  0  0  0  0  0  0  0  0  0  0  0
   -1.1401   -3.3622   -1.5485 H   0  0  0  0  0  0  0  0  0  0  0  0
    3.2663   -0.3782   -2.4781 H   0  0  0  0  0  0  0  0  0  0  0  0
    4.1947    1.4714   -1.1748 H   0  0  0  0  0  0  0  0  0  0  0  0
    2.1678    2.5213    1.9145 H   0  0  0  0  0  0  0  0  0  0  0  0
    3.1847    3.9786    2.1317 H   0  0  0  0  0  0  0  0  0  0  0  0
    5.1324    2.6744    1.0616 H   0  0  0  0  0  0  0  0  0  0  0  0
    4.5289    2.0630    2.6362 H   0  0  0  0  0  0  0  0  0  0  0  0
    4.0646    1.2039    1.1378 H   0  0  0  0  0  0  0  0  0  0  0  0
    3.9043    5.3622    0.1783 H   0  0  0  0  0  0  0  0  0  0  0  0
    4.6428    3.9971   -0.7180 H   0  0  0  0  0  0  0  0  0  0  0  0
    2.3932    5.8336   -1.7540 H   0  0  0  0  0  0  0  0  0  0  0  0
    4.1195    5.8217   -2.2549 H   0  0  0  0  0  0  0  0  0  0  0  0
    3.0742    4.4115   -2.6437 H   0  0  0  0  0  0  0  0  0  0  0  0
    1.3448    5.7264    1.7648 H   0  0  0  0  0  0  0  0  0  0  0  0
   -1.6436    2.2546   -2.1538 H   0  0  0  0  0  0  0  0  0  0  0  0
   -2.5913    0.3523   -3.3691 H   0  0  0  0  0  0  0  0  0  0  0  0
   -2.1012    6.7205    1.4574 H   0  0  0  0  0  0  0  0  0  0  0  0
    0.4823    3.5903    6.2685 H   0  0  0  0  0  0  0  0  0  0  0  0
    0.0378    4.4022    8.5773 H   0  0  0  0  0  0  0  0  0  0  0  0
   -2.6770    7.3571    7.0476 H   0  0  0  0  0  0  0  0  0  0  0  0
  1  2  2  3
  2  3  1  0
  3  4  2  0
  3  5  1  0
  5  6  2  0
  6  7  1  0
  7  8  2  0
  8  9  1  0
  8 10  1  0
 10 11  2  0
 11 12  1  0
 12 13  2  3
 13 14  1  0
 14 15  3  0
 13 16  1  0
 16 17  3  0
  1 18  1  0
 18 19  2  0
 19 20  1  0
 20 21  1  0
 21 22  1  0
 22 23  1  0
 21 24  1  0
 24 25  1  0
 21 26  1  0
 26 27  2  0
 27 28  1  0
 28 29  1  0
 27 30  1  0
 30 31  2  0
 31 32  1  0
 32 33  2  0
 33 34  1  0
 34 35  1  0
 35 36  1  0
 34 37  1  0
 37 38  1  0
 34 39  1  0
 39 40  1  0
 40 41  2  0
 41 42  1  0
 42 43  1  0
 43 44  1  0
 44 45  2  0
 45 46  1  0
 46 47  2  0
 41 48  1  0
 48 49  2  3
 49 50  1  0
 50 51  2  0
 50 52  1  0
 52 53  2  0
 53 54  1  0
 54 55  2  0
 55 56  1  0
 55 57  1  0
 57 58  2  0
 58 59  1  0
 59 60  2  3
 60 61  1  0
 61 62  3  0
 60 63  1  0
 63 64  3  0
 12  2  1  0
 29 18  1  0
 45 30  1  0
 59 49  1  0
 11  5  1  0
 28 20  2  0
 44 33  1  0
 58 52  1  0
 47 26  1  0
 43 39  2  0
  1 65  1  0
  6 66  1  0
  7 67  1  0
 10 68  1  0
 19 69  1  0
 22 70  1  0
 22 71  1  0
 23 72  1  0
 23 73  1  0
 23 74  1  0
 24 75  1  0
 24 76  1  0
 25 77  1  0
 25 78  1  0
 25 79  1  0
 31 80  1  0
 32 81  1  0
 35 82  1  0
 35 83  1  0
 36 84  1  0
 36 85  1  0
 36 86  1  0
 37 87  1  0
 37 88  1  0
 38 89  1  0
 38 90  1  0
 38 91  1  0
 40 92  1  0
 46 93  1  0
 47 94  1  0
 48 95  1  0
 53 96  1  0
 54 97  1  0
 57 98  1  0
M  END

