
     RDKit          3D

107121  0  0  0  0  0  0  0  0999 V2000
   -0.8821    9.1444   -4.5773 C   0  0  0  0  0  0  0  0  0  0  0  0
   -1.3894   10.2854   -4.7844 C   0  0  0  0  0  0  0  0  0  0  0  0
   -3.0021   10.4235   -4.6559 C   0  0  0  0  0  0  0  0  0  0  0  0
   -3.6049    9.4730   -4.1145 O   0  0  0  0  0  0  0  0  0  0  0  0
   -3.4144   11.6417   -5.2134 C   0  0  0  0  0  0  0  0  0  0  0  0
   -4.6327   12.3461   -5.4437 C   0  0  0  0  0  0  0  0  0  0  0  0
   -4.5564   13.4940   -6.0384 C   0  0  0  0  0  0  0  0  0  0  0  0
   -5.9434   14.5627   -6.4605 Cl  0  0  0  0  0  0  0  0  0  0  0  0
   -2.9313   13.7408   -6.3382 S   0  0  0  0  0  0  0  0  0  0  0  0
   -2.3162   12.2675   -5.6585 C   0  0  0  0  0  0  0  0  0  0  0  0
   -1.0916   11.5168   -5.4370 C   0  0  0  0  0  0  0  0  0  0  0  0
    0.0596   12.1345   -5.8474 C   0  0  0  0  0  0  0  0  0  0  0  0
    1.3451   12.1034   -5.8874 C   0  0  0  0  0  0  0  0  0  0  0  0
    2.5389   12.0685   -5.9052 N   0  0  0  0  0  0  0  0  0  0  0  0
   -0.4784   12.4423   -7.3368 C   0  0  0  0  0  0  0  0  0  0  0  0
   -0.9144   12.6880   -8.5929 N   0  0  0  0  0  0  0  0  0  0  0  0
   -0.5009    7.8869   -4.3352 C   0  0  0  0  0  0  0  0  0  0  0  0
    0.2328    7.1084   -5.3350 C   0  0  0  0  0  0  0  0  0  0  0  0
    0.6765    7.8173   -6.5778 C   0  0  0  0  0  0  0  0  0  0  0  0
    1.9103    8.6130   -6.4500 C   0  0  0  0  0  0  0  0  0  0  0  0
    0.4413    5.8551   -5.0484 C   0  0  0  0  0  0  0  0  0  0  0  0
    1.2567    4.3327   -6.0394 Se  0  0  0  0  0  2  0  0  0  0  0  0
    0.8617    3.1996   -4.6780 C   0  0  0  0  0  0  0  0  0  0  0  0
    0.9936    1.8804   -4.3658 C   0  0  0  0  0  0  0  0  0  0  0  0
    1.5428    0.7710   -5.1301 C   0  0  0  0  0  0  0  0  0  0  0  0
    1.4229   -0.3742   -4.4564 C   0  0  0  0  0  0  0  0  0  0  0  0
    2.0301   -1.4032   -5.2505 N   0  0  0  0  0  0  0  0  0  0  0  0
    2.5882   -0.6718   -6.6207 S   0  0  0  0  0  0  0  0  0  0  0  0
    2.0886    0.9229   -6.2503 N   0  0  0  0  0  0  0  0  0  0  0  0
    0.8645   -0.5007   -3.2635 C   0  0  0  0  0  0  0  0  0  0  0  0
    0.6528   -1.5782   -2.4757 C   0  0  0  0  0  0  0  0  0  0  0  0
    1.0527   -3.3898   -2.4611 Se  0  0  0  0  0  2  0  0  0  0  0  0
    0.2468   -3.5745   -0.6423 C   0  0  0  0  0  0  0  0  0  0  0  0
    0.2281   -4.5658    0.2022 C   0  0  0  0  0  0  0  0  0  0  0  0
    0.5789   -6.0077   -0.1195 C   0  0  0  0  0  0  0  0  0  0  0  0
    2.0219   -6.2210   -0.4134 C   0  0  0  0  0  0  0  0  0  0  0  0
   -0.2660   -4.2449    1.5100 C   0  0  0  0  0  0  0  0  0  0  0  0
   -0.6397   -2.5996    1.2907 S   0  0  0  0  0  0  0  0  0  0  0  0
   -0.1421   -2.3672   -0.4157 C   0  0  0  0  0  0  0  0  0  0  0  0
    0.0341   -1.3365   -1.2976 C   0  0  0  0  0  0  0  0  0  0  0  0
   -0.1787    0.0565   -1.3583 N   0  0  0  0  0  0  0  0  0  0  0  0
    0.3029    0.5614   -2.4793 C   0  0  0  0  0  0  0  0  0  0  0  0
    0.4486    1.7500   -3.1594 C   0  0  0  0  0  0  0  0  0  0  0  0
    0.0159    2.9819   -2.7744 N   0  0  0  0  0  0  0  0  0  0  0  0
    0.2801    3.9143   -3.7929 C   0  0  0  0  0  0  0  0  0  0  0  0
    0.0136    5.2923   -3.8825 C   0  0  0  0  0  0  0  0  0  0  0  0
   -0.7202    6.6585   -3.1913 S   0  0  0  0  0  0  0  0  0  0  0  0
   -0.2050    3.4018   -1.4108 C   0  0  0  0  0  0  0  0  0  0  0  0
    0.9292    4.4622   -1.0583 C   0  0  0  0  0  0  0  0  0  0  0  0
   -1.0822    0.7003   -0.4058 C   0  0  0  0  0  0  0  0  0  0  0  0
   -0.4493    1.0020    0.9121 C   0  0  0  0  0  0  0  0  0  0  0  0
   -0.0793   -5.1026    2.6067 C   0  0  0  0  0  0  0  0  0  0  0  0
   -0.3419   -5.8350    3.5715 C   0  0  0  0  0  0  0  0  0  0  0  0
    0.7761   -6.4958    4.3482 C   0  0  0  0  0  0  0  0  0  0  0  0
    2.0061   -6.3041    4.2539 O   0  0  0  0  0  0  0  0  0  0  0  0
    0.1577   -7.4297    5.2702 C   0  0  0  0  0  0  0  0  0  0  0  0
    0.6921   -8.2290    6.2347 C   0  0  0  0  0  0  0  0  0  0  0  0
    0.0859   -9.0098    7.0911 C   0  0  0  0  0  0  0  0  0  0  0  0
   -1.3294   -8.9966    6.9738 C   0  0  0  0  0  0  0  0  0  0  0  0
   -1.9901   -8.2241    6.0292 C   0  0  0  0  0  0  0  0  0  0  0  0
   -1.1986   -7.4143    5.1480 C   0  0  0  0  0  0  0  0  0  0  0  0
   -1.5827   -6.4326    4.0989 C   0  0  0  0  0  0  0  0  0  0  0  0
   -2.7798   -5.9550    3.8783 C   0  0  0  0  0  0  0  0  0  0  0  0
   -3.9764   -6.6407    4.3911 C   0  0  0  0  0  0  0  0  0  0  0  0
   -4.9474   -7.2163    4.8166 N   0  0  0  0  0  0  0  0  0  0  0  0
   -3.0609   -4.6102    3.4549 C   0  0  0  0  0  0  0  0  0  0  0  0
   -3.3024   -3.4644    3.0782 N   0  0  0  0  0  0  0  0  0  0  0  0
   -1.4366   -9.9305    8.1367 C   0  0  0  0  0  0  0  0  0  0  0  0
   -1.7795  -11.3370    7.8868 C   0  0  0  0  0  0  0  0  0  0  0  0
   -1.3547  -12.1033    9.1121 C   0  0  0  0  0  0  0  0  0  0  0  0
   -0.0255  -12.1462    9.1477 C   0  0  0  0  0  0  0  0  0  0  0  0
    0.4622  -11.3717    7.9586 C   0  0  0  0  0  0  0  0  0  0  0  0
   -0.6316  -11.7735    6.9792 C   0  0  0  0  0  0  0  0  0  0  0  0
    0.0970   -9.9487    8.2368 C   0  0  0  0  0  0  0  0  0  0  0  0
    0.3584    9.6956   -4.5321 H   0  0  0  0  0  0  0  0  0  0  0  0
   -5.6011   11.8884   -5.0999 H   0  0  0  0  0  0  0  0  0  0  0  0
   -0.1484    8.4564   -6.9210 H   0  0  0  0  0  0  0  0  0  0  0  0
    0.8066    7.0780   -7.4216 H   0  0  0  0  0  0  0  0  0  0  0  0
    2.2663    8.6687   -5.4205 H   0  0  0  0  0  0  0  0  0  0  0  0
    2.6873    8.2453   -7.1989 H   0  0  0  0  0  0  0  0  0  0  0  0
    1.7076    9.6468   -6.8664 H   0  0  0  0  0  0  0  0  0  0  0  0
    0.0421   -6.3239   -1.0604 H   0  0  0  0  0  0  0  0  0  0  0  0
    0.2829   -6.6493    0.6922 H   0  0  0  0  0  0  0  0  0  0  0  0
    2.6315   -5.4351    0.0394 H   0  0  0  0  0  0  0  0  0  0  0  0
    2.3648   -7.2062    0.0240 H   0  0  0  0  0  0  0  0  0  0  0  0
    2.2374   -6.3435   -1.5234 H   0  0  0  0  0  0  0  0  0  0  0  0
   -1.1110    3.9228   -1.2996 H   0  0  0  0  0  0  0  0  0  0  0  0
    0.1385    2.6473   -0.7087 H   0  0  0  0  0  0  0  0  0  0  0  0
    0.4755    5.1786   -0.3478 H   0  0  0  0  0  0  0  0  0  0  0  0
    1.7314    3.9158   -0.5376 H   0  0  0  0  0  0  0  0  0  0  0  0
    1.3587    4.8759   -1.9693 H   0  0  0  0  0  0  0  0  0  0  0  0
   -1.7699    1.4277   -0.8287 H   0  0  0  0  0  0  0  0  0  0  0  0
   -1.8756   -0.0947   -0.1051 H   0  0  0  0  0  0  0  0  0  0  0  0
   -0.7202    1.9833    1.3480 H   0  0  0  0  0  0  0  0  0  0  0  0
    0.6635    0.9840    0.8584 H   0  0  0  0  0  0  0  0  0  0  0  0
   -0.6868    0.2624    1.7156 H   0  0  0  0  0  0  0  0  0  0  0  0
    1.2198   -5.0894    2.6106 H   0  0  0  0  0  0  0  0  0  0  0  0
    1.8380   -8.1890    6.2636 H   0  0  0  0  0  0  0  0  0  0  0  0
   -3.0148   -8.2454    5.9494 H   0  0  0  0  0  0  0  0  0  0  0  0
   -1.9002   -9.4170    9.0202 H   0  0  0  0  0  0  0  0  0  0  0  0
   -2.7500  -11.5765    7.5170 H   0  0  0  0  0  0  0  0  0  0  0  0
   -2.0366  -12.5404    9.8196 H   0  0  0  0  0  0  0  0  0  0  0  0
    0.6306  -12.6174    9.8475 H   0  0  0  0  0  0  0  0  0  0  0  0
    1.4671  -11.5841    7.6666 H   0  0  0  0  0  0  0  0  0  0  0  0
   -0.6652  -12.8983    6.8585 H   0  0  0  0  0  0  0  0  0  0  0  0
   -0.6120  -11.2312    6.0297 H   0  0  0  0  0  0  0  0  0  0  0  0
    0.5069   -9.4662    9.1378 H   0  0  0  0  0  0  0  0  0  0  0  0
  1  2  2  3
  2  3  1  0
  3  4  2  0
  3  5  1  0
  5  6  1  0
  6  7  2  0
  7  8  1  0
  7  9  1  0
  9 10  1  0
 10 11  1  0
 11 12  2  3
 12 13  1  0
 13 14  3  0
 12 15  1  0
 15 16  3  0
  1 17  1  0
 17 18  2  0
 18 19  1  0
 19 20  1  0
 18 21  1  0
 21 22  1  0
 22 23  1  0
 23 24  1  0
 24 25  1  0
 25 26  1  0
 26 27  2  0
 27 28  1  0
 28 29  1  0
 26 30  1  0
 30 31  1  0
 31 32  1  0
 32 33  1  0
 33 34  1  0
 34 35  1  0
 35 36  1  0
 34 37  2  0
 37 38  1  0
 38 39  1  0
 39 40  1  0
 40 41  1  0
 41 42  1  0
 42 43  1  0
 43 44  1  0
 44 45  1  0
 45 46  1  0
 46 47  1  0
 44 48  1  0
 48 49  1  0
 41 50  1  0
 50 51  1  0
 37 52  1  0
 52 53  2  3
 53 54  1  0
 54 55  2  0
 54 56  1  0
 56 57  2  0
 57 58  1  0
 58 59  2  0
 59 60  1  0
 60 61  2  0
 61 62  1  0
 62 63  2  3
 63 64  1  0
 64 65  3  0
 63 66  1  0
 66 67  3  0
 59 68  1  0
 68 69  1  0
 69 70  1  0
 70 71  2  0
 71 72  1  0
 72 73  1  0
 72 74  1  0
 11  2  1  0
 47 17  1  0
 62 53  1  0
 74 68  1  0
 10  5  2  0
 46 21  2  0
 61 56  1  0
 73 69  1  0
 45 23  2  0
 74 58  1  0
 43 24  2  0
 29 25  2  0
 42 30  2  0
 40 31  2  0
 39 33  2  0
  1 75  1  0
  6 76  1  0
 19 77  1  0
 19 78  1  0
 20 79  1  0
 20 80  1  0
 20 81  1  0
 35 82  1  0
 35 83  1  0
 36 84  1  0
 36 85  1  0
 36 86  1  0
 48 87  1  0
 48 88  1  0
 49 89  1  0
 49 90  1  0
 49 91  1  0
 50 92  1  0
 50 93  1  0
 51 94  1  0
 51 95  1  0
 51 96  1  0
 52 97  1  0
 57 98  1  0
 60 99  1  0
 68100  1  0
 69101  1  0
 70102  1  0
 71103  1  0
 72104  1  0
 73105  1  0
 73106  1  0
 74107  1  0
M  END

