
     RDKit          3D

132146  0  0  0  0  0  0  0  0999 V2000
   -4.6768   -6.1303   -2.2720 C   0  0  0  0  0  0  0  0  0  0  0  0
   -5.3329   -6.5158   -3.2507 C   0  0  0  0  0  0  0  0  0  0  0  0
   -5.0067   -6.7286   -4.6186 C   0  0  0  0  0  0  0  0  0  0  0  0
   -3.8038   -6.5321   -5.0971 O   0  0  0  0  0  0  0  0  0  0  0  0
   -6.1306   -7.1670   -5.4244 C   0  0  0  0  0  0  0  0  0  0  0  0
   -6.6295   -7.5396   -6.6010 C   0  0  0  0  0  0  0  0  0  0  0  0
   -7.7215   -7.9020   -7.0033 C   0  0  0  0  0  0  0  0  0  0  0  0
   -8.5119   -8.4269   -8.4959 Cl  0  0  0  0  0  0  0  0  0  0  0  0
   -8.5688   -7.7710   -5.4043 S   0  0  0  0  0  0  0  0  0  0  0  0
   -7.2183   -7.2272   -4.4671 C   0  0  0  0  0  0  0  0  0  0  0  0
   -6.8201   -6.8446   -3.1466 C   0  0  0  0  0  0  0  0  0  0  0  0
   -7.6882   -6.6567   -2.1771 C   0  0  0  0  0  0  0  0  0  0  0  0
   -7.4179   -6.0192   -0.8959 C   0  0  0  0  0  0  0  0  0  0  0  0
   -7.2086   -5.5348    0.0619 N   0  0  0  0  0  0  0  0  0  0  0  0
   -9.0513   -7.0587   -2.3559 C   0  0  0  0  0  0  0  0  0  0  0  0
  -10.1738   -7.4045   -2.4950 N   0  0  0  0  0  0  0  0  0  0  0  0
   -3.3103   -5.6992   -2.0065 C   0  0  0  0  0  0  0  0  0  0  0  0
   -2.6178   -5.8106   -0.3560 S   0  0  0  0  0  0  0  0  0  0  0  0
   -1.3116   -4.8194   -0.6287 C   0  0  0  0  0  0  0  0  0  0  0  0
   -0.4484   -3.8624    0.1182 C   0  0  0  0  0  0  0  0  0  0  0  0
    0.0173   -2.8870   -0.7320 C   0  0  0  0  0  0  0  0  0  0  0  0
   -0.1475   -3.5234   -2.0923 C   0  0  0  0  0  0  0  0  0  0  0  0
   -1.3538   -4.4521   -1.8437 C   0  0  0  0  0  0  0  0  0  0  0  0
   -2.4190   -4.9302   -2.6010 C   0  0  0  0  0  0  0  0  0  0  0  0
   -0.5020   -2.6267   -3.1891 C   0  0  0  0  0  0  0  0  0  0  0  0
    0.5785   -2.2191   -4.0823 C   0  0  0  0  0  0  0  0  0  0  0  0
    0.0260   -1.4071   -5.1078 C   0  0  0  0  0  0  0  0  0  0  0  0
   -1.2001   -1.0051   -5.3420 C   0  0  0  0  0  0  0  0  0  0  0  0
   -1.7075   -0.1549   -6.4560 C   0  0  0  0  0  0  0  0  0  0  0  0
   -2.1063   -1.0274   -7.6058 C   0  0  0  0  0  0  0  0  0  0  0  0
   -2.2713   -1.4514   -4.3990 C   0  0  0  0  0  0  0  0  0  0  0  0
   -1.6407   -2.2319   -3.4421 C   0  0  0  0  0  0  0  0  0  0  0  0
    1.1013   -4.2903   -2.3468 C   0  0  0  0  0  0  0  0  0  0  0  0
    2.2654   -3.7893   -1.8864 C   0  0  0  0  0  0  0  0  0  0  0  0
    3.3973   -4.5764   -2.1385 C   0  0  0  0  0  0  0  0  0  0  0  0
    3.4187   -5.7024   -2.7630 C   0  0  0  0  0  0  0  0  0  0  0  0
    4.7107   -6.4936   -3.0124 C   0  0  0  0  0  0  0  0  0  0  0  0
    4.9893   -7.1220   -1.6553 C   0  0  0  0  0  0  0  0  0  0  0  0
    2.1940   -6.2536   -3.2668 C   0  0  0  0  0  0  0  0  0  0  0  0
    1.0240   -5.5173   -3.0445 C   0  0  0  0  0  0  0  0  0  0  0  0
    0.4256   -1.8113   -0.0829 C   0  0  0  0  0  0  0  0  0  0  0  0
    0.4211   -0.3508   -1.2448 C   0  0  0  0  0  0  0  0  0  0  0  0
    0.5787    0.3155   -0.1062 C   0  0  0  0  0  0  0  0  0  0  0  0
   -0.4064    2.2961   -0.9233 Se  0  0  0  0  0  2  0  0  0  0  0  0
   -0.0607    2.9978    0.7128 C   0  0  0  0  0  0  0  0  0  0  0  0
    0.0809    4.3421    1.2687 C   0  0  0  0  0  0  0  0  0  0  0  0
    0.7876    4.2782    2.4959 C   0  0  0  0  0  0  0  0  0  0  0  0
    0.7113    2.7994    2.8118 C   0  0  0  0  0  0  0  0  0  0  0  0
    1.7533    2.2629    3.6198 C   0  0  0  0  0  0  0  0  0  0  0  0
    1.5271    2.5827    5.1242 C   0  0  0  0  0  0  0  0  0  0  0  0
    2.4742    1.8695    5.7329 C   0  0  0  0  0  0  0  0  0  0  0  0
    3.4606    1.0621    5.5970 C   0  0  0  0  0  0  0  0  0  0  0  0
    4.3506    0.3267    6.4367 C   0  0  0  0  0  0  0  0  0  0  0  0
    5.5537    1.1861    6.8123 C   0  0  0  0  0  0  0  0  0  0  0  0
    3.6190    0.8155    4.0771 C   0  0  0  0  0  0  0  0  0  0  0  0
    2.7292    1.4606    3.3437 C   0  0  0  0  0  0  0  0  0  0  0  0
   -0.6467    2.6637    3.4950 C   0  0  0  0  0  0  0  0  0  0  0  0
   -1.2014    3.7776    4.0991 C   0  0  0  0  0  0  0  0  0  0  0  0
   -2.4526    3.7554    4.7868 C   0  0  0  0  0  0  0  0  0  0  0  0
   -3.1792    2.5412    4.8706 C   0  0  0  0  0  0  0  0  0  0  0  0
   -4.4781    2.4209    5.4826 C   0  0  0  0  0  0  0  0  0  0  0  0
   -4.4080    1.9247    6.9032 C   0  0  0  0  0  0  0  0  0  0  0  0
   -2.6077    1.4963    4.2620 C   0  0  0  0  0  0  0  0  0  0  0  0
   -1.4336    1.5251    3.6222 C   0  0  0  0  0  0  0  0  0  0  0  0
    0.5308    2.0980    1.5045 C   0  0  0  0  0  0  0  0  0  0  0  0
    0.7112    0.9412    0.8222 C   0  0  0  0  0  0  0  0  0  0  0  0
    0.7577   -0.4127    1.8825 C   0  0  0  0  0  0  0  0  0  0  0  0
    0.5774   -1.3022    0.9040 C   0  0  0  0  0  0  0  0  0  0  0  0
   -0.2333   -3.2154    1.8614 Se  0  0  0  0  0  2  0  0  0  0  0  0
    1.1665    5.4553    2.9211 C   0  0  0  0  0  0  0  0  0  0  0  0
    0.9300    6.5948    2.3355 C   0  0  0  0  0  0  0  0  0  0  0  0
    0.0485    6.0151    0.9289 S   0  0  0  0  0  0  0  0  0  0  0  0
    1.2138    7.9848    2.5125 C   0  0  0  0  0  0  0  0  0  0  0  0
    2.2263    8.5543    1.8153 C   0  0  0  0  0  0  0  0  0  0  0  0
    2.5566    9.9655    1.9150 C   0  0  0  0  0  0  0  0  0  0  0  0
    2.1001   10.8867    2.5672 O   0  0  0  0  0  0  0  0  0  0  0  0
    3.7790   10.1973    0.9643 C   0  0  0  0  0  0  0  0  0  0  0  0
    4.4951   11.2211    0.6858 C   0  0  0  0  0  0  0  0  0  0  0  0
    5.5927   11.0548   -0.1904 C   0  0  0  0  0  0  0  0  0  0  0  0
    6.7559   12.2300   -0.7664 Cl  0  0  0  0  0  0  0  0  0  0  0  0
    5.4306    9.3827   -0.5447 S   0  0  0  0  0  0  0  0  0  0  0  0
    4.0477    9.0170    0.4256 C   0  0  0  0  0  0  0  0  0  0  0  0
    3.1190    7.9260    0.8966 C   0  0  0  0  0  0  0  0  0  0  0  0
    3.3064    6.7276    0.5886 C   0  0  0  0  0  0  0  0  0  0  0  0
    3.6432    5.4808    0.1207 C   0  0  0  0  0  0  0  0  0  0  0  0
    3.9117    4.5347   -0.2233 N   0  0  0  0  0  0  0  0  0  0  0  0
    3.0048    7.2283   -1.1273 C   0  0  0  0  0  0  0  0  0  0  0  0
    2.8048    7.5416   -2.2714 N   0  0  0  0  0  0  0  0  0  0  0  0
   -5.2189   -6.0909   -1.2629 H   0  0  0  0  0  0  0  0  0  0  0  0
   -5.7429   -7.5224   -7.4887 H   0  0  0  0  0  0  0  0  0  0  0  0
   -2.5064   -4.6659   -3.6885 H   0  0  0  0  0  0  0  0  0  0  0  0
    1.5576   -2.4493   -4.0047 H   0  0  0  0  0  0  0  0  0  0  0  0
    0.8002   -1.0240   -5.8348 H   0  0  0  0  0  0  0  0  0  0  0  0
   -0.9267    0.5241   -6.7548 H   0  0  0  0  0  0  0  0  0  0  0  0
   -2.5893    0.4597   -6.1418 H   0  0  0  0  0  0  0  0  0  0  0  0
   -3.2219   -1.1146   -7.7137 H   0  0  0  0  0  0  0  0  0  0  0  0
   -1.7377   -2.0556   -7.5042 H   0  0  0  0  0  0  0  0  0  0  0  0
   -1.7611   -0.5521   -8.5216 H   0  0  0  0  0  0  0  0  0  0  0  0
   -3.2362   -1.1934   -4.5177 H   0  0  0  0  0  0  0  0  0  0  0  0
   -2.5302   -2.5891   -2.6743 H   0  0  0  0  0  0  0  0  0  0  0  0
    2.2848   -2.8591   -1.3569 H   0  0  0  0  0  0  0  0  0  0  0  0
    4.3180   -4.1254   -1.7299 H   0  0  0  0  0  0  0  0  0  0  0  0
    5.5060   -5.8652   -3.3555 H   0  0  0  0  0  0  0  0  0  0  0  0
    4.4740   -7.2753   -3.7185 H   0  0  0  0  0  0  0  0  0  0  0  0
    6.0797   -7.3360   -1.5299 H   0  0  0  0  0  0  0  0  0  0  0  0
    4.7793   -6.3932   -0.7961 H   0  0  0  0  0  0  0  0  0  0  0  0
    4.3792   -8.0197   -1.4341 H   0  0  0  0  0  0  0  0  0  0  0  0
    2.1643   -7.1448   -3.7877 H   0  0  0  0  0  0  0  0  0  0  0  0
    0.0692   -5.8214   -3.3747 H   0  0  0  0  0  0  0  0  0  0  0  0
    0.5849   -1.0402   -1.9048 H   0  0  0  0  0  0  0  0  0  0  0  0
    0.7757    3.2076    5.3808 H   0  0  0  0  0  0  0  0  0  0  0  0
    2.3391    2.0853    6.9333 H   0  0  0  0  0  0  0  0  0  0  0  0
    4.7267   -0.6189    5.9316 H   0  0  0  0  0  0  0  0  0  0  0  0
    3.8129    0.0525    7.3745 H   0  0  0  0  0  0  0  0  0  0  0  0
    5.3215    2.2441    6.9191 H   0  0  0  0  0  0  0  0  0  0  0  0
    6.3155    1.0955    6.0068 H   0  0  0  0  0  0  0  0  0  0  0  0
    5.9781    0.8400    7.7958 H   0  0  0  0  0  0  0  0  0  0  0  0
    4.3875    0.1797    3.8617 H   0  0  0  0  0  0  0  0  0  0  0  0
    2.9196    1.2570    2.1886 H   0  0  0  0  0  0  0  0  0  0  0  0
   -0.7261    4.7592    4.1077 H   0  0  0  0  0  0  0  0  0  0  0  0
   -2.8313    4.6360    5.2437 H   0  0  0  0  0  0  0  0  0  0  0  0
   -5.0315    3.4240    5.5641 H   0  0  0  0  0  0  0  0  0  0  0  0
   -5.1467    1.7111    4.9230 H   0  0  0  0  0  0  0  0  0  0  0  0
   -4.1424    2.6548    7.6253 H   0  0  0  0  0  0  0  0  0  0  0  0
   -3.7048    1.0483    6.9807 H   0  0  0  0  0  0  0  0  0  0  0  0
   -5.4194    1.4492    7.2549 H   0  0  0  0  0  0  0  0  0  0  0  0
   -3.1399    0.4976    4.2863 H   0  0  0  0  0  0  0  0  0  0  0  0
   -1.1137    0.5936    3.1508 H   0  0  0  0  0  0  0  0  0  0  0  0
    0.8496   -0.2672    2.7894 H   0  0  0  0  0  0  0  0  0  0  0  0
    1.7676    5.4585    3.9470 H   0  0  0  0  0  0  0  0  0  0  0  0
    0.6577    8.6319    3.2073 H   0  0  0  0  0  0  0  0  0  0  0  0
    4.3851   12.2903    1.0594 H   0  0  0  0  0  0  0  0  0  0  0  0
  1  2  2  3
  2  3  1  0
  3  4  2  0
  3  5  1  0
  5  6  1  0
  6  7  2  0
  7  8  1  0
  7  9  1  0
  9 10  1  0
 10 11  1  0
 11 12  2  3
 12 13  1  0
 13 14  3  0
 12 15  1  0
 15 16  3  0
  1 17  1  0
 17 18  1  0
 18 19  1  0
 19 20  1  0
 20 21  2  0
 21 22  1  0
 22 23  1  0
 23 24  1  0
 22 25  1  0
 25 26  2  0
 26 27  1  0
 27 28  2  0
 28 29  1  0
 29 30  1  0
 28 31  1  0
 31 32  2  0
 22 33  1  0
 33 34  2  0
 34 35  1  0
 35 36  2  0
 36 37  1  0
 37 38  1  0
 36 39  1  0
 39 40  2  0
 21 41  1  0
 41 42  2  0
 42 43  1  0
 43 44  1  0
 44 45  1  0
 45 46  1  0
 46 47  2  0
 47 48  1  0
 48 49  1  0
 49 50  2  0
 50 51  1  0
 51 52  2  0
 52 53  1  0
 53 54  1  0
 52 55  1  0
 55 56  2  0
 48 57  1  0
 57 58  2  0
 58 59  1  0
 59 60  2  0
 60 61  1  0
 61 62  1  0
 60 63  1  0
 63 64  2  0
 48 65  1  0
 65 66  1  0
 66 67  1  0
 67 68  2  0
 68 69  1  0
 47 70  1  0
 70 71  2  0
 71 72  1  0
 71 73  1  0
 73 74  2  3
 74 75  1  0
 75 76  2  0
 75 77  1  0
 77 78  1  0
 78 79  2  0
 79 80  1  0
 79 81  1  0
 81 82  1  0
 82 83  1  0
 83 84  2  3
 84 85  1  0
 85 86  3  0
 84 87  1  0
 87 88  3  0
 11  2  1  0
 24 17  2  0
 32 25  1  0
 40 33  1  0
 68 41  1  0
 83 74  1  0
 10  5  2  0
 23 19  2  0
 66 43  2  0
 82 77  2  0
 69 20  1  0
 65 45  2  0
 72 46  1  0
 56 49  1  0
 64 57  1  0
  1 89  1  0
  6 90  1  0
 24 91  1  0
 26 92  1  0
 27 93  1  0
 29 94  1  0
 29 95  1  0
 30 96  1  0
 30 97  1  0
 30 98  1  0
 31 99  1  0
 32100  1  0
 34101  1  0
 35102  1  0
 37103  1  0
 37104  1  0
 38105  1  0
 38106  1  0
 38107  1  0
 39108  1  0
 40109  1  0
 42110  1  0
 50111  1  0
 51112  1  0
 53113  1  0
 53114  1  0
 54115  1  0
 54116  1  0
 54117  1  0
 55118  1  0
 56119  1  0
 58120  1  0
 59121  1  0
 61122  1  0
 61123  1  0
 62124  1  0
 62125  1  0
 62126  1  0
 63127  1  0
 64128  1  0
 67129  1  0
 70130  1  0
 73131  1  0
 78132  1  0
M  END

