
     RDKit          3D

151165  0  0  0  0  0  0  0  0999 V2000
    1.5284   -7.8619    0.1916 C   0  0  0  0  0  0  0  0  0  0  0  0
    2.3554   -8.2785    1.1858 C   0  0  0  0  0  0  0  0  0  0  0  0
    1.8901   -9.4347    1.9511 C   0  0  0  0  0  0  0  0  0  0  0  0
    1.4901  -10.5184    1.4687 O   0  0  0  0  0  0  0  0  0  0  0  0
    2.1333   -9.1157    3.3439 C   0  0  0  0  0  0  0  0  0  0  0  0
    1.9091   -9.7986    4.5262 C   0  0  0  0  0  0  0  0  0  0  0  0
    2.4204   -9.0613    5.5989 C   0  0  0  0  0  0  0  0  0  0  0  0
    2.2477   -9.4974    7.2804 Cl  0  0  0  0  0  0  0  0  0  0  0  0
    3.1192   -7.6175    5.0902 S   0  0  0  0  0  0  0  0  0  0  0  0
    2.7171   -7.9063    3.4544 C   0  0  0  0  0  0  0  0  0  0  0  0
    3.1148   -7.4129    2.1436 C   0  0  0  0  0  0  0  0  0  0  0  0
    4.3300   -6.9222    1.9354 C   0  0  0  0  0  0  0  0  0  0  0  0
    4.9888   -7.0312    0.6162 C   0  0  0  0  0  0  0  0  0  0  0  0
    5.5103   -7.2711   -0.3784 N   0  0  0  0  0  0  0  0  0  0  0  0
    5.1126   -6.3162    3.0298 C   0  0  0  0  0  0  0  0  0  0  0  0
    5.7702   -5.8393    3.8479 N   0  0  0  0  0  0  0  0  0  0  0  0
    0.9356   -6.4871   -0.0596 C   0  0  0  0  0  0  0  0  0  0  0  0
   -0.7641   -6.1583    0.0352 S   0  0  0  0  0  0  0  0  0  0  0  0
   -0.6583   -4.6875   -0.8214 C   0  0  0  0  0  0  0  0  0  0  0  0
   -1.4743   -3.5062   -1.0399 C   0  0  0  0  0  0  0  0  0  0  0  0
   -0.5989   -2.5328   -1.6095 C   0  0  0  0  0  0  0  0  0  0  0  0
    0.7957   -3.1108   -1.8855 C   0  0  0  0  0  0  0  0  0  0  0  0
    0.5958   -4.4819   -1.2128 C   0  0  0  0  0  0  0  0  0  0  0  0
    1.5056   -5.4627   -0.8258 C   0  0  0  0  0  0  0  0  0  0  0  0
    1.8353   -2.4159   -1.0169 C   0  0  0  0  0  0  0  0  0  0  0  0
    3.1321   -2.0296   -1.4284 C   0  0  0  0  0  0  0  0  0  0  0  0
    4.0202   -1.4536   -0.4978 C   0  0  0  0  0  0  0  0  0  0  0  0
    3.6431   -1.2901    0.8606 C   0  0  0  0  0  0  0  0  0  0  0  0
    4.5415   -0.7194    1.7743 O   0  0  0  0  0  0  0  0  0  0  0  0
    4.2065   -0.4847    3.1582 C   0  0  0  0  0  0  0  0  0  0  0  0
    3.0669    0.5538    3.2947 C   0  0  0  0  0  0  0  0  0  0  0  0
    2.3795   -1.7208    1.2567 C   0  0  0  0  0  0  0  0  0  0  0  0
    1.4843   -2.2542    0.3459 C   0  0  0  0  0  0  0  0  0  0  0  0
    1.1493   -3.3378   -3.3873 C   0  0  0  0  0  0  0  0  0  0  0  0
    1.4234   -2.2889   -4.2816 C   0  0  0  0  0  0  0  0  0  0  0  0
    1.7900   -2.5366   -5.6166 C   0  0  0  0  0  0  0  0  0  0  0  0
    1.9298   -3.8407   -6.0892 C   0  0  0  0  0  0  0  0  0  0  0  0
    2.3818   -4.0788   -7.3883 O   0  0  0  0  0  0  0  0  0  0  0  0
    2.5556   -5.3609   -7.9599 C   0  0  0  0  0  0  0  0  0  0  0  0
    3.7195   -6.1163   -7.2871 C   0  0  0  0  0  0  0  0  0  0  0  0
    1.6229   -4.9055   -5.2225 C   0  0  0  0  0  0  0  0  0  0  0  0
    1.2665   -4.6740   -3.9133 C   0  0  0  0  0  0  0  0  0  0  0  0
   -0.9785   -1.1590   -1.5158 C   0  0  0  0  0  0  0  0  0  0  0  0
   -0.0643   -0.1216   -1.9027 C   0  0  0  0  0  0  0  0  0  0  0  0
   -0.4269    1.2277   -1.7814 C   0  0  0  0  0  0  0  0  0  0  0  0
    0.4941    2.2377   -2.2674 C   0  0  0  0  0  0  0  0  0  0  0  0
    0.1698    3.6057   -2.1822 C   0  0  0  0  0  0  0  0  0  0  0  0
   -1.0268    3.9688   -1.5686 C   0  0  0  0  0  0  0  0  0  0  0  0
   -1.4200    5.3352   -1.0958 C   0  0  0  0  0  0  0  0  0  0  0  0
   -2.2353    5.1168   -0.0077 C   0  0  0  0  0  0  0  0  0  0  0  0
   -2.9487    3.7844   -0.2359 C   0  0  0  0  0  0  0  0  0  0  0  0
   -3.2446    3.0665    1.0817 C   0  0  0  0  0  0  0  0  0  0  0  0
   -2.1261    2.8398    1.9075 C   0  0  0  0  0  0  0  0  0  0  0  0
   -2.2445    2.5468    3.2580 C   0  0  0  0  0  0  0  0  0  0  0  0
   -3.5293    2.3710    3.8295 C   0  0  0  0  0  0  0  0  0  0  0  0
   -3.6382    2.0467    5.1990 O   0  0  0  0  0  0  0  0  0  0  0  0
   -2.4611    2.0348    6.0251 C   0  0  0  0  0  0  0  0  0  0  0  0
   -2.7670    1.6059    7.4349 C   0  0  0  0  0  0  0  0  0  0  0  0
   -4.6732    2.5002    3.0076 C   0  0  0  0  0  0  0  0  0  0  0  0
   -4.5288    2.8312    1.6218 C   0  0  0  0  0  0  0  0  0  0  0  0
   -4.1386    4.1163   -1.1902 C   0  0  0  0  0  0  0  0  0  0  0  0
   -5.0952    5.0677   -0.7659 C   0  0  0  0  0  0  0  0  0  0  0  0
   -5.7613    5.8924   -1.6872 C   0  0  0  0  0  0  0  0  0  0  0  0
   -5.4814    5.8056   -3.0513 C   0  0  0  0  0  0  0  0  0  0  0  0
   -6.0753    6.7099   -3.9759 O   0  0  0  0  0  0  0  0  0  0  0  0
   -5.6808    6.8820   -5.3426 C   0  0  0  0  0  0  0  0  0  0  0  0
   -6.0560    5.6669   -6.2049 C   0  0  0  0  0  0  0  0  0  0  0  0
   -4.5789    4.8297   -3.4918 C   0  0  0  0  0  0  0  0  0  0  0  0
   -4.0087    3.9300   -2.5932 C   0  0  0  0  0  0  0  0  0  0  0  0
   -1.8776    3.0122   -1.0119 C   0  0  0  0  0  0  0  0  0  0  0  0
   -1.6304    1.6185   -1.2187 C   0  0  0  0  0  0  0  0  0  0  0  0
   -2.5459    0.5676   -0.7732 C   0  0  0  0  0  0  0  0  0  0  0  0
   -2.2092   -0.7893   -0.9896 C   0  0  0  0  0  0  0  0  0  0  0  0
   -3.0546   -1.8231   -0.4642 C   0  0  0  0  0  0  0  0  0  0  0  0
   -2.6837   -3.1646   -0.4837 C   0  0  0  0  0  0  0  0  0  0  0  0
   -1.8585    5.7775    1.1850 C   0  0  0  0  0  0  0  0  0  0  0  0
   -0.7354    6.6614    0.9079 C   0  0  0  0  0  0  0  0  0  0  0  0
   -0.4084    6.5854   -0.7625 S   0  0  0  0  0  0  0  0  0  0  0  0
    0.3784    6.7780    1.9425 C   0  0  0  0  0  0  0  0  0  0  0  0
    1.5211    7.5048    1.6280 C   0  0  0  0  0  0  0  0  0  0  0  0
    1.5986    8.9449    0.7649 S   0  0  0  0  0  0  0  0  0  0  0  0
    3.2317    8.6807    0.3432 C   0  0  0  0  0  0  0  0  0  0  0  0
    3.9650    9.7042   -0.1514 C   0  0  0  0  0  0  0  0  0  0  0  0
    5.3194   10.0273    0.3794 C   0  0  0  0  0  0  0  0  0  0  0  0
    6.4144   10.3168    0.6338 N   0  0  0  0  0  0  0  0  0  0  0  0
    3.8321    9.9665   -1.6260 C   0  0  0  0  0  0  0  0  0  0  0  0
    3.7000   10.2564   -2.7283 N   0  0  0  0  0  0  0  0  0  0  0  0
    3.8159    7.6717    0.9990 N   0  0  0  0  0  0  0  0  0  0  0  0
    4.3512    6.6744   -0.0133 C   0  0  0  0  0  0  0  0  0  0  0  0
    4.3944    5.2642    0.5055 C   0  0  0  0  0  0  0  0  0  0  0  0
    3.2944    4.4172    0.3149 C   0  0  0  0  0  0  0  0  0  0  0  0
    3.4823    3.0428    0.4803 C   0  0  0  0  0  0  0  0  0  0  0  0
    4.7305    2.5788    0.9431 C   0  0  0  0  0  0  0  0  0  0  0  0
    5.6977    3.4770    1.4599 C   0  0  0  0  0  0  0  0  0  0  0  0
    5.4903    4.8477    1.2489 C   0  0  0  0  0  0  0  0  0  0  0  0
    2.8718    7.1215    1.8287 C   0  0  0  0  0  0  0  0  0  0  0  0
    3.2494    6.5699    2.9260 O   0  0  0  0  0  0  0  0  0  0  0  0
    2.1503   -7.9167   -0.7139 H   0  0  0  0  0  0  0  0  0  0  0  0
    1.4493  -10.7695    4.5877 H   0  0  0  0  0  0  0  0  0  0  0  0
    2.5839   -5.4136   -1.0795 H   0  0  0  0  0  0  0  0  0  0  0  0
    3.4481   -2.1630   -2.4459 H   0  0  0  0  0  0  0  0  0  0  0  0
    5.0042   -1.1285   -0.8175 H   0  0  0  0  0  0  0  0  0  0  0  0
    3.8821   -1.4555    3.6145 H   0  0  0  0  0  0  0  0  0  0  0  0
    5.0952   -0.1340    3.6913 H   0  0  0  0  0  0  0  0  0  0  0  0
    2.2689    0.1675    3.9741 H   0  0  0  0  0  0  0  0  0  0  0  0
    2.5811    0.7779    2.3218 H   0  0  0  0  0  0  0  0  0  0  0  0
    3.4464    1.5161    3.6964 H   0  0  0  0  0  0  0  0  0  0  0  0
    2.0241   -1.6585    2.2859 H   0  0  0  0  0  0  0  0  0  0  0  0
    0.5062   -2.5322    0.7305 H   0  0  0  0  0  0  0  0  0  0  0  0
    1.3596   -1.2595   -4.0303 H   0  0  0  0  0  0  0  0  0  0  0  0
    1.9960   -1.6995   -6.2571 H   0  0  0  0  0  0  0  0  0  0  0  0
    1.6000   -5.9240   -7.8536 H   0  0  0  0  0  0  0  0  0  0  0  0
    2.7441   -5.2629   -9.0402 H   0  0  0  0  0  0  0  0  0  0  0  0
    4.0265   -5.6257   -6.3280 H   0  0  0  0  0  0  0  0  0  0  0  0
    4.5947   -6.1423   -7.9727 H   0  0  0  0  0  0  0  0  0  0  0  0
    3.4034   -7.1587   -7.0499 H   0  0  0  0  0  0  0  0  0  0  0  0
    1.7043   -5.9263   -5.5349 H   0  0  0  0  0  0  0  0  0  0  0  0
    1.0484   -5.5721   -3.3308 H   0  0  0  0  0  0  0  0  0  0  0  0
    0.9417   -0.3552   -2.1631 H   0  0  0  0  0  0  0  0  0  0  0  0
    1.4373    1.9300   -2.6506 H   0  0  0  0  0  0  0  0  0  0  0  0
    0.8864    4.3214   -2.5429 H   0  0  0  0  0  0  0  0  0  0  0  0
   -1.1261    3.0034    1.5437 H   0  0  0  0  0  0  0  0  0  0  0  0
   -1.3360    2.5272    3.8279 H   0  0  0  0  0  0  0  0  0  0  0  0
   -2.0132    3.0543    6.0586 H   0  0  0  0  0  0  0  0  0  0  0  0
   -1.7374    1.3138    5.6153 H   0  0  0  0  0  0  0  0  0  0  0  0
   -3.0052    0.5231    7.4679 H   0  0  0  0  0  0  0  0  0  0  0  0
   -3.5947    2.1958    7.8537 H   0  0  0  0  0  0  0  0  0  0  0  0
   -1.8617    1.7699    8.0487 H   0  0  0  0  0  0  0  0  0  0  0  0
   -5.6701    2.3155    3.4076 H   0  0  0  0  0  0  0  0  0  0  0  0
   -5.4231    3.0180    1.0485 H   0  0  0  0  0  0  0  0  0  0  0  0
   -5.2284    5.2930    0.2745 H   0  0  0  0  0  0  0  0  0  0  0  0
   -6.4483    6.6618   -1.3401 H   0  0  0  0  0  0  0  0  0  0  0  0
   -6.1619    7.7657   -5.7316 H   0  0  0  0  0  0  0  0  0  0  0  0
   -4.5923    7.0617   -5.3687 H   0  0  0  0  0  0  0  0  0  0  0  0
   -6.7437    5.9595   -7.0085 H   0  0  0  0  0  0  0  0  0  0  0  0
   -5.1429    5.2473   -6.6765 H   0  0  0  0  0  0  0  0  0  0  0  0
   -6.5287    4.8662   -5.5979 H   0  0  0  0  0  0  0  0  0  0  0  0
   -4.2797    4.7603   -4.5237 H   0  0  0  0  0  0  0  0  0  0  0  0
   -3.3041    3.2604   -3.0219 H   0  0  0  0  0  0  0  0  0  0  0  0
   -3.4767    0.8552   -0.3303 H   0  0  0  0  0  0  0  0  0  0  0  0
   -3.9834   -1.5356    0.0074 H   0  0  0  0  0  0  0  0  0  0  0  0
   -3.3366   -3.9105    0.0316 H   0  0  0  0  0  0  0  0  0  0  0  0
   -2.1562    5.4657    2.2196 H   0  0  0  0  0  0  0  0  0  0  0  0
    0.5448    5.8264    2.5139 H   0  0  0  0  0  0  0  0  0  0  0  0
    5.3720    7.0263   -0.2787 H   0  0  0  0  0  0  0  0  0  0  0  0
    3.7642    6.6490   -0.9713 H   0  0  0  0  0  0  0  0  0  0  0  0
    2.3713    4.8383   -0.0761 H   0  0  0  0  0  0  0  0  0  0  0  0
    2.7136    2.3599    0.1187 H   0  0  0  0  0  0  0  0  0  0  0  0
    4.9270    1.5391    0.8964 H   0  0  0  0  0  0  0  0  0  0  0  0
    6.6447    3.1133    1.8510 H   0  0  0  0  0  0  0  0  0  0  0  0
    6.2653    5.5524    1.5754 H   0  0  0  0  0  0  0  0  0  0  0  0
  1  2  2  3
  2  3  1  0
  3  4  2  0
  3  5  1  0
  5  6  1  0
  6  7  2  0
  7  8  1  0
  7  9  1  0
  9 10  1  0
 10 11  1  0
 11 12  2  3
 12 13  1  0
 13 14  3  0
 12 15  1  0
 15 16  3  0
  1 17  1  0
 17 18  1  0
 18 19  1  0
 19 20  1  0
 20 21  2  0
 21 22  1  0
 22 23  1  0
 23 24  1  0
 22 25  1  0
 25 26  2  0
 26 27  1  0
 27 28  2  0
 28 29  1  0
 29 30  1  0
 30 31  1  0
 28 32  1  0
 32 33  2  0
 22 34  1  0
 34 35  2  0
 35 36  1  0
 36 37  2  0
 37 38  1  0
 38 39  1  0
 39 40  1  0
 37 41  1  0
 41 42  2  0
 21 43  1  0
 43 44  2  0
 44 45  1  0
 45 46  2  0
 46 47  1  0
 47 48  2  0
 48 49  1  0
 49 50  2  0
 50 51  1  0
 51 52  1  0
 52 53  2  0
 53 54  1  0
 54 55  2  0
 55 56  1  0
 56 57  1  0
 57 58  1  0
 55 59  1  0
 59 60  2  0
 51 61  1  0
 61 62  2  0
 62 63  1  0
 63 64  2  0
 64 65  1  0
 65 66  1  0
 66 67  1  0
 64 68  1  0
 68 69  2  0
 51 70  1  0
 70 71  2  0
 71 72  1  0
 72 73  2  0
 73 74  1  0
 74 75  2  0
 50 76  1  0
 76 77  2  0
 77 78  1  0
 77 79  1  0
 79 80  2  3
 80 81  1  0
 81 82  1  0
 82 83  2  3
 83 84  1  0
 84 85  3  0
 83 86  1  0
 86 87  3  0
 82 88  1  0
 88 89  1  0
 89 90  1  0
 90 91  2  0
 91 92  1  0
 92 93  2  0
 93 94  1  0
 94 95  2  0
 88 96  1  0
 96 97  2  0
 11  2  1  0
 24 17  2  0
 33 25  1  0
 42 34  1  0
 73 43  1  0
 96 80  1  0
 10  5  2  0
 23 19  2  0
 71 45  1  0
 95 90  1  0
 75 20  1  0
 70 48  1  0
 78 49  1  0
 60 52  1  0
 69 61  1  0
  1 98  1  0
  6 99  1  0
 24100  1  0
 26101  1  0
 27102  1  0
 30103  1  0
 30104  1  0
 31105  1  0
 31106  1  0
 31107  1  0
 32108  1  0
 33109  1  0
 35110  1  0
 36111  1  0
 39112  1  0
 39113  1  0
 40114  1  0
 40115  1  0
 40116  1  0
 41117  1  0
 42118  1  0
 44119  1  0
 46120  1  0
 47121  1  0
 53122  1  0
 54123  1  0
 57124  1  0
 57125  1  0
 58126  1  0
 58127  1  0
 58128  1  0
 59129  1  0
 60130  1  0
 62131  1  0
 63132  1  0
 66133  1  0
 66134  1  0
 67135  1  0
 67136  1  0
 67137  1  0
 68138  1  0
 69139  1  0
 72140  1  0
 74141  1  0
 75142  1  0
 76143  1  0
 79144  1  0
 89145  1  0
 89146  1  0
 91147  1  0
 92148  1  0
 93149  1  0
 94150  1  0
 95151  1  0
M  END

