
     RDKit          3D

108121  0  0  0  0  0  0  0  0999 V2000
   -3.9125   -4.8517   -7.7437 C   0  0  0  0  0  0  0  0  0  0  0  0
   -4.3178   -5.9452   -7.0698 C   0  0  0  0  0  0  0  0  0  0  0  0
   -4.2624   -6.1275   -5.5970 C   0  0  0  0  0  0  0  0  0  0  0  0
   -3.7728   -5.3375   -4.7464 O   0  0  0  0  0  0  0  0  0  0  0  0
   -4.9941   -7.3306   -5.2795 C   0  0  0  0  0  0  0  0  0  0  0  0
   -5.2571   -8.0363   -4.1077 C   0  0  0  0  0  0  0  0  0  0  0  0
   -5.9881   -9.1939   -4.3901 C   0  0  0  0  0  0  0  0  0  0  0  0
   -6.4995  -10.3771   -3.2021 Cl  0  0  0  0  0  0  0  0  0  0  0  0
   -6.2800   -9.3144   -6.0640 S   0  0  0  0  0  0  0  0  0  0  0  0
   -5.4854   -7.8750   -6.4180 C   0  0  0  0  0  0  0  0  0  0  0  0
   -5.1010   -7.1076   -7.6138 C   0  0  0  0  0  0  0  0  0  0  0  0
   -5.3287   -7.4760   -8.8942 C   0  0  0  0  0  0  0  0  0  0  0  0
   -6.1238   -8.6370   -9.2075 C   0  0  0  0  0  0  0  0  0  0  0  0
   -6.7628   -9.5675   -9.4662 N   0  0  0  0  0  0  0  0  0  0  0  0
   -4.7507   -6.7893  -10.0189 C   0  0  0  0  0  0  0  0  0  0  0  0
   -4.2850   -6.2488  -10.9309 N   0  0  0  0  0  0  0  0  0  0  0  0
   -3.0947   -3.7867   -7.1474 C   0  0  0  0  0  0  0  0  0  0  0  0
   -3.5151   -2.1274   -7.1989 S   0  0  0  0  0  0  0  0  0  0  0  0
   -2.1681   -1.6942   -6.3093 C   0  0  0  0  0  0  0  0  0  0  0  0
   -1.6964   -0.6482   -5.5803 C   0  0  0  0  0  0  0  0  0  0  0  0
   -2.1457    0.9142   -5.1910 S   0  0  0  0  0  0  0  0  0  0  0  0
   -0.9991    0.9874   -3.9254 C   0  0  0  0  0  0  0  0  0  0  0  0
   -0.8332    2.0586   -3.0300 C   0  0  0  0  0  0  0  0  0  0  0  0
   -1.3785    3.3127   -3.3118 O   0  0  0  0  0  0  0  0  0  0  0  0
   -0.9673    4.0827   -4.4395 C   0  0  0  0  0  0  0  0  0  0  0  0
   -2.0551    5.0800   -4.8113 C   0  0  0  0  0  0  0  0  0  0  0  0
   -0.0530    1.8284   -1.8802 C   0  0  0  0  0  0  0  0  0  0  0  0
    0.6232    0.5976   -1.7233 C   0  0  0  0  0  0  0  0  0  0  0  0
    0.4292   -0.4830   -2.5967 C   0  0  0  0  0  0  0  0  0  0  0  0
    0.8672   -1.7618   -2.2498 O   0  0  0  0  0  0  0  0  0  0  0  0
    0.3286   -2.4948   -1.1486 C   0  0  0  0  0  0  0  0  0  0  0  0
   -1.1548   -2.7864   -1.3644 C   0  0  0  0  0  0  0  0  0  0  0  0
   -0.3170   -0.2457   -3.7690 C   0  0  0  0  0  0  0  0  0  0  0  0
   -0.6958   -1.1386   -4.7929 C   0  0  0  0  0  0  0  0  0  0  0  0
   -0.4377   -2.4539   -5.0720 N   0  0  0  0  0  0  0  0  0  0  0  0
   -1.4131   -2.7654   -5.9697 C   0  0  0  0  0  0  0  0  0  0  0  0
   -1.9000   -3.9842   -6.4320 C   0  0  0  0  0  0  0  0  0  0  0  0
    0.7225   -3.2728   -4.6949 C   0  0  0  0  0  0  0  0  0  0  0  0
    1.3813   -3.9325   -5.9073 C   0  0  0  0  0  0  0  0  0  0  0  0
    1.6180    0.6088   -0.3405 S   0  0  0  0  0  0  0  0  0  0  0  0
    1.2052    2.1878    0.0284 C   0  0  0  0  0  0  0  0  0  0  0  0
    1.1775    2.9321    1.1655 C   0  0  0  0  0  0  0  0  0  0  0  0
    1.5661    2.7057    2.7754 S   0  0  0  0  0  0  0  0  0  0  0  0
    0.4808    3.9267    3.2934 C   0  0  0  0  0  0  0  0  0  0  0  0
   -0.2681    4.4065    2.2057 C   0  0  0  0  0  0  0  0  0  0  0  0
    0.1731    3.8291    1.0127 C   0  0  0  0  0  0  0  0  0  0  0  0
   -0.4560    3.6977   -0.1895 N   0  0  0  0  0  0  0  0  0  0  0  0
   -1.7919    4.2199   -0.4905 C   0  0  0  0  0  0  0  0  0  0  0  0
   -1.6885    5.6427   -1.0204 C   0  0  0  0  0  0  0  0  0  0  0  0
    0.2410    2.6891   -0.8038 C   0  0  0  0  0  0  0  0  0  0  0  0
    0.1396    4.1886    4.7002 C   0  0  0  0  0  0  0  0  0  0  0  0
    1.0528    4.4606    5.6539 C   0  0  0  0  0  0  0  0  0  0  0  0
    2.4989    4.6081    5.4370 C   0  0  0  0  0  0  0  0  0  0  0  0
    3.0723    4.8345    4.3378 O   0  0  0  0  0  0  0  0  0  0  0  0
    3.1693    4.5310    6.7143 C   0  0  0  0  0  0  0  0  0  0  0  0
    4.5656    4.5180    6.9431 C   0  0  0  0  0  0  0  0  0  0  0  0
    4.9135    4.3554    8.2701 C   0  0  0  0  0  0  0  0  0  0  0  0
    3.9481    4.1981    9.3160 C   0  0  0  0  0  0  0  0  0  0  0  0
    2.5798    4.2019    9.0967 C   0  0  0  0  0  0  0  0  0  0  0  0
    2.1975    4.4123    7.7412 C   0  0  0  0  0  0  0  0  0  0  0  0
    0.8353    4.4920    7.1362 C   0  0  0  0  0  0  0  0  0  0  0  0
   -0.3255    4.7564    7.7932 C   0  0  0  0  0  0  0  0  0  0  0  0
   -1.5571    5.0630    7.1116 C   0  0  0  0  0  0  0  0  0  0  0  0
   -2.5543    5.3134    6.5780 N   0  0  0  0  0  0  0  0  0  0  0  0
   -0.3934    4.8857    9.2257 C   0  0  0  0  0  0  0  0  0  0  0  0
   -0.4682    4.9949   10.3762 N   0  0  0  0  0  0  0  0  0  0  0  0
    5.0441    4.0489   10.3272 C   0  0  0  0  0  0  0  0  0  0  0  0
    5.3176    2.6092   10.8531 C   0  0  0  0  0  0  0  0  0  0  0  0
    6.6706    2.6671   11.5221 C   0  0  0  0  0  0  0  0  0  0  0  0
    7.5726    2.8195   10.5448 C   0  0  0  0  0  0  0  0  0  0  0  0
    6.7981    2.8602    9.2507 C   0  0  0  0  0  0  0  0  0  0  0  0
    5.7141    1.8529    9.5964 C   0  0  0  0  0  0  0  0  0  0  0  0
    6.0322    4.2146    9.2554 C   0  0  0  0  0  0  0  0  0  0  0  0
   -4.2340   -4.6857   -8.7574 H   0  0  0  0  0  0  0  0  0  0  0  0
   -4.9270   -7.7385   -3.1195 H   0  0  0  0  0  0  0  0  0  0  0  0
   -0.7669    3.4309   -5.3146 H   0  0  0  0  0  0  0  0  0  0  0  0
   -0.0315    4.6249   -4.1850 H   0  0  0  0  0  0  0  0  0  0  0  0
   -1.7077    5.7242   -5.6486 H   0  0  0  0  0  0  0  0  0  0  0  0
   -2.3003    5.7247   -3.9435 H   0  0  0  0  0  0  0  0  0  0  0  0
   -2.9679    4.5351   -5.1311 H   0  0  0  0  0  0  0  0  0  0  0  0
    0.4613   -1.9332   -0.2011 H   0  0  0  0  0  0  0  0  0  0  0  0
    0.8808   -3.4554   -1.0585 H   0  0  0  0  0  0  0  0  0  0  0  0
   -1.3010   -3.3407   -2.3170 H   0  0  0  0  0  0  0  0  0  0  0  0
   -1.5344   -3.4069   -0.5264 H   0  0  0  0  0  0  0  0  0  0  0  0
   -1.7307   -1.8364   -1.3950 H   0  0  0  0  0  0  0  0  0  0  0  0
   -1.4845   -4.9534   -6.1976 H   0  0  0  0  0  0  0  0  0  0  0  0
    1.5149   -2.6228   -4.2745 H   0  0  0  0  0  0  0  0  0  0  0  0
    0.4246   -4.0421   -3.9522 H   0  0  0  0  0  0  0  0  0  0  0  0
    1.6006   -3.1704   -6.6851 H   0  0  0  0  0  0  0  0  0  0  0  0
    2.3396   -4.4028   -5.5989 H   0  0  0  0  0  0  0  0  0  0  0  0
    0.7397   -4.7226   -6.3462 H   0  0  0  0  0  0  0  0  0  0  0  0
   -1.1238    5.0648    2.2966 H   0  0  0  0  0  0  0  0  0  0  0  0
   -2.4095    4.2220    0.4305 H   0  0  0  0  0  0  0  0  0  0  0  0
   -2.3360    3.5642   -1.1939 H   0  0  0  0  0  0  0  0  0  0  0  0
   -0.9946    5.6821   -1.8844 H   0  0  0  0  0  0  0  0  0  0  0  0
   -1.3004    6.3159   -0.2267 H   0  0  0  0  0  0  0  0  0  0  0  0
   -2.6854    5.9996   -1.3375 H   0  0  0  0  0  0  0  0  0  0  0  0
   -0.8991    4.0551    4.9477 H   0  0  0  0  0  0  0  0  0  0  0  0
    5.2995    4.6008    6.1523 H   0  0  0  0  0  0  0  0  0  0  0  0
    1.8941    4.0241    9.9090 H   0  0  0  0  0  0  0  0  0  0  0  0
    5.0553    4.8527   11.0951 H   0  0  0  0  0  0  0  0  0  0  0  0
    4.5085    2.1547   11.4643 H   0  0  0  0  0  0  0  0  0  0  0  0
    6.8964    2.5235   12.5737 H   0  0  0  0  0  0  0  0  0  0  0  0
    8.6500    2.8217   10.6679 H   0  0  0  0  0  0  0  0  0  0  0  0
    7.3854    2.6432    8.3360 H   0  0  0  0  0  0  0  0  0  0  0  0
    4.9017    1.7714    8.8417 H   0  0  0  0  0  0  0  0  0  0  0  0
    6.1113    0.8290    9.8035 H   0  0  0  0  0  0  0  0  0  0  0  0
    6.6623    5.1237    9.3466 H   0  0  0  0  0  0  0  0  0  0  0  0
  1  2  2  3
  2  3  1  0
  3  4  2  0
  3  5  1  0
  5  6  1  0
  6  7  2  0
  7  8  1  0
  7  9  1  0
  9 10  1  0
 10 11  1  0
 11 12  2  3
 12 13  1  0
 13 14  3  0
 12 15  1  0
 15 16  3  0
  1 17  1  0
 17 18  1  0
 18 19  1  0
 19 20  1  0
 20 21  1  0
 21 22  1  0
 22 23  2  0
 23 24  1  0
 24 25  1  0
 25 26  1  0
 23 27  1  0
 27 28  2  0
 28 29  1  0
 29 30  1  0
 30 31  1  0
 31 32  1  0
 29 33  2  0
 33 34  1  0
 34 35  1  0
 35 36  1  0
 36 37  1  0
 35 38  1  0
 38 39  1  0
 28 40  1  0
 40 41  1  0
 41 42  1  0
 42 43  1  0
 43 44  1  0
 44 45  2  0
 45 46  1  0
 46 47  1  0
 47 48  1  0
 48 49  1  0
 47 50  1  0
 44 51  1  0
 51 52  2  3
 52 53  1  0
 53 54  2  0
 53 55  1  0
 55 56  2  0
 56 57  1  0
 57 58  2  0
 58 59  1  0
 59 60  2  0
 60 61  1  0
 61 62  2  3
 62 63  1  0
 63 64  3  0
 62 65  1  0
 65 66  3  0
 58 67  1  0
 67 68  1  0
 68 69  1  0
 69 70  2  0
 70 71  1  0
 71 72  1  0
 71 73  1  0
 11  2  1  0
 37 17  2  0
 50 41  2  0
 61 52  1  0
 73 67  1  0
 10  5  2  0
 36 19  2  0
 46 42  2  0
 60 55  1  0
 72 68  1  0
 34 20  2  0
 73 57  1  0
 33 22  1  0
 50 27  1  0
  1 74  1  0
  6 75  1  0
 25 76  1  0
 25 77  1  0
 26 78  1  0
 26 79  1  0
 26 80  1  0
 31 81  1  0
 31 82  1  0
 32 83  1  0
 32 84  1  0
 32 85  1  0
 37 86  1  0
 38 87  1  0
 38 88  1  0
 39 89  1  0
 39 90  1  0
 39 91  1  0
 45 92  1  0
 48 93  1  0
 48 94  1  0
 49 95  1  0
 49 96  1  0
 49 97  1  0
 51 98  1  0
 56 99  1  0
 59100  1  0
 67101  1  0
 68102  1  0
 69103  1  0
 70104  1  0
 71105  1  0
 72106  1  0
 72107  1  0
 73108  1  0
M  END

