
     RDKit          3D

102114  0  0  0  0  0  0  0  0999 V2000
   -2.8574    2.3096    6.9588 C   0  0  0  0  0  0  0  0  0  0  0  0
   -3.0474    1.6537    8.1072 C   0  0  0  0  0  0  0  0  0  0  0  0
   -4.5951    1.8866    8.9995 S   0  0  0  0  0  0  0  0  0  0  0  0
   -4.0027    0.7052   10.2124 C   0  0  0  0  0  0  0  0  0  0  0  0
   -4.7146    0.3724   11.1969 O   0  0  0  0  0  0  0  0  0  0  0  0
   -2.7066    0.1752   10.0038 N   0  0  0  0  0  0  0  0  0  0  0  0
   -1.9557   -0.5758   11.0148 C   0  0  0  0  0  0  0  0  0  0  0  0
   -1.0939    0.3723   11.8402 C   0  0  0  0  0  0  0  0  0  0  0  0
   -2.1212    0.7447    8.8285 C   0  0  0  0  0  0  0  0  0  0  0  0
   -0.8981    0.6331    8.5748 O   0  0  0  0  0  0  0  0  0  0  0  0
   -1.8763    2.0527    5.8501 C   0  0  0  0  0  0  0  0  0  0  0  0
   -0.6776    0.8263    5.7974 S   0  0  0  0  0  0  0  0  0  0  0  0
   -0.3151    1.0885    4.2070 C   0  0  0  0  0  0  0  0  0  0  0  0
    0.5083    0.6024    3.2367 C   0  0  0  0  0  0  0  0  0  0  0  0
    1.5316   -0.3466    3.2742 C   0  0  0  0  0  0  0  0  0  0  0  0
    2.2909   -0.5833    2.0840 C   0  0  0  0  0  0  0  0  0  0  0  0
    3.2928   -1.4926    2.1589 N   0  0  0  0  0  0  0  0  0  0  0  0
    3.1063   -1.9435    3.7404 S   0  0  0  0  0  0  0  0  0  0  0  0
    1.8610   -1.0599    4.3774 N   0  0  0  0  0  0  0  0  0  0  0  0
    1.9879    0.1526    0.9328 C   0  0  0  0  0  0  0  0  0  0  0  0
    2.5408    0.1212   -0.3159 C   0  0  0  0  0  0  0  0  0  0  0  0
    3.6508   -0.8268   -1.1817 S   0  0  0  0  0  0  0  0  0  0  0  0
    3.1295   -0.0797   -2.6411 C   0  0  0  0  0  0  0  0  0  0  0  0
    3.3162   -0.4385   -3.9818 C   0  0  0  0  0  0  0  0  0  0  0  0
    4.3249   -1.4632   -4.4480 C   0  0  0  0  0  0  0  0  0  0  0  0
    5.3381   -0.8458   -5.4114 C   0  0  0  0  0  0  0  0  0  0  0  0
    2.3337    0.1592   -4.7886 C   0  0  0  0  0  0  0  0  0  0  0  0
    1.3128    1.1721   -3.8402 S   0  0  0  0  0  0  0  0  0  0  0  0
    2.1383    0.8471   -2.4246 C   0  0  0  0  0  0  0  0  0  0  0  0
    1.8239    0.9614   -1.0846 C   0  0  0  0  0  0  0  0  0  0  0  0
    0.8409    1.6144   -0.3994 N   0  0  0  0  0  0  0  0  0  0  0  0
    0.9146    1.0762    0.8687 C   0  0  0  0  0  0  0  0  0  0  0  0
    0.1315    1.2933    2.0603 C   0  0  0  0  0  0  0  0  0  0  0  0
   -0.9647    2.1064    2.2986 N   0  0  0  0  0  0  0  0  0  0  0  0
   -1.1160    2.0133    3.6509 C   0  0  0  0  0  0  0  0  0  0  0  0
   -1.9501    2.6816    4.5655 C   0  0  0  0  0  0  0  0  0  0  0  0
   -2.5803    4.0488    4.3131 C   0  0  0  0  0  0  0  0  0  0  0  0
   -1.5759    5.0106    3.6813 C   0  0  0  0  0  0  0  0  0  0  0  0
   -2.0962    2.4059    1.3920 C   0  0  0  0  0  0  0  0  0  0  0  0
   -2.5671    1.1685    0.6153 C   0  0  0  0  0  0  0  0  0  0  0  0
    0.1812    2.8096   -0.9081 C   0  0  0  0  0  0  0  0  0  0  0  0
    0.5557    4.0670   -0.1214 C   0  0  0  0  0  0  0  0  0  0  0  0
    1.8671   -0.4398   -6.0700 C   0  0  0  0  0  0  0  0  0  0  0  0
    0.8093   -1.2930   -6.1380 C   0  0  0  0  0  0  0  0  0  0  0  0
    0.0330   -1.7440   -4.9939 C   0  0  0  0  0  0  0  0  0  0  0  0
    0.3733   -1.6946   -3.7728 O   0  0  0  0  0  0  0  0  0  0  0  0
   -1.1703   -2.3705   -5.4313 C   0  0  0  0  0  0  0  0  0  0  0  0
   -2.2967   -2.6930   -4.6479 C   0  0  0  0  0  0  0  0  0  0  0  0
   -3.3597   -3.2021   -5.3762 C   0  0  0  0  0  0  0  0  0  0  0  0
   -3.3159   -3.3821   -6.7876 C   0  0  0  0  0  0  0  0  0  0  0  0
   -2.1963   -3.1191   -7.5497 C   0  0  0  0  0  0  0  0  0  0  0  0
   -1.1119   -2.5484   -6.8407 C   0  0  0  0  0  0  0  0  0  0  0  0
    0.0945   -1.8228   -7.3755 C   0  0  0  0  0  0  0  0  0  0  0  0
    0.2042   -1.3289   -8.6461 C   0  0  0  0  0  0  0  0  0  0  0  0
   -0.5799   -1.8298   -9.7470 C   0  0  0  0  0  0  0  0  0  0  0  0
   -1.2267   -2.2097  -10.6192 N   0  0  0  0  0  0  0  0  0  0  0  0
    0.8012   -0.0547   -8.9249 C   0  0  0  0  0  0  0  0  0  0  0  0
    1.2170    1.0031   -9.1511 N   0  0  0  0  0  0  0  0  0  0  0  0
   -4.7223   -3.9233   -6.8034 C   0  0  0  0  0  0  0  0  0  0  0  0
   -5.8892   -2.9846   -7.2397 C   0  0  0  0  0  0  0  0  0  0  0  0
   -5.5806   -1.5490   -6.8719 C   0  0  0  0  0  0  0  0  0  0  0  0
   -5.6283   -1.4611   -5.5420 C   0  0  0  0  0  0  0  0  0  0  0  0
   -5.9405   -2.8521   -5.0497 C   0  0  0  0  0  0  0  0  0  0  0  0
   -6.8937   -3.2971   -6.1462 C   0  0  0  0  0  0  0  0  0  0  0  0
   -4.7430   -3.7978   -5.3349 C   0  0  0  0  0  0  0  0  0  0  0  0
   -3.6101    3.0327    6.7645 H   0  0  0  0  0  0  0  0  0  0  0  0
   -1.3127   -1.3076   10.4921 H   0  0  0  0  0  0  0  0  0  0  0  0
   -2.6649   -1.1130   11.6857 H   0  0  0  0  0  0  0  0  0  0  0  0
   -0.4533    1.0041   11.1820 H   0  0  0  0  0  0  0  0  0  0  0  0
   -0.4406   -0.2349   12.4895 H   0  0  0  0  0  0  0  0  0  0  0  0
   -1.7301    1.0410   12.4466 H   0  0  0  0  0  0  0  0  0  0  0  0
    4.8929   -1.8369   -3.5752 H   0  0  0  0  0  0  0  0  0  0  0  0
    3.8099   -2.3260   -4.9107 H   0  0  0  0  0  0  0  0  0  0  0  0
    6.0311   -1.6248   -5.7655 H   0  0  0  0  0  0  0  0  0  0  0  0
    5.9517   -0.0883   -4.8892 H   0  0  0  0  0  0  0  0  0  0  0  0
    4.8466   -0.3967   -6.3075 H   0  0  0  0  0  0  0  0  0  0  0  0
   -3.5234    3.9614    3.7207 H   0  0  0  0  0  0  0  0  0  0  0  0
   -2.8658    4.5378    5.2583 H   0  0  0  0  0  0  0  0  0  0  0  0
   -2.0090    6.0321    3.5662 H   0  0  0  0  0  0  0  0  0  0  0  0
   -1.2670    4.6658    2.6872 H   0  0  0  0  0  0  0  0  0  0  0  0
   -0.6757    5.0373    4.3406 H   0  0  0  0  0  0  0  0  0  0  0  0
   -1.8625    3.2803    0.7709 H   0  0  0  0  0  0  0  0  0  0  0  0
   -2.9826    2.7245    1.9759 H   0  0  0  0  0  0  0  0  0  0  0  0
   -1.7636    0.6712    0.0432 H   0  0  0  0  0  0  0  0  0  0  0  0
   -3.3758    1.4816   -0.0693 H   0  0  0  0  0  0  0  0  0  0  0  0
   -3.0057    0.4534    1.3286 H   0  0  0  0  0  0  0  0  0  0  0  0
   -0.9067    2.6252   -0.9980 H   0  0  0  0  0  0  0  0  0  0  0  0
    0.5212    3.0138   -1.9414 H   0  0  0  0  0  0  0  0  0  0  0  0
    0.5257    3.8939    0.9767 H   0  0  0  0  0  0  0  0  0  0  0  0
    1.5888    4.3521   -0.3745 H   0  0  0  0  0  0  0  0  0  0  0  0
   -0.1553    4.8888   -0.3934 H   0  0  0  0  0  0  0  0  0  0  0  0
    2.4154   -0.1893   -6.9555 H   0  0  0  0  0  0  0  0  0  0  0  0
   -2.3433   -2.5819   -3.5643 H   0  0  0  0  0  0  0  0  0  0  0  0
   -2.1948   -3.4180   -8.5846 H   0  0  0  0  0  0  0  0  0  0  0  0
   -4.8144   -4.9756   -7.1879 H   0  0  0  0  0  0  0  0  0  0  0  0
   -6.2716   -3.1466   -8.2782 H   0  0  0  0  0  0  0  0  0  0  0  0
   -5.4175   -0.7274   -7.5640 H   0  0  0  0  0  0  0  0  0  0  0  0
   -5.5707   -0.5520   -4.9545 H   0  0  0  0  0  0  0  0  0  0  0  0
   -6.3352   -2.9079   -4.0182 H   0  0  0  0  0  0  0  0  0  0  0  0
   -7.8137   -2.6711   -6.2018 H   0  0  0  0  0  0  0  0  0  0  0  0
   -7.1577   -4.3781   -6.0725 H   0  0  0  0  0  0  0  0  0  0  0  0
   -4.7934   -4.7714   -4.7912 H   0  0  0  0  0  0  0  0  0  0  0  0
  1  2  2  3
  2  3  1  0
  3  4  1  0
  4  5  2  0
  4  6  1  0
  6  7  1  0
  7  8  1  0
  6  9  1  0
  9 10  2  0
  1 11  1  0
 11 12  1  0
 12 13  1  0
 13 14  1  0
 14 15  1  0
 15 16  1  0
 16 17  2  0
 17 18  1  0
 18 19  1  0
 16 20  1  0
 20 21  1  0
 21 22  1  0
 22 23  1  0
 23 24  1  0
 24 25  1  0
 25 26  1  0
 24 27  2  0
 27 28  1  0
 28 29  1  0
 29 30  1  0
 30 31  1  0
 31 32  1  0
 32 33  1  0
 33 34  1  0
 34 35  1  0
 35 36  1  0
 36 37  1  0
 37 38  1  0
 34 39  1  0
 39 40  1  0
 31 41  1  0
 41 42  1  0
 27 43  1  0
 43 44  2  3
 44 45  1  0
 45 46  2  0
 45 47  1  0
 47 48  2  0
 48 49  1  0
 49 50  2  0
 50 51  1  0
 51 52  2  0
 52 53  1  0
 53 54  2  3
 54 55  1  0
 55 56  3  0
 54 57  1  0
 57 58  3  0
 50 59  1  0
 59 60  1  0
 60 61  1  0
 61 62  2  0
 62 63  1  0
 63 64  1  0
 63 65  1  0
  9  2  1  0
 36 11  2  0
 53 44  1  0
 65 59  1  0
 35 13  2  0
 52 47  1  0
 64 60  1  0
 33 14  2  0
 65 49  1  0
 19 15  2  0
 32 20  2  0
 30 21  2  0
 29 23  2  0
  1 66  1  0
  7 67  1  0
  7 68  1  0
  8 69  1  0
  8 70  1  0
  8 71  1  0
 25 72  1  0
 25 73  1  0
 26 74  1  0
 26 75  1  0
 26 76  1  0
 37 77  1  0
 37 78  1  0
 38 79  1  0
 38 80  1  0
 38 81  1  0
 39 82  1  0
 39 83  1  0
 40 84  1  0
 40 85  1  0
 40 86  1  0
 41 87  1  0
 41 88  1  0
 42 89  1  0
 42 90  1  0
 42 91  1  0
 43 92  1  0
 48 93  1  0
 51 94  1  0
 59 95  1  0
 60 96  1  0
 61 97  1  0
 62 98  1  0
 63 99  1  0
 64100  1  0
 64101  1  0
 65102  1  0
M  END

