
     RDKit          3D

 93106  0  0  0  0  0  0  0  0999 V2000
   -7.4550    0.6621    4.0228 C   0  0  0  0  0  0  0  0  0  0  0  0
   -7.3571   -0.6575    4.1425 C   0  0  0  0  0  0  0  0  0  0  0  0
   -8.6886   -1.7700    4.6732 S   0  0  0  0  0  0  0  0  0  0  0  0
   -7.9699   -3.2241    3.8519 C   0  0  0  0  0  0  0  0  0  0  0  0
   -8.5591   -4.2507    3.4305 O   0  0  0  0  0  0  0  0  0  0  0  0
   -6.5735   -2.9209    3.7921 N   0  0  0  0  0  0  0  0  0  0  0  0
   -5.5967   -4.0250    3.6091 C   0  0  0  0  0  0  0  0  0  0  0  0
   -5.3351   -4.3423    2.1810 C   0  0  0  0  0  0  0  0  0  0  0  0
   -6.2491   -1.5758    3.9446 C   0  0  0  0  0  0  0  0  0  0  0  0
   -5.0206   -1.1779    3.9161 O   0  0  0  0  0  0  0  0  0  0  0  0
   -6.2920    1.3916    3.5785 C   0  0  0  0  0  0  0  0  0  0  0  0
   -5.6628    2.5130    4.0096 C   0  0  0  0  0  0  0  0  0  0  0  0
   -4.5619    3.0128    3.4198 C   0  0  0  0  0  0  0  0  0  0  0  0
   -3.4925    4.3820    3.7471 S   0  0  0  0  0  0  0  0  0  0  0  0
   -2.3649    4.1051    2.4642 C   0  0  0  0  0  0  0  0  0  0  0  0
   -1.1842    4.5085    1.8809 C   0  0  0  0  0  0  0  0  0  0  0  0
   -0.2913    5.5289    2.2188 C   0  0  0  0  0  0  0  0  0  0  0  0
    0.8538    5.6351    1.5324 C   0  0  0  0  0  0  0  0  0  0  0  0
    1.6806    6.6330    1.8885 N   0  0  0  0  0  0  0  0  0  0  0  0
    0.8674    7.3944    3.1509 S   0  0  0  0  0  0  0  0  0  0  0  0
   -0.4918    6.4315    3.1935 N   0  0  0  0  0  0  0  0  0  0  0  0
    1.1182    4.7159    0.5065 C   0  0  0  0  0  0  0  0  0  0  0  0
    2.2575    4.5083   -0.2431 C   0  0  0  0  0  0  0  0  0  0  0  0
    2.0974    3.4086   -1.0377 C   0  0  0  0  0  0  0  0  0  0  0  0
    0.8272    2.9230   -0.7820 N   0  0  0  0  0  0  0  0  0  0  0  0
    0.3479    1.7699   -1.4908 C   0  0  0  0  0  0  0  0  0  0  0  0
    0.7551    0.4553   -0.8428 C   0  0  0  0  0  0  0  0  0  0  0  0
    0.2586    3.6979    0.1343 C   0  0  0  0  0  0  0  0  0  0  0  0
   -0.9396    3.6124    0.8657 C   0  0  0  0  0  0  0  0  0  0  0  0
   -1.9229    2.7236    0.8334 N   0  0  0  0  0  0  0  0  0  0  0  0
   -2.8550    3.0090    1.8545 C   0  0  0  0  0  0  0  0  0  0  0  0
   -3.9621    2.5352    2.4070 C   0  0  0  0  0  0  0  0  0  0  0  0
   -5.1914    0.9569    2.1234 Se  0  0  0  0  0  2  0  0  0  0  0  0
   -2.2079    1.6494   -0.0542 C   0  0  0  0  0  0  0  0  0  0  0  0
   -3.1119    2.2307   -1.1709 C   0  0  0  0  0  0  0  0  0  0  0  0
    3.1904    3.1396   -1.6544 C   0  0  0  0  0  0  0  0  0  0  0  0
    4.3232    3.6565   -1.6734 C   0  0  0  0  0  0  0  0  0  0  0  0
    3.9110    4.9792   -0.5099 S   0  0  0  0  0  0  0  0  0  0  0  0
    5.4898    3.2490   -2.2473 C   0  0  0  0  0  0  0  0  0  0  0  0
    5.6278    2.1486   -2.9316 C   0  0  0  0  0  0  0  0  0  0  0  0
    3.8166    1.4362   -2.8650 Se  0  0  0  0  0  2  0  0  0  0  0  0
    6.5214    1.2167   -3.6111 C   0  0  0  0  0  0  0  0  0  0  0  0
    6.4057   -0.0216   -2.9664 C   0  0  0  0  0  0  0  0  0  0  0  0
    5.5386   -0.2362   -1.7799 C   0  0  0  0  0  0  0  0  0  0  0  0
    5.1331    0.6434   -0.9922 O   0  0  0  0  0  0  0  0  0  0  0  0
    5.2393   -1.6703   -1.6536 C   0  0  0  0  0  0  0  0  0  0  0  0
    4.4498   -2.2804   -0.7135 C   0  0  0  0  0  0  0  0  0  0  0  0
    4.2934   -3.6556   -0.8196 C   0  0  0  0  0  0  0  0  0  0  0  0
    4.8928   -4.3749   -1.8135 C   0  0  0  0  0  0  0  0  0  0  0  0
    5.6890   -3.6693   -2.7372 C   0  0  0  0  0  0  0  0  0  0  0  0
    5.8826   -2.3242   -2.6849 C   0  0  0  0  0  0  0  0  0  0  0  0
    6.6168   -1.2750   -3.4877 C   0  0  0  0  0  0  0  0  0  0  0  0
    7.5745   -1.7516   -4.3563 C   0  0  0  0  0  0  0  0  0  0  0  0
    8.5334   -0.7380   -4.7655 C   0  0  0  0  0  0  0  0  0  0  0  0
    9.3572    0.1238   -5.0983 N   0  0  0  0  0  0  0  0  0  0  0  0
    7.6998   -3.0310   -4.8529 C   0  0  0  0  0  0  0  0  0  0  0  0
    7.7839   -4.0901   -5.2593 N   0  0  0  0  0  0  0  0  0  0  0  0
    4.2853   -5.6286   -1.3068 C   0  0  0  0  0  0  0  0  0  0  0  0
    3.1083   -6.0761   -2.0964 C   0  0  0  0  0  0  0  0  0  0  0  0
    2.3111   -6.9908   -1.2535 C   0  0  0  0  0  0  0  0  0  0  0  0
    1.6833   -6.2594   -0.2863 C   0  0  0  0  0  0  0  0  0  0  0  0
    2.1438   -4.8788   -0.4694 C   0  0  0  0  0  0  0  0  0  0  0  0
    2.2107   -4.8230   -2.0145 C   0  0  0  0  0  0  0  0  0  0  0  0
    3.6259   -4.8245   -0.1785 C   0  0  0  0  0  0  0  0  0  0  0  0
   -8.3959    1.1233    4.2632 H   0  0  0  0  0  0  0  0  0  0  0  0
   -5.9507   -4.9637    4.0978 H   0  0  0  0  0  0  0  0  0  0  0  0
   -4.6260   -3.7991    4.1048 H   0  0  0  0  0  0  0  0  0  0  0  0
   -5.5093   -5.4292    1.9368 H   0  0  0  0  0  0  0  0  0  0  0  0
   -4.2746   -4.1769    1.9549 H   0  0  0  0  0  0  0  0  0  0  0  0
   -5.9438   -3.6973    1.5129 H   0  0  0  0  0  0  0  0  0  0  0  0
   -6.1504    2.9964    4.9181 H   0  0  0  0  0  0  0  0  0  0  0  0
   -0.5833    1.8394   -2.0213 H   0  0  0  0  0  0  0  0  0  0  0  0
    0.9896    1.6817   -2.4713 H   0  0  0  0  0  0  0  0  0  0  0  0
    0.1628   -0.3244   -1.3307 H   0  0  0  0  0  0  0  0  0  0  0  0
    0.6449    0.5038    0.2660 H   0  0  0  0  0  0  0  0  0  0  0  0
    1.8133    0.1722   -1.0168 H   0  0  0  0  0  0  0  0  0  0  0  0
   -1.5748    0.9549   -0.4092 H   0  0  0  0  0  0  0  0  0  0  0  0
   -2.9994    0.9401    0.4737 H   0  0  0  0  0  0  0  0  0  0  0  0
   -2.9430    1.7055   -2.1236 H   0  0  0  0  0  0  0  0  0  0  0  0
   -2.7151    3.2726   -1.3491 H   0  0  0  0  0  0  0  0  0  0  0  0
   -4.1509    2.2748   -0.8532 H   0  0  0  0  0  0  0  0  0  0  0  0
    6.4650    3.8654   -2.1511 H   0  0  0  0  0  0  0  0  0  0  0  0
    7.1274    1.3744   -4.4020 H   0  0  0  0  0  0  0  0  0  0  0  0
    3.9577   -1.7181    0.0966 H   0  0  0  0  0  0  0  0  0  0  0  0
    6.1204   -4.2767   -3.5017 H   0  0  0  0  0  0  0  0  0  0  0  0
    4.9826   -6.4088   -0.9546 H   0  0  0  0  0  0  0  0  0  0  0  0
    3.2862   -6.3934   -3.1154 H   0  0  0  0  0  0  0  0  0  0  0  0
    2.2164   -8.0672   -1.3550 H   0  0  0  0  0  0  0  0  0  0  0  0
    1.0049   -6.7030    0.4038 H   0  0  0  0  0  0  0  0  0  0  0  0
    1.5664   -4.1004   -0.0323 H   0  0  0  0  0  0  0  0  0  0  0  0
    2.7006   -3.9321   -2.3874 H   0  0  0  0  0  0  0  0  0  0  0  0
    1.2121   -5.0245   -2.4629 H   0  0  0  0  0  0  0  0  0  0  0  0
    3.9503   -5.0829    0.8269 H   0  0  0  0  0  0  0  0  0  0  0  0
  1  2  2  3
  2  3  1  0
  3  4  1  0
  4  5  2  0
  4  6  1  0
  6  7  1  0
  7  8  1  0
  6  9  1  0
  9 10  2  0
  1 11  1  0
 11 12  2  0
 12 13  1  0
 13 14  1  0
 14 15  1  0
 15 16  1  0
 16 17  1  0
 17 18  1  0
 18 19  2  0
 19 20  1  0
 20 21  1  0
 18 22  1  0
 22 23  1  0
 23 24  2  0
 24 25  1  0
 25 26  1  0
 26 27  1  0
 25 28  1  0
 28 29  1  0
 29 30  1  0
 30 31  1  0
 31 32  1  0
 32 33  1  0
 30 34  1  0
 34 35  1  0
 24 36  1  0
 36 37  2  0
 37 38  1  0
 37 39  1  0
 39 40  2  0
 40 41  1  0
 40 42  1  0
 42 43  2  3
 43 44  1  0
 44 45  2  0
 44 46  1  0
 46 47  2  0
 47 48  1  0
 48 49  2  0
 49 50  1  0
 50 51  2  0
 51 52  1  0
 52 53  2  3
 53 54  1  0
 54 55  3  0
 53 56  1  0
 56 57  3  0
 49 58  1  0
 58 59  1  0
 59 60  1  0
 60 61  2  0
 61 62  1  0
 62 63  1  0
 62 64  1  0
  9  2  1  0
 33 11  1  0
 41 36  1  0
 52 43  1  0
 64 58  1  0
 32 13  2  0
 51 46  1  0
 63 59  1  0
 31 15  2  0
 64 48  1  0
 29 16  2  0
 21 17  2  0
 28 22  2  0
 38 23  1  0
  1 65  1  0
  7 66  1  0
  7 67  1  0
  8 68  1  0
  8 69  1  0
  8 70  1  0
 12 71  1  0
 26 72  1  0
 26 73  1  0
 27 74  1  0
 27 75  1  0
 27 76  1  0
 34 77  1  0
 34 78  1  0
 35 79  1  0
 35 80  1  0
 35 81  1  0
 39 82  1  0
 42 83  1  0
 47 84  1  0
 50 85  1  0
 58 86  1  0
 59 87  1  0
 60 88  1  0
 61 89  1  0
 62 90  1  0
 63 91  1  0
 63 92  1  0
 64 93  1  0
M  END

