
     RDKit          3D

191209  0  0  0  0  0  0  0  0999 V2000
   -6.3682   -1.6872   -8.4588 C   0  0  0  0  0  0  0  0  0  0  0  0
   -5.9094   -2.6815   -9.2385 C   0  0  0  0  0  0  0  0  0  0  0  0
   -6.7608   -3.1586  -10.7427 S   0  0  0  0  0  0  0  0  0  0  0  0
   -5.1892   -3.8436  -11.2894 C   0  0  0  0  0  0  0  0  0  0  0  0
   -4.9351   -4.0172  -12.5088 O   0  0  0  0  0  0  0  0  0  0  0  0
   -4.2127   -4.0554  -10.2695 N   0  0  0  0  0  0  0  0  0  0  0  0
   -2.8203   -4.4548  -10.5161 C   0  0  0  0  0  0  0  0  0  0  0  0
   -2.4358   -5.6540   -9.6591 C   0  0  0  0  0  0  0  0  0  0  0  0
   -4.6395   -3.4013   -9.0813 C   0  0  0  0  0  0  0  0  0  0  0  0
   -3.9964   -3.4839   -8.0009 O   0  0  0  0  0  0  0  0  0  0  0  0
   -5.5900   -1.0858   -7.3655 C   0  0  0  0  0  0  0  0  0  0  0  0
   -4.2492   -0.7117   -7.4379 C   0  0  0  0  0  0  0  0  0  0  0  0
   -3.7358   -0.2874   -6.2080 C   0  0  0  0  0  0  0  0  0  0  0  0
   -2.3909   -0.0042   -5.9388 C   0  0  0  0  0  0  0  0  0  0  0  0
   -1.3661   -0.0720   -6.9889 C   0  0  0  0  0  0  0  0  0  0  0  0
   -0.9793   -1.2171   -7.6710 C   0  0  0  0  0  0  0  0  0  0  0  0
   -0.0480   -0.9617   -8.6848 C   0  0  0  0  0  0  0  0  0  0  0  0
    0.2944    0.3815   -8.7957 C   0  0  0  0  0  0  0  0  0  0  0  0
    1.2617    0.9670   -9.7822 C   0  0  0  0  0  0  0  0  0  0  0  0
    2.5447    1.4174   -9.0895 C   0  0  0  0  0  0  0  0  0  0  0  0
   -0.5620    1.2560   -7.6388 S   0  0  0  0  0  0  0  0  0  0  0  0
   -2.0524    0.2857   -4.6081 C   0  0  0  0  0  0  0  0  0  0  0  0
   -0.4733    0.4002   -4.0034 S   0  0  0  0  0  0  0  0  0  0  0  0
   -1.0137    0.6229   -2.4458 C   0  0  0  0  0  0  0  0  0  0  0  0
   -0.3703    0.5827   -1.1728 C   0  0  0  0  0  0  0  0  0  0  0  0
    0.9574    0.2764   -0.8751 C   0  0  0  0  0  0  0  0  0  0  0  0
    1.2722    0.0604    0.4735 C   0  0  0  0  0  0  0  0  0  0  0  0
    2.6110   -0.3628    1.0549 C   0  0  0  0  0  0  0  0  0  0  0  0
    2.8111   -1.8551    0.6832 C   0  0  0  0  0  0  0  0  0  0  0  0
    2.6547   -2.8890    1.6351 C   0  0  0  0  0  0  0  0  0  0  0  0
    2.6703   -4.2407    1.2515 C   0  0  0  0  0  0  0  0  0  0  0  0
    2.7774   -4.5885   -0.0965 C   0  0  0  0  0  0  0  0  0  0  0  0
    2.7305   -6.0371   -0.5244 C   0  0  0  0  0  0  0  0  0  0  0  0
    4.0935   -6.6994   -0.3715 C   0  0  0  0  0  0  0  0  0  0  0  0
    2.9564   -3.5845   -1.0517 C   0  0  0  0  0  0  0  0  0  0  0  0
    2.9648   -2.2402   -0.6708 C   0  0  0  0  0  0  0  0  0  0  0  0
    3.6749    0.6501    0.5751 C   0  0  0  0  0  0  0  0  0  0  0  0
    3.4742    2.0256    0.8444 C   0  0  0  0  0  0  0  0  0  0  0  0
    4.3191    2.9992    0.3116 C   0  0  0  0  0  0  0  0  0  0  0  0
    5.3946    2.6340   -0.5015 C   0  0  0  0  0  0  0  0  0  0  0  0
    6.2680    3.6989   -1.1264 C   0  0  0  0  0  0  0  0  0  0  0  0
    7.1396    4.3824   -0.0765 C   0  0  0  0  0  0  0  0  0  0  0  0
    5.6441    1.2744   -0.7343 C   0  0  0  0  0  0  0  0  0  0  0  0
    4.7957    0.2959   -0.2083 C   0  0  0  0  0  0  0  0  0  0  0  0
    2.3126   -0.1653    2.5512 C   0  0  0  0  0  0  0  0  0  0  0  0
    0.9935    0.1930    2.7256 C   0  0  0  0  0  0  0  0  0  0  0  0
    0.3243    0.3026    1.4572 C   0  0  0  0  0  0  0  0  0  0  0  0
   -1.0121    0.6232    1.1622 C   0  0  0  0  0  0  0  0  0  0  0  0
   -1.3583    0.6922   -0.1998 C   0  0  0  0  0  0  0  0  0  0  0  0
   -2.7484    0.7586   -0.8353 C   0  0  0  0  0  0  0  0  0  0  0  0
   -3.5131   -0.4396   -0.2718 C   0  0  0  0  0  0  0  0  0  0  0  0
   -4.2452   -0.3444    0.9303 C   0  0  0  0  0  0  0  0  0  0  0  0
   -4.8889   -1.4588    1.4764 C   0  0  0  0  0  0  0  0  0  0  0  0
   -4.7254   -2.7231    0.8936 C   0  0  0  0  0  0  0  0  0  0  0  0
   -5.4146   -3.9248    1.4694 C   0  0  0  0  0  0  0  0  0  0  0  0
   -6.6587   -4.2758    0.6584 C   0  0  0  0  0  0  0  0  0  0  0  0
   -3.9108   -2.8560   -0.2397 C   0  0  0  0  0  0  0  0  0  0  0  0
   -3.3052   -1.7330   -0.8092 C   0  0  0  0  0  0  0  0  0  0  0  0
   -3.3549    2.1599   -0.6377 C   0  0  0  0  0  0  0  0  0  0  0  0
   -4.7354    2.3720   -0.4457 C   0  0  0  0  0  0  0  0  0  0  0  0
   -5.2587    3.6668   -0.3316 C   0  0  0  0  0  0  0  0  0  0  0  0
   -4.4221    4.7879   -0.4233 C   0  0  0  0  0  0  0  0  0  0  0  0
   -4.9875    6.1826   -0.3047 C   0  0  0  0  0  0  0  0  0  0  0  0
   -4.8559    6.9511   -1.6200 C   0  0  0  0  0  0  0  0  0  0  0  0
   -3.0488    4.5942   -0.6339 C   0  0  0  0  0  0  0  0  0  0  0  0
   -2.5286    3.3055   -0.7532 C   0  0  0  0  0  0  0  0  0  0  0  0
   -2.3720    0.6155   -2.3216 C   0  0  0  0  0  0  0  0  0  0  0  0
   -3.0160    0.3777   -3.5671 C   0  0  0  0  0  0  0  0  0  0  0  0
   -4.3858    0.1223   -3.8707 C   0  0  0  0  0  0  0  0  0  0  0  0
   -4.6928   -0.2345   -5.1977 C   0  0  0  0  0  0  0  0  0  0  0  0
   -6.1725   -0.7551   -5.8214 S   0  0  0  0  0  0  0  0  0  0  0  0
   -5.4723    0.1402   -2.8927 C   0  0  0  0  0  0  0  0  0  0  0  0
   -6.0032   -1.0055   -2.3050 C   0  0  0  0  0  0  0  0  0  0  0  0
   -7.2635   -0.8215   -1.7331 C   0  0  0  0  0  0  0  0  0  0  0  0
   -7.7722    0.4594   -1.9272 C   0  0  0  0  0  0  0  0  0  0  0  0
   -9.1618    0.8812   -1.5373 C   0  0  0  0  0  0  0  0  0  0  0  0
   -9.4196    2.3660   -1.7826 C   0  0  0  0  0  0  0  0  0  0  0  0
   -6.6663    1.3321   -2.8532 S   0  0  0  0  0  0  0  0  0  0  0  0
    0.8230    1.1728    4.0727 S   0  0  0  0  0  0  0  0  0  0  0  0
    2.4488    1.0668    4.5333 C   0  0  0  0  0  0  0  0  0  0  0  0
    3.0844    1.6968    5.6172 C   0  0  0  0  0  0  0  0  0  0  0  0
    2.3145    2.4404    6.6442 C   0  0  0  0  0  0  0  0  0  0  0  0
    2.4075    2.2341    8.0144 C   0  0  0  0  0  0  0  0  0  0  0  0
    1.5102    3.0006    8.7655 C   0  0  0  0  0  0  0  0  0  0  0  0
    0.7079    3.8143    7.9814 C   0  0  0  0  0  0  0  0  0  0  0  0
   -0.4330    4.6402    8.4873 C   0  0  0  0  0  0  0  0  0  0  0  0
   -1.6462    3.7640    8.7684 C   0  0  0  0  0  0  0  0  0  0  0  0
    1.0915    3.5716    6.3606 S   0  0  0  0  0  0  0  0  0  0  0  0
    4.4693    1.4698    5.7543 C   0  0  0  0  0  0  0  0  0  0  0  0
    5.3141    2.0417    6.7205 C   0  0  0  0  0  0  0  0  0  0  0  0
    6.6089    1.5357    6.6720 C   0  0  0  0  0  0  0  0  0  0  0  0
    6.7393    0.4064    5.4281 S   0  0  0  0  0  0  0  0  0  0  0  0
    5.1389    0.5698    4.9117 C   0  0  0  0  0  0  0  0  0  0  0  0
    4.4990   -0.0956    3.8499 C   0  0  0  0  0  0  0  0  0  0  0  0
    5.0311   -1.4077    3.4380 C   0  0  0  0  0  0  0  0  0  0  0  0
    4.9458   -2.5561    4.2182 C   0  0  0  0  0  0  0  0  0  0  0  0
    5.4833   -3.6814    3.6032 C   0  0  0  0  0  0  0  0  0  0  0  0
    6.0403   -3.4135    2.3579 C   0  0  0  0  0  0  0  0  0  0  0  0
    6.6126   -4.4480    1.4323 C   0  0  0  0  0  0  0  0  0  0  0  0
    8.0991   -4.1932    1.1926 C   0  0  0  0  0  0  0  0  0  0  0  0
    5.8673   -1.7695    2.0222 S   0  0  0  0  0  0  0  0  0  0  0  0
    3.1450    0.2453    3.6175 C   0  0  0  0  0  0  0  0  0  0  0  0
    7.7094    1.9729    7.5284 C   0  0  0  0  0  0  0  0  0  0  0  0
    8.2752    1.2363    8.5633 C   0  0  0  0  0  0  0  0  0  0  0  0
    9.2214    1.9622    9.2996 C   0  0  0  0  0  0  0  0  0  0  0  0
    9.3950    3.2843    8.8669 C   0  0  0  0  0  0  0  0  0  0  0  0
   10.3941    4.2509    9.4064 C   0  0  0  0  0  0  0  0  0  0  0  0
   10.3232    5.5953    9.2418 C   0  0  0  0  0  0  0  0  0  0  0  0
    9.2030    6.2658    8.6212 C   0  0  0  0  0  0  0  0  0  0  0  0
    8.3056    6.7983    8.1157 N   0  0  0  0  0  0  0  0  0  0  0  0
   11.3876    6.4607    9.6966 C   0  0  0  0  0  0  0  0  0  0  0  0
   12.2385    7.1561   10.0683 N   0  0  0  0  0  0  0  0  0  0  0  0
   11.5057    3.6878   10.1549 C   0  0  0  0  0  0  0  0  0  0  0  0
   12.3833    3.2442   10.7648 N   0  0  0  0  0  0  0  0  0  0  0  0
    8.3501    3.5244    7.5617 S   0  0  0  0  0  0  0  0  0  0  0  0
   -7.3588   -1.2923   -8.6454 H   0  0  0  0  0  0  0  0  0  0  0  0
   -2.6819   -4.7242  -11.5884 H   0  0  0  0  0  0  0  0  0  0  0  0
   -2.1441   -3.5910  -10.2898 H   0  0  0  0  0  0  0  0  0  0  0  0
   -2.3501   -5.3597   -8.5924 H   0  0  0  0  0  0  0  0  0  0  0  0
   -1.4577   -6.0640   -9.9947 H   0  0  0  0  0  0  0  0  0  0  0  0
   -3.2097   -6.4486   -9.7526 H   0  0  0  0  0  0  0  0  0  0  0  0
   -3.6628   -0.8030   -8.3432 H   0  0  0  0  0  0  0  0  0  0  0  0
   -1.3675   -2.2031   -7.4497 H   0  0  0  0  0  0  0  0  0  0  0  0
    0.3612   -1.7397   -9.3159 H   0  0  0  0  0  0  0  0  0  0  0  0
    0.7935    1.8368  -10.2910 H   0  0  0  0  0  0  0  0  0  0  0  0
    1.5101    0.2025  -10.5575 H   0  0  0  0  0  0  0  0  0  0  0  0
    2.3298    2.2562   -8.3928 H   0  0  0  0  0  0  0  0  0  0  0  0
    3.2652    1.7833   -9.8576 H   0  0  0  0  0  0  0  0  0  0  0  0
    3.0087    0.5730   -8.5383 H   0  0  0  0  0  0  0  0  0  0  0  0
    1.6881    0.1887   -1.6606 H   0  0  0  0  0  0  0  0  0  0  0  0
    2.4984   -2.6774    2.6830 H   0  0  0  0  0  0  0  0  0  0  0  0
    2.5710   -5.0048    2.0105 H   0  0  0  0  0  0  0  0  0  0  0  0
    1.9841   -6.5887    0.0876 H   0  0  0  0  0  0  0  0  0  0  0  0
    2.4093   -6.1127   -1.5857 H   0  0  0  0  0  0  0  0  0  0  0  0
    4.3985   -6.7052    0.6977 H   0  0  0  0  0  0  0  0  0  0  0  0
    4.8637   -6.1618   -0.9696 H   0  0  0  0  0  0  0  0  0  0  0  0
    4.0381   -7.7526   -0.7303 H   0  0  0  0  0  0  0  0  0  0  0  0
    3.0612   -3.8395   -2.0995 H   0  0  0  0  0  0  0  0  0  0  0  0
    3.0751   -1.5036   -1.4502 H   0  0  0  0  0  0  0  0  0  0  0  0
    2.6283    2.3581    1.4405 H   0  0  0  0  0  0  0  0  0  0  0  0
    4.1104    4.0457    0.5089 H   0  0  0  0  0  0  0  0  0  0  0  0
    6.9179    3.2523   -1.9066 H   0  0  0  0  0  0  0  0  0  0  0  0
    5.6275    4.4606   -1.6231 H   0  0  0  0  0  0  0  0  0  0  0  0
    7.7438    3.6324    0.4790 H   0  0  0  0  0  0  0  0  0  0  0  0
    7.8349    5.0895   -0.5825 H   0  0  0  0  0  0  0  0  0  0  0  0
    6.5084    4.9523    0.6429 H   0  0  0  0  0  0  0  0  0  0  0  0
    6.4790    0.9676   -1.3553 H   0  0  0  0  0  0  0  0  0  0  0  0
    5.0306   -0.7333   -0.4297 H   0  0  0  0  0  0  0  0  0  0  0  0
   -1.7455    0.7481    1.9511 H   0  0  0  0  0  0  0  0  0  0  0  0
   -4.3105    0.5914    1.4688 H   0  0  0  0  0  0  0  0  0  0  0  0
   -5.4989   -1.3385    2.3634 H   0  0  0  0  0  0  0  0  0  0  0  0
   -5.7106   -3.7286    2.5266 H   0  0  0  0  0  0  0  0  0  0  0  0
   -4.7163   -4.7884    1.4673 H   0  0  0  0  0  0  0  0  0  0  0  0
   -6.3782   -4.5446   -0.3867 H   0  0  0  0  0  0  0  0  0  0  0  0
   -7.3772   -3.4276    0.6424 H   0  0  0  0  0  0  0  0  0  0  0  0
   -7.1527   -5.1605    1.1188 H   0  0  0  0  0  0  0  0  0  0  0  0
   -3.7434   -3.8343   -0.6798 H   0  0  0  0  0  0  0  0  0  0  0  0
   -2.6634   -1.8873   -1.6653 H   0  0  0  0  0  0  0  0  0  0  0  0
   -5.4200    1.5508   -0.3683 H   0  0  0  0  0  0  0  0  0  0  0  0
   -6.3214    3.7906   -0.1715 H   0  0  0  0  0  0  0  0  0  0  0  0
   -6.0640    6.1454   -0.0300 H   0  0  0  0  0  0  0  0  0  0  0  0
   -4.4582    6.7362    0.4965 H   0  0  0  0  0  0  0  0  0  0  0  0
   -5.3106    6.3750   -2.4550 H   0  0  0  0  0  0  0  0  0  0  0  0
   -5.3762    7.9255   -1.5372 H   0  0  0  0  0  0  0  0  0  0  0  0
   -3.7842    7.1466   -1.8471 H   0  0  0  0  0  0  0  0  0  0  0  0
   -2.3743    5.4454   -0.7117 H   0  0  0  0  0  0  0  0  0  0  0  0
   -1.4698    3.2049   -0.9517 H   0  0  0  0  0  0  0  0  0  0  0  0
   -5.5312   -1.9722   -2.3686 H   0  0  0  0  0  0  0  0  0  0  0  0
   -7.8222   -1.6172   -1.2665 H   0  0  0  0  0  0  0  0  0  0  0  0
   -9.3176    0.6557   -0.4601 H   0  0  0  0  0  0  0  0  0  0  0  0
   -9.8917    0.2908   -2.1292 H   0  0  0  0  0  0  0  0  0  0  0  0
   -9.3412    2.6009   -2.8655 H   0  0  0  0  0  0  0  0  0  0  0  0
  -10.4454    2.6258   -1.4407 H   0  0  0  0  0  0  0  0  0  0  0  0
   -8.6944    2.9828   -1.2128 H   0  0  0  0  0  0  0  0  0  0  0  0
    3.0886    1.5199    8.4599 H   0  0  0  0  0  0  0  0  0  0  0  0
    1.4369    2.9348    9.8430 H   0  0  0  0  0  0  0  0  0  0  0  0
   -0.7008    5.4152    7.7336 H   0  0  0  0  0  0  0  0  0  0  0  0
   -0.1289    5.1580    9.4262 H   0  0  0  0  0  0  0  0  0  0  0  0
   -1.3876    2.9643    9.4960 H   0  0  0  0  0  0  0  0  0  0  0  0
   -2.0041    3.2971    7.8267 H   0  0  0  0  0  0  0  0  0  0  0  0
   -2.4634    4.3863    9.1991 H   0  0  0  0  0  0  0  0  0  0  0  0
    5.0094    2.7916    7.4386 H   0  0  0  0  0  0  0  0  0  0  0  0
    4.4717   -2.6007    5.1934 H   0  0  0  0  0  0  0  0  0  0  0  0
    5.4363   -4.6583    4.0639 H   0  0  0  0  0  0  0  0  0  0  0  0
    6.4804   -5.4555    1.8851 H   0  0  0  0  0  0  0  0  0  0  0  0
    6.0634   -4.4192    0.4598 H   0  0  0  0  0  0  0  0  0  0  0  0
    8.5156   -5.0383    0.6034 H   0  0  0  0  0  0  0  0  0  0  0  0
    8.2459   -3.2408    0.6337 H   0  0  0  0  0  0  0  0  0  0  0  0
    8.6361   -4.1372    2.1626 H   0  0  0  0  0  0  0  0  0  0  0  0
    8.0026    0.2080    8.7816 H   0  0  0  0  0  0  0  0  0  0  0  0
    9.7611    1.5243   10.1346 H   0  0  0  0  0  0  0  0  0  0  0  0
  1  2  2  3
  2  3  1  0
  3  4  1  0
  4  5  2  0
  4  6  1  0
  6  7  1  0
  7  8  1  0
  6  9  1  0
  9 10  2  0
  1 11  1  0
 11 12  2  0
 12 13  1  0
 13 14  2  0
 14 15  1  0
 15 16  2  0
 16 17  1  0
 17 18  2  0
 18 19  1  0
 19 20  1  0
 18 21  1  0
 14 22  1  0
 22 23  1  0
 23 24  1  0
 24 25  1  0
 25 26  2  0
 26 27  1  0
 27 28  1  0
 28 29  1  0
 29 30  2  0
 30 31  1  0
 31 32  2  0
 32 33  1  0
 33 34  1  0
 32 35  1  0
 35 36  2  0
 28 37  1  0
 37 38  2  0
 38 39  1  0
 39 40  2  0
 40 41  1  0
 41 42  1  0
 40 43  1  0
 43 44  2  0
 28 45  1  0
 45 46  2  0
 46 47  1  0
 47 48  1  0
 48 49  2  0
 49 50  1  0
 50 51  1  0
 51 52  2  0
 52 53  1  0
 53 54  2  0
 54 55  1  0
 55 56  1  0
 54 57  1  0
 57 58  2  0
 50 59  1  0
 59 60  2  0
 60 61  1  0
 61 62  2  0
 62 63  1  0
 63 64  1  0
 62 65  1  0
 65 66  2  0
 50 67  1  0
 67 68  1  0
 68 69  1  0
 69 70  2  0
 70 71  1  0
 69 72  1  0
 72 73  2  0
 73 74  1  0
 74 75  2  0
 75 76  1  0
 76 77  1  0
 75 78  1  0
 46 79  1  0
 79 80  1  0
 80 81  2  0
 81 82  1  0
 82 83  2  0
 83 84  1  0
 84 85  2  0
 85 86  1  0
 86 87  1  0
 85 88  1  0
 81 89  1  0
 89 90  1  0
 90 91  2  0
 91 92  1  0
 92 93  1  0
 93 94  1  0
 94 95  1  0
 95 96  2  0
 96 97  1  0
 97 98  2  0
 98 99  1  0
 99100  1  0
 98101  1  0
 94102  2  0
 91103  1  0
103104  2  0
104105  1  0
105106  2  0
106107  1  0
107108  2  3
108109  1  0
109110  3  0
108111  1  0
111112  3  0
107113  1  0
113114  3  0
106115  1  0
  9  2  1  0
 71 11  1  0
 78 72  1  0
102 80  1  0
115103  1  0
 70 13  1  0
 88 82  1  0
 93 89  2  0
101 95  1  0
 21 15  1  0
 68 22  2  0
 67 24  2  0
 49 25  1  0
 58 51  1  0
 66 59  1  0
 47 27  2  0
 36 29  1  0
 44 37  1  0
102 45  1  0
  1116  1  0
  7117  1  0
  7118  1  0
  8119  1  0
  8120  1  0
  8121  1  0
 12122  1  0
 16123  1  0
 17124  1  0
 19125  1  0
 19126  1  0
 20127  1  0
 20128  1  0
 20129  1  0
 26130  1  0
 30131  1  0
 31132  1  0
 33133  1  0
 33134  1  0
 34135  1  0
 34136  1  0
 34137  1  0
 35138  1  0
 36139  1  0
 38140  1  0
 39141  1  0
 41142  1  0
 41143  1  0
 42144  1  0
 42145  1  0
 42146  1  0
 43147  1  0
 44148  1  0
 48149  1  0
 52150  1  0
 53151  1  0
 55152  1  0
 55153  1  0
 56154  1  0
 56155  1  0
 56156  1  0
 57157  1  0
 58158  1  0
 60159  1  0
 61160  1  0
 63161  1  0
 63162  1  0
 64163  1  0
 64164  1  0
 64165  1  0
 65166  1  0
 66167  1  0
 73168  1  0
 74169  1  0
 76170  1  0
 76171  1  0
 77172  1  0
 77173  1  0
 77174  1  0
 83175  1  0
 84176  1  0
 86177  1  0
 86178  1  0
 87179  1  0
 87180  1  0
 87181  1  0
 90182  1  0
 96183  1  0
 97184  1  0
 99185  1  0
 99186  1  0
100187  1  0
100188  1  0
100189  1  0
104190  1  0
105191  1  0
M  END

