
     RDKit          3D

 92102  0  0  0  0  0  0  0  0999 V2000
    6.4942    3.8650   -2.3493 C   0  0  0  0  0  0  0  0  0  0  0  0
    6.8628    2.7121   -2.9137 C   0  0  0  0  0  0  0  0  0  0  0  0
    5.5214    1.6301   -3.4231 S   0  0  0  0  0  0  0  0  0  0  0  0
    5.7849    2.3926   -5.0195 C   0  0  0  0  0  0  0  0  0  0  0  0
    4.8441    2.7909   -5.7829 O   0  0  0  0  0  0  0  0  0  0  0  0
    7.1229    2.7229   -5.3191 N   0  0  0  0  0  0  0  0  0  0  0  0
    7.7016    2.1995   -6.5829 C   0  0  0  0  0  0  0  0  0  0  0  0
    8.0752    0.7287   -6.4224 C   0  0  0  0  0  0  0  0  0  0  0  0
    7.7928    2.6974   -4.0715 C   0  0  0  0  0  0  0  0  0  0  0  0
    9.0361    2.8387   -3.9791 O   0  0  0  0  0  0  0  0  0  0  0  0
    5.2116    3.9724   -1.6375 C   0  0  0  0  0  0  0  0  0  0  0  0
    4.0999    4.6262   -2.1790 C   0  0  0  0  0  0  0  0  0  0  0  0
    4.1137    5.4293   -3.4662 C   0  0  0  0  0  0  0  0  0  0  0  0
    4.4209    6.8906   -3.1619 C   0  0  0  0  0  0  0  0  0  0  0  0
    2.9431    4.3285   -1.4600 C   0  0  0  0  0  0  0  0  0  0  0  0
    1.2908    4.7025   -1.6836 S   0  0  0  0  0  0  0  0  0  0  0  0
    0.8649    3.6793   -0.3871 C   0  0  0  0  0  0  0  0  0  0  0  0
   -0.2451    3.1867    0.2756 C   0  0  0  0  0  0  0  0  0  0  0  0
   -1.6151    3.4495    0.1912 C   0  0  0  0  0  0  0  0  0  0  0  0
   -2.5318    2.6797    0.9865 C   0  0  0  0  0  0  0  0  0  0  0  0
   -3.8274    2.9570    0.8490 N   0  0  0  0  0  0  0  0  0  0  0  0
   -3.7781    4.2030   -0.2697 S   0  0  0  0  0  0  0  0  0  0  0  0
   -2.1797    4.4240   -0.6013 N   0  0  0  0  0  0  0  0  0  0  0  0
   -2.0130    1.6303    1.7796 C   0  0  0  0  0  0  0  0  0  0  0  0
   -2.6646    0.6502    2.4388 C   0  0  0  0  0  0  0  0  0  0  0  0
   -4.2216    0.0725    2.7812 S   0  0  0  0  0  0  0  0  0  0  0  0
   -3.6375   -1.3883    3.3985 C   0  0  0  0  0  0  0  0  0  0  0  0
   -4.2759   -2.5459    3.8468 C   0  0  0  0  0  0  0  0  0  0  0  0
   -5.5759   -2.4528    4.6228 C   0  0  0  0  0  0  0  0  0  0  0  0
   -5.2882   -2.0032    6.0781 C   0  0  0  0  0  0  0  0  0  0  0  0
   -3.3667   -3.6142    3.9527 C   0  0  0  0  0  0  0  0  0  0  0  0
   -1.7776   -2.9586    3.7710 S   0  0  0  0  0  0  0  0  0  0  0  0
   -2.2661   -1.4243    3.3385 C   0  0  0  0  0  0  0  0  0  0  0  0
   -1.7151   -0.2607    2.7756 C   0  0  0  0  0  0  0  0  0  0  0  0
   -0.4601    0.0824    2.4279 N   0  0  0  0  0  0  0  0  0  0  0  0
   -0.6364    1.3264    1.8322 C   0  0  0  0  0  0  0  0  0  0  0  0
    0.2635    2.1814    1.1646 C   0  0  0  0  0  0  0  0  0  0  0  0
    1.6251    2.2354    1.1611 N   0  0  0  0  0  0  0  0  0  0  0  0
    1.9517    3.0733    0.1560 C   0  0  0  0  0  0  0  0  0  0  0  0
    3.1362    3.4622   -0.4225 C   0  0  0  0  0  0  0  0  0  0  0  0
    4.7366    2.9868   -0.3322 S   0  0  0  0  0  0  0  0  0  0  0  0
    2.4936    1.9523    2.3173 C   0  0  0  0  0  0  0  0  0  0  0  0
    3.0500    3.2510    2.9392 C   0  0  0  0  0  0  0  0  0  0  0  0
    0.7334   -0.7759    2.4206 C   0  0  0  0  0  0  0  0  0  0  0  0
    1.3286   -0.9398    3.8338 C   0  0  0  0  0  0  0  0  0  0  0  0
   -3.6615   -4.8541    4.6556 C   0  0  0  0  0  0  0  0  0  0  0  0
   -3.7838   -6.0880    4.1212 C   0  0  0  0  0  0  0  0  0  0  0  0
   -4.1061   -7.2506    4.9639 C   0  0  0  0  0  0  0  0  0  0  0  0
   -4.3913   -7.2106    6.2136 O   0  0  0  0  0  0  0  0  0  0  0  0
   -4.0155   -8.4695    4.2081 C   0  0  0  0  0  0  0  0  0  0  0  0
   -4.2970   -9.7760    4.6054 C   0  0  0  0  0  0  0  0  0  0  0  0
   -4.6748  -10.0984    5.9022 F   0  0  0  0  0  0  0  0  0  0  0  0
   -4.2030  -10.7960    3.6530 C   0  0  0  0  0  0  0  0  0  0  0  0
   -3.8706  -10.4797    2.3121 C   0  0  0  0  0  0  0  0  0  0  0  0
   -3.5833   -9.1864    1.9223 C   0  0  0  0  0  0  0  0  0  0  0  0
   -3.6511   -8.1413    2.8773 C   0  0  0  0  0  0  0  0  0  0  0  0
   -3.4856   -6.6522    2.7589 C   0  0  0  0  0  0  0  0  0  0  0  0
   -3.0167   -6.0225    1.6129 C   0  0  0  0  0  0  0  0  0  0  0  0
   -3.3139   -4.6473    1.2314 C   0  0  0  0  0  0  0  0  0  0  0  0
   -3.5626   -3.5963    0.8041 N   0  0  0  0  0  0  0  0  0  0  0  0
   -2.5069   -6.7252    0.4524 C   0  0  0  0  0  0  0  0  0  0  0  0
   -2.2061   -7.1870   -0.5798 N   0  0  0  0  0  0  0  0  0  0  0  0
    6.8601    4.7470   -2.8297 H   0  0  0  0  0  0  0  0  0  0  0  0
    6.9375    2.2958   -7.3895 H   0  0  0  0  0  0  0  0  0  0  0  0
    8.5775    2.8086   -6.8800 H   0  0  0  0  0  0  0  0  0  0  0  0
    7.2579    0.1635   -5.9202 H   0  0  0  0  0  0  0  0  0  0  0  0
    8.9386    0.6657   -5.7189 H   0  0  0  0  0  0  0  0  0  0  0  0
    8.3017    0.2513   -7.4041 H   0  0  0  0  0  0  0  0  0  0  0  0
    4.8731    5.0629   -4.2088 H   0  0  0  0  0  0  0  0  0  0  0  0
    3.1324    5.3856   -3.9951 H   0  0  0  0  0  0  0  0  0  0  0  0
    5.4054    7.0009   -2.6674 H   0  0  0  0  0  0  0  0  0  0  0  0
    4.4645    7.4562   -4.1119 H   0  0  0  0  0  0  0  0  0  0  0  0
    3.6304    7.3078   -2.5105 H   0  0  0  0  0  0  0  0  0  0  0  0
   -6.0726   -3.4243    4.6239 H   0  0  0  0  0  0  0  0  0  0  0  0
   -6.2153   -1.6974    4.1289 H   0  0  0  0  0  0  0  0  0  0  0  0
   -5.1058   -2.9063    6.7096 H   0  0  0  0  0  0  0  0  0  0  0  0
   -4.3692   -1.3639    6.1827 H   0  0  0  0  0  0  0  0  0  0  0  0
   -6.1615   -1.4856    6.5607 H   0  0  0  0  0  0  0  0  0  0  0  0
    3.3175    1.2837    2.0224 H   0  0  0  0  0  0  0  0  0  0  0  0
    1.9230    1.4503    3.0990 H   0  0  0  0  0  0  0  0  0  0  0  0
    4.0149    3.5039    2.4400 H   0  0  0  0  0  0  0  0  0  0  0  0
    3.2484    3.1116    4.0349 H   0  0  0  0  0  0  0  0  0  0  0  0
    2.3614    4.1255    2.8326 H   0  0  0  0  0  0  0  0  0  0  0  0
    0.4425   -1.7591    2.0122 H   0  0  0  0  0  0  0  0  0  0  0  0
    1.4915   -0.3964    1.7038 H   0  0  0  0  0  0  0  0  0  0  0  0
    0.8655   -0.2535    4.5875 H   0  0  0  0  0  0  0  0  0  0  0  0
    2.4232   -0.7228    3.8072 H   0  0  0  0  0  0  0  0  0  0  0  0
    1.2125   -1.9882    4.1731 H   0  0  0  0  0  0  0  0  0  0  0  0
   -3.9425   -4.7436    5.7007 H   0  0  0  0  0  0  0  0  0  0  0  0
   -4.4546  -11.8160    3.8963 H   0  0  0  0  0  0  0  0  0  0  0  0
   -3.8122  -11.2475    1.5568 H   0  0  0  0  0  0  0  0  0  0  0  0
   -3.4006   -9.0679    0.8439 H   0  0  0  0  0  0  0  0  0  0  0  0
  1  2  2  3
  2  3  1  0
  3  4  1  0
  4  5  2  0
  4  6  1  0
  6  7  1  0
  7  8  1  0
  6  9  1  0
  9 10  2  0
  1 11  1  0
 11 12  2  0
 12 13  1  0
 13 14  1  0
 12 15  1  0
 15 16  1  0
 16 17  1  0
 17 18  1  0
 18 19  1  0
 19 20  1  0
 20 21  2  0
 21 22  1  0
 22 23  1  0
 20 24  1  0
 24 25  1  0
 25 26  1  0
 26 27  1  0
 27 28  1  0
 28 29  1  0
 29 30  1  0
 28 31  2  0
 31 32  1  0
 32 33  1  0
 33 34  1  0
 34 35  1  0
 35 36  1  0
 36 37  1  0
 37 38  1  0
 38 39  1  0
 39 40  1  0
 40 41  1  0
 38 42  1  0
 42 43  1  0
 35 44  1  0
 44 45  1  0
 31 46  1  0
 46 47  2  3
 47 48  1  0
 48 49  2  0
 48 50  1  0
 50 51  2  0
 51 52  1  0
 51 53  1  0
 53 54  2  0
 54 55  1  0
 55 56  2  0
 56 57  1  0
 57 58  2  3
 58 59  1  0
 59 60  3  0
 58 61  1  0
 61 62  3  0
  9  2  1  0
 41 11  1  0
 57 47  1  0
 40 15  2  0
 56 50  1  0
 39 17  2  0
 37 18  2  0
 23 19  2  0
 36 24  2  0
 34 25  2  0
 33 27  2  0
  1 63  1  0
  7 64  1  0
  7 65  1  0
  8 66  1  0
  8 67  1  0
  8 68  1  0
 13 69  1  0
 13 70  1  0
 14 71  1  0
 14 72  1  0
 14 73  1  0
 29 74  1  0
 29 75  1  0
 30 76  1  0
 30 77  1  0
 30 78  1  0
 42 79  1  0
 42 80  1  0
 43 81  1  0
 43 82  1  0
 43 83  1  0
 44 84  1  0
 44 85  1  0
 45 86  1  0
 45 87  1  0
 45 88  1  0
 46 89  1  0
 53 90  1  0
 54 91  1  0
 55 92  1  0
M  END

