
     RDKit          3D

 98109  0  0  0  0  0  0  0  0999 V2000
   -5.6393    6.3857    2.7893 C   0  0  0  0  0  0  0  0  0  0  0  0
   -5.4043    7.6871    2.5764 C   0  0  0  0  0  0  0  0  0  0  0  0
   -6.7504    8.8735    2.4753 S   0  0  0  0  0  0  0  0  0  0  0  0
   -5.5105   10.1708    2.3933 C   0  0  0  0  0  0  0  0  0  0  0  0
   -5.8165   11.3919    2.4441 O   0  0  0  0  0  0  0  0  0  0  0  0
   -4.1600    9.7352    2.2945 N   0  0  0  0  0  0  0  0  0  0  0  0
   -2.9943   10.6196    2.2769 C   0  0  0  0  0  0  0  0  0  0  0  0
   -2.5195   10.9058    3.6951 C   0  0  0  0  0  0  0  0  0  0  0  0
   -4.0922    8.3216    2.4108 C   0  0  0  0  0  0  0  0  0  0  0  0
   -3.0019    7.6943    2.3502 O   0  0  0  0  0  0  0  0  0  0  0  0
   -4.5730    5.3887    2.9520 C   0  0  0  0  0  0  0  0  0  0  0  0
   -3.7185    5.2625    4.0641 C   0  0  0  0  0  0  0  0  0  0  0  0
   -3.7974    6.0861    5.3211 C   0  0  0  0  0  0  0  0  0  0  0  0
   -4.8043    5.4828    6.2918 C   0  0  0  0  0  0  0  0  0  0  0  0
   -2.8560    4.1779    3.8973 C   0  0  0  0  0  0  0  0  0  0  0  0
   -1.6677    3.4665    4.8936 S   0  0  0  0  0  0  0  0  0  0  0  0
   -1.3505    2.2903    3.7122 C   0  0  0  0  0  0  0  0  0  0  0  0
   -0.6958    1.0999    3.6139 C   0  0  0  0  0  0  0  0  0  0  0  0
    0.0391    0.3801    4.5607 C   0  0  0  0  0  0  0  0  0  0  0  0
    0.4387   -0.9505    4.2472 C   0  0  0  0  0  0  0  0  0  0  0  0
    1.1501   -1.6179    5.1897 N   0  0  0  0  0  0  0  0  0  0  0  0
    1.2060   -0.4567    6.3696 S   0  0  0  0  0  0  0  0  0  0  0  0
    0.3903    0.8592    5.7804 N   0  0  0  0  0  0  0  0  0  0  0  0
    0.0976   -1.4787    2.9963 C   0  0  0  0  0  0  0  0  0  0  0  0
    0.5460   -2.6007    2.3622 C   0  0  0  0  0  0  0  0  0  0  0  0
    1.7585   -3.7571    2.6416 S   0  0  0  0  0  0  0  0  0  0  0  0
    1.8226   -4.1322    0.9798 C   0  0  0  0  0  0  0  0  0  0  0  0
    2.6903   -4.9192    0.2160 C   0  0  0  0  0  0  0  0  0  0  0  0
    3.7882   -5.7608    0.8048 C   0  0  0  0  0  0  0  0  0  0  0  0
    5.0254   -4.9154    1.0813 C   0  0  0  0  0  0  0  0  0  0  0  0
    2.4870   -4.7057   -1.1635 C   0  0  0  0  0  0  0  0  0  0  0  0
    1.2966   -3.5012   -1.3771 S   0  0  0  0  0  0  0  0  0  0  0  0
    0.9758   -3.3300    0.2555 C   0  0  0  0  0  0  0  0  0  0  0  0
    0.2271   -2.4682    1.0494 C   0  0  0  0  0  0  0  0  0  0  0  0
   -0.4520   -1.3215    0.7871 N   0  0  0  0  0  0  0  0  0  0  0  0
   -0.5877   -0.7319    2.0212 C   0  0  0  0  0  0  0  0  0  0  0  0
   -1.0790    0.5569    2.3739 C   0  0  0  0  0  0  0  0  0  0  0  0
   -2.0519    1.3359    1.7845 N   0  0  0  0  0  0  0  0  0  0  0  0
   -2.1453    2.4023    2.6210 C   0  0  0  0  0  0  0  0  0  0  0  0
   -3.0174    3.4797    2.7255 C   0  0  0  0  0  0  0  0  0  0  0  0
   -4.2560    4.1569    1.8183 S   0  0  0  0  0  0  0  0  0  0  0  0
   -3.1338    0.9115    0.8816 C   0  0  0  0  0  0  0  0  0  0  0  0
   -3.9147   -0.2677    1.4566 C   0  0  0  0  0  0  0  0  0  0  0  0
   -0.4958   -0.6776   -0.5288 C   0  0  0  0  0  0  0  0  0  0  0  0
   -1.5434   -1.3401   -1.4279 C   0  0  0  0  0  0  0  0  0  0  0  0
    3.3717   -5.1969   -2.2385 C   0  0  0  0  0  0  0  0  0  0  0  0
    2.9653   -5.5050   -3.4866 C   0  0  0  0  0  0  0  0  0  0  0  0
    1.5862   -5.4729   -3.9869 C   0  0  0  0  0  0  0  0  0  0  0  0
    0.5384   -5.6221   -3.3054 O   0  0  0  0  0  0  0  0  0  0  0  0
    1.6289   -5.3612   -5.4285 C   0  0  0  0  0  0  0  0  0  0  0  0
    0.5694   -5.1258   -6.3038 C   0  0  0  0  0  0  0  0  0  0  0  0
    0.8566   -4.9192   -7.6640 C   0  0  0  0  0  0  0  0  0  0  0  0
   -0.1766   -4.6605   -8.5802 C   0  0  0  0  0  0  0  0  0  0  0  0
    0.1212   -4.4330   -9.9274 C   0  0  0  0  0  0  0  0  0  0  0  0
    1.4471   -4.4547  -10.3720 C   0  0  0  0  0  0  0  0  0  0  0  0
    1.7262   -4.2309  -11.6815 F   0  0  0  0  0  0  0  0  0  0  0  0
    2.4868   -4.7108   -9.4732 C   0  0  0  0  0  0  0  0  0  0  0  0
    2.2069   -4.9472   -8.1177 C   0  0  0  0  0  0  0  0  0  0  0  0
    3.2530   -5.1913   -7.2047 C   0  0  0  0  0  0  0  0  0  0  0  0
    2.9443   -5.4197   -5.8556 C   0  0  0  0  0  0  0  0  0  0  0  0
    3.8374   -5.6643   -4.6877 C   0  0  0  0  0  0  0  0  0  0  0  0
    5.1023   -6.1559   -4.7245 C   0  0  0  0  0  0  0  0  0  0  0  0
    5.7846   -6.6121   -3.5423 C   0  0  0  0  0  0  0  0  0  0  0  0
    6.3414   -6.9854   -2.5985 N   0  0  0  0  0  0  0  0  0  0  0  0
    5.8101   -6.3864   -5.9553 C   0  0  0  0  0  0  0  0  0  0  0  0
    6.3946   -6.5788   -6.9354 N   0  0  0  0  0  0  0  0  0  0  0  0
   -6.6611    6.0360    2.8153 H   0  0  0  0  0  0  0  0  0  0  0  0
   -2.1691   10.1478    1.6989 H   0  0  0  0  0  0  0  0  0  0  0  0
   -3.2548   11.5768    1.7790 H   0  0  0  0  0  0  0  0  0  0  0  0
   -3.3263   11.4033    4.2759 H   0  0  0  0  0  0  0  0  0  0  0  0
   -2.2342    9.9587    4.2001 H   0  0  0  0  0  0  0  0  0  0  0  0
   -1.6320   11.5744    3.6633 H   0  0  0  0  0  0  0  0  0  0  0  0
   -4.0909    7.1304    5.0861 H   0  0  0  0  0  0  0  0  0  0  0  0
   -2.7994    6.1243    5.8070 H   0  0  0  0  0  0  0  0  0  0  0  0
   -4.8510    6.1019    7.2112 H   0  0  0  0  0  0  0  0  0  0  0  0
   -5.8136    5.4524    5.8293 H   0  0  0  0  0  0  0  0  0  0  0  0
   -4.5001    4.4522    6.5706 H   0  0  0  0  0  0  0  0  0  0  0  0
    4.0524   -6.5889    0.1138 H   0  0  0  0  0  0  0  0  0  0  0  0
    3.4380   -6.2175    1.7550 H   0  0  0  0  0  0  0  0  0  0  0  0
    4.7878   -4.1150    1.8118 H   0  0  0  0  0  0  0  0  0  0  0  0
    5.4030   -4.4549    0.1436 H   0  0  0  0  0  0  0  0  0  0  0  0
    5.8247   -5.5547    1.5072 H   0  0  0  0  0  0  0  0  0  0  0  0
   -3.8484    1.7378    0.7101 H   0  0  0  0  0  0  0  0  0  0  0  0
   -2.7583    0.6794   -0.1193 H   0  0  0  0  0  0  0  0  0  0  0  0
   -4.2988   -0.0147    2.4640 H   0  0  0  0  0  0  0  0  0  0  0  0
   -4.7769   -0.5002    0.7992 H   0  0  0  0  0  0  0  0  0  0  0  0
   -3.2762   -1.1702    1.5263 H   0  0  0  0  0  0  0  0  0  0  0  0
    0.4997   -0.7557   -1.0144 H   0  0  0  0  0  0  0  0  0  0  0  0
   -0.6717    0.4092   -0.4295 H   0  0  0  0  0  0  0  0  0  0  0  0
   -1.2577   -2.3845   -1.6619 H   0  0  0  0  0  0  0  0  0  0  0  0
   -1.6260   -0.7761   -2.3770 H   0  0  0  0  0  0  0  0  0  0  0  0
   -2.5369   -1.3735   -0.9392 H   0  0  0  0  0  0  0  0  0  0  0  0
    4.4217   -5.1902   -2.0053 H   0  0  0  0  0  0  0  0  0  0  0  0
   -0.4466   -5.0765   -5.9289 H   0  0  0  0  0  0  0  0  0  0  0  0
   -1.2102   -4.6270   -8.2541 H   0  0  0  0  0  0  0  0  0  0  0  0
   -0.6783   -4.2288  -10.6282 H   0  0  0  0  0  0  0  0  0  0  0  0
    3.5078   -4.7226   -9.8364 H   0  0  0  0  0  0  0  0  0  0  0  0
    4.2724   -5.1568   -7.5534 H   0  0  0  0  0  0  0  0  0  0  0  0
  1  2  2  3
  2  3  1  0
  3  4  1  0
  4  5  2  0
  4  6  1  0
  6  7  1  0
  7  8  1  0
  6  9  1  0
  9 10  2  0
  1 11  1  0
 11 12  2  0
 12 13  1  0
 13 14  1  0
 12 15  1  0
 15 16  1  0
 16 17  1  0
 17 18  1  0
 18 19  1  0
 19 20  1  0
 20 21  2  0
 21 22  1  0
 22 23  1  0
 20 24  1  0
 24 25  1  0
 25 26  1  0
 26 27  1  0
 27 28  1  0
 28 29  1  0
 29 30  1  0
 28 31  2  0
 31 32  1  0
 32 33  1  0
 33 34  1  0
 34 35  1  0
 35 36  1  0
 36 37  1  0
 37 38  1  0
 38 39  1  0
 39 40  1  0
 40 41  1  0
 38 42  1  0
 42 43  1  0
 35 44  1  0
 44 45  1  0
 31 46  1  0
 46 47  2  3
 47 48  1  0
 48 49  2  0
 48 50  1  0
 50 51  2  0
 51 52  1  0
 52 53  2  0
 53 54  1  0
 54 55  2  0
 55 56  1  0
 55 57  1  0
 57 58  2  0
 58 59  1  0
 59 60  2  0
 60 61  1  0
 61 62  2  3
 62 63  1  0
 63 64  3  0
 62 65  1  0
 65 66  3  0
  9  2  1  0
 41 11  1  0
 61 47  1  0
 40 15  2  0
 60 50  1  0
 39 17  2  0
 58 52  1  0
 37 18  2  0
 23 19  2  0
 36 24  2  0
 34 25  2  0
 33 27  2  0
  1 67  1  0
  7 68  1  0
  7 69  1  0
  8 70  1  0
  8 71  1  0
  8 72  1  0
 13 73  1  0
 13 74  1  0
 14 75  1  0
 14 76  1  0
 14 77  1  0
 29 78  1  0
 29 79  1  0
 30 80  1  0
 30 81  1  0
 30 82  1  0
 42 83  1  0
 42 84  1  0
 43 85  1  0
 43 86  1  0
 43 87  1  0
 44 88  1  0
 44 89  1  0
 45 90  1  0
 45 91  1  0
 45 92  1  0
 46 93  1  0
 51 94  1  0
 53 95  1  0
 54 96  1  0
 57 97  1  0
 59 98  1  0
M  END

