
     RDKit          3D

109123  0  0  0  0  0  0  0  0999 V2000
    9.0459    6.2870    1.7576 C   0  0  0  0  0  0  0  0  0  0  0  0
    8.9167    7.5163    2.2869 C   0  0  0  0  0  0  0  0  0  0  0  0
    7.4566    8.1212    3.1695 S   0  0  0  0  0  0  0  0  0  0  0  0
    8.2953    9.6908    3.3768 C   0  0  0  0  0  0  0  0  0  0  0  0
    7.7242   10.6910    3.8894 O   0  0  0  0  0  0  0  0  0  0  0  0
    9.6282    9.7469    2.8798 N   0  0  0  0  0  0  0  0  0  0  0  0
   10.5189   10.9009    3.0168 C   0  0  0  0  0  0  0  0  0  0  0  0
   11.2621   10.8425    4.3527 C   0  0  0  0  0  0  0  0  0  0  0  0
    9.9913    8.5096    2.2789 C   0  0  0  0  0  0  0  0  0  0  0  0
   11.1263    8.3203    1.7552 O   0  0  0  0  0  0  0  0  0  0  0  0
    7.9515    5.2997    1.6146 C   0  0  0  0  0  0  0  0  0  0  0  0
    6.2926    5.6507    1.4756 S   0  0  0  0  0  0  0  0  0  0  0  0
    5.8091    4.0684    1.2467 C   0  0  0  0  0  0  0  0  0  0  0  0
    4.5221    3.5435    1.0822 C   0  0  0  0  0  0  0  0  0  0  0  0
    3.0572    4.4063    1.1012 S   0  0  0  0  0  0  0  0  0  0  0  0
    2.1868    2.9886    0.8613 C   0  0  0  0  0  0  0  0  0  0  0  0
    0.8871    2.6060    0.9502 C   0  0  0  0  0  0  0  0  0  0  0  0
   -0.2736    3.3305    1.2562 C   0  0  0  0  0  0  0  0  0  0  0  0
   -1.4878    2.6122    1.4578 C   0  0  0  0  0  0  0  0  0  0  0  0
   -2.5908    3.3426    1.7524 N   0  0  0  0  0  0  0  0  0  0  0  0
   -1.9319    4.8675    1.7552 S   0  0  0  0  0  0  0  0  0  0  0  0
   -0.3257    4.6804    1.3999 N   0  0  0  0  0  0  0  0  0  0  0  0
   -1.4790    1.2176    1.3160 C   0  0  0  0  0  0  0  0  0  0  0  0
   -2.5031    0.3285    1.2235 C   0  0  0  0  0  0  0  0  0  0  0  0
   -4.1698    0.4568    1.0218 S   0  0  0  0  0  0  0  0  0  0  0  0
   -4.2618   -1.1285    0.4152 C   0  0  0  0  0  0  0  0  0  0  0  0
   -5.3880   -1.7935   -0.0866 C   0  0  0  0  0  0  0  0  0  0  0  0
   -5.2905   -3.0921   -0.5887 C   0  0  0  0  0  0  0  0  0  0  0  0
   -4.0424   -3.7157   -0.5710 C   0  0  0  0  0  0  0  0  0  0  0  0
   -3.7120   -4.9651   -0.9233 N   0  0  0  0  0  0  0  0  0  0  0  0
   -2.4100   -5.0495   -0.6713 N   0  0  0  0  0  0  0  0  0  0  0  0
   -1.6500   -6.2795   -0.8501 C   0  0  0  0  0  0  0  0  0  0  0  0
   -1.7660   -7.1485    0.4000 C   0  0  0  0  0  0  0  0  0  0  0  0
   -1.8896   -3.9266   -0.1710 N   0  0  0  0  0  0  0  0  0  0  0  0
   -2.9190   -3.0670   -0.1186 C   0  0  0  0  0  0  0  0  0  0  0  0
   -2.9864   -1.7401    0.3515 C   0  0  0  0  0  0  0  0  0  0  0  0
   -1.9879   -0.8541    0.7851 C   0  0  0  0  0  0  0  0  0  0  0  0
   -0.6506   -0.7521    0.5152 N   0  0  0  0  0  0  0  0  0  0  0  0
   -0.3283    0.5071    0.9591 C   0  0  0  0  0  0  0  0  0  0  0  0
    0.9021    1.2086    0.8655 C   0  0  0  0  0  0  0  0  0  0  0  0
    2.1915    0.7330    0.8588 N   0  0  0  0  0  0  0  0  0  0  0  0
    2.9540    1.8662    0.8061 C   0  0  0  0  0  0  0  0  0  0  0  0
    4.3284    2.1496    0.9196 C   0  0  0  0  0  0  0  0  0  0  0  0
    5.4771    1.3312    0.8983 C   0  0  0  0  0  0  0  0  0  0  0  0
    6.7350    1.8626    1.0670 C   0  0  0  0  0  0  0  0  0  0  0  0
    6.9361    3.2362    1.2465 C   0  0  0  0  0  0  0  0  0  0  0  0
    8.1468    3.9226    1.4331 C   0  0  0  0  0  0  0  0  0  0  0  0
    7.6346    0.8703    1.0301 N   0  0  0  0  0  0  0  0  0  0  0  0
    6.9129   -0.2295    0.8261 N   0  0  0  0  0  0  0  0  0  0  0  0
    7.4809   -1.5717    0.7986 C   0  0  0  0  0  0  0  0  0  0  0  0
    7.3784   -2.2119    2.1771 C   0  0  0  0  0  0  0  0  0  0  0  0
    5.6076    0.0057    0.7475 N   0  0  0  0  0  0  0  0  0  0  0  0
    2.6201   -0.5789    1.3736 C   0  0  0  0  0  0  0  0  0  0  0  0
    3.1038   -0.4875    2.8210 C   0  0  0  0  0  0  0  0  0  0  0  0
    0.0366   -1.4319   -0.5995 C   0  0  0  0  0  0  0  0  0  0  0  0
   -0.5962   -1.0904   -1.9484 C   0  0  0  0  0  0  0  0  0  0  0  0
   -6.4803   -3.5829   -1.1311 C   0  0  0  0  0  0  0  0  0  0  0  0
   -7.5177   -2.6414   -1.0908 C   0  0  0  0  0  0  0  0  0  0  0  0
   -6.9499   -1.2315   -0.3318 S   0  0  0  0  0  0  0  0  0  0  0  0
   -8.8210   -2.6733   -1.7970 C   0  0  0  0  0  0  0  0  0  0  0  0
   -8.9297   -2.8600   -3.1303 C   0  0  0  0  0  0  0  0  0  0  0  0
   -9.7486   -1.9769   -3.9588 C   0  0  0  0  0  0  0  0  0  0  0  0
  -10.8682   -1.5023   -3.6227 O   0  0  0  0  0  0  0  0  0  0  0  0
   -9.0280   -1.7275   -5.2115 C   0  0  0  0  0  0  0  0  0  0  0  0
   -9.2883   -0.8021   -6.2423 C   0  0  0  0  0  0  0  0  0  0  0  0
  -10.4050    0.0288   -6.2507 O   0  0  0  0  0  0  0  0  0  0  0  0
   -8.3662   -0.7163   -7.3008 C   0  0  0  0  0  0  0  0  0  0  0  0
   -7.2015   -1.5042   -7.3029 C   0  0  0  0  0  0  0  0  0  0  0  0
   -6.9516   -2.4038   -6.2593 C   0  0  0  0  0  0  0  0  0  0  0  0
   -7.8958   -2.5207   -5.2279 C   0  0  0  0  0  0  0  0  0  0  0  0
   -7.8939   -3.4040   -4.0423 C   0  0  0  0  0  0  0  0  0  0  0  0
   -7.5373   -4.7083   -4.0688 C   0  0  0  0  0  0  0  0  0  0  0  0
   -8.1367   -5.6565   -3.1555 C   0  0  0  0  0  0  0  0  0  0  0  0
   -8.6218   -6.4182   -2.4308 N   0  0  0  0  0  0  0  0  0  0  0  0
   -6.7494   -5.2765   -5.1346 C   0  0  0  0  0  0  0  0  0  0  0  0
   -6.1562   -5.7524   -6.0024 N   0  0  0  0  0  0  0  0  0  0  0  0
   10.0110    5.9963    1.3591 H   0  0  0  0  0  0  0  0  0  0  0  0
    9.9288   11.8437    2.9595 H   0  0  0  0  0  0  0  0  0  0  0  0
   11.2548   10.9118    2.1949 H   0  0  0  0  0  0  0  0  0  0  0  0
   11.8572    9.9015    4.4139 H   0  0  0  0  0  0  0  0  0  0  0  0
   10.5378   10.8840    5.1897 H   0  0  0  0  0  0  0  0  0  0  0  0
   11.9479   11.7169    4.4278 H   0  0  0  0  0  0  0  0  0  0  0  0
   -0.5799   -6.0483   -1.0433 H   0  0  0  0  0  0  0  0  0  0  0  0
   -2.0520   -6.8364   -1.7255 H   0  0  0  0  0  0  0  0  0  0  0  0
   -1.3439   -8.1511    0.1970 H   0  0  0  0  0  0  0  0  0  0  0  0
   -1.2081   -6.6871    1.2408 H   0  0  0  0  0  0  0  0  0  0  0  0
   -2.8282   -7.2719    0.6936 H   0  0  0  0  0  0  0  0  0  0  0  0
    9.1231    3.4426    1.4325 H   0  0  0  0  0  0  0  0  0  0  0  0
    6.9372   -2.1939    0.0524 H   0  0  0  0  0  0  0  0  0  0  0  0
    8.5450   -1.5155    0.4928 H   0  0  0  0  0  0  0  0  0  0  0  0
    6.3111   -2.2992    2.4728 H   0  0  0  0  0  0  0  0  0  0  0  0
    7.9140   -1.5914    2.9293 H   0  0  0  0  0  0  0  0  0  0  0  0
    7.8301   -3.2223    2.1489 H   0  0  0  0  0  0  0  0  0  0  0  0
    1.7822   -1.2995    1.3880 H   0  0  0  0  0  0  0  0  0  0  0  0
    3.3953   -1.0067    0.7088 H   0  0  0  0  0  0  0  0  0  0  0  0
    2.2537   -0.2150    3.4881 H   0  0  0  0  0  0  0  0  0  0  0  0
    3.5144   -1.4726    3.1336 H   0  0  0  0  0  0  0  0  0  0  0  0
    3.9004    0.2700    2.9439 H   0  0  0  0  0  0  0  0  0  0  0  0
    1.0918   -1.1095   -0.6826 H   0  0  0  0  0  0  0  0  0  0  0  0
    0.0551   -2.5225   -0.4300 H   0  0  0  0  0  0  0  0  0  0  0  0
   -0.0261   -1.5844   -2.7648 H   0  0  0  0  0  0  0  0  0  0  0  0
   -0.5687    0.0111   -2.1116 H   0  0  0  0  0  0  0  0  0  0  0  0
   -1.6482   -1.4381   -2.0032 H   0  0  0  0  0  0  0  0  0  0  0  0
   -6.5369   -4.5667   -1.5553 H   0  0  0  0  0  0  0  0  0  0  0  0
   -9.6175   -2.1102   -1.3060 H   0  0  0  0  0  0  0  0  0  0  0  0
  -11.1051    0.0183   -5.5188 H   0  0  0  0  0  0  0  0  0  0  0  0
   -8.5357   -0.0161   -8.1101 H   0  0  0  0  0  0  0  0  0  0  0  0
   -6.4845   -1.4079   -8.1075 H   0  0  0  0  0  0  0  0  0  0  0  0
   -6.0352   -2.9723   -6.2457 H   0  0  0  0  0  0  0  0  0  0  0  0
  1  2  2  3
  2  3  1  0
  3  4  1  0
  4  5  2  0
  4  6  1  0
  6  7  1  0
  7  8  1  0
  6  9  1  0
  9 10  2  0
  1 11  1  0
 11 12  1  0
 12 13  1  0
 13 14  1  0
 14 15  1  0
 15 16  1  0
 16 17  1  0
 17 18  1  0
 18 19  1  0
 19 20  2  0
 20 21  1  0
 21 22  1  0
 19 23  1  0
 23 24  1  0
 24 25  1  0
 25 26  1  0
 26 27  1  0
 27 28  2  0
 28 29  1  0
 29 30  2  0
 30 31  1  0
 31 32  1  0
 32 33  1  0
 31 34  1  0
 34 35  2  0
 35 36  1  0
 36 37  1  0
 37 38  1  0
 38 39  1  0
 39 40  1  0
 40 41  1  0
 41 42  1  0
 42 43  1  0
 43 44  1  0
 44 45  1  0
 45 46  1  0
 46 47  1  0
 45 48  2  0
 48 49  1  0
 49 50  1  0
 50 51  1  0
 49 52  1  0
 41 53  1  0
 53 54  1  0
 38 55  1  0
 55 56  1  0
 28 57  1  0
 57 58  2  0
 58 59  1  0
 58 60  1  0
 60 61  2  3
 61 62  1  0
 62 63  2  0
 62 64  1  0
 64 65  2  0
 65 66  1  0
 65 67  1  0
 67 68  2  0
 68 69  1  0
 69 70  2  0
 70 71  1  0
 71 72  2  3
 72 73  1  0
 73 74  3  0
 72 75  1  0
 75 76  3  0
  9  2  1  0
 47 11  2  0
 71 61  1  0
 46 13  2  0
 70 64  1  0
 43 14  2  0
 52 44  2  0
 42 16  2  0
 40 17  2  0
 22 18  2  0
 39 23  2  0
 37 24  2  0
 36 26  2  0
 59 27  1  0
 35 29  1  0
  1 77  1  0
  7 78  1  0
  7 79  1  0
  8 80  1  0
  8 81  1  0
  8 82  1  0
 32 83  1  0
 32 84  1  0
 33 85  1  0
 33 86  1  0
 33 87  1  0
 47 88  1  0
 50 89  1  0
 50 90  1  0
 51 91  1  0
 51 92  1  0
 51 93  1  0
 53 94  1  0
 53 95  1  0
 54 96  1  0
 54 97  1  0
 54 98  1  0
 55 99  1  0
 55100  1  0
 56101  1  0
 56102  1  0
 56103  1  0
 57104  1  0
 60105  1  0
 66106  1  0
 67107  1  0
 68108  1  0
 69109  1  0
M  END

