
     RDKit          3D

 84 91  0  0  0  0  0  0  0  0999 V2000
    9.7901   -0.1404   -3.5426 C   0  0  0  0  0  0  0  0  0  0  0  0
   10.9252   -0.6302   -3.0165 C   0  0  0  0  0  0  0  0  0  0  0  0
   12.1398   -0.5769   -3.7871 C   0  0  0  0  0  0  0  0  0  0  0  0
   13.1165   -0.5372   -4.4073 N   0  0  0  0  0  0  0  0  0  0  0  0
   10.9765   -1.2944   -1.7380 C   0  0  0  0  0  0  0  0  0  0  0  0
   11.0219   -1.8296   -0.7126 N   0  0  0  0  0  0  0  0  0  0  0  0
    8.4714   -0.1353   -2.8762 C   0  0  0  0  0  0  0  0  0  0  0  0
    6.9966   -0.2352   -3.7453 S   0  0  0  0  0  0  0  0  0  0  0  0
    6.0773   -0.1047   -2.3557 C   0  0  0  0  0  0  0  0  0  0  0  0
    4.7723   -0.1492   -1.9456 C   0  0  0  0  0  0  0  0  0  0  0  0
    4.8333   -0.0365   -0.5529 C   0  0  0  0  0  0  0  0  0  0  0  0
    6.1203    0.0896   -0.1245 N   0  0  0  0  0  0  0  0  0  0  0  0
    6.8518    0.0234   -1.2597 C   0  0  0  0  0  0  0  0  0  0  0  0
    8.2218    0.0182   -1.4970 C   0  0  0  0  0  0  0  0  0  0  0  0
    6.6088    0.1076    1.2516 C   0  0  0  0  0  0  0  0  0  0  0  0
    3.6720   -0.1073    0.2293 C   0  0  0  0  0  0  0  0  0  0  0  0
    2.4676   -0.2937   -0.4665 C   0  0  0  0  0  0  0  0  0  0  0  0
    1.1142   -0.4067    0.0337 C   0  0  0  0  0  0  0  0  0  0  0  0
    0.2891   -0.5709   -0.9733 C   0  0  0  0  0  0  0  0  0  0  0  0
    0.9808   -0.6195   -2.3241 C   0  0  0  0  0  0  0  0  0  0  0  0
    0.8951   -2.0278   -2.9749 C   0  0  0  0  0  0  0  0  0  0  0  0
   -0.5200   -2.5220   -3.2734 C   0  0  0  0  0  0  0  0  0  0  0  0
    0.5213    0.5135   -3.2831 C   0  0  0  0  0  0  0  0  0  0  0  0
    0.6730    1.9268   -2.7057 C   0  0  0  0  0  0  0  0  0  0  0  0
    2.4095   -0.4006   -1.8594 C   0  0  0  0  0  0  0  0  0  0  0  0
    3.5764   -0.3359   -2.6417 C   0  0  0  0  0  0  0  0  0  0  0  0
   -1.0632   -0.3398   -0.5109 C   0  0  0  0  0  0  0  0  0  0  0  0
   -1.0000   -0.0624    0.8643 C   0  0  0  0  0  0  0  0  0  0  0  0
    0.4504   -0.0499    1.3482 C   0  0  0  0  0  0  0  0  0  0  0  0
    0.9657    1.3582    1.7933 C   0  0  0  0  0  0  0  0  0  0  0  0
   -0.0038    2.2018    2.6262 C   0  0  0  0  0  0  0  0  0  0  0  0
    0.7670   -1.2028    2.3451 C   0  0  0  0  0  0  0  0  0  0  0  0
    0.3462   -0.9725    3.7959 C   0  0  0  0  0  0  0  0  0  0  0  0
   -2.1825    0.1553    1.6018 C   0  0  0  0  0  0  0  0  0  0  0  0
   -3.3801    0.1013    0.8891 C   0  0  0  0  0  0  0  0  0  0  0  0
   -4.6837    0.2731    1.2692 C   0  0  0  0  0  0  0  0  0  0  0  0
   -5.6014    0.6043    2.6251 S   0  0  0  0  0  0  0  0  0  0  0  0
   -7.0785    0.5638    1.7437 C   0  0  0  0  0  0  0  0  0  0  0  0
   -6.8227    0.2770    0.3892 C   0  0  0  0  0  0  0  0  0  0  0  0
   -5.4568    0.1251    0.1759 C   0  0  0  0  0  0  0  0  0  0  0  0
   -4.7272   -0.1525   -0.9279 N   0  0  0  0  0  0  0  0  0  0  0  0
   -5.2089   -0.3089   -2.2978 C   0  0  0  0  0  0  0  0  0  0  0  0
   -3.4396   -0.1499   -0.4820 C   0  0  0  0  0  0  0  0  0  0  0  0
   -2.2734   -0.3642   -1.2248 C   0  0  0  0  0  0  0  0  0  0  0  0
   -8.4506    0.7149    2.2832 C   0  0  0  0  0  0  0  0  0  0  0  0
   -8.7863    1.1898    3.4952 C   0  0  0  0  0  0  0  0  0  0  0  0
   -7.8302    1.6880    4.4509 C   0  0  0  0  0  0  0  0  0  0  0  0
   -7.0695    2.0918    5.2244 N   0  0  0  0  0  0  0  0  0  0  0  0
  -10.1770    1.2483    3.8628 C   0  0  0  0  0  0  0  0  0  0  0  0
  -11.2946    1.2939    4.1581 N   0  0  0  0  0  0  0  0  0  0  0  0
    9.8131    0.2422   -4.5573 H   0  0  0  0  0  0  0  0  0  0  0  0
    8.9724    0.1425   -0.7301 H   0  0  0  0  0  0  0  0  0  0  0  0
    5.9489    0.7393    1.8823 H   0  0  0  0  0  0  0  0  0  0  0  0
    6.6228   -0.9270    1.6535 H   0  0  0  0  0  0  0  0  0  0  0  0
    7.6340    0.5298    1.2934 H   0  0  0  0  0  0  0  0  0  0  0  0
    3.7026   -0.0404    1.3079 H   0  0  0  0  0  0  0  0  0  0  0  0
    1.3770   -2.7767   -2.3064 H   0  0  0  0  0  0  0  0  0  0  0  0
    1.4702   -2.0259   -3.9267 H   0  0  0  0  0  0  0  0  0  0  0  0
   -0.4613   -3.5114   -3.7740 H   0  0  0  0  0  0  0  0  0  0  0  0
   -1.0924   -2.6553   -2.3331 H   0  0  0  0  0  0  0  0  0  0  0  0
   -1.0519   -1.8293   -3.9564 H   0  0  0  0  0  0  0  0  0  0  0  0
    1.1090    0.4570   -4.2252 H   0  0  0  0  0  0  0  0  0  0  0  0
   -0.5435    0.3734   -3.5564 H   0  0  0  0  0  0  0  0  0  0  0  0
    0.0583    2.0461   -1.7890 H   0  0  0  0  0  0  0  0  0  0  0  0
    0.3252    2.6693   -3.4551 H   0  0  0  0  0  0  0  0  0  0  0  0
    1.7362    2.1460   -2.4677 H   0  0  0  0  0  0  0  0  0  0  0  0
    3.5510   -0.4378   -3.7189 H   0  0  0  0  0  0  0  0  0  0  0  0
    1.2172    1.9706    0.8978 H   0  0  0  0  0  0  0  0  0  0  0  0
    1.9106    1.2398    2.3660 H   0  0  0  0  0  0  0  0  0  0  0  0
   -0.3689    1.6582    3.5175 H   0  0  0  0  0  0  0  0  0  0  0  0
   -0.8662    2.5256    2.0071 H   0  0  0  0  0  0  0  0  0  0  0  0
    0.5182    3.1171    2.9750 H   0  0  0  0  0  0  0  0  0  0  0  0
    1.8632   -1.3900    2.3518 H   0  0  0  0  0  0  0  0  0  0  0  0
    0.2860   -2.1409    1.9879 H   0  0  0  0  0  0  0  0  0  0  0  0
    0.9069   -0.1244    4.2385 H   0  0  0  0  0  0  0  0  0  0  0  0
   -0.7427   -0.8033    3.8813 H   0  0  0  0  0  0  0  0  0  0  0  0
    0.5901   -1.8780    4.3900 H   0  0  0  0  0  0  0  0  0  0  0  0
   -2.1840    0.3754    2.6577 H   0  0  0  0  0  0  0  0  0  0  0  0
   -7.5812    0.1817   -0.3766 H   0  0  0  0  0  0  0  0  0  0  0  0
   -6.2499   -0.6917   -2.2974 H   0  0  0  0  0  0  0  0  0  0  0  0
   -4.5772   -1.0376   -2.8466 H   0  0  0  0  0  0  0  0  0  0  0  0
   -5.1791    0.6711   -2.8159 H   0  0  0  0  0  0  0  0  0  0  0  0
   -2.3092   -0.5500   -2.2865 H   0  0  0  0  0  0  0  0  0  0  0  0
   -9.2527    0.4168    1.6161 H   0  0  0  0  0  0  0  0  0  0  0  0
  1  2  2  3
  2  3  1  0
  3  4  3  0
  2  5  1  0
  5  6  3  0
  1  7  1  0
  7  8  1  0
  8  9  1  0
  9 10  1  0
 10 11  2  0
 11 12  1  0
 12 13  1  0
 13 14  1  0
 12 15  1  0
 11 16  1  0
 16 17  2  0
 17 18  1  0
 18 19  2  0
 19 20  1  0
 20 21  1  0
 21 22  1  0
 20 23  1  0
 23 24  1  0
 20 25  1  0
 25 26  2  0
 19 27  1  0
 27 28  2  0
 28 29  1  0
 29 30  1  0
 30 31  1  0
 29 32  1  0
 32 33  1  0
 28 34  1  0
 34 35  2  0
 35 36  1  0
 36 37  1  0
 37 38  1  0
 38 39  2  0
 39 40  1  0
 40 41  1  0
 41 42  1  0
 41 43  1  0
 43 44  2  0
 38 45  1  0
 45 46  2  3
 46 47  1  0
 47 48  3  0
 46 49  1  0
 49 50  3  0
 14  7  2  0
 25 17  1  0
 44 27  1  0
 13  9  2  0
 29 18  1  0
 43 35  1  0
 26 10  1  0
 40 36  2  0
  1 51  1  0
 14 52  1  0
 15 53  1  0
 15 54  1  0
 15 55  1  0
 16 56  1  0
 21 57  1  0
 21 58  1  0
 22 59  1  0
 22 60  1  0
 22 61  1  0
 23 62  1  0
 23 63  1  0
 24 64  1  0
 24 65  1  0
 24 66  1  0
 26 67  1  0
 30 68  1  0
 30 69  1  0
 31 70  1  0
 31 71  1  0
 31 72  1  0
 32 73  1  0
 32 74  1  0
 33 75  1  0
 33 76  1  0
 33 77  1  0
 34 78  1  0
 39 79  1  0
 42 80  1  0
 42 81  1  0
 42 82  1  0
 44 83  1  0
 45 84  1  0
M  END

