
     RDKit          3D

 96108  0  0  0  0  0  0  0  0999 V2000
   -3.2755    5.9425    6.2518 C   0  0  0  0  0  0  0  0  0  0  0  0
   -3.1259    7.0533    5.7679 C   0  0  0  0  0  0  0  0  0  0  0  0
   -2.1203    7.6305    4.8226 C   0  0  0  0  0  0  0  0  0  0  0  0
   -1.3539    8.0929    4.0996 N   0  0  0  0  0  0  0  0  0  0  0  0
   -4.1511    8.1702    5.9396 C   0  0  0  0  0  0  0  0  0  0  0  0
   -4.9661    9.0695    6.0610 N   0  0  0  0  0  0  0  0  0  0  0  0
   -2.3498    4.8742    5.8718 C   0  0  0  0  0  0  0  0  0  0  0  0
   -1.6641    3.9378    6.6727 C   0  0  0  0  0  0  0  0  0  0  0  0
   -1.6099    3.9816    8.0373 C   0  0  0  0  0  0  0  0  0  0  0  0
   -2.9397    3.5606    8.7183 C   0  0  0  0  0  0  0  0  0  0  0  0
   -1.2485    3.1482    5.4740 C   0  0  0  0  0  0  0  0  0  0  0  0
    0.7404    2.6620    6.0512 S   0  0  0  0  0  0  0  0  0  0  0  0
    0.8909    1.7169    4.6236 C   0  0  0  0  0  0  0  0  0  0  0  0
    1.7703    0.9472    3.9166 C   0  0  0  0  0  0  0  0  0  0  0  0
    3.1116    0.7477    4.1415 C   0  0  0  0  0  0  0  0  0  0  0  0
    3.9290    0.0470    3.2601 C   0  0  0  0  0  0  0  0  0  0  0  0
    5.1260    0.0431    3.3566 N   0  0  0  0  0  0  0  0  0  0  0  0
    5.4413    1.1991    5.0334 Se  0  0  0  0  0  2  0  0  0  0  0  0
    3.7830    1.3931    5.1369 N   0  0  0  0  0  0  0  0  0  0  0  0
    3.2012   -0.4349    2.1245 C   0  0  0  0  0  0  0  0  0  0  0  0
    3.6602   -1.0258    0.9723 C   0  0  0  0  0  0  0  0  0  0  0  0
    5.0217   -1.5466    0.0212 S   0  0  0  0  0  0  0  0  0  0  0  0
    4.1945   -1.8924   -1.4562 C   0  0  0  0  0  0  0  0  0  0  0  0
    4.3704   -2.1907   -2.7757 C   0  0  0  0  0  0  0  0  0  0  0  0
    5.8861   -2.4269   -3.2181 C   0  0  0  0  0  0  0  0  0  0  0  0
    5.9628   -2.9467   -4.5859 C   0  0  0  0  0  0  0  0  0  0  0  0
    3.5618   -2.2475   -3.6701 C   0  0  0  0  0  0  0  0  0  0  0  0
    2.1074   -1.8232   -2.6442 S   0  0  0  0  0  0  0  0  0  0  0  0
    2.9738   -1.6187   -1.1194 C   0  0  0  0  0  0  0  0  0  0  0  0
    2.5577   -1.1550    0.1099 C   0  0  0  0  0  0  0  0  0  0  0  0
    1.5404   -0.6734    0.7737 N   0  0  0  0  0  0  0  0  0  0  0  0
    1.8016   -0.1995    1.9413 C   0  0  0  0  0  0  0  0  0  0  0  0
    1.0371    0.5297    2.8364 C   0  0  0  0  0  0  0  0  0  0  0  0
   -0.2025    1.0520    2.8989 N   0  0  0  0  0  0  0  0  0  0  0  0
   -0.3811    1.8322    3.9763 C   0  0  0  0  0  0  0  0  0  0  0  0
   -0.9873    2.6775    4.9008 C   0  0  0  0  0  0  0  0  0  0  0  0
   -2.1517    4.2950    4.2016 S   0  0  0  0  0  0  0  0  0  0  0  0
   -1.3163    0.9386    1.9572 C   0  0  0  0  0  0  0  0  0  0  0  0
   -1.4049    1.9901    0.9218 C   0  0  0  0  0  0  0  0  0  0  0  0
    0.1662   -0.9320    0.2841 C   0  0  0  0  0  0  0  0  0  0  0  0
   -0.2830   -2.2134    0.9543 C   0  0  0  0  0  0  0  0  0  0  0  0
    3.1400   -2.3996   -5.1036 C   0  0  0  0  0  0  0  0  0  0  0  0
    2.2488   -1.3929   -5.4652 C   0  0  0  0  0  0  0  0  0  0  0  0
    1.8975   -0.3508   -4.4032 C   0  0  0  0  0  0  0  0  0  0  0  0
    2.6172    0.0364   -3.5379 O   0  0  0  0  0  0  0  0  0  0  0  0
    0.5595    0.0664   -4.7179 C   0  0  0  0  0  0  0  0  0  0  0  0
   -0.3159    0.8432   -4.0028 C   0  0  0  0  0  0  0  0  0  0  0  0
   -1.6385    0.9835   -4.3950 C   0  0  0  0  0  0  0  0  0  0  0  0
   -2.0687    0.4007   -5.4401 C   0  0  0  0  0  0  0  0  0  0  0  0
   -1.2465   -0.3949   -6.2035 C   0  0  0  0  0  0  0  0  0  0  0  0
    0.0416   -0.6136   -5.9192 C   0  0  0  0  0  0  0  0  0  0  0  0
    1.1237   -1.5016   -6.3534 C   0  0  0  0  0  0  0  0  0  0  0  0
    1.2079   -2.2380   -7.4295 C   0  0  0  0  0  0  0  0  0  0  0  0
    2.2534   -2.9867   -7.9377 C   0  0  0  0  0  0  0  0  0  0  0  0
    3.1770   -3.6371   -8.3687 N   0  0  0  0  0  0  0  0  0  0  0  0
    0.0275   -2.4065   -8.2053 C   0  0  0  0  0  0  0  0  0  0  0  0
   -1.1068   -2.5482   -8.9357 N   0  0  0  0  0  0  0  0  0  0  0  0
   -3.4529    0.9048   -5.1641 C   0  0  0  0  0  0  0  0  0  0  0  0
   -4.3136   -0.1241   -4.4848 C   0  0  0  0  0  0  0  0  0  0  0  0
   -3.4329   -0.9949   -3.5911 C   0  0  0  0  0  0  0  0  0  0  0  0
   -3.0732   -0.2933   -2.5374 C   0  0  0  0  0  0  0  0  0  0  0  0
   -3.5957    1.1065   -2.7642 C   0  0  0  0  0  0  0  0  0  0  0  0
   -4.9484    0.6996   -3.3892 C   0  0  0  0  0  0  0  0  0  0  0  0
   -2.9281    1.6712   -3.9645 C   0  0  0  0  0  0  0  0  0  0  0  0
   -4.0857    5.6954    6.9272 H   0  0  0  0  0  0  0  0  0  0  0  0
   -1.4009    5.0614    8.4143 H   0  0  0  0  0  0  0  0  0  0  0  0
   -0.8419    3.4160    8.6221 H   0  0  0  0  0  0  0  0  0  0  0  0
   -3.4812    2.8611    8.0544 H   0  0  0  0  0  0  0  0  0  0  0  0
   -3.5168    4.4988    8.8379 H   0  0  0  0  0  0  0  0  0  0  0  0
   -2.7515    3.0639    9.6627 H   0  0  0  0  0  0  0  0  0  0  0  0
    6.3650   -1.4329   -3.1242 H   0  0  0  0  0  0  0  0  0  0  0  0
    6.3334   -3.1213   -2.4787 H   0  0  0  0  0  0  0  0  0  0  0  0
    5.5316   -2.1906   -5.2645 H   0  0  0  0  0  0  0  0  0  0  0  0
    5.3957   -3.8833   -4.7634 H   0  0  0  0  0  0  0  0  0  0  0  0
    7.0112   -3.0389   -4.9048 H   0  0  0  0  0  0  0  0  0  0  0  0
   -2.2306    1.2740    2.6206 H   0  0  0  0  0  0  0  0  0  0  0  0
   -1.7547   -0.0400    1.8105 H   0  0  0  0  0  0  0  0  0  0  0  0
   -2.1523    2.7960    1.1325 H   0  0  0  0  0  0  0  0  0  0  0  0
   -1.7625    1.6387   -0.0761 H   0  0  0  0  0  0  0  0  0  0  0  0
   -0.4439    2.5583    0.8243 H   0  0  0  0  0  0  0  0  0  0  0  0
   -0.4880   -0.1861    0.1766 H   0  0  0  0  0  0  0  0  0  0  0  0
    0.2801   -1.3574   -0.8265 H   0  0  0  0  0  0  0  0  0  0  0  0
    0.4832   -2.9930    0.5946 H   0  0  0  0  0  0  0  0  0  0  0  0
   -0.2401   -2.2098    2.0419 H   0  0  0  0  0  0  0  0  0  0  0  0
   -1.2444   -2.5804    0.5425 H   0  0  0  0  0  0  0  0  0  0  0  0
    3.4094   -3.1168   -5.7726 H   0  0  0  0  0  0  0  0  0  0  0  0
    0.0771    1.3481   -3.0979 H   0  0  0  0  0  0  0  0  0  0  0  0
   -1.6772   -0.8975   -7.0806 H   0  0  0  0  0  0  0  0  0  0  0  0
   -3.9251    1.4751   -5.9355 H   0  0  0  0  0  0  0  0  0  0  0  0
   -4.9787   -0.6934   -5.1247 H   0  0  0  0  0  0  0  0  0  0  0  0
   -3.2162   -2.0086   -3.8018 H   0  0  0  0  0  0  0  0  0  0  0  0
   -2.5409   -0.5422   -1.6359 H   0  0  0  0  0  0  0  0  0  0  0  0
   -3.7143    1.7343   -1.9113 H   0  0  0  0  0  0  0  0  0  0  0  0
   -5.5146    1.5437   -3.7491 H   0  0  0  0  0  0  0  0  0  0  0  0
   -5.5035    0.0500   -2.6722 H   0  0  0  0  0  0  0  0  0  0  0  0
   -2.8839    2.7483   -4.0553 H   0  0  0  0  0  0  0  0  0  0  0  0
  1  2  2  3
  2  3  1  0
  3  4  3  0
  2  5  1  0
  5  6  3  0
  1  7  1  0
  7  8  2  0
  8  9  1  0
  9 10  1  0
  8 11  1  0
 11 12  1  0
 12 13  1  0
 13 14  1  0
 14 15  1  0
 15 16  1  0
 16 17  2  0
 17 18  1  0
 18 19  1  0
 16 20  1  0
 20 21  1  0
 21 22  1  0
 22 23  1  0
 23 24  1  0
 24 25  1  0
 25 26  1  0
 24 27  2  0
 27 28  1  0
 28 29  1  0
 29 30  1  0
 30 31  1  0
 31 32  1  0
 32 33  1  0
 33 34  1  0
 34 35  1  0
 35 36  1  0
 36 37  1  0
 34 38  1  0
 38 39  1  0
 31 40  1  0
 40 41  1  0
 27 42  1  0
 42 43  2  3
 43 44  1  0
 44 45  2  0
 44 46  1  0
 46 47  2  0
 47 48  1  0
 48 49  2  0
 49 50  1  0
 50 51  2  0
 51 52  1  0
 52 53  2  3
 53 54  1  0
 54 55  3  0
 53 56  1  0
 56 57  3  0
 49 58  1  0
 58 59  1  0
 59 60  1  0
 60 61  2  0
 61 62  1  0
 62 63  1  0
 62 64  1  0
 37  7  1  0
 52 43  1  0
 64 58  1  0
 36 11  2  0
 51 46  1  0
 63 59  1  0
 35 13  2  0
 64 48  1  0
 33 14  2  0
 19 15  2  0
 32 20  2  0
 30 21  2  0
 29 23  2  0
  1 65  1  0
  9 66  1  0
  9 67  1  0
 10 68  1  0
 10 69  1  0
 10 70  1  0
 25 71  1  0
 25 72  1  0
 26 73  1  0
 26 74  1  0
 26 75  1  0
 38 76  1  0
 38 77  1  0
 39 78  1  0
 39 79  1  0
 39 80  1  0
 40 81  1  0
 40 82  1  0
 41 83  1  0
 41 84  1  0
 41 85  1  0
 42 86  1  0
 47 87  1  0
 50 88  1  0
 58 89  1  0
 59 90  1  0
 60 91  1  0
 61 92  1  0
 62 93  1  0
 63 94  1  0
 63 95  1  0
 64 96  1  0
M  END

