
     RDKit          3D

101115  0  0  0  0  0  0  0  0999 V2000
   -5.4092    3.0692   -5.9440 C   0  0  0  0  0  0  0  0  0  0  0  0
   -6.6129    2.6210   -5.9334 C   0  0  0  0  0  0  0  0  0  0  0  0
   -8.1030    3.6965   -5.8053 S   0  0  0  0  0  0  0  0  0  0  0  0
   -9.2288    2.1863   -4.8981 C   0  0  0  0  0  0  0  0  0  0  0  0
  -10.3692    2.5799   -4.5693 C   0  0  0  0  0  0  0  0  0  0  0  0
  -11.0385    3.9076   -4.6996 C   0  0  0  0  0  0  0  0  0  0  0  0
  -11.4828    4.8162   -4.7755 N   0  0  0  0  0  0  0  0  0  0  0  0
  -11.2541    1.5976   -4.0101 C   0  0  0  0  0  0  0  0  0  0  0  0
  -12.0102    0.7614   -3.5126 N   0  0  0  0  0  0  0  0  0  0  0  0
   -8.1735    1.9226   -5.2111 N   0  0  0  0  0  0  0  0  0  0  0  0
   -8.6145    0.3771   -4.2085 C   0  0  0  0  0  0  0  0  0  0  0  0
   -8.4213    0.6204   -2.9854 C   0  0  0  0  0  0  0  0  0  0  0  0
   -8.8741   -0.5124   -2.1064 C   0  0  0  0  0  0  0  0  0  0  0  0
   -9.3929   -1.5521   -2.8461 C   0  0  0  0  0  0  0  0  0  0  0  0
   -9.5534   -1.7023   -4.1624 C   0  0  0  0  0  0  0  0  0  0  0  0
   -9.0636   -0.5059   -4.9834 C   0  0  0  0  0  0  0  0  0  0  0  0
   -7.0751    1.2773   -5.3899 C   0  0  0  0  0  0  0  0  0  0  0  0
   -6.5533    0.3022   -5.3458 O   0  0  0  0  0  0  0  0  0  0  0  0
   -4.1352    2.5920   -5.9977 C   0  0  0  0  0  0  0  0  0  0  0  0
   -2.8604    2.9874   -6.5245 C   0  0  0  0  0  0  0  0  0  0  0  0
   -1.8954    2.3490   -5.9518 C   0  0  0  0  0  0  0  0  0  0  0  0
   -0.0609    2.9585   -6.3076 S   0  0  0  0  0  0  0  0  0  0  0  0
    0.6958    1.8280   -5.2177 C   0  0  0  0  0  0  0  0  0  0  0  0
    1.8482    1.4336   -4.5876 C   0  0  0  0  0  0  0  0  0  0  0  0
    3.2003    1.8671   -4.8171 C   0  0  0  0  0  0  0  0  0  0  0  0
    4.0581    1.2303   -4.0281 C   0  0  0  0  0  0  0  0  0  0  0  0
    5.3925    1.6955   -4.3412 N   0  0  0  0  0  0  0  0  0  0  0  0
    5.2007    2.8067   -5.5494 S   0  0  0  0  0  0  0  0  0  0  0  0
    3.4865    2.7212   -5.6829 N   0  0  0  0  0  0  0  0  0  0  0  0
    3.7485    0.2999   -3.0991 C   0  0  0  0  0  0  0  0  0  0  0  0
    4.5300   -0.3370   -2.1528 C   0  0  0  0  0  0  0  0  0  0  0  0
    3.6791   -1.1490   -1.3197 C   0  0  0  0  0  0  0  0  0  0  0  0
    2.4367   -0.9430   -1.8240 N   0  0  0  0  0  0  0  0  0  0  0  0
    1.3284   -1.6188   -1.1543 C   0  0  0  0  0  0  0  0  0  0  0  0
    0.8212   -0.8741    0.0653 C   0  0  0  0  0  0  0  0  0  0  0  0
    2.4060   -0.1369   -2.8391 C   0  0  0  0  0  0  0  0  0  0  0  0
    1.4427    0.4631   -3.6496 C   0  0  0  0  0  0  0  0  0  0  0  0
    0.1618    0.2849   -3.7426 N   0  0  0  0  0  0  0  0  0  0  0  0
   -0.4343    1.0965   -4.6884 C   0  0  0  0  0  0  0  0  0  0  0  0
   -1.3988    1.6359   -5.2711 C   0  0  0  0  0  0  0  0  0  0  0  0
   -3.5614    1.2368   -4.6957 Se  0  0  0  0  0  2  0  0  0  0  0  0
   -0.7111   -0.7403   -3.1537 C   0  0  0  0  0  0  0  0  0  0  0  0
   -1.5612   -0.3897   -2.0257 C   0  0  0  0  0  0  0  0  0  0  0  0
    4.3411   -1.8067   -0.3790 C   0  0  0  0  0  0  0  0  0  0  0  0
    5.7797   -1.6667   -0.2987 C   0  0  0  0  0  0  0  0  0  0  0  0
    6.0708   -0.6140   -1.5515 S   0  0  0  0  0  0  0  0  0  0  0  0
    5.9262   -2.4394    0.7627 C   0  0  0  0  0  0  0  0  0  0  0  0
    6.0551   -3.0904    1.6581 C   0  0  0  0  0  0  0  0  0  0  0  0
    3.9292   -3.0196    1.1597 Se  0  0  0  0  0  2  0  0  0  0  0  0
    6.2312   -3.9388    2.8281 C   0  0  0  0  0  0  0  0  0  0  0  0
    6.4404   -3.1542    3.9544 C   0  0  0  0  0  0  0  0  0  0  0  0
    6.5453   -1.7367    3.9545 C   0  0  0  0  0  0  0  0  0  0  0  0
    6.8443   -0.9673    2.9565 O   0  0  0  0  0  0  0  0  0  0  0  0
    6.2578   -1.1784    5.2533 C   0  0  0  0  0  0  0  0  0  0  0  0
    6.1886    0.0850    5.8025 C   0  0  0  0  0  0  0  0  0  0  0  0
    5.8816    0.3962    7.0595 C   0  0  0  0  0  0  0  0  0  0  0  0
    5.6056   -0.6593    7.9123 C   0  0  0  0  0  0  0  0  0  0  0  0
    5.6645   -1.9817    7.4161 C   0  0  0  0  0  0  0  0  0  0  0  0
    5.9790   -2.2235    6.1029 C   0  0  0  0  0  0  0  0  0  0  0  0
    6.0846   -3.5576    5.3214 C   0  0  0  0  0  0  0  0  0  0  0  0
    6.1429   -4.6288    5.9575 C   0  0  0  0  0  0  0  0  0  0  0  0
    6.5475   -6.0192    5.9200 C   0  0  0  0  0  0  0  0  0  0  0  0
    6.8132   -6.9628    5.9096 N   0  0  0  0  0  0  0  0  0  0  0  0
    5.0710   -4.6404    7.1037 C   0  0  0  0  0  0  0  0  0  0  0  0
    4.1956   -4.6559    8.0709 N   0  0  0  0  0  0  0  0  0  0  0  0
    5.2423    0.2752    9.0125 C   0  0  0  0  0  0  0  0  0  0  0  0
    3.7591    0.5117    9.1357 C   0  0  0  0  0  0  0  0  0  0  0  0
    3.5241    1.7796    9.8436 C   0  0  0  0  0  0  0  0  0  0  0  0
    3.8772    2.8105    9.0567 C   0  0  0  0  0  0  0  0  0  0  0  0
    4.4029    2.2150    7.8345 C   0  0  0  0  0  0  0  0  0  0  0  0
    3.4670    0.9962    7.6994 C   0  0  0  0  0  0  0  0  0  0  0  0
    5.6668    1.4305    8.1343 C   0  0  0  0  0  0  0  0  0  0  0  0
   -5.4433    4.2842   -5.9253 H   0  0  0  0  0  0  0  0  0  0  0  0
   -8.0215    1.4242   -2.4150 H   0  0  0  0  0  0  0  0  0  0  0  0
   -8.7643   -0.4508   -1.0863 H   0  0  0  0  0  0  0  0  0  0  0  0
   -9.7349   -2.4042   -2.1722 H   0  0  0  0  0  0  0  0  0  0  0  0
   -9.9564   -2.4926   -4.6838 H   0  0  0  0  0  0  0  0  0  0  0  0
   -9.2058   -0.6526   -5.9983 H   0  0  0  0  0  0  0  0  0  0  0  0
   -2.9651    3.7520   -7.3146 H   0  0  0  0  0  0  0  0  0  0  0  0
    1.8411   -2.5453   -0.6205 H   0  0  0  0  0  0  0  0  0  0  0  0
    0.5695   -2.1084   -1.6876 H   0  0  0  0  0  0  0  0  0  0  0  0
    0.4712    0.1446   -0.1357 H   0  0  0  0  0  0  0  0  0  0  0  0
    0.0164   -1.4871    0.5627 H   0  0  0  0  0  0  0  0  0  0  0  0
    1.6272   -0.8172    0.8718 H   0  0  0  0  0  0  0  0  0  0  0  0
   -0.2782   -1.7601   -3.2501 H   0  0  0  0  0  0  0  0  0  0  0  0
   -1.5161   -0.9567   -4.0238 H   0  0  0  0  0  0  0  0  0  0  0  0
   -1.6024   -1.2265   -1.2390 H   0  0  0  0  0  0  0  0  0  0  0  0
   -2.6723   -0.3305   -2.2873 H   0  0  0  0  0  0  0  0  0  0  0  0
   -1.3313    0.5321   -1.4514 H   0  0  0  0  0  0  0  0  0  0  0  0
    7.4116   -2.4164    0.5790 H   0  0  0  0  0  0  0  0  0  0  0  0
    6.1920   -4.9492    2.8662 H   0  0  0  0  0  0  0  0  0  0  0  0
    6.4106    0.9196    5.1102 H   0  0  0  0  0  0  0  0  0  0  0  0
    5.4836   -2.7071    8.1520 H   0  0  0  0  0  0  0  0  0  0  0  0
    5.8049    0.0585    9.9186 H   0  0  0  0  0  0  0  0  0  0  0  0
    3.1666   -0.3229    9.4518 H   0  0  0  0  0  0  0  0  0  0  0  0
    3.1314    1.8846   10.8555 H   0  0  0  0  0  0  0  0  0  0  0  0
    3.8006    3.8758    9.2792 H   0  0  0  0  0  0  0  0  0  0  0  0
    4.4498    2.8094    6.9545 H   0  0  0  0  0  0  0  0  0  0  0  0
    2.4394    1.2611    7.5208 H   0  0  0  0  0  0  0  0  0  0  0  0
    3.8886    0.2646    6.9842 H   0  0  0  0  0  0  0  0  0  0  0  0
    6.5726    1.9716    8.3789 H   0  0  0  0  0  0  0  0  0  0  0  0
  1  2  2  3
  2  3  1  0
  3  4  1  0
  4  5  2  3
  5  6  1  0
  6  7  3  0
  5  8  1  0
  8  9  3  0
  4 10  1  0
 10 11  1  0
 11 12  2  0
 12 13  1  0
 13 14  2  0
 14 15  1  0
 15 16  2  0
 10 17  1  0
 17 18  2  0
  1 19  1  0
 19 20  2  0
 20 21  1  0
 21 22  1  0
 22 23  1  0
 23 24  1  0
 24 25  1  0
 25 26  1  0
 26 27  2  0
 27 28  1  0
 28 29  1  0
 26 30  1  0
 30 31  1  0
 31 32  2  0
 32 33  1  0
 33 34  1  0
 34 35  1  0
 33 36  1  0
 36 37  1  0
 37 38  1  0
 38 39  1  0
 39 40  1  0
 40 41  1  0
 38 42  1  0
 42 43  1  0
 32 44  1  0
 44 45  2  0
 45 46  1  0
 45 47  1  0
 47 48  2  0
 48 49  1  0
 48 50  1  0
 50 51  2  3
 51 52  1  0
 52 53  2  0
 52 54  1  0
 54 55  2  0
 55 56  1  0
 56 57  2  0
 57 58  1  0
 58 59  2  0
 59 60  1  0
 60 61  2  3
 61 62  1  0
 62 63  3  0
 61 64  1  0
 64 65  3  0
 57 66  1  0
 66 67  1  0
 67 68  1  0
 68 69  2  0
 69 70  1  0
 70 71  1  0
 70 72  1  0
 17  2  1  0
 41 19  1  0
 49 44  1  0
 60 51  1  0
 72 66  1  0
 16 11  1  0
 40 21  2  0
 59 54  1  0
 71 67  1  0
 39 23  2  0
 72 56  1  0
 37 24  2  0
 29 25  2  0
 36 30  2  0
 46 31  1  0
  1 73  1  0
 12 74  1  0
 13 75  1  0
 14 76  1  0
 15 77  1  0
 16 78  1  0
 20 79  1  0
 34 80  1  0
 34 81  1  0
 35 82  1  0
 35 83  1  0
 35 84  1  0
 42 85  1  0
 42 86  1  0
 43 87  1  0
 43 88  1  0
 43 89  1  0
 47 90  1  0
 50 91  1  0
 55 92  1  0
 58 93  1  0
 66 94  1  0
 67 95  1  0
 68 96  1  0
 69 97  1  0
 70 98  1  0
 71 99  1  0
 71100  1  0
 72101  1  0
M  END

