
     RDKit          3D

 97108  0  0  0  0  0  0  0  0999 V2000
    6.5332   -2.1638   -0.3130 C   0  0  0  0  0  0  0  0  0  0  0  0
    7.0483   -2.0964   -1.5482 C   0  0  0  0  0  0  0  0  0  0  0  0
    6.2107   -2.3023   -2.9896 S   0  0  0  0  0  0  0  0  0  0  0  0
    7.5515   -2.0571   -3.9859 C   0  0  0  0  0  0  0  0  0  0  0  0
    7.5102   -2.1978   -5.3360 C   0  0  0  0  0  0  0  0  0  0  0  0
    8.6757   -2.1323   -6.1811 C   0  0  0  0  0  0  0  0  0  0  0  0
    9.6032   -2.0879   -6.8742 N   0  0  0  0  0  0  0  0  0  0  0  0
    6.2692   -2.5107   -6.0041 C   0  0  0  0  0  0  0  0  0  0  0  0
    5.2712   -2.7600   -6.5350 N   0  0  0  0  0  0  0  0  0  0  0  0
    8.6512   -1.7812   -3.2166 N   0  0  0  0  0  0  0  0  0  0  0  0
    9.9475   -1.3887   -3.6982 C   0  0  0  0  0  0  0  0  0  0  0  0
   10.1434   -0.1073   -4.2408 C   0  0  0  0  0  0  0  0  0  0  0  0
   11.4051    0.2686   -4.7107 C   0  0  0  0  0  0  0  0  0  0  0  0
   12.4781   -0.6238   -4.6261 C   0  0  0  0  0  0  0  0  0  0  0  0
   12.2901   -1.8918   -4.0672 C   0  0  0  0  0  0  0  0  0  0  0  0
   11.0289   -2.2735   -3.5969 C   0  0  0  0  0  0  0  0  0  0  0  0
    8.3697   -1.8026   -1.8777 C   0  0  0  0  0  0  0  0  0  0  0  0
    9.2505   -1.5599   -1.0059 O   0  0  0  0  0  0  0  0  0  0  0  0
    5.1062   -2.4292   -0.0670 C   0  0  0  0  0  0  0  0  0  0  0  0
    4.3867   -3.5939   -0.4203 C   0  0  0  0  0  0  0  0  0  0  0  0
    4.9979   -4.8713   -0.9408 C   0  0  0  0  0  0  0  0  0  0  0  0
    4.3913   -5.3066   -2.2735 C   0  0  0  0  0  0  0  0  0  0  0  0
    3.0339   -3.4426   -0.1005 C   0  0  0  0  0  0  0  0  0  0  0  0
    1.6472   -4.4287   -0.2874 S   0  0  0  0  0  0  0  0  0  0  0  0
    0.6588   -3.2049    0.3540 C   0  0  0  0  0  0  0  0  0  0  0  0
   -0.6383   -2.9937    0.7314 C   0  0  0  0  0  0  0  0  0  0  0  0
   -1.7744   -3.8151    0.7230 C   0  0  0  0  0  0  0  0  0  0  0  0
   -2.9880   -3.3130    1.2878 C   0  0  0  0  0  0  0  0  0  0  0  0
   -4.0711   -4.1294    1.2482 N   0  0  0  0  0  0  0  0  0  0  0  0
   -3.3972   -5.4483    0.5043 S   0  0  0  0  0  0  0  0  0  0  0  0
   -1.8083   -5.0696    0.2110 N   0  0  0  0  0  0  0  0  0  0  0  0
   -2.9987   -2.0106    1.8092 C   0  0  0  0  0  0  0  0  0  0  0  0
   -4.0227   -1.2047    2.2232 C   0  0  0  0  0  0  0  0  0  0  0  0
   -5.7244   -1.2217    2.2343 S   0  0  0  0  0  0  0  0  0  0  0  0
   -5.7612    0.4691    2.4812 C   0  0  0  0  0  0  0  0  0  0  0  0
   -6.7885    1.4069    2.6136 C   0  0  0  0  0  0  0  0  0  0  0  0
   -8.2465    1.0386    2.6633 C   0  0  0  0  0  0  0  0  0  0  0  0
   -8.6618    0.6574    4.0789 C   0  0  0  0  0  0  0  0  0  0  0  0
   -6.2669    2.7105    2.7874 C   0  0  0  0  0  0  0  0  0  0  0  0
   -4.5569    2.6420    2.7752 S   0  0  0  0  0  0  0  0  0  0  0  0
   -4.4997    0.9967    2.5136 C   0  0  0  0  0  0  0  0  0  0  0  0
   -3.5110    0.0455    2.3592 C   0  0  0  0  0  0  0  0  0  0  0  0
   -2.2080    0.1324    1.9944 N   0  0  0  0  0  0  0  0  0  0  0  0
   -1.8711   -1.1745    1.7557 C   0  0  0  0  0  0  0  0  0  0  0  0
   -0.6498   -1.7065    1.2911 C   0  0  0  0  0  0  0  0  0  0  0  0
    0.6120   -1.1848    1.3767 N   0  0  0  0  0  0  0  0  0  0  0  0
    1.3610   -2.1053    0.7237 C   0  0  0  0  0  0  0  0  0  0  0  0
    2.7148   -2.2419    0.4830 C   0  0  0  0  0  0  0  0  0  0  0  0
    4.0699   -1.2772    0.6396 S   0  0  0  0  0  0  0  0  0  0  0  0
    1.1297   -0.2851    2.4192 C   0  0  0  0  0  0  0  0  0  0  0  0
    1.6969   -1.0791    3.5956 C   0  0  0  0  0  0  0  0  0  0  0  0
   -1.6439    1.3095    1.3063 C   0  0  0  0  0  0  0  0  0  0  0  0
   -2.3678    1.5725   -0.0181 C   0  0  0  0  0  0  0  0  0  0  0  0
   -7.0655    3.8973    3.1617 C   0  0  0  0  0  0  0  0  0  0  0  0
   -6.6245    5.1696    3.1500 C   0  0  0  0  0  0  0  0  0  0  0  0
   -7.0878    6.1579    4.1432 C   0  0  0  0  0  0  0  0  0  0  0  0
   -8.1288    6.0797    4.8487 O   0  0  0  0  0  0  0  0  0  0  0  0
   -6.0647    7.1784    4.2479 C   0  0  0  0  0  0  0  0  0  0  0  0
   -5.8480    8.2800    5.0689 C   0  0  0  0  0  0  0  0  0  0  0  0
   -4.6309    8.8927    4.7561 C   0  0  0  0  0  0  0  0  0  0  0  0
   -3.9794   10.3018    5.5631 Cl  0  0  0  0  0  0  0  0  0  0  0  0
   -3.8583    8.0667    3.4831 S   0  0  0  0  0  0  0  0  0  0  0  0
   -5.0793    6.9169    3.3549 C   0  0  0  0  0  0  0  0  0  0  0  0
   -5.3831    5.7366    2.5307 C   0  0  0  0  0  0  0  0  0  0  0  0
   -4.8785    5.4907    1.3020 C   0  0  0  0  0  0  0  0  0  0  0  0
   -5.5330    4.5985    0.3723 C   0  0  0  0  0  0  0  0  0  0  0  0
   -6.0537    3.8866   -0.3807 N   0  0  0  0  0  0  0  0  0  0  0  0
   -3.6968    6.1679    0.8341 C   0  0  0  0  0  0  0  0  0  0  0  0
   -2.7408    6.7053    0.4572 N   0  0  0  0  0  0  0  0  0  0  0  0
    7.1512   -1.9153    0.5387 H   0  0  0  0  0  0  0  0  0  0  0  0
    9.3148    0.5850   -4.3150 H   0  0  0  0  0  0  0  0  0  0  0  0
   11.5529    1.2495   -5.1383 H   0  0  0  0  0  0  0  0  0  0  0  0
   13.4570   -0.3325   -4.9884 H   0  0  0  0  0  0  0  0  0  0  0  0
   13.1265   -2.5776   -3.9975 H   0  0  0  0  0  0  0  0  0  0  0  0
   10.8845   -3.2551   -3.1661 H   0  0  0  0  0  0  0  0  0  0  0  0
    6.0921   -4.7487   -1.0684 H   0  0  0  0  0  0  0  0  0  0  0  0
    4.8489   -5.6772   -0.1933 H   0  0  0  0  0  0  0  0  0  0  0  0
    5.0347   -6.0843   -2.7351 H   0  0  0  0  0  0  0  0  0  0  0  0
    4.3115   -4.4477   -2.9764 H   0  0  0  0  0  0  0  0  0  0  0  0
    3.3796   -5.7416   -2.1240 H   0  0  0  0  0  0  0  0  0  0  0  0
   -8.8637    1.8890    2.3088 H   0  0  0  0  0  0  0  0  0  0  0  0
   -8.4408    0.1801    1.9845 H   0  0  0  0  0  0  0  0  0  0  0  0
   -8.1295   -0.2627    4.4000 H   0  0  0  0  0  0  0  0  0  0  0  0
   -9.7512    0.4563    4.1038 H   0  0  0  0  0  0  0  0  0  0  0  0
   -8.4296    1.4754    4.7899 H   0  0  0  0  0  0  0  0  0  0  0  0
    0.3302    0.3499    2.8354 H   0  0  0  0  0  0  0  0  0  0  0  0
    1.9194    0.3704    1.9949 H   0  0  0  0  0  0  0  0  0  0  0  0
    0.9167   -1.7460    4.0232 H   0  0  0  0  0  0  0  0  0  0  0  0
    2.5644   -1.6938    3.2815 H   0  0  0  0  0  0  0  0  0  0  0  0
    2.0384   -0.3774    4.3868 H   0  0  0  0  0  0  0  0  0  0  0  0
   -1.7258    2.2015    1.9625 H   0  0  0  0  0  0  0  0  0  0  0  0
   -0.5791    1.1638    1.0522 H   0  0  0  0  0  0  0  0  0  0  0  0
   -3.4083    1.8944    0.1631 H   0  0  0  0  0  0  0  0  0  0  0  0
   -2.3747    0.6562   -0.6423 H   0  0  0  0  0  0  0  0  0  0  0  0
   -1.8512    2.3744   -0.5810 H   0  0  0  0  0  0  0  0  0  0  0  0
   -7.9993    3.6979    3.6738 H   0  0  0  0  0  0  0  0  0  0  0  0
   -6.5206    8.6004    5.8544 H   0  0  0  0  0  0  0  0  0  0  0  0
  1  2  2  3
  2  3  1  0
  3  4  1  0
  4  5  2  3
  5  6  1  0
  6  7  3  0
  5  8  1  0
  8  9  3  0
  4 10  1  0
 10 11  1  0
 11 12  2  0
 12 13  1  0
 13 14  2  0
 14 15  1  0
 15 16  2  0
 10 17  1  0
 17 18  2  0
  1 19  1  0
 19 20  2  0
 20 21  1  0
 21 22  1  0
 20 23  1  0
 23 24  1  0
 24 25  1  0
 25 26  1  0
 26 27  1  0
 27 28  1  0
 28 29  2  0
 29 30  1  0
 30 31  1  0
 28 32  1  0
 32 33  1  0
 33 34  1  0
 34 35  1  0
 35 36  1  0
 36 37  1  0
 37 38  1  0
 36 39  2  0
 39 40  1  0
 40 41  1  0
 41 42  1  0
 42 43  1  0
 43 44  1  0
 44 45  1  0
 45 46  1  0
 46 47  1  0
 47 48  1  0
 48 49  1  0
 46 50  1  0
 50 51  1  0
 43 52  1  0
 52 53  1  0
 39 54  1  0
 54 55  2  3
 55 56  1  0
 56 57  2  0
 56 58  1  0
 58 59  1  0
 59 60  2  0
 60 61  1  0
 60 62  1  0
 62 63  1  0
 63 64  1  0
 64 65  2  3
 65 66  1  0
 66 67  3  0
 65 68  1  0
 68 69  3  0
 17  2  1  0
 49 19  1  0
 64 55  1  0
 16 11  1  0
 48 23  2  0
 63 58  2  0
 47 25  2  0
 45 26  2  0
 31 27  2  0
 44 32  2  0
 42 33  2  0
 41 35  2  0
  1 70  1  0
 12 71  1  0
 13 72  1  0
 14 73  1  0
 15 74  1  0
 16 75  1  0
 21 76  1  0
 21 77  1  0
 22 78  1  0
 22 79  1  0
 22 80  1  0
 37 81  1  0
 37 82  1  0
 38 83  1  0
 38 84  1  0
 38 85  1  0
 50 86  1  0
 50 87  1  0
 51 88  1  0
 51 89  1  0
 51 90  1  0
 52 91  1  0
 52 92  1  0
 53 93  1  0
 53 94  1  0
 53 95  1  0
 54 96  1  0
 59 97  1  0
M  END

