
     RDKit          3D

103114  0  0  0  0  0  0  0  0999 V2000
    0.5059   -7.8840   -0.8075 C   0  0  0  0  0  0  0  0  0  0  0  0
    1.6995   -7.2798   -0.8863 C   0  0  0  0  0  0  0  0  0  0  0  0
    2.1756   -5.9063   -0.0377 S   0  0  0  0  0  0  0  0  0  0  0  0
    3.7052   -5.8048   -0.7474 C   0  0  0  0  0  0  0  0  0  0  0  0
    4.6355   -4.8886   -0.3828 C   0  0  0  0  0  0  0  0  0  0  0  0
    5.9996   -4.9247   -0.8410 C   0  0  0  0  0  0  0  0  0  0  0  0
    7.0974   -4.9593   -1.2047 N   0  0  0  0  0  0  0  0  0  0  0  0
    4.3336   -3.8925    0.6176 C   0  0  0  0  0  0  0  0  0  0  0  0
    4.1016   -3.1007    1.4303 N   0  0  0  0  0  0  0  0  0  0  0  0
    3.8457   -6.8034   -1.6793 N   0  0  0  0  0  0  0  0  0  0  0  0
    4.9045   -6.9128   -2.6512 C   0  0  0  0  0  0  0  0  0  0  0  0
    5.6906   -8.0702   -2.7163 C   0  0  0  0  0  0  0  0  0  0  0  0
    6.6644   -8.2057   -3.7098 C   0  0  0  0  0  0  0  0  0  0  0  0
    6.8608   -7.1836   -4.6431 C   0  0  0  0  0  0  0  0  0  0  0  0
    6.0860   -6.0252   -4.5871 C   0  0  0  0  0  0  0  0  0  0  0  0
    5.0967   -5.8940   -3.6071 C   0  0  0  0  0  0  0  0  0  0  0  0
    2.7484   -7.6260   -1.7318 C   0  0  0  0  0  0  0  0  0  0  0  0
    2.6761   -8.5927   -2.5402 O   0  0  0  0  0  0  0  0  0  0  0  0
   -0.6144   -7.2270   -0.1252 C   0  0  0  0  0  0  0  0  0  0  0  0
   -0.9327   -7.3407    1.2376 C   0  0  0  0  0  0  0  0  0  0  0  0
   -0.3825   -8.3968    2.1632 C   0  0  0  0  0  0  0  0  0  0  0  0
   -1.3024   -9.6120    2.1859 C   0  0  0  0  0  0  0  0  0  0  0  0
   -1.7445   -6.2766    1.6540 C   0  0  0  0  0  0  0  0  0  0  0  0
   -2.0294   -5.6276    3.1936 S   0  0  0  0  0  0  0  0  0  0  0  0
   -2.5790   -4.1568    2.5445 C   0  0  0  0  0  0  0  0  0  0  0  0
   -2.4446   -2.8628    2.9653 C   0  0  0  0  0  0  0  0  0  0  0  0
   -2.0517   -2.3934    4.2282 C   0  0  0  0  0  0  0  0  0  0  0  0
   -1.5746   -1.0589    4.3453 C   0  0  0  0  0  0  0  0  0  0  0  0
   -1.1763   -0.6508    5.5774 N   0  0  0  0  0  0  0  0  0  0  0  0
   -1.4494   -2.0434    6.4356 S   0  0  0  0  0  0  0  0  0  0  0  0
   -2.0451   -3.1491    5.3561 N   0  0  0  0  0  0  0  0  0  0  0  0
   -1.5379   -0.2575    3.2044 C   0  0  0  0  0  0  0  0  0  0  0  0
   -1.1613    1.0425    3.0440 C   0  0  0  0  0  0  0  0  0  0  0  0
   -0.6045    2.3486    3.9775 S   0  0  0  0  0  0  0  0  0  0  0  0
   -0.7527    3.3963    2.6352 C   0  0  0  0  0  0  0  0  0  0  0  0
   -0.5899    4.7740    2.4747 C   0  0  0  0  0  0  0  0  0  0  0  0
   -0.1733    5.6996    3.5868 C   0  0  0  0  0  0  0  0  0  0  0  0
   -1.3524    6.0226    4.4981 C   0  0  0  0  0  0  0  0  0  0  0  0
   -0.9762    5.1845    1.1799 C   0  0  0  0  0  0  0  0  0  0  0  0
   -1.5315    3.8289    0.3018 S   0  0  0  0  0  0  0  0  0  0  0  0
   -1.2442    2.7371    1.5360 C   0  0  0  0  0  0  0  0  0  0  0  0
   -1.4685    1.3884    1.7749 C   0  0  0  0  0  0  0  0  0  0  0  0
   -2.0464    0.3826    1.0742 N   0  0  0  0  0  0  0  0  0  0  0  0
   -2.0064   -0.6866    1.9491 C   0  0  0  0  0  0  0  0  0  0  0  0
   -2.3811   -2.0626    1.8051 C   0  0  0  0  0  0  0  0  0  0  0  0
   -2.3860   -2.8700    0.6869 N   0  0  0  0  0  0  0  0  0  0  0  0
   -2.5010   -4.1331    1.1836 C   0  0  0  0  0  0  0  0  0  0  0  0
   -2.0444   -5.3556    0.6765 C   0  0  0  0  0  0  0  0  0  0  0  0
   -1.3047   -5.8147   -0.7521 S   0  0  0  0  0  0  0  0  0  0  0  0
   -1.9552   -2.5612   -0.6811 C   0  0  0  0  0  0  0  0  0  0  0  0
   -0.4788   -2.1802   -0.7314 C   0  0  0  0  0  0  0  0  0  0  0  0
   -2.8229    0.5878   -0.1589 C   0  0  0  0  0  0  0  0  0  0  0  0
   -4.2580    0.0647   -0.0391 C   0  0  0  0  0  0  0  0  0  0  0  0
   -1.2463    6.5811    0.7905 C   0  0  0  0  0  0  0  0  0  0  0  0
   -1.1146    7.0733   -0.4574 C   0  0  0  0  0  0  0  0  0  0  0  0
   -0.5506    6.3688   -1.6152 C   0  0  0  0  0  0  0  0  0  0  0  0
    0.2463    5.3935   -1.5838 O   0  0  0  0  0  0  0  0  0  0  0  0
   -0.9979    7.0388   -2.8192 C   0  0  0  0  0  0  0  0  0  0  0  0
   -0.8104    6.6493   -4.1450 C   0  0  0  0  0  0  0  0  0  0  0  0
   -1.4314    7.3983   -5.1641 C   0  0  0  0  0  0  0  0  0  0  0  0
   -1.2648    6.9842   -6.5966 C   0  0  0  0  0  0  0  0  0  0  0  0
   -2.2690    8.4828   -4.8224 C   0  0  0  0  0  0  0  0  0  0  0  0
   -2.9522    9.1589   -5.7866 F   0  0  0  0  0  0  0  0  0  0  0  0
   -2.4391    8.8568   -3.4797 C   0  0  0  0  0  0  0  0  0  0  0  0
   -1.7565    8.1450   -2.4788 C   0  0  0  0  0  0  0  0  0  0  0  0
   -1.7547    8.3150   -0.9960 C   0  0  0  0  0  0  0  0  0  0  0  0
   -2.0855    9.4357   -0.3053 C   0  0  0  0  0  0  0  0  0  0  0  0
   -1.8151    9.5915    1.1020 C   0  0  0  0  0  0  0  0  0  0  0  0
   -1.6056    9.7251    2.2334 N   0  0  0  0  0  0  0  0  0  0  0  0
   -2.6415   10.5992   -0.9413 C   0  0  0  0  0  0  0  0  0  0  0  0
   -3.0961   11.5453   -1.4341 N   0  0  0  0  0  0  0  0  0  0  0  0
    0.3026   -8.7762   -1.3869 H   0  0  0  0  0  0  0  0  0  0  0  0
    5.5475   -8.8660   -1.9958 H   0  0  0  0  0  0  0  0  0  0  0  0
    7.2738   -9.0980   -3.7502 H   0  0  0  0  0  0  0  0  0  0  0  0
    7.6260   -7.2885   -5.4021 H   0  0  0  0  0  0  0  0  0  0  0  0
    6.2441   -5.2302   -5.3089 H   0  0  0  0  0  0  0  0  0  0  0  0
    4.4905   -4.9985   -3.5808 H   0  0  0  0  0  0  0  0  0  0  0  0
    0.6333   -8.7042    1.8320 H   0  0  0  0  0  0  0  0  0  0  0  0
   -0.2831   -7.9887    3.1898 H   0  0  0  0  0  0  0  0  0  0  0  0
   -0.8703  -10.3971    2.8467 H   0  0  0  0  0  0  0  0  0  0  0  0
   -2.3051   -9.3251    2.5768 H   0  0  0  0  0  0  0  0  0  0  0  0
   -1.4179  -10.0312    1.1616 H   0  0  0  0  0  0  0  0  0  0  0  0
    0.2418    6.6402    3.1649 H   0  0  0  0  0  0  0  0  0  0  0  0
    0.6329    5.2185    4.1806 H   0  0  0  0  0  0  0  0  0  0  0  0
   -2.1607    6.5225    3.9227 H   0  0  0  0  0  0  0  0  0  0  0  0
   -1.0230    6.7004    5.3155 H   0  0  0  0  0  0  0  0  0  0  0  0
   -1.7481    5.0910    4.9550 H   0  0  0  0  0  0  0  0  0  0  0  0
   -2.6063   -1.8145   -1.1356 H   0  0  0  0  0  0  0  0  0  0  0  0
   -2.1229   -3.4209   -1.3467 H   0  0  0  0  0  0  0  0  0  0  0  0
   -0.1832   -1.9763   -1.7835 H   0  0  0  0  0  0  0  0  0  0  0  0
    0.1433   -3.0153   -0.3414 H   0  0  0  0  0  0  0  0  0  0  0  0
   -0.2785   -1.2695   -0.1364 H   0  0  0  0  0  0  0  0  0  0  0  0
   -2.9303    1.6670   -0.3641 H   0  0  0  0  0  0  0  0  0  0  0  0
   -2.2690    0.2149   -1.0342 H   0  0  0  0  0  0  0  0  0  0  0  0
   -4.7835    0.2197   -1.0058 H   0  0  0  0  0  0  0  0  0  0  0  0
   -4.2985   -1.0137    0.2090 H   0  0  0  0  0  0  0  0  0  0  0  0
   -4.7945    0.6298    0.7571 H   0  0  0  0  0  0  0  0  0  0  0  0
   -1.7244    7.1645    1.5551 H   0  0  0  0  0  0  0  0  0  0  0  0
   -0.2206    5.7727   -4.3861 H   0  0  0  0  0  0  0  0  0  0  0  0
   -0.2281    6.6219   -6.7759 H   0  0  0  0  0  0  0  0  0  0  0  0
   -1.4457    7.8391   -7.2860 H   0  0  0  0  0  0  0  0  0  0  0  0
   -1.9859    6.1743   -6.8330 H   0  0  0  0  0  0  0  0  0  0  0  0
   -3.1244    9.6546   -3.2512 H   0  0  0  0  0  0  0  0  0  0  0  0
  1  2  2  3
  2  3  1  0
  3  4  1  0
  4  5  2  3
  5  6  1  0
  6  7  3  0
  5  8  1  0
  8  9  3  0
  4 10  1  0
 10 11  1  0
 11 12  2  0
 12 13  1  0
 13 14  2  0
 14 15  1  0
 15 16  2  0
 10 17  1  0
 17 18  2  0
  1 19  1  0
 19 20  2  0
 20 21  1  0
 21 22  1  0
 20 23  1  0
 23 24  1  0
 24 25  1  0
 25 26  1  0
 26 27  1  0
 27 28  1  0
 28 29  2  0
 29 30  1  0
 30 31  1  0
 28 32  1  0
 32 33  1  0
 33 34  1  0
 34 35  1  0
 35 36  1  0
 36 37  1  0
 37 38  1  0
 36 39  2  0
 39 40  1  0
 40 41  1  0
 41 42  1  0
 42 43  1  0
 43 44  1  0
 44 45  1  0
 45 46  1  0
 46 47  1  0
 47 48  1  0
 48 49  1  0
 46 50  1  0
 50 51  1  0
 43 52  1  0
 52 53  1  0
 39 54  1  0
 54 55  2  3
 55 56  1  0
 56 57  2  0
 56 58  1  0
 58 59  2  0
 59 60  1  0
 60 61  1  0
 60 62  2  0
 62 63  1  0
 62 64  1  0
 64 65  2  0
 65 66  1  0
 66 67  2  3
 67 68  1  0
 68 69  3  0
 67 70  1  0
 70 71  3  0
 17  2  1  0
 49 19  1  0
 66 55  1  0
 16 11  1  0
 48 23  2  0
 65 58  1  0
 47 25  2  0
 45 26  2  0
 31 27  2  0
 44 32  2  0
 42 33  2  0
 41 35  2  0
  1 72  1  0
 12 73  1  0
 13 74  1  0
 14 75  1  0
 15 76  1  0
 16 77  1  0
 21 78  1  0
 21 79  1  0
 22 80  1  0
 22 81  1  0
 22 82  1  0
 37 83  1  0
 37 84  1  0
 38 85  1  0
 38 86  1  0
 38 87  1  0
 50 88  1  0
 50 89  1  0
 51 90  1  0
 51 91  1  0
 51 92  1  0
 52 93  1  0
 52 94  1  0
 53 95  1  0
 53 96  1  0
 53 97  1  0
 54 98  1  0
 59 99  1  0
 61100  1  0
 61101  1  0
 61102  1  0
 64103  1  0
M  END

