
     RDKit          3D

155170  0  0  0  0  0  0  0  0999 V2000
   -1.1171    8.2902   -0.6151 C   0  0  0  0  0  0  0  0  0  0  0  0
   -1.1921    8.8100    0.6260 C   0  0  0  0  0  0  0  0  0  0  0  0
   -0.1375    8.5722    1.9125 S   0  0  0  0  0  0  0  0  0  0  0  0
   -1.0258    9.4605    3.0366 C   0  0  0  0  0  0  0  0  0  0  0  0
   -0.6550    9.6024    4.3347 C   0  0  0  0  0  0  0  0  0  0  0  0
    0.5602    8.9957    4.8180 C   0  0  0  0  0  0  0  0  0  0  0  0
    1.5370    8.5094    5.2059 N   0  0  0  0  0  0  0  0  0  0  0  0
   -1.4204   10.3420    5.3097 C   0  0  0  0  0  0  0  0  0  0  0  0
   -2.0272   10.9220    6.1080 N   0  0  0  0  0  0  0  0  0  0  0  0
   -2.1481    9.9634    2.4314 N   0  0  0  0  0  0  0  0  0  0  0  0
   -3.2131   10.6736    3.0832 C   0  0  0  0  0  0  0  0  0  0  0  0
   -4.2495    9.9625    3.7052 C   0  0  0  0  0  0  0  0  0  0  0  0
   -5.2807   10.6494    4.3520 C   0  0  0  0  0  0  0  0  0  0  0  0
   -5.2846   12.0475    4.3718 C   0  0  0  0  0  0  0  0  0  0  0  0
   -4.2621   12.7608    3.7389 C   0  0  0  0  0  0  0  0  0  0  0  0
   -3.2306   12.0752    3.0866 C   0  0  0  0  0  0  0  0  0  0  0  0
   -2.2289    9.6166    1.1076 C   0  0  0  0  0  0  0  0  0  0  0  0
   -3.2036    9.9692    0.3862 O   0  0  0  0  0  0  0  0  0  0  0  0
   -0.1618    7.2482   -1.0702 C   0  0  0  0  0  0  0  0  0  0  0  0
    1.0164    6.4635   -0.1200 S   0  0  0  0  0  0  0  0  0  0  0  0
    1.3539    5.2940   -1.2552 C   0  0  0  0  0  0  0  0  0  0  0  0
    1.5813    3.9607   -1.1113 C   0  0  0  0  0  0  0  0  0  0  0  0
    1.6884    2.9993    0.2773 S   0  0  0  0  0  0  0  0  0  0  0  0
    0.9880    1.7060   -0.5570 C   0  0  0  0  0  0  0  0  0  0  0  0
    0.9059    0.3062   -0.3018 C   0  0  0  0  0  0  0  0  0  0  0  0
    1.0046   -0.3734    0.9116 C   0  0  0  0  0  0  0  0  0  0  0  0
    0.8305   -1.7621    0.8738 C   0  0  0  0  0  0  0  0  0  0  0  0
    0.9095   -2.7375    2.0401 C   0  0  0  0  0  0  0  0  0  0  0  0
    2.1871   -2.4578    2.8391 C   0  0  0  0  0  0  0  0  0  0  0  0
    2.1423   -1.9179    4.1439 C   0  0  0  0  0  0  0  0  0  0  0  0
    3.3146   -1.5252    4.7947 C   0  0  0  0  0  0  0  0  0  0  0  0
    4.5564   -1.6357    4.1523 C   0  0  0  0  0  0  0  0  0  0  0  0
    5.7945   -1.0825    4.8026 C   0  0  0  0  0  0  0  0  0  0  0  0
    5.8536    0.4342    4.6387 C   0  0  0  0  0  0  0  0  0  0  0  0
    4.6110   -2.1628    2.8562 C   0  0  0  0  0  0  0  0  0  0  0  0
    3.4420   -2.5676    2.2084 C   0  0  0  0  0  0  0  0  0  0  0  0
   -0.3758   -2.7520    2.8869 C   0  0  0  0  0  0  0  0  0  0  0  0
   -1.3930   -1.7805    2.7427 C   0  0  0  0  0  0  0  0  0  0  0  0
   -2.5443   -1.8243    3.5317 C   0  0  0  0  0  0  0  0  0  0  0  0
   -2.7091   -2.8328    4.4883 C   0  0  0  0  0  0  0  0  0  0  0  0
   -3.9748   -2.8993    5.3006 C   0  0  0  0  0  0  0  0  0  0  0  0
   -5.0593   -3.6607    4.5445 C   0  0  0  0  0  0  0  0  0  0  0  0
   -1.7133   -3.8080    4.6367 C   0  0  0  0  0  0  0  0  0  0  0  0
   -0.5587   -3.7642    3.8508 C   0  0  0  0  0  0  0  0  0  0  0  0
    0.9754   -4.0269    1.2450 C   0  0  0  0  0  0  0  0  0  0  0  0
    0.7322   -3.8282   -0.0845 C   0  0  0  0  0  0  0  0  0  0  0  0
    0.6558   -2.4170   -0.3470 C   0  0  0  0  0  0  0  0  0  0  0  0
    0.5315   -1.7293   -1.5633 C   0  0  0  0  0  0  0  0  0  0  0  0
    0.6294   -0.3264   -1.5122 C   0  0  0  0  0  0  0  0  0  0  0  0
    0.4988    0.6841   -2.6596 C   0  0  0  0  0  0  0  0  0  0  0  0
   -0.8928    0.6291   -3.3059 C   0  0  0  0  0  0  0  0  0  0  0  0
   -2.0309    0.2857   -2.5447 C   0  0  0  0  0  0  0  0  0  0  0  0
   -3.2893    0.1901   -3.1436 C   0  0  0  0  0  0  0  0  0  0  0  0
   -3.4462    0.4665   -4.5097 C   0  0  0  0  0  0  0  0  0  0  0  0
   -4.7866    0.2904   -5.1675 C   0  0  0  0  0  0  0  0  0  0  0  0
   -4.9873   -1.1551   -5.6079 C   0  0  0  0  0  0  0  0  0  0  0  0
   -2.3316    0.8543   -5.2662 C   0  0  0  0  0  0  0  0  0  0  0  0
   -1.0770    0.9605   -4.6649 C   0  0  0  0  0  0  0  0  0  0  0  0
    1.6543    0.4007   -3.6370 C   0  0  0  0  0  0  0  0  0  0  0  0
    2.8987    1.0624   -3.5401 C   0  0  0  0  0  0  0  0  0  0  0  0
    3.9541    0.7361   -4.3969 C   0  0  0  0  0  0  0  0  0  0  0  0
    3.8118   -0.2913   -5.3392 C   0  0  0  0  0  0  0  0  0  0  0  0
    4.9312   -0.6084   -6.2931 C   0  0  0  0  0  0  0  0  0  0  0  0
    4.7986    0.2161   -7.5668 C   0  0  0  0  0  0  0  0  0  0  0  0
    2.5984   -0.9863   -5.4186 C   0  0  0  0  0  0  0  0  0  0  0  0
    1.5427   -0.6579   -4.5669 C   0  0  0  0  0  0  0  0  0  0  0  0
    0.6597    1.9840   -1.8618 C   0  0  0  0  0  0  0  0  0  0  0  0
    0.9624    3.3220   -2.1650 C   0  0  0  0  0  0  0  0  0  0  0  0
    0.2911    4.2219   -2.9393 N   0  0  0  0  0  0  0  0  0  0  0  0
    0.5329    5.4210   -2.3375 C   0  0  0  0  0  0  0  0  0  0  0  0
   -0.3222    6.5351   -2.2698 C   0  0  0  0  0  0  0  0  0  0  0  0
   -0.8688    3.9819   -3.7385 C   0  0  0  0  0  0  0  0  0  0  0  0
   -2.1244    3.6933   -3.2096 C   0  0  0  0  0  0  0  0  0  0  0  0
   -3.1743    3.9545   -4.1017 C   0  0  0  0  0  0  0  0  0  0  0  0
   -2.7475    4.4969   -5.3102 C   0  0  0  0  0  0  0  0  0  0  0  0
   -3.6335    5.0214   -6.3960 C   0  0  0  0  0  0  0  0  0  0  0  0
   -4.2128    3.8906   -7.2313 C   0  0  0  0  0  0  0  0  0  0  0  0
   -1.0739    4.6443   -5.2714 S   0  0  0  0  0  0  0  0  0  0  0  0
    1.2899   -5.1275   -0.9864 S   0  0  0  0  0  0  0  0  0  0  0  0
    1.7359   -6.0311    0.3853 C   0  0  0  0  0  0  0  0  0  0  0  0
    1.5338   -5.2740    1.5418 C   0  0  0  0  0  0  0  0  0  0  0  0
    2.4441   -7.3161    0.3395 C   0  0  0  0  0  0  0  0  0  0  0  0
    3.7859   -7.4073    0.2639 C   0  0  0  0  0  0  0  0  0  0  0  0
    4.7215   -6.2806    0.3603 C   0  0  0  0  0  0  0  0  0  0  0  0
    4.4359   -5.0651    0.1999 O   0  0  0  0  0  0  0  0  0  0  0  0
    6.0417   -6.8028    0.6550 C   0  0  0  0  0  0  0  0  0  0  0  0
    7.2167   -6.1058    0.9620 C   0  0  0  0  0  0  0  0  0  0  0  0
    7.2852   -4.3498    0.9572 Cl  0  0  0  0  0  0  0  0  0  0  0  0
    8.3591   -6.8418    1.3023 C   0  0  0  0  0  0  0  0  0  0  0  0
    8.3093   -8.2459    1.3537 C   0  0  0  0  0  0  0  0  0  0  0  0
    9.8682   -9.2312    1.8497 Br  0  0  0  0  0  0  0  0  0  0  0  0
    7.1180   -8.9271    1.0562 C   0  0  0  0  0  0  0  0  0  0  0  0
    5.9865   -8.1880    0.6734 C   0  0  0  0  0  0  0  0  0  0  0  0
    4.6138   -8.6487    0.3196 C   0  0  0  0  0  0  0  0  0  0  0  0
    4.2600   -9.8838   -0.1238 C   0  0  0  0  0  0  0  0  0  0  0  0
    2.9568  -10.1607   -0.6707 C   0  0  0  0  0  0  0  0  0  0  0  0
    1.9122  -10.3964   -1.1133 N   0  0  0  0  0  0  0  0  0  0  0  0
    5.2019  -10.9655   -0.2324 C   0  0  0  0  0  0  0  0  0  0  0  0
    5.9558  -11.8382   -0.3363 N   0  0  0  0  0  0  0  0  0  0  0  0
   -1.8866    8.5669   -1.3242 H   0  0  0  0  0  0  0  0  0  0  0  0
   -4.2460    8.8795    3.6940 H   0  0  0  0  0  0  0  0  0  0  0  0
   -6.0731   10.0949    4.8420 H   0  0  0  0  0  0  0  0  0  0  0  0
   -6.0849   12.5764    4.8751 H   0  0  0  0  0  0  0  0  0  0  0  0
   -4.2687   13.8432    3.7540 H   0  0  0  0  0  0  0  0  0  0  0  0
   -2.4425   12.6296    2.5979 H   0  0  0  0  0  0  0  0  0  0  0  0
    1.1871    0.1517    1.8418 H   0  0  0  0  0  0  0  0  0  0  0  0
    1.2037   -1.7580    4.6586 H   0  0  0  0  0  0  0  0  0  0  0  0
    3.2494   -1.0891    5.7849 H   0  0  0  0  0  0  0  0  0  0  0  0
    5.8014   -1.3391    5.8834 H   0  0  0  0  0  0  0  0  0  0  0  0
    6.7045   -1.5354    4.3487 H   0  0  0  0  0  0  0  0  0  0  0  0
    6.8107    0.8195    5.0456 H   0  0  0  0  0  0  0  0  0  0  0  0
    5.7806    0.7094    3.5653 H   0  0  0  0  0  0  0  0  0  0  0  0
    5.0160    0.9119    5.1891 H   0  0  0  0  0  0  0  0  0  0  0  0
    5.5549   -2.2240    2.3305 H   0  0  0  0  0  0  0  0  0  0  0  0
    3.5088   -2.9135    1.1863 H   0  0  0  0  0  0  0  0  0  0  0  0
   -1.3207   -0.9822    2.0214 H   0  0  0  0  0  0  0  0  0  0  0  0
   -3.3118   -1.0745    3.3900 H   0  0  0  0  0  0  0  0  0  0  0  0
   -3.7840   -3.4021    6.2731 H   0  0  0  0  0  0  0  0  0  0  0  0
   -4.3336   -1.8727    5.5218 H   0  0  0  0  0  0  0  0  0  0  0  0
   -4.7380   -4.7096    4.3675 H   0  0  0  0  0  0  0  0  0  0  0  0
   -5.9938   -3.6676    5.1436 H   0  0  0  0  0  0  0  0  0  0  0  0
   -5.2646   -3.1730    3.5680 H   0  0  0  0  0  0  0  0  0  0  0  0
   -1.8311   -4.6030    5.3639 H   0  0  0  0  0  0  0  0  0  0  0  0
    0.2009   -4.5234    4.0010 H   0  0  0  0  0  0  0  0  0  0  0  0
    0.3658   -2.2613   -2.4912 H   0  0  0  0  0  0  0  0  0  0  0  0
   -1.9512    0.0768   -1.4838 H   0  0  0  0  0  0  0  0  0  0  0  0
   -4.1410   -0.1042   -2.5442 H   0  0  0  0  0  0  0  0  0  0  0  0
   -4.8676    0.9487   -6.0593 H   0  0  0  0  0  0  0  0  0  0  0  0
   -5.6006    0.5774   -4.4660 H   0  0  0  0  0  0  0  0  0  0  0  0
   -4.1786   -1.4626   -6.3074 H   0  0  0  0  0  0  0  0  0  0  0  0
   -5.9639   -1.2534   -6.1270 H   0  0  0  0  0  0  0  0  0  0  0  0
   -4.9871   -1.8300   -4.7255 H   0  0  0  0  0  0  0  0  0  0  0  0
   -2.4352    1.0779   -6.3195 H   0  0  0  0  0  0  0  0  0  0  0  0
   -0.2459    1.2980   -5.2710 H   0  0  0  0  0  0  0  0  0  0  0  0
    3.0798    1.8235   -2.7944 H   0  0  0  0  0  0  0  0  0  0  0  0
    4.8872    1.2807   -4.3194 H   0  0  0  0  0  0  0  0  0  0  0  0
    4.9176   -1.6882   -6.5553 H   0  0  0  0  0  0  0  0  0  0  0  0
    5.9139   -0.3940   -5.8175 H   0  0  0  0  0  0  0  0  0  0  0  0
    4.8195    1.3014   -7.3312 H   0  0  0  0  0  0  0  0  0  0  0  0
    5.6446   -0.0184   -8.2481 H   0  0  0  0  0  0  0  0  0  0  0  0
    3.8443   -0.0285   -8.0849 H   0  0  0  0  0  0  0  0  0  0  0  0
    2.4714   -1.7843   -6.1390 H   0  0  0  0  0  0  0  0  0  0  0  0
    0.6291   -1.2347   -4.6419 H   0  0  0  0  0  0  0  0  0  0  0  0
   -1.1353    6.7157   -2.9624 H   0  0  0  0  0  0  0  0  0  0  0  0
   -2.2796    3.3624   -2.1913 H   0  0  0  0  0  0  0  0  0  0  0  0
   -4.2162    3.8092   -3.8503 H   0  0  0  0  0  0  0  0  0  0  0  0
   -3.0486    5.7016   -7.0526 H   0  0  0  0  0  0  0  0  0  0  0  0
   -4.4587    5.6132   -5.9470 H   0  0  0  0  0  0  0  0  0  0  0  0
   -4.8599    3.2453   -6.6024 H   0  0  0  0  0  0  0  0  0  0  0  0
   -4.8339    4.3167   -8.0463 H   0  0  0  0  0  0  0  0  0  0  0  0
   -3.3962    3.2832   -7.6775 H   0  0  0  0  0  0  0  0  0  0  0  0
    1.8731   -5.5694    2.5262 H   0  0  0  0  0  0  0  0  0  0  0  0
    1.8314   -8.1963    0.4449 H   0  0  0  0  0  0  0  0  0  0  0  0
    9.2814   -6.3258    1.5463 H   0  0  0  0  0  0  0  0  0  0  0  0
    7.0932   -9.9989    1.1638 H   0  0  0  0  0  0  0  0  0  0  0  0
  1  2  2  3
  2  3  1  0
  3  4  1  0
  4  5  2  3
  5  6  1  0
  6  7  3  0
  5  8  1  0
  8  9  3  0
  4 10  1  0
 10 11  1  0
 11 12  2  0
 12 13  1  0
 13 14  2  0
 14 15  1  0
 15 16  2  0
 10 17  1  0
 17 18  2  0
  1 19  1  0
 19 20  1  0
 20 21  1  0
 21 22  1  0
 22 23  1  0
 23 24  1  0
 24 25  1  0
 25 26  2  0
 26 27  1  0
 27 28  1  0
 28 29  1  0
 29 30  2  0
 30 31  1  0
 31 32  2  0
 32 33  1  0
 33 34  1  0
 32 35  1  0
 35 36  2  0
 28 37  1  0
 37 38  2  0
 38 39  1  0
 39 40  2  0
 40 41  1  0
 41 42  1  0
 40 43  1  0
 43 44  2  0
 28 45  1  0
 45 46  2  0
 46 47  1  0
 47 48  1  0
 48 49  2  0
 49 50  1  0
 50 51  1  0
 51 52  2  0
 52 53  1  0
 53 54  2  0
 54 55  1  0
 55 56  1  0
 54 57  1  0
 57 58  2  0
 50 59  1  0
 59 60  2  0
 60 61  1  0
 61 62  2  0
 62 63  1  0
 63 64  1  0
 62 65  1  0
 65 66  2  0
 50 67  1  0
 67 68  1  0
 68 69  1  0
 69 70  1  0
 70 71  1  0
 69 72  1  0
 72 73  2  0
 73 74  1  0
 74 75  2  0
 75 76  1  0
 76 77  1  0
 75 78  1  0
 46 79  1  0
 79 80  1  0
 80 81  2  0
 80 82  1  0
 82 83  2  3
 83 84  1  0
 84 85  2  0
 84 86  1  0
 86 87  2  0
 87 88  1  0
 87 89  1  0
 89 90  2  0
 90 91  1  0
 90 92  1  0
 92 93  2  0
 93 94  1  0
 94 95  2  3
 95 96  1  0
 96 97  3  0
 95 98  1  0
 98 99  3  0
 17  2  1  0
 71 19  2  0
 78 72  1  0
 94 83  1  0
 16 11  1  0
 70 21  2  0
 93 86  1  0
 68 22  2  0
 67 24  2  0
 49 25  1  0
 58 51  1  0
 66 59  1  0
 47 27  2  0
 36 29  1  0
 44 37  1  0
 81 45  1  0
  1100  1  0
 12101  1  0
 13102  1  0
 14103  1  0
 15104  1  0
 16105  1  0
 26106  1  0
 30107  1  0
 31108  1  0
 33109  1  0
 33110  1  0
 34111  1  0
 34112  1  0
 34113  1  0
 35114  1  0
 36115  1  0
 38116  1  0
 39117  1  0
 41118  1  0
 41119  1  0
 42120  1  0
 42121  1  0
 42122  1  0
 43123  1  0
 44124  1  0
 48125  1  0
 52126  1  0
 53127  1  0
 55128  1  0
 55129  1  0
 56130  1  0
 56131  1  0
 56132  1  0
 57133  1  0
 58134  1  0
 60135  1  0
 61136  1  0
 63137  1  0
 63138  1  0
 64139  1  0
 64140  1  0
 64141  1  0
 65142  1  0
 66143  1  0
 71144  1  0
 73145  1  0
 74146  1  0
 76147  1  0
 76148  1  0
 77149  1  0
 77150  1  0
 77151  1  0
 81152  1  0
 82153  1  0
 89154  1  0
 92155  1  0
M  END

