
     RDKit          3D

136152  0  0  0  0  0  0  0  0999 V2000
    7.5217    0.0453   -4.6283 C   0  0  0  0  0  0  0  0  0  0  0  0
    7.3995   -1.2922   -4.6951 C   0  0  0  0  0  0  0  0  0  0  0  0
    6.8969   -2.1101   -6.0740 S   0  0  0  0  0  0  0  0  0  0  0  0
    6.2514   -3.4338   -5.2143 C   0  0  0  0  0  0  0  0  0  0  0  0
    5.7520   -4.5372   -5.8213 C   0  0  0  0  0  0  0  0  0  0  0  0
    5.9756   -4.7479   -7.2452 C   0  0  0  0  0  0  0  0  0  0  0  0
    6.1444   -4.9222   -8.3779 N   0  0  0  0  0  0  0  0  0  0  0  0
    5.1186   -5.6249   -5.1254 C   0  0  0  0  0  0  0  0  0  0  0  0
    4.5580   -6.4953   -4.5939 N   0  0  0  0  0  0  0  0  0  0  0  0
    6.4073   -3.2399   -3.8680 N   0  0  0  0  0  0  0  0  0  0  0  0
    5.3648   -3.5970   -2.8791 C   0  0  0  0  0  0  0  0  0  0  0  0
    5.6425   -4.8270   -2.0582 C   0  0  0  0  0  0  0  0  0  0  0  0
    4.5430   -5.6326   -1.6896 C   0  0  0  0  0  0  0  0  0  0  0  0
    4.6843   -6.6523   -0.7365 C   0  0  0  0  0  0  0  0  0  0  0  0
    5.9225   -6.8631   -0.1191 C   0  0  0  0  0  0  0  0  0  0  0  0
    7.0110   -6.0505   -0.4475 C   0  0  0  0  0  0  0  0  0  0  0  0
    6.8817   -5.0358   -1.4176 C   0  0  0  0  0  0  0  0  0  0  0  0
    7.1939   -2.1447   -3.6177 C   0  0  0  0  0  0  0  0  0  0  0  0
    8.0171   -2.1644   -2.6817 O   0  0  0  0  0  0  0  0  0  0  0  0
    7.0449    0.7989   -3.4504 C   0  0  0  0  0  0  0  0  0  0  0  0
    7.6120    0.8451   -2.1505 C   0  0  0  0  0  0  0  0  0  0  0  0
    9.0617    0.6845   -1.8821 C   0  0  0  0  0  0  0  0  0  0  0  0
    9.9544    1.3549   -2.7399 C   0  0  0  0  0  0  0  0  0  0  0  0
   11.3281    1.3491   -2.5002 C   0  0  0  0  0  0  0  0  0  0  0  0
   11.8148    0.7416   -1.3495 C   0  0  0  0  0  0  0  0  0  0  0  0
   10.9676    0.0206   -0.5089 C   0  0  0  0  0  0  0  0  0  0  0  0
    9.5937   -0.0753   -0.7970 C   0  0  0  0  0  0  0  0  0  0  0  0
    8.7375   -0.9816    0.0583 C   0  0  0  0  0  0  0  0  0  0  0  0
    9.3697   -2.3592    0.2724 C   0  0  0  0  0  0  0  0  0  0  0  0
    6.6548    1.3013   -1.2093 C   0  0  0  0  0  0  0  0  0  0  0  0
    6.6265    1.4379    0.5062 S   0  0  0  0  0  0  0  0  0  0  0  0
    4.9586    1.7853    0.5027 C   0  0  0  0  0  0  0  0  0  0  0  0
    3.9109    1.5294    1.3614 C   0  0  0  0  0  0  0  0  0  0  0  0
    3.9321    1.0439    2.6777 C   0  0  0  0  0  0  0  0  0  0  0  0
    2.7362    0.5044    3.2302 C   0  0  0  0  0  0  0  0  0  0  0  0
    2.8144    0.0032    4.4846 N   0  0  0  0  0  0  0  0  0  0  0  0
    4.4284    0.2496    4.7926 S   0  0  0  0  0  0  0  0  0  0  0  0
    5.0506    0.9782    3.4463 N   0  0  0  0  0  0  0  0  0  0  0  0
    1.5731    0.5205    2.4540 C   0  0  0  0  0  0  0  0  0  0  0  0
    0.2839    0.2060    2.7688 C   0  0  0  0  0  0  0  0  0  0  0  0
   -0.6080   -0.3396    4.0971 S   0  0  0  0  0  0  0  0  0  0  0  0
   -2.0655   -0.0093    3.2648 C   0  0  0  0  0  0  0  0  0  0  0  0
   -3.3987   -0.2114    3.5927 C   0  0  0  0  0  0  0  0  0  0  0  0
   -3.8319   -0.9794    4.7758 C   0  0  0  0  0  0  0  0  0  0  0  0
   -4.1568   -2.3537    4.6717 C   0  0  0  0  0  0  0  0  0  0  0  0
   -4.0680   -3.0767    3.3357 C   0  0  0  0  0  0  0  0  0  0  0  0
   -3.6844   -4.5526    3.4390 C   0  0  0  0  0  0  0  0  0  0  0  0
   -4.6549   -3.0114    5.8136 C   0  0  0  0  0  0  0  0  0  0  0  0
   -4.7563   -2.3398    7.0363 C   0  0  0  0  0  0  0  0  0  0  0  0
   -4.4203   -0.9965    7.1317 C   0  0  0  0  0  0  0  0  0  0  0  0
   -3.9650   -0.3124    6.0068 C   0  0  0  0  0  0  0  0  0  0  0  0
   -4.2601    0.1937    2.5553 C   0  0  0  0  0  0  0  0  0  0  0  0
   -3.3210    0.7165    1.2096 S   0  0  0  0  0  0  0  0  0  0  0  0
   -1.8484    0.5004    2.0124 C   0  0  0  0  0  0  0  0  0  0  0  0
   -0.4945    0.6091    1.7296 C   0  0  0  0  0  0  0  0  0  0  0  0
    0.2151    1.1704    0.7186 N   0  0  0  0  0  0  0  0  0  0  0  0
    1.5232    1.0470    1.1460 C   0  0  0  0  0  0  0  0  0  0  0  0
    2.7450    1.4857    0.5613 C   0  0  0  0  0  0  0  0  0  0  0  0
    3.0884    1.6084   -0.7677 N   0  0  0  0  0  0  0  0  0  0  0  0
    4.4393    1.8032   -0.7574 C   0  0  0  0  0  0  0  0  0  0  0  0
    5.4156    1.5699   -1.7295 C   0  0  0  0  0  0  0  0  0  0  0  0
    5.4304    1.3135   -3.3780 S   0  0  0  0  0  0  0  0  0  0  0  0
    2.3655    1.1088   -1.9394 C   0  0  0  0  0  0  0  0  0  0  0  0
    2.0581    2.2497   -2.9267 C   0  0  0  0  0  0  0  0  0  0  0  0
   -0.3541    2.1490   -0.2313 C   0  0  0  0  0  0  0  0  0  0  0  0
    0.0039    3.5757    0.1746 C   0  0  0  0  0  0  0  0  0  0  0  0
   -5.7261    0.0088    2.6256 C   0  0  0  0  0  0  0  0  0  0  0  0
   -6.6807    0.6410    1.9197 C   0  0  0  0  0  0  0  0  0  0  0  0
   -8.0673    0.1703    1.9144 C   0  0  0  0  0  0  0  0  0  0  0  0
   -8.5699   -0.6726    2.7102 O   0  0  0  0  0  0  0  0  0  0  0  0
   -8.7854    0.8127    0.8337 C   0  0  0  0  0  0  0  0  0  0  0  0
  -10.1482    0.6379    0.4745 C   0  0  0  0  0  0  0  0  0  0  0  0
  -10.5322    1.4042   -0.6051 C   0  0  0  0  0  0  0  0  0  0  0  0
   -9.6387    2.2646   -1.3243 C   0  0  0  0  0  0  0  0  0  0  0  0
   -8.3154    2.4472   -0.9834 C   0  0  0  0  0  0  0  0  0  0  0  0
   -7.8961    1.6995    0.1602 C   0  0  0  0  0  0  0  0  0  0  0  0
   -6.6161    1.7687    0.9297 C   0  0  0  0  0  0  0  0  0  0  0  0
   -5.8894    2.8978    1.0970 C   0  0  0  0  0  0  0  0  0  0  0  0
   -5.9691    4.0004    0.1767 C   0  0  0  0  0  0  0  0  0  0  0  0
   -6.0345    4.8678   -0.5942 N   0  0  0  0  0  0  0  0  0  0  0  0
   -5.1265    3.1345    2.2947 C   0  0  0  0  0  0  0  0  0  0  0  0
   -4.5237    3.3093    3.2627 N   0  0  0  0  0  0  0  0  0  0  0  0
  -10.7660    2.6930   -2.2140 C   0  0  0  0  0  0  0  0  0  0  0  0
  -11.3399    4.1179   -1.9383 C   0  0  0  0  0  0  0  0  0  0  0  0
  -12.6702    4.1799   -2.6450 C   0  0  0  0  0  0  0  0  0  0  0  0
  -13.4942    3.3699   -1.9774 C   0  0  0  0  0  0  0  0  0  0  0  0
  -12.6991    2.7967   -0.8345 C   0  0  0  0  0  0  0  0  0  0  0  0
  -11.8471    4.0171   -0.5011 C   0  0  0  0  0  0  0  0  0  0  0  0
  -11.6768    1.8118   -1.4834 C   0  0  0  0  0  0  0  0  0  0  0  0
    7.5240    0.5958   -5.5597 H   0  0  0  0  0  0  0  0  0  0  0  0
    5.2402   -2.7645   -2.1428 H   0  0  0  0  0  0  0  0  0  0  0  0
    4.3660   -3.6433   -3.3907 H   0  0  0  0  0  0  0  0  0  0  0  0
    3.5696   -5.4474   -2.0973 H   0  0  0  0  0  0  0  0  0  0  0  0
    3.8432   -7.2768   -0.4691 H   0  0  0  0  0  0  0  0  0  0  0  0
    6.0244   -7.6354    0.6319 H   0  0  0  0  0  0  0  0  0  0  0  0
    7.9576   -6.1892    0.0510 H   0  0  0  0  0  0  0  0  0  0  0  0
    7.7304   -4.3979   -1.6090 H   0  0  0  0  0  0  0  0  0  0  0  0
    9.5824    1.9361   -3.5778 H   0  0  0  0  0  0  0  0  0  0  0  0
   12.0030    1.8714   -3.1787 H   0  0  0  0  0  0  0  0  0  0  0  0
   12.8810    0.7859   -1.1319 H   0  0  0  0  0  0  0  0  0  0  0  0
   11.3937   -0.4618    0.3600 H   0  0  0  0  0  0  0  0  0  0  0  0
    8.5837   -0.5146    1.0500 H   0  0  0  0  0  0  0  0  0  0  0  0
    7.7455   -1.1458   -0.3990 H   0  0  0  0  0  0  0  0  0  0  0  0
    8.5907   -3.0600    0.6318 H   0  0  0  0  0  0  0  0  0  0  0  0
    9.8035   -2.7567   -0.6746 H   0  0  0  0  0  0  0  0  0  0  0  0
   10.1612   -2.3055    1.0388 H   0  0  0  0  0  0  0  0  0  0  0  0
   -3.3044   -2.6022    2.6888 H   0  0  0  0  0  0  0  0  0  0  0  0
   -5.0489   -2.9921    2.8092 H   0  0  0  0  0  0  0  0  0  0  0  0
   -2.8360   -4.6804    4.1457 H   0  0  0  0  0  0  0  0  0  0  0  0
   -4.5597   -5.1566    3.7781 H   0  0  0  0  0  0  0  0  0  0  0  0
   -3.3789   -4.9378    2.4461 H   0  0  0  0  0  0  0  0  0  0  0  0
   -4.9583   -4.0522    5.7800 H   0  0  0  0  0  0  0  0  0  0  0  0
   -5.0922   -2.8748    7.9167 H   0  0  0  0  0  0  0  0  0  0  0  0
   -4.5165   -0.4784    8.0856 H   0  0  0  0  0  0  0  0  0  0  0  0
   -3.7296    0.7445    6.0869 H   0  0  0  0  0  0  0  0  0  0  0  0
    2.9645    0.3443   -2.4686 H   0  0  0  0  0  0  0  0  0  0  0  0
    1.4488    0.5563   -1.6537 H   0  0  0  0  0  0  0  0  0  0  0  0
    1.4630    1.8520   -3.7670 H   0  0  0  0  0  0  0  0  0  0  0  0
    1.4808    3.0619   -2.4309 H   0  0  0  0  0  0  0  0  0  0  0  0
    2.9855    2.7104   -3.3112 H   0  0  0  0  0  0  0  0  0  0  0  0
   -1.4539    2.0565   -0.2429 H   0  0  0  0  0  0  0  0  0  0  0  0
   -0.0683    1.9500   -1.2653 H   0  0  0  0  0  0  0  0  0  0  0  0
   -0.5394    4.2791   -0.4712 H   0  0  0  0  0  0  0  0  0  0  0  0
    1.0936    3.7471    0.0442 H   0  0  0  0  0  0  0  0  0  0  0  0
   -0.2654    3.7345    1.2335 H   0  0  0  0  0  0  0  0  0  0  0  0
   -6.0707   -0.7580    3.3059 H   0  0  0  0  0  0  0  0  0  0  0  0
  -10.8348   -0.0002    1.0153 H   0  0  0  0  0  0  0  0  0  0  0  0
   -7.6786    3.0890   -1.5471 H   0  0  0  0  0  0  0  0  0  0  0  0
  -10.6123    2.4352   -3.2851 H   0  0  0  0  0  0  0  0  0  0  0  0
  -10.6439    4.9660   -2.1534 H   0  0  0  0  0  0  0  0  0  0  0  0
  -12.9387    4.8354   -3.4725 H   0  0  0  0  0  0  0  0  0  0  0  0
  -14.5610    3.2540   -2.1650 H   0  0  0  0  0  0  0  0  0  0  0  0
  -13.2900    2.3649    0.0035 H   0  0  0  0  0  0  0  0  0  0  0  0
  -12.4476    4.8977   -0.1714 H   0  0  0  0  0  0  0  0  0  0  0  0
  -11.0329    3.8436    0.2418 H   0  0  0  0  0  0  0  0  0  0  0  0
  -12.1122    0.9776   -2.0712 H   0  0  0  0  0  0  0  0  0  0  0  0
  1  2  2  3
  2  3  1  0
  3  4  1  0
  4  5  2  3
  5  6  1  0
  6  7  3  0
  5  8  1  0
  8  9  3  0
  4 10  1  0
 10 11  1  0
 11 12  1  0
 12 13  2  0
 13 14  1  0
 14 15  2  0
 15 16  1  0
 16 17  2  0
 10 18  1  0
 18 19  2  0
  1 20  1  0
 20 21  2  0
 21 22  1  0
 22 23  2  0
 23 24  1  0
 24 25  2  0
 25 26  1  0
 26 27  2  0
 27 28  1  0
 28 29  1  0
 21 30  1  0
 30 31  1  0
 31 32  1  0
 32 33  1  0
 33 34  1  0
 34 35  1  0
 35 36  2  0
 36 37  1  0
 37 38  1  0
 35 39  1  0
 39 40  1  0
 40 41  1  0
 41 42  1  0
 42 43  1  0
 43 44  1  0
 44 45  2  0
 45 46  1  0
 46 47  1  0
 45 48  1  0
 48 49  2  0
 49 50  1  0
 50 51  2  0
 43 52  2  0
 52 53  1  0
 53 54  1  0
 54 55  1  0
 55 56  1  0
 56 57  1  0
 57 58  1  0
 58 59  1  0
 59 60  1  0
 60 61  1  0
 61 62  1  0
 59 63  1  0
 63 64  1  0
 56 65  1  0
 65 66  1  0
 52 67  1  0
 67 68  2  3
 68 69  1  0
 69 70  2  0
 69 71  1  0
 71 72  2  0
 72 73  1  0
 73 74  2  0
 74 75  1  0
 75 76  2  0
 76 77  1  0
 77 78  2  3
 78 79  1  0
 79 80  3  0
 78 81  1  0
 81 82  3  0
 74 83  1  0
 83 84  1  0
 84 85  1  0
 85 86  2  0
 86 87  1  0
 87 88  1  0
 87 89  1  0
 18  2  1  0
 62 20  1  0
 77 68  1  0
 89 83  1  0
 17 12  1  0
 27 22  1  0
 61 30  2  0
 76 71  1  0
 88 84  1  0
 60 32  2  0
 89 73  1  0
 58 33  2  0
 38 34  2  0
 57 39  2  0
 55 40  2  0
 54 42  2  0
 51 44  1  0
  1 90  1  0
 11 91  1  0
 11 92  1  0
 13 93  1  0
 14 94  1  0
 15 95  1  0
 16 96  1  0
 17 97  1  0
 23 98  1  0
 24 99  1  0
 25100  1  0
 26101  1  0
 28102  1  0
 28103  1  0
 29104  1  0
 29105  1  0
 29106  1  0
 46107  1  0
 46108  1  0
 47109  1  0
 47110  1  0
 47111  1  0
 48112  1  0
 49113  1  0
 50114  1  0
 51115  1  0
 63116  1  0
 63117  1  0
 64118  1  0
 64119  1  0
 64120  1  0
 65121  1  0
 65122  1  0
 66123  1  0
 66124  1  0
 66125  1  0
 67126  1  0
 72127  1  0
 75128  1  0
 83129  1  0
 84130  1  0
 85131  1  0
 86132  1  0
 87133  1  0
 88134  1  0
 88135  1  0
 89136  1  0
M  END

