
     RDKit          3D

114127  0  0  0  0  0  0  0  0999 V2000
   -4.4944    0.9951   -6.4001 C   0  0  0  0  0  0  0  0  0  0  0  0
   -5.2993    0.5427   -5.4275 C   0  0  0  0  0  0  0  0  0  0  0  0
   -6.9640    0.5123   -5.5357 S   0  0  0  0  0  0  0  0  0  0  0  0
   -7.2238   -0.1100   -3.9799 C   0  0  0  0  0  0  0  0  0  0  0  0
   -8.4650   -0.4569   -3.5431 C   0  0  0  0  0  0  0  0  0  0  0  0
   -8.7449   -1.2307   -2.3599 C   0  0  0  0  0  0  0  0  0  0  0  0
   -9.0030   -1.8367   -1.4134 N   0  0  0  0  0  0  0  0  0  0  0  0
   -9.6269   -0.1483   -4.3467 C   0  0  0  0  0  0  0  0  0  0  0  0
  -10.5555    0.1029   -4.9929 N   0  0  0  0  0  0  0  0  0  0  0  0
   -6.0152   -0.2501   -3.3297 N   0  0  0  0  0  0  0  0  0  0  0  0
   -5.7831   -0.5273   -1.8944 C   0  0  0  0  0  0  0  0  0  0  0  0
   -4.9841    0.5864   -1.2620 C   0  0  0  0  0  0  0  0  0  0  0  0
   -3.6938    0.3496   -0.7581 C   0  0  0  0  0  0  0  0  0  0  0  0
   -2.9320    1.4080   -0.2451 C   0  0  0  0  0  0  0  0  0  0  0  0
   -3.4605    2.6997   -0.2115 C   0  0  0  0  0  0  0  0  0  0  0  0
   -4.7535    2.9406   -0.6867 C   0  0  0  0  0  0  0  0  0  0  0  0
   -5.5168    1.8869   -1.2062 C   0  0  0  0  0  0  0  0  0  0  0  0
   -4.9615    0.0632   -4.1568 C   0  0  0  0  0  0  0  0  0  0  0  0
   -3.7637   -0.0646   -3.7806 O   0  0  0  0  0  0  0  0  0  0  0  0
   -3.0315    1.0708   -6.2593 C   0  0  0  0  0  0  0  0  0  0  0  0
   -2.1866   -0.0332   -6.4298 C   0  0  0  0  0  0  0  0  0  0  0  0
   -0.9769    0.4378   -5.9876 C   0  0  0  0  0  0  0  0  0  0  0  0
   -1.0934    1.7146   -5.6091 C   0  0  0  0  0  0  0  0  0  0  0  0
   -2.3674    2.1384   -5.7129 N   0  0  0  0  0  0  0  0  0  0  0  0
   -2.9692    3.3769   -5.2164 C   0  0  0  0  0  0  0  0  0  0  0  0
   -2.8762    4.4643   -6.2818 C   0  0  0  0  0  0  0  0  0  0  0  0
   -0.0192    1.9973   -4.7863 C   0  0  0  0  0  0  0  0  0  0  0  0
    0.4833    3.1716   -4.2035 C   0  0  0  0  0  0  0  0  0  0  0  0
    1.7002    3.1002   -3.4523 C   0  0  0  0  0  0  0  0  0  0  0  0
    2.1597    4.2568   -2.9096 N   0  0  0  0  0  0  0  0  0  0  0  0
    1.0013    5.3014   -3.4641 S   0  0  0  0  0  0  0  0  0  0  0  0
   -0.0713    4.3977   -4.3439 N   0  0  0  0  0  0  0  0  0  0  0  0
    2.3170    1.8540   -3.2705 C   0  0  0  0  0  0  0  0  0  0  0  0
    3.2334    1.4578   -2.3338 C   0  0  0  0  0  0  0  0  0  0  0  0
    3.9885    2.1722   -0.9874 S   0  0  0  0  0  0  0  0  0  0  0  0
    4.1787    0.6608   -0.2255 C   0  0  0  0  0  0  0  0  0  0  0  0
    4.6823    0.2497    1.0207 C   0  0  0  0  0  0  0  0  0  0  0  0
    5.4987    1.1190    1.9481 C   0  0  0  0  0  0  0  0  0  0  0  0
    4.7821    2.4064    2.3606 C   0  0  0  0  0  0  0  0  0  0  0  0
    4.4578   -1.1357    1.1982 C   0  0  0  0  0  0  0  0  0  0  0  0
    3.6824   -1.7812   -0.1663 S   0  0  0  0  0  0  0  0  0  0  0  0
    3.6186   -0.3336   -0.9912 C   0  0  0  0  0  0  0  0  0  0  0  0
    3.1061    0.1071   -2.2074 C   0  0  0  0  0  0  0  0  0  0  0  0
    2.1917   -0.4269   -3.0655 N   0  0  0  0  0  0  0  0  0  0  0  0
    1.7623    0.6686   -3.7804 C   0  0  0  0  0  0  0  0  0  0  0  0
    0.6622    0.7742   -4.6653 C   0  0  0  0  0  0  0  0  0  0  0  0
    0.0948   -0.1845   -5.4551 N   0  0  0  0  0  0  0  0  0  0  0  0
    0.6953   -1.4239   -5.9588 C   0  0  0  0  0  0  0  0  0  0  0  0
    0.8369   -1.3946   -7.4825 C   0  0  0  0  0  0  0  0  0  0  0  0
    1.3882   -1.6147   -2.7556 C   0  0  0  0  0  0  0  0  0  0  0  0
    2.1246   -2.9144   -3.0876 C   0  0  0  0  0  0  0  0  0  0  0  0
    4.9508   -2.0123    2.2726 C   0  0  0  0  0  0  0  0  0  0  0  0
    4.4720   -2.0122    3.5347 C   0  0  0  0  0  0  0  0  0  0  0  0
    3.4241   -1.1234    4.0460 C   0  0  0  0  0  0  0  0  0  0  0  0
    3.0209   -0.0579    3.5066 O   0  0  0  0  0  0  0  0  0  0  0  0
    2.9009   -1.6690    5.2746 C   0  0  0  0  0  0  0  0  0  0  0  0
    1.9053   -1.0952    6.0992 C   0  0  0  0  0  0  0  0  0  0  0  0
    1.5890   -1.8570    7.2061 C   0  0  0  0  0  0  0  0  0  0  0  0
    2.1936   -3.1257    7.4801 C   0  0  0  0  0  0  0  0  0  0  0  0
    3.1867   -3.6822    6.6925 C   0  0  0  0  0  0  0  0  0  0  0  0
    3.5475   -2.9017    5.5550 C   0  0  0  0  0  0  0  0  0  0  0  0
    4.6131   -3.1240    4.5310 C   0  0  0  0  0  0  0  0  0  0  0  0
    5.5511   -4.1135    4.5309 C   0  0  0  0  0  0  0  0  0  0  0  0
    6.7405   -4.0496    3.7241 C   0  0  0  0  0  0  0  0  0  0  0  0
    7.7031   -4.0118    3.0757 N   0  0  0  0  0  0  0  0  0  0  0  0
    5.4527   -5.2849    5.3690 C   0  0  0  0  0  0  0  0  0  0  0  0
    5.3920   -6.2392    6.0253 N   0  0  0  0  0  0  0  0  0  0  0  0
    1.3671   -3.2728    8.7238 C   0  0  0  0  0  0  0  0  0  0  0  0
    2.0789   -3.0795   10.0990 C   0  0  0  0  0  0  0  0  0  0  0  0
    3.2322   -2.1143    9.9503 C   0  0  0  0  0  0  0  0  0  0  0  0
    2.6957   -0.9162    9.7004 C   0  0  0  0  0  0  0  0  0  0  0  0
    1.1963   -1.1068    9.6939 C   0  0  0  0  0  0  0  0  0  0  0  0
    1.0853   -2.1575   10.7837 C   0  0  0  0  0  0  0  0  0  0  0  0
    0.7678   -1.9589    8.4582 C   0  0  0  0  0  0  0  0  0  0  0  0
   -4.9260    1.3487   -7.3259 H   0  0  0  0  0  0  0  0  0  0  0  0
   -5.2649   -1.5051   -1.7894 H   0  0  0  0  0  0  0  0  0  0  0  0
   -6.7064   -0.5805   -1.3035 H   0  0  0  0  0  0  0  0  0  0  0  0
   -3.2597   -0.6420   -0.7917 H   0  0  0  0  0  0  0  0  0  0  0  0
   -1.9280    1.2233    0.1196 H   0  0  0  0  0  0  0  0  0  0  0  0
   -2.8703    3.5128    0.1814 H   0  0  0  0  0  0  0  0  0  0  0  0
   -5.1620    3.9432   -0.6622 H   0  0  0  0  0  0  0  0  0  0  0  0
   -6.5122    2.0840   -1.5831 H   0  0  0  0  0  0  0  0  0  0  0  0
   -2.4591   -1.0571   -6.6509 H   0  0  0  0  0  0  0  0  0  0  0  0
   -4.0403    3.2122   -4.9677 H   0  0  0  0  0  0  0  0  0  0  0  0
   -2.4818    3.7028   -4.2747 H   0  0  0  0  0  0  0  0  0  0  0  0
   -3.4965    5.3296   -5.9826 H   0  0  0  0  0  0  0  0  0  0  0  0
   -3.2561    4.0704   -7.2464 H   0  0  0  0  0  0  0  0  0  0  0  0
   -1.8222    4.7837   -6.4136 H   0  0  0  0  0  0  0  0  0  0  0  0
    6.4571    1.3809    1.4501 H   0  0  0  0  0  0  0  0  0  0  0  0
    5.7551    0.5560    2.8702 H   0  0  0  0  0  0  0  0  0  0  0  0
    3.7455    2.2004    2.7031 H   0  0  0  0  0  0  0  0  0  0  0  0
    5.3411    2.8848    3.1915 H   0  0  0  0  0  0  0  0  0  0  0  0
    4.7498    3.1276    1.5206 H   0  0  0  0  0  0  0  0  0  0  0  0
    0.0762   -2.2977   -5.6546 H   0  0  0  0  0  0  0  0  0  0  0  0
    1.7188   -1.5262   -5.5540 H   0  0  0  0  0  0  0  0  0  0  0  0
   -0.1615   -1.4459   -7.9649 H   0  0  0  0  0  0  0  0  0  0  0  0
    1.4339   -2.2690   -7.8184 H   0  0  0  0  0  0  0  0  0  0  0  0
    1.3560   -0.4663   -7.8021 H   0  0  0  0  0  0  0  0  0  0  0  0
    1.1407   -1.6266   -1.6684 H   0  0  0  0  0  0  0  0  0  0  0  0
    0.4084   -1.5975   -3.2806 H   0  0  0  0  0  0  0  0  0  0  0  0
    1.4344   -3.7649   -2.9368 H   0  0  0  0  0  0  0  0  0  0  0  0
    3.0014   -3.0569   -2.4327 H   0  0  0  0  0  0  0  0  0  0  0  0
    2.4888   -2.9327   -4.1314 H   0  0  0  0  0  0  0  0  0  0  0  0
    5.5217   -2.8537    1.9204 H   0  0  0  0  0  0  0  0  0  0  0  0
    1.4446   -0.1334    5.9024 H   0  0  0  0  0  0  0  0  0  0  0  0
    3.6343   -4.6184    6.9772 H   0  0  0  0  0  0  0  0  0  0  0  0
    0.6381   -4.1134    8.6847 H   0  0  0  0  0  0  0  0  0  0  0  0
    2.3242   -4.0143   10.6445 H   0  0  0  0  0  0  0  0  0  0  0  0
    4.2904   -2.3354   10.0723 H   0  0  0  0  0  0  0  0  0  0  0  0
    3.2479    0.0126    9.5824 H   0  0  0  0  0  0  0  0  0  0  0  0
    0.6024   -0.1841    9.8561 H   0  0  0  0  0  0  0  0  0  0  0  0
    1.4285   -1.7992   11.7837 H   0  0  0  0  0  0  0  0  0  0  0  0
    0.0650   -2.5992   10.8790 H   0  0  0  0  0  0  0  0  0  0  0  0
   -0.3289   -2.0020    8.2759 H   0  0  0  0  0  0  0  0  0  0  0  0
  1  2  2  3
  2  3  1  0
  3  4  1  0
  4  5  2  3
  5  6  1  0
  6  7  3  0
  5  8  1  0
  8  9  3  0
  4 10  1  0
 10 11  1  0
 11 12  1  0
 12 13  2  0
 13 14  1  0
 14 15  2  0
 15 16  1  0
 16 17  2  0
 10 18  1  0
 18 19  2  0
  1 20  1  0
 20 21  2  0
 21 22  1  0
 22 23  2  0
 23 24  1  0
 24 25  1  0
 25 26  1  0
 23 27  1  0
 27 28  1  0
 28 29  1  0
 29 30  2  0
 30 31  1  0
 31 32  1  0
 29 33  1  0
 33 34  1  0
 34 35  1  0
 35 36  1  0
 36 37  1  0
 37 38  1  0
 38 39  1  0
 37 40  2  0
 40 41  1  0
 41 42  1  0
 42 43  1  0
 43 44  1  0
 44 45  1  0
 45 46  1  0
 46 47  1  0
 47 48  1  0
 48 49  1  0
 44 50  1  0
 50 51  1  0
 40 52  1  0
 52 53  2  3
 53 54  1  0
 54 55  2  0
 54 56  1  0
 56 57  2  0
 57 58  1  0
 58 59  2  0
 59 60  1  0
 60 61  2  0
 61 62  1  0
 62 63  2  3
 63 64  1  0
 64 65  3  0
 63 66  1  0
 66 67  3  0
 59 68  1  0
 68 69  1  0
 69 70  1  0
 70 71  2  0
 71 72  1  0
 72 73  1  0
 72 74  1  0
 18  2  1  0
 24 20  1  0
 46 27  2  0
 62 53  1  0
 74 68  1  0
 17 12  1  0
 47 22  1  0
 61 56  1  0
 73 69  1  0
 32 28  2  0
 45 33  2  0
 74 58  1  0
 43 34  2  0
 42 36  2  0
  1 75  1  0
 11 76  1  0
 11 77  1  0
 13 78  1  0
 14 79  1  0
 15 80  1  0
 16 81  1  0
 17 82  1  0
 21 83  1  0
 25 84  1  0
 25 85  1  0
 26 86  1  0
 26 87  1  0
 26 88  1  0
 38 89  1  0
 38 90  1  0
 39 91  1  0
 39 92  1  0
 39 93  1  0
 48 94  1  0
 48 95  1  0
 49 96  1  0
 49 97  1  0
 49 98  1  0
 50 99  1  0
 50100  1  0
 51101  1  0
 51102  1  0
 51103  1  0
 52104  1  0
 57105  1  0
 60106  1  0
 68107  1  0
 69108  1  0
 70109  1  0
 71110  1  0
 72111  1  0
 73112  1  0
 73113  1  0
 74114  1  0
M  END

