
     RDKit          3D

161177  0  0  0  0  0  0  0  0999 V2000
    3.9311    7.0176    0.1991 C   0  0  0  0  0  0  0  0  0  0  0  0
    3.4687    7.4109    1.4008 C   0  0  0  0  0  0  0  0  0  0  0  0
    2.9520    8.9687    1.6729 S   0  0  0  0  0  0  0  0  0  0  0  0
    2.0896    8.6443    3.1032 C   0  0  0  0  0  0  0  0  0  0  0  0
    1.2947    9.5762    3.6791 C   0  0  0  0  0  0  0  0  0  0  0  0
    0.6332    9.4464    4.9420 C   0  0  0  0  0  0  0  0  0  0  0  0
    0.0609    9.3975    5.9489 N   0  0  0  0  0  0  0  0  0  0  0  0
    0.8730   10.7254    2.9198 C   0  0  0  0  0  0  0  0  0  0  0  0
    0.4403   11.6087    2.3018 N   0  0  0  0  0  0  0  0  0  0  0  0
    2.3003    7.3356    3.4669 N   0  0  0  0  0  0  0  0  0  0  0  0
    1.7083    6.6632    4.6371 C   0  0  0  0  0  0  0  0  0  0  0  0
    0.2201    6.3869    4.4603 C   0  0  0  0  0  0  0  0  0  0  0  0
   -0.6123    6.3916    5.6041 C   0  0  0  0  0  0  0  0  0  0  0  0
   -1.9597    6.0511    5.5137 C   0  0  0  0  0  0  0  0  0  0  0  0
   -2.4976    5.6546    4.2923 C   0  0  0  0  0  0  0  0  0  0  0  0
   -1.6651    5.5814    3.1634 C   0  0  0  0  0  0  0  0  0  0  0  0
   -0.3281    5.9493    3.2259 C   0  0  0  0  0  0  0  0  0  0  0  0
    2.9661    6.6381    2.4764 C   0  0  0  0  0  0  0  0  0  0  0  0
    2.8921    5.3945    2.4046 O   0  0  0  0  0  0  0  0  0  0  0  0
    4.1187    5.6301   -0.2815 C   0  0  0  0  0  0  0  0  0  0  0  0
    3.1790    5.0449   -1.5722 S   0  0  0  0  0  0  0  0  0  0  0  0
    3.5520    3.4492   -1.2910 C   0  0  0  0  0  0  0  0  0  0  0  0
    2.7543    2.3398   -1.2361 C   0  0  0  0  0  0  0  0  0  0  0  0
    1.0852    2.1805   -1.2827 S   0  0  0  0  0  0  0  0  0  0  0  0
    1.1103    0.8566   -0.2204 C   0  0  0  0  0  0  0  0  0  0  0  0
    0.3292   -0.3432   -0.3267 C   0  0  0  0  0  0  0  0  0  0  0  0
   -1.0242   -0.4556   -0.6598 C   0  0  0  0  0  0  0  0  0  0  0  0
   -1.5271   -1.7330   -0.8467 C   0  0  0  0  0  0  0  0  0  0  0  0
   -2.9416   -2.0948   -1.2163 C   0  0  0  0  0  0  0  0  0  0  0  0
   -3.8022   -1.8161    0.0231 C   0  0  0  0  0  0  0  0  0  0  0  0
   -3.7524   -2.6968    1.1320 C   0  0  0  0  0  0  0  0  0  0  0  0
   -4.3604   -2.3635    2.3456 C   0  0  0  0  0  0  0  0  0  0  0  0
   -5.0400   -1.1397    2.4787 C   0  0  0  0  0  0  0  0  0  0  0  0
   -5.7065   -0.7863    3.7838 C   0  0  0  0  0  0  0  0  0  0  0  0
   -4.6731   -0.5076    4.8676 C   0  0  0  0  0  0  0  0  0  0  0  0
   -5.0469   -0.2377    1.4076 C   0  0  0  0  0  0  0  0  0  0  0  0
   -4.4028   -0.5567    0.2096 C   0  0  0  0  0  0  0  0  0  0  0  0
   -3.4497   -1.4119   -2.4975 C   0  0  0  0  0  0  0  0  0  0  0  0
   -4.8253   -1.4004   -2.8049 C   0  0  0  0  0  0  0  0  0  0  0  0
   -5.3136   -0.6805   -3.8990 C   0  0  0  0  0  0  0  0  0  0  0  0
   -4.4409    0.0541   -4.7115 C   0  0  0  0  0  0  0  0  0  0  0  0
   -4.9711    0.9073   -5.8287 C   0  0  0  0  0  0  0  0  0  0  0  0
   -4.9898    0.1550   -7.1501 C   0  0  0  0  0  0  0  0  0  0  0  0
   -3.0623   -0.0253   -4.4834 C   0  0  0  0  0  0  0  0  0  0  0  0
   -2.5648   -0.7628   -3.3973 C   0  0  0  0  0  0  0  0  0  0  0  0
   -2.7578   -3.5726   -1.4650 C   0  0  0  0  0  0  0  0  0  0  0  0
   -1.5093   -3.9969   -1.1150 C   0  0  0  0  0  0  0  0  0  0  0  0
   -0.7064   -2.8609   -0.7269 C   0  0  0  0  0  0  0  0  0  0  0  0
    0.6405   -2.7540   -0.3395 C   0  0  0  0  0  0  0  0  0  0  0  0
    1.1433   -1.4384   -0.1119 C   0  0  0  0  0  0  0  0  0  0  0  0
    2.5489   -1.0005    0.2448 C   0  0  0  0  0  0  0  0  0  0  0  0
    2.8130   -1.5448    1.6411 C   0  0  0  0  0  0  0  0  0  0  0  0
    2.2021   -0.9473    2.7671 C   0  0  0  0  0  0  0  0  0  0  0  0
    2.3280   -1.5079    4.0400 C   0  0  0  0  0  0  0  0  0  0  0  0
    3.0855   -2.6843    4.2173 C   0  0  0  0  0  0  0  0  0  0  0  0
    3.2734   -3.2899    5.5796 C   0  0  0  0  0  0  0  0  0  0  0  0
    2.2239   -4.3504    5.8700 C   0  0  0  0  0  0  0  0  0  0  0  0
    3.6222   -3.3300    3.1006 C   0  0  0  0  0  0  0  0  0  0  0  0
    3.4690   -2.7754    1.8287 C   0  0  0  0  0  0  0  0  0  0  0  0
    3.5987   -1.4300   -0.7898 C   0  0  0  0  0  0  0  0  0  0  0  0
    3.2461   -1.8542   -2.0910 C   0  0  0  0  0  0  0  0  0  0  0  0
    4.2277   -2.0745   -3.0620 C   0  0  0  0  0  0  0  0  0  0  0  0
    5.5725   -1.8710   -2.7523 C   0  0  0  0  0  0  0  0  0  0  0  0
    6.6151   -1.9519   -3.8279 C   0  0  0  0  0  0  0  0  0  0  0  0
    6.9369   -0.5548   -4.3552 C   0  0  0  0  0  0  0  0  0  0  0  0
    5.9449   -1.5208   -1.4481 C   0  0  0  0  0  0  0  0  0  0  0  0
    4.9676   -1.2901   -0.4817 C   0  0  0  0  0  0  0  0  0  0  0  0
    2.4017    0.5330    0.2049 C   0  0  0  0  0  0  0  0  0  0  0  0
    3.2883    1.4962   -0.3111 C   0  0  0  0  0  0  0  0  0  0  0  0
    4.3575    2.0844    0.3112 N   0  0  0  0  0  0  0  0  0  0  0  0
    4.4339    3.3264   -0.2469 C   0  0  0  0  0  0  0  0  0  0  0  0
    4.7414    4.5440    0.3706 C   0  0  0  0  0  0  0  0  0  0  0  0
    4.9437    1.7194    1.5568 C   0  0  0  0  0  0  0  0  0  0  0  0
    4.2228    1.5706    2.7424 C   0  0  0  0  0  0  0  0  0  0  0  0
    5.0273    1.0154    3.7164 C   0  0  0  0  0  0  0  0  0  0  0  0
    4.7551    0.4753    5.2773 S   0  0  0  0  0  0  0  0  0  0  0  0
    6.3148   -0.1689    5.4455 C   0  0  0  0  0  0  0  0  0  0  0  0
    6.8078   -0.9019    6.6590 C   0  0  0  0  0  0  0  0  0  0  0  0
    6.6787   -0.0258    7.9069 C   0  0  0  0  0  0  0  0  0  0  0  0
    7.0471    0.0214    4.2690 C   0  0  0  0  0  0  0  0  0  0  0  0
    6.2853    0.6965    3.3324 C   0  0  0  0  0  0  0  0  0  0  0  0
    6.5411    1.1539    1.7391 S   0  0  0  0  0  0  0  0  0  0  0  0
   -1.2014   -5.5291   -1.7382 S   0  0  0  0  0  0  0  0  0  0  0  0
   -2.7347   -5.6304   -2.4979 C   0  0  0  0  0  0  0  0  0  0  0  0
   -3.4745   -4.4719   -2.2273 C   0  0  0  0  0  0  0  0  0  0  0  0
   -3.1441   -6.6795   -3.4416 C   0  0  0  0  0  0  0  0  0  0  0  0
   -3.7469   -6.4123   -4.6188 C   0  0  0  0  0  0  0  0  0  0  0  0
   -4.6247   -7.3597   -5.3140 C   0  0  0  0  0  0  0  0  0  0  0  0
   -4.6863   -8.5944   -5.0942 O   0  0  0  0  0  0  0  0  0  0  0  0
   -5.4777   -6.6129   -6.2202 C   0  0  0  0  0  0  0  0  0  0  0  0
   -6.5437   -7.0523   -7.0037 C   0  0  0  0  0  0  0  0  0  0  0  0
   -7.2843   -6.0959   -7.7352 C   0  0  0  0  0  0  0  0  0  0  0  0
   -8.6090   -6.6317   -8.7468 Cl  0  0  0  0  0  0  0  0  0  0  0  0
   -6.9760   -4.7203   -7.6201 C   0  0  0  0  0  0  0  0  0  0  0  0
   -7.9594   -3.4976   -8.4099 Cl  0  0  0  0  0  0  0  0  0  0  0  0
   -5.9058   -4.3070   -6.8086 C   0  0  0  0  0  0  0  0  0  0  0  0
   -5.1313   -5.2696   -6.1554 C   0  0  0  0  0  0  0  0  0  0  0  0
   -3.9220   -5.0979   -5.3110 C   0  0  0  0  0  0  0  0  0  0  0  0
   -2.9637   -4.1727   -5.5340 C   0  0  0  0  0  0  0  0  0  0  0  0
   -1.6513   -4.2372   -4.9539 C   0  0  0  0  0  0  0  0  0  0  0  0
   -0.5863   -4.2691   -4.5021 N   0  0  0  0  0  0  0  0  0  0  0  0
   -3.0722   -3.2237   -6.6055 C   0  0  0  0  0  0  0  0  0  0  0  0
   -3.1392   -2.4974   -7.4981 N   0  0  0  0  0  0  0  0  0  0  0  0
    3.7964    7.7346   -0.6148 H   0  0  0  0  0  0  0  0  0  0  0  0
    1.9329    7.2603    5.5306 H   0  0  0  0  0  0  0  0  0  0  0  0
    2.2058    5.6788    4.7927 H   0  0  0  0  0  0  0  0  0  0  0  0
   -0.2025    6.6482    6.5911 H   0  0  0  0  0  0  0  0  0  0  0  0
   -2.5706    6.0845    6.4032 H   0  0  0  0  0  0  0  0  0  0  0  0
   -3.5536    5.4125    4.1979 H   0  0  0  0  0  0  0  0  0  0  0  0
   -2.0821    5.2549    2.2144 H   0  0  0  0  0  0  0  0  0  0  0  0
    0.3041    5.8678    2.3465 H   0  0  0  0  0  0  0  0  0  0  0  0
   -1.6475    0.4233   -0.8075 H   0  0  0  0  0  0  0  0  0  0  0  0
   -3.1860   -3.6165    1.0921 H   0  0  0  0  0  0  0  0  0  0  0  0
   -4.2853   -3.0492    3.1804 H   0  0  0  0  0  0  0  0  0  0  0  0
   -6.3362    0.1148    3.6447 H   0  0  0  0  0  0  0  0  0  0  0  0
   -6.3609   -1.6264    4.1004 H   0  0  0  0  0  0  0  0  0  0  0  0
   -4.0113   -1.3851    5.0169 H   0  0  0  0  0  0  0  0  0  0  0  0
   -5.1937   -0.2988    5.8336 H   0  0  0  0  0  0  0  0  0  0  0  0
   -4.0609    0.3703    4.5886 H   0  0  0  0  0  0  0  0  0  0  0  0
   -5.5238    0.7360    1.5111 H   0  0  0  0  0  0  0  0  0  0  0  0
   -4.4231    0.1874   -0.5868 H   0  0  0  0  0  0  0  0  0  0  0  0
   -5.5286   -1.9203   -2.1694 H   0  0  0  0  0  0  0  0  0  0  0  0
   -6.3755   -0.6759   -4.0915 H   0  0  0  0  0  0  0  0  0  0  0  0
   -5.9986    1.2372   -5.5801 H   0  0  0  0  0  0  0  0  0  0  0  0
   -4.3521    1.8243   -5.9351 H   0  0  0  0  0  0  0  0  0  0  0  0
   -5.5239   -0.8131   -7.0343 H   0  0  0  0  0  0  0  0  0  0  0  0
   -5.5184    0.7693   -7.9061 H   0  0  0  0  0  0  0  0  0  0  0  0
   -3.9552   -0.0284   -7.5051 H   0  0  0  0  0  0  0  0  0  0  0  0
   -2.3633    0.5176   -5.1201 H   0  0  0  0  0  0  0  0  0  0  0  0
   -1.4969   -0.7699   -3.2569 H   0  0  0  0  0  0  0  0  0  0  0  0
    1.2800   -3.6305   -0.2618 H   0  0  0  0  0  0  0  0  0  0  0  0
    1.5904   -0.0610    2.6713 H   0  0  0  0  0  0  0  0  0  0  0  0
    1.8495   -1.0387    4.8990 H   0  0  0  0  0  0  0  0  0  0  0  0
    4.2858   -3.7564    5.6353 H   0  0  0  0  0  0  0  0  0  0  0  0
    3.2327   -2.5016    6.3632 H   0  0  0  0  0  0  0  0  0  0  0  0
    1.2091   -3.8898    5.8572 H   0  0  0  0  0  0  0  0  0  0  0  0
    2.2625   -5.1631    5.1091 H   0  0  0  0  0  0  0  0  0  0  0  0
    2.4058   -4.7981    6.8747 H   0  0  0  0  0  0  0  0  0  0  0  0
    4.1540   -4.2733    3.2062 H   0  0  0  0  0  0  0  0  0  0  0  0
    3.8253   -3.3485    0.9928 H   0  0  0  0  0  0  0  0  0  0  0  0
    2.2126   -1.9726   -2.4013 H   0  0  0  0  0  0  0  0  0  0  0  0
    3.9389   -2.3658   -4.0642 H   0  0  0  0  0  0  0  0  0  0  0  0
    7.5454   -2.4083   -3.4183 H   0  0  0  0  0  0  0  0  0  0  0  0
    6.2625   -2.5867   -4.6651 H   0  0  0  0  0  0  0  0  0  0  0  0
    6.0291   -0.0899   -4.7993 H   0  0  0  0  0  0  0  0  0  0  0  0
    7.7197   -0.6313   -5.1415 H   0  0  0  0  0  0  0  0  0  0  0  0
    7.3124    0.0885   -3.5335 H   0  0  0  0  0  0  0  0  0  0  0  0
    6.9904   -1.3812   -1.1917 H   0  0  0  0  0  0  0  0  0  0  0  0
    5.2761   -1.0091    0.5073 H   0  0  0  0  0  0  0  0  0  0  0  0
    5.1606    4.6349    1.3440 H   0  0  0  0  0  0  0  0  0  0  0  0
    3.1782    1.8268    2.8642 H   0  0  0  0  0  0  0  0  0  0  0  0
    7.8883   -1.1648    6.5328 H   0  0  0  0  0  0  0  0  0  0  0  0
    6.2190   -1.8460    6.7968 H   0  0  0  0  0  0  0  0  0  0  0  0
    7.2071    0.9438    7.7646 H   0  0  0  0  0  0  0  0  0  0  0  0
    5.6174    0.1916    8.1273 H   0  0  0  0  0  0  0  0  0  0  0  0
    7.1290   -0.5481    8.7827 H   0  0  0  0  0  0  0  0  0  0  0  0
    8.0563   -0.3396    4.0953 H   0  0  0  0  0  0  0  0  0  0  0  0
   -4.4509   -4.2507   -2.6517 H   0  0  0  0  0  0  0  0  0  0  0  0
   -3.0599   -7.6969   -3.0886 H   0  0  0  0  0  0  0  0  0  0  0  0
   -6.7839   -8.1027   -7.0553 H   0  0  0  0  0  0  0  0  0  0  0  0
   -5.6887   -3.2549   -6.7007 H   0  0  0  0  0  0  0  0  0  0  0  0
  1  2  2  3
  2  3  1  0
  3  4  1  0
  4  5  2  3
  5  6  1  0
  6  7  3  0
  5  8  1  0
  8  9  3  0
  4 10  1  0
 10 11  1  0
 11 12  1  0
 12 13  2  0
 13 14  1  0
 14 15  2  0
 15 16  1  0
 16 17  2  0
 10 18  1  0
 18 19  2  0
  1 20  1  0
 20 21  1  0
 21 22  1  0
 22 23  1  0
 23 24  1  0
 24 25  1  0
 25 26  1  0
 26 27  2  0
 27 28  1  0
 28 29  1  0
 29 30  1  0
 30 31  2  0
 31 32  1  0
 32 33  2  0
 33 34  1  0
 34 35  1  0
 33 36  1  0
 36 37  2  0
 29 38  1  0
 38 39  2  0
 39 40  1  0
 40 41  2  0
 41 42  1  0
 42 43  1  0
 41 44  1  0
 44 45  2  0
 29 46  1  0
 46 47  2  0
 47 48  1  0
 48 49  1  0
 49 50  2  0
 50 51  1  0
 51 52  1  0
 52 53  2  0
 53 54  1  0
 54 55  2  0
 55 56  1  0
 56 57  1  0
 55 58  1  0
 58 59  2  0
 51 60  1  0
 60 61  2  0
 61 62  1  0
 62 63  2  0
 63 64  1  0
 64 65  1  0
 63 66  1  0
 66 67  2  0
 51 68  1  0
 68 69  1  0
 69 70  1  0
 70 71  1  0
 71 72  1  0
 70 73  1  0
 73 74  2  0
 74 75  1  0
 75 76  1  0
 76 77  1  0
 77 78  1  0
 78 79  1  0
 77 80  2  0
 80 81  1  0
 81 82  1  0
 47 83  1  0
 83 84  1  0
 84 85  2  0
 84 86  1  0
 86 87  2  3
 87 88  1  0
 88 89  2  0
 88 90  1  0
 90 91  2  0
 91 92  1  0
 92 93  1  0
 92 94  2  0
 94 95  1  0
 94 96  1  0
 96 97  2  0
 97 98  1  0
 98 99  2  3
 99100  1  0
100101  3  0
 99102  1  0
102103  3  0
 18  2  1  0
 72 20  2  0
 82 73  1  0
 98 87  1  0
 17 12  1  0
 71 22  2  0
 81 75  2  0
 97 90  1  0
 69 23  2  0
 68 25  2  0
 50 26  1  0
 59 52  1  0
 67 60  1  0
 48 28  2  0
 37 30  1  0
 45 38  1  0
 85 46  1  0
  1104  1  0
 11105  1  0
 11106  1  0
 13107  1  0
 14108  1  0
 15109  1  0
 16110  1  0
 17111  1  0
 27112  1  0
 31113  1  0
 32114  1  0
 34115  1  0
 34116  1  0
 35117  1  0
 35118  1  0
 35119  1  0
 36120  1  0
 37121  1  0
 39122  1  0
 40123  1  0
 42124  1  0
 42125  1  0
 43126  1  0
 43127  1  0
 43128  1  0
 44129  1  0
 45130  1  0
 49131  1  0
 53132  1  0
 54133  1  0
 56134  1  0
 56135  1  0
 57136  1  0
 57137  1  0
 57138  1  0
 58139  1  0
 59140  1  0
 61141  1  0
 62142  1  0
 64143  1  0
 64144  1  0
 65145  1  0
 65146  1  0
 65147  1  0
 66148  1  0
 67149  1  0
 72150  1  0
 74151  1  0
 78152  1  0
 78153  1  0
 79154  1  0
 79155  1  0
 79156  1  0
 80157  1  0
 85158  1  0
 86159  1  0
 91160  1  0
 96161  1  0
M  END

