
     RDKit          3D

123136  0  0  0  0  0  0  0  0999 V2000
    3.9302    6.7244   -2.9408 C   0  0  0  0  0  0  0  0  0  0  0  0
    4.8591    5.9701   -3.5361 C   0  0  0  0  0  0  0  0  0  0  0  0
    5.4343    6.2294   -5.0866 S   0  0  0  0  0  0  0  0  0  0  0  0
    6.3178    4.7809   -5.1692 C   0  0  0  0  0  0  0  0  0  0  0  0
    6.9477    4.3755   -6.3061 C   0  0  0  0  0  0  0  0  0  0  0  0
    6.8579    5.1634   -7.5135 C   0  0  0  0  0  0  0  0  0  0  0  0
    6.7821    5.7897   -8.4903 N   0  0  0  0  0  0  0  0  0  0  0  0
    7.7028    3.1545   -6.4283 C   0  0  0  0  0  0  0  0  0  0  0  0
    8.3319    2.1911   -6.5410 N   0  0  0  0  0  0  0  0  0  0  0  0
    6.2393    4.1208   -3.9621 N   0  0  0  0  0  0  0  0  0  0  0  0
    6.8920    2.8521   -3.5932 C   0  0  0  0  0  0  0  0  0  0  0  0
    6.0961    1.6351   -4.0122 C   0  0  0  0  0  0  0  0  0  0  0  0
    4.7049    1.6882   -4.2453 C   0  0  0  0  0  0  0  0  0  0  0  0
    3.9880    0.5219   -4.5115 C   0  0  0  0  0  0  0  0  0  0  0  0
    4.6376   -0.7160   -4.5285 C   0  0  0  0  0  0  0  0  0  0  0  0
    6.0102   -0.7821   -4.2975 C   0  0  0  0  0  0  0  0  0  0  0  0
    6.7372    0.3837   -4.0336 C   0  0  0  0  0  0  0  0  0  0  0  0
    5.4117    4.7683   -3.0802 C   0  0  0  0  0  0  0  0  0  0  0  0
    5.1732    4.3039   -1.9330 O   0  0  0  0  0  0  0  0  0  0  0  0
    3.0729    6.1845   -1.8837 C   0  0  0  0  0  0  0  0  0  0  0  0
    3.1724    6.4340   -0.5052 C   0  0  0  0  0  0  0  0  0  0  0  0
    4.1356    7.3600    0.1074 C   0  0  0  0  0  0  0  0  0  0  0  0
    5.1943    6.8715    0.8883 C   0  0  0  0  0  0  0  0  0  0  0  0
    6.1592    7.7511    1.3848 C   0  0  0  0  0  0  0  0  0  0  0  0
    6.0521    9.1248    1.1374 C   0  0  0  0  0  0  0  0  0  0  0  0
    4.9829    9.6264    0.3729 C   0  0  0  0  0  0  0  0  0  0  0  0
    4.8497   11.1079    0.1445 C   0  0  0  0  0  0  0  0  0  0  0  0
    4.1795   11.7756    1.3431 C   0  0  0  0  0  0  0  0  0  0  0  0
    4.0267    8.7379   -0.1389 C   0  0  0  0  0  0  0  0  0  0  0  0
    2.2891    5.6182    0.2090 C   0  0  0  0  0  0  0  0  0  0  0  0
    1.9650    5.3428    1.8696 S   0  0  0  0  0  0  0  0  0  0  0  0
    0.7916    4.1697    1.4818 C   0  0  0  0  0  0  0  0  0  0  0  0
    0.0956    3.1535    2.0839 C   0  0  0  0  0  0  0  0  0  0  0  0
    0.0712    2.6806    3.4041 C   0  0  0  0  0  0  0  0  0  0  0  0
   -0.5937    1.4408    3.6793 C   0  0  0  0  0  0  0  0  0  0  0  0
   -0.5874    1.0096    4.9659 N   0  0  0  0  0  0  0  0  0  0  0  0
    0.2767    2.2360    5.6639 S   0  0  0  0  0  0  0  0  0  0  0  0
    0.6575    3.3040    4.4543 N   0  0  0  0  0  0  0  0  0  0  0  0
   -1.2209    0.7693    2.6212 C   0  0  0  0  0  0  0  0  0  0  0  0
   -2.0252   -0.3402    2.5706 C   0  0  0  0  0  0  0  0  0  0  0  0
   -2.6391   -1.5744    3.5678 S   0  0  0  0  0  0  0  0  0  0  0  0
   -3.5532   -2.2091    2.2622 C   0  0  0  0  0  0  0  0  0  0  0  0
   -4.2932   -3.3740    2.0734 C   0  0  0  0  0  0  0  0  0  0  0  0
   -4.5111   -4.3941    3.1098 C   0  0  0  0  0  0  0  0  0  0  0  0
   -3.6414   -5.4896    3.2215 C   0  0  0  0  0  0  0  0  0  0  0  0
   -3.8899   -6.4893    4.1655 C   0  0  0  0  0  0  0  0  0  0  0  0
   -5.0028   -6.4034    5.0057 C   0  0  0  0  0  0  0  0  0  0  0  0
   -5.8681   -5.2990    4.9190 C   0  0  0  0  0  0  0  0  0  0  0  0
   -7.0878   -5.2280    5.7973 C   0  0  0  0  0  0  0  0  0  0  0  0
   -8.2954   -5.8380    5.0919 C   0  0  0  0  0  0  0  0  0  0  0  0
   -5.6222   -4.2987    3.9608 C   0  0  0  0  0  0  0  0  0  0  0  0
   -4.6920   -3.5018    0.7298 C   0  0  0  0  0  0  0  0  0  0  0  0
   -4.1266   -2.1812   -0.1878 S   0  0  0  0  0  0  0  0  0  0  0  0
   -3.3886   -1.4575    1.1294 C   0  0  0  0  0  0  0  0  0  0  0  0
   -2.5085   -0.4124    1.3069 C   0  0  0  0  0  0  0  0  0  0  0  0
   -2.0881    0.5932    0.5057 N   0  0  0  0  0  0  0  0  0  0  0  0
   -1.2236    1.2775    1.3148 C   0  0  0  0  0  0  0  0  0  0  0  0
   -0.4617    2.4223    1.0259 C   0  0  0  0  0  0  0  0  0  0  0  0
   -0.0121    2.8607   -0.1889 N   0  0  0  0  0  0  0  0  0  0  0  0
    0.6825    3.9754    0.1399 C   0  0  0  0  0  0  0  0  0  0  0  0
    1.5353    4.7885   -0.5777 C   0  0  0  0  0  0  0  0  0  0  0  0
    1.9176    4.9785   -2.1921 S   0  0  0  0  0  0  0  0  0  0  0  0
    0.3292    2.0052   -1.3388 C   0  0  0  0  0  0  0  0  0  0  0  0
    1.7166    1.3869   -1.1658 C   0  0  0  0  0  0  0  0  0  0  0  0
   -2.8730    1.1352   -0.6187 C   0  0  0  0  0  0  0  0  0  0  0  0
   -4.1948    1.7194   -0.1196 C   0  0  0  0  0  0  0  0  0  0  0  0
   -5.2196   -4.7209    0.1067 C   0  0  0  0  0  0  0  0  0  0  0  0
   -4.4079   -5.6236   -0.4747 C   0  0  0  0  0  0  0  0  0  0  0  0
   -2.9460   -5.6790   -0.3377 C   0  0  0  0  0  0  0  0  0  0  0  0
   -2.1996   -4.7668    0.1025 O   0  0  0  0  0  0  0  0  0  0  0  0
   -2.4897   -6.9807   -0.7903 C   0  0  0  0  0  0  0  0  0  0  0  0
   -1.2207   -7.5582   -0.6716 C   0  0  0  0  0  0  0  0  0  0  0  0
    0.1389   -6.6271   -0.0524 Cl  0  0  0  0  0  0  0  0  0  0  0  0
   -1.0636   -8.9124   -1.0398 C   0  0  0  0  0  0  0  0  0  0  0  0
    0.5236   -9.6685   -0.9217 Cl  0  0  0  0  0  0  0  0  0  0  0  0
   -2.1841   -9.6713   -1.4499 C   0  0  0  0  0  0  0  0  0  0  0  0
   -1.9940  -11.3872   -1.8239 Cl  0  0  0  0  0  0  0  0  0  0  0  0
   -3.4619   -9.0731   -1.5283 C   0  0  0  0  0  0  0  0  0  0  0  0
   -4.8830  -10.0976   -1.7747 Cl  0  0  0  0  0  0  0  0  0  0  0  0
   -3.5789   -7.6924   -1.2646 C   0  0  0  0  0  0  0  0  0  0  0  0
   -4.7947   -6.8286   -1.2539 C   0  0  0  0  0  0  0  0  0  0  0  0
   -5.7687   -6.8422   -2.2006 C   0  0  0  0  0  0  0  0  0  0  0  0
   -6.8418   -5.8816   -2.2053 C   0  0  0  0  0  0  0  0  0  0  0  0
   -7.7114   -5.1191   -2.2112 N   0  0  0  0  0  0  0  0  0  0  0  0
   -5.6181   -7.6076   -3.4114 C   0  0  0  0  0  0  0  0  0  0  0  0
   -5.4791   -8.2006   -4.3925 N   0  0  0  0  0  0  0  0  0  0  0  0
    3.6195    7.6454   -3.4044 H   0  0  0  0  0  0  0  0  0  0  0  0
    7.0245    2.8054   -2.4885 H   0  0  0  0  0  0  0  0  0  0  0  0
    7.9302    2.8220   -3.9762 H   0  0  0  0  0  0  0  0  0  0  0  0
    4.1603    2.6223   -4.2114 H   0  0  0  0  0  0  0  0  0  0  0  0
    2.9164    0.5650   -4.6675 H   0  0  0  0  0  0  0  0  0  0  0  0
    4.0727   -1.6178   -4.7237 H   0  0  0  0  0  0  0  0  0  0  0  0
    6.5152   -1.7417   -4.3036 H   0  0  0  0  0  0  0  0  0  0  0  0
    7.7996    0.3113   -3.8305 H   0  0  0  0  0  0  0  0  0  0  0  0
    5.2898    5.8092    1.0771 H   0  0  0  0  0  0  0  0  0  0  0  0
    6.9938    7.3704    1.9620 H   0  0  0  0  0  0  0  0  0  0  0  0
    6.8037    9.7928    1.5318 H   0  0  0  0  0  0  0  0  0  0  0  0
    4.2457   11.3040   -0.7667 H   0  0  0  0  0  0  0  0  0  0  0  0
    5.8537   11.5576   -0.0195 H   0  0  0  0  0  0  0  0  0  0  0  0
    3.1772   11.3275    1.5207 H   0  0  0  0  0  0  0  0  0  0  0  0
    4.8085   11.6621    2.2514 H   0  0  0  0  0  0  0  0  0  0  0  0
    4.0515   12.8628    1.1383 H   0  0  0  0  0  0  0  0  0  0  0  0
    3.1960    9.1112   -0.7316 H   0  0  0  0  0  0  0  0  0  0  0  0
   -2.7825   -5.5725    2.5755 H   0  0  0  0  0  0  0  0  0  0  0  0
   -3.2201   -7.3389    4.2432 H   0  0  0  0  0  0  0  0  0  0  0  0
   -5.1806   -7.1833    5.7322 H   0  0  0  0  0  0  0  0  0  0  0  0
   -6.9069   -5.7697    6.7516 H   0  0  0  0  0  0  0  0  0  0  0  0
   -7.3102   -4.1690    6.0565 H   0  0  0  0  0  0  0  0  0  0  0  0
   -9.1729   -5.8225    5.7739 H   0  0  0  0  0  0  0  0  0  0  0  0
   -8.0875   -6.8914    4.8064 H   0  0  0  0  0  0  0  0  0  0  0  0
   -8.5449   -5.2503    4.1813 H   0  0  0  0  0  0  0  0  0  0  0  0
   -6.3035   -3.4614    3.8657 H   0  0  0  0  0  0  0  0  0  0  0  0
    0.2958    2.5996   -2.2753 H   0  0  0  0  0  0  0  0  0  0  0  0
   -0.3727    1.1630   -1.4491 H   0  0  0  0  0  0  0  0  0  0  0  0
    2.4959    2.1693   -1.0622 H   0  0  0  0  0  0  0  0  0  0  0  0
    1.9657    0.7721   -2.0539 H   0  0  0  0  0  0  0  0  0  0  0  0
    1.7358    0.7386   -0.2641 H   0  0  0  0  0  0  0  0  0  0  0  0
   -3.0839    0.3268   -1.3548 H   0  0  0  0  0  0  0  0  0  0  0  0
   -2.3399    1.9550   -1.1373 H   0  0  0  0  0  0  0  0  0  0  0  0
   -4.7506    2.1547   -0.9715 H   0  0  0  0  0  0  0  0  0  0  0  0
   -3.9980    2.5195    0.6285 H   0  0  0  0  0  0  0  0  0  0  0  0
   -4.8243    0.9303    0.3435 H   0  0  0  0  0  0  0  0  0  0  0  0
   -6.2900   -4.8528    0.1053 H   0  0  0  0  0  0  0  0  0  0  0  0
  1  2  2  3
  2  3  1  0
  3  4  1  0
  4  5  2  3
  5  6  1  0
  6  7  3  0
  5  8  1  0
  8  9  3  0
  4 10  1  0
 10 11  1  0
 11 12  1  0
 12 13  2  0
 13 14  1  0
 14 15  2  0
 15 16  1  0
 16 17  2  0
 10 18  1  0
 18 19  2  0
  1 20  1  0
 20 21  2  0
 21 22  1  0
 22 23  2  0
 23 24  1  0
 24 25  2  0
 25 26  1  0
 26 27  1  0
 27 28  1  0
 26 29  2  0
 21 30  1  0
 30 31  1  0
 31 32  1  0
 32 33  1  0
 33 34  1  0
 34 35  1  0
 35 36  2  0
 36 37  1  0
 37 38  1  0
 35 39  1  0
 39 40  1  0
 40 41  1  0
 41 42  1  0
 42 43  1  0
 43 44  1  0
 44 45  2  0
 45 46  1  0
 46 47  2  0
 47 48  1  0
 48 49  1  0
 49 50  1  0
 48 51  2  0
 43 52  2  0
 52 53  1  0
 53 54  1  0
 54 55  1  0
 55 56  1  0
 56 57  1  0
 57 58  1  0
 58 59  1  0
 59 60  1  0
 60 61  1  0
 61 62  1  0
 59 63  1  0
 63 64  1  0
 56 65  1  0
 65 66  1  0
 52 67  1  0
 67 68  2  3
 68 69  1  0
 69 70  2  0
 69 71  1  0
 71 72  2  0
 72 73  1  0
 72 74  1  0
 74 75  1  0
 74 76  2  0
 76 77  1  0
 76 78  1  0
 78 79  1  0
 78 80  2  0
 80 81  1  0
 81 82  2  3
 82 83  1  0
 83 84  3  0
 82 85  1  0
 85 86  3  0
 18  2  1  0
 62 20  1  0
 81 68  1  0
 17 12  1  0
 29 22  1  0
 61 30  2  0
 80 71  1  0
 60 32  2  0
 58 33  2  0
 38 34  2  0
 57 39  2  0
 55 40  2  0
 54 42  2  0
 51 44  1  0
  1 87  1  0
 11 88  1  0
 11 89  1  0
 13 90  1  0
 14 91  1  0
 15 92  1  0
 16 93  1  0
 17 94  1  0
 23 95  1  0
 24 96  1  0
 25 97  1  0
 27 98  1  0
 27 99  1  0
 28100  1  0
 28101  1  0
 28102  1  0
 29103  1  0
 45104  1  0
 46105  1  0
 47106  1  0
 49107  1  0
 49108  1  0
 50109  1  0
 50110  1  0
 50111  1  0
 51112  1  0
 63113  1  0
 63114  1  0
 64115  1  0
 64116  1  0
 64117  1  0
 65118  1  0
 65119  1  0
 66120  1  0
 66121  1  0
 66122  1  0
 67123  1  0
M  END

