
     RDKit          3D

119134  0  0  0  0  0  0  0  0999 V2000
    7.2342   -6.6493    1.3709 C   0  0  0  0  0  0  0  0  0  0  0  0
    7.8440   -5.9854    2.3672 C   0  0  0  0  0  0  0  0  0  0  0  0
    7.2817   -4.5974    3.1219 S   0  0  0  0  0  0  0  0  0  0  0  0
    8.5513   -4.4944    4.2367 C   0  0  0  0  0  0  0  0  0  0  0  0
    8.6547   -3.4728    5.1280 C   0  0  0  0  0  0  0  0  0  0  0  0
    7.6323   -2.4597    5.1895 C   0  0  0  0  0  0  0  0  0  0  0  0
    6.8061   -1.6462    5.2073 N   0  0  0  0  0  0  0  0  0  0  0  0
    9.7886   -3.2529    5.9881 C   0  0  0  0  0  0  0  0  0  0  0  0
   10.7012   -3.0680    6.6755 N   0  0  0  0  0  0  0  0  0  0  0  0
    9.4202   -5.5473    4.0489 N   0  0  0  0  0  0  0  0  0  0  0  0
   10.6185   -5.8660    4.8478 C   0  0  0  0  0  0  0  0  0  0  0  0
   11.8608   -5.1413    4.3701 C   0  0  0  0  0  0  0  0  0  0  0  0
   13.1049   -5.5263    4.9031 C   0  0  0  0  0  0  0  0  0  0  0  0
   14.2761   -4.8624    4.5250 C   0  0  0  0  0  0  0  0  0  0  0  0
   14.2194   -3.8009    3.6196 C   0  0  0  0  0  0  0  0  0  0  0  0
   12.9886   -3.4016    3.0873 C   0  0  0  0  0  0  0  0  0  0  0  0
   11.8162   -4.0675    3.4536 C   0  0  0  0  0  0  0  0  0  0  0  0
    9.0245   -6.3569    3.0095 C   0  0  0  0  0  0  0  0  0  0  0  0
    9.6915   -7.3635    2.6490 O   0  0  0  0  0  0  0  0  0  0  0  0
    5.9811   -6.1746    0.7665 C   0  0  0  0  0  0  0  0  0  0  0  0
    5.7627   -4.6509    0.0530 S   0  0  0  0  0  0  0  0  0  0  0  0
    4.1092   -4.8343   -0.1622 C   0  0  0  0  0  0  0  0  0  0  0  0
    3.1661   -3.9124   -0.6400 C   0  0  0  0  0  0  0  0  0  0  0  0
    3.4801   -2.3893   -1.3251 S   0  0  0  0  0  0  0  0  0  0  0  0
    1.8373   -2.0758   -1.4551 C   0  0  0  0  0  0  0  0  0  0  0  0
    1.0498   -1.0701   -1.9079 C   0  0  0  0  0  0  0  0  0  0  0  0
    1.3722    0.0187   -2.7163 C   0  0  0  0  0  0  0  0  0  0  0  0
    0.3253    0.8525   -3.1837 C   0  0  0  0  0  0  0  0  0  0  0  0
    0.6782    1.8940   -3.9800 N   0  0  0  0  0  0  0  0  0  0  0  0
    2.3158    1.6543   -4.0501 S   0  0  0  0  0  0  0  0  0  0  0  0
    2.6297    0.3153   -3.1277 N   0  0  0  0  0  0  0  0  0  0  0  0
   -0.9811    0.5943   -2.7564 C   0  0  0  0  0  0  0  0  0  0  0  0
   -2.0455    1.4379   -2.7664 C   0  0  0  0  0  0  0  0  0  0  0  0
   -2.2599    3.0426   -3.2195 S   0  0  0  0  0  0  0  0  0  0  0  0
   -3.6066    3.2107   -2.2089 C   0  0  0  0  0  0  0  0  0  0  0  0
   -4.3450    4.3811   -1.9749 C   0  0  0  0  0  0  0  0  0  0  0  0
   -5.3413    4.4164   -1.0050 C   0  0  0  0  0  0  0  0  0  0  0  0
   -5.5907    3.2595   -0.2722 C   0  0  0  0  0  0  0  0  0  0  0  0
   -6.4628    3.0705    0.7285 N   0  0  0  0  0  0  0  0  0  0  0  0
   -6.2712    1.8104    1.1042 N   0  0  0  0  0  0  0  0  0  0  0  0
   -7.0457    1.1520    2.1459 C   0  0  0  0  0  0  0  0  0  0  0  0
   -8.1882    0.3616    1.5260 C   0  0  0  0  0  0  0  0  0  0  0  0
   -5.3386    1.1907    0.3875 N   0  0  0  0  0  0  0  0  0  0  0  0
   -4.8834    2.0987   -0.4867 C   0  0  0  0  0  0  0  0  0  0  0  0
   -3.8632    2.0226   -1.4688 C   0  0  0  0  0  0  0  0  0  0  0  0
   -2.9403    1.0038   -1.8413 C   0  0  0  0  0  0  0  0  0  0  0  0
   -2.5259   -0.1752   -1.2774 N   0  0  0  0  0  0  0  0  0  0  0  0
   -1.3101   -0.4593   -1.8800 C   0  0  0  0  0  0  0  0  0  0  0  0
   -0.2674   -1.4073   -1.5501 C   0  0  0  0  0  0  0  0  0  0  0  0
   -0.2760   -2.6871   -1.0136 N   0  0  0  0  0  0  0  0  0  0  0  0
    1.0400   -3.0596   -0.9835 C   0  0  0  0  0  0  0  0  0  0  0  0
    1.7768   -4.1964   -0.5755 C   0  0  0  0  0  0  0  0  0  0  0  0
    1.4130   -5.4990   -0.1578 C   0  0  0  0  0  0  0  0  0  0  0  0
    2.3575   -6.4028    0.2782 C   0  0  0  0  0  0  0  0  0  0  0  0
    3.7145   -6.0820    0.3170 C   0  0  0  0  0  0  0  0  0  0  0  0
    4.7655   -6.8580    0.8166 C   0  0  0  0  0  0  0  0  0  0  0  0
    1.7573   -7.5702    0.5544 N   0  0  0  0  0  0  0  0  0  0  0  0
    0.4749   -7.3601    0.2725 N   0  0  0  0  0  0  0  0  0  0  0  0
   -0.5424   -8.3993    0.3652 C   0  0  0  0  0  0  0  0  0  0  0  0
   -0.6938   -9.1068   -0.9763 C   0  0  0  0  0  0  0  0  0  0  0  0
    0.2327   -6.1339   -0.1863 N   0  0  0  0  0  0  0  0  0  0  0  0
   -1.4046   -3.5925   -0.7951 C   0  0  0  0  0  0  0  0  0  0  0  0
   -1.6426   -3.8273    0.7102 C   0  0  0  0  0  0  0  0  0  0  0  0
   -3.0677   -0.7188   -0.0364 C   0  0  0  0  0  0  0  0  0  0  0  0
   -2.4981    0.0001    1.1822 C   0  0  0  0  0  0  0  0  0  0  0  0
   -5.9499    5.6654   -0.8577 C   0  0  0  0  0  0  0  0  0  0  0  0
   -5.4356    6.6093   -1.7467 C   0  0  0  0  0  0  0  0  0  0  0  0
   -4.1815    5.9065   -2.6560 S   0  0  0  0  0  0  0  0  0  0  0  0
   -5.7891    8.0387   -1.7253 C   0  0  0  0  0  0  0  0  0  0  0  0
   -5.9343    8.8133   -2.8162 C   0  0  0  0  0  0  0  0  0  0  0  0
   -6.1013    8.3620   -4.2009 C   0  0  0  0  0  0  0  0  0  0  0  0
   -6.0113    7.1668   -4.6070 O   0  0  0  0  0  0  0  0  0  0  0  0
   -6.6183    9.4691   -4.9891 C   0  0  0  0  0  0  0  0  0  0  0  0
   -7.0430    9.4708   -6.3224 C   0  0  0  0  0  0  0  0  0  0  0  0
   -6.7506    8.0760   -7.3660 Cl  0  0  0  0  0  0  0  0  0  0  0  0
   -7.7258   10.6024   -6.8088 C   0  0  0  0  0  0  0  0  0  0  0  0
   -8.2408   10.6573   -8.4975 Cl  0  0  0  0  0  0  0  0  0  0  0  0
   -8.0558   11.6597   -5.9271 C   0  0  0  0  0  0  0  0  0  0  0  0
   -9.0398   13.0061   -6.5046 Cl  0  0  0  0  0  0  0  0  0  0  0  0
   -7.6453   11.6206   -4.5754 C   0  0  0  0  0  0  0  0  0  0  0  0
   -8.3944   12.7145   -3.4136 Cl  0  0  0  0  0  0  0  0  0  0  0  0
   -6.8151   10.5615   -4.1563 C   0  0  0  0  0  0  0  0  0  0  0  0
   -6.2317   10.2734   -2.8189 C   0  0  0  0  0  0  0  0  0  0  0  0
   -5.6501   11.1813   -1.9925 C   0  0  0  0  0  0  0  0  0  0  0  0
   -5.5635   12.5792   -2.3264 C   0  0  0  0  0  0  0  0  0  0  0  0
   -5.4855   13.7071   -2.5828 N   0  0  0  0  0  0  0  0  0  0  0  0
   -4.8963   10.7874   -0.8277 C   0  0  0  0  0  0  0  0  0  0  0  0
   -4.2812   10.4806    0.1066 N   0  0  0  0  0  0  0  0  0  0  0  0
    7.6248   -7.6049    1.0435 H   0  0  0  0  0  0  0  0  0  0  0  0
   10.4370   -5.6792    5.9249 H   0  0  0  0  0  0  0  0  0  0  0  0
   10.8160   -6.9603    4.8077 H   0  0  0  0  0  0  0  0  0  0  0  0
   13.1665   -6.3370    5.6172 H   0  0  0  0  0  0  0  0  0  0  0  0
   15.2269   -5.1629    4.9456 H   0  0  0  0  0  0  0  0  0  0  0  0
   15.1220   -3.2803    3.3395 H   0  0  0  0  0  0  0  0  0  0  0  0
   12.9460   -2.5722    2.3932 H   0  0  0  0  0  0  0  0  0  0  0  0
   10.8803   -3.7259    3.0272 H   0  0  0  0  0  0  0  0  0  0  0  0
   -7.4540    1.9115    2.8505 H   0  0  0  0  0  0  0  0  0  0  0  0
   -6.3897    0.4624    2.7218 H   0  0  0  0  0  0  0  0  0  0  0  0
   -7.7851   -0.4127    0.8380 H   0  0  0  0  0  0  0  0  0  0  0  0
   -8.7726   -0.1396    2.3257 H   0  0  0  0  0  0  0  0  0  0  0  0
   -8.8603    1.0408    0.9620 H   0  0  0  0  0  0  0  0  0  0  0  0
    4.6398   -7.8383    1.2606 H   0  0  0  0  0  0  0  0  0  0  0  0
   -0.2493   -9.1368    1.1407 H   0  0  0  0  0  0  0  0  0  0  0  0
   -1.5133   -7.9470    0.6618 H   0  0  0  0  0  0  0  0  0  0  0  0
    0.2819   -9.5288   -1.2974 H   0  0  0  0  0  0  0  0  0  0  0  0
   -1.4288   -9.9296   -0.8814 H   0  0  0  0  0  0  0  0  0  0  0  0
   -1.0512   -8.3882   -1.7470 H   0  0  0  0  0  0  0  0  0  0  0  0
   -1.2166   -4.5535   -1.3078 H   0  0  0  0  0  0  0  0  0  0  0  0
   -2.3114   -3.2175   -1.3133 H   0  0  0  0  0  0  0  0  0  0  0  0
   -0.8919   -4.5031    1.1555 H   0  0  0  0  0  0  0  0  0  0  0  0
   -1.5483   -2.8838    1.2864 H   0  0  0  0  0  0  0  0  0  0  0  0
   -2.6529   -4.2580    0.8691 H   0  0  0  0  0  0  0  0  0  0  0  0
   -2.8813   -1.7684    0.0539 H   0  0  0  0  0  0  0  0  0  0  0  0
   -4.1674   -0.7156   -0.0677 H   0  0  0  0  0  0  0  0  0  0  0  0
   -1.4014   -0.1781    1.2477 H   0  0  0  0  0  0  0  0  0  0  0  0
   -2.9781   -0.3880    2.1043 H   0  0  0  0  0  0  0  0  0  0  0  0
   -2.6793    1.0931    1.1171 H   0  0  0  0  0  0  0  0  0  0  0  0
   -6.7183    5.8835   -0.1244 H   0  0  0  0  0  0  0  0  0  0  0  0
   -5.9857    8.4611   -0.7492 H   0  0  0  0  0  0  0  0  0  0  0  0
  1  2  2  3
  2  3  1  0
  3  4  1  0
  4  5  2  3
  5  6  1  0
  6  7  3  0
  5  8  1  0
  8  9  3  0
  4 10  1  0
 10 11  1  0
 11 12  1  0
 12 13  2  0
 13 14  1  0
 14 15  2  0
 15 16  1  0
 16 17  2  0
 10 18  1  0
 18 19  2  0
  1 20  1  0
 20 21  1  0
 21 22  1  0
 22 23  1  0
 23 24  1  0
 24 25  1  0
 25 26  1  0
 26 27  1  0
 27 28  1  0
 28 29  2  0
 29 30  1  0
 30 31  1  0
 28 32  1  0
 32 33  1  0
 33 34  1  0
 34 35  1  0
 35 36  1  0
 36 37  2  0
 37 38  1  0
 38 39  2  0
 39 40  1  0
 40 41  1  0
 41 42  1  0
 40 43  1  0
 43 44  2  0
 44 45  1  0
 45 46  1  0
 46 47  1  0
 47 48  1  0
 48 49  1  0
 49 50  1  0
 50 51  1  0
 51 52  1  0
 52 53  1  0
 53 54  1  0
 54 55  1  0
 55 56  1  0
 54 57  2  0
 57 58  1  0
 58 59  1  0
 59 60  1  0
 58 61  1  0
 50 62  1  0
 62 63  1  0
 47 64  1  0
 64 65  1  0
 37 66  1  0
 66 67  2  0
 67 68  1  0
 67 69  1  0
 69 70  2  3
 70 71  1  0
 71 72  2  0
 71 73  1  0
 73 74  2  0
 74 75  1  0
 74 76  1  0
 76 77  1  0
 76 78  2  0
 78 79  1  0
 78 80  1  0
 80 81  1  0
 80 82  2  0
 82 83  1  0
 83 84  2  3
 84 85  1  0
 85 86  3  0
 84 87  1  0
 87 88  3  0
 18  2  1  0
 56 20  2  0
 83 70  1  0
 17 12  1  0
 55 22  2  0
 82 73  1  0
 52 23  2  0
 61 53  2  0
 51 25  2  0
 49 26  2  0
 31 27  2  0
 48 32  2  0
 46 33  2  0
 45 35  2  0
 68 36  1  0
 44 38  1  0
  1 89  1  0
 11 90  1  0
 11 91  1  0
 13 92  1  0
 14 93  1  0
 15 94  1  0
 16 95  1  0
 17 96  1  0
 41 97  1  0
 41 98  1  0
 42 99  1  0
 42100  1  0
 42101  1  0
 56102  1  0
 59103  1  0
 59104  1  0
 60105  1  0
 60106  1  0
 60107  1  0
 62108  1  0
 62109  1  0
 63110  1  0
 63111  1  0
 63112  1  0
 64113  1  0
 64114  1  0
 65115  1  0
 65116  1  0
 65117  1  0
 66118  1  0
 69119  1  0
M  END

