
     RDKit          3D

164182  0  0  0  0  0  0  0  0999 V2000
    3.6569   -6.4174    5.6027 C   0  0  0  0  0  0  0  0  0  0  0  0
    4.2219   -6.1651    6.7876 C   0  0  0  0  0  0  0  0  0  0  0  0
    5.6875   -6.1943    6.9031 C   0  0  0  0  0  0  0  0  0  0  0  0
    6.4554   -7.0123    6.3250 O   0  0  0  0  0  0  0  0  0  0  0  0
    6.1093   -5.0502    7.6993 C   0  0  0  0  0  0  0  0  0  0  0  0
    7.4047   -4.5861    7.9462 C   0  0  0  0  0  0  0  0  0  0  0  0
    7.5667   -3.4397    8.7318 C   0  0  0  0  0  0  0  0  0  0  0  0
    6.4356   -2.7830    9.2642 C   0  0  0  0  0  0  0  0  0  0  0  0
    6.5936   -1.6938   10.0548 F   0  0  0  0  0  0  0  0  0  0  0  0
    5.1403   -3.2522    8.9789 C   0  0  0  0  0  0  0  0  0  0  0  0
    4.9864   -4.3771    8.1720 C   0  0  0  0  0  0  0  0  0  0  0  0
    3.7694   -5.0667    7.6890 C   0  0  0  0  0  0  0  0  0  0  0  0
    2.4916   -4.8980    8.1099 C   0  0  0  0  0  0  0  0  0  0  0  0
    1.5006   -5.9187    7.8646 C   0  0  0  0  0  0  0  0  0  0  0  0
    0.7101   -6.7523    7.6871 N   0  0  0  0  0  0  0  0  0  0  0  0
    2.0614   -3.7880    8.9213 C   0  0  0  0  0  0  0  0  0  0  0  0
    1.6958   -2.9085    9.5855 N   0  0  0  0  0  0  0  0  0  0  0  0
    2.8798   -5.3865    4.9115 C   0  0  0  0  0  0  0  0  0  0  0  0
    1.2888   -5.5143    4.3879 S   0  0  0  0  0  0  0  0  0  0  0  0
    1.1896   -3.9080    3.8658 C   0  0  0  0  0  0  0  0  0  0  0  0
    0.0311   -3.1953    3.3230 C   0  0  0  0  0  0  0  0  0  0  0  0
    0.1016   -1.7618    3.2815 C   0  0  0  0  0  0  0  0  0  0  0  0
    1.3116   -1.0740    3.5577 C   0  0  0  0  0  0  0  0  0  0  0  0
    2.6449   -1.8645    3.5075 C   0  0  0  0  0  0  0  0  0  0  0  0
    2.3986   -3.2659    4.0727 C   0  0  0  0  0  0  0  0  0  0  0  0
    3.3549   -4.1048    4.6607 C   0  0  0  0  0  0  0  0  0  0  0  0
    3.0334   -1.9437    2.0006 C   0  0  0  0  0  0  0  0  0  0  0  0
    3.0668   -3.1594    1.2802 C   0  0  0  0  0  0  0  0  0  0  0  0
    3.2280   -3.1707   -0.1146 C   0  0  0  0  0  0  0  0  0  0  0  0
    3.3799   -1.9727   -0.8258 C   0  0  0  0  0  0  0  0  0  0  0  0
    3.4692   -1.9780   -2.3334 C   0  0  0  0  0  0  0  0  0  0  0  0
    2.1746   -1.4610   -2.9503 C   0  0  0  0  0  0  0  0  0  0  0  0
    3.4166   -0.7692   -0.1201 C   0  0  0  0  0  0  0  0  0  0  0  0
    3.2592   -0.7467    1.2698 C   0  0  0  0  0  0  0  0  0  0  0  0
    3.7544   -1.2116    4.3548 C   0  0  0  0  0  0  0  0  0  0  0  0
    5.0858   -1.1250    3.8946 C   0  0  0  0  0  0  0  0  0  0  0  0
    6.1108   -0.6514    4.7261 C   0  0  0  0  0  0  0  0  0  0  0  0
    5.8378   -0.2805    6.0500 C   0  0  0  0  0  0  0  0  0  0  0  0
    6.9592    0.1704    6.9509 C   0  0  0  0  0  0  0  0  0  0  0  0
    7.1804    1.6775    6.8472 C   0  0  0  0  0  0  0  0  0  0  0  0
    4.5176   -0.3738    6.5274 C   0  0  0  0  0  0  0  0  0  0  0  0
    3.4916   -0.8362    5.6943 C   0  0  0  0  0  0  0  0  0  0  0  0
    1.2960    0.3412    3.5000 C   0  0  0  0  0  0  0  0  0  0  0  0
    0.1941    1.0455    2.9816 C   0  0  0  0  0  0  0  0  0  0  0  0
   -0.9470    0.3543    2.5303 C   0  0  0  0  0  0  0  0  0  0  0  0
   -1.9595    0.9210    1.6587 C   0  0  0  0  0  0  0  0  0  0  0  0
   -2.9150    0.0510    1.0657 C   0  0  0  0  0  0  0  0  0  0  0  0
   -2.9813   -1.2484    1.5155 C   0  0  0  0  0  0  0  0  0  0  0  0
   -3.5730   -2.2784    0.8543 C   0  0  0  0  0  0  0  0  0  0  0  0
   -3.0879   -3.4688    1.3273 N   0  0  0  0  0  0  0  0  0  0  0  0
   -2.1363   -3.1152    2.2503 C   0  0  0  0  0  0  0  0  0  0  0  0
   -1.0849   -3.8861    2.7728 C   0  0  0  0  0  0  0  0  0  0  0  0
   -2.0917   -1.7598    2.3692 C   0  0  0  0  0  0  0  0  0  0  0  0
   -1.0030   -1.0395    2.8073 C   0  0  0  0  0  0  0  0  0  0  0  0
   -3.2492   -4.7819    0.7143 C   0  0  0  0  0  0  0  0  0  0  0  0
   -2.1708   -5.0229   -0.3347 C   0  0  0  0  0  0  0  0  0  0  0  0
   -4.2571   -2.0152   -0.3399 C   0  0  0  0  0  0  0  0  0  0  0  0
   -4.2789   -0.6712   -0.8211 C   0  0  0  0  0  0  0  0  0  0  0  0
   -4.7773   -0.3694   -2.1649 C   0  0  0  0  0  0  0  0  0  0  0  0
   -4.6277    0.8879   -2.7525 C   0  0  0  0  0  0  0  0  0  0  0  0
   -4.0772    2.0998   -1.9960 C   0  0  0  0  0  0  0  0  0  0  0  0
   -2.8629    2.6526   -2.7691 C   0  0  0  0  0  0  0  0  0  0  0  0
   -2.5503    4.0349   -2.7951 C   0  0  0  0  0  0  0  0  0  0  0  0
   -1.3499    4.4918   -3.3543 C   0  0  0  0  0  0  0  0  0  0  0  0
   -0.4177    3.5824   -3.8667 C   0  0  0  0  0  0  0  0  0  0  0  0
    0.9174    4.0576   -4.3718 C   0  0  0  0  0  0  0  0  0  0  0  0
    1.9893    3.8990   -3.2932 C   0  0  0  0  0  0  0  0  0  0  0  0
   -0.6952    2.2098   -3.8112 C   0  0  0  0  0  0  0  0  0  0  0  0
   -1.8851    1.7541   -3.2541 C   0  0  0  0  0  0  0  0  0  0  0  0
   -5.2519    3.0922   -1.8755 C   0  0  0  0  0  0  0  0  0  0  0  0
   -5.6253    3.9112   -2.9680 C   0  0  0  0  0  0  0  0  0  0  0  0
   -6.7162    4.7847   -2.8777 C   0  0  0  0  0  0  0  0  0  0  0  0
   -7.4917    4.8300   -1.7105 C   0  0  0  0  0  0  0  0  0  0  0  0
   -8.6295    5.8116   -1.5892 C   0  0  0  0  0  0  0  0  0  0  0  0
   -8.1328    7.1437   -1.0384 C   0  0  0  0  0  0  0  0  0  0  0  0
   -7.1596    3.9905   -0.6397 C   0  0  0  0  0  0  0  0  0  0  0  0
   -6.0703    3.1218   -0.7246 C   0  0  0  0  0  0  0  0  0  0  0  0
   -3.5309    1.7024   -0.5979 C   0  0  0  0  0  0  0  0  0  0  0  0
   -3.6226    0.3784   -0.1022 C   0  0  0  0  0  0  0  0  0  0  0  0
   -2.7915    2.6432    0.1603 C   0  0  0  0  0  0  0  0  0  0  0  0
   -1.9651    2.2531    1.2269 C   0  0  0  0  0  0  0  0  0  0  0  0
   -4.9207    0.8790   -4.1335 C   0  0  0  0  0  0  0  0  0  0  0  0
   -5.2561   -0.3793   -4.6186 C   0  0  0  0  0  0  0  0  0  0  0  0
   -5.2282   -1.4764   -3.3507 S   0  0  0  0  0  0  0  0  0  0  0  0
   -5.4812   -0.7474   -6.0253 C   0  0  0  0  0  0  0  0  0  0  0  0
   -4.5794   -0.5403   -7.0093 C   0  0  0  0  0  0  0  0  0  0  0  0
   -3.1698   -0.1773   -6.8020 C   0  0  0  0  0  0  0  0  0  0  0  0
   -2.6341    0.0413   -5.6865 O   0  0  0  0  0  0  0  0  0  0  0  0
   -2.4432   -0.3410   -8.0557 C   0  0  0  0  0  0  0  0  0  0  0  0
   -3.3272   -0.8358   -9.0120 C   0  0  0  0  0  0  0  0  0  0  0  0
   -2.8430   -1.2283  -10.2717 C   0  0  0  0  0  0  0  0  0  0  0  0
   -1.4879   -1.0651  -10.5721 C   0  0  0  0  0  0  0  0  0  0  0  0
   -0.5955   -0.5412   -9.6175 C   0  0  0  0  0  0  0  0  0  0  0  0
    0.7669   -0.3918   -9.9382 C   0  0  0  0  0  0  0  0  0  0  0  0
    1.6586    0.1054   -8.9878 C   0  0  0  0  0  0  0  0  0  0  0  0
    1.2043    0.4723   -7.7206 C   0  0  0  0  0  0  0  0  0  0  0  0
   -0.1487    0.3424   -7.3887 C   0  0  0  0  0  0  0  0  0  0  0  0
   -1.0634   -0.1821   -8.3275 C   0  0  0  0  0  0  0  0  0  0  0  0
   -4.7134   -0.9130   -8.4529 C   0  0  0  0  0  0  0  0  0  0  0  0
   -5.8649   -1.1101   -9.1477 C   0  0  0  0  0  0  0  0  0  0  0  0
   -7.1676   -1.0036   -8.5434 C   0  0  0  0  0  0  0  0  0  0  0  0
   -8.2319   -0.9170   -8.0829 N   0  0  0  0  0  0  0  0  0  0  0  0
   -5.8879   -1.3095  -10.5732 C   0  0  0  0  0  0  0  0  0  0  0  0
   -5.9279   -1.4697  -11.7206 N   0  0  0  0  0  0  0  0  0  0  0  0
    3.6810   -7.4564    5.2386 H   0  0  0  0  0  0  0  0  0  0  0  0
    8.2624   -5.1003    7.5365 H   0  0  0  0  0  0  0  0  0  0  0  0
    8.5583   -3.0633    8.9465 H   0  0  0  0  0  0  0  0  0  0  0  0
    4.2987   -2.7097    9.3787 H   0  0  0  0  0  0  0  0  0  0  0  0
    4.3639   -3.8127    4.8880 H   0  0  0  0  0  0  0  0  0  0  0  0
    2.9415   -4.1139    1.7697 H   0  0  0  0  0  0  0  0  0  0  0  0
    3.2316   -4.1211   -0.6377 H   0  0  0  0  0  0  0  0  0  0  0  0
    3.6526   -3.0069   -2.7027 H   0  0  0  0  0  0  0  0  0  0  0  0
    4.3196   -1.3505   -2.6489 H   0  0  0  0  0  0  0  0  0  0  0  0
    1.3056   -2.0765   -2.6260 H   0  0  0  0  0  0  0  0  0  0  0  0
    2.2498   -1.4923   -4.0594 H   0  0  0  0  0  0  0  0  0  0  0  0
    1.9841   -0.4112   -2.6316 H   0  0  0  0  0  0  0  0  0  0  0  0
    3.5634    0.1702   -0.6471 H   0  0  0  0  0  0  0  0  0  0  0  0
    3.2956    0.2122    1.7702 H   0  0  0  0  0  0  0  0  0  0  0  0
    5.3637   -1.4474    2.9010 H   0  0  0  0  0  0  0  0  0  0  0  0
    7.1190   -0.5954    4.3360 H   0  0  0  0  0  0  0  0  0  0  0  0
    7.8962   -0.3700    6.6887 H   0  0  0  0  0  0  0  0  0  0  0  0
    6.7231   -0.0971    8.0045 H   0  0  0  0  0  0  0  0  0  0  0  0
    7.3792    1.9552    5.7862 H   0  0  0  0  0  0  0  0  0  0  0  0
    8.0616    1.9611    7.4622 H   0  0  0  0  0  0  0  0  0  0  0  0
    6.2896    2.2165    7.2222 H   0  0  0  0  0  0  0  0  0  0  0  0
    4.2885   -0.1231    7.5547 H   0  0  0  0  0  0  0  0  0  0  0  0
    2.4888   -0.9420    6.1037 H   0  0  0  0  0  0  0  0  0  0  0  0
    2.1946    0.9057    3.7259 H   0  0  0  0  0  0  0  0  0  0  0  0
    0.3011    2.1154    2.8396 H   0  0  0  0  0  0  0  0  0  0  0  0
   -1.0789   -4.9662    2.6685 H   0  0  0  0  0  0  0  0  0  0  0  0
   -4.2525   -4.8564    0.2378 H   0  0  0  0  0  0  0  0  0  0  0  0
   -3.1983   -5.5744    1.4968 H   0  0  0  0  0  0  0  0  0  0  0  0
   -2.2212   -4.2345   -1.1165 H   0  0  0  0  0  0  0  0  0  0  0  0
   -1.1628   -5.0001    0.1409 H   0  0  0  0  0  0  0  0  0  0  0  0
   -2.3240   -6.0175   -0.8047 H   0  0  0  0  0  0  0  0  0  0  0  0
   -4.6447   -2.8356   -0.9264 H   0  0  0  0  0  0  0  0  0  0  0  0
   -3.1999    4.7624   -2.3391 H   0  0  0  0  0  0  0  0  0  0  0  0
   -1.1341    5.5527   -3.3418 H   0  0  0  0  0  0  0  0  0  0  0  0
    0.8631    5.1202   -4.6827 H   0  0  0  0  0  0  0  0  0  0  0  0
    1.2158    3.4570   -5.2632 H   0  0  0  0  0  0  0  0  0  0  0  0
    2.9671    4.2458   -3.6886 H   0  0  0  0  0  0  0  0  0  0  0  0
    1.7306    4.5188   -2.4030 H   0  0  0  0  0  0  0  0  0  0  0  0
    2.0855    2.8374   -2.9781 H   0  0  0  0  0  0  0  0  0  0  0  0
    0.0375    1.4870   -4.1581 H   0  0  0  0  0  0  0  0  0  0  0  0
   -2.0275    0.6832   -3.1607 H   0  0  0  0  0  0  0  0  0  0  0  0
   -5.0731    3.8881   -3.8940 H   0  0  0  0  0  0  0  0  0  0  0  0
   -6.9443    5.4368   -3.7106 H   0  0  0  0  0  0  0  0  0  0  0  0
   -9.4166    5.4046   -0.9116 H   0  0  0  0  0  0  0  0  0  0  0  0
   -9.1024    5.9758   -2.5811 H   0  0  0  0  0  0  0  0  0  0  0  0
   -7.4119    7.6070   -1.7461 H   0  0  0  0  0  0  0  0  0  0  0  0
   -7.6345    6.9997   -0.0595 H   0  0  0  0  0  0  0  0  0  0  0  0
   -8.9926    7.8311   -0.9055 H   0  0  0  0  0  0  0  0  0  0  0  0
   -7.7510    4.0090    0.2678 H   0  0  0  0  0  0  0  0  0  0  0  0
   -5.8699    2.4731    0.1223 H   0  0  0  0  0  0  0  0  0  0  0  0
   -2.7631    3.6764   -0.1456 H   0  0  0  0  0  0  0  0  0  0  0  0
   -1.3339    3.0004    1.6829 H   0  0  0  0  0  0  0  0  0  0  0  0
   -4.8440    1.7490   -4.7679 H   0  0  0  0  0  0  0  0  0  0  0  0
   -6.3925   -1.2829   -6.2127 H   0  0  0  0  0  0  0  0  0  0  0  0
   -3.4669   -1.6841  -11.0187 H   0  0  0  0  0  0  0  0  0  0  0  0
   -1.1277   -1.3717  -11.5515 H   0  0  0  0  0  0  0  0  0  0  0  0
    1.1451   -0.6558  -10.9249 H   0  0  0  0  0  0  0  0  0  0  0  0
    2.7076    0.2167   -9.2332 H   0  0  0  0  0  0  0  0  0  0  0  0
    1.9095    0.8702   -6.9994 H   0  0  0  0  0  0  0  0  0  0  0  0
   -0.4629    0.6699   -6.4118 H   0  0  0  0  0  0  0  0  0  0  0  0
  1  2  2  3
  2  3  1  0
  3  4  2  0
  3  5  1  0
  5  6  2  0
  6  7  1  0
  7  8  2  0
  8  9  1  0
  8 10  1  0
 10 11  2  0
 11 12  1  0
 12 13  2  3
 13 14  1  0
 14 15  3  0
 13 16  1  0
 16 17  3  0
  1 18  1  0
 18 19  1  0
 19 20  1  0
 20 21  1  0
 21 22  2  0
 22 23  1  0
 23 24  1  0
 24 25  1  0
 25 26  1  0
 24 27  1  0
 27 28  2  0
 28 29  1  0
 29 30  2  0
 30 31  1  0
 31 32  1  0
 30 33  1  0
 33 34  2  0
 24 35  1  0
 35 36  2  0
 36 37  1  0
 37 38  2  0
 38 39  1  0
 39 40  1  0
 38 41  1  0
 41 42  2  0
 23 43  2  0
 43 44  1  0
 44 45  2  0
 45 46  1  0
 46 47  1  0
 47 48  2  0
 48 49  1  0
 49 50  1  0
 50 51  1  0
 51 52  2  0
 51 53  1  0
 53 54  2  0
 50 55  1  0
 55 56  1  0
 49 57  2  0
 57 58  1  0
 58 59  1  0
 59 60  2  0
 60 61  1  0
 61 62  1  0
 62 63  2  0
 63 64  1  0
 64 65  2  0
 65 66  1  0
 66 67  1  0
 65 68  1  0
 68 69  2  0
 61 70  1  0
 70 71  2  0
 71 72  1  0
 72 73  2  0
 73 74  1  0
 74 75  1  0
 73 76  1  0
 76 77  2  0
 61 78  1  0
 78 79  1  0
 78 80  2  0
 80 81  1  0
 60 82  1  0
 82 83  2  0
 83 84  1  0
 83 85  1  0
 85 86  2  3
 86 87  1  0
 87 88  2  0
 87 89  1  0
 89 90  2  0
 90 91  1  0
 91 92  2  0
 92 93  1  0
 93 94  2  0
 94 95  1  0
 95 96  2  0
 96 97  1  0
 97 98  2  0
 90 99  1  0
 99100  2  3
100101  1  0
101102  3  0
100103  1  0
103104  3  0
 12  2  1  0
 26 18  2  0
 34 27  1  0
 42 35  1  0
 54 45  1  0
 79 58  2  0
 99 86  1  0
 11  5  1  0
 25 20  2  0
 81 46  2  0
 98 89  1  0
 52 21  1  0
 84 59  1  0
 98 93  1  0
 54 22  1  0
 69 62  1  0
 77 70  1  0
 79 47  1  0
 53 48  1  0
  1105  1  0
  6106  1  0
  7107  1  0
 10108  1  0
 26109  1  0
 28110  1  0
 29111  1  0
 31112  1  0
 31113  1  0
 32114  1  0
 32115  1  0
 32116  1  0
 33117  1  0
 34118  1  0
 36119  1  0
 37120  1  0
 39121  1  0
 39122  1  0
 40123  1  0
 40124  1  0
 40125  1  0
 41126  1  0
 42127  1  0
 43128  1  0
 44129  1  0
 52130  1  0
 55131  1  0
 55132  1  0
 56133  1  0
 56134  1  0
 56135  1  0
 57136  1  0
 63137  1  0
 64138  1  0
 66139  1  0
 66140  1  0
 67141  1  0
 67142  1  0
 67143  1  0
 68144  1  0
 69145  1  0
 71146  1  0
 72147  1  0
 74148  1  0
 74149  1  0
 75150  1  0
 75151  1  0
 75152  1  0
 76153  1  0
 77154  1  0
 80155  1  0
 81156  1  0
 82157  1  0
 85158  1  0
 91159  1  0
 92160  1  0
 94161  1  0
 95162  1  0
 96163  1  0
 97164  1  0
M  END

