
     RDKit          3D

108121  0  0  0  0  0  0  0  0999 V2000
    5.6905   -2.8812    3.2208 C   0  0  0  0  0  0  0  0  0  0  0  0
    6.3560   -3.4855    2.2810 C   0  0  0  0  0  0  0  0  0  0  0  0
    6.6747   -2.9996    0.9357 C   0  0  0  0  0  0  0  0  0  0  0  0
    6.3177   -1.8590    0.5011 O   0  0  0  0  0  0  0  0  0  0  0  0
    7.3608   -4.0606    0.1863 C   0  0  0  0  0  0  0  0  0  0  0  0
    7.9884   -3.9557   -1.1189 C   0  0  0  0  0  0  0  0  0  0  0  0
    8.5896   -5.1280   -1.5507 C   0  0  0  0  0  0  0  0  0  0  0  0
    8.6526   -6.3102   -0.6996 C   0  0  0  0  0  0  0  0  0  0  0  0
    9.2563   -7.4479   -1.0747 F   0  0  0  0  0  0  0  0  0  0  0  0
    8.0666   -6.3543    0.5636 C   0  0  0  0  0  0  0  0  0  0  0  0
    7.4435   -5.1606    1.0781 C   0  0  0  0  0  0  0  0  0  0  0  0
    6.8257   -4.8798    2.4908 C   0  0  0  0  0  0  0  0  0  0  0  0
    7.4719   -5.3254    3.5844 C   0  0  0  0  0  0  0  0  0  0  0  0
    6.7911   -5.8933    4.7962 C   0  0  0  0  0  0  0  0  0  0  0  0
    6.3821   -6.2102    5.8175 N   0  0  0  0  0  0  0  0  0  0  0  0
    8.8406   -5.8559    3.4664 C   0  0  0  0  0  0  0  0  0  0  0  0
    9.9575   -6.2712    3.4448 N   0  0  0  0  0  0  0  0  0  0  0  0
    4.7585   -1.7170    2.9637 C   0  0  0  0  0  0  0  0  0  0  0  0
    3.3442   -1.9969    2.9222 C   0  0  0  0  0  0  0  0  0  0  0  0
    2.7988   -0.7601    2.6283 C   0  0  0  0  0  0  0  0  0  0  0  0
    3.7282    0.1552    2.5220 C   0  0  0  0  0  0  0  0  0  0  0  0
    4.9658   -0.3972    2.7286 N   0  0  0  0  0  0  0  0  0  0  0  0
    6.2565    0.3182    3.0144 C   0  0  0  0  0  0  0  0  0  0  0  0
    6.9809    0.7483    1.7475 C   0  0  0  0  0  0  0  0  0  0  0  0
    3.1147    1.3652    2.2036 C   0  0  0  0  0  0  0  0  0  0  0  0
    3.6266    2.6055    1.8765 C   0  0  0  0  0  0  0  0  0  0  0  0
    2.7837    3.6320    1.3625 C   0  0  0  0  0  0  0  0  0  0  0  0
    3.3407    4.7925    1.0353 N   0  0  0  0  0  0  0  0  0  0  0  0
    4.9525    4.5290    1.3844 S   0  0  0  0  0  0  0  0  0  0  0  0
    4.9541    2.9789    1.9467 N   0  0  0  0  0  0  0  0  0  0  0  0
    1.4197    3.3066    1.1894 C   0  0  0  0  0  0  0  0  0  0  0  0
    0.3770    4.0341    0.6112 C   0  0  0  0  0  0  0  0  0  0  0  0
    0.0374    5.4985   -0.2032 S   0  0  0  0  0  0  0  0  0  0  0  0
   -1.6222    5.0227   -0.4466 C   0  0  0  0  0  0  0  0  0  0  0  0
   -2.7564    5.4590   -1.1062 C   0  0  0  0  0  0  0  0  0  0  0  0
   -2.7575    6.7248   -1.9488 C   0  0  0  0  0  0  0  0  0  0  0  0
   -2.6443    8.0218   -1.1108 C   0  0  0  0  0  0  0  0  0  0  0  0
   -3.8549    4.6320   -0.8440 C   0  0  0  0  0  0  0  0  0  0  0  0
   -3.5502    3.6006    0.4319 S   0  0  0  0  0  0  0  0  0  0  0  0
   -1.8846    3.8989    0.2581 C   0  0  0  0  0  0  0  0  0  0  0  0
   -0.7280    3.2213    0.7634 C   0  0  0  0  0  0  0  0  0  0  0  0
   -0.4615    2.0888    1.3310 N   0  0  0  0  0  0  0  0  0  0  0  0
    0.8922    2.0702    1.5720 C   0  0  0  0  0  0  0  0  0  0  0  0
    1.7456    1.0608    2.0953 C   0  0  0  0  0  0  0  0  0  0  0  0
    1.5401   -0.2769    2.3830 N   0  0  0  0  0  0  0  0  0  0  0  0
    0.4450   -1.2594    2.3677 C   0  0  0  0  0  0  0  0  0  0  0  0
    0.2377   -1.8054    0.9528 C   0  0  0  0  0  0  0  0  0  0  0  0
   -1.5705    1.3216    1.9756 C   0  0  0  0  0  0  0  0  0  0  0  0
   -2.2184    0.3100    1.0104 C   0  0  0  0  0  0  0  0  0  0  0  0
   -5.1233    4.5702   -1.6084 C   0  0  0  0  0  0  0  0  0  0  0  0
   -5.7106    3.4671   -2.1662 C   0  0  0  0  0  0  0  0  0  0  0  0
   -5.0578    2.1625   -2.3884 C   0  0  0  0  0  0  0  0  0  0  0  0
   -3.9520    1.9263   -2.9516 O   0  0  0  0  0  0  0  0  0  0  0  0
   -6.0130    1.1128   -2.1099 C   0  0  0  0  0  0  0  0  0  0  0  0
   -5.6179   -0.2134   -1.8014 C   0  0  0  0  0  0  0  0  0  0  0  0
   -6.7230   -1.0134   -1.5936 C   0  0  0  0  0  0  0  0  0  0  0  0
   -8.0801   -0.5017   -1.6933 C   0  0  0  0  0  0  0  0  0  0  0  0
   -8.4693    0.8214   -1.8971 C   0  0  0  0  0  0  0  0  0  0  0  0
   -7.3320    1.6723   -2.0630 C   0  0  0  0  0  0  0  0  0  0  0  0
   -7.2050    3.1557   -2.2385 C   0  0  0  0  0  0  0  0  0  0  0  0
   -8.2317    4.0189   -2.5285 C   0  0  0  0  0  0  0  0  0  0  0  0
   -9.6490    3.6817   -2.4352 C   0  0  0  0  0  0  0  0  0  0  0  0
  -10.7637    3.3937   -2.3436 N   0  0  0  0  0  0  0  0  0  0  0  0
   -7.9485    5.3246   -3.0830 C   0  0  0  0  0  0  0  0  0  0  0  0
   -7.7117    6.3493   -3.5452 N   0  0  0  0  0  0  0  0  0  0  0  0
   -8.5777   -1.9146   -1.7023 C   0  0  0  0  0  0  0  0  0  0  0  0
   -8.8796   -2.6444   -3.0483 C   0  0  0  0  0  0  0  0  0  0  0  0
   -7.8837   -2.3116   -4.1054 C   0  0  0  0  0  0  0  0  0  0  0  0
   -6.7296   -2.9048   -3.7860 C   0  0  0  0  0  0  0  0  0  0  0  0
   -6.9687   -3.4985   -2.4312 C   0  0  0  0  0  0  0  0  0  0  0  0
   -8.3748   -4.0220   -2.6630 C   0  0  0  0  0  0  0  0  0  0  0  0
   -7.2189   -2.3945   -1.3631 C   0  0  0  0  0  0  0  0  0  0  0  0
    5.4203   -3.3228    4.1602 H   0  0  0  0  0  0  0  0  0  0  0  0
    7.9089   -2.9827   -1.8133 H   0  0  0  0  0  0  0  0  0  0  0  0
    9.0178   -5.1947   -2.5449 H   0  0  0  0  0  0  0  0  0  0  0  0
    8.1722   -7.2398    1.1997 H   0  0  0  0  0  0  0  0  0  0  0  0
    2.7659   -2.9419    3.0396 H   0  0  0  0  0  0  0  0  0  0  0  0
    6.0724    1.2088    3.6386 H   0  0  0  0  0  0  0  0  0  0  0  0
    6.9214   -0.3662    3.6037 H   0  0  0  0  0  0  0  0  0  0  0  0
    6.3000    0.7770    0.8862 H   0  0  0  0  0  0  0  0  0  0  0  0
    7.4225    1.7825    1.9019 H   0  0  0  0  0  0  0  0  0  0  0  0
    7.8102    0.0390    1.5080 H   0  0  0  0  0  0  0  0  0  0  0  0
   -3.6825    6.8220   -2.5891 H   0  0  0  0  0  0  0  0  0  0  0  0
   -1.8971    6.6844   -2.7032 H   0  0  0  0  0  0  0  0  0  0  0  0
   -1.5734    8.3789   -1.1390 H   0  0  0  0  0  0  0  0  0  0  0  0
   -2.9361    7.8483   -0.0847 H   0  0  0  0  0  0  0  0  0  0  0  0
   -3.3404    8.8396   -1.4745 H   0  0  0  0  0  0  0  0  0  0  0  0
    0.6249   -2.1592    3.0559 H   0  0  0  0  0  0  0  0  0  0  0  0
   -0.4505   -0.8757    2.8097 H   0  0  0  0  0  0  0  0  0  0  0  0
    1.0606   -2.5648    0.7330 H   0  0  0  0  0  0  0  0  0  0  0  0
   -0.7240   -2.3475    0.9022 H   0  0  0  0  0  0  0  0  0  0  0  0
    0.2182   -1.0327    0.1595 H   0  0  0  0  0  0  0  0  0  0  0  0
   -2.3822    2.0227    2.3517 H   0  0  0  0  0  0  0  0  0  0  0  0
   -1.2737    0.9245    2.9249 H   0  0  0  0  0  0  0  0  0  0  0  0
   -1.6417    0.2342    0.0676 H   0  0  0  0  0  0  0  0  0  0  0  0
   -3.2644    0.6640    0.7474 H   0  0  0  0  0  0  0  0  0  0  0  0
   -2.3177   -0.6874    1.4824 H   0  0  0  0  0  0  0  0  0  0  0  0
   -5.6359    5.4857   -1.5528 H   0  0  0  0  0  0  0  0  0  0  0  0
   -4.5729   -0.6149   -1.9476 H   0  0  0  0  0  0  0  0  0  0  0  0
   -9.5091    1.1616   -1.9046 H   0  0  0  0  0  0  0  0  0  0  0  0
   -9.2932   -2.0982   -0.8935 H   0  0  0  0  0  0  0  0  0  0  0  0
   -9.9319   -2.5852   -3.3661 H   0  0  0  0  0  0  0  0  0  0  0  0
   -7.9297   -1.5441   -4.8524 H   0  0  0  0  0  0  0  0  0  0  0  0
   -5.7725   -2.9043   -4.3154 H   0  0  0  0  0  0  0  0  0  0  0  0
   -6.2626   -4.2833   -2.1186 H   0  0  0  0  0  0  0  0  0  0  0  0
   -8.4785   -4.7764   -3.4798 H   0  0  0  0  0  0  0  0  0  0  0  0
   -8.8696   -4.4990   -1.7748 H   0  0  0  0  0  0  0  0  0  0  0  0
   -7.0915   -2.6911   -0.2632 H   0  0  0  0  0  0  0  0  0  0  0  0
  1  2  2  3
  2  3  1  0
  3  4  2  0
  3  5  1  0
  5  6  2  0
  6  7  1  0
  7  8  2  0
  8  9  1  0
  8 10  1  0
 10 11  2  0
 11 12  1  0
 12 13  2  3
 13 14  1  0
 14 15  3  0
 13 16  1  0
 16 17  3  0
  1 18  1  0
 18 19  2  0
 19 20  1  0
 20 21  2  0
 21 22  1  0
 22 23  1  0
 23 24  1  0
 21 25  1  0
 25 26  1  0
 26 27  1  0
 27 28  2  0
 28 29  1  0
 29 30  1  0
 27 31  1  0
 31 32  1  0
 32 33  1  0
 33 34  1  0
 34 35  1  0
 35 36  1  0
 36 37  1  0
 35 38  2  0
 38 39  1  0
 39 40  1  0
 40 41  1  0
 41 42  1  0
 42 43  1  0
 43 44  1  0
 44 45  1  0
 45 46  1  0
 46 47  1  0
 42 48  1  0
 48 49  1  0
 38 50  1  0
 50 51  2  3
 51 52  1  0
 52 53  2  0
 52 54  1  0
 54 55  2  0
 55 56  1  0
 56 57  2  0
 57 58  1  0
 58 59  2  0
 59 60  1  0
 60 61  2  3
 61 62  1  0
 62 63  3  0
 61 64  1  0
 64 65  3  0
 57 66  1  0
 66 67  1  0
 67 68  1  0
 68 69  2  0
 69 70  1  0
 70 71  1  0
 70 72  1  0
 12  2  1  0
 22 18  1  0
 44 25  2  0
 60 51  1  0
 72 66  1  0
 11  5  1  0
 45 20  1  0
 59 54  1  0
 71 67  1  0
 30 26  2  0
 43 31  2  0
 72 56  1  0
 41 32  2  0
 40 34  2  0
  1 73  1  0
  6 74  1  0
  7 75  1  0
 10 76  1  0
 19 77  1  0
 23 78  1  0
 23 79  1  0
 24 80  1  0
 24 81  1  0
 24 82  1  0
 36 83  1  0
 36 84  1  0
 37 85  1  0
 37 86  1  0
 37 87  1  0
 46 88  1  0
 46 89  1  0
 47 90  1  0
 47 91  1  0
 47 92  1  0
 48 93  1  0
 48 94  1  0
 49 95  1  0
 49 96  1  0
 49 97  1  0
 50 98  1  0
 55 99  1  0
 58100  1  0
 66101  1  0
 67102  1  0
 68103  1  0
 69104  1  0
 70105  1  0
 71106  1  0
 71107  1  0
 72108  1  0
M  END

