
     RDKit          3D

173191  0  0  0  0  0  0  0  0999 V2000
    6.5151    0.8277   -7.9972 C   0  0  0  0  0  0  0  0  0  0  0  0
    6.6985    2.1573   -8.0419 C   0  0  0  0  0  0  0  0  0  0  0  0
    7.9997    2.7609   -8.3597 C   0  0  0  0  0  0  0  0  0  0  0  0
    8.9125    2.2329   -9.0436 O   0  0  0  0  0  0  0  0  0  0  0  0
    8.0866    4.0451   -7.6833 C   0  0  0  0  0  0  0  0  0  0  0  0
    9.1781    4.9200   -7.5935 C   0  0  0  0  0  0  0  0  0  0  0  0
    9.0230    6.0982   -6.8548 C   0  0  0  0  0  0  0  0  0  0  0  0
    7.8108    6.3619   -6.1918 C   0  0  0  0  0  0  0  0  0  0  0  0
    7.6700    7.5146   -5.4828 F   0  0  0  0  0  0  0  0  0  0  0  0
    6.7424    5.4504   -6.2649 C   0  0  0  0  0  0  0  0  0  0  0  0
    6.8862    4.2951   -7.0481 C   0  0  0  0  0  0  0  0  0  0  0  0
    5.9142    3.2046   -7.3365 C   0  0  0  0  0  0  0  0  0  0  0  0
    4.5646    3.3504   -7.4007 C   0  0  0  0  0  0  0  0  0  0  0  0
    3.9075    4.5700   -6.9833 C   0  0  0  0  0  0  0  0  0  0  0  0
    3.4184    5.5698   -6.6750 N   0  0  0  0  0  0  0  0  0  0  0  0
    3.7504    2.4379   -8.1660 C   0  0  0  0  0  0  0  0  0  0  0  0
    3.0896    1.7174   -8.7822 N   0  0  0  0  0  0  0  0  0  0  0  0
    5.7771    0.2081   -6.8862 C   0  0  0  0  0  0  0  0  0  0  0  0
    6.0747    0.4283   -5.5449 C   0  0  0  0  0  0  0  0  0  0  0  0
    5.1107   -0.1017   -4.6862 C   0  0  0  0  0  0  0  0  0  0  0  0
    4.6719    0.4342   -3.3239 C   0  0  0  0  0  0  0  0  0  0  0  0
    5.1876    1.8479   -3.0968 C   0  0  0  0  0  0  0  0  0  0  0  0
    6.5128    2.0225   -2.6425 C   0  0  0  0  0  0  0  0  0  0  0  0
    7.0331    3.2985   -2.4159 C   0  0  0  0  0  0  0  0  0  0  0  0
    6.2594    4.4357   -2.6950 C   0  0  0  0  0  0  0  0  0  0  0  0
    6.8333    5.8106   -2.4531 C   0  0  0  0  0  0  0  0  0  0  0  0
    6.0818    6.5448   -1.3537 C   0  0  0  0  0  0  0  0  0  0  0  0
    4.9579    4.2722   -3.2024 C   0  0  0  0  0  0  0  0  0  0  0  0
    4.4384    2.9925   -3.4167 C   0  0  0  0  0  0  0  0  0  0  0  0
    5.0389   -0.4999   -2.1542 C   0  0  0  0  0  0  0  0  0  0  0  0
    4.7735   -0.0936   -0.8279 C   0  0  0  0  0  0  0  0  0  0  0  0
    5.0181   -0.9440    0.2524 C   0  0  0  0  0  0  0  0  0  0  0  0
    5.5430   -2.2235    0.0315 C   0  0  0  0  0  0  0  0  0  0  0  0
    5.7657   -3.1612    1.1868 C   0  0  0  0  0  0  0  0  0  0  0  0
    4.5262   -4.0133    1.4490 C   0  0  0  0  0  0  0  0  0  0  0  0
    5.7915   -2.6488   -1.2781 C   0  0  0  0  0  0  0  0  0  0  0  0
    5.5456   -1.8019   -2.3600 C   0  0  0  0  0  0  0  0  0  0  0  0
    3.1874    0.3095   -3.5380 C   0  0  0  0  0  0  0  0  0  0  0  0
    2.9026   -0.5201   -4.5878 C   0  0  0  0  0  0  0  0  0  0  0  0
    4.0995   -0.7840   -5.3403 C   0  0  0  0  0  0  0  0  0  0  0  0
    4.3209   -0.6564   -7.0003 S   0  0  0  0  0  0  0  0  0  0  0  0
    1.2679   -0.9754   -4.6393 S   0  0  0  0  0  0  0  0  0  0  0  0
    0.9134   -0.0241   -3.2660 C   0  0  0  0  0  0  0  0  0  0  0  0
    2.0418    0.6279   -2.8292 C   0  0  0  0  0  0  0  0  0  0  0  0
    1.6982    1.6425   -1.5414 S   0  0  0  0  0  0  0  0  0  0  0  0
    0.0489    1.2035   -1.5077 C   0  0  0  0  0  0  0  0  0  0  0  0
   -0.9225    1.6333   -0.5896 C   0  0  0  0  0  0  0  0  0  0  0  0
   -0.5787    2.6187    0.4382 C   0  0  0  0  0  0  0  0  0  0  0  0
   -0.9044    3.9688    0.4103 C   0  0  0  0  0  0  0  0  0  0  0  0
   -0.2799    4.6979    1.4303 C   0  0  0  0  0  0  0  0  0  0  0  0
    0.5232    3.9177    2.2605 C   0  0  0  0  0  0  0  0  0  0  0  0
    1.4434    4.4287    3.3192 C   0  0  0  0  0  0  0  0  0  0  0  0
    2.6481    5.1215    2.6843 C   0  0  0  0  0  0  0  0  0  0  0  0
    0.4983    2.3345    1.7005 S   0  0  0  0  0  0  0  0  0  0  0  0
   -2.1262    0.9103   -0.5576 C   0  0  0  0  0  0  0  0  0  0  0  0
   -2.2979   -0.2283   -1.3778 C   0  0  0  0  0  0  0  0  0  0  0  0
   -1.4157   -0.5339   -2.4256 C   0  0  0  0  0  0  0  0  0  0  0  0
   -1.6960   -1.6464   -3.3546 C   0  0  0  0  0  0  0  0  0  0  0  0
   -1.8255   -1.5336   -4.7375 C   0  0  0  0  0  0  0  0  0  0  0  0
   -1.9860   -2.7734   -5.3824 C   0  0  0  0  0  0  0  0  0  0  0  0
   -1.9690   -3.8525   -4.4983 C   0  0  0  0  0  0  0  0  0  0  0  0
   -2.1863   -5.2836   -4.8601 C   0  0  0  0  0  0  0  0  0  0  0  0
   -3.6705   -5.6329   -4.7924 C   0  0  0  0  0  0  0  0  0  0  0  0
   -1.7860   -3.2730   -2.9292 S   0  0  0  0  0  0  0  0  0  0  0  0
   -0.2225    0.2151   -2.4808 C   0  0  0  0  0  0  0  0  0  0  0  0
   -3.5938   -1.1755   -0.8143 S   0  0  0  0  0  0  0  0  0  0  0  0
   -3.9901   -0.0732    0.3901 C   0  0  0  0  0  0  0  0  0  0  0  0
   -4.9697   -0.0325    1.3644 C   0  0  0  0  0  0  0  0  0  0  0  0
   -5.0635    1.2368    1.8989 C   0  0  0  0  0  0  0  0  0  0  0  0
   -3.7269    2.1983    1.4499 S   0  0  0  0  0  0  0  0  0  0  0  0
   -3.1820    1.0226    0.3480 C   0  0  0  0  0  0  0  0  0  0  0  0
   -5.8129    1.1311    3.1173 C   0  0  0  0  0  0  0  0  0  0  0  0
   -6.5048    2.1426    4.2588 S   0  0  0  0  0  0  0  0  0  0  0  0
   -7.0669    0.8344    5.1939 C   0  0  0  0  0  0  0  0  0  0  0  0
   -6.7334   -0.3864    4.5881 C   0  0  0  0  0  0  0  0  0  0  0  0
   -6.0528   -0.1784    3.3893 C   0  0  0  0  0  0  0  0  0  0  0  0
   -5.3425   -1.0911    2.4032 C   0  0  0  0  0  0  0  0  0  0  0  0
   -6.2773   -2.1851    1.8868 C   0  0  0  0  0  0  0  0  0  0  0  0
   -6.4261   -3.3817    2.6201 C   0  0  0  0  0  0  0  0  0  0  0  0
   -7.1883   -4.4380    2.1177 C   0  0  0  0  0  0  0  0  0  0  0  0
   -7.8740   -4.2999    0.9100 C   0  0  0  0  0  0  0  0  0  0  0  0
   -8.6358   -5.4642    0.3377 C   0  0  0  0  0  0  0  0  0  0  0  0
   -7.7183   -6.3574   -0.4938 C   0  0  0  0  0  0  0  0  0  0  0  0
   -7.7835   -3.0906    0.1964 C   0  0  0  0  0  0  0  0  0  0  0  0
   -7.0088   -2.0386    0.6952 C   0  0  0  0  0  0  0  0  0  0  0  0
   -4.0334   -1.6483    3.0134 C   0  0  0  0  0  0  0  0  0  0  0  0
   -3.3481   -2.7013    2.3724 C   0  0  0  0  0  0  0  0  0  0  0  0
   -2.1236   -3.1759    2.8696 C   0  0  0  0  0  0  0  0  0  0  0  0
   -1.5447   -2.6005    4.0110 C   0  0  0  0  0  0  0  0  0  0  0  0
   -0.2224   -3.1003    4.5272 C   0  0  0  0  0  0  0  0  0  0  0  0
   -0.3472   -4.5070    5.1174 C   0  0  0  0  0  0  0  0  0  0  0  0
   -2.1864   -1.5212    4.6354 C   0  0  0  0  0  0  0  0  0  0  0  0
   -3.4104   -1.0433    4.1375 C   0  0  0  0  0  0  0  0  0  0  0  0
   -7.8103    0.9438    6.4523 C   0  0  0  0  0  0  0  0  0  0  0  0
   -7.2690    0.5228    7.6103 C   0  0  0  0  0  0  0  0  0  0  0  0
   -8.0135   -0.2816    8.5798 C   0  0  0  0  0  0  0  0  0  0  0  0
   -9.2665   -0.3106    8.7167 O   0  0  0  0  0  0  0  0  0  0  0  0
   -7.0712   -1.1321    9.2830 C   0  0  0  0  0  0  0  0  0  0  0  0
   -7.3278   -2.1219   10.2314 C   0  0  0  0  0  0  0  0  0  0  0  0
   -6.2436   -2.8541   10.7574 C   0  0  0  0  0  0  0  0  0  0  0  0
   -6.4861   -3.8977   11.8135 C   0  0  0  0  0  0  0  0  0  0  0  0
   -4.9297   -2.5555   10.3330 C   0  0  0  0  0  0  0  0  0  0  0  0
   -3.8668   -3.2186   10.8596 F   0  0  0  0  0  0  0  0  0  0  0  0
   -4.6990   -1.5612    9.3732 C   0  0  0  0  0  0  0  0  0  0  0  0
   -5.7885   -0.8489    8.8508 C   0  0  0  0  0  0  0  0  0  0  0  0
   -5.8254    0.2848    7.8880 C   0  0  0  0  0  0  0  0  0  0  0  0
   -4.8282    1.1654    7.6253 C   0  0  0  0  0  0  0  0  0  0  0  0
   -3.4510    0.9032    7.9440 C   0  0  0  0  0  0  0  0  0  0  0  0
   -2.3377    0.7260    8.2085 N   0  0  0  0  0  0  0  0  0  0  0  0
   -5.1306    2.5069    7.2051 C   0  0  0  0  0  0  0  0  0  0  0  0
   -5.3762    3.5987    6.8904 N   0  0  0  0  0  0  0  0  0  0  0  0
    7.2238    0.1876   -8.5055 H   0  0  0  0  0  0  0  0  0  0  0  0
   10.1009    4.6995   -8.1065 H   0  0  0  0  0  0  0  0  0  0  0  0
    9.8397    6.8034   -6.8009 H   0  0  0  0  0  0  0  0  0  0  0  0
    5.8418    5.6638   -5.7033 H   0  0  0  0  0  0  0  0  0  0  0  0
    6.8710    1.0800   -5.2220 H   0  0  0  0  0  0  0  0  0  0  0  0
    7.1548    1.1640   -2.4506 H   0  0  0  0  0  0  0  0  0  0  0  0
    8.0455    3.3979   -2.0501 H   0  0  0  0  0  0  0  0  0  0  0  0
    7.9066    5.7500   -2.1623 H   0  0  0  0  0  0  0  0  0  0  0  0
    6.7675    6.3977   -3.3887 H   0  0  0  0  0  0  0  0  0  0  0  0
    6.5062    7.5620   -1.2082 H   0  0  0  0  0  0  0  0  0  0  0  0
    6.1520    5.9844   -0.3878 H   0  0  0  0  0  0  0  0  0  0  0  0
    5.0082    6.6719   -1.6257 H   0  0  0  0  0  0  0  0  0  0  0  0
    4.3568    5.1404   -3.4379 H   0  0  0  0  0  0  0  0  0  0  0  0
    3.4436    2.9096   -3.8276 H   0  0  0  0  0  0  0  0  0  0  0  0
    4.3784    0.8978   -0.6281 H   0  0  0  0  0  0  0  0  0  0  0  0
    4.7887   -0.6063    1.2559 H   0  0  0  0  0  0  0  0  0  0  0  0
    6.0186   -2.5872    2.1072 H   0  0  0  0  0  0  0  0  0  0  0  0
    6.6212   -3.8260    0.9605 H   0  0  0  0  0  0  0  0  0  0  0  0
    4.2464   -4.5752    0.5265 H   0  0  0  0  0  0  0  0  0  0  0  0
    3.6807   -3.3656    1.7553 H   0  0  0  0  0  0  0  0  0  0  0  0
    4.7280   -4.7455    2.2667 H   0  0  0  0  0  0  0  0  0  0  0  0
    6.1752   -3.6441   -1.4589 H   0  0  0  0  0  0  0  0  0  0  0  0
    5.7630   -2.1797   -3.3517 H   0  0  0  0  0  0  0  0  0  0  0  0
   -1.5215    4.4260   -0.3539 H   0  0  0  0  0  0  0  0  0  0  0  0
   -0.3805    5.7705    1.5376 H   0  0  0  0  0  0  0  0  0  0  0  0
    0.8984    5.1380    3.9768 H   0  0  0  0  0  0  0  0  0  0  0  0
    1.7960    3.5755    3.9360 H   0  0  0  0  0  0  0  0  0  0  0  0
    3.4091    5.3185    3.4626 H   0  0  0  0  0  0  0  0  0  0  0  0
    3.0913    4.4754    1.9009 H   0  0  0  0  0  0  0  0  0  0  0  0
    2.3303    6.0804    2.2302 H   0  0  0  0  0  0  0  0  0  0  0  0
   -1.7958   -0.5910   -5.2707 H   0  0  0  0  0  0  0  0  0  0  0  0
   -2.0942   -2.8700   -6.4541 H   0  0  0  0  0  0  0  0  0  0  0  0
   -1.8020   -5.4847   -5.8826 H   0  0  0  0  0  0  0  0  0  0  0  0
   -1.6253   -5.9300   -4.1523 H   0  0  0  0  0  0  0  0  0  0  0  0
   -4.0412   -5.5089   -3.7521 H   0  0  0  0  0  0  0  0  0  0  0  0
   -3.8319   -6.6863   -5.0967 H   0  0  0  0  0  0  0  0  0  0  0  0
   -4.2599   -4.9619   -5.4599 H   0  0  0  0  0  0  0  0  0  0  0  0
   -6.9537   -1.3601    5.0076 H   0  0  0  0  0  0  0  0  0  0  0  0
   -5.9161   -3.5144    3.5711 H   0  0  0  0  0  0  0  0  0  0  0  0
   -7.2360   -5.3694    2.6776 H   0  0  0  0  0  0  0  0  0  0  0  0
   -9.4793   -5.1064   -0.2914 H   0  0  0  0  0  0  0  0  0  0  0  0
   -9.0737   -6.0757    1.1639 H   0  0  0  0  0  0  0  0  0  0  0  0
   -8.3001   -7.1978   -0.9353 H   0  0  0  0  0  0  0  0  0  0  0  0
   -6.9171   -6.7840    0.1484 H   0  0  0  0  0  0  0  0  0  0  0  0
   -7.2542   -5.7701   -1.3187 H   0  0  0  0  0  0  0  0  0  0  0  0
   -8.3083   -2.9656   -0.7394 H   0  0  0  0  0  0  0  0  0  0  0  0
   -6.9712   -1.1160    0.1256 H   0  0  0  0  0  0  0  0  0  0  0  0
   -3.7538   -3.1558    1.4762 H   0  0  0  0  0  0  0  0  0  0  0  0
   -1.6383   -3.9961    2.3599 H   0  0  0  0  0  0  0  0  0  0  0  0
    0.1729   -2.4287    5.3221 H   0  0  0  0  0  0  0  0  0  0  0  0
    0.5239   -3.1048    3.6983 H   0  0  0  0  0  0  0  0  0  0  0  0
   -0.9453   -4.4825    6.0565 H   0  0  0  0  0  0  0  0  0  0  0  0
   -0.8257   -5.1981    4.3997 H   0  0  0  0  0  0  0  0  0  0  0  0
    0.6744   -4.8858    5.3444 H   0  0  0  0  0  0  0  0  0  0  0  0
   -1.7280   -1.0179    5.4806 H   0  0  0  0  0  0  0  0  0  0  0  0
   -3.8241   -0.1700    4.6270 H   0  0  0  0  0  0  0  0  0  0  0  0
   -8.8944    0.9469    6.3584 H   0  0  0  0  0  0  0  0  0  0  0  0
   -8.3362   -2.3176   10.5504 H   0  0  0  0  0  0  0  0  0  0  0  0
   -7.5201   -4.3064   11.7359 H   0  0  0  0  0  0  0  0  0  0  0  0
   -6.3469   -3.4457   12.8161 H   0  0  0  0  0  0  0  0  0  0  0  0
   -5.7793   -4.7476   11.6891 H   0  0  0  0  0  0  0  0  0  0  0  0
   -3.6892   -1.3762    9.0440 H   0  0  0  0  0  0  0  0  0  0  0  0
  1  2  2  3
  2  3  1  0
  3  4  2  0
  3  5  1  0
  5  6  2  0
  6  7  1  0
  7  8  2  0
  8  9  1  0
  8 10  1  0
 10 11  2  0
 11 12  1  0
 12 13  2  3
 13 14  1  0
 14 15  3  0
 13 16  1  0
 16 17  3  0
  1 18  1  0
 18 19  2  0
 19 20  1  0
 20 21  1  0
 21 22  1  0
 22 23  2  0
 23 24  1  0
 24 25  2  0
 25 26  1  0
 26 27  1  0
 25 28  1  0
 28 29  2  0
 21 30  1  0
 30 31  2  0
 31 32  1  0
 32 33  2  0
 33 34  1  0
 34 35  1  0
 33 36  1  0
 36 37  2  0
 21 38  1  0
 38 39  2  0
 39 40  1  0
 40 41  1  0
 39 42  1  0
 42 43  1  0
 43 44  2  0
 44 45  1  0
 45 46  1  0
 46 47  2  0
 47 48  1  0
 48 49  2  0
 49 50  1  0
 50 51  2  0
 51 52  1  0
 52 53  1  0
 51 54  1  0
 47 55  1  0
 55 56  2  0
 56 57  1  0
 57 58  1  0
 58 59  2  0
 59 60  1  0
 60 61  2  0
 61 62  1  0
 62 63  1  0
 61 64  1  0
 57 65  2  0
 56 66  1  0
 66 67  1  0
 67 68  1  0
 68 69  2  0
 69 70  1  0
 70 71  1  0
 69 72  1  0
 72 73  1  0
 73 74  1  0
 74 75  2  0
 75 76  1  0
 76 77  1  0
 77 78  1  0
 78 79  2  0
 79 80  1  0
 80 81  2  0
 81 82  1  0
 82 83  1  0
 81 84  1  0
 84 85  2  0
 77 86  1  0
 86 87  2  0
 87 88  1  0
 88 89  2  0
 89 90  1  0
 90 91  1  0
 89 92  1  0
 92 93  2  0
 74 94  1  0
 94 95  2  3
 95 96  1  0
 96 97  2  0
 96 98  1  0
 98 99  2  0
 99100  1  0
100101  1  0
100102  2  0
102103  1  0
102104  1  0
104105  2  0
105106  1  0
106107  2  3
107108  1  0
108109  3  0
107110  1  0
110111  3  0
 12  2  1  0
 41 18  1  0
 65 43  1  0
 71 67  2  0
 76 72  2  0
 85 78  1  0
 93 86  1  0
106 95  1  0
 11  5  1  0
 40 20  2  0
 65 46  1  0
 77 68  1  0
105 98  1  0
 29 22  1  0
 37 30  1  0
 44 38  1  0
 54 48  1  0
 71 55  1  0
 64 58  1  0
  1112  1  0
  6113  1  0
  7114  1  0
 10115  1  0
 19116  1  0
 23117  1  0
 24118  1  0
 26119  1  0
 26120  1  0
 27121  1  0
 27122  1  0
 27123  1  0
 28124  1  0
 29125  1  0
 31126  1  0
 32127  1  0
 34128  1  0
 34129  1  0
 35130  1  0
 35131  1  0
 35132  1  0
 36133  1  0
 37134  1  0
 49135  1  0
 50136  1  0
 52137  1  0
 52138  1  0
 53139  1  0
 53140  1  0
 53141  1  0
 59142  1  0
 60143  1  0
 62144  1  0
 62145  1  0
 63146  1  0
 63147  1  0
 63148  1  0
 75149  1  0
 79150  1  0
 80151  1  0
 82152  1  0
 82153  1  0
 83154  1  0
 83155  1  0
 83156  1  0
 84157  1  0
 85158  1  0
 87159  1  0
 88160  1  0
 90161  1  0
 90162  1  0
 91163  1  0
 91164  1  0
 91165  1  0
 92166  1  0
 93167  1  0
 94168  1  0
 99169  1  0
101170  1  0
101171  1  0
101172  1  0
104173  1  0
M  END

