
     RDKit          3D

 97108  0  0  0  0  0  0  0  0999 V2000
   -7.4394    1.8227   -1.1887 C   0  0  0  0  0  0  0  0  0  0  0  0
   -7.1255    2.7625   -0.2139 C   0  0  0  0  0  0  0  0  0  0  0  0
   -5.7573    3.0777    0.2238 C   0  0  0  0  0  0  0  0  0  0  0  0
   -4.8185    2.2500    0.4585 O   0  0  0  0  0  0  0  0  0  0  0  0
   -5.6997    4.4448    0.6595 C   0  0  0  0  0  0  0  0  0  0  0  0
   -4.5624    5.2476    0.9185 C   0  0  0  0  0  0  0  0  0  0  0  0
   -4.7445    6.5984    1.3032 C   0  0  0  0  0  0  0  0  0  0  0  0
   -6.0490    7.0890    1.4660 C   0  0  0  0  0  0  0  0  0  0  0  0
   -6.2255    8.4491    1.6365 F   0  0  0  0  0  0  0  0  0  0  0  0
   -7.1500    6.2615    1.2750 C   0  0  0  0  0  0  0  0  0  0  0  0
   -6.9412    4.9600    0.8445 C   0  0  0  0  0  0  0  0  0  0  0  0
   -7.9274    3.9914    0.2310 C   0  0  0  0  0  0  0  0  0  0  0  0
   -9.2903    4.1511    0.1190 C   0  0  0  0  0  0  0  0  0  0  0  0
  -10.3062    3.1132   -0.1978 C   0  0  0  0  0  0  0  0  0  0  0  0
  -11.2507    2.4609   -0.4635 N   0  0  0  0  0  0  0  0  0  0  0  0
   -9.9269    5.3984    0.3044 C   0  0  0  0  0  0  0  0  0  0  0  0
  -10.3153    6.4996    0.4424 N   0  0  0  0  0  0  0  0  0  0  0  0
   -6.4625    0.7902   -1.7345 C   0  0  0  0  0  0  0  0  0  0  0  0
   -6.7737   -0.5313   -2.1487 C   0  0  0  0  0  0  0  0  0  0  0  0
   -8.1683   -1.0080   -2.4400 C   0  0  0  0  0  0  0  0  0  0  0  0
   -8.9778   -1.2975   -1.1719 C   0  0  0  0  0  0  0  0  0  0  0  0
   -5.6102   -1.2641   -2.4405 C   0  0  0  0  0  0  0  0  0  0  0  0
   -5.2891   -2.9243   -2.7159 S   0  0  0  0  0  0  0  0  0  0  0  0
   -3.6026   -2.6274   -2.6893 C   0  0  0  0  0  0  0  0  0  0  0  0
   -2.4145   -3.3020   -2.4990 C   0  0  0  0  0  0  0  0  0  0  0  0
   -2.1506   -4.6749   -2.3977 C   0  0  0  0  0  0  0  0  0  0  0  0
   -0.8582   -5.1244   -1.9677 C   0  0  0  0  0  0  0  0  0  0  0  0
   -0.6470   -6.4563   -1.8528 N   0  0  0  0  0  0  0  0  0  0  0  0
   -2.1349   -6.9590   -2.3867 S   0  0  0  0  0  0  0  0  0  0  0  0
   -3.0834   -5.6243   -2.6493 N   0  0  0  0  0  0  0  0  0  0  0  0
    0.1191   -4.1733   -1.6537 C   0  0  0  0  0  0  0  0  0  0  0  0
    1.3963   -4.3307   -1.1667 C   0  0  0  0  0  0  0  0  0  0  0  0
    2.5025   -5.5284   -0.6064 S   0  0  0  0  0  0  0  0  0  0  0  0
    3.6698   -4.3365   -0.2109 C   0  0  0  0  0  0  0  0  0  0  0  0
    4.9597   -4.3435    0.3627 C   0  0  0  0  0  0  0  0  0  0  0  0
    5.7115   -5.5872    0.7521 C   0  0  0  0  0  0  0  0  0  0  0  0
    6.2397   -6.2811   -0.4988 C   0  0  0  0  0  0  0  0  0  0  0  0
    5.4759   -3.0276    0.4173 C   0  0  0  0  0  0  0  0  0  0  0  0
    4.3406   -1.9406   -0.2925 S   0  0  0  0  0  0  0  0  0  0  0  0
    3.1928   -3.1010   -0.5650 C   0  0  0  0  0  0  0  0  0  0  0  0
    1.9128   -3.0972   -1.0367 C   0  0  0  0  0  0  0  0  0  0  0  0
    1.0687   -2.1119   -1.4334 N   0  0  0  0  0  0  0  0  0  0  0  0
   -0.0854   -2.7719   -1.8030 C   0  0  0  0  0  0  0  0  0  0  0  0
   -1.4152   -2.3193   -2.2249 C   0  0  0  0  0  0  0  0  0  0  0  0
   -2.0253   -1.0889   -2.1626 N   0  0  0  0  0  0  0  0  0  0  0  0
   -3.3345   -1.3229   -2.4747 C   0  0  0  0  0  0  0  0  0  0  0  0
   -4.4510   -0.5503   -2.3755 C   0  0  0  0  0  0  0  0  0  0  0  0
   -4.7916    1.0573   -2.0018 S   0  0  0  0  0  0  0  0  0  0  0  0
   -1.5725    0.2702   -1.8493 C   0  0  0  0  0  0  0  0  0  0  0  0
   -1.3618    1.1087   -3.1089 C   0  0  0  0  0  0  0  0  0  0  0  0
    1.4999   -0.7043   -1.4138 C   0  0  0  0  0  0  0  0  0  0  0  0
    1.3721   -0.1097    0.0176 C   0  0  0  0  0  0  0  0  0  0  0  0
    6.8260   -2.5809    0.9045 C   0  0  0  0  0  0  0  0  0  0  0  0
    6.9495   -1.3526    1.4814 C   0  0  0  0  0  0  0  0  0  0  0  0
    5.8372   -0.5801    2.0750 C   0  0  0  0  0  0  0  0  0  0  0  0
    4.7635   -1.0517    2.5793 O   0  0  0  0  0  0  0  0  0  0  0  0
    6.1737    0.8160    2.0694 C   0  0  0  0  0  0  0  0  0  0  0  0
    7.4382    0.9905    1.5239 C   0  0  0  0  0  0  0  0  0  0  0  0
    7.9985    2.2810    1.4389 C   0  0  0  0  0  0  0  0  0  0  0  0
    7.2301    3.3877    1.8273 C   0  0  0  0  0  0  0  0  0  0  0  0
    7.7628    4.6433    1.7464 F   0  0  0  0  0  0  0  0  0  0  0  0
    5.9251    3.1966    2.3124 C   0  0  0  0  0  0  0  0  0  0  0  0
    5.2100    4.2790    2.7039 F   0  0  0  0  0  0  0  0  0  0  0  0
    5.4021    1.9025    2.4487 C   0  0  0  0  0  0  0  0  0  0  0  0
    4.1476    1.7307    2.9086 F   0  0  0  0  0  0  0  0  0  0  0  0
    8.0408   -0.3448    1.2145 C   0  0  0  0  0  0  0  0  0  0  0  0
    9.3071   -0.6021    0.7806 C   0  0  0  0  0  0  0  0  0  0  0  0
    9.8828   -1.9257    0.7629 C   0  0  0  0  0  0  0  0  0  0  0  0
   10.3572   -2.9806    0.7881 N   0  0  0  0  0  0  0  0  0  0  0  0
   10.1235    0.4151    0.1933 C   0  0  0  0  0  0  0  0  0  0  0  0
   10.7165    1.2643   -0.3285 N   0  0  0  0  0  0  0  0  0  0  0  0
   -8.4756    1.7590   -1.4727 H   0  0  0  0  0  0  0  0  0  0  0  0
   -3.5831    4.8695    0.7302 H   0  0  0  0  0  0  0  0  0  0  0  0
   -3.9027    7.2397    1.5826 H   0  0  0  0  0  0  0  0  0  0  0  0
   -8.1096    6.6713    1.4696 H   0  0  0  0  0  0  0  0  0  0  0  0
   -8.6922   -0.2687   -3.0804 H   0  0  0  0  0  0  0  0  0  0  0  0
   -8.1002   -1.9351   -3.0672 H   0  0  0  0  0  0  0  0  0  0  0  0
   -8.6676   -2.2999   -0.8043 H   0  0  0  0  0  0  0  0  0  0  0  0
   -8.7960   -0.5736   -0.3480 H   0  0  0  0  0  0  0  0  0  0  0  0
  -10.0686   -1.2979   -1.4300 H   0  0  0  0  0  0  0  0  0  0  0  0
    6.5501   -5.3462    1.4213 H   0  0  0  0  0  0  0  0  0  0  0  0
    5.0242   -6.2830    1.2650 H   0  0  0  0  0  0  0  0  0  0  0  0
    7.0167   -7.0247   -0.2402 H   0  0  0  0  0  0  0  0  0  0  0  0
    5.4179   -6.7786   -1.0432 H   0  0  0  0  0  0  0  0  0  0  0  0
    6.7158   -5.5494   -1.1968 H   0  0  0  0  0  0  0  0  0  0  0  0
   -2.3174    0.7633   -1.2180 H   0  0  0  0  0  0  0  0  0  0  0  0
   -0.7431    0.2894   -1.1842 H   0  0  0  0  0  0  0  0  0  0  0  0
   -1.2177    2.2058   -2.7820 H   0  0  0  0  0  0  0  0  0  0  0  0
   -0.4369    0.7040   -3.5815 H   0  0  0  0  0  0  0  0  0  0  0  0
   -2.2634    0.9972   -3.8035 H   0  0  0  0  0  0  0  0  0  0  0  0
    0.9883   -0.1362   -2.2113 H   0  0  0  0  0  0  0  0  0  0  0  0
    2.5861   -0.6455   -1.7092 H   0  0  0  0  0  0  0  0  0  0  0  0
    1.4531    1.0016   -0.0567 H   0  0  0  0  0  0  0  0  0  0  0  0
    2.2169   -0.4548    0.6475 H   0  0  0  0  0  0  0  0  0  0  0  0
    0.4313   -0.4217    0.5464 H   0  0  0  0  0  0  0  0  0  0  0  0
    7.6903   -3.0842    0.4728 H   0  0  0  0  0  0  0  0  0  0  0  0
    9.0102    2.4477    1.0905 H   0  0  0  0  0  0  0  0  0  0  0  0
  1  2  2  3
  2  3  1  0
  3  4  2  0
  3  5  1  0
  5  6  2  0
  6  7  1  0
  7  8  2  0
  8  9  1  0
  8 10  1  0
 10 11  2  0
 11 12  1  0
 12 13  2  3
 13 14  1  0
 14 15  3  0
 13 16  1  0
 16 17  3  0
  1 18  1  0
 18 19  2  0
 19 20  1  0
 20 21  1  0
 19 22  1  0
 22 23  1  0
 23 24  1  0
 24 25  1  0
 25 26  1  0
 26 27  1  0
 27 28  2  0
 28 29  1  0
 29 30  1  0
 27 31  1  0
 31 32  1  0
 32 33  1  0
 33 34  1  0
 34 35  1  0
 35 36  1  0
 36 37  1  0
 35 38  2  0
 38 39  1  0
 39 40  1  0
 40 41  1  0
 41 42  1  0
 42 43  1  0
 43 44  1  0
 44 45  1  0
 45 46  1  0
 46 47  1  0
 47 48  1  0
 45 49  1  0
 49 50  1  0
 42 51  1  0
 51 52  1  0
 38 53  1  0
 53 54  2  3
 54 55  1  0
 55 56  2  0
 55 57  1  0
 57 58  2  0
 58 59  1  0
 59 60  2  0
 60 61  1  0
 60 62  1  0
 62 63  1  0
 62 64  2  0
 64 65  1  0
 58 66  1  0
 66 67  2  3
 67 68  1  0
 68 69  3  0
 67 70  1  0
 70 71  3  0
 12  2  1  0
 48 18  1  0
 66 54  1  0
 11  5  1  0
 47 22  2  0
 64 57  1  0
 46 24  2  0
 44 25  2  0
 30 26  2  0
 43 31  2  0
 41 32  2  0
 40 34  2  0
  1 72  1  0
  6 73  1  0
  7 74  1  0
 10 75  1  0
 20 76  1  0
 20 77  1  0
 21 78  1  0
 21 79  1  0
 21 80  1  0
 36 81  1  0
 36 82  1  0
 37 83  1  0
 37 84  1  0
 37 85  1  0
 49 86  1  0
 49 87  1  0
 50 88  1  0
 50 89  1  0
 50 90  1  0
 51 91  1  0
 51 92  1  0
 52 93  1  0
 52 94  1  0
 52 95  1  0
 53 96  1  0
 59 97  1  0
M  END

