
     RDKit          3D

 97108  0  0  0  0  0  0  0  0999 V2000
   -1.1880    6.5410    4.9920 C   0  0  0  0  0  0  0  0  0  0  0  0
   -0.8140    6.4624    6.2790 C   0  0  0  0  0  0  0  0  0  0  0  0
    0.3786    5.7670    6.7684 C   0  0  0  0  0  0  0  0  0  0  0  0
    1.0760    4.9259    6.1351 O   0  0  0  0  0  0  0  0  0  0  0  0
    0.6438    6.2233    8.1156 C   0  0  0  0  0  0  0  0  0  0  0  0
    1.7187    5.8900    8.9396 C   0  0  0  0  0  0  0  0  0  0  0  0
    1.8127    6.5208   10.1903 C   0  0  0  0  0  0  0  0  0  0  0  0
    0.8621    7.4772   10.5804 C   0  0  0  0  0  0  0  0  0  0  0  0
    0.9881    8.0919   11.7842 F   0  0  0  0  0  0  0  0  0  0  0  0
   -0.2173    7.7907    9.7384 C   0  0  0  0  0  0  0  0  0  0  0  0
   -0.3324    7.1298    8.5015 C   0  0  0  0  0  0  0  0  0  0  0  0
   -1.3557    7.2506    7.4247 C   0  0  0  0  0  0  0  0  0  0  0  0
   -2.6187    7.7551    7.5456 C   0  0  0  0  0  0  0  0  0  0  0  0
   -3.0804    8.4168    8.7370 C   0  0  0  0  0  0  0  0  0  0  0  0
   -3.4645    8.9491    9.6873 N   0  0  0  0  0  0  0  0  0  0  0  0
   -3.6333    7.5215    6.5493 C   0  0  0  0  0  0  0  0  0  0  0  0
   -4.4577    7.3206    5.7621 N   0  0  0  0  0  0  0  0  0  0  0  0
   -0.5363    5.7729    3.9287 C   0  0  0  0  0  0  0  0  0  0  0  0
    0.5731    6.1846    3.1690 C   0  0  0  0  0  0  0  0  0  0  0  0
    1.2990    7.4877    3.3476 C   0  0  0  0  0  0  0  0  0  0  0  0
    0.6126    8.6137    2.5902 C   0  0  0  0  0  0  0  0  0  0  0  0
    0.8637    5.2467    2.1758 C   0  0  0  0  0  0  0  0  0  0  0  0
    2.0173    5.1897    0.9197 S   0  0  0  0  0  0  0  0  0  0  0  0
    1.4313    3.6721    0.4275 C   0  0  0  0  0  0  0  0  0  0  0  0
    1.5663    2.8152   -0.6229 C   0  0  0  0  0  0  0  0  0  0  0  0
    2.3184    2.9250   -1.7962 C   0  0  0  0  0  0  0  0  0  0  0  0
    2.1321    1.9564   -2.8221 C   0  0  0  0  0  0  0  0  0  0  0  0
    2.8830    2.0889   -3.9420 N   0  0  0  0  0  0  0  0  0  0  0  0
    3.7143    3.4662   -3.5521 S   0  0  0  0  0  0  0  0  0  0  0  0
    3.2071    3.9148   -2.0376 N   0  0  0  0  0  0  0  0  0  0  0  0
    1.2313    0.9117   -2.5964 C   0  0  0  0  0  0  0  0  0  0  0  0
    0.9445   -0.1948   -3.3430 C   0  0  0  0  0  0  0  0  0  0  0  0
    1.3302   -0.8724   -4.8453 S   0  0  0  0  0  0  0  0  0  0  0  0
    0.3951   -2.2558   -4.4823 C   0  0  0  0  0  0  0  0  0  0  0  0
    0.0582   -3.4090   -5.1982 C   0  0  0  0  0  0  0  0  0  0  0  0
    0.5587   -3.7277   -6.5798 C   0  0  0  0  0  0  0  0  0  0  0  0
    1.9463   -4.3541   -6.5169 C   0  0  0  0  0  0  0  0  0  0  0  0
   -0.7516   -4.2550   -4.4222 C   0  0  0  0  0  0  0  0  0  0  0  0
   -1.0732   -3.5437   -2.9126 S   0  0  0  0  0  0  0  0  0  0  0  0
   -0.1461   -2.1838   -3.2257 C   0  0  0  0  0  0  0  0  0  0  0  0
    0.1641   -0.9944   -2.5830 C   0  0  0  0  0  0  0  0  0  0  0  0
   -0.1030   -0.4718   -1.3564 N   0  0  0  0  0  0  0  0  0  0  0  0
    0.5131    0.7613   -1.3880 C   0  0  0  0  0  0  0  0  0  0  0  0
    0.6068    1.8047   -0.4194 C   0  0  0  0  0  0  0  0  0  0  0  0
   -0.1938    2.1196    0.6579 N   0  0  0  0  0  0  0  0  0  0  0  0
    0.3801    3.2426    1.1608 C   0  0  0  0  0  0  0  0  0  0  0  0
    0.0498    4.1404    2.1682 C   0  0  0  0  0  0  0  0  0  0  0  0
   -1.1087    4.2707    3.3786 S   0  0  0  0  0  0  0  0  0  0  0  0
   -1.5675    1.6950    0.9669 C   0  0  0  0  0  0  0  0  0  0  0  0
   -2.4867    1.8277   -0.2499 C   0  0  0  0  0  0  0  0  0  0  0  0
   -0.6076   -1.2582   -0.2219 C   0  0  0  0  0  0  0  0  0  0  0  0
    0.4106   -1.3097    0.9204 C   0  0  0  0  0  0  0  0  0  0  0  0
   -1.3562   -5.5162   -4.8549 C   0  0  0  0  0  0  0  0  0  0  0  0
   -0.9067   -6.7165   -4.4568 C   0  0  0  0  0  0  0  0  0  0  0  0
    0.4029   -6.9741   -3.8468 C   0  0  0  0  0  0  0  0  0  0  0  0
    1.1745   -6.1235   -3.3309 O   0  0  0  0  0  0  0  0  0  0  0  0
    0.6848   -8.3901   -3.9799 C   0  0  0  0  0  0  0  0  0  0  0  0
    1.8795   -9.0640   -3.7124 C   0  0  0  0  0  0  0  0  0  0  0  0
    1.9690  -10.4244   -4.0412 C   0  0  0  0  0  0  0  0  0  0  0  0
    3.1206  -11.1086   -3.8134 F   0  0  0  0  0  0  0  0  0  0  0  0
    0.8830  -11.0743   -4.6569 C   0  0  0  0  0  0  0  0  0  0  0  0
    0.9933  -12.3726   -5.0219 F   0  0  0  0  0  0  0  0  0  0  0  0
   -0.3046  -10.3810   -4.9229 C   0  0  0  0  0  0  0  0  0  0  0  0
   -0.4018   -9.0274   -4.5628 C   0  0  0  0  0  0  0  0  0  0  0  0
   -1.5004   -8.0466   -4.7822 C   0  0  0  0  0  0  0  0  0  0  0  0
   -2.8220   -8.3215   -4.9671 C   0  0  0  0  0  0  0  0  0  0  0  0
   -3.8355   -7.2947   -4.9676 C   0  0  0  0  0  0  0  0  0  0  0  0
   -4.6557   -6.4805   -4.9640 N   0  0  0  0  0  0  0  0  0  0  0  0
   -3.3175   -9.6635   -5.1250 C   0  0  0  0  0  0  0  0  0  0  0  0
   -3.7308  -10.7377   -5.2512 N   0  0  0  0  0  0  0  0  0  0  0  0
   -1.9637    7.2256    4.6812 H   0  0  0  0  0  0  0  0  0  0  0  0
    2.4676    5.1752    8.6148 H   0  0  0  0  0  0  0  0  0  0  0  0
    2.6379    6.2785   10.8512 H   0  0  0  0  0  0  0  0  0  0  0  0
   -0.9114    8.5552   10.0551 H   0  0  0  0  0  0  0  0  0  0  0  0
    1.3461    7.7416    4.4294 H   0  0  0  0  0  0  0  0  0  0  0  0
    2.3430    7.3922    2.9811 H   0  0  0  0  0  0  0  0  0  0  0  0
    1.1442    9.5697    2.7866 H   0  0  0  0  0  0  0  0  0  0  0  0
   -0.4425    8.7270    2.9271 H   0  0  0  0  0  0  0  0  0  0  0  0
    0.6319    8.4162    1.4903 H   0  0  0  0  0  0  0  0  0  0  0  0
   -0.1416   -4.4251   -7.0987 H   0  0  0  0  0  0  0  0  0  0  0  0
    0.6083   -2.7957   -7.1782 H   0  0  0  0  0  0  0  0  0  0  0  0
    2.2939   -4.5913   -7.5470 H   0  0  0  0  0  0  0  0  0  0  0  0
    1.9133   -5.2952   -5.9237 H   0  0  0  0  0  0  0  0  0  0  0  0
    2.6740   -3.6446   -6.0660 H   0  0  0  0  0  0  0  0  0  0  0  0
   -1.5825    0.6990    1.4320 H   0  0  0  0  0  0  0  0  0  0  0  0
   -2.0045    2.3365    1.7559 H   0  0  0  0  0  0  0  0  0  0  0  0
   -3.5384    1.7024    0.0743 H   0  0  0  0  0  0  0  0  0  0  0  0
   -2.2642    1.0631   -1.0131 H   0  0  0  0  0  0  0  0  0  0  0  0
   -2.3662    2.8320   -0.6968 H   0  0  0  0  0  0  0  0  0  0  0  0
   -1.6093   -0.9114    0.0920 H   0  0  0  0  0  0  0  0  0  0  0  0
   -0.7712   -2.3094   -0.5289 H   0  0  0  0  0  0  0  0  0  0  0  0
    0.5474   -0.3178    1.3871 H   0  0  0  0  0  0  0  0  0  0  0  0
    1.3994   -1.6572    0.5366 H   0  0  0  0  0  0  0  0  0  0  0  0
    0.0577   -2.0110    1.6981 H   0  0  0  0  0  0  0  0  0  0  0  0
   -2.1952   -5.4454   -5.5323 H   0  0  0  0  0  0  0  0  0  0  0  0
    2.7226   -8.5450   -3.2755 H   0  0  0  0  0  0  0  0  0  0  0  0
   -1.0976  -10.8933   -5.4399 H   0  0  0  0  0  0  0  0  0  0  0  0
  1  2  2  3
  2  3  1  0
  3  4  2  0
  3  5  1  0
  5  6  2  0
  6  7  1  0
  7  8  2  0
  8  9  1  0
  8 10  1  0
 10 11  2  0
 11 12  1  0
 12 13  2  3
 13 14  1  0
 14 15  3  0
 13 16  1  0
 16 17  3  0
  1 18  1  0
 18 19  2  0
 19 20  1  0
 20 21  1  0
 19 22  1  0
 22 23  1  0
 23 24  1  0
 24 25  1  0
 25 26  1  0
 26 27  1  0
 27 28  2  0
 28 29  1  0
 29 30  1  0
 27 31  1  0
 31 32  1  0
 32 33  1  0
 33 34  1  0
 34 35  1  0
 35 36  1  0
 36 37  1  0
 35 38  2  0
 38 39  1  0
 39 40  1  0
 40 41  1  0
 41 42  1  0
 42 43  1  0
 43 44  1  0
 44 45  1  0
 45 46  1  0
 46 47  1  0
 47 48  1  0
 45 49  1  0
 49 50  1  0
 42 51  1  0
 51 52  1  0
 38 53  1  0
 53 54  2  3
 54 55  1  0
 55 56  2  0
 55 57  1  0
 57 58  2  0
 58 59  1  0
 59 60  1  0
 59 61  2  0
 61 62  1  0
 61 63  1  0
 63 64  2  0
 64 65  1  0
 65 66  2  3
 66 67  1  0
 67 68  3  0
 66 69  1  0
 69 70  3  0
 12  2  1  0
 48 18  1  0
 65 54  1  0
 11  5  1  0
 47 22  2  0
 64 57  1  0
 46 24  2  0
 44 25  2  0
 30 26  2  0
 43 31  2  0
 41 32  2  0
 40 34  2  0
  1 71  1  0
  6 72  1  0
  7 73  1  0
 10 74  1  0
 20 75  1  0
 20 76  1  0
 21 77  1  0
 21 78  1  0
 21 79  1  0
 36 80  1  0
 36 81  1  0
 37 82  1  0
 37 83  1  0
 37 84  1  0
 49 85  1  0
 49 86  1  0
 50 87  1  0
 50 88  1  0
 50 89  1  0
 51 90  1  0
 51 91  1  0
 52 92  1  0
 52 93  1  0
 52 94  1  0
 53 95  1  0
 58 96  1  0
 63 97  1  0
M  END

