
     RDKit          3D

112123  0  0  0  0  0  0  0  0999 V2000
    5.5023    6.8411   -0.6612 C   0  0  0  0  0  0  0  0  0  0  0  0
    5.1031    7.8551   -1.4527 C   0  0  0  0  0  0  0  0  0  0  0  0
    5.2766    9.2587   -1.0873 C   0  0  0  0  0  0  0  0  0  0  0  0
    6.0445    9.7051   -0.1895 O   0  0  0  0  0  0  0  0  0  0  0  0
    4.3487   10.0478   -1.8692 C   0  0  0  0  0  0  0  0  0  0  0  0
    4.0756   11.4121   -1.7722 C   0  0  0  0  0  0  0  0  0  0  0  0
    3.0719   11.9492   -2.5915 C   0  0  0  0  0  0  0  0  0  0  0  0
    2.3371   11.1168   -3.4580 C   0  0  0  0  0  0  0  0  0  0  0  0
    1.3368   11.6369   -4.2131 F   0  0  0  0  0  0  0  0  0  0  0  0
    2.6178    9.7408   -3.5215 C   0  0  0  0  0  0  0  0  0  0  0  0
    3.6578    9.2204   -2.7360 C   0  0  0  0  0  0  0  0  0  0  0  0
    4.1825    7.8335   -2.6318 C   0  0  0  0  0  0  0  0  0  0  0  0
    4.1783    6.9122   -3.6302 C   0  0  0  0  0  0  0  0  0  0  0  0
    3.4189    7.0911   -4.8388 C   0  0  0  0  0  0  0  0  0  0  0  0
    2.8250    7.2280   -5.8241 N   0  0  0  0  0  0  0  0  0  0  0  0
    5.0846    5.7903   -3.6406 C   0  0  0  0  0  0  0  0  0  0  0  0
    5.8063    4.8846   -3.6659 N   0  0  0  0  0  0  0  0  0  0  0  0
    4.8982    5.4996   -0.6758 C   0  0  0  0  0  0  0  0  0  0  0  0
    5.6019    4.2870   -0.5522 C   0  0  0  0  0  0  0  0  0  0  0  0
    7.0918    4.1648   -0.4114 C   0  0  0  0  0  0  0  0  0  0  0  0
    7.4951    4.1215    1.0608 C   0  0  0  0  0  0  0  0  0  0  0  0
    4.7209    3.2026   -0.5533 C   0  0  0  0  0  0  0  0  0  0  0  0
    4.9450    1.5101   -0.5550 S   0  0  0  0  0  0  0  0  0  0  0  0
    3.2679    1.2660   -0.6219 C   0  0  0  0  0  0  0  0  0  0  0  0
    2.3945    0.2545   -0.8789 C   0  0  0  0  0  0  0  0  0  0  0  0
    2.6169   -1.0816   -1.2186 C   0  0  0  0  0  0  0  0  0  0  0  0
    1.5034   -1.8745   -1.6304 C   0  0  0  0  0  0  0  0  0  0  0  0
    1.7530   -3.1714   -1.9305 N   0  0  0  0  0  0  0  0  0  0  0  0
    3.3922   -3.2073   -1.6796 S   0  0  0  0  0  0  0  0  0  0  0  0
    3.8321   -1.6831   -1.1951 N   0  0  0  0  0  0  0  0  0  0  0  0
    0.2326   -1.2917   -1.6537 C   0  0  0  0  0  0  0  0  0  0  0  0
   -0.9974   -1.8765   -1.7229 C   0  0  0  0  0  0  0  0  0  0  0  0
   -1.5811   -3.4689   -1.6476 S   0  0  0  0  0  0  0  0  0  0  0  0
   -3.0812   -2.9316   -1.0524 C   0  0  0  0  0  0  0  0  0  0  0  0
   -4.1927   -3.6187   -0.5465 C   0  0  0  0  0  0  0  0  0  0  0  0
   -4.3229   -5.1119   -0.7222 C   0  0  0  0  0  0  0  0  0  0  0  0
   -5.1792   -5.4512   -1.9376 C   0  0  0  0  0  0  0  0  0  0  0  0
   -5.1233   -2.7090    0.0399 C   0  0  0  0  0  0  0  0  0  0  0  0
   -4.4767   -1.1329   -0.0795 S   0  0  0  0  0  0  0  0  0  0  0  0
   -3.0853   -1.5742   -0.8829 C   0  0  0  0  0  0  0  0  0  0  0  0
   -1.8991   -0.9614   -1.2795 C   0  0  0  0  0  0  0  0  0  0  0  0
   -1.3258    0.2270   -0.9519 N   0  0  0  0  0  0  0  0  0  0  0  0
    0.0037    0.0371   -1.2527 C   0  0  0  0  0  0  0  0  0  0  0  0
    1.1291    0.8570   -0.9641 C   0  0  0  0  0  0  0  0  0  0  0  0
    1.2406    2.2279   -0.9025 N   0  0  0  0  0  0  0  0  0  0  0  0
    2.5624    2.4220   -0.6625 C   0  0  0  0  0  0  0  0  0  0  0  0
    3.3918    3.5340   -0.6538 C   0  0  0  0  0  0  0  0  0  0  0  0
    3.2195    5.2010   -0.7656 S   0  0  0  0  0  0  0  0  0  0  0  0
    0.3587    3.2394   -1.5054 C   0  0  0  0  0  0  0  0  0  0  0  0
    0.2348    3.0323   -3.0117 C   0  0  0  0  0  0  0  0  0  0  0  0
   -1.8908    1.1684    0.0240 C   0  0  0  0  0  0  0  0  0  0  0  0
   -2.9691    2.0416   -0.6184 C   0  0  0  0  0  0  0  0  0  0  0  0
   -6.4166   -2.9377    0.8161 C   0  0  0  0  0  0  0  0  0  0  0  0
   -6.9860   -4.3301    0.7680 C   0  0  0  0  0  0  0  0  0  0  0  0
   -6.6677   -5.2396    1.6970 C   0  0  0  0  0  0  0  0  0  0  0  0
   -5.6123   -4.9511    2.7112 C   0  0  0  0  0  0  0  0  0  0  0  0
   -4.7754   -5.9315    3.1571 C   0  0  0  0  0  0  0  0  0  0  0  0
   -4.9065   -7.3485    2.7707 C   0  0  0  0  0  0  0  0  0  0  0  0
   -6.0283   -7.9246    2.8399 O   0  0  0  0  0  0  0  0  0  0  0  0
   -3.7310   -8.0925    2.3966 N   0  0  0  0  0  0  0  0  0  0  0  0
   -3.8975   -9.4474    1.8400 C   0  0  0  0  0  0  0  0  0  0  0  0
   -3.8538  -10.4834    2.9579 C   0  0  0  0  0  0  0  0  0  0  0  0
   -2.4203   -7.5285    2.6749 C   0  0  0  0  0  0  0  0  0  0  0  0
   -1.0622   -8.2619    2.0817 S   0  0  0  0  0  0  0  0  0  0  0  0
   -2.3104   -6.3252    3.4831 N   0  0  0  0  0  0  0  0  0  0  0  0
   -3.5133   -5.6294    3.8613 C   0  0  0  0  0  0  0  0  0  0  0  0
   -3.4900   -4.7891    4.8010 O   0  0  0  0  0  0  0  0  0  0  0  0
   -1.0089   -5.6893    3.7665 C   0  0  0  0  0  0  0  0  0  0  0  0
   -0.6516   -4.7087    2.6536 C   0  0  0  0  0  0  0  0  0  0  0  0
   -5.3246   -3.4907    3.0314 C   0  0  0  0  0  0  0  0  0  0  0  0
   -6.2581   -2.5237    2.2925 C   0  0  0  0  0  0  0  0  0  0  0  0
    6.2012    7.0458    0.1403 H   0  0  0  0  0  0  0  0  0  0  0  0
    4.6281   12.0443   -1.0892 H   0  0  0  0  0  0  0  0  0  0  0  0
    2.8438   13.0063   -2.5356 H   0  0  0  0  0  0  0  0  0  0  0  0
    1.9990    9.1086   -4.1367 H   0  0  0  0  0  0  0  0  0  0  0  0
    7.5953    5.0254   -0.9060 H   0  0  0  0  0  0  0  0  0  0  0  0
    7.4447    3.2349   -0.9143 H   0  0  0  0  0  0  0  0  0  0  0  0
    8.6007    4.0474    1.1383 H   0  0  0  0  0  0  0  0  0  0  0  0
    7.1644    5.0507    1.5783 H   0  0  0  0  0  0  0  0  0  0  0  0
    7.0420    3.2356    1.5636 H   0  0  0  0  0  0  0  0  0  0  0  0
   -4.7003   -5.5999    0.1848 H   0  0  0  0  0  0  0  0  0  0  0  0
   -3.3214   -5.5634   -0.8756 H   0  0  0  0  0  0  0  0  0  0  0  0
   -4.6967   -5.0637   -2.8624 H   0  0  0  0  0  0  0  0  0  0  0  0
   -6.1927   -5.0065   -1.8414 H   0  0  0  0  0  0  0  0  0  0  0  0
   -5.2774   -6.5560   -2.0193 H   0  0  0  0  0  0  0  0  0  0  0  0
   -0.6277    3.2537   -1.0345 H   0  0  0  0  0  0  0  0  0  0  0  0
    0.7508    4.2521   -1.3189 H   0  0  0  0  0  0  0  0  0  0  0  0
   -0.3016    2.0873   -3.2270 H   0  0  0  0  0  0  0  0  0  0  0  0
    1.2412    2.9921   -3.4756 H   0  0  0  0  0  0  0  0  0  0  0  0
   -0.3332    3.8776   -3.4569 H   0  0  0  0  0  0  0  0  0  0  0  0
   -1.0963    1.7924    0.4827 H   0  0  0  0  0  0  0  0  0  0  0  0
   -2.3332    0.6117    0.8751 H   0  0  0  0  0  0  0  0  0  0  0  0
   -2.6262    2.4699   -1.5843 H   0  0  0  0  0  0  0  0  0  0  0  0
   -3.2283    2.8690    0.0751 H   0  0  0  0  0  0  0  0  0  0  0  0
   -3.8891    1.4553   -0.8090 H   0  0  0  0  0  0  0  0  0  0  0  0
   -7.1787   -2.2664    0.3655 H   0  0  0  0  0  0  0  0  0  0  0  0
   -7.7270   -4.5785    0.0139 H   0  0  0  0  0  0  0  0  0  0  0  0
   -7.1267   -6.2112    1.6163 H   0  0  0  0  0  0  0  0  0  0  0  0
   -4.8706   -9.5283    1.2982 H   0  0  0  0  0  0  0  0  0  0  0  0
   -3.1104   -9.6768    1.0901 H   0  0  0  0  0  0  0  0  0  0  0  0
   -4.0140  -11.4957    2.5338 H   0  0  0  0  0  0  0  0  0  0  0  0
   -2.8663  -10.4582    3.4695 H   0  0  0  0  0  0  0  0  0  0  0  0
   -4.6559  -10.2789    3.6966 H   0  0  0  0  0  0  0  0  0  0  0  0
   -1.0394   -5.1435    4.7354 H   0  0  0  0  0  0  0  0  0  0  0  0
   -0.2042   -6.4468    3.8799 H   0  0  0  0  0  0  0  0  0  0  0  0
   -0.5683   -5.2402    1.6813 H   0  0  0  0  0  0  0  0  0  0  0  0
    0.3175   -4.2210    2.8827 H   0  0  0  0  0  0  0  0  0  0  0  0
   -1.4312   -3.9209    2.5772 H   0  0  0  0  0  0  0  0  0  0  0  0
   -5.4354   -3.3158    4.1217 H   0  0  0  0  0  0  0  0  0  0  0  0
   -4.2776   -3.2492    2.7428 H   0  0  0  0  0  0  0  0  0  0  0  0
   -7.2565   -2.5355    2.7802 H   0  0  0  0  0  0  0  0  0  0  0  0
   -5.8698   -1.4864    2.3756 H   0  0  0  0  0  0  0  0  0  0  0  0
  1  2  2  3
  2  3  1  0
  3  4  2  0
  3  5  1  0
  5  6  2  0
  6  7  1  0
  7  8  2  0
  8  9  1  0
  8 10  1  0
 10 11  2  0
 11 12  1  0
 12 13  2  3
 13 14  1  0
 14 15  3  0
 13 16  1  0
 16 17  3  0
  1 18  1  0
 18 19  2  0
 19 20  1  0
 20 21  1  0
 19 22  1  0
 22 23  1  0
 23 24  1  0
 24 25  1  0
 25 26  1  0
 26 27  1  0
 27 28  2  0
 28 29  1  0
 29 30  1  0
 27 31  1  0
 31 32  1  0
 32 33  1  0
 33 34  1  0
 34 35  1  0
 35 36  1  0
 36 37  1  0
 35 38  2  0
 38 39  1  0
 39 40  1  0
 40 41  1  0
 41 42  1  0
 42 43  1  0
 43 44  1  0
 44 45  1  0
 45 46  1  0
 46 47  1  0
 47 48  1  0
 45 49  1  0
 49 50  1  0
 42 51  1  0
 51 52  1  0
 38 53  1  0
 53 54  1  0
 54 55  2  0
 55 56  1  0
 56 57  2  3
 57 58  1  0
 58 59  2  0
 58 60  1  0
 60 61  1  0
 61 62  1  0
 60 63  1  0
 63 64  2  0
 63 65  1  0
 65 66  1  0
 66 67  2  0
 65 68  1  0
 68 69  1  0
 56 70  1  0
 70 71  1  0
 12  2  1  0
 48 18  1  0
 71 53  1  0
 11  5  1  0
 47 22  2  0
 66 57  1  0
 46 24  2  0
 44 25  2  0
 30 26  2  0
 43 31  2  0
 41 32  2  0
 40 34  2  0
  1 72  1  0
  6 73  1  0
  7 74  1  0
 10 75  1  0
 20 76  1  0
 20 77  1  0
 21 78  1  0
 21 79  1  0
 21 80  1  0
 36 81  1  0
 36 82  1  0
 37 83  1  0
 37 84  1  0
 37 85  1  0
 49 86  1  0
 49 87  1  0
 50 88  1  0
 50 89  1  0
 50 90  1  0
 51 91  1  0
 51 92  1  0
 52 93  1  0
 52 94  1  0
 52 95  1  0
 53 96  1  0
 54 97  1  0
 55 98  1  0
 61 99  1  0
 61100  1  0
 62101  1  0
 62102  1  0
 62103  1  0
 68104  1  0
 68105  1  0
 69106  1  0
 69107  1  0
 69108  1  0
 70109  1  0
 70110  1  0
 71111  1  0
 71112  1  0
M  END

