
     RDKit          3D

100111  0  0  0  0  0  0  0  0999 V2000
   -3.0905    0.4449   -7.2765 C   0  0  0  0  0  0  0  0  0  0  0  0
   -4.3329   -0.0688   -7.2666 C   0  0  0  0  0  0  0  0  0  0  0  0
   -4.8260   -1.0877   -6.3315 C   0  0  0  0  0  0  0  0  0  0  0  0
   -4.1275   -1.8120   -5.5735 O   0  0  0  0  0  0  0  0  0  0  0  0
   -6.2693   -1.1125   -6.4111 C   0  0  0  0  0  0  0  0  0  0  0  0
   -7.1615   -1.8479   -5.6315 C   0  0  0  0  0  0  0  0  0  0  0  0
   -8.5345   -1.6505   -5.8253 C   0  0  0  0  0  0  0  0  0  0  0  0
   -8.9874   -0.7198   -6.7752 C   0  0  0  0  0  0  0  0  0  0  0  0
  -10.3160   -0.5082   -6.9283 F   0  0  0  0  0  0  0  0  0  0  0  0
   -8.0737    0.0131   -7.5472 C   0  0  0  0  0  0  0  0  0  0  0  0
   -6.6977   -0.2165   -7.3768 C   0  0  0  0  0  0  0  0  0  0  0  0
   -5.5200    0.4015   -8.0457 C   0  0  0  0  0  0  0  0  0  0  0  0
   -5.5092    1.0295   -9.2514 C   0  0  0  0  0  0  0  0  0  0  0  0
   -4.2861    1.3498   -9.9388 C   0  0  0  0  0  0  0  0  0  0  0  0
   -3.3061    1.6113  -10.4950 N   0  0  0  0  0  0  0  0  0  0  0  0
   -6.7104    1.2957   -9.9996 C   0  0  0  0  0  0  0  0  0  0  0  0
   -7.6651    1.5126  -10.6176 N   0  0  0  0  0  0  0  0  0  0  0  0
   -2.0115   -0.0684   -6.4245 C   0  0  0  0  0  0  0  0  0  0  0  0
   -0.9926   -0.9425   -6.8449 C   0  0  0  0  0  0  0  0  0  0  0  0
   -0.8301   -1.4609   -8.2438 C   0  0  0  0  0  0  0  0  0  0  0  0
   -0.0742   -0.4610   -9.1107 C   0  0  0  0  0  0  0  0  0  0  0  0
   -0.1181   -1.2136   -5.7940 C   0  0  0  0  0  0  0  0  0  0  0  0
    1.3224   -2.1226   -5.6539 S   0  0  0  0  0  0  0  0  0  0  0  0
    1.4468   -1.7140   -4.0091 C   0  0  0  0  0  0  0  0  0  0  0  0
    2.3734   -1.7550   -3.0057 C   0  0  0  0  0  0  0  0  0  0  0  0
    3.6916   -2.2315   -2.9582 C   0  0  0  0  0  0  0  0  0  0  0  0
    4.4807   -1.9512   -1.7974 C   0  0  0  0  0  0  0  0  0  0  0  0
    5.7461   -2.4348   -1.7791 N   0  0  0  0  0  0  0  0  0  0  0  0
    5.7772   -3.1755   -3.2629 S   0  0  0  0  0  0  0  0  0  0  0  0
    4.2858   -2.9379   -3.9486 N   0  0  0  0  0  0  0  0  0  0  0  0
    3.8981   -1.2248   -0.7488 C   0  0  0  0  0  0  0  0  0  0  0  0
    4.3137   -0.9654    0.5283 C   0  0  0  0  0  0  0  0  0  0  0  0
    5.6054   -1.3745    1.5517 S   0  0  0  0  0  0  0  0  0  0  0  0
    4.7185   -0.8526    2.9190 C   0  0  0  0  0  0  0  0  0  0  0  0
    4.9929   -0.7936    4.2875 C   0  0  0  0  0  0  0  0  0  0  0  0
    6.2772   -1.2744    4.9039 C   0  0  0  0  0  0  0  0  0  0  0  0
    6.2036   -2.7671    5.2082 C   0  0  0  0  0  0  0  0  0  0  0  0
    3.8883   -0.2749    4.9955 C   0  0  0  0  0  0  0  0  0  0  0  0
    2.5918    0.0241    3.9186 S   0  0  0  0  0  0  0  0  0  0  0  0
    3.4623   -0.4373    2.5683 C   0  0  0  0  0  0  0  0  0  0  0  0
    3.2378   -0.4901    1.2050 C   0  0  0  0  0  0  0  0  0  0  0  0
    2.1112   -0.4388    0.4522 N   0  0  0  0  0  0  0  0  0  0  0  0
    2.5633   -0.8019   -0.7893 C   0  0  0  0  0  0  0  0  0  0  0  0
    1.8232   -0.9845   -1.9729 C   0  0  0  0  0  0  0  0  0  0  0  0
    0.6667   -0.3640   -2.3651 N   0  0  0  0  0  0  0  0  0  0  0  0
    0.4465   -0.8942   -3.5927 C   0  0  0  0  0  0  0  0  0  0  0  0
   -0.4372   -0.5893   -4.6130 C   0  0  0  0  0  0  0  0  0  0  0  0
   -1.8104    0.3563   -4.7835 S   0  0  0  0  0  0  0  0  0  0  0  0
    0.2340    0.9841   -1.9636 C   0  0  0  0  0  0  0  0  0  0  0  0
    0.9519    2.0486   -2.7920 C   0  0  0  0  0  0  0  0  0  0  0  0
    0.7674   -0.7249    0.9895 C   0  0  0  0  0  0  0  0  0  0  0  0
    0.6617   -2.1886    1.4269 C   0  0  0  0  0  0  0  0  0  0  0  0
    3.8103   -0.0871    6.4571 C   0  0  0  0  0  0  0  0  0  0  0  0
    3.1440    0.9227    7.0483 C   0  0  0  0  0  0  0  0  0  0  0  0
    2.5750    0.8196    8.3922 C   0  0  0  0  0  0  0  0  0  0  0  0
    2.9019   -0.0216    9.2721 O   0  0  0  0  0  0  0  0  0  0  0  0
    1.4823    1.7687    8.4933 C   0  0  0  0  0  0  0  0  0  0  0  0
    0.5349    1.8966    9.5080 C   0  0  0  0  0  0  0  0  0  0  0  0
   -0.5221    2.8152    9.3367 C   0  0  0  0  0  0  0  0  0  0  0  0
   -1.5733    2.9692   10.4065 C   0  0  0  0  0  0  0  0  0  0  0  0
   -2.5662    2.0259   10.2099 F   0  0  0  0  0  0  0  0  0  0  0  0
   -1.0185    2.7896   11.6621 F   0  0  0  0  0  0  0  0  0  0  0  0
   -2.1385    4.2326   10.3617 F   0  0  0  0  0  0  0  0  0  0  0  0
   -0.6409    3.5118    8.1111 C   0  0  0  0  0  0  0  0  0  0  0  0
    0.3197    3.3538    7.0994 C   0  0  0  0  0  0  0  0  0  0  0  0
    1.4056    2.5000    7.3228 C   0  0  0  0  0  0  0  0  0  0  0  0
    2.5270    2.1279    6.4228 C   0  0  0  0  0  0  0  0  0  0  0  0
    3.1199    2.9452    5.5165 C   0  0  0  0  0  0  0  0  0  0  0  0
    2.5528    4.2159    5.1489 C   0  0  0  0  0  0  0  0  0  0  0  0
    2.1082    5.2418    4.8575 N   0  0  0  0  0  0  0  0  0  0  0  0
    4.4442    2.6855    5.0089 C   0  0  0  0  0  0  0  0  0  0  0  0
    5.5083    2.4855    4.5980 N   0  0  0  0  0  0  0  0  0  0  0  0
   -2.8381    1.2936   -7.8927 H   0  0  0  0  0  0  0  0  0  0  0  0
   -6.8022   -2.5392   -4.8821 H   0  0  0  0  0  0  0  0  0  0  0  0
   -9.2459   -2.2071   -5.2300 H   0  0  0  0  0  0  0  0  0  0  0  0
   -8.4497    0.7561   -8.2281 H   0  0  0  0  0  0  0  0  0  0  0  0
   -1.8316   -1.6584   -8.6879 H   0  0  0  0  0  0  0  0  0  0  0  0
   -0.2813   -2.4258   -8.2273 H   0  0  0  0  0  0  0  0  0  0  0  0
    0.0011   -0.8521  -10.1462 H   0  0  0  0  0  0  0  0  0  0  0  0
   -0.6070    0.5146   -9.1386 H   0  0  0  0  0  0  0  0  0  0  0  0
    0.9516   -0.3043   -8.7136 H   0  0  0  0  0  0  0  0  0  0  0  0
    7.1199   -1.0823    4.2042 H   0  0  0  0  0  0  0  0  0  0  0  0
    6.4902   -0.7121    5.8373 H   0  0  0  0  0  0  0  0  0  0  0  0
    7.2168   -3.1554    5.4301 H   0  0  0  0  0  0  0  0  0  0  0  0
    5.5444   -2.9497    6.0803 H   0  0  0  0  0  0  0  0  0  0  0  0
    5.8032   -3.3167    4.3330 H   0  0  0  0  0  0  0  0  0  0  0  0
   -0.8635    1.0790   -2.0883 H   0  0  0  0  0  0  0  0  0  0  0  0
    0.4759    1.1896   -0.9044 H   0  0  0  0  0  0  0  0  0  0  0  0
    0.6990    3.0588   -2.4085 H   0  0  0  0  0  0  0  0  0  0  0  0
    2.0517    1.9128   -2.7228 H   0  0  0  0  0  0  0  0  0  0  0  0
    0.6460    1.9913   -3.8603 H   0  0  0  0  0  0  0  0  0  0  0  0
    0.5509   -0.0574    1.8476 H   0  0  0  0  0  0  0  0  0  0  0  0
   -0.0176   -0.5671    0.2306 H   0  0  0  0  0  0  0  0  0  0  0  0
   -0.3583   -2.3901    1.8284 H   0  0  0  0  0  0  0  0  0  0  0  0
    1.4053   -2.4171    2.2174 H   0  0  0  0  0  0  0  0  0  0  0  0
    0.8441   -2.8558    0.5569 H   0  0  0  0  0  0  0  0  0  0  0  0
    4.2061   -0.8827    7.0762 H   0  0  0  0  0  0  0  0  0  0  0  0
    0.6113    1.2865   10.4030 H   0  0  0  0  0  0  0  0  0  0  0  0
   -1.4796    4.1726    7.9338 H   0  0  0  0  0  0  0  0  0  0  0  0
    0.1809    3.8633    6.1592 H   0  0  0  0  0  0  0  0  0  0  0  0
  1  2  2  3
  2  3  1  0
  3  4  2  0
  3  5  1  0
  5  6  2  0
  6  7  1  0
  7  8  2  0
  8  9  1  0
  8 10  1  0
 10 11  2  0
 11 12  1  0
 12 13  2  3
 13 14  1  0
 14 15  3  0
 13 16  1  0
 16 17  3  0
  1 18  1  0
 18 19  2  0
 19 20  1  0
 20 21  1  0
 19 22  1  0
 22 23  1  0
 23 24  1  0
 24 25  1  0
 25 26  1  0
 26 27  1  0
 27 28  2  0
 28 29  1  0
 29 30  1  0
 27 31  1  0
 31 32  1  0
 32 33  1  0
 33 34  1  0
 34 35  1  0
 35 36  1  0
 36 37  1  0
 35 38  2  0
 38 39  1  0
 39 40  1  0
 40 41  1  0
 41 42  1  0
 42 43  1  0
 43 44  1  0
 44 45  1  0
 45 46  1  0
 46 47  1  0
 47 48  1  0
 45 49  1  0
 49 50  1  0
 42 51  1  0
 51 52  1  0
 38 53  1  0
 53 54  2  3
 54 55  1  0
 55 56  2  0
 55 57  1  0
 57 58  2  0
 58 59  1  0
 59 60  1  0
 60 61  1  0
 60 62  1  0
 60 63  1  0
 59 64  2  0
 64 65  1  0
 65 66  2  0
 66 67  1  0
 67 68  2  3
 68 69  1  0
 69 70  3  0
 68 71  1  0
 71 72  3  0
 12  2  1  0
 48 18  1  0
 67 54  1  0
 11  5  1  0
 47 22  2  0
 66 57  1  0
 46 24  2  0
 44 25  2  0
 30 26  2  0
 43 31  2  0
 41 32  2  0
 40 34  2  0
  1 73  1  0
  6 74  1  0
  7 75  1  0
 10 76  1  0
 20 77  1  0
 20 78  1  0
 21 79  1  0
 21 80  1  0
 21 81  1  0
 36 82  1  0
 36 83  1  0
 37 84  1  0
 37 85  1  0
 37 86  1  0
 49 87  1  0
 49 88  1  0
 50 89  1  0
 50 90  1  0
 50 91  1  0
 51 92  1  0
 51 93  1  0
 52 94  1  0
 52 95  1  0
 52 96  1  0
 53 97  1  0
 58 98  1  0
 64 99  1  0
 65100  1  0
M  END

