
     RDKit          3D

140155  0  0  0  0  0  0  0  0999 V2000
    0.1801    4.6251    5.5167 C   0  0  0  0  0  0  0  0  0  0  0  0
   -0.7893    5.5949    5.5410 C   0  0  0  0  0  0  0  0  0  0  0  0
   -2.0726    5.7729    6.3186 C   0  0  0  0  0  0  0  0  0  0  0  0
   -2.5298    4.9168    7.0963 O   0  0  0  0  0  0  0  0  0  0  0  0
   -2.5704    7.1858    6.1345 C   0  0  0  0  0  0  0  0  0  0  0  0
   -3.7892    7.7741    6.5449 C   0  0  0  0  0  0  0  0  0  0  0  0
   -4.0843    9.0573    6.0896 C   0  0  0  0  0  0  0  0  0  0  0  0
   -3.2255    9.7849    5.2232 C   0  0  0  0  0  0  0  0  0  0  0  0
   -3.4878   11.0015    4.7620 F   0  0  0  0  0  0  0  0  0  0  0  0
   -2.0004    9.1586    4.8235 C   0  0  0  0  0  0  0  0  0  0  0  0
   -1.6383    7.8533    5.3372 C   0  0  0  0  0  0  0  0  0  0  0  0
   -0.4876    6.9863    4.9462 C   0  0  0  0  0  0  0  0  0  0  0  0
    0.5623    7.5337    4.2572 C   0  0  0  0  0  0  0  0  0  0  0  0
    1.5197    6.7647    3.5053 C   0  0  0  0  0  0  0  0  0  0  0  0
    2.2931    6.1520    2.8641 N   0  0  0  0  0  0  0  0  0  0  0  0
    0.9837    8.9459    4.4662 C   0  0  0  0  0  0  0  0  0  0  0  0
    1.2905   10.0299    4.6417 N   0  0  0  0  0  0  0  0  0  0  0  0
    0.1497    3.1373    5.7080 C   0  0  0  0  0  0  0  0  0  0  0  0
   -0.9415    2.1784    5.6751 C   0  0  0  0  0  0  0  0  0  0  0  0
   -0.5221    0.8897    5.3935 C   0  0  0  0  0  0  0  0  0  0  0  0
   -1.2397   -0.5134    4.6979 S   0  0  0  0  0  0  0  0  0  0  0  0
    0.2247   -1.3109    4.3472 C   0  0  0  0  0  0  0  0  0  0  0  0
    0.5160   -2.3245    3.2462 C   0  0  0  0  0  0  0  0  0  0  0  0
    1.8081   -2.3417    2.6763 C   0  0  0  0  0  0  0  0  0  0  0  0
    3.0050   -1.6619    3.3524 C   0  0  0  0  0  0  0  0  0  0  0  0
    2.5872   -0.7972    4.4270 O   0  0  0  0  0  0  0  0  0  0  0  0
    1.2738   -0.4995    4.7256 C   0  0  0  0  0  0  0  0  0  0  0  0
    0.8439    0.7138    5.2965 C   0  0  0  0  0  0  0  0  0  0  0  0
    1.5831    2.1781    5.3860 S   0  0  0  0  0  0  0  0  0  0  0  0
    3.6321   -0.7366    2.3604 C   0  0  0  0  0  0  0  0  0  0  0  0
    4.8972   -0.8959    1.7383 C   0  0  0  0  0  0  0  0  0  0  0  0
    5.3503    0.0434    0.8073 C   0  0  0  0  0  0  0  0  0  0  0  0
    4.5366    1.1625    0.4988 C   0  0  0  0  0  0  0  0  0  0  0  0
    5.0322    2.2887   -0.3130 C   0  0  0  0  0  0  0  0  0  0  0  0
    5.6674    3.3156    0.6251 C   0  0  0  0  0  0  0  0  0  0  0  0
    3.2866    1.3234    1.1195 C   0  0  0  0  0  0  0  0  0  0  0  0
    2.8275    0.3868    2.0053 C   0  0  0  0  0  0  0  0  0  0  0  0
    4.0100   -2.6610    3.9168 C   0  0  0  0  0  0  0  0  0  0  0  0
    4.7652   -2.2781    5.0574 C   0  0  0  0  0  0  0  0  0  0  0  0
    5.7390   -3.0957    5.6005 C   0  0  0  0  0  0  0  0  0  0  0  0
    6.0158   -4.3391    5.0022 C   0  0  0  0  0  0  0  0  0  0  0  0
    7.1071   -5.2072    5.5915 C   0  0  0  0  0  0  0  0  0  0  0  0
    6.5250   -6.1657    6.6300 C   0  0  0  0  0  0  0  0  0  0  0  0
    5.2926   -4.7719    3.8816 C   0  0  0  0  0  0  0  0  0  0  0  0
    4.2794   -3.9393    3.3380 C   0  0  0  0  0  0  0  0  0  0  0  0
    1.7391   -2.7394    1.2837 C   0  0  0  0  0  0  0  0  0  0  0  0
    2.5975   -2.1982   -0.0988 S   0  0  0  0  0  0  0  0  0  0  0  0
    1.3800   -2.4832   -1.2613 C   0  0  0  0  0  0  0  0  0  0  0  0
    1.1419   -1.9710   -2.6776 C   0  0  0  0  0  0  0  0  0  0  0  0
   -0.1842   -1.9511   -3.1034 C   0  0  0  0  0  0  0  0  0  0  0  0
   -1.1751   -2.5973   -2.3917 O   0  0  0  0  0  0  0  0  0  0  0  0
   -0.8350   -3.6167   -1.4369 C   0  0  0  0  0  0  0  0  0  0  0  0
   -0.4773   -4.8699   -2.2469 C   0  0  0  0  0  0  0  0  0  0  0  0
    0.7831   -5.5297   -2.1846 C   0  0  0  0  0  0  0  0  0  0  0  0
    1.0320   -6.6795   -2.9487 C   0  0  0  0  0  0  0  0  0  0  0  0
    0.0169   -7.1984   -3.7570 C   0  0  0  0  0  0  0  0  0  0  0  0
    0.2744   -8.3994   -4.5958 C   0  0  0  0  0  0  0  0  0  0  0  0
    0.7618   -7.9543   -5.9749 C   0  0  0  0  0  0  0  0  0  0  0  0
   -1.2304   -6.5459   -3.8480 C   0  0  0  0  0  0  0  0  0  0  0  0
   -1.4714   -5.3833   -3.1207 C   0  0  0  0  0  0  0  0  0  0  0  0
   -2.0231   -3.9714   -0.5805 C   0  0  0  0  0  0  0  0  0  0  0  0
   -1.9485   -5.1170    0.2861 C   0  0  0  0  0  0  0  0  0  0  0  0
   -3.0736   -5.5094    1.0155 C   0  0  0  0  0  0  0  0  0  0  0  0
   -4.2684   -4.7703    0.9026 C   0  0  0  0  0  0  0  0  0  0  0  0
   -5.5007   -5.1833    1.6315 C   0  0  0  0  0  0  0  0  0  0  0  0
   -6.3243   -6.1174    0.7533 C   0  0  0  0  0  0  0  0  0  0  0  0
   -4.3605   -3.6800    0.0297 C   0  0  0  0  0  0  0  0  0  0  0  0
   -3.2397   -3.2734   -0.6942 C   0  0  0  0  0  0  0  0  0  0  0  0
    0.3091   -3.0634   -0.5907 C   0  0  0  0  0  0  0  0  0  0  0  0
    0.5076   -3.1238    0.8207 C   0  0  0  0  0  0  0  0  0  0  0  0
   -0.6125   -2.8841    2.0814 S   0  0  0  0  0  0  0  0  0  0  0  0
   -0.3513   -1.1899   -4.2546 C   0  0  0  0  0  0  0  0  0  0  0  0
    0.8014   -0.7469   -4.8282 C   0  0  0  0  0  0  0  0  0  0  0  0
    2.1028   -1.1494   -3.7886 S   0  0  0  0  0  0  0  0  0  0  0  0
    0.6046    0.0573   -5.9505 C   0  0  0  0  0  0  0  0  0  0  0  0
   -0.7458    0.3245   -6.1858 C   0  0  0  0  0  0  0  0  0  0  0  0
   -1.6811   -0.5697   -5.0577 S   0  0  0  0  0  0  0  0  0  0  0  0
   -1.2502    1.5537   -6.8786 C   0  0  0  0  0  0  0  0  0  0  0  0
   -1.1580    2.7889   -6.3402 C   0  0  0  0  0  0  0  0  0  0  0  0
   -0.5266    3.0861   -5.0373 C   0  0  0  0  0  0  0  0  0  0  0  0
   -0.0866    2.2614   -4.2223 O   0  0  0  0  0  0  0  0  0  0  0  0
   -0.5540    4.5060   -4.7952 C   0  0  0  0  0  0  0  0  0  0  0  0
   -1.1910    5.1669   -5.8556 C   0  0  0  0  0  0  0  0  0  0  0  0
   -1.3567    6.5735   -5.7673 C   0  0  0  0  0  0  0  0  0  0  0  0
   -0.8872    7.2407   -4.6214 C   0  0  0  0  0  0  0  0  0  0  0  0
   -1.0726    8.5921   -4.5636 F   0  0  0  0  0  0  0  0  0  0  0  0
   -0.2517    6.5379   -3.5743 C   0  0  0  0  0  0  0  0  0  0  0  0
    0.1915    7.2127   -2.4786 F   0  0  0  0  0  0  0  0  0  0  0  0
   -0.0799    5.1678   -3.6484 C   0  0  0  0  0  0  0  0  0  0  0  0
    0.5268    4.4675   -2.6400 F   0  0  0  0  0  0  0  0  0  0  0  0
   -1.6288    4.1546   -6.8911 C   0  0  0  0  0  0  0  0  0  0  0  0
   -2.3452    4.4563   -8.0294 C   0  0  0  0  0  0  0  0  0  0  0  0
   -2.8768    3.4578   -8.9508 C   0  0  0  0  0  0  0  0  0  0  0  0
   -3.3142    2.7107   -9.6959 N   0  0  0  0  0  0  0  0  0  0  0  0
   -2.7027    5.8641   -8.4241 C   0  0  0  0  0  0  0  0  0  0  0  0
   -2.9708    6.9230   -8.7241 N   0  0  0  0  0  0  0  0  0  0  0  0
    1.1614    4.8862    5.1366 H   0  0  0  0  0  0  0  0  0  0  0  0
   -4.5312    7.2493    7.1848 H   0  0  0  0  0  0  0  0  0  0  0  0
   -5.0179    9.5470    6.3502 H   0  0  0  0  0  0  0  0  0  0  0  0
   -1.3916    9.6706    4.1132 H   0  0  0  0  0  0  0  0  0  0  0  0
   -1.9889    2.4684    5.7215 H   0  0  0  0  0  0  0  0  0  0  0  0
    5.5021   -1.7623    1.9274 H   0  0  0  0  0  0  0  0  0  0  0  0
    6.3368   -0.0970    0.3801 H   0  0  0  0  0  0  0  0  0  0  0  0
    4.1881    2.7637   -0.8805 H   0  0  0  0  0  0  0  0  0  0  0  0
    5.7722    1.8888   -1.0328 H   0  0  0  0  0  0  0  0  0  0  0  0
    4.8322    3.8264    1.1692 H   0  0  0  0  0  0  0  0  0  0  0  0
    6.2155    4.0752    0.0240 H   0  0  0  0  0  0  0  0  0  0  0  0
    6.3951    2.8455    1.3243 H   0  0  0  0  0  0  0  0  0  0  0  0
    2.6743    2.2163    0.9405 H   0  0  0  0  0  0  0  0  0  0  0  0
    1.8174    0.5525    2.4161 H   0  0  0  0  0  0  0  0  0  0  0  0
    4.6907   -1.3032    5.5750 H   0  0  0  0  0  0  0  0  0  0  0  0
    6.2787   -2.7223    6.4627 H   0  0  0  0  0  0  0  0  0  0  0  0
    7.6336   -5.7615    4.7991 H   0  0  0  0  0  0  0  0  0  0  0  0
    7.8643   -4.5547    6.0550 H   0  0  0  0  0  0  0  0  0  0  0  0
    6.3485   -5.6223    7.5856 H   0  0  0  0  0  0  0  0  0  0  0  0
    5.5440   -6.5816    6.2907 H   0  0  0  0  0  0  0  0  0  0  0  0
    7.2453   -6.9984    6.7953 H   0  0  0  0  0  0  0  0  0  0  0  0
    5.4967   -5.7341    3.3850 H   0  0  0  0  0  0  0  0  0  0  0  0
    3.7701   -4.2855    2.4499 H   0  0  0  0  0  0  0  0  0  0  0  0
    1.5662   -5.1913   -1.5471 H   0  0  0  0  0  0  0  0  0  0  0  0
    2.0216   -7.1424   -2.9026 H   0  0  0  0  0  0  0  0  0  0  0  0
    1.0382   -9.0558   -4.1250 H   0  0  0  0  0  0  0  0  0  0  0  0
   -0.6743   -8.9513   -4.7119 H   0  0  0  0  0  0  0  0  0  0  0  0
    1.7742   -7.4985   -5.8835 H   0  0  0  0  0  0  0  0  0  0  0  0
    0.8359   -8.8387   -6.6485 H   0  0  0  0  0  0  0  0  0  0  0  0
    0.0564   -7.2031   -6.4252 H   0  0  0  0  0  0  0  0  0  0  0  0
   -2.0409   -6.9110   -4.4882 H   0  0  0  0  0  0  0  0  0  0  0  0
   -2.4584   -4.9175   -3.2053 H   0  0  0  0  0  0  0  0  0  0  0  0
   -1.0433   -5.7370    0.3897 H   0  0  0  0  0  0  0  0  0  0  0  0
   -3.0044   -6.3758    1.6486 H   0  0  0  0  0  0  0  0  0  0  0  0
   -5.2175   -5.6770    2.5628 H   0  0  0  0  0  0  0  0  0  0  0  0
   -6.0821   -4.2562    1.8543 H   0  0  0  0  0  0  0  0  0  0  0  0
   -5.9431   -7.1584    0.8702 H   0  0  0  0  0  0  0  0  0  0  0  0
   -6.2859   -5.8199   -0.3142 H   0  0  0  0  0  0  0  0  0  0  0  0
   -7.3961   -6.0977    1.0597 H   0  0  0  0  0  0  0  0  0  0  0  0
   -5.3030   -3.1459   -0.1303 H   0  0  0  0  0  0  0  0  0  0  0  0
   -3.3806   -2.4388   -1.3991 H   0  0  0  0  0  0  0  0  0  0  0  0
    1.4151    0.6496   -6.3764 H   0  0  0  0  0  0  0  0  0  0  0  0
   -1.6885    1.4133   -7.8244 H   0  0  0  0  0  0  0  0  0  0  0  0
   -1.8490    7.1623   -6.5470 H   0  0  0  0  0  0  0  0  0  0  0  0
  1  2  2  3
  2  3  1  0
  3  4  2  0
  3  5  1  0
  5  6  2  0
  6  7  1  0
  7  8  2  0
  8  9  1  0
  8 10  1  0
 10 11  2  0
 11 12  1  0
 12 13  2  3
 13 14  1  0
 14 15  3  0
 13 16  1  0
 16 17  3  0
  1 18  1  0
 18 19  2  0
 19 20  1  0
 20 21  1  0
 21 22  1  0
 22 23  1  0
 23 24  2  0
 24 25  1  0
 25 26  1  0
 26 27  1  0
 27 28  1  0
 28 29  1  0
 25 30  1  0
 30 31  2  0
 31 32  1  0
 32 33  2  0
 33 34  1  0
 34 35  1  0
 33 36  1  0
 36 37  2  0
 25 38  1  0
 38 39  2  0
 39 40  1  0
 40 41  2  0
 41 42  1  0
 42 43  1  0
 41 44  1  0
 44 45  2  0
 24 46  1  0
 46 47  1  0
 47 48  1  0
 48 49  1  0
 49 50  2  0
 50 51  1  0
 51 52  1  0
 52 53  1  0
 53 54  2  0
 54 55  1  0
 55 56  2  0
 56 57  1  0
 57 58  1  0
 56 59  1  0
 59 60  2  0
 52 61  1  0
 61 62  2  0
 62 63  1  0
 63 64  2  0
 64 65  1  0
 65 66  1  0
 64 67  1  0
 67 68  2  0
 52 69  1  0
 69 70  1  0
 70 71  1  0
 50 72  1  0
 72 73  2  0
 73 74  1  0
 73 75  1  0
 75 76  2  0
 76 77  1  0
 76 78  1  0
 78 79  2  3
 79 80  1  0
 80 81  2  0
 80 82  1  0
 82 83  2  0
 83 84  1  0
 84 85  2  0
 85 86  1  0
 85 87  1  0
 87 88  1  0
 87 89  2  0
 89 90  1  0
 83 91  1  0
 91 92  2  3
 92 93  1  0
 93 94  3  0
 92 95  1  0
 95 96  3  0
 12  2  1  0
 29 18  1  0
 37 30  1  0
 45 38  1  0
 70 46  2  0
 77 72  1  0
 91 79  1  0
 11  5  1  0
 28 20  2  0
 69 48  2  0
 89 82  1  0
 27 22  2  0
 74 49  1  0
 71 23  1  0
 60 53  1  0
 68 61  1  0
  1 97  1  0
  6 98  1  0
  7 99  1  0
 10100  1  0
 19101  1  0
 31102  1  0
 32103  1  0
 34104  1  0
 34105  1  0
 35106  1  0
 35107  1  0
 35108  1  0
 36109  1  0
 37110  1  0
 39111  1  0
 40112  1  0
 42113  1  0
 42114  1  0
 43115  1  0
 43116  1  0
 43117  1  0
 44118  1  0
 45119  1  0
 54120  1  0
 55121  1  0
 57122  1  0
 57123  1  0
 58124  1  0
 58125  1  0
 58126  1  0
 59127  1  0
 60128  1  0
 62129  1  0
 63130  1  0
 65131  1  0
 65132  1  0
 66133  1  0
 66134  1  0
 66135  1  0
 67136  1  0
 68137  1  0
 75138  1  0
 78139  1  0
 84140  1  0
M  END

