
     RDKit          3D

 94105  0  0  0  0  0  0  0  0999 V2000
    1.7861   -4.4363   -5.7555 C   0  0  0  0  0  0  0  0  0  0  0  0
    0.6822   -4.1743   -6.4836 C   0  0  0  0  0  0  0  0  0  0  0  0
    0.7486   -3.8235   -7.9041 C   0  0  0  0  0  0  0  0  0  0  0  0
    1.6786   -4.1202   -8.7028 O   0  0  0  0  0  0  0  0  0  0  0  0
   -0.4013   -2.9970   -8.2154 C   0  0  0  0  0  0  0  0  0  0  0  0
   -0.6711   -2.2842   -9.3862 C   0  0  0  0  0  0  0  0  0  0  0  0
   -1.7992   -1.4520   -9.4074 C   0  0  0  0  0  0  0  0  0  0  0  0
   -2.6248   -1.3418   -8.2724 C   0  0  0  0  0  0  0  0  0  0  0  0
   -3.7079   -0.5230   -8.3054 F   0  0  0  0  0  0  0  0  0  0  0  0
   -2.3360   -2.0748   -7.1058 C   0  0  0  0  0  0  0  0  0  0  0  0
   -1.2195   -2.9223   -7.1008 C   0  0  0  0  0  0  0  0  0  0  0  0
   -0.6768   -3.7798   -6.0212 C   0  0  0  0  0  0  0  0  0  0  0  0
   -1.4103   -4.4342   -5.0870 C   0  0  0  0  0  0  0  0  0  0  0  0
   -2.7933   -4.1280   -4.8452 C   0  0  0  0  0  0  0  0  0  0  0  0
   -3.9090   -3.8920   -4.6454 N   0  0  0  0  0  0  0  0  0  0  0  0
   -0.8705   -5.5424   -4.3432 C   0  0  0  0  0  0  0  0  0  0  0  0
   -0.4330   -6.4193   -3.7341 N   0  0  0  0  0  0  0  0  0  0  0  0
    1.9390   -4.1487   -4.3090 C   0  0  0  0  0  0  0  0  0  0  0  0
    3.0138   -4.5851   -3.4999 C   0  0  0  0  0  0  0  0  0  0  0  0
    4.1423   -5.4684   -3.9545 C   0  0  0  0  0  0  0  0  0  0  0  0
    5.2697   -4.6342   -4.5591 C   0  0  0  0  0  0  0  0  0  0  0  0
    2.9658   -3.9852   -2.2387 C   0  0  0  0  0  0  0  0  0  0  0  0
    4.0247   -3.9713   -0.8992 S   0  0  0  0  0  0  0  0  0  0  0  0
    3.0465   -2.8285   -0.1085 C   0  0  0  0  0  0  0  0  0  0  0  0
    2.9917   -2.1093    1.0532 C   0  0  0  0  0  0  0  0  0  0  0  0
    3.8086   -2.1313    2.1858 C   0  0  0  0  0  0  0  0  0  0  0  0
    3.4831   -1.2875    3.2865 C   0  0  0  0  0  0  0  0  0  0  0  0
    4.3053   -1.3366    4.3673 N   0  0  0  0  0  0  0  0  0  0  0  0
    5.3867   -2.4709    3.8368 S   0  0  0  0  0  0  0  0  0  0  0  0
    4.9032   -2.9172    2.3162 N   0  0  0  0  0  0  0  0  0  0  0  0
    2.3699   -0.4456    3.1773 C   0  0  0  0  0  0  0  0  0  0  0  0
    1.9549    0.5810    3.9740 C   0  0  0  0  0  0  0  0  0  0  0  0
    2.4139    1.3507    5.4196 S   0  0  0  0  0  0  0  0  0  0  0  0
    1.2746    2.5889    5.1363 C   0  0  0  0  0  0  0  0  0  0  0  0
    0.8951    3.7314    5.8554 C   0  0  0  0  0  0  0  0  0  0  0  0
    1.4399    4.0960    7.2099 C   0  0  0  0  0  0  0  0  0  0  0  0
    0.7135    3.3146    8.3015 C   0  0  0  0  0  0  0  0  0  0  0  0
   -0.1202    4.4357    5.1804 C   0  0  0  0  0  0  0  0  0  0  0  0
   -0.5425    3.5993    3.7522 S   0  0  0  0  0  0  0  0  0  0  0  0
    0.5921    2.3890    3.9641 C   0  0  0  0  0  0  0  0  0  0  0  0
    0.9864    1.2409    3.3011 C   0  0  0  0  0  0  0  0  0  0  0  0
    0.7288    0.7162    2.0799 N   0  0  0  0  0  0  0  0  0  0  0  0
    1.5596   -0.3851    2.0190 C   0  0  0  0  0  0  0  0  0  0  0  0
    1.8383   -1.3033    0.9569 C   0  0  0  0  0  0  0  0  0  0  0  0
    1.1522   -1.6032   -0.2002 N   0  0  0  0  0  0  0  0  0  0  0  0
    1.9557   -2.4941   -0.8253 C   0  0  0  0  0  0  0  0  0  0  0  0
    1.9079   -3.1438   -2.0423 C   0  0  0  0  0  0  0  0  0  0  0  0
    1.0000   -3.0168   -3.4343 S   0  0  0  0  0  0  0  0  0  0  0  0
   -0.2749   -1.4611   -0.5207 C   0  0  0  0  0  0  0  0  0  0  0  0
   -1.1649   -1.9187    0.6388 C   0  0  0  0  0  0  0  0  0  0  0  0
    0.0019    1.4246    1.0152 C   0  0  0  0  0  0  0  0  0  0  0  0
    0.9297    1.8411   -0.1237 C   0  0  0  0  0  0  0  0  0  0  0  0
   -0.8849    5.5727    5.7197 C   0  0  0  0  0  0  0  0  0  0  0  0
   -1.2973    6.6175    4.9755 C   0  0  0  0  0  0  0  0  0  0  0  0
   -0.9106    6.8839    3.5759 C   0  0  0  0  0  0  0  0  0  0  0  0
    0.0809    6.4107    2.9601 O   0  0  0  0  0  0  0  0  0  0  0  0
   -1.8488    7.8301    3.0313 C   0  0  0  0  0  0  0  0  0  0  0  0
   -2.0480    8.3422    1.7606 C   0  0  0  0  0  0  0  0  0  0  0  0
   -3.4144    9.3241    1.8999 S   0  0  0  0  0  0  0  0  0  0  0  0
   -3.7287    9.0865    3.5502 C   0  0  0  0  0  0  0  0  0  0  0  0
   -2.7392    8.2190    4.0030 C   0  0  0  0  0  0  0  0  0  0  0  0
   -2.4137    7.5752    5.2981 C   0  0  0  0  0  0  0  0  0  0  0  0
   -2.9597    7.8714    6.5000 C   0  0  0  0  0  0  0  0  0  0  0  0
   -4.1217    8.7231    6.6169 C   0  0  0  0  0  0  0  0  0  0  0  0
   -5.0696    9.3856    6.7150 N   0  0  0  0  0  0  0  0  0  0  0  0
   -2.4145    7.3876    7.7434 C   0  0  0  0  0  0  0  0  0  0  0  0
   -1.9796    7.0186    8.7516 N   0  0  0  0  0  0  0  0  0  0  0  0
    2.6879   -4.7019   -6.2910 H   0  0  0  0  0  0  0  0  0  0  0  0
   -0.0147   -2.3531  -10.2428 H   0  0  0  0  0  0  0  0  0  0  0  0
   -2.0306   -0.8760  -10.2998 H   0  0  0  0  0  0  0  0  0  0  0  0
   -2.9515   -1.9306   -6.2276 H   0  0  0  0  0  0  0  0  0  0  0  0
    4.5399   -6.0362   -3.0816 H   0  0  0  0  0  0  0  0  0  0  0  0
    3.7747   -6.1974   -4.7124 H   0  0  0  0  0  0  0  0  0  0  0  0
    5.6946   -3.9396   -3.8044 H   0  0  0  0  0  0  0  0  0  0  0  0
    4.9088   -4.0324   -5.4188 H   0  0  0  0  0  0  0  0  0  0  0  0
    6.0826   -5.3057   -4.9071 H   0  0  0  0  0  0  0  0  0  0  0  0
    2.5269    3.8612    7.2478 H   0  0  0  0  0  0  0  0  0  0  0  0
    1.3242    5.1843    7.3980 H   0  0  0  0  0  0  0  0  0  0  0  0
    0.8299    2.2215    8.1485 H   0  0  0  0  0  0  0  0  0  0  0  0
   -0.3690    3.5714    8.3084 H   0  0  0  0  0  0  0  0  0  0  0  0
    1.1413    3.5790    9.2918 H   0  0  0  0  0  0  0  0  0  0  0  0
   -0.5437   -2.1176   -1.3746 H   0  0  0  0  0  0  0  0  0  0  0  0
   -0.5005   -0.4512   -0.8930 H   0  0  0  0  0  0  0  0  0  0  0  0
   -2.2336   -1.8405    0.3414 H   0  0  0  0  0  0  0  0  0  0  0  0
   -0.9484   -2.9804    0.8777 H   0  0  0  0  0  0  0  0  0  0  0  0
   -1.0010   -1.3189    1.5532 H   0  0  0  0  0  0  0  0  0  0  0  0
   -0.4524    2.3531    1.4041 H   0  0  0  0  0  0  0  0  0  0  0  0
   -0.8728    0.8458    0.6825 H   0  0  0  0  0  0  0  0  0  0  0  0
    1.4767    0.9785   -0.5470 H   0  0  0  0  0  0  0  0  0  0  0  0
    0.3276    2.3006   -0.9337 H   0  0  0  0  0  0  0  0  0  0  0  0
    1.6650    2.5847    0.2502 H   0  0  0  0  0  0  0  0  0  0  0  0
   -1.2262    5.4552    6.7281 H   0  0  0  0  0  0  0  0  0  0  0  0
   -1.4730    8.1296    0.8685 H   0  0  0  0  0  0  0  0  0  0  0  0
   -4.5466    9.5281    4.1062 H   0  0  0  0  0  0  0  0  0  0  0  0
  1  2  2  3
  2  3  1  0
  3  4  2  0
  3  5  1  0
  5  6  2  0
  6  7  1  0
  7  8  2  0
  8  9  1  0
  8 10  1  0
 10 11  2  0
 11 12  1  0
 12 13  2  3
 13 14  1  0
 14 15  3  0
 13 16  1  0
 16 17  3  0
  1 18  1  0
 18 19  2  0
 19 20  1  0
 20 21  1  0
 19 22  1  0
 22 23  1  0
 23 24  1  0
 24 25  1  0
 25 26  1  0
 26 27  1  0
 27 28  2  0
 28 29  1  0
 29 30  1  0
 27 31  1  0
 31 32  1  0
 32 33  1  0
 33 34  1  0
 34 35  1  0
 35 36  1  0
 36 37  1  0
 35 38  2  0
 38 39  1  0
 39 40  1  0
 40 41  1  0
 41 42  1  0
 42 43  1  0
 43 44  1  0
 44 45  1  0
 45 46  1  0
 46 47  1  0
 47 48  1  0
 45 49  1  0
 49 50  1  0
 42 51  1  0
 51 52  1  0
 38 53  1  0
 53 54  2  3
 54 55  1  0
 55 56  2  0
 55 57  1  0
 57 58  2  0
 58 59  1  0
 59 60  1  0
 60 61  2  0
 61 62  1  0
 62 63  2  3
 63 64  1  0
 64 65  3  0
 63 66  1  0
 66 67  3  0
 12  2  1  0
 48 18  1  0
 62 54  1  0
 11  5  1  0
 47 22  2  0
 61 57  1  0
 46 24  2  0
 44 25  2  0
 30 26  2  0
 43 31  2  0
 41 32  2  0
 40 34  2  0
  1 68  1  0
  6 69  1  0
  7 70  1  0
 10 71  1  0
 20 72  1  0
 20 73  1  0
 21 74  1  0
 21 75  1  0
 21 76  1  0
 36 77  1  0
 36 78  1  0
 37 79  1  0
 37 80  1  0
 37 81  1  0
 49 82  1  0
 49 83  1  0
 50 84  1  0
 50 85  1  0
 50 86  1  0
 51 87  1  0
 51 88  1  0
 52 89  1  0
 52 90  1  0
 52 91  1  0
 53 92  1  0
 58 93  1  0
 60 94  1  0
M  END

