
     RDKit          3D

 93104  0  0  0  0  0  0  0  0999 V2000
    3.7231   -4.6785    3.7517 C   0  0  0  0  0  0  0  0  0  0  0  0
    3.4660   -4.7762    5.0675 C   0  0  0  0  0  0  0  0  0  0  0  0
    2.7304   -3.7840    5.8606 C   0  0  0  0  0  0  0  0  0  0  0  0
    2.3599   -2.6421    5.4781 O   0  0  0  0  0  0  0  0  0  0  0  0
    2.3807   -4.3851    7.1283 C   0  0  0  0  0  0  0  0  0  0  0  0
    1.6230   -3.8295    8.1608 C   0  0  0  0  0  0  0  0  0  0  0  0
    1.3467   -4.6187    9.2836 C   0  0  0  0  0  0  0  0  0  0  0  0
    1.7972   -5.9496    9.3421 C   0  0  0  0  0  0  0  0  0  0  0  0
    1.4956   -6.7178   10.4194 F   0  0  0  0  0  0  0  0  0  0  0  0
    2.5531   -6.4916    8.2880 C   0  0  0  0  0  0  0  0  0  0  0  0
    2.8635   -5.6832    7.1801 C   0  0  0  0  0  0  0  0  0  0  0  0
    3.6380   -5.9816    5.9378 C   0  0  0  0  0  0  0  0  0  0  0  0
    4.5036   -7.0120    5.7389 C   0  0  0  0  0  0  0  0  0  0  0  0
    4.6746   -8.0797    6.6856 C   0  0  0  0  0  0  0  0  0  0  0  0
    4.8260   -8.9464    7.4378 N   0  0  0  0  0  0  0  0  0  0  0  0
    5.4087   -7.0539    4.6195 C   0  0  0  0  0  0  0  0  0  0  0  0
    6.1411   -7.0928    3.7244 N   0  0  0  0  0  0  0  0  0  0  0  0
    3.5676   -3.4278    3.0016 C   0  0  0  0  0  0  0  0  0  0  0  0
    4.4494   -2.3307    3.0344 C   0  0  0  0  0  0  0  0  0  0  0  0
    5.7088   -2.2406    3.8560 C   0  0  0  0  0  0  0  0  0  0  0  0
    5.5390   -1.2901    5.0372 C   0  0  0  0  0  0  0  0  0  0  0  0
    4.0168   -1.3346    2.1580 C   0  0  0  0  0  0  0  0  0  0  0  0
    4.6217    0.2085    1.7543 S   0  0  0  0  0  0  0  0  0  0  0  0
    3.3265    0.4527    0.6860 C   0  0  0  0  0  0  0  0  0  0  0  0
    2.8908    1.3777   -0.2124 C   0  0  0  0  0  0  0  0  0  0  0  0
    3.4643    2.5802   -0.6249 C   0  0  0  0  0  0  0  0  0  0  0  0
    2.8127    3.3320   -1.6381 C   0  0  0  0  0  0  0  0  0  0  0  0
    3.3928    4.5033   -2.0028 N   0  0  0  0  0  0  0  0  0  0  0  0
    4.7157    4.4837   -1.0075 S   0  0  0  0  0  0  0  0  0  0  0  0
    4.6162    3.0878   -0.1219 N   0  0  0  0  0  0  0  0  0  0  0  0
    1.6046    2.8557   -2.1586 C   0  0  0  0  0  0  0  0  0  0  0  0
    0.6687    3.5119   -2.9018 C   0  0  0  0  0  0  0  0  0  0  0  0
    0.4198    5.1139   -3.4040 S   0  0  0  0  0  0  0  0  0  0  0  0
   -1.2477    4.8309   -3.5765 C   0  0  0  0  0  0  0  0  0  0  0  0
   -2.3274    5.6766   -3.8378 C   0  0  0  0  0  0  0  0  0  0  0  0
   -2.1867    7.1153   -4.2494 C   0  0  0  0  0  0  0  0  0  0  0  0
   -2.0465    7.2251   -5.7637 C   0  0  0  0  0  0  0  0  0  0  0  0
   -3.5488    5.0050   -3.6500 C   0  0  0  0  0  0  0  0  0  0  0  0
   -3.2523    3.3905   -3.1828 S   0  0  0  0  0  0  0  0  0  0  0  0
   -1.5818    3.5508   -3.2078 C   0  0  0  0  0  0  0  0  0  0  0  0
   -0.4751    2.7910   -2.8302 C   0  0  0  0  0  0  0  0  0  0  0  0
   -0.3286    1.6472   -2.1097 N   0  0  0  0  0  0  0  0  0  0  0  0
    0.9931    1.6637   -1.7144 C   0  0  0  0  0  0  0  0  0  0  0  0
    1.7093    0.8522   -0.7732 C   0  0  0  0  0  0  0  0  0  0  0  0
    1.4968   -0.4302   -0.3027 N   0  0  0  0  0  0  0  0  0  0  0  0
    2.4812   -0.5973    0.6179 C   0  0  0  0  0  0  0  0  0  0  0  0
    2.8738   -1.6316    1.4565 C   0  0  0  0  0  0  0  0  0  0  0  0
    2.3140   -3.1537    1.8794 S   0  0  0  0  0  0  0  0  0  0  0  0
    0.7383   -1.5437   -0.8889 C   0  0  0  0  0  0  0  0  0  0  0  0
    0.9872   -1.6719   -2.3958 C   0  0  0  0  0  0  0  0  0  0  0  0
   -1.4498    0.8349   -1.6236 C   0  0  0  0  0  0  0  0  0  0  0  0
   -1.6794    1.0367   -0.1279 C   0  0  0  0  0  0  0  0  0  0  0  0
   -4.8818    5.5834   -3.8916 C   0  0  0  0  0  0  0  0  0  0  0  0
   -5.8837    5.5440   -3.0014 C   0  0  0  0  0  0  0  0  0  0  0  0
   -5.8744    5.0637   -1.6069 C   0  0  0  0  0  0  0  0  0  0  0  0
   -4.8848    4.6110   -0.9717 O   0  0  0  0  0  0  0  0  0  0  0  0
   -7.1983    5.2957   -1.0385 C   0  0  0  0  0  0  0  0  0  0  0  0
   -7.6708    5.0179    0.2446 C   0  0  0  0  0  0  0  0  0  0  0  0
   -8.9976    5.3635    0.5527 C   0  0  0  0  0  0  0  0  0  0  0  0
   -9.8193    5.9747   -0.4158 C   0  0  0  0  0  0  0  0  0  0  0  0
   -9.3218    6.2473   -1.7020 C   0  0  0  0  0  0  0  0  0  0  0  0
   -8.0026    5.8961   -1.9871 C   0  0  0  0  0  0  0  0  0  0  0  0
   -7.2344    6.0809   -3.2150 C   0  0  0  0  0  0  0  0  0  0  0  0
   -7.6630    6.6102   -4.2760 O   0  0  0  0  0  0  0  0  0  0  0  0
    4.0085   -5.5448    3.1802 H   0  0  0  0  0  0  0  0  0  0  0  0
    1.2507   -2.8140    8.0968 H   0  0  0  0  0  0  0  0  0  0  0  0
    0.7659   -4.2058   10.0986 H   0  0  0  0  0  0  0  0  0  0  0  0
    2.8463   -7.5243    8.3498 H   0  0  0  0  0  0  0  0  0  0  0  0
    6.0017   -3.2421    4.2362 H   0  0  0  0  0  0  0  0  0  0  0  0
    6.5358   -1.8750    3.2107 H   0  0  0  0  0  0  0  0  0  0  0  0
    6.5024   -1.1961    5.5825 H   0  0  0  0  0  0  0  0  0  0  0  0
    4.7774   -1.6793    5.7416 H   0  0  0  0  0  0  0  0  0  0  0  0
    5.2356   -0.2811    4.6867 H   0  0  0  0  0  0  0  0  0  0  0  0
   -1.2924    7.5633   -3.7615 H   0  0  0  0  0  0  0  0  0  0  0  0
   -3.0745    7.6954   -3.9189 H   0  0  0  0  0  0  0  0  0  0  0  0
   -1.1374    6.6838   -6.1048 H   0  0  0  0  0  0  0  0  0  0  0  0
   -1.9523    8.2933   -6.0537 H   0  0  0  0  0  0  0  0  0  0  0  0
   -2.9406    6.7919   -6.2645 H   0  0  0  0  0  0  0  0  0  0  0  0
   -0.3270   -1.4828   -0.6098 H   0  0  0  0  0  0  0  0  0  0  0  0
    1.0681   -2.5037   -0.4465 H   0  0  0  0  0  0  0  0  0  0  0  0
    2.0699   -1.8292   -2.5840 H   0  0  0  0  0  0  0  0  0  0  0  0
    0.4294   -2.5437   -2.7926 H   0  0  0  0  0  0  0  0  0  0  0  0
    0.6636   -0.7681   -2.9461 H   0  0  0  0  0  0  0  0  0  0  0  0
   -1.3260   -0.2147   -1.9065 H   0  0  0  0  0  0  0  0  0  0  0  0
   -2.3819    1.1023   -2.1481 H   0  0  0  0  0  0  0  0  0  0  0  0
   -2.5339    0.4088    0.2026 H   0  0  0  0  0  0  0  0  0  0  0  0
   -1.9130    2.1017    0.0703 H   0  0  0  0  0  0  0  0  0  0  0  0
   -0.7867    0.7515    0.4614 H   0  0  0  0  0  0  0  0  0  0  0  0
   -5.0389    6.1006   -4.8316 H   0  0  0  0  0  0  0  0  0  0  0  0
   -7.0338    4.5542    0.9858 H   0  0  0  0  0  0  0  0  0  0  0  0
   -9.3901    5.1605    1.5413 H   0  0  0  0  0  0  0  0  0  0  0  0
  -10.8395    6.2371   -0.1687 H   0  0  0  0  0  0  0  0  0  0  0  0
   -9.9436    6.7255   -2.4483 H   0  0  0  0  0  0  0  0  0  0  0  0
  1  2  2  3
  2  3  1  0
  3  4  2  0
  3  5  1  0
  5  6  2  0
  6  7  1  0
  7  8  2  0
  8  9  1  0
  8 10  1  0
 10 11  2  0
 11 12  1  0
 12 13  2  3
 13 14  1  0
 14 15  3  0
 13 16  1  0
 16 17  3  0
  1 18  1  0
 18 19  2  0
 19 20  1  0
 20 21  1  0
 19 22  1  0
 22 23  1  0
 23 24  1  0
 24 25  1  0
 25 26  1  0
 26 27  1  0
 27 28  2  0
 28 29  1  0
 29 30  1  0
 27 31  1  0
 31 32  1  0
 32 33  1  0
 33 34  1  0
 34 35  1  0
 35 36  1  0
 36 37  1  0
 35 38  2  0
 38 39  1  0
 39 40  1  0
 40 41  1  0
 41 42  1  0
 42 43  1  0
 43 44  1  0
 44 45  1  0
 45 46  1  0
 46 47  1  0
 47 48  1  0
 45 49  1  0
 49 50  1  0
 42 51  1  0
 51 52  1  0
 38 53  1  0
 53 54  2  3
 54 55  1  0
 55 56  2  0
 55 57  1  0
 57 58  2  0
 58 59  1  0
 59 60  2  0
 60 61  1  0
 61 62  2  0
 62 63  1  0
 63 64  2  0
 12  2  1  0
 48 18  1  0
 63 54  1  0
 11  5  1  0
 47 22  2  0
 62 57  1  0
 46 24  2  0
 44 25  2  0
 30 26  2  0
 43 31  2  0
 41 32  2  0
 40 34  2  0
  1 65  1  0
  6 66  1  0
  7 67  1  0
 10 68  1  0
 20 69  1  0
 20 70  1  0
 21 71  1  0
 21 72  1  0
 21 73  1  0
 36 74  1  0
 36 75  1  0
 37 76  1  0
 37 77  1  0
 37 78  1  0
 49 79  1  0
 49 80  1  0
 50 81  1  0
 50 82  1  0
 50 83  1  0
 51 84  1  0
 51 85  1  0
 52 86  1  0
 52 87  1  0
 52 88  1  0
 53 89  1  0
 58 90  1  0
 59 91  1  0
 60 92  1  0
 61 93  1  0
M  END

