
     RDKit          3D

103115  0  0  0  0  0  0  0  0999 V2000
   -1.2041   -5.3306   -6.8527 C   0  0  0  0  0  0  0  0  0  0  0  0
   -0.9995   -6.6472   -6.6025 C   0  0  0  0  0  0  0  0  0  0  0  0
   -0.3262   -7.3996   -7.6852 C   0  0  0  0  0  0  0  0  0  0  0  0
   -0.6413   -7.3884   -8.8992 O   0  0  0  0  0  0  0  0  0  0  0  0
    0.8741   -8.0079   -7.1447 C   0  0  0  0  0  0  0  0  0  0  0  0
    2.0224   -8.4284   -7.8134 C   0  0  0  0  0  0  0  0  0  0  0  0
    3.1445   -8.7789   -7.0429 C   0  0  0  0  0  0  0  0  0  0  0  0
    3.1212   -8.6447   -5.6421 C   0  0  0  0  0  0  0  0  0  0  0  0
    4.2314   -8.9456   -4.9193 F   0  0  0  0  0  0  0  0  0  0  0  0
    1.9661   -8.1717   -4.9988 C   0  0  0  0  0  0  0  0  0  0  0  0
    0.8393   -7.8837   -5.7719 C   0  0  0  0  0  0  0  0  0  0  0  0
   -0.3925   -7.1888   -5.3563 C   0  0  0  0  0  0  0  0  0  0  0  0
   -1.0742   -7.4581   -4.2245 C   0  0  0  0  0  0  0  0  0  0  0  0
   -2.3296   -6.8011   -3.9252 C   0  0  0  0  0  0  0  0  0  0  0  0
   -3.3347   -6.2754   -3.6644 N   0  0  0  0  0  0  0  0  0  0  0  0
   -0.6185   -8.4508   -3.2815 C   0  0  0  0  0  0  0  0  0  0  0  0
   -0.2773   -9.2710   -2.5256 N   0  0  0  0  0  0  0  0  0  0  0  0
   -1.3920   -4.1781   -5.9767 C   0  0  0  0  0  0  0  0  0  0  0  0
   -1.6044   -2.8832   -6.5024 C   0  0  0  0  0  0  0  0  0  0  0  0
   -1.9537   -2.5621   -7.9494 C   0  0  0  0  0  0  0  0  0  0  0  0
   -3.4562   -2.3339   -8.0630 C   0  0  0  0  0  0  0  0  0  0  0  0
   -1.3546   -1.8725   -5.5667 C   0  0  0  0  0  0  0  0  0  0  0  0
   -1.1394   -0.1848   -5.7544 S   0  0  0  0  0  0  0  0  0  0  0  0
   -0.6298   -0.0697   -4.1437 C   0  0  0  0  0  0  0  0  0  0  0  0
    0.0961    0.8160   -3.4054 C   0  0  0  0  0  0  0  0  0  0  0  0
    0.6295    2.0766   -3.7164 C   0  0  0  0  0  0  0  0  0  0  0  0
    1.6149    2.6399   -2.8478 C   0  0  0  0  0  0  0  0  0  0  0  0
    2.0140    3.9061   -3.1052 N   0  0  0  0  0  0  0  0  0  0  0  0
    1.1383    4.1892   -4.4839 S   0  0  0  0  0  0  0  0  0  0  0  0
    0.2594    2.8224   -4.7872 N   0  0  0  0  0  0  0  0  0  0  0  0
    2.0030    1.9218   -1.7142 C   0  0  0  0  0  0  0  0  0  0  0  0
    2.6341    2.3910   -0.5833 C   0  0  0  0  0  0  0  0  0  0  0  0
    3.2571    3.8987   -0.0892 S   0  0  0  0  0  0  0  0  0  0  0  0
    2.9550    3.5186    1.5630 C   0  0  0  0  0  0  0  0  0  0  0  0
    2.9223    4.2985    2.7280 C   0  0  0  0  0  0  0  0  0  0  0  0
    3.5084    5.6896    2.7945 C   0  0  0  0  0  0  0  0  0  0  0  0
    5.0318    5.6311    2.7840 C   0  0  0  0  0  0  0  0  0  0  0  0
    2.2432    3.6254    3.7918 C   0  0  0  0  0  0  0  0  0  0  0  0
    1.6657    2.1280    3.2090 S   0  0  0  0  0  0  0  0  0  0  0  0
    2.3156    2.2989    1.6812 C   0  0  0  0  0  0  0  0  0  0  0  0
    2.1756    1.6318    0.4593 C   0  0  0  0  0  0  0  0  0  0  0  0
    1.3209    0.6388    0.0651 N   0  0  0  0  0  0  0  0  0  0  0  0
    1.3063    0.7643   -1.3034 C   0  0  0  0  0  0  0  0  0  0  0  0
    0.4453    0.1182   -2.2415 C   0  0  0  0  0  0  0  0  0  0  0  0
    0.1318   -1.2085   -2.3572 N   0  0  0  0  0  0  0  0  0  0  0  0
   -0.5579   -1.2778   -3.5248 C   0  0  0  0  0  0  0  0  0  0  0  0
   -0.9215   -2.3268   -4.3618 C   0  0  0  0  0  0  0  0  0  0  0  0
   -0.7752   -4.0085   -4.3913 S   0  0  0  0  0  0  0  0  0  0  0  0
    0.4910   -2.3445   -1.4887 C   0  0  0  0  0  0  0  0  0  0  0  0
   -0.7471   -3.0083   -0.8809 C   0  0  0  0  0  0  0  0  0  0  0  0
    0.2030    0.1426    0.8890 C   0  0  0  0  0  0  0  0  0  0  0  0
   -0.9868    1.1213    0.8238 C   0  0  0  0  0  0  0  0  0  0  0  0
    2.0448    4.1506    5.1818 C   0  0  0  0  0  0  0  0  0  0  0  0
    1.2069    3.7265    6.1827 C   0  0  0  0  0  0  0  0  0  0  0  0
    0.1434    2.6902    6.1912 C   0  0  0  0  0  0  0  0  0  0  0  0
    0.0175    1.6959    5.4470 O   0  0  0  0  0  0  0  0  0  0  0  0
   -0.9001    3.1419    7.1030 C   0  0  0  0  0  0  0  0  0  0  0  0
   -2.2247    2.7265    7.1144 C   0  0  0  0  0  0  0  0  0  0  0  0
   -3.2075    3.6433    7.5197 C   0  0  0  0  0  0  0  0  0  0  0  0
   -4.5656    3.3841    7.2409 C   0  0  0  0  0  0  0  0  0  0  0  0
   -5.4749    4.4406    7.2250 C   0  0  0  0  0  0  0  0  0  0  0  0
   -6.7094    4.2378    6.6985 F   0  0  0  0  0  0  0  0  0  0  0  0
   -5.0724    5.7313    7.5630 C   0  0  0  0  0  0  0  0  0  0  0  0
   -5.8511    6.7908    7.2345 F   0  0  0  0  0  0  0  0  0  0  0  0
   -3.7484    5.9752    7.9731 C   0  0  0  0  0  0  0  0  0  0  0  0
   -2.8113    4.9307    8.0041 C   0  0  0  0  0  0  0  0  0  0  0  0
   -1.4425    5.2086    8.2231 C   0  0  0  0  0  0  0  0  0  0  0  0
   -0.4918    4.2836    7.7587 C   0  0  0  0  0  0  0  0  0  0  0  0
    0.9170    4.5703    7.3869 C   0  0  0  0  0  0  0  0  0  0  0  0
    1.8016    5.2793    8.1428 C   0  0  0  0  0  0  0  0  0  0  0  0
    3.2048    5.3520    7.8388 C   0  0  0  0  0  0  0  0  0  0  0  0
    4.3484    5.4335    7.5918 N   0  0  0  0  0  0  0  0  0  0  0  0
    1.4085    5.8547    9.4113 C   0  0  0  0  0  0  0  0  0  0  0  0
    1.0662    6.2890   10.4391 N   0  0  0  0  0  0  0  0  0  0  0  0
   -1.8832   -5.2475   -7.6992 H   0  0  0  0  0  0  0  0  0  0  0  0
    2.0632   -8.4120   -8.8967 H   0  0  0  0  0  0  0  0  0  0  0  0
    4.0510   -9.0930   -7.5437 H   0  0  0  0  0  0  0  0  0  0  0  0
    1.9604   -8.0661   -3.9148 H   0  0  0  0  0  0  0  0  0  0  0  0
   -1.6380   -3.3531   -8.6629 H   0  0  0  0  0  0  0  0  0  0  0  0
   -1.3974   -1.6472   -8.2648 H   0  0  0  0  0  0  0  0  0  0  0  0
   -4.0180   -3.1713   -7.5849 H   0  0  0  0  0  0  0  0  0  0  0  0
   -3.7330   -1.3608   -7.5915 H   0  0  0  0  0  0  0  0  0  0  0  0
   -3.7390   -2.3290   -9.1466 H   0  0  0  0  0  0  0  0  0  0  0  0
    3.1638    6.2382    3.6884 H   0  0  0  0  0  0  0  0  0  0  0  0
    3.1222    6.2647    1.9280 H   0  0  0  0  0  0  0  0  0  0  0  0
    5.3902    4.8291    3.4709 H   0  0  0  0  0  0  0  0  0  0  0  0
    5.3706    5.3902    1.7590 H   0  0  0  0  0  0  0  0  0  0  0  0
    5.4654    6.6025    3.1061 H   0  0  0  0  0  0  0  0  0  0  0  0
    1.2094   -2.0191   -0.7068 H   0  0  0  0  0  0  0  0  0  0  0  0
    1.0594   -3.0783   -2.1000 H   0  0  0  0  0  0  0  0  0  0  0  0
   -0.4798   -3.4924    0.0867 H   0  0  0  0  0  0  0  0  0  0  0  0
   -1.5549   -2.2591   -0.6970 H   0  0  0  0  0  0  0  0  0  0  0  0
   -1.1337   -3.7946   -1.5547 H   0  0  0  0  0  0  0  0  0  0  0  0
   -0.1551   -0.8400    0.5569 H   0  0  0  0  0  0  0  0  0  0  0  0
    0.5177    0.0159    1.9484 H   0  0  0  0  0  0  0  0  0  0  0  0
   -1.8163    0.7483    1.4690 H   0  0  0  0  0  0  0  0  0  0  0  0
   -1.3633    1.1940   -0.2201 H   0  0  0  0  0  0  0  0  0  0  0  0
   -0.6716    2.1259    1.1714 H   0  0  0  0  0  0  0  0  0  0  0  0
    2.6204    5.0463    5.3894 H   0  0  0  0  0  0  0  0  0  0  0  0
   -2.4987    1.8019    6.6379 H   0  0  0  0  0  0  0  0  0  0  0  0
   -4.8660    2.4109    6.8734 H   0  0  0  0  0  0  0  0  0  0  0  0
   -3.4310    6.9962    8.1340 H   0  0  0  0  0  0  0  0  0  0  0  0
   -1.1488    6.2114    8.4876 H   0  0  0  0  0  0  0  0  0  0  0  0
  1  2  2  3
  2  3  1  0
  3  4  2  0
  3  5  1  0
  5  6  2  0
  6  7  1  0
  7  8  2  0
  8  9  1  0
  8 10  1  0
 10 11  2  0
 11 12  1  0
 12 13  2  3
 13 14  1  0
 14 15  3  0
 13 16  1  0
 16 17  3  0
  1 18  1  0
 18 19  2  0
 19 20  1  0
 20 21  1  0
 19 22  1  0
 22 23  1  0
 23 24  1  0
 24 25  1  0
 25 26  1  0
 26 27  1  0
 27 28  2  0
 28 29  1  0
 29 30  1  0
 27 31  1  0
 31 32  1  0
 32 33  1  0
 33 34  1  0
 34 35  1  0
 35 36  1  0
 36 37  1  0
 35 38  2  0
 38 39  1  0
 39 40  1  0
 40 41  1  0
 41 42  1  0
 42 43  1  0
 43 44  1  0
 44 45  1  0
 45 46  1  0
 46 47  1  0
 47 48  1  0
 45 49  1  0
 49 50  1  0
 42 51  1  0
 51 52  1  0
 38 53  1  0
 53 54  2  3
 54 55  1  0
 55 56  2  0
 55 57  1  0
 57 58  2  0
 58 59  1  0
 59 60  2  0
 60 61  1  0
 61 62  1  0
 61 63  2  0
 63 64  1  0
 63 65  1  0
 65 66  2  0
 66 67  1  0
 67 68  2  0
 68 69  1  0
 69 70  2  3
 70 71  1  0
 71 72  3  0
 70 73  1  0
 73 74  3  0
 12  2  1  0
 48 18  1  0
 69 54  1  0
 11  5  1  0
 47 22  2  0
 68 57  1  0
 46 24  2  0
 66 59  1  0
 44 25  2  0
 30 26  2  0
 43 31  2  0
 41 32  2  0
 40 34  2  0
  1 75  1  0
  6 76  1  0
  7 77  1  0
 10 78  1  0
 20 79  1  0
 20 80  1  0
 21 81  1  0
 21 82  1  0
 21 83  1  0
 36 84  1  0
 36 85  1  0
 37 86  1  0
 37 87  1  0
 37 88  1  0
 49 89  1  0
 49 90  1  0
 50 91  1  0
 50 92  1  0
 50 93  1  0
 51 94  1  0
 51 95  1  0
 52 96  1  0
 52 97  1  0
 52 98  1  0
 53 99  1  0
 58100  1  0
 60101  1  0
 65102  1  0
 67103  1  0
M  END

