
     RDKit          3D

 97108  0  0  0  0  0  0  0  0999 V2000
   -8.1309    0.6282    0.8675 C   0  0  0  0  0  0  0  0  0  0  0  0
   -8.5745    1.7007    0.1824 C   0  0  0  0  0  0  0  0  0  0  0  0
   -7.9116    2.3040   -0.9804 C   0  0  0  0  0  0  0  0  0  0  0  0
   -7.0001    1.7842   -1.6808 O   0  0  0  0  0  0  0  0  0  0  0  0
   -8.5141    3.5949   -1.2325 C   0  0  0  0  0  0  0  0  0  0  0  0
   -8.1327    4.5504   -2.1759 C   0  0  0  0  0  0  0  0  0  0  0  0
   -8.8127    5.7743   -2.1942 C   0  0  0  0  0  0  0  0  0  0  0  0
   -9.8357    6.0287   -1.2676 C   0  0  0  0  0  0  0  0  0  0  0  0
  -10.4667    7.2281   -1.2778 F   0  0  0  0  0  0  0  0  0  0  0  0
  -10.2061    5.0526   -0.3253 C   0  0  0  0  0  0  0  0  0  0  0  0
   -9.5449    3.8114   -0.3331 C   0  0  0  0  0  0  0  0  0  0  0  0
   -9.7187    2.6031    0.5294 C   0  0  0  0  0  0  0  0  0  0  0  0
  -10.7937    2.3110    1.3114 C   0  0  0  0  0  0  0  0  0  0  0  0
  -10.9898    1.0176    1.9132 C   0  0  0  0  0  0  0  0  0  0  0  0
  -11.1593   -0.0231    2.3935 N   0  0  0  0  0  0  0  0  0  0  0  0
  -11.8906    3.2250    1.4996 C   0  0  0  0  0  0  0  0  0  0  0  0
  -12.7844    3.9428    1.6676 N   0  0  0  0  0  0  0  0  0  0  0  0
   -6.8931   -0.0876    0.5277 C   0  0  0  0  0  0  0  0  0  0  0  0
   -6.8027   -1.4495    0.1822 C   0  0  0  0  0  0  0  0  0  0  0  0
   -7.9720   -2.3853    0.0557 C   0  0  0  0  0  0  0  0  0  0  0  0
   -8.2758   -3.0576    1.3900 C   0  0  0  0  0  0  0  0  0  0  0  0
   -5.4726   -1.8246   -0.0109 C   0  0  0  0  0  0  0  0  0  0  0  0
   -4.7201   -3.2511   -0.5711 S   0  0  0  0  0  0  0  0  0  0  0  0
   -3.1957   -2.5035   -0.4884 C   0  0  0  0  0  0  0  0  0  0  0  0
   -1.9466   -2.6952   -1.0086 C   0  0  0  0  0  0  0  0  0  0  0  0
   -1.4192   -3.7199   -1.8047 C   0  0  0  0  0  0  0  0  0  0  0  0
   -0.1328   -3.5344   -2.3973 C   0  0  0  0  0  0  0  0  0  0  0  0
    0.3466   -4.5462   -3.1623 N   0  0  0  0  0  0  0  0  0  0  0  0
   -0.9289   -5.6009   -3.0562 S   0  0  0  0  0  0  0  0  0  0  0  0
   -2.0631   -4.8805   -2.0855 N   0  0  0  0  0  0  0  0  0  0  0  0
    0.5609   -2.3453   -2.1399 C   0  0  0  0  0  0  0  0  0  0  0  0
    1.8454   -1.9740   -2.4031 C   0  0  0  0  0  0  0  0  0  0  0  0
    3.2415   -2.6360   -3.1020 S   0  0  0  0  0  0  0  0  0  0  0  0
    4.1902   -1.3734   -2.4507 C   0  0  0  0  0  0  0  0  0  0  0  0
    5.5541   -1.0788   -2.4920 C   0  0  0  0  0  0  0  0  0  0  0  0
    6.5614   -1.9388   -3.2080 C   0  0  0  0  0  0  0  0  0  0  0  0
    7.1390   -2.9868   -2.2681 C   0  0  0  0  0  0  0  0  0  0  0  0
    5.8604    0.0439   -1.6896 C   0  0  0  0  0  0  0  0  0  0  0  0
    4.4223    0.6357   -0.9920 S   0  0  0  0  0  0  0  0  0  0  0  0
    3.4377   -0.5210   -1.6894 C   0  0  0  0  0  0  0  0  0  0  0  0
    2.0925   -0.8490   -1.6855 C   0  0  0  0  0  0  0  0  0  0  0  0
    1.0217   -0.4335   -0.9651 N   0  0  0  0  0  0  0  0  0  0  0  0
    0.0463   -1.3382   -1.3096 C   0  0  0  0  0  0  0  0  0  0  0  0
   -1.2747   -1.4753   -0.8193 C   0  0  0  0  0  0  0  0  0  0  0  0
   -2.1240   -0.5152   -0.3337 N   0  0  0  0  0  0  0  0  0  0  0  0
   -3.2635   -1.2083   -0.0851 C   0  0  0  0  0  0  0  0  0  0  0  0
   -4.5629   -0.8158    0.1782 C   0  0  0  0  0  0  0  0  0  0  0  0
   -5.3374    0.6093    0.6046 S   0  0  0  0  0  0  0  0  0  0  0  0
   -2.1048    0.9122   -0.6811 C   0  0  0  0  0  0  0  0  0  0  0  0
   -2.7848    1.1606   -2.0271 C   0  0  0  0  0  0  0  0  0  0  0  0
    1.1006    0.3666    0.2693 C   0  0  0  0  0  0  0  0  0  0  0  0
    1.3562    1.8500   -0.0279 C   0  0  0  0  0  0  0  0  0  0  0  0
    7.2100    0.6395   -1.5721 C   0  0  0  0  0  0  0  0  0  0  0  0
    7.8539    0.8740   -0.4138 C   0  0  0  0  0  0  0  0  0  0  0  0
    9.2975    0.6580   -0.2981 C   0  0  0  0  0  0  0  0  0  0  0  0
   10.1394    0.7486   -1.2312 O   0  0  0  0  0  0  0  0  0  0  0  0
    9.5747    0.2091    1.0504 C   0  0  0  0  0  0  0  0  0  0  0  0
   10.7817   -0.2416    1.5866 C   0  0  0  0  0  0  0  0  0  0  0  0
   10.7975   -0.6862    2.9164 C   0  0  0  0  0  0  0  0  0  0  0  0
   11.9580   -1.1142    3.4730 F   0  0  0  0  0  0  0  0  0  0  0  0
    9.6073   -0.7068    3.6683 C   0  0  0  0  0  0  0  0  0  0  0  0
    8.3986   -0.2590    3.1042 C   0  0  0  0  0  0  0  0  0  0  0  0
    8.4034    0.2216    1.7866 C   0  0  0  0  0  0  0  0  0  0  0  0
    7.3121    0.8116    0.9708 C   0  0  0  0  0  0  0  0  0  0  0  0
    6.3961    1.6803    1.4636 C   0  0  0  0  0  0  0  0  0  0  0  0
    6.0201    1.7004    2.8535 C   0  0  0  0  0  0  0  0  0  0  0  0
    5.7099    1.7304    3.9685 N   0  0  0  0  0  0  0  0  0  0  0  0
    5.9085    2.7788    0.6655 C   0  0  0  0  0  0  0  0  0  0  0  0
    5.5185    3.6631    0.0264 N   0  0  0  0  0  0  0  0  0  0  0  0
   -8.6368    0.2774    1.7474 H   0  0  0  0  0  0  0  0  0  0  0  0
   -7.3212    4.3590   -2.8682 H   0  0  0  0  0  0  0  0  0  0  0  0
   -8.5316    6.5333   -2.9127 H   0  0  0  0  0  0  0  0  0  0  0  0
  -10.9722    5.3007    0.3899 H   0  0  0  0  0  0  0  0  0  0  0  0
   -7.7548   -3.1647   -0.7049 H   0  0  0  0  0  0  0  0  0  0  0  0
   -8.8688   -1.8250   -0.2861 H   0  0  0  0  0  0  0  0  0  0  0  0
   -9.1481   -3.7371    1.2804 H   0  0  0  0  0  0  0  0  0  0  0  0
   -7.4022   -3.6584    1.7248 H   0  0  0  0  0  0  0  0  0  0  0  0
   -8.5125   -2.2947    2.1621 H   0  0  0  0  0  0  0  0  0  0  0  0
    7.3822   -1.3220   -3.6263 H   0  0  0  0  0  0  0  0  0  0  0  0
    6.0817   -2.4554   -4.0636 H   0  0  0  0  0  0  0  0  0  0  0  0
    7.8546   -3.6347   -2.8191 H   0  0  0  0  0  0  0  0  0  0  0  0
    6.3254   -3.6263   -1.8681 H   0  0  0  0  0  0  0  0  0  0  0  0
    7.6721   -2.4966   -1.4281 H   0  0  0  0  0  0  0  0  0  0  0  0
   -1.0775    1.2840   -0.7760 H   0  0  0  0  0  0  0  0  0  0  0  0
   -2.6038    1.5045    0.1154 H   0  0  0  0  0  0  0  0  0  0  0  0
   -2.6794    2.2316   -2.3094 H   0  0  0  0  0  0  0  0  0  0  0  0
   -3.8641    0.9097   -1.9747 H   0  0  0  0  0  0  0  0  0  0  0  0
   -2.3152    0.5360   -2.8197 H   0  0  0  0  0  0  0  0  0  0  0  0
    1.9150   -0.0243    0.9171 H   0  0  0  0  0  0  0  0  0  0  0  0
    0.1695    0.2592    0.8627 H   0  0  0  0  0  0  0  0  0  0  0  0
    0.6885    2.4752    0.6013 H   0  0  0  0  0  0  0  0  0  0  0  0
    2.3995    2.1329    0.2218 H   0  0  0  0  0  0  0  0  0  0  0  0
    1.1625    2.0867   -1.0946 H   0  0  0  0  0  0  0  0  0  0  0  0
    7.8129    0.6032   -2.4684 H   0  0  0  0  0  0  0  0  0  0  0  0
   11.6795   -0.2557    0.9842 H   0  0  0  0  0  0  0  0  0  0  0  0
    9.6217   -1.0696    4.6872 H   0  0  0  0  0  0  0  0  0  0  0  0
    7.4900   -0.3060    3.6862 H   0  0  0  0  0  0  0  0  0  0  0  0
  1  2  2  3
  2  3  1  0
  3  4  2  0
  3  5  1  0
  5  6  2  0
  6  7  1  0
  7  8  2  0
  8  9  1  0
  8 10  1  0
 10 11  2  0
 11 12  1  0
 12 13  2  3
 13 14  1  0
 14 15  3  0
 13 16  1  0
 16 17  3  0
  1 18  1  0
 18 19  2  0
 19 20  1  0
 20 21  1  0
 19 22  1  0
 22 23  1  0
 23 24  1  0
 24 25  1  0
 25 26  1  0
 26 27  1  0
 27 28  2  0
 28 29  1  0
 29 30  1  0
 27 31  1  0
 31 32  1  0
 32 33  1  0
 33 34  1  0
 34 35  1  0
 35 36  1  0
 36 37  1  0
 35 38  2  0
 38 39  1  0
 39 40  1  0
 40 41  1  0
 41 42  1  0
 42 43  1  0
 43 44  1  0
 44 45  1  0
 45 46  1  0
 46 47  1  0
 47 48  1  0
 45 49  1  0
 49 50  1  0
 42 51  1  0
 51 52  1  0
 38 53  1  0
 53 54  2  3
 54 55  1  0
 55 56  2  0
 55 57  1  0
 57 58  2  0
 58 59  1  0
 59 60  1  0
 59 61  2  0
 61 62  1  0
 62 63  2  0
 63 64  1  0
 64 65  2  3
 65 66  1  0
 66 67  3  0
 65 68  1  0
 68 69  3  0
 12  2  1  0
 48 18  1  0
 64 54  1  0
 11  5  1  0
 47 22  2  0
 63 57  1  0
 46 24  2  0
 44 25  2  0
 30 26  2  0
 43 31  2  0
 41 32  2  0
 40 34  2  0
  1 70  1  0
  6 71  1  0
  7 72  1  0
 10 73  1  0
 20 74  1  0
 20 75  1  0
 21 76  1  0
 21 77  1  0
 21 78  1  0
 36 79  1  0
 36 80  1  0
 37 81  1  0
 37 82  1  0
 37 83  1  0
 49 84  1  0
 49 85  1  0
 50 86  1  0
 50 87  1  0
 50 88  1  0
 51 89  1  0
 51 90  1  0
 52 91  1  0
 52 92  1  0
 52 93  1  0
 53 94  1  0
 58 95  1  0
 61 96  1  0
 62 97  1  0
M  END

