
     RDKit          3D

 97108  0  0  0  0  0  0  0  0999 V2000
    5.7318   -0.7392    4.0101 C   0  0  0  0  0  0  0  0  0  0  0  0
    5.9454   -2.0777    4.1221 C   0  0  0  0  0  0  0  0  0  0  0  0
    5.3977   -3.1611    3.2790 C   0  0  0  0  0  0  0  0  0  0  0  0
    4.7364   -3.0643    2.2103 O   0  0  0  0  0  0  0  0  0  0  0  0
    5.8104   -4.4269    3.8234 C   0  0  0  0  0  0  0  0  0  0  0  0
    5.4479   -5.7019    3.3862 C   0  0  0  0  0  0  0  0  0  0  0  0
    5.9218   -6.8094    4.0996 C   0  0  0  0  0  0  0  0  0  0  0  0
    6.7081   -6.6322    5.2449 C   0  0  0  0  0  0  0  0  0  0  0  0
    7.0919   -7.7074    5.9766 F   0  0  0  0  0  0  0  0  0  0  0  0
    7.0454   -5.3363    5.6688 C   0  0  0  0  0  0  0  0  0  0  0  0
    6.6138   -4.2313    4.9213 C   0  0  0  0  0  0  0  0  0  0  0  0
    6.8285   -2.7725    5.1344 C   0  0  0  0  0  0  0  0  0  0  0  0
    7.8208   -2.2283    5.8968 C   0  0  0  0  0  0  0  0  0  0  0  0
    8.0172   -0.8227    6.0718 C   0  0  0  0  0  0  0  0  0  0  0  0
    8.2013    0.3109    6.2222 N   0  0  0  0  0  0  0  0  0  0  0  0
    8.8327   -3.0370    6.5241 C   0  0  0  0  0  0  0  0  0  0  0  0
    9.6650   -3.6744    7.0112 N   0  0  0  0  0  0  0  0  0  0  0  0
    5.0788    0.0328    2.9152 C   0  0  0  0  0  0  0  0  0  0  0  0
    5.3622    1.3927    2.6387 C   0  0  0  0  0  0  0  0  0  0  0  0
    6.3720    2.2340    3.3651 C   0  0  0  0  0  0  0  0  0  0  0  0
    5.7327    2.9324    4.5614 C   0  0  0  0  0  0  0  0  0  0  0  0
    4.5207    1.9005    1.6490 C   0  0  0  0  0  0  0  0  0  0  0  0
    4.2921    3.4581    1.0132 S   0  0  0  0  0  0  0  0  0  0  0  0
    3.0565    2.8974   -0.0027 C   0  0  0  0  0  0  0  0  0  0  0  0
    2.0658    3.4070   -0.7938 C   0  0  0  0  0  0  0  0  0  0  0  0
    1.6541    4.7305   -0.9853 C   0  0  0  0  0  0  0  0  0  0  0  0
    0.4082    4.9791   -1.6390 C   0  0  0  0  0  0  0  0  0  0  0  0
    0.0086    6.2698   -1.7456 N   0  0  0  0  0  0  0  0  0  0  0  0
    1.2754    7.0108   -0.9723 S   0  0  0  0  0  0  0  0  0  0  0  0
    2.3250    5.8107   -0.5109 N   0  0  0  0  0  0  0  0  0  0  0  0
   -0.3088    3.8949   -2.1353 C   0  0  0  0  0  0  0  0  0  0  0  0
   -1.4892    3.8218   -2.8144 C   0  0  0  0  0  0  0  0  0  0  0  0
   -2.8795    4.7622   -3.0765 S   0  0  0  0  0  0  0  0  0  0  0  0
   -3.7593    3.3901   -3.6057 C   0  0  0  0  0  0  0  0  0  0  0  0
   -5.1414    3.1305   -3.7008 C   0  0  0  0  0  0  0  0  0  0  0  0
   -6.1968    4.2014   -3.6043 C   0  0  0  0  0  0  0  0  0  0  0  0
   -6.9871    4.3119   -4.8990 C   0  0  0  0  0  0  0  0  0  0  0  0
   -5.4089    1.7366   -3.6958 C   0  0  0  0  0  0  0  0  0  0  0  0
   -3.9263    0.9134   -3.5378 S   0  0  0  0  0  0  0  0  0  0  0  0
   -2.9763    2.2721   -3.5484 C   0  0  0  0  0  0  0  0  0  0  0  0
   -1.6941    2.5224   -3.0918 C   0  0  0  0  0  0  0  0  0  0  0  0
   -0.7140    1.7054   -2.6506 N   0  0  0  0  0  0  0  0  0  0  0  0
    0.1285    2.5578   -1.9806 C   0  0  0  0  0  0  0  0  0  0  0  0
    1.2882    2.3024   -1.1913 C   0  0  0  0  0  0  0  0  0  0  0  0
    1.7096    1.1607   -0.5318 N   0  0  0  0  0  0  0  0  0  0  0  0
    2.8007    1.5795    0.1583 C   0  0  0  0  0  0  0  0  0  0  0  0
    3.6252    1.0109    1.1289 C   0  0  0  0  0  0  0  0  0  0  0  0
    3.7673   -0.4407    1.9372 S   0  0  0  0  0  0  0  0  0  0  0  0
    1.0016   -0.0981   -0.2612 C   0  0  0  0  0  0  0  0  0  0  0  0
   -0.3445    0.1529    0.4280 C   0  0  0  0  0  0  0  0  0  0  0  0
   -0.4989    0.3521   -3.1813 C   0  0  0  0  0  0  0  0  0  0  0  0
    0.8780    0.1913   -3.8204 C   0  0  0  0  0  0  0  0  0  0  0  0
   -6.7508    1.1225   -3.4483 C   0  0  0  0  0  0  0  0  0  0  0  0
   -6.9961   -0.1944   -3.3197 C   0  0  0  0  0  0  0  0  0  0  0  0
   -6.0509   -1.2831   -3.5739 C   0  0  0  0  0  0  0  0  0  0  0  0
   -5.3212   -1.4247   -4.5839 O   0  0  0  0  0  0  0  0  0  0  0  0
   -6.2193   -2.2800   -2.5400 C   0  0  0  0  0  0  0  0  0  0  0  0
   -5.3649   -3.3346   -2.2204 C   0  0  0  0  0  0  0  0  0  0  0  0
   -5.6551   -4.0930   -1.0776 C   0  0  0  0  0  0  0  0  0  0  0  0
   -4.5024   -5.5389   -0.5855 Br  0  0  0  0  0  0  0  0  0  0  0  0
   -6.7626   -3.7660   -0.2699 C   0  0  0  0  0  0  0  0  0  0  0  0
   -7.6071   -2.6972   -0.6151 C   0  0  0  0  0  0  0  0  0  0  0  0
   -7.3254   -1.9651   -1.7827 C   0  0  0  0  0  0  0  0  0  0  0  0
   -7.9721   -0.7481   -2.3359 C   0  0  0  0  0  0  0  0  0  0  0  0
   -9.2510   -0.3422   -2.1394 C   0  0  0  0  0  0  0  0  0  0  0  0
   -9.8451    0.7036   -2.9430 C   0  0  0  0  0  0  0  0  0  0  0  0
  -10.3519    1.5249   -3.5853 N   0  0  0  0  0  0  0  0  0  0  0  0
  -10.1415   -1.0292   -1.2445 C   0  0  0  0  0  0  0  0  0  0  0  0
  -10.8425   -1.5929   -0.5137 N   0  0  0  0  0  0  0  0  0  0  0  0
    6.1096   -0.1064    4.7874 H   0  0  0  0  0  0  0  0  0  0  0  0
    4.8215   -5.8276    2.5083 H   0  0  0  0  0  0  0  0  0  0  0  0
    5.6402   -7.8082    3.8011 H   0  0  0  0  0  0  0  0  0  0  0  0
    7.5848   -5.2308    6.5900 H   0  0  0  0  0  0  0  0  0  0  0  0
    7.2345    1.6130    3.6961 H   0  0  0  0  0  0  0  0  0  0  0  0
    6.7948    2.9901    2.6657 H   0  0  0  0  0  0  0  0  0  0  0  0
    5.3452    2.1843    5.2879 H   0  0  0  0  0  0  0  0  0  0  0  0
    6.4861    3.5703    5.0659 H   0  0  0  0  0  0  0  0  0  0  0  0
    4.8864    3.5771    4.2455 H   0  0  0  0  0  0  0  0  0  0  0  0
   -5.7341    5.1883   -3.3939 H   0  0  0  0  0  0  0  0  0  0  0  0
   -6.8790    3.9809   -2.7607 H   0  0  0  0  0  0  0  0  0  0  0  0
   -7.4371    3.3388   -5.1842 H   0  0  0  0  0  0  0  0  0  0  0  0
   -6.3299    4.6770   -5.7257 H   0  0  0  0  0  0  0  0  0  0  0  0
   -7.8191    5.0402   -4.7625 H   0  0  0  0  0  0  0  0  0  0  0  0
    0.9053   -0.7018   -1.1750 H   0  0  0  0  0  0  0  0  0  0  0  0
    1.5919   -0.7502    0.4038 H   0  0  0  0  0  0  0  0  0  0  0  0
   -0.8682   -0.8093    0.6186 H   0  0  0  0  0  0  0  0  0  0  0  0
   -0.1702    0.6633    1.4070 H   0  0  0  0  0  0  0  0  0  0  0  0
   -1.0038    0.8052   -0.1805 H   0  0  0  0  0  0  0  0  0  0  0  0
   -0.7235   -0.4101   -2.4219 H   0  0  0  0  0  0  0  0  0  0  0  0
   -1.2257    0.1531   -3.9940 H   0  0  0  0  0  0  0  0  0  0  0  0
    0.9827   -0.8360   -4.2348 H   0  0  0  0  0  0  0  0  0  0  0  0
    1.6953    0.3534   -3.0935 H   0  0  0  0  0  0  0  0  0  0  0  0
    1.0011    0.9239   -4.6370 H   0  0  0  0  0  0  0  0  0  0  0  0
   -7.5090    1.8067   -3.1124 H   0  0  0  0  0  0  0  0  0  0  0  0
   -4.4778   -3.5449   -2.8104 H   0  0  0  0  0  0  0  0  0  0  0  0
   -6.9573   -4.3230    0.6369 H   0  0  0  0  0  0  0  0  0  0  0  0
   -8.4130   -2.4301    0.0536 H   0  0  0  0  0  0  0  0  0  0  0  0
  1  2  2  3
  2  3  1  0
  3  4  2  0
  3  5  1  0
  5  6  2  0
  6  7  1  0
  7  8  2  0
  8  9  1  0
  8 10  1  0
 10 11  2  0
 11 12  1  0
 12 13  2  3
 13 14  1  0
 14 15  3  0
 13 16  1  0
 16 17  3  0
  1 18  1  0
 18 19  2  0
 19 20  1  0
 20 21  1  0
 19 22  1  0
 22 23  1  0
 23 24  1  0
 24 25  1  0
 25 26  1  0
 26 27  1  0
 27 28  2  0
 28 29  1  0
 29 30  1  0
 27 31  1  0
 31 32  1  0
 32 33  1  0
 33 34  1  0
 34 35  1  0
 35 36  1  0
 36 37  1  0
 35 38  2  0
 38 39  1  0
 39 40  1  0
 40 41  1  0
 41 42  1  0
 42 43  1  0
 43 44  1  0
 44 45  1  0
 45 46  1  0
 46 47  1  0
 47 48  1  0
 45 49  1  0
 49 50  1  0
 42 51  1  0
 51 52  1  0
 38 53  1  0
 53 54  2  3
 54 55  1  0
 55 56  2  0
 55 57  1  0
 57 58  2  0
 58 59  1  0
 59 60  1  0
 59 61  2  0
 61 62  1  0
 62 63  2  0
 63 64  1  0
 64 65  2  3
 65 66  1  0
 66 67  3  0
 65 68  1  0
 68 69  3  0
 12  2  1  0
 48 18  1  0
 64 54  1  0
 11  5  1  0
 47 22  2  0
 63 57  1  0
 46 24  2  0
 44 25  2  0
 30 26  2  0
 43 31  2  0
 41 32  2  0
 40 34  2  0
  1 70  1  0
  6 71  1  0
  7 72  1  0
 10 73  1  0
 20 74  1  0
 20 75  1  0
 21 76  1  0
 21 77  1  0
 21 78  1  0
 36 79  1  0
 36 80  1  0
 37 81  1  0
 37 82  1  0
 37 83  1  0
 49 84  1  0
 49 85  1  0
 50 86  1  0
 50 87  1  0
 50 88  1  0
 51 89  1  0
 51 90  1  0
 52 91  1  0
 52 92  1  0
 52 93  1  0
 53 94  1  0
 58 95  1  0
 61 96  1  0
 62 97  1  0
M  END

