
     RDKit          3D

 97108  0  0  0  0  0  0  0  0999 V2000
   -3.3356   -0.8262   -6.3388 C   0  0  0  0  0  0  0  0  0  0  0  0
   -4.0087    0.2747   -5.9502 C   0  0  0  0  0  0  0  0  0  0  0  0
   -3.5238    1.2971   -5.0100 C   0  0  0  0  0  0  0  0  0  0  0  0
   -2.4981    1.2277   -4.2863 O   0  0  0  0  0  0  0  0  0  0  0  0
   -4.3410    2.4845   -5.1658 C   0  0  0  0  0  0  0  0  0  0  0  0
   -4.1784    3.7245   -4.5476 C   0  0  0  0  0  0  0  0  0  0  0  0
   -5.0130    4.7787   -4.9353 C   0  0  0  0  0  0  0  0  0  0  0  0
   -5.9683    4.5865   -5.9517 C   0  0  0  0  0  0  0  0  0  0  0  0
   -6.7207    5.6303   -6.3688 F   0  0  0  0  0  0  0  0  0  0  0  0
   -6.1049    3.3320   -6.5720 C   0  0  0  0  0  0  0  0  0  0  0  0
   -5.3012    2.2669   -6.1402 C   0  0  0  0  0  0  0  0  0  0  0  0
   -5.2163    0.8576   -6.6176 C   0  0  0  0  0  0  0  0  0  0  0  0
   -6.1669    0.1777   -7.3086 C   0  0  0  0  0  0  0  0  0  0  0  0
   -6.1228   -1.2541   -7.4681 C   0  0  0  0  0  0  0  0  0  0  0  0
   -6.0940   -2.4040   -7.6004 N   0  0  0  0  0  0  0  0  0  0  0  0
   -7.3567    0.8039   -7.8267 C   0  0  0  0  0  0  0  0  0  0  0  0
   -8.3135    1.2847   -8.2613 N   0  0  0  0  0  0  0  0  0  0  0  0
   -2.1563   -1.3666   -5.6450 C   0  0  0  0  0  0  0  0  0  0  0  0
   -0.9574   -1.7612   -6.2641 C   0  0  0  0  0  0  0  0  0  0  0  0
   -0.6770   -1.6792   -7.7392 C   0  0  0  0  0  0  0  0  0  0  0  0
   -1.0226   -3.0009   -8.4174 C   0  0  0  0  0  0  0  0  0  0  0  0
   -0.0508   -2.2543   -5.3227 C   0  0  0  0  0  0  0  0  0  0  0  0
    1.6158   -2.5806   -5.3957 S   0  0  0  0  0  0  0  0  0  0  0  0
    1.6821   -2.8179   -3.7164 C   0  0  0  0  0  0  0  0  0  0  0  0
    2.6461   -2.6649   -2.7622 C   0  0  0  0  0  0  0  0  0  0  0  0
    4.0054   -2.3870   -2.9298 C   0  0  0  0  0  0  0  0  0  0  0  0
    4.7472   -1.8928   -1.8228 C   0  0  0  0  0  0  0  0  0  0  0  0
    6.0525   -1.5872   -2.0374 N   0  0  0  0  0  0  0  0  0  0  0  0
    6.1695   -1.9641   -3.6462 S   0  0  0  0  0  0  0  0  0  0  0  0
    4.6668   -2.4892   -4.1103 N   0  0  0  0  0  0  0  0  0  0  0  0
    4.0999   -1.7512   -0.5986 C   0  0  0  0  0  0  0  0  0  0  0  0
    4.5497   -1.2673    0.5939 C   0  0  0  0  0  0  0  0  0  0  0  0
    5.8717   -0.4088    1.2262 S   0  0  0  0  0  0  0  0  0  0  0  0
    5.0405   -0.1587    2.7007 C   0  0  0  0  0  0  0  0  0  0  0  0
    5.2769    0.6562    3.8148 C   0  0  0  0  0  0  0  0  0  0  0  0
    6.5384    1.4572    3.9886 C   0  0  0  0  0  0  0  0  0  0  0  0
    7.5291    0.7233    4.8811 C   0  0  0  0  0  0  0  0  0  0  0  0
    4.1550    0.6803    4.6825 C   0  0  0  0  0  0  0  0  0  0  0  0
    2.8962   -0.2349    3.9748 S   0  0  0  0  0  0  0  0  0  0  0  0
    3.7943   -0.7297    2.6646 C   0  0  0  0  0  0  0  0  0  0  0  0
    3.5226   -1.3564    1.4622 C   0  0  0  0  0  0  0  0  0  0  0  0
    2.4042   -1.8953    0.9235 N   0  0  0  0  0  0  0  0  0  0  0  0
    2.7420   -2.0832   -0.3981 C   0  0  0  0  0  0  0  0  0  0  0  0
    1.9654   -2.4611   -1.5402 C   0  0  0  0  0  0  0  0  0  0  0  0
    0.6066   -2.4030   -1.7716 N   0  0  0  0  0  0  0  0  0  0  0  0
    0.4846   -2.6215   -3.1074 C   0  0  0  0  0  0  0  0  0  0  0  0
   -0.5067   -2.2828   -4.0283 C   0  0  0  0  0  0  0  0  0  0  0  0
   -2.0673   -1.6712   -3.9696 S   0  0  0  0  0  0  0  0  0  0  0  0
   -0.4749   -1.8807   -0.9321 C   0  0  0  0  0  0  0  0  0  0  0  0
   -0.3074   -0.3871   -0.6656 C   0  0  0  0  0  0  0  0  0  0  0  0
    1.3459   -2.5033    1.7458 C   0  0  0  0  0  0  0  0  0  0  0  0
    1.1685   -3.9942    1.4342 C   0  0  0  0  0  0  0  0  0  0  0  0
    3.9831    1.6017    5.8326 C   0  0  0  0  0  0  0  0  0  0  0  0
    3.0277    1.5030    6.7811 C   0  0  0  0  0  0  0  0  0  0  0  0
    2.0574    0.4141    6.9428 C   0  0  0  0  0  0  0  0  0  0  0  0
    2.2752   -0.8135    6.7730 O   0  0  0  0  0  0  0  0  0  0  0  0
    0.8384    0.9758    7.4762 C   0  0  0  0  0  0  0  0  0  0  0  0
   -0.4254    0.3911    7.5260 C   0  0  0  0  0  0  0  0  0  0  0  0
   -1.5274    1.1894    7.8716 C   0  0  0  0  0  0  0  0  0  0  0  0
   -3.1264    0.4599    7.8904 Cl  0  0  0  0  0  0  0  0  0  0  0  0
   -1.3433    2.5659    8.1379 C   0  0  0  0  0  0  0  0  0  0  0  0
   -2.8322    3.7076    8.5392 Br  0  0  0  0  0  0  0  0  0  0  0  0
   -0.0537    3.1314    8.0851 C   0  0  0  0  0  0  0  0  0  0  0  0
    1.0423    2.3112    7.7729 C   0  0  0  0  0  0  0  0  0  0  0  0
    2.4649    2.6637    7.5275 C   0  0  0  0  0  0  0  0  0  0  0  0
    3.1562    3.6957    8.0655 C   0  0  0  0  0  0  0  0  0  0  0  0
    4.5948    3.7500    8.0196 C   0  0  0  0  0  0  0  0  0  0  0  0
    5.7512    3.7981    7.9929 N   0  0  0  0  0  0  0  0  0  0  0  0
    2.5124    4.7340    8.8249 C   0  0  0  0  0  0  0  0  0  0  0  0
    1.9830    5.5828    9.4180 N   0  0  0  0  0  0  0  0  0  0  0  0
   -3.6079   -1.3213   -7.2564 H   0  0  0  0  0  0  0  0  0  0  0  0
   -3.4105    3.8722   -3.7971 H   0  0  0  0  0  0  0  0  0  0  0  0
   -4.9024    5.7518   -4.4732 H   0  0  0  0  0  0  0  0  0  0  0  0
   -6.8032    3.2350   -7.3868 H   0  0  0  0  0  0  0  0  0  0  0  0
   -1.2699   -0.8598   -8.2001 H   0  0  0  0  0  0  0  0  0  0  0  0
    0.3990   -1.4501   -7.9081 H   0  0  0  0  0  0  0  0  0  0  0  0
   -2.1025   -3.2330   -8.2853 H   0  0  0  0  0  0  0  0  0  0  0  0
   -0.4152   -3.8278   -7.9828 H   0  0  0  0  0  0  0  0  0  0  0  0
   -0.7963   -2.9311   -9.5046 H   0  0  0  0  0  0  0  0  0  0  0  0
    6.3191    2.4556    4.4192 H   0  0  0  0  0  0  0  0  0  0  0  0
    7.0166    1.6362    3.0003 H   0  0  0  0  0  0  0  0  0  0  0  0
    8.4478    1.3300    4.9892 H   0  0  0  0  0  0  0  0  0  0  0  0
    7.8007   -0.2523    4.4211 H   0  0  0  0  0  0  0  0  0  0  0  0
    7.0922    0.5503    5.8872 H   0  0  0  0  0  0  0  0  0  0  0  0
   -1.4538   -2.0440   -1.4152 H   0  0  0  0  0  0  0  0  0  0  0  0
   -0.5837   -2.4765   -0.0208 H   0  0  0  0  0  0  0  0  0  0  0  0
   -0.2966    0.1638   -1.6295 H   0  0  0  0  0  0  0  0  0  0  0  0
   -1.1532   -0.0206   -0.0469 H   0  0  0  0  0  0  0  0  0  0  0  0
    0.6442   -0.1861   -0.1305 H   0  0  0  0  0  0  0  0  0  0  0  0
    1.6298   -2.4566    2.8197 H   0  0  0  0  0  0  0  0  0  0  0  0
    0.4148   -1.9162    1.6927 H   0  0  0  0  0  0  0  0  0  0  0  0
    0.3723   -4.4207    2.0799 H   0  0  0  0  0  0  0  0  0  0  0  0
    2.1138   -4.5342    1.6448 H   0  0  0  0  0  0  0  0  0  0  0  0
    0.8963   -4.1659    0.3725 H   0  0  0  0  0  0  0  0  0  0  0  0
    4.5506    2.5144    5.7769 H   0  0  0  0  0  0  0  0  0  0  0  0
   -0.5625   -0.6441    7.2472 H   0  0  0  0  0  0  0  0  0  0  0  0
    0.0562    4.1957    8.2230 H   0  0  0  0  0  0  0  0  0  0  0  0
  1  2  2  3
  2  3  1  0
  3  4  2  0
  3  5  1  0
  5  6  2  0
  6  7  1  0
  7  8  2  0
  8  9  1  0
  8 10  1  0
 10 11  2  0
 11 12  1  0
 12 13  2  3
 13 14  1  0
 14 15  3  0
 13 16  1  0
 16 17  3  0
  1 18  1  0
 18 19  2  0
 19 20  1  0
 20 21  1  0
 19 22  1  0
 22 23  1  0
 23 24  1  0
 24 25  1  0
 25 26  1  0
 26 27  1  0
 27 28  2  0
 28 29  1  0
 29 30  1  0
 27 31  1  0
 31 32  1  0
 32 33  1  0
 33 34  1  0
 34 35  1  0
 35 36  1  0
 36 37  1  0
 35 38  2  0
 38 39  1  0
 39 40  1  0
 40 41  1  0
 41 42  1  0
 42 43  1  0
 43 44  1  0
 44 45  1  0
 45 46  1  0
 46 47  1  0
 47 48  1  0
 45 49  1  0
 49 50  1  0
 42 51  1  0
 51 52  1  0
 38 53  1  0
 53 54  2  3
 54 55  1  0
 55 56  2  0
 55 57  1  0
 57 58  2  0
 58 59  1  0
 59 60  1  0
 59 61  2  0
 61 62  1  0
 61 63  1  0
 63 64  2  0
 64 65  1  0
 65 66  2  3
 66 67  1  0
 67 68  3  0
 66 69  1  0
 69 70  3  0
 12  2  1  0
 48 18  1  0
 65 54  1  0
 11  5  1  0
 47 22  2  0
 64 57  1  0
 46 24  2  0
 44 25  2  0
 30 26  2  0
 43 31  2  0
 41 32  2  0
 40 34  2  0
  1 71  1  0
  6 72  1  0
  7 73  1  0
 10 74  1  0
 20 75  1  0
 20 76  1  0
 21 77  1  0
 21 78  1  0
 21 79  1  0
 36 80  1  0
 36 81  1  0
 37 82  1  0
 37 83  1  0
 37 84  1  0
 49 85  1  0
 49 86  1  0
 50 87  1  0
 50 88  1  0
 50 89  1  0
 51 90  1  0
 51 91  1  0
 52 92  1  0
 52 93  1  0
 52 94  1  0
 53 95  1  0
 58 96  1  0
 63 97  1  0
M  END

