
     RDKit          3D

103115  0  0  0  0  0  0  0  0999 V2000
   -2.3358    0.5029    7.8144 C   0  0  0  0  0  0  0  0  0  0  0  0
   -1.8620   -0.7648    7.8812 C   0  0  0  0  0  0  0  0  0  0  0  0
   -0.6157   -1.0332    8.6334 C   0  0  0  0  0  0  0  0  0  0  0  0
   -0.4001   -0.7302    9.8418 O   0  0  0  0  0  0  0  0  0  0  0  0
    0.3759   -1.5794    7.7102 C   0  0  0  0  0  0  0  0  0  0  0  0
    1.7336   -1.2110    7.7215 C   0  0  0  0  0  0  0  0  0  0  0  0
    2.3382   -0.8837    6.5017 C   0  0  0  0  0  0  0  0  0  0  0  0
    1.6369   -1.0301    5.2906 C   0  0  0  0  0  0  0  0  0  0  0  0
    2.1038   -0.4485    4.1563 F   0  0  0  0  0  0  0  0  0  0  0  0
    0.3334   -1.5382    5.2997 C   0  0  0  0  0  0  0  0  0  0  0  0
   -0.2776   -1.8615    6.5037 C   0  0  0  0  0  0  0  0  0  0  0  0
   -1.7127   -1.6575    6.7185 C   0  0  0  0  0  0  0  0  0  0  0  0
   -2.7143   -2.3219    6.1079 C   0  0  0  0  0  0  0  0  0  0  0  0
   -2.4265   -3.2237    5.0306 C   0  0  0  0  0  0  0  0  0  0  0  0
   -2.1446   -3.9156    4.1416 N   0  0  0  0  0  0  0  0  0  0  0  0
   -4.0954   -2.1098    6.4739 C   0  0  0  0  0  0  0  0  0  0  0  0
   -5.2089   -1.9645    6.7452 N   0  0  0  0  0  0  0  0  0  0  0  0
   -2.5270    1.2870    6.5455 C   0  0  0  0  0  0  0  0  0  0  0  0
   -2.4565    2.6959    6.4531 C   0  0  0  0  0  0  0  0  0  0  0  0
   -2.8260    3.6426    7.5565 C   0  0  0  0  0  0  0  0  0  0  0  0
   -4.2832    4.0633    7.3728 C   0  0  0  0  0  0  0  0  0  0  0  0
   -2.1936    3.1239    5.1428 C   0  0  0  0  0  0  0  0  0  0  0  0
   -1.6188    4.5952    4.4923 S   0  0  0  0  0  0  0  0  0  0  0  0
   -1.3658    3.8895    2.9579 C   0  0  0  0  0  0  0  0  0  0  0  0
   -0.5463    4.1023    1.8821 C   0  0  0  0  0  0  0  0  0  0  0  0
    0.3736    5.1312    1.6026 C   0  0  0  0  0  0  0  0  0  0  0  0
    1.3460    4.9340    0.5848 C   0  0  0  0  0  0  0  0  0  0  0  0
    2.2334    5.9379    0.3808 N   0  0  0  0  0  0  0  0  0  0  0  0
    1.7280    7.0079    1.5402 S   0  0  0  0  0  0  0  0  0  0  0  0
    0.4319    6.2960    2.2940 N   0  0  0  0  0  0  0  0  0  0  0  0
    1.3243    3.7420   -0.1555 C   0  0  0  0  0  0  0  0  0  0  0  0
    2.0144    3.3247   -1.2592 C   0  0  0  0  0  0  0  0  0  0  0  0
    3.2210    3.8418   -2.3588 S   0  0  0  0  0  0  0  0  0  0  0  0
    2.9388    2.4803   -3.3701 C   0  0  0  0  0  0  0  0  0  0  0  0
    3.5017    1.9817   -4.5540 C   0  0  0  0  0  0  0  0  0  0  0  0
    4.6204    2.6390   -5.3079 C   0  0  0  0  0  0  0  0  0  0  0  0
    4.0541    3.6197   -6.3354 C   0  0  0  0  0  0  0  0  0  0  0  0
    2.8386    0.7963   -4.9550 C   0  0  0  0  0  0  0  0  0  0  0  0
    1.5394    0.4700   -3.9128 S   0  0  0  0  0  0  0  0  0  0  0  0
    1.8977    1.7371   -2.8936 C   0  0  0  0  0  0  0  0  0  0  0  0
    1.4164    2.1835   -1.6797 C   0  0  0  0  0  0  0  0  0  0  0  0
    0.3619    1.8091   -0.9169 N   0  0  0  0  0  0  0  0  0  0  0  0
    0.3608    2.7431    0.0893 C   0  0  0  0  0  0  0  0  0  0  0  0
   -0.5126    2.8771    1.1871 C   0  0  0  0  0  0  0  0  0  0  0  0
   -1.1738    1.9031    1.8973 N   0  0  0  0  0  0  0  0  0  0  0  0
   -1.6945    2.5672    2.9541 C   0  0  0  0  0  0  0  0  0  0  0  0
   -2.1369    2.1318    4.2045 C   0  0  0  0  0  0  0  0  0  0  0  0
   -2.3411    0.6687    4.9660 S   0  0  0  0  0  0  0  0  0  0  0  0
   -0.9507    0.4452    1.8482 C   0  0  0  0  0  0  0  0  0  0  0  0
   -2.2656   -0.3137    1.6128 C   0  0  0  0  0  0  0  0  0  0  0  0
   -0.8037    1.0888   -1.4383 C   0  0  0  0  0  0  0  0  0  0  0  0
   -1.6529    1.9985   -2.3303 C   0  0  0  0  0  0  0  0  0  0  0  0
    3.1507   -0.0525   -6.1178 C   0  0  0  0  0  0  0  0  0  0  0  0
    3.2102   -1.4040   -6.0417 C   0  0  0  0  0  0  0  0  0  0  0  0
    3.1143   -2.1959   -4.8079 C   0  0  0  0  0  0  0  0  0  0  0  0
    3.5309   -1.8733   -3.6664 O   0  0  0  0  0  0  0  0  0  0  0  0
    2.4974   -3.4561   -5.1243 C   0  0  0  0  0  0  0  0  0  0  0  0
    1.9038   -4.3467   -4.2268 C   0  0  0  0  0  0  0  0  0  0  0  0
    1.0864   -5.3693   -4.7365 C   0  0  0  0  0  0  0  0  0  0  0  0
    0.3980   -6.2281   -3.8631 C   0  0  0  0  0  0  0  0  0  0  0  0
   -0.4942   -7.1757   -4.3717 C   0  0  0  0  0  0  0  0  0  0  0  0
   -0.6814   -7.2923   -5.7521 C   0  0  0  0  0  0  0  0  0  0  0  0
   -1.5608   -8.1981   -6.2382 F   0  0  0  0  0  0  0  0  0  0  0  0
    0.0154   -6.4596   -6.6378 C   0  0  0  0  0  0  0  0  0  0  0  0
    0.8990   -5.4909   -6.1452 C   0  0  0  0  0  0  0  0  0  0  0  0
    1.5363   -4.5911   -7.0302 C   0  0  0  0  0  0  0  0  0  0  0  0
    2.3397   -3.5713   -6.4937 C   0  0  0  0  0  0  0  0  0  0  0  0
    2.9197   -2.3667   -7.1525 C   0  0  0  0  0  0  0  0  0  0  0  0
    3.3020   -2.2680   -8.4523 C   0  0  0  0  0  0  0  0  0  0  0  0
    3.9577   -1.0917   -8.9718 C   0  0  0  0  0  0  0  0  0  0  0  0
    4.4721   -0.1464   -9.3888 N   0  0  0  0  0  0  0  0  0  0  0  0
    3.1759   -3.3792   -9.3835 C   0  0  0  0  0  0  0  0  0  0  0  0
    3.1253   -4.2659  -10.1160 N   0  0  0  0  0  0  0  0  0  0  0  0
   -2.1877    1.0880    8.7056 H   0  0  0  0  0  0  0  0  0  0  0  0
    2.2042   -0.9089    8.6521 H   0  0  0  0  0  0  0  0  0  0  0  0
    3.3016   -0.3978    6.4891 H   0  0  0  0  0  0  0  0  0  0  0  0
   -0.2720   -1.4825    4.4087 H   0  0  0  0  0  0  0  0  0  0  0  0
   -2.1679    4.5321    7.5275 H   0  0  0  0  0  0  0  0  0  0  0  0
   -2.7120    3.1772    8.5578 H   0  0  0  0  0  0  0  0  0  0  0  0
   -4.9419    3.1704    7.2597 H   0  0  0  0  0  0  0  0  0  0  0  0
   -4.3902    4.7066    6.4712 H   0  0  0  0  0  0  0  0  0  0  0  0
   -4.6280    4.6288    8.2735 H   0  0  0  0  0  0  0  0  0  0  0  0
    5.2930    3.1831   -4.6098 H   0  0  0  0  0  0  0  0  0  0  0  0
    5.2384    1.8715   -5.8307 H   0  0  0  0  0  0  0  0  0  0  0  0
    3.3766    3.0839   -7.0396 H   0  0  0  0  0  0  0  0  0  0  0  0
    3.4908    4.4266   -5.8307 H   0  0  0  0  0  0  0  0  0  0  0  0
    4.8835    4.0627   -6.9399 H   0  0  0  0  0  0  0  0  0  0  0  0
   -0.1945    0.1752    1.0762 H   0  0  0  0  0  0  0  0  0  0  0  0
   -0.4879    0.1203    2.7961 H   0  0  0  0  0  0  0  0  0  0  0  0
   -2.9689    0.2704    0.9825 H   0  0  0  0  0  0  0  0  0  0  0  0
   -2.7793   -0.5283    2.5647 H   0  0  0  0  0  0  0  0  0  0  0  0
   -2.0507   -1.2870    1.1312 H   0  0  0  0  0  0  0  0  0  0  0  0
   -1.4537    0.7343   -0.6274 H   0  0  0  0  0  0  0  0  0  0  0  0
   -0.4872    0.1824   -2.0062 H   0  0  0  0  0  0  0  0  0  0  0  0
   -2.0377    2.8611   -1.7453 H   0  0  0  0  0  0  0  0  0  0  0  0
   -2.5236    1.4278   -2.7232 H   0  0  0  0  0  0  0  0  0  0  0  0
   -1.0522    2.3723   -3.1842 H   0  0  0  0  0  0  0  0  0  0  0  0
    3.1255    0.4407   -7.0655 H   0  0  0  0  0  0  0  0  0  0  0  0
    2.0147   -4.1903   -3.1632 H   0  0  0  0  0  0  0  0  0  0  0  0
    0.5247   -6.1428   -2.7867 H   0  0  0  0  0  0  0  0  0  0  0  0
   -1.0501   -7.8010   -3.6861 H   0  0  0  0  0  0  0  0  0  0  0  0
   -0.1583   -6.5583   -7.7003 H   0  0  0  0  0  0  0  0  0  0  0  0
    1.3176   -4.6332   -8.0896 H   0  0  0  0  0  0  0  0  0  0  0  0
  1  2  2  3
  2  3  1  0
  3  4  2  0
  3  5  1  0
  5  6  2  0
  6  7  1  0
  7  8  2  0
  8  9  1  0
  8 10  1  0
 10 11  2  0
 11 12  1  0
 12 13  2  3
 13 14  1  0
 14 15  3  0
 13 16  1  0
 16 17  3  0
  1 18  1  0
 18 19  2  0
 19 20  1  0
 20 21  1  0
 19 22  1  0
 22 23  1  0
 23 24  1  0
 24 25  1  0
 25 26  1  0
 26 27  1  0
 27 28  2  0
 28 29  1  0
 29 30  1  0
 27 31  1  0
 31 32  1  0
 32 33  1  0
 33 34  1  0
 34 35  1  0
 35 36  1  0
 36 37  1  0
 35 38  2  0
 38 39  1  0
 39 40  1  0
 40 41  1  0
 41 42  1  0
 42 43  1  0
 43 44  1  0
 44 45  1  0
 45 46  1  0
 46 47  1  0
 47 48  1  0
 45 49  1  0
 49 50  1  0
 42 51  1  0
 51 52  1  0
 38 53  1  0
 53 54  2  3
 54 55  1  0
 55 56  2  0
 55 57  1  0
 57 58  2  0
 58 59  1  0
 59 60  2  0
 60 61  1  0
 61 62  2  0
 62 63  1  0
 62 64  1  0
 64 65  2  0
 65 66  1  0
 66 67  2  0
 67 68  1  0
 68 69  2  3
 69 70  1  0
 70 71  3  0
 69 72  1  0
 72 73  3  0
 12  2  1  0
 48 18  1  0
 68 54  1  0
 11  5  1  0
 47 22  2  0
 67 57  1  0
 46 24  2  0
 65 59  1  0
 44 25  2  0
 30 26  2  0
 43 31  2  0
 41 32  2  0
 40 34  2  0
  1 74  1  0
  6 75  1  0
  7 76  1  0
 10 77  1  0
 20 78  1  0
 20 79  1  0
 21 80  1  0
 21 81  1  0
 21 82  1  0
 36 83  1  0
 36 84  1  0
 37 85  1  0
 37 86  1  0
 37 87  1  0
 49 88  1  0
 49 89  1  0
 50 90  1  0
 50 91  1  0
 50 92  1  0
 51 93  1  0
 51 94  1  0
 52 95  1  0
 52 96  1  0
 52 97  1  0
 53 98  1  0
 58 99  1  0
 60100  1  0
 61101  1  0
 64102  1  0
 66103  1  0
M  END

