
     RDKit          3D

 99109  0  0  0  0  0  0  0  0999 V2000
   -0.6611    6.1096    0.9642 C   0  0  0  0  0  0  0  0  0  0  0  0
   -0.2331    7.3683    1.1589 C   0  0  0  0  0  0  0  0  0  0  0  0
    1.1700    7.7986    1.1937 C   0  0  0  0  0  0  0  0  0  0  0  0
    2.1840    7.0540    1.2648 O   0  0  0  0  0  0  0  0  0  0  0  0
    1.2063    9.2372    1.0529 C   0  0  0  0  0  0  0  0  0  0  0  0
    2.3274   10.0606    0.9541 C   0  0  0  0  0  0  0  0  0  0  0  0
    2.1301   11.4324    0.7547 C   0  0  0  0  0  0  0  0  0  0  0  0
    0.8264   11.9512    0.6415 C   0  0  0  0  0  0  0  0  0  0  0  0
    0.6478   13.2779    0.4380 F   0  0  0  0  0  0  0  0  0  0  0  0
   -0.2899   11.1026    0.7426 C   0  0  0  0  0  0  0  0  0  0  0  0
   -0.0856    9.7312    0.9652 C   0  0  0  0  0  0  0  0  0  0  0  0
   -1.0615    8.6129    1.1131 C   0  0  0  0  0  0  0  0  0  0  0  0
   -2.3842    8.7141    1.4061 C   0  0  0  0  0  0  0  0  0  0  0  0
   -3.0829    9.9700    1.4503 C   0  0  0  0  0  0  0  0  0  0  0  0
   -3.6658   10.9677    1.4993 N   0  0  0  0  0  0  0  0  0  0  0  0
   -3.1701    7.5809    1.8300 C   0  0  0  0  0  0  0  0  0  0  0  0
   -3.8092    6.6762    2.1705 N   0  0  0  0  0  0  0  0  0  0  0  0
    0.2061    4.9260    1.0431 C   0  0  0  0  0  0  0  0  0  0  0  0
    0.8685    4.4568    2.1987 C   0  0  0  0  0  0  0  0  0  0  0  0
    0.7707    5.0755    3.5682 C   0  0  0  0  0  0  0  0  0  0  0  0
   -0.4498    4.5440    4.3098 C   0  0  0  0  0  0  0  0  0  0  0  0
    1.4434    3.2090    1.9590 C   0  0  0  0  0  0  0  0  0  0  0  0
    2.2030    2.0538    2.9693 S   0  0  0  0  0  0  0  0  0  0  0  0
    2.2429    0.9400    1.6912 C   0  0  0  0  0  0  0  0  0  0  0  0
    2.6169   -0.3450    1.4350 C   0  0  0  0  0  0  0  0  0  0  0  0
    3.2785   -1.2960    2.2120 C   0  0  0  0  0  0  0  0  0  0  0  0
    3.5285   -2.5818    1.6454 C   0  0  0  0  0  0  0  0  0  0  0  0
    4.1448   -3.4915    2.4396 N   0  0  0  0  0  0  0  0  0  0  0  0
    4.3520   -2.5743    3.8029 S   0  0  0  0  0  0  0  0  0  0  0  0
    3.6960   -1.0857    3.4848 N   0  0  0  0  0  0  0  0  0  0  0  0
    3.0641   -2.8565    0.3498 C   0  0  0  0  0  0  0  0  0  0  0  0
    2.8564   -4.0628   -0.2599 C   0  0  0  0  0  0  0  0  0  0  0  0
    2.8537   -5.6667    0.2968 S   0  0  0  0  0  0  0  0  0  0  0  0
    1.6942   -6.1102   -0.8639 C   0  0  0  0  0  0  0  0  0  0  0  0
    0.9347   -7.2671   -1.0345 C   0  0  0  0  0  0  0  0  0  0  0  0
    1.1111   -8.5149   -0.2155 C   0  0  0  0  0  0  0  0  0  0  0  0
    0.2033   -8.4881    1.0081 C   0  0  0  0  0  0  0  0  0  0  0  0
   -0.1361   -7.0318   -1.9139 C   0  0  0  0  0  0  0  0  0  0  0  0
   -0.0835   -5.4253   -2.4788 S   0  0  0  0  0  0  0  0  0  0  0  0
    1.2878   -5.0252   -1.6011 C   0  0  0  0  0  0  0  0  0  0  0  0
    1.9598   -3.8513   -1.2655 C   0  0  0  0  0  0  0  0  0  0  0  0
    1.6056   -2.5427   -1.3808 N   0  0  0  0  0  0  0  0  0  0  0  0
    2.3425   -1.9144   -0.4037 C   0  0  0  0  0  0  0  0  0  0  0  0
    2.2168   -0.5968    0.1126 C   0  0  0  0  0  0  0  0  0  0  0  0
    1.7091    0.5366   -0.4681 N   0  0  0  0  0  0  0  0  0  0  0  0
    1.6968    1.4249    0.5523 C   0  0  0  0  0  0  0  0  0  0  0  0
    1.2555    2.7245    0.6894 C   0  0  0  0  0  0  0  0  0  0  0  0
    0.3204    3.7789   -0.2139 S   0  0  0  0  0  0  0  0  0  0  0  0
    1.7713    0.9112   -1.8878 C   0  0  0  0  0  0  0  0  0  0  0  0
    2.9475    1.8443   -2.1632 C   0  0  0  0  0  0  0  0  0  0  0  0
    0.3575   -2.0819   -2.0098 C   0  0  0  0  0  0  0  0  0  0  0  0
    0.4639   -2.1145   -3.5368 C   0  0  0  0  0  0  0  0  0  0  0  0
   -1.1886   -8.0009   -2.2595 C   0  0  0  0  0  0  0  0  0  0  0  0
   -2.5096   -7.7867   -2.0590 C   0  0  0  0  0  0  0  0  0  0  0  0
   -3.0177   -6.5903   -1.3428 C   0  0  0  0  0  0  0  0  0  0  0  0
   -2.3255   -6.0318   -0.4494 O   0  0  0  0  0  0  0  0  0  0  0  0
   -4.3363   -6.1028   -1.6385 N   0  0  0  0  0  0  0  0  0  0  0  0
   -4.7615   -4.7714   -1.1779 C   0  0  0  0  0  0  0  0  0  0  0  0
   -4.2560   -3.6913   -2.1304 C   0  0  0  0  0  0  0  0  0  0  0  0
   -5.1918   -6.9078   -2.4682 C   0  0  0  0  0  0  0  0  0  0  0  0
   -6.3017   -6.4530   -2.8636 O   0  0  0  0  0  0  0  0  0  0  0  0
   -4.7907   -8.2856   -2.8407 C   0  0  0  0  0  0  0  0  0  0  0  0
   -3.5334   -8.7354   -2.5969 C   0  0  0  0  0  0  0  0  0  0  0  0
   -3.1368  -10.1633   -2.9200 C   0  0  0  0  0  0  0  0  0  0  0  0
   -5.7850   -9.1264   -3.4673 C   0  0  0  0  0  0  0  0  0  0  0  0
   -6.5790   -9.8015   -3.9690 N   0  0  0  0  0  0  0  0  0  0  0  0
   -1.6737    5.9277    0.6502 H   0  0  0  0  0  0  0  0  0  0  0  0
    3.3274    9.6515    1.0337 H   0  0  0  0  0  0  0  0  0  0  0  0
    2.9846   12.0911    0.6676 H   0  0  0  0  0  0  0  0  0  0  0  0
   -1.2716   11.5265    0.6217 H   0  0  0  0  0  0  0  0  0  0  0  0
    1.6875    4.8453    4.1520 H   0  0  0  0  0  0  0  0  0  0  0  0
    0.6980    6.1799    3.4956 H   0  0  0  0  0  0  0  0  0  0  0  0
   -1.3760    4.7869    3.7442 H   0  0  0  0  0  0  0  0  0  0  0  0
   -0.5110    5.0126    5.3144 H   0  0  0  0  0  0  0  0  0  0  0  0
   -0.3770    3.4417    4.4367 H   0  0  0  0  0  0  0  0  0  0  0  0
    2.1685   -8.5993    0.1172 H   0  0  0  0  0  0  0  0  0  0  0  0
    0.8779   -9.4077   -0.8342 H   0  0  0  0  0  0  0  0  0  0  0  0
    0.4139   -7.5884    1.6270 H   0  0  0  0  0  0  0  0  0  0  0  0
    0.3774   -9.3922    1.6296 H   0  0  0  0  0  0  0  0  0  0  0  0
   -0.8628   -8.4771    0.6965 H   0  0  0  0  0  0  0  0  0  0  0  0
    1.9405    0.0192   -2.5081 H   0  0  0  0  0  0  0  0  0  0  0  0
    0.8202    1.3946   -2.1991 H   0  0  0  0  0  0  0  0  0  0  0  0
    2.7938    2.8295   -1.6763 H   0  0  0  0  0  0  0  0  0  0  0  0
    3.0494    2.0081   -3.2582 H   0  0  0  0  0  0  0  0  0  0  0  0
    3.8894    1.3902   -1.7838 H   0  0  0  0  0  0  0  0  0  0  0  0
    0.0776   -1.0688   -1.6693 H   0  0  0  0  0  0  0  0  0  0  0  0
   -0.4849   -2.7273   -1.6861 H   0  0  0  0  0  0  0  0  0  0  0  0
    1.3392   -1.5373   -3.9016 H   0  0  0  0  0  0  0  0  0  0  0  0
   -0.4558   -1.6816   -3.9806 H   0  0  0  0  0  0  0  0  0  0  0  0
    0.5731   -3.1502   -3.9036 H   0  0  0  0  0  0  0  0  0  0  0  0
   -0.8470   -8.9030   -2.7433 H   0  0  0  0  0  0  0  0  0  0  0  0
   -5.8701   -4.7170   -1.1129 H   0  0  0  0  0  0  0  0  0  0  0  0
   -4.3735   -4.5716   -0.1542 H   0  0  0  0  0  0  0  0  0  0  0  0
   -3.1451   -3.7041   -2.1706 H   0  0  0  0  0  0  0  0  0  0  0  0
   -4.5923   -2.6934   -1.7762 H   0  0  0  0  0  0  0  0  0  0  0  0
   -4.6590   -3.8630   -3.1508 H   0  0  0  0  0  0  0  0  0  0  0  0
   -2.7187  -10.2108   -3.9467 H   0  0  0  0  0  0  0  0  0  0  0  0
   -2.3788  -10.5312   -2.1952 H   0  0  0  0  0  0  0  0  0  0  0  0
   -3.9963  -10.8617   -2.8420 H   0  0  0  0  0  0  0  0  0  0  0  0
  1  2  2  3
  2  3  1  0
  3  4  2  0
  3  5  1  0
  5  6  2  0
  6  7  1  0
  7  8  2  0
  8  9  1  0
  8 10  1  0
 10 11  2  0
 11 12  1  0
 12 13  2  3
 13 14  1  0
 14 15  3  0
 13 16  1  0
 16 17  3  0
  1 18  1  0
 18 19  2  0
 19 20  1  0
 20 21  1  0
 19 22  1  0
 22 23  1  0
 23 24  1  0
 24 25  1  0
 25 26  1  0
 26 27  1  0
 27 28  2  0
 28 29  1  0
 29 30  1  0
 27 31  1  0
 31 32  1  0
 32 33  1  0
 33 34  1  0
 34 35  1  0
 35 36  1  0
 36 37  1  0
 35 38  2  0
 38 39  1  0
 39 40  1  0
 40 41  1  0
 41 42  1  0
 42 43  1  0
 43 44  1  0
 44 45  1  0
 45 46  1  0
 46 47  1  0
 47 48  1  0
 45 49  1  0
 49 50  1  0
 42 51  1  0
 51 52  1  0
 38 53  1  0
 53 54  2  3
 54 55  1  0
 55 56  2  0
 55 57  1  0
 57 58  1  0
 58 59  1  0
 57 60  1  0
 60 61  2  0
 60 62  1  0
 62 63  2  0
 63 64  1  0
 62 65  1  0
 65 66  3  0
 12  2  1  0
 48 18  1  0
 63 54  1  0
 11  5  1  0
 47 22  2  0
 46 24  2  0
 44 25  2  0
 30 26  2  0
 43 31  2  0
 41 32  2  0
 40 34  2  0
  1 67  1  0
  6 68  1  0
  7 69  1  0
 10 70  1  0
 20 71  1  0
 20 72  1  0
 21 73  1  0
 21 74  1  0
 21 75  1  0
 36 76  1  0
 36 77  1  0
 37 78  1  0
 37 79  1  0
 37 80  1  0
 49 81  1  0
 49 82  1  0
 50 83  1  0
 50 84  1  0
 50 85  1  0
 51 86  1  0
 51 87  1  0
 52 88  1  0
 52 89  1  0
 52 90  1  0
 53 91  1  0
 58 92  1  0
 58 93  1  0
 59 94  1  0
 59 95  1  0
 59 96  1  0
 64 97  1  0
 64 98  1  0
 64 99  1  0
M  END

