
     RDKit          3D

100111  0  0  0  0  0  0  0  0999 V2000
    2.2929    2.0693   -6.9887 C   0  0  0  0  0  0  0  0  0  0  0  0
    2.2540    3.3970   -7.1971 C   0  0  0  0  0  0  0  0  0  0  0  0
    2.3461    4.4240   -6.1486 C   0  0  0  0  0  0  0  0  0  0  0  0
    2.6656    4.2410   -4.9423 O   0  0  0  0  0  0  0  0  0  0  0  0
    1.9186    5.6822   -6.7060 C   0  0  0  0  0  0  0  0  0  0  0  0
    1.8112    6.9141   -6.0578 C   0  0  0  0  0  0  0  0  0  0  0  0
    1.3622    8.0203   -6.7924 C   0  0  0  0  0  0  0  0  0  0  0  0
    1.0544    7.8816   -8.1578 C   0  0  0  0  0  0  0  0  0  0  0  0
    0.6254    8.9592   -8.8639 F   0  0  0  0  0  0  0  0  0  0  0  0
    1.1546    6.6287   -8.7912 C   0  0  0  0  0  0  0  0  0  0  0  0
    1.6122    5.5224   -8.0492 C   0  0  0  0  0  0  0  0  0  0  0  0
    1.8543    4.1042   -8.4528 C   0  0  0  0  0  0  0  0  0  0  0  0
    1.8697    3.5981   -9.7141 C   0  0  0  0  0  0  0  0  0  0  0  0
    2.4310    2.3073  -10.0173 C   0  0  0  0  0  0  0  0  0  0  0  0
    2.8810    1.2742  -10.2790 N   0  0  0  0  0  0  0  0  0  0  0  0
    1.4252    4.3371  -10.8652 C   0  0  0  0  0  0  0  0  0  0  0  0
    1.0688    4.9183  -11.8017 N   0  0  0  0  0  0  0  0  0  0  0  0
    2.6496    1.4706   -5.6965 C   0  0  0  0  0  0  0  0  0  0  0  0
    3.9220    1.5103   -5.0763 C   0  0  0  0  0  0  0  0  0  0  0  0
    5.1611    2.1076   -5.6780 C   0  0  0  0  0  0  0  0  0  0  0  0
    5.9579    1.0505   -6.4338 C   0  0  0  0  0  0  0  0  0  0  0  0
    3.8878    0.8250   -3.8626 C   0  0  0  0  0  0  0  0  0  0  0  0
    5.0690    0.4580   -2.6822 S   0  0  0  0  0  0  0  0  0  0  0  0
    3.9152   -0.3830   -1.7633 C   0  0  0  0  0  0  0  0  0  0  0  0
    3.8498   -1.1970   -0.6689 C   0  0  0  0  0  0  0  0  0  0  0  0
    4.8196   -1.6807    0.2154 C   0  0  0  0  0  0  0  0  0  0  0  0
    4.4197   -2.6107    1.2230 C   0  0  0  0  0  0  0  0  0  0  0  0
    5.3872   -3.0687    2.0501 N   0  0  0  0  0  0  0  0  0  0  0  0
    6.6952   -2.2630    1.4281 S   0  0  0  0  0  0  0  0  0  0  0  0
    6.1291   -1.3432    0.1700 N   0  0  0  0  0  0  0  0  0  0  0  0
    3.0659   -2.9817    1.3075 C   0  0  0  0  0  0  0  0  0  0  0  0
    2.3694   -3.5664    2.3223 C   0  0  0  0  0  0  0  0  0  0  0  0
    2.7229   -3.8656    3.9567 S   0  0  0  0  0  0  0  0  0  0  0  0
    1.0769   -3.7313    4.3767 C   0  0  0  0  0  0  0  0  0  0  0  0
    0.4034   -3.6905    5.6001 C   0  0  0  0  0  0  0  0  0  0  0  0
    1.0799   -3.9402    6.9244 C   0  0  0  0  0  0  0  0  0  0  0  0
    0.9751   -5.4101    7.3143 C   0  0  0  0  0  0  0  0  0  0  0  0
   -0.9596   -3.3624    5.4258 C   0  0  0  0  0  0  0  0  0  0  0  0
   -1.2686   -3.1333    3.7596 S   0  0  0  0  0  0  0  0  0  0  0  0
    0.3098   -3.4286    3.2838 C   0  0  0  0  0  0  0  0  0  0  0  0
    1.0479   -3.3045    2.1087 C   0  0  0  0  0  0  0  0  0  0  0  0
    0.8343   -2.5607    0.9860 N   0  0  0  0  0  0  0  0  0  0  0  0
    2.0944   -2.4426    0.4501 C   0  0  0  0  0  0  0  0  0  0  0  0
    2.5121   -1.6243   -0.6159 C   0  0  0  0  0  0  0  0  0  0  0  0
    1.8087   -1.2137   -1.7123 N   0  0  0  0  0  0  0  0  0  0  0  0
    2.6940   -0.4109   -2.3483 C   0  0  0  0  0  0  0  0  0  0  0  0
    2.6767    0.2647   -3.5537 C   0  0  0  0  0  0  0  0  0  0  0  0
    1.5504    0.5790   -4.7519 S   0  0  0  0  0  0  0  0  0  0  0  0
    0.7382   -1.9730   -2.3840 C   0  0  0  0  0  0  0  0  0  0  0  0
    1.3252   -2.9188   -3.4328 C   0  0  0  0  0  0  0  0  0  0  0  0
   -0.2177   -1.5375    0.8837 C   0  0  0  0  0  0  0  0  0  0  0  0
    0.0787   -0.3565    1.8056 C   0  0  0  0  0  0  0  0  0  0  0  0
   -1.9532   -3.3505    6.5272 C   0  0  0  0  0  0  0  0  0  0  0  0
   -3.1221   -2.6747    6.6045 C   0  0  0  0  0  0  0  0  0  0  0  0
   -3.7996   -1.8944    5.5555 C   0  0  0  0  0  0  0  0  0  0  0  0
   -3.2673   -1.2993    4.5833 O   0  0  0  0  0  0  0  0  0  0  0  0
   -5.2051   -1.8049    5.8997 C   0  0  0  0  0  0  0  0  0  0  0  0
   -6.2563   -1.3247    5.1211 C   0  0  0  0  0  0  0  0  0  0  0  0
   -7.5665   -1.4261    5.6142 C   0  0  0  0  0  0  0  0  0  0  0  0
   -8.7204   -0.9227    4.7988 C   0  0  0  0  0  0  0  0  0  0  0  0
   -7.7904   -2.0059    6.8853 C   0  0  0  0  0  0  0  0  0  0  0  0
   -6.7214   -2.4981    7.6468 C   0  0  0  0  0  0  0  0  0  0  0  0
   -5.4177   -2.3629    7.1466 C   0  0  0  0  0  0  0  0  0  0  0  0
   -4.1169   -2.7997    7.7187 C   0  0  0  0  0  0  0  0  0  0  0  0
   -3.8346   -2.9729    9.0342 C   0  0  0  0  0  0  0  0  0  0  0  0
   -2.4872   -3.1119    9.5245 C   0  0  0  0  0  0  0  0  0  0  0  0
   -1.4119   -3.2238    9.9347 N   0  0  0  0  0  0  0  0  0  0  0  0
   -4.8445   -2.8882   10.0598 C   0  0  0  0  0  0  0  0  0  0  0  0
   -5.6396   -2.8158   10.8950 N   0  0  0  0  0  0  0  0  0  0  0  0
    1.9325    1.3897   -7.7453 H   0  0  0  0  0  0  0  0  0  0  0  0
    2.0541    7.0096   -5.0047 H   0  0  0  0  0  0  0  0  0  0  0  0
    1.2675    8.9873   -6.3093 H   0  0  0  0  0  0  0  0  0  0  0  0
    0.8884    6.5675   -9.8332 H   0  0  0  0  0  0  0  0  0  0  0  0
    4.8947    2.9361   -6.3662 H   0  0  0  0  0  0  0  0  0  0  0  0
    5.7942    2.5381   -4.8765 H   0  0  0  0  0  0  0  0  0  0  0  0
    6.3028    0.2584   -5.7340 H   0  0  0  0  0  0  0  0  0  0  0  0
    6.8452    1.5160   -6.9040 H   0  0  0  0  0  0  0  0  0  0  0  0
    5.3326    0.5906   -7.2307 H   0  0  0  0  0  0  0  0  0  0  0  0
    0.6188   -3.3079    7.7107 H   0  0  0  0  0  0  0  0  0  0  0  0
    2.1527   -3.6490    6.8662 H   0  0  0  0  0  0  0  0  0  0  0  0
   -0.0772   -5.6854    7.5050 H   0  0  0  0  0  0  0  0  0  0  0  0
    1.5608   -5.5815    8.2395 H   0  0  0  0  0  0  0  0  0  0  0  0
    1.3871   -6.0553    6.5086 H   0  0  0  0  0  0  0  0  0  0  0  0
    0.0202   -1.2751   -2.8619 H   0  0  0  0  0  0  0  0  0  0  0  0
    0.1855   -2.6021   -1.6605 H   0  0  0  0  0  0  0  0  0  0  0  0
    1.7178   -2.3538   -4.2945 H   0  0  0  0  0  0  0  0  0  0  0  0
    0.5313   -3.6028   -3.8163 H   0  0  0  0  0  0  0  0  0  0  0  0
    2.1383   -3.5254   -2.9886 H   0  0  0  0  0  0  0  0  0  0  0  0
   -0.3095   -1.1350   -0.1380 H   0  0  0  0  0  0  0  0  0  0  0  0
   -1.2024   -1.9823    1.1383 H   0  0  0  0  0  0  0  0  0  0  0  0
    1.0188    0.1426    1.4751 H   0  0  0  0  0  0  0  0  0  0  0  0
   -0.7585    0.3746    1.7353 H   0  0  0  0  0  0  0  0  0  0  0  0
    0.1832   -0.6808    2.8577 H   0  0  0  0  0  0  0  0  0  0  0  0
   -1.6931   -3.9914    7.3469 H   0  0  0  0  0  0  0  0  0  0  0  0
   -6.0698   -0.8918    4.1441 H   0  0  0  0  0  0  0  0  0  0  0  0
   -8.7870    0.1794    4.8917 H   0  0  0  0  0  0  0  0  0  0  0  0
   -9.6844   -1.3736    5.1317 H   0  0  0  0  0  0  0  0  0  0  0  0
   -8.5702   -1.1871    3.7302 H   0  0  0  0  0  0  0  0  0  0  0  0
   -8.7934   -2.0977    7.2790 H   0  0  0  0  0  0  0  0  0  0  0  0
   -6.9182   -2.9879    8.5864 H   0  0  0  0  0  0  0  0  0  0  0  0
  1  2  2  3
  2  3  1  0
  3  4  2  0
  3  5  1  0
  5  6  2  0
  6  7  1  0
  7  8  2  0
  8  9  1  0
  8 10  1  0
 10 11  2  0
 11 12  1  0
 12 13  2  3
 13 14  1  0
 14 15  3  0
 13 16  1  0
 16 17  3  0
  1 18  1  0
 18 19  2  0
 19 20  1  0
 20 21  1  0
 19 22  1  0
 22 23  1  0
 23 24  1  0
 24 25  1  0
 25 26  1  0
 26 27  1  0
 27 28  2  0
 28 29  1  0
 29 30  1  0
 27 31  1  0
 31 32  1  0
 32 33  1  0
 33 34  1  0
 34 35  1  0
 35 36  1  0
 36 37  1  0
 35 38  2  0
 38 39  1  0
 39 40  1  0
 40 41  1  0
 41 42  1  0
 42 43  1  0
 43 44  1  0
 44 45  1  0
 45 46  1  0
 46 47  1  0
 47 48  1  0
 45 49  1  0
 49 50  1  0
 42 51  1  0
 51 52  1  0
 38 53  1  0
 53 54  2  3
 54 55  1  0
 55 56  2  0
 55 57  1  0
 57 58  2  0
 58 59  1  0
 59 60  1  0
 59 61  2  0
 61 62  1  0
 62 63  2  0
 63 64  1  0
 64 65  2  3
 65 66  1  0
 66 67  3  0
 65 68  1  0
 68 69  3  0
 12  2  1  0
 48 18  1  0
 64 54  1  0
 11  5  1  0
 47 22  2  0
 63 57  1  0
 46 24  2  0
 44 25  2  0
 30 26  2  0
 43 31  2  0
 41 32  2  0
 40 34  2  0
  1 70  1  0
  6 71  1  0
  7 72  1  0
 10 73  1  0
 20 74  1  0
 20 75  1  0
 21 76  1  0
 21 77  1  0
 21 78  1  0
 36 79  1  0
 36 80  1  0
 37 81  1  0
 37 82  1  0
 37 83  1  0
 49 84  1  0
 49 85  1  0
 50 86  1  0
 50 87  1  0
 50 88  1  0
 51 89  1  0
 51 90  1  0
 52 91  1  0
 52 92  1  0
 52 93  1  0
 53 94  1  0
 58 95  1  0
 60 96  1  0
 60 97  1  0
 60 98  1  0
 61 99  1  0
 62100  1  0
M  END

