
     RDKit          3D

 93104  0  0  0  0  0  0  0  0999 V2000
   -3.2177    6.5794    0.9813 C   0  0  0  0  0  0  0  0  0  0  0  0
   -2.2966    7.4892    0.6194 C   0  0  0  0  0  0  0  0  0  0  0  0
   -2.0285    8.6874    1.4102 C   0  0  0  0  0  0  0  0  0  0  0  0
   -2.7742    9.1747    2.3014 O   0  0  0  0  0  0  0  0  0  0  0  0
   -0.7274    9.1916    1.0307 C   0  0  0  0  0  0  0  0  0  0  0  0
   -0.0347   10.2841    1.5543 C   0  0  0  0  0  0  0  0  0  0  0  0
    1.2154   10.6056    1.0091 C   0  0  0  0  0  0  0  0  0  0  0  0
    1.7607    9.8189   -0.0212 C   0  0  0  0  0  0  0  0  0  0  0  0
    2.9667   10.1463   -0.5557 F   0  0  0  0  0  0  0  0  0  0  0  0
    1.0558    8.7135   -0.5232 C   0  0  0  0  0  0  0  0  0  0  0  0
   -0.2124    8.4158    0.0046 C   0  0  0  0  0  0  0  0  0  0  0  0
   -1.2148    7.3942   -0.4005 C   0  0  0  0  0  0  0  0  0  0  0  0
   -1.3263    6.8352   -1.6312 C   0  0  0  0  0  0  0  0  0  0  0  0
   -2.5885    6.3465   -2.1168 C   0  0  0  0  0  0  0  0  0  0  0  0
   -3.6028    5.9636   -2.5216 N   0  0  0  0  0  0  0  0  0  0  0  0
   -0.2609    6.8350   -2.5985 C   0  0  0  0  0  0  0  0  0  0  0  0
    0.5899    6.8227   -3.3799 N   0  0  0  0  0  0  0  0  0  0  0  0
   -3.2058    5.1663    0.5608 C   0  0  0  0  0  0  0  0  0  0  0  0
   -4.3497    4.3848    0.3118 C   0  0  0  0  0  0  0  0  0  0  0  0
   -5.7679    4.8582    0.4558 C   0  0  0  0  0  0  0  0  0  0  0  0
   -6.2777    4.6173    1.8719 C   0  0  0  0  0  0  0  0  0  0  0  0
   -3.9948    3.0659    0.0269 C   0  0  0  0  0  0  0  0  0  0  0  0
   -4.9045    1.6487   -0.2275 S   0  0  0  0  0  0  0  0  0  0  0  0
   -3.4863    0.7233   -0.3257 C   0  0  0  0  0  0  0  0  0  0  0  0
   -3.1523   -0.5860   -0.1354 C   0  0  0  0  0  0  0  0  0  0  0  0
   -3.9587   -1.7090    0.0784 C   0  0  0  0  0  0  0  0  0  0  0  0
   -3.3467   -2.9154    0.5232 C   0  0  0  0  0  0  0  0  0  0  0  0
   -4.1609   -3.9904    0.6989 N   0  0  0  0  0  0  0  0  0  0  0  0
   -5.6154   -3.3101    0.2922 S   0  0  0  0  0  0  0  0  0  0  0  0
   -5.3045   -1.7298   -0.0990 N   0  0  0  0  0  0  0  0  0  0  0  0
   -1.9610   -2.9397    0.7069 C   0  0  0  0  0  0  0  0  0  0  0  0
   -1.1127   -3.9920    0.8794 C   0  0  0  0  0  0  0  0  0  0  0  0
   -1.2274   -5.6824    0.9244 S   0  0  0  0  0  0  0  0  0  0  0  0
    0.4469   -5.8224    0.6453 C   0  0  0  0  0  0  0  0  0  0  0  0
    1.2966   -6.9190    0.4897 C   0  0  0  0  0  0  0  0  0  0  0  0
    0.8786   -8.3426    0.7358 C   0  0  0  0  0  0  0  0  0  0  0  0
    1.0270   -8.6986    2.2116 C   0  0  0  0  0  0  0  0  0  0  0  0
    2.6021   -6.5042    0.1585 C   0  0  0  0  0  0  0  0  0  0  0  0
    2.6585   -4.7989    0.1031 S   0  0  0  0  0  0  0  0  0  0  0  0
    1.0381   -4.5946    0.4699 C   0  0  0  0  0  0  0  0  0  0  0  0
    0.1433   -3.5413    0.6322 C   0  0  0  0  0  0  0  0  0  0  0  0
    0.1772   -2.2137    0.3377 N   0  0  0  0  0  0  0  0  0  0  0  0
   -1.1414   -1.8289    0.4401 C   0  0  0  0  0  0  0  0  0  0  0  0
   -1.7656   -0.5962    0.0972 C   0  0  0  0  0  0  0  0  0  0  0  0
   -1.2833    0.6887    0.1883 N   0  0  0  0  0  0  0  0  0  0  0  0
   -2.3596    1.4557   -0.1297 C   0  0  0  0  0  0  0  0  0  0  0  0
   -2.6493    2.8007    0.0703 C   0  0  0  0  0  0  0  0  0  0  0  0
   -1.8049    4.1894    0.4832 S   0  0  0  0  0  0  0  0  0  0  0  0
   -0.2027    1.1581    1.0614 C   0  0  0  0  0  0  0  0  0  0  0  0
   -0.6220    1.0981    2.5278 C   0  0  0  0  0  0  0  0  0  0  0  0
    1.2449   -1.5643   -0.4332 C   0  0  0  0  0  0  0  0  0  0  0  0
    2.4652   -1.2788    0.4429 C   0  0  0  0  0  0  0  0  0  0  0  0
    3.7776   -7.3946    0.1032 C   0  0  0  0  0  0  0  0  0  0  0  0
    4.8051   -7.2551   -0.7467 C   0  0  0  0  0  0  0  0  0  0  0  0
    6.0282   -8.0649   -0.7226 C   0  0  0  0  0  0  0  0  0  0  0  0
    6.2912   -8.9876    0.0955 O   0  0  0  0  0  0  0  0  0  0  0  0
    6.8881   -7.6294   -1.8140 C   0  0  0  0  0  0  0  0  0  0  0  0
    8.1414   -8.1023   -2.1944 C   0  0  0  0  0  0  0  0  0  0  0  0
    8.7732   -7.5152   -3.3041 C   0  0  0  0  0  0  0  0  0  0  0  0
   10.3643   -8.0941   -3.7808 Cl  0  0  0  0  0  0  0  0  0  0  0  0
    8.1314   -6.4748   -4.0180 C   0  0  0  0  0  0  0  0  0  0  0  0
    8.9008   -5.7187   -5.4032 Cl  0  0  0  0  0  0  0  0  0  0  0  0
    6.8561   -6.0279   -3.6247 C   0  0  0  0  0  0  0  0  0  0  0  0
    6.2590   -6.6200   -2.5131 C   0  0  0  0  0  0  0  0  0  0  0  0
    4.9551   -6.3603   -1.9096 C   0  0  0  0  0  0  0  0  0  0  0  0
    4.0832   -5.5834   -2.3792 O   0  0  0  0  0  0  0  0  0  0  0  0
   -3.9495    6.8579    1.7376 H   0  0  0  0  0  0  0  0  0  0  0  0
   -0.4568   10.8803    2.3508 H   0  0  0  0  0  0  0  0  0  0  0  0
    1.7682   11.4575    1.3902 H   0  0  0  0  0  0  0  0  0  0  0  0
    1.5137    8.1194   -1.2948 H   0  0  0  0  0  0  0  0  0  0  0  0
   -5.8426    5.9412    0.2158 H   0  0  0  0  0  0  0  0  0  0  0  0
   -6.4160    4.3120   -0.2589 H   0  0  0  0  0  0  0  0  0  0  0  0
   -7.3273    4.9618    1.9608 H   0  0  0  0  0  0  0  0  0  0  0  0
   -6.2406    3.5362    2.1130 H   0  0  0  0  0  0  0  0  0  0  0  0
   -5.6611    5.1698    2.6089 H   0  0  0  0  0  0  0  0  0  0  0  0
    1.4908   -9.0368    0.1215 H   0  0  0  0  0  0  0  0  0  0  0  0
   -0.1790   -8.4784    0.4342 H   0  0  0  0  0  0  0  0  0  0  0  0
    0.7044   -9.7461    2.3761 H   0  0  0  0  0  0  0  0  0  0  0  0
    0.3949   -8.0296    2.8371 H   0  0  0  0  0  0  0  0  0  0  0  0
    2.0838   -8.5999    2.5304 H   0  0  0  0  0  0  0  0  0  0  0  0
    0.7067    0.5753    0.9314 H   0  0  0  0  0  0  0  0  0  0  0  0
    0.0781    2.1959    0.8000 H   0  0  0  0  0  0  0  0  0  0  0  0
   -1.5313    1.7091    2.6905 H   0  0  0  0  0  0  0  0  0  0  0  0
   -0.8349    0.0498    2.8207 H   0  0  0  0  0  0  0  0  0  0  0  0
    0.1971    1.4827    3.1703 H   0  0  0  0  0  0  0  0  0  0  0  0
    0.8821   -0.6307   -0.9099 H   0  0  0  0  0  0  0  0  0  0  0  0
    1.5486   -2.2250   -1.2722 H   0  0  0  0  0  0  0  0  0  0  0  0
    3.1304   -2.1641    0.5074 H   0  0  0  0  0  0  0  0  0  0  0  0
    2.1578   -1.0077    1.4756 H   0  0  0  0  0  0  0  0  0  0  0  0
    3.0541   -0.4447    0.0084 H   0  0  0  0  0  0  0  0  0  0  0  0
    3.8132   -8.2139    0.8105 H   0  0  0  0  0  0  0  0  0  0  0  0
    8.6153   -8.9022   -1.6480 H   0  0  0  0  0  0  0  0  0  0  0  0
    6.3525   -5.2372   -4.1665 H   0  0  0  0  0  0  0  0  0  0  0  0
  1  2  2  3
  2  3  1  0
  3  4  2  0
  3  5  1  0
  5  6  2  0
  6  7  1  0
  7  8  2  0
  8  9  1  0
  8 10  1  0
 10 11  2  0
 11 12  1  0
 12 13  2  3
 13 14  1  0
 14 15  3  0
 13 16  1  0
 16 17  3  0
  1 18  1  0
 18 19  2  0
 19 20  1  0
 20 21  1  0
 19 22  1  0
 22 23  1  0
 23 24  1  0
 24 25  1  0
 25 26  1  0
 26 27  1  0
 27 28  2  0
 28 29  1  0
 29 30  1  0
 27 31  1  0
 31 32  1  0
 32 33  1  0
 33 34  1  0
 34 35  1  0
 35 36  1  0
 36 37  1  0
 35 38  2  0
 38 39  1  0
 39 40  1  0
 40 41  1  0
 41 42  1  0
 42 43  1  0
 43 44  1  0
 44 45  1  0
 45 46  1  0
 46 47  1  0
 47 48  1  0
 45 49  1  0
 49 50  1  0
 42 51  1  0
 51 52  1  0
 38 53  1  0
 53 54  2  3
 54 55  1  0
 55 56  2  0
 55 57  1  0
 57 58  2  0
 58 59  1  0
 59 60  1  0
 59 61  2  0
 61 62  1  0
 61 63  1  0
 63 64  2  0
 64 65  1  0
 65 66  2  0
 12  2  1  0
 48 18  1  0
 65 54  1  0
 11  5  1  0
 47 22  2  0
 64 57  1  0
 46 24  2  0
 44 25  2  0
 30 26  2  0
 43 31  2  0
 41 32  2  0
 40 34  2  0
  1 67  1  0
  6 68  1  0
  7 69  1  0
 10 70  1  0
 20 71  1  0
 20 72  1  0
 21 73  1  0
 21 74  1  0
 21 75  1  0
 36 76  1  0
 36 77  1  0
 37 78  1  0
 37 79  1  0
 37 80  1  0
 49 81  1  0
 49 82  1  0
 50 83  1  0
 50 84  1  0
 50 85  1  0
 51 86  1  0
 51 87  1  0
 52 88  1  0
 52 89  1  0
 52 90  1  0
 53 91  1  0
 58 92  1  0
 63 93  1  0
M  END

