
     RDKit          3D

 83 92  0  0  0  0  0  0  0  0999 V2000
   -1.6941   -4.4957   -3.4218 C   0  0  0  0  0  0  0  0  0  0  0  0
   -2.9825   -4.1212   -3.2995 C   0  0  0  0  0  0  0  0  0  0  0  0
   -3.4881   -2.9828   -2.5179 C   0  0  0  0  0  0  0  0  0  0  0  0
   -2.8312   -1.9765   -2.1391 O   0  0  0  0  0  0  0  0  0  0  0  0
   -4.9069   -3.1719   -2.3098 C   0  0  0  0  0  0  0  0  0  0  0  0
   -5.7727   -2.4152   -1.5171 C   0  0  0  0  0  0  0  0  0  0  0  0
   -7.1024   -2.8381   -1.3912 C   0  0  0  0  0  0  0  0  0  0  0  0
   -7.5377   -4.0079   -2.0390 C   0  0  0  0  0  0  0  0  0  0  0  0
   -8.8193   -4.4253   -1.8847 F   0  0  0  0  0  0  0  0  0  0  0  0
   -6.6494   -4.7548   -2.8324 C   0  0  0  0  0  0  0  0  0  0  0  0
   -5.3263   -4.3057   -2.9846 C   0  0  0  0  0  0  0  0  0  0  0  0
   -4.1878   -4.8803   -3.7542 C   0  0  0  0  0  0  0  0  0  0  0  0
   -4.2764   -5.7019   -4.8324 C   0  0  0  0  0  0  0  0  0  0  0  0
   -5.5284   -6.2440   -5.2906 C   0  0  0  0  0  0  0  0  0  0  0  0
   -6.5300   -6.6824   -5.6735 N   0  0  0  0  0  0  0  0  0  0  0  0
   -3.1544   -5.9596   -5.6971 C   0  0  0  0  0  0  0  0  0  0  0  0
   -2.2578   -6.1651   -6.4014 N   0  0  0  0  0  0  0  0  0  0  0  0
   -0.5648   -3.7720   -2.8126 C   0  0  0  0  0  0  0  0  0  0  0  0
    0.5702   -3.3120   -3.5023 C   0  0  0  0  0  0  0  0  0  0  0  0
    0.7346   -3.3441   -4.9970 C   0  0  0  0  0  0  0  0  0  0  0  0
    0.1227   -2.0989   -5.6334 C   0  0  0  0  0  0  0  0  0  0  0  0
    1.4552   -2.6705   -2.6317 C   0  0  0  0  0  0  0  0  0  0  0  0
    2.8163   -1.6832   -2.8950 S   0  0  0  0  0  0  0  0  0  0  0  0
    2.9018   -1.3092   -1.2420 C   0  0  0  0  0  0  0  0  0  0  0  0
    3.4074   -0.2836   -0.5026 C   0  0  0  0  0  0  0  0  0  0  0  0
    4.1900    0.7988   -0.9176 C   0  0  0  0  0  0  0  0  0  0  0  0
    4.3303    1.9139   -0.0496 C   0  0  0  0  0  0  0  0  0  0  0  0
    5.0617    2.9628   -0.5023 N   0  0  0  0  0  0  0  0  0  0  0  0
    5.4738    2.3870   -1.9992 S   0  0  0  0  0  0  0  0  0  0  0  0
    4.7890    0.8848   -2.1315 N   0  0  0  0  0  0  0  0  0  0  0  0
    3.7118    1.8700    1.1992 C   0  0  0  0  0  0  0  0  0  0  0  0
    3.7068    2.7759    2.2158 C   0  0  0  0  0  0  0  0  0  0  0  0
    4.2517    4.3471    2.5512 S   0  0  0  0  0  0  0  0  0  0  0  0
    3.5529    4.2745    4.1104 C   0  0  0  0  0  0  0  0  0  0  0  0
    3.3760    5.2199    5.1259 C   0  0  0  0  0  0  0  0  0  0  0  0
    3.7816    6.6623    4.9903 C   0  0  0  0  0  0  0  0  0  0  0  0
    2.7062    7.4581    4.2578 C   0  0  0  0  0  0  0  0  0  0  0  0
    2.5797    4.6916    6.1661 C   0  0  0  0  0  0  0  0  0  0  0  0
    2.0921    3.1053    5.7778 S   0  0  0  0  0  0  0  0  0  0  0  0
    2.9352    3.0691    4.3287 C   0  0  0  0  0  0  0  0  0  0  0  0
    3.0256    2.2189    3.2378 C   0  0  0  0  0  0  0  0  0  0  0  0
    2.5782    0.9675    2.9652 N   0  0  0  0  0  0  0  0  0  0  0  0
    2.9533    0.7684    1.6503 C   0  0  0  0  0  0  0  0  0  0  0  0
    2.7248   -0.3128    0.7340 C   0  0  0  0  0  0  0  0  0  0  0  0
    1.7540   -1.2949    0.7041 N   0  0  0  0  0  0  0  0  0  0  0  0
    1.9091   -1.8762   -0.5150 C   0  0  0  0  0  0  0  0  0  0  0  0
    1.0743   -2.6566   -1.3129 C   0  0  0  0  0  0  0  0  0  0  0  0
   -0.4108   -3.4250   -1.1495 S   0  0  0  0  0  0  0  0  0  0  0  0
    0.5818   -1.4977    1.5636 C   0  0  0  0  0  0  0  0  0  0  0  0
   -0.3692   -0.3047    1.5020 C   0  0  0  0  0  0  0  0  0  0  0  0
    2.1991    0.0089    4.0113 C   0  0  0  0  0  0  0  0  0  0  0  0
    3.1284   -1.2067    4.0343 C   0  0  0  0  0  0  0  0  0  0  0  0
    2.0381    5.4297    7.3191 C   0  0  0  0  0  0  0  0  0  0  0  0
    2.7989    5.9434    8.2970 C   0  0  0  0  0  0  0  0  0  0  0  0
    2.1714    6.6357    9.3917 C   0  0  0  0  0  0  0  0  0  0  0  0
    1.6635    7.1939   10.2703 N   0  0  0  0  0  0  0  0  0  0  0  0
    4.2317    5.7671    8.3394 C   0  0  0  0  0  0  0  0  0  0  0  0
    5.3809    5.6296    8.3830 N   0  0  0  0  0  0  0  0  0  0  0  0
   -1.4336   -5.3945   -3.9545 H   0  0  0  0  0  0  0  0  0  0  0  0
   -5.4197   -1.5346   -0.9958 H   0  0  0  0  0  0  0  0  0  0  0  0
   -7.7905   -2.2734   -0.7760 H   0  0  0  0  0  0  0  0  0  0  0  0
   -6.9987   -5.6719   -3.2771 H   0  0  0  0  0  0  0  0  0  0  0  0
    0.2489   -4.2521   -5.4153 H   0  0  0  0  0  0  0  0  0  0  0  0
    1.8151   -3.3988   -5.2530 H   0  0  0  0  0  0  0  0  0  0  0  0
   -0.9428   -1.9928   -5.3378 H   0  0  0  0  0  0  0  0  0  0  0  0
    0.1845   -2.1751   -6.7385 H   0  0  0  0  0  0  0  0  0  0  0  0
    0.6841   -1.1948   -5.3135 H   0  0  0  0  0  0  0  0  0  0  0  0
    4.7361    6.7269    4.4254 H   0  0  0  0  0  0  0  0  0  0  0  0
    3.9551    7.1153    5.9876 H   0  0  0  0  0  0  0  0  0  0  0  0
    2.5496    7.0476    3.2367 H   0  0  0  0  0  0  0  0  0  0  0  0
    3.0228    8.5187    4.1714 H   0  0  0  0  0  0  0  0  0  0  0  0
    1.7480    7.4188    4.8187 H   0  0  0  0  0  0  0  0  0  0  0  0
    0.0210   -2.3963    1.2528 H   0  0  0  0  0  0  0  0  0  0  0  0
    0.8857   -1.7637    2.5822 H   0  0  0  0  0  0  0  0  0  0  0  0
   -0.7434   -0.1754    0.4653 H   0  0  0  0  0  0  0  0  0  0  0  0
   -1.2363   -0.4840    2.1713 H   0  0  0  0  0  0  0  0  0  0  0  0
    0.1360    0.6284    1.8211 H   0  0  0  0  0  0  0  0  0  0  0  0
    2.3021    0.4768    5.0096 H   0  0  0  0  0  0  0  0  0  0  0  0
    1.1262   -0.2360    3.9508 H   0  0  0  0  0  0  0  0  0  0  0  0
    3.1273   -1.7477    3.0682 H   0  0  0  0  0  0  0  0  0  0  0  0
    4.1674   -0.8774    4.2505 H   0  0  0  0  0  0  0  0  0  0  0  0
    2.8018   -1.9069    4.8326 H   0  0  0  0  0  0  0  0  0  0  0  0
    0.9577    5.4950    7.3958 H   0  0  0  0  0  0  0  0  0  0  0  0
  1  2  2  3
  2  3  1  0
  3  4  2  0
  3  5  1  0
  5  6  2  0
  6  7  1  0
  7  8  2  0
  8  9  1  0
  8 10  1  0
 10 11  2  0
 11 12  1  0
 12 13  2  3
 13 14  1  0
 14 15  3  0
 13 16  1  0
 16 17  3  0
  1 18  1  0
 18 19  2  0
 19 20  1  0
 20 21  1  0
 19 22  1  0
 22 23  1  0
 23 24  1  0
 24 25  1  0
 25 26  1  0
 26 27  1  0
 27 28  2  0
 28 29  1  0
 29 30  1  0
 27 31  1  0
 31 32  1  0
 32 33  1  0
 33 34  1  0
 34 35  1  0
 35 36  1  0
 36 37  1  0
 35 38  2  0
 38 39  1  0
 39 40  1  0
 40 41  1  0
 41 42  1  0
 42 43  1  0
 43 44  1  0
 44 45  1  0
 45 46  1  0
 46 47  1  0
 47 48  1  0
 45 49  1  0
 49 50  1  0
 42 51  1  0
 51 52  1  0
 38 53  1  0
 53 54  2  3
 54 55  1  0
 55 56  3  0
 54 57  1  0
 57 58  3  0
 12  2  1  0
 48 18  1  0
 11  5  1  0
 47 22  2  0
 46 24  2  0
 44 25  2  0
 30 26  2  0
 43 31  2  0
 41 32  2  0
 40 34  2  0
  1 59  1  0
  6 60  1  0
  7 61  1  0
 10 62  1  0
 20 63  1  0
 20 64  1  0
 21 65  1  0
 21 66  1  0
 21 67  1  0
 36 68  1  0
 36 69  1  0
 37 70  1  0
 37 71  1  0
 37 72  1  0
 49 73  1  0
 49 74  1  0
 50 75  1  0
 50 76  1  0
 50 77  1  0
 51 78  1  0
 51 79  1  0
 52 80  1  0
 52 81  1  0
 52 82  1  0
 53 83  1  0
M  END

