
     RDKit          3D

154170  0  0  0  0  0  0  0  0999 V2000
   -6.1599   -5.7493   -4.5974 C   0  0  0  0  0  0  0  0  0  0  0  0
   -6.6808   -5.6690   -5.8342 C   0  0  0  0  0  0  0  0  0  0  0  0
   -6.7009   -4.4597   -6.6648 C   0  0  0  0  0  0  0  0  0  0  0  0
   -6.4691   -3.2819   -6.2768 O   0  0  0  0  0  0  0  0  0  0  0  0
   -7.0256   -4.8440   -8.0190 C   0  0  0  0  0  0  0  0  0  0  0  0
   -7.1425   -4.0185   -9.1417 C   0  0  0  0  0  0  0  0  0  0  0  0
   -7.4757   -4.6053  -10.3668 C   0  0  0  0  0  0  0  0  0  0  0  0
   -7.6615   -5.9966  -10.4590 C   0  0  0  0  0  0  0  0  0  0  0  0
   -7.9776   -6.5531  -11.6525 F   0  0  0  0  0  0  0  0  0  0  0  0
   -7.5466   -6.8071   -9.3172 C   0  0  0  0  0  0  0  0  0  0  0  0
   -7.2357   -6.2128   -8.0820 C   0  0  0  0  0  0  0  0  0  0  0  0
   -7.1113   -6.8045   -6.7118 C   0  0  0  0  0  0  0  0  0  0  0  0
   -7.4830   -8.0482   -6.3148 C   0  0  0  0  0  0  0  0  0  0  0  0
   -7.6358   -8.4017   -4.9274 C   0  0  0  0  0  0  0  0  0  0  0  0
   -7.7711   -8.6916   -3.8150 N   0  0  0  0  0  0  0  0  0  0  0  0
   -7.8176   -9.0980   -7.2414 C   0  0  0  0  0  0  0  0  0  0  0  0
   -8.0806   -9.9604   -7.9721 N   0  0  0  0  0  0  0  0  0  0  0  0
   -5.5077   -4.6172   -3.9328 C   0  0  0  0  0  0  0  0  0  0  0  0
   -3.8422   -4.2768   -4.1268 S   0  0  0  0  0  0  0  0  0  0  0  0
   -3.8836   -3.1089   -2.9398 C   0  0  0  0  0  0  0  0  0  0  0  0
   -3.0039   -2.4785   -2.1231 C   0  0  0  0  0  0  0  0  0  0  0  0
   -1.3352   -2.3768   -1.9360 S   0  0  0  0  0  0  0  0  0  0  0  0
   -1.5968   -1.5908   -0.4517 C   0  0  0  0  0  0  0  0  0  0  0  0
   -0.7262   -1.0766    0.5476 C   0  0  0  0  0  0  0  0  0  0  0  0
    0.6650   -1.1065    0.5874 C   0  0  0  0  0  0  0  0  0  0  0  0
    1.2784   -0.5691    1.7203 C   0  0  0  0  0  0  0  0  0  0  0  0
    2.7644   -0.3293    1.9241 C   0  0  0  0  0  0  0  0  0  0  0  0
    3.5944   -1.6147    2.0428 C   0  0  0  0  0  0  0  0  0  0  0  0
    2.9949   -2.8776    2.2413 C   0  0  0  0  0  0  0  0  0  0  0  0
    3.7788   -4.0245    2.3894 C   0  0  0  0  0  0  0  0  0  0  0  0
    5.1763   -3.9423    2.3729 C   0  0  0  0  0  0  0  0  0  0  0  0
    6.0162   -5.1835    2.5151 C   0  0  0  0  0  0  0  0  0  0  0  0
    6.3030   -5.8057    1.1539 C   0  0  0  0  0  0  0  0  0  0  0  0
    5.7846   -2.6924    2.1854 C   0  0  0  0  0  0  0  0  0  0  0  0
    5.0029   -1.5418    2.0351 C   0  0  0  0  0  0  0  0  0  0  0  0
    3.2175    0.6186    0.7997 C   0  0  0  0  0  0  0  0  0  0  0  0
    3.7668    0.1060   -0.3934 C   0  0  0  0  0  0  0  0  0  0  0  0
    4.0778    0.9520   -1.4614 C   0  0  0  0  0  0  0  0  0  0  0  0
    3.8042    2.3254   -1.3795 C   0  0  0  0  0  0  0  0  0  0  0  0
    4.2136    3.2537   -2.4914 C   0  0  0  0  0  0  0  0  0  0  0  0
    5.6330    3.7622   -2.2533 C   0  0  0  0  0  0  0  0  0  0  0  0
    3.2126    2.8404   -0.2206 C   0  0  0  0  0  0  0  0  0  0  0  0
    2.9070    1.9964    0.8463 C   0  0  0  0  0  0  0  0  0  0  0  0
    2.7095    0.3397    3.2851 C   0  0  0  0  0  0  0  0  0  0  0  0
    1.4216    0.4853    3.7438 C   0  0  0  0  0  0  0  0  0  0  0  0
    0.5105   -0.0575    2.7666 C   0  0  0  0  0  0  0  0  0  0  0  0
   -0.8891   -0.0437    2.7333 C   0  0  0  0  0  0  0  0  0  0  0  0
   -1.5127   -0.5588    1.5751 C   0  0  0  0  0  0  0  0  0  0  0  0
   -3.0178   -0.7267    1.2793 C   0  0  0  0  0  0  0  0  0  0  0  0
   -3.6550   -1.6433    2.3384 C   0  0  0  0  0  0  0  0  0  0  0  0
   -4.9049   -1.3566    2.9342 C   0  0  0  0  0  0  0  0  0  0  0  0
   -5.4265   -2.1822    3.9362 C   0  0  0  0  0  0  0  0  0  0  0  0
   -4.7334   -3.3275    4.3465 C   0  0  0  0  0  0  0  0  0  0  0  0
   -5.2600   -4.1712    5.4733 C   0  0  0  0  0  0  0  0  0  0  0  0
   -4.7836   -3.6274    6.8207 C   0  0  0  0  0  0  0  0  0  0  0  0
   -3.5108   -3.6397    3.7437 C   0  0  0  0  0  0  0  0  0  0  0  0
   -2.9842   -2.8200    2.7433 C   0  0  0  0  0  0  0  0  0  0  0  0
   -3.6421    0.6822    1.1764 C   0  0  0  0  0  0  0  0  0  0  0  0
   -4.0041    1.2646   -0.0608 C   0  0  0  0  0  0  0  0  0  0  0  0
   -4.4870    2.5746   -0.1298 C   0  0  0  0  0  0  0  0  0  0  0  0
   -4.6006    3.3494    1.0308 C   0  0  0  0  0  0  0  0  0  0  0  0
   -5.1013    4.7697    0.9556 C   0  0  0  0  0  0  0  0  0  0  0  0
   -6.6044    4.8320    1.2232 C   0  0  0  0  0  0  0  0  0  0  0  0
   -4.2471    2.7941    2.2654 C   0  0  0  0  0  0  0  0  0  0  0  0
   -3.7703    1.4825    2.3338 C   0  0  0  0  0  0  0  0  0  0  0  0
   -2.9082   -1.4468   -0.0743 C   0  0  0  0  0  0  0  0  0  0  0  0
   -3.7300   -1.9910   -1.0689 C   0  0  0  0  0  0  0  0  0  0  0  0
   -5.0541   -2.2864   -1.1929 N   0  0  0  0  0  0  0  0  0  0  0  0
   -5.1011   -3.0017   -2.3521 C   0  0  0  0  0  0  0  0  0  0  0  0
   -6.0651   -3.8564   -2.8889 C   0  0  0  0  0  0  0  0  0  0  0  0
   -6.1263   -2.1181   -0.2175 C   0  0  0  0  0  0  0  0  0  0  0  0
   -6.2796   -3.3775    0.6292 C   0  0  0  0  0  0  0  0  0  0  0  0
    1.2772    1.8034    4.8097 S   0  0  0  0  0  0  0  0  0  0  0  0
    2.9409    2.1036    4.7565 C   0  0  0  0  0  0  0  0  0  0  0  0
    3.6990    3.2063    5.1406 C   0  0  0  0  0  0  0  0  0  0  0  0
    4.9619    3.1929    4.5362 C   0  0  0  0  0  0  0  0  0  0  0  0
    5.1160    1.7937    3.5663 S   0  0  0  0  0  0  0  0  0  0  0  0
    3.5691    1.2389    3.9055 C   0  0  0  0  0  0  0  0  0  0  0  0
    5.9818    4.2353    4.7784 C   0  0  0  0  0  0  0  0  0  0  0  0
    6.9376    4.6666    3.9275 C   0  0  0  0  0  0  0  0  0  0  0  0
    6.9664    4.4794    2.4676 C   0  0  0  0  0  0  0  0  0  0  0  0
    6.2754    3.6753    1.7888 O   0  0  0  0  0  0  0  0  0  0  0  0
    7.8296    5.4820    1.8881 C   0  0  0  0  0  0  0  0  0  0  0  0
    8.0480    5.7334    0.5332 C   0  0  0  0  0  0  0  0  0  0  0  0
    8.7865    6.8704    0.1688 C   0  0  0  0  0  0  0  0  0  0  0  0
    8.9676    7.1954   -1.1830 C   0  0  0  0  0  0  0  0  0  0  0  0
    9.6538    8.3590   -1.5398 C   0  0  0  0  0  0  0  0  0  0  0  0
    9.7533    8.7013   -2.8446 F   0  0  0  0  0  0  0  0  0  0  0  0
   10.1778    9.1951   -0.5511 C   0  0  0  0  0  0  0  0  0  0  0  0
   10.8388   10.3253   -0.9019 F   0  0  0  0  0  0  0  0  0  0  0  0
   10.0147    8.8764    0.8031 C   0  0  0  0  0  0  0  0  0  0  0  0
    9.3159    7.7217    1.1794 C   0  0  0  0  0  0  0  0  0  0  0  0
    9.1098    7.4202    2.5379 C   0  0  0  0  0  0  0  0  0  0  0  0
    8.3489    6.2905    2.8843 C   0  0  0  0  0  0  0  0  0  0  0  0
    7.9145    5.7712    4.2130 C   0  0  0  0  0  0  0  0  0  0  0  0
    8.3933    6.1323    5.4402 C   0  0  0  0  0  0  0  0  0  0  0  0
    9.2313    7.2842    5.6432 C   0  0  0  0  0  0  0  0  0  0  0  0
    9.8887    8.2251    5.8199 N   0  0  0  0  0  0  0  0  0  0  0  0
    8.0998    5.3668    6.6273 C   0  0  0  0  0  0  0  0  0  0  0  0
    7.8234    4.7397    7.5570 N   0  0  0  0  0  0  0  0  0  0  0  0
   -6.0230   -6.7003   -4.1098 H   0  0  0  0  0  0  0  0  0  0  0  0
   -6.9897   -2.9498   -9.0669 H   0  0  0  0  0  0  0  0  0  0  0  0
   -7.5745   -3.9830  -11.2514 H   0  0  0  0  0  0  0  0  0  0  0  0
   -7.6901   -7.8662   -9.4349 H   0  0  0  0  0  0  0  0  0  0  0  0
    1.2431   -1.5064   -0.2341 H   0  0  0  0  0  0  0  0  0  0  0  0
    1.9214   -2.9920    2.2965 H   0  0  0  0  0  0  0  0  0  0  0  0
    3.2899   -4.9852    2.5303 H   0  0  0  0  0  0  0  0  0  0  0  0
    5.4888   -5.9236    3.1542 H   0  0  0  0  0  0  0  0  0  0  0  0
    6.9765   -4.9394    3.0153 H   0  0  0  0  0  0  0  0  0  0  0  0
    5.3534   -6.0762    0.6437 H   0  0  0  0  0  0  0  0  0  0  0  0
    6.9105   -6.7251    1.2879 H   0  0  0  0  0  0  0  0  0  0  0  0
    6.8705   -5.0936    0.5166 H   0  0  0  0  0  0  0  0  0  0  0  0
    6.8660   -2.6077    2.1634 H   0  0  0  0  0  0  0  0  0  0  0  0
    5.5032   -0.5929    1.9016 H   0  0  0  0  0  0  0  0  0  0  0  0
    3.9577   -0.9519   -0.5133 H   0  0  0  0  0  0  0  0  0  0  0  0
    4.5369    0.5396   -2.3511 H   0  0  0  0  0  0  0  0  0  0  0  0
    3.5168    4.1160   -2.5502 H   0  0  0  0  0  0  0  0  0  0  0  0
    4.1724    2.7259   -3.4674 H   0  0  0  0  0  0  0  0  0  0  0  0
    5.9134    4.4853   -3.0482 H   0  0  0  0  0  0  0  0  0  0  0  0
    5.6921    4.2736   -1.2678 H   0  0  0  0  0  0  0  0  0  0  0  0
    6.3557    2.9176   -2.2691 H   0  0  0  0  0  0  0  0  0  0  0  0
    2.9873    3.8973   -0.1421 H   0  0  0  0  0  0  0  0  0  0  0  0
    2.4058    2.4279    1.7021 H   0  0  0  0  0  0  0  0  0  0  0  0
   -1.4529    0.3299    3.5756 H   0  0  0  0  0  0  0  0  0  0  0  0
   -5.4924   -0.4975    2.6462 H   0  0  0  0  0  0  0  0  0  0  0  0
   -6.3714   -1.9183    4.3979 H   0  0  0  0  0  0  0  0  0  0  0  0
   -4.9173   -5.2231    5.3591 H   0  0  0  0  0  0  0  0  0  0  0  0
   -6.3724   -4.1836    5.4590 H   0  0  0  0  0  0  0  0  0  0  0  0
   -5.2209   -2.6257    7.0096 H   0  0  0  0  0  0  0  0  0  0  0  0
   -3.6760   -3.5511    6.8420 H   0  0  0  0  0  0  0  0  0  0  0  0
   -5.1057   -4.3154    7.6310 H   0  0  0  0  0  0  0  0  0  0  0  0
   -2.9575   -4.5250    4.0500 H   0  0  0  0  0  0  0  0  0  0  0  0
   -2.0384   -3.0957    2.2956 H   0  0  0  0  0  0  0  0  0  0  0  0
   -3.9156    0.7215   -0.9910 H   0  0  0  0  0  0  0  0  0  0  0  0
   -4.7632    2.9908   -1.0954 H   0  0  0  0  0  0  0  0  0  0  0  0
   -4.5703    5.4025    1.7032 H   0  0  0  0  0  0  0  0  0  0  0  0
   -4.8891    5.2019   -0.0471 H   0  0  0  0  0  0  0  0  0  0  0  0
   -6.9482    5.8865    1.1624 H   0  0  0  0  0  0  0  0  0  0  0  0
   -7.1529    4.2328    0.4656 H   0  0  0  0  0  0  0  0  0  0  0  0
   -6.8383    4.4422    2.2352 H   0  0  0  0  0  0  0  0  0  0  0  0
   -4.3565    3.3698    3.1746 H   0  0  0  0  0  0  0  0  0  0  0  0
   -3.5237    1.0851    3.3078 H   0  0  0  0  0  0  0  0  0  0  0  0
   -7.0650   -3.9908   -2.4918 H   0  0  0  0  0  0  0  0  0  0  0  0
   -7.0841   -1.9211   -0.7470 H   0  0  0  0  0  0  0  0  0  0  0  0
   -5.9136   -1.2369    0.4171 H   0  0  0  0  0  0  0  0  0  0  0  0
   -7.0553   -3.2198    1.4053 H   0  0  0  0  0  0  0  0  0  0  0  0
   -6.5871   -4.2333   -0.0142 H   0  0  0  0  0  0  0  0  0  0  0  0
   -5.3172   -3.6349    1.1157 H   0  0  0  0  0  0  0  0  0  0  0  0
    3.3223    4.0182    5.7470 H   0  0  0  0  0  0  0  0  0  0  0  0
    5.8614    4.7510    5.7158 H   0  0  0  0  0  0  0  0  0  0  0  0
    7.6173    5.0818   -0.2150 H   0  0  0  0  0  0  0  0  0  0  0  0
    8.5556    6.5591   -1.9628 H   0  0  0  0  0  0  0  0  0  0  0  0
   10.4191    9.5449    1.5522 H   0  0  0  0  0  0  0  0  0  0  0  0
    9.5001    8.0894    3.2845 H   0  0  0  0  0  0  0  0  0  0  0  0
  1  2  2  3
  2  3  1  0
  3  4  2  0
  3  5  1  0
  5  6  2  0
  6  7  1  0
  7  8  2  0
  8  9  1  0
  8 10  1  0
 10 11  2  0
 11 12  1  0
 12 13  2  3
 13 14  1  0
 14 15  3  0
 13 16  1  0
 16 17  3  0
  1 18  1  0
 18 19  1  0
 19 20  1  0
 20 21  1  0
 21 22  1  0
 22 23  1  0
 23 24  1  0
 24 25  2  0
 25 26  1  0
 26 27  1  0
 27 28  1  0
 28 29  2  0
 29 30  1  0
 30 31  2  0
 31 32  1  0
 32 33  1  0
 31 34  1  0
 34 35  2  0
 27 36  1  0
 36 37  2  0
 37 38  1  0
 38 39  2  0
 39 40  1  0
 40 41  1  0
 39 42  1  0
 42 43  2  0
 27 44  1  0
 44 45  2  0
 45 46  1  0
 46 47  1  0
 47 48  2  0
 48 49  1  0
 49 50  1  0
 50 51  2  0
 51 52  1  0
 52 53  2  0
 53 54  1  0
 54 55  1  0
 53 56  1  0
 56 57  2  0
 49 58  1  0
 58 59  2  0
 59 60  1  0
 60 61  2  0
 61 62  1  0
 62 63  1  0
 61 64  1  0
 64 65  2  0
 49 66  1  0
 66 67  1  0
 67 68  1  0
 68 69  1  0
 69 70  1  0
 68 71  1  0
 71 72  1  0
 45 73  1  0
 73 74  1  0
 74 75  1  0
 75 76  2  0
 76 77  1  0
 77 78  1  0
 76 79  1  0
 79 80  2  3
 80 81  1  0
 81 82  2  0
 81 83  1  0
 83 84  2  0
 84 85  1  0
 85 86  2  0
 86 87  1  0
 87 88  1  0
 87 89  2  0
 89 90  1  0
 89 91  1  0
 91 92  2  0
 92 93  1  0
 93 94  2  0
 94 95  1  0
 95 96  2  3
 96 97  1  0
 97 98  3  0
 96 99  1  0
 99100  3  0
 12  2  1  0
 70 18  2  0
 78 74  2  0
 95 80  1  0
 11  5  1  0
 69 20  2  0
 94 83  1  0
 67 21  2  0
 92 85  1  0
 66 23  2  0
 48 24  1  0
 57 50  1  0
 65 58  1  0
 46 26  2  0
 35 28  1  0
 43 36  1  0
 78 44  1  0
  1101  1  0
  6102  1  0
  7103  1  0
 10104  1  0
 25105  1  0
 29106  1  0
 30107  1  0
 32108  1  0
 32109  1  0
 33110  1  0
 33111  1  0
 33112  1  0
 34113  1  0
 35114  1  0
 37115  1  0
 38116  1  0
 40117  1  0
 40118  1  0
 41119  1  0
 41120  1  0
 41121  1  0
 42122  1  0
 43123  1  0
 47124  1  0
 51125  1  0
 52126  1  0
 54127  1  0
 54128  1  0
 55129  1  0
 55130  1  0
 55131  1  0
 56132  1  0
 57133  1  0
 59134  1  0
 60135  1  0
 62136  1  0
 62137  1  0
 63138  1  0
 63139  1  0
 63140  1  0
 64141  1  0
 65142  1  0
 70143  1  0
 71144  1  0
 71145  1  0
 72146  1  0
 72147  1  0
 72148  1  0
 75149  1  0
 79150  1  0
 84151  1  0
 86152  1  0
 91153  1  0
 93154  1  0
M  END

