
     RDKit          3D

104114  0  0  0  0  0  0  0  0999 V2000
   -1.9071   -7.0930   -0.9629 C   0  0  0  0  0  0  0  0  0  0  0  0
   -1.4667   -6.9311    0.2948 C   0  0  0  0  0  0  0  0  0  0  0  0
   -1.0650   -5.6636    0.9219 C   0  0  0  0  0  0  0  0  0  0  0  0
   -1.4314   -4.5069    0.5830 O   0  0  0  0  0  0  0  0  0  0  0  0
   -0.2251   -5.9657    2.0632 C   0  0  0  0  0  0  0  0  0  0  0  0
    0.4693   -5.0745    2.8859 C   0  0  0  0  0  0  0  0  0  0  0  0
    1.2901   -5.6024    3.8884 C   0  0  0  0  0  0  0  0  0  0  0  0
    1.3999   -6.9928    4.0547 C   0  0  0  0  0  0  0  0  0  0  0  0
    2.1936   -7.4914    5.0338 F   0  0  0  0  0  0  0  0  0  0  0  0
    0.6853   -7.8716    3.2245 C   0  0  0  0  0  0  0  0  0  0  0  0
   -0.1468   -7.3359    2.2306 C   0  0  0  0  0  0  0  0  0  0  0  0
   -1.0304   -8.0067    1.2344 C   0  0  0  0  0  0  0  0  0  0  0  0
   -1.5629   -9.2531    1.3282 C   0  0  0  0  0  0  0  0  0  0  0  0
   -1.1421  -10.2049    2.3175 C   0  0  0  0  0  0  0  0  0  0  0  0
   -0.8119  -10.9813    3.1085 N   0  0  0  0  0  0  0  0  0  0  0  0
   -2.7153   -9.6414    0.5594 C   0  0  0  0  0  0  0  0  0  0  0  0
   -3.6598   -9.9390   -0.0412 N   0  0  0  0  0  0  0  0  0  0  0  0
   -2.1104   -5.9671   -1.8854 C   0  0  0  0  0  0  0  0  0  0  0  0
   -3.3611   -5.4711   -2.2422 C   0  0  0  0  0  0  0  0  0  0  0  0
   -3.2684   -4.2320   -2.8905 C   0  0  0  0  0  0  0  0  0  0  0  0
   -4.2646   -3.0908   -2.9240 C   0  0  0  0  0  0  0  0  0  0  0  0
   -5.2240   -3.2164   -4.1342 C   0  0  0  0  0  0  0  0  0  0  0  0
   -6.1697   -4.4175   -4.0726 C   0  0  0  0  0  0  0  0  0  0  0  0
   -4.9659   -3.0033   -1.5357 C   0  0  0  0  0  0  0  0  0  0  0  0
   -6.0077   -1.9003   -1.3705 C   0  0  0  0  0  0  0  0  0  0  0  0
   -3.2978   -1.9272   -3.1385 C   0  0  0  0  0  0  0  0  0  0  0  0
   -1.9776   -2.3542   -3.1953 C   0  0  0  0  0  0  0  0  0  0  0  0
   -1.9842   -3.7963   -3.0681 C   0  0  0  0  0  0  0  0  0  0  0  0
   -0.9038   -4.8720   -2.3598 S   0  0  0  0  0  0  0  0  0  0  0  0
   -0.9060   -1.4453   -3.2025 C   0  0  0  0  0  0  0  0  0  0  0  0
    0.4395   -1.8670   -3.2581 C   0  0  0  0  0  0  0  0  0  0  0  0
    1.4841   -0.9527   -3.0900 C   0  0  0  0  0  0  0  0  0  0  0  0
    1.1876    0.3921   -2.8307 C   0  0  0  0  0  0  0  0  0  0  0  0
    2.1364    1.4948   -2.3431 C   0  0  0  0  0  0  0  0  0  0  0  0
    3.1093    2.0001   -3.4439 C   0  0  0  0  0  0  0  0  0  0  0  0
    4.2866    1.0883   -3.7842 C   0  0  0  0  0  0  0  0  0  0  0  0
    2.8175    1.2050   -0.9607 C   0  0  0  0  0  0  0  0  0  0  0  0
    3.3830   -0.2032   -0.7421 C   0  0  0  0  0  0  0  0  0  0  0  0
    1.1167    2.5966   -2.1382 C   0  0  0  0  0  0  0  0  0  0  0  0
    1.1597    3.7036   -1.2846 C   0  0  0  0  0  0  0  0  0  0  0  0
   -0.1112    4.2072   -0.9949 C   0  0  0  0  0  0  0  0  0  0  0  0
   -1.2579    3.1961   -1.7319 S   0  0  0  0  0  0  0  0  0  0  0  0
   -0.1363    2.2259   -2.5121 C   0  0  0  0  0  0  0  0  0  0  0  0
   -0.1355    0.8316   -2.8982 C   0  0  0  0  0  0  0  0  0  0  0  0
   -1.2060   -0.0573   -3.1021 C   0  0  0  0  0  0  0  0  0  0  0  0
   -2.5487    0.3713   -3.1723 C   0  0  0  0  0  0  0  0  0  0  0  0
   -3.5947   -0.5622   -3.2205 C   0  0  0  0  0  0  0  0  0  0  0  0
   -0.4619    5.1382    0.1028 C   0  0  0  0  0  0  0  0  0  0  0  0
    0.3696    6.0384    0.6684 C   0  0  0  0  0  0  0  0  0  0  0  0
    1.7202    6.3818    0.2192 C   0  0  0  0  0  0  0  0  0  0  0  0
    2.1137    6.4571   -0.9815 O   0  0  0  0  0  0  0  0  0  0  0  0
    2.4865    6.7966    1.3715 C   0  0  0  0  0  0  0  0  0  0  0  0
    3.8635    7.0052    1.4651 C   0  0  0  0  0  0  0  0  0  0  0  0
    4.4188    7.2726    2.7299 C   0  0  0  0  0  0  0  0  0  0  0  0
    5.8025    7.4899    2.8758 C   0  0  0  0  0  0  0  0  0  0  0  0
    6.3511    7.7365    4.1389 C   0  0  0  0  0  0  0  0  0  0  0  0
    5.5284    7.7526    5.2689 C   0  0  0  0  0  0  0  0  0  0  0  0
    6.0693    7.9754    6.4943 F   0  0  0  0  0  0  0  0  0  0  0  0
    4.1516    7.5366    5.1414 C   0  0  0  0  0  0  0  0  0  0  0  0
    3.5814    7.3017    3.8802 C   0  0  0  0  0  0  0  0  0  0  0  0
    2.1950    7.0835    3.7496 C   0  0  0  0  0  0  0  0  0  0  0  0
    1.6559    6.8627    2.4737 C   0  0  0  0  0  0  0  0  0  0  0  0
    0.2595    6.5570    2.0625 C   0  0  0  0  0  0  0  0  0  0  0  0
   -0.8767    6.9045    2.7155 C   0  0  0  0  0  0  0  0  0  0  0  0
   -0.8444    7.5665    3.9944 C   0  0  0  0  0  0  0  0  0  0  0  0
   -0.8283    8.1102    5.0131 N   0  0  0  0  0  0  0  0  0  0  0  0
   -2.1872    6.7538    2.1228 C   0  0  0  0  0  0  0  0  0  0  0  0
   -3.2412    6.6365    1.6630 N   0  0  0  0  0  0  0  0  0  0  0  0
   -2.1008   -8.0817   -1.3551 H   0  0  0  0  0  0  0  0  0  0  0  0
    0.3915   -4.0064    2.7377 H   0  0  0  0  0  0  0  0  0  0  0  0
    1.8543   -4.9339    4.5244 H   0  0  0  0  0  0  0  0  0  0  0  0
    0.8170   -8.9293    3.3577 H   0  0  0  0  0  0  0  0  0  0  0  0
   -4.2946   -5.9084   -1.9030 H   0  0  0  0  0  0  0  0  0  0  0  0
   -4.6297   -3.2993   -5.0670 H   0  0  0  0  0  0  0  0  0  0  0  0
   -5.8316   -2.2982   -4.2317 H   0  0  0  0  0  0  0  0  0  0  0  0
   -6.8764   -4.3325   -3.2146 H   0  0  0  0  0  0  0  0  0  0  0  0
   -6.7701   -4.4679   -5.0119 H   0  0  0  0  0  0  0  0  0  0  0  0
   -5.6071   -5.3712   -3.9870 H   0  0  0  0  0  0  0  0  0  0  0  0
   -4.1979   -2.8493   -0.7499 H   0  0  0  0  0  0  0  0  0  0  0  0
   -5.4701   -3.9673   -1.3093 H   0  0  0  0  0  0  0  0  0  0  0  0
   -5.5401   -0.8979   -1.3781 H   0  0  0  0  0  0  0  0  0  0  0  0
   -6.8052   -1.9700   -2.1371 H   0  0  0  0  0  0  0  0  0  0  0  0
   -6.4938   -2.0200   -0.3815 H   0  0  0  0  0  0  0  0  0  0  0  0
    0.6934   -2.9065   -3.4094 H   0  0  0  0  0  0  0  0  0  0  0  0
    2.5004   -1.3204   -3.0936 H   0  0  0  0  0  0  0  0  0  0  0  0
    3.5254    2.9824   -3.1300 H   0  0  0  0  0  0  0  0  0  0  0  0
    2.5350    2.1724   -4.3800 H   0  0  0  0  0  0  0  0  0  0  0  0
    3.9456    0.0846   -4.0955 H   0  0  0  0  0  0  0  0  0  0  0  0
    4.8497    1.5351   -4.6282 H   0  0  0  0  0  0  0  0  0  0  0  0
    4.9879    1.0195   -2.9319 H   0  0  0  0  0  0  0  0  0  0  0  0
    3.6356    1.9418   -0.7945 H   0  0  0  0  0  0  0  0  0  0  0  0
    2.0853    1.3653   -0.1367 H   0  0  0  0  0  0  0  0  0  0  0  0
    3.9634   -0.2191    0.1976 H   0  0  0  0  0  0  0  0  0  0  0  0
    2.5656   -0.9416   -0.6357 H   0  0  0  0  0  0  0  0  0  0  0  0
    4.0672   -0.5068   -1.5498 H   0  0  0  0  0  0  0  0  0  0  0  0
    2.0590    3.9854   -0.7617 H   0  0  0  0  0  0  0  0  0  0  0  0
   -2.7902    1.4228   -3.1999 H   0  0  0  0  0  0  0  0  0  0  0  0
   -4.6123   -0.2136   -3.2777 H   0  0  0  0  0  0  0  0  0  0  0  0
   -1.4130    4.9289    0.5717 H   0  0  0  0  0  0  0  0  0  0  0  0
    4.4894    6.9180    0.5858 H   0  0  0  0  0  0  0  0  0  0  0  0
    6.4595    7.4638    2.0130 H   0  0  0  0  0  0  0  0  0  0  0  0
    7.4169    7.9144    4.2389 H   0  0  0  0  0  0  0  0  0  0  0  0
    3.5345    7.5454    6.0325 H   0  0  0  0  0  0  0  0  0  0  0  0
    1.5790    7.0414    4.6361 H   0  0  0  0  0  0  0  0  0  0  0  0
  1  2  2  3
  2  3  1  0
  3  4  2  0
  3  5  1  0
  5  6  2  0
  6  7  1  0
  7  8  2  0
  8  9  1  0
  8 10  1  0
 10 11  2  0
 11 12  1  0
 12 13  2  3
 13 14  1  0
 14 15  3  0
 13 16  1  0
 16 17  3  0
  1 18  1  0
 18 19  2  0
 19 20  1  0
 20 21  1  0
 21 22  1  0
 22 23  1  0
 21 24  1  0
 24 25  1  0
 21 26  1  0
 26 27  2  0
 27 28  1  0
 28 29  1  0
 27 30  1  0
 30 31  2  0
 31 32  1  0
 32 33  2  0
 33 34  1  0
 34 35  1  0
 35 36  1  0
 34 37  1  0
 37 38  1  0
 34 39  1  0
 39 40  1  0
 40 41  2  0
 41 42  1  0
 42 43  1  0
 43 44  1  0
 44 45  2  0
 45 46  1  0
 46 47  2  0
 41 48  1  0
 48 49  2  3
 49 50  1  0
 50 51  2  0
 50 52  1  0
 52 53  2  0
 53 54  1  0
 54 55  2  0
 55 56  1  0
 56 57  2  0
 57 58  1  0
 57 59  1  0
 59 60  2  0
 60 61  1  0
 61 62  2  0
 62 63  1  0
 63 64  2  3
 64 65  1  0
 65 66  3  0
 64 67  1  0
 67 68  3  0
 12  2  1  0
 29 18  1  0
 45 30  1  0
 63 49  1  0
 11  5  1  0
 28 20  2  0
 44 33  1  0
 62 52  1  0
 47 26  1  0
 60 54  1  0
 43 39  2  0
  1 69  1  0
  6 70  1  0
  7 71  1  0
 10 72  1  0
 19 73  1  0
 22 74  1  0
 22 75  1  0
 23 76  1  0
 23 77  1  0
 23 78  1  0
 24 79  1  0
 24 80  1  0
 25 81  1  0
 25 82  1  0
 25 83  1  0
 31 84  1  0
 32 85  1  0
 35 86  1  0
 35 87  1  0
 36 88  1  0
 36 89  1  0
 36 90  1  0
 37 91  1  0
 37 92  1  0
 38 93  1  0
 38 94  1  0
 38 95  1  0
 40 96  1  0
 46 97  1  0
 47 98  1  0
 48 99  1  0
 53100  1  0
 55101  1  0
 56102  1  0
 59103  1  0
 61104  1  0
M  END

