
     RDKit          3D

143157  0  0  0  0  0  0  0  0999 V2000
   -0.8018    1.7617    8.8676 C   0  0  0  0  0  0  0  0  0  0  0  0
    0.4852    1.5506    9.4882 C   0  0  0  0  0  0  0  0  0  0  0  0
    1.3942    1.3374   10.3824 C   0  0  0  0  0  0  0  0  0  0  0  0
    2.3944    2.3500   10.2584 O   0  0  0  0  0  0  0  0  0  0  0  0
    1.5467    0.3503   11.3699 C   0  0  0  0  0  0  0  0  0  0  0  0
    0.4540   -0.4217   11.2329 C   0  0  0  0  0  0  0  0  0  0  0  0
    0.3273   -1.4664   12.1804 C   0  0  0  0  0  0  0  0  0  0  0  0
    1.7243   -1.3195   13.1392 S   0  0  0  0  0  0  0  0  0  0  0  0
    2.4010    0.0500   12.3300 C   0  0  0  0  0  0  0  0  0  0  0  0
    3.9530    0.8111   12.8013 Cl  0  0  0  0  0  0  0  0  0  0  0  0
   -0.3373    0.0226   10.2127 C   0  0  0  0  0  0  0  0  0  0  0  0
   -1.3994   -0.1169    9.4176 C   0  0  0  0  0  0  0  0  0  0  0  0
   -2.5135   -0.3901    8.7041 C   0  0  0  0  0  0  0  0  0  0  0  0
   -3.2893   -0.5685    8.2232 N   0  0  0  0  0  0  0  0  0  0  0  0
   -1.2964   -1.9725    9.7449 C   0  0  0  0  0  0  0  0  0  0  0  0
   -1.2549   -3.0363    9.9245 N   0  0  0  0  0  0  0  0  0  0  0  0
   -0.5301    1.7725    7.3942 C   0  0  0  0  0  0  0  0  0  0  0  0
    0.3504    1.1786    6.7466 C   0  0  0  0  0  0  0  0  0  0  0  0
    0.5629    0.9359    5.4379 C   0  0  0  0  0  0  0  0  0  0  0  0
    1.4751    0.1847    4.2513 S   0  0  0  0  0  0  0  0  0  0  0  0
    0.6863    0.4570    2.8357 C   0  0  0  0  0  0  0  0  0  0  0  0
    0.5148    0.1793    1.4912 C   0  0  0  0  0  0  0  0  0  0  0  0
    1.0783   -0.5416    0.4444 C   0  0  0  0  0  0  0  0  0  0  0  0
    0.6898   -0.7659   -0.7913 C   0  0  0  0  0  0  0  0  0  0  0  0
    1.2341   -1.5317   -1.9547 C   0  0  0  0  0  0  0  0  0  0  0  0
    1.7493   -2.8220   -1.4557 C   0  0  0  0  0  0  0  0  0  0  0  0
    1.0504   -3.3326   -0.2013 C   0  0  0  0  0  0  0  0  0  0  0  0
    1.6308   -4.4693    0.2950 C   0  0  0  0  0  0  0  0  0  0  0  0
    2.7375   -5.1546   -0.2213 C   0  0  0  0  0  0  0  0  0  0  0  0
    3.2399   -6.2990    0.6122 C   0  0  0  0  0  0  0  0  0  0  0  0
    4.2011   -5.6884    1.6443 C   0  0  0  0  0  0  0  0  0  0  0  0
    3.3310   -4.6768   -1.3450 C   0  0  0  0  0  0  0  0  0  0  0  0
    2.7199   -3.5089   -1.8362 C   0  0  0  0  0  0  0  0  0  0  0  0
    2.4168   -0.8010   -2.4842 C   0  0  0  0  0  0  0  0  0  0  0  0
    2.6305   -0.3096   -3.6267 C   0  0  0  0  0  0  0  0  0  0  0  0
    3.5628    0.3371   -4.3108 C   0  0  0  0  0  0  0  0  0  0  0  0
    4.6599    0.5394   -3.4726 C   0  0  0  0  0  0  0  0  0  0  0  0
    5.8230    1.2277   -4.1275 C   0  0  0  0  0  0  0  0  0  0  0  0
    6.8399    0.2423   -4.6278 C   0  0  0  0  0  0  0  0  0  0  0  0
    4.7259    0.1162   -2.1211 C   0  0  0  0  0  0  0  0  0  0  0  0
    3.5990   -0.5734   -1.5863 C   0  0  0  0  0  0  0  0  0  0  0  0
    0.1798   -1.6246   -2.9563 C   0  0  0  0  0  0  0  0  0  0  0  0
   -0.8622   -0.6965   -2.5115 C   0  0  0  0  0  0  0  0  0  0  0  0
   -0.5227   -0.2150   -1.2482 C   0  0  0  0  0  0  0  0  0  0  0  0
   -1.1063    0.5405   -0.1939 C   0  0  0  0  0  0  0  0  0  0  0  0
   -0.7551    0.7685    0.9539 C   0  0  0  0  0  0  0  0  0  0  0  0
   -1.3256    1.4661    2.1529 C   0  0  0  0  0  0  0  0  0  0  0  0
   -2.5611    0.5160    2.5131 C   0  0  0  0  0  0  0  0  0  0  0  0
   -3.7368    0.8671    1.8521 C   0  0  0  0  0  0  0  0  0  0  0  0
   -4.8389    0.0125    2.2200 C   0  0  0  0  0  0  0  0  0  0  0  0
   -4.6308   -1.0316    3.1443 C   0  0  0  0  0  0  0  0  0  0  0  0
   -5.7721   -1.9756    3.2859 C   0  0  0  0  0  0  0  0  0  0  0  0
   -5.4971   -3.0859    2.2405 C   0  0  0  0  0  0  0  0  0  0  0  0
   -3.4088   -1.2843    3.7469 C   0  0  0  0  0  0  0  0  0  0  0  0
   -2.3760   -0.3982    3.3297 C   0  0  0  0  0  0  0  0  0  0  0  0
   -1.8355    2.7439    1.8105 C   0  0  0  0  0  0  0  0  0  0  0  0
   -2.9593    3.3172    2.0689 C   0  0  0  0  0  0  0  0  0  0  0  0
   -3.6106    4.4564    1.6408 C   0  0  0  0  0  0  0  0  0  0  0  0
   -2.8805    5.1971    0.6783 C   0  0  0  0  0  0  0  0  0  0  0  0
   -3.4955    6.3880    0.0894 C   0  0  0  0  0  0  0  0  0  0  0  0
   -3.3104    7.6599    0.8422 C   0  0  0  0  0  0  0  0  0  0  0  0
   -1.6735    4.6456    0.3731 C   0  0  0  0  0  0  0  0  0  0  0  0
   -1.0100    3.5571    0.7666 C   0  0  0  0  0  0  0  0  0  0  0  0
   -0.4839    1.3057    3.2777 C   0  0  0  0  0  0  0  0  0  0  0  0
   -0.4037    1.4542    4.6261 C   0  0  0  0  0  0  0  0  0  0  0  0
   -1.6413    2.3317    5.9493 Se  0  0  0  0  0  2  0  0  0  0  0  0
   -2.0194   -0.8273   -3.7084 S   0  0  0  0  0  0  0  0  0  0  0  0
   -1.3902   -1.8927   -4.7396 C   0  0  0  0  0  0  0  0  0  0  0  0
   -1.4402   -2.6012   -6.0317 C   0  0  0  0  0  0  0  0  0  0  0  0
   -0.6761   -3.2604   -6.6047 C   0  0  0  0  0  0  0  0  0  0  0  0
    0.7475   -3.3920   -5.4928 Se  0  0  0  0  0  2  0  0  0  0  0  0
   -0.1581   -2.1840   -4.0964 C   0  0  0  0  0  0  0  0  0  0  0  0
   -0.8579   -3.3709   -8.2047 C   0  0  0  0  0  0  0  0  0  0  0  0
   -0.2430   -2.2326   -8.5905 C   0  0  0  0  0  0  0  0  0  0  0  0
    0.4603   -1.2973   -7.7390 C   0  0  0  0  0  0  0  0  0  0  0  0
    1.1849   -1.6854   -6.7361 O   0  0  0  0  0  0  0  0  0  0  0  0
    0.3400    0.0887   -8.0646 C   0  0  0  0  0  0  0  0  0  0  0  0
    0.7032    1.1825   -7.3219 C   0  0  0  0  0  0  0  0  0  0  0  0
    0.3060    2.4263   -7.6290 C   0  0  0  0  0  0  0  0  0  0  0  0
    0.6126    3.4881   -6.9646 O   0  0  0  0  0  0  0  0  0  0  0  0
    0.9455    4.5262   -6.2676 C   0  0  0  0  0  0  0  0  0  0  0  0
   -0.5490    2.5953   -8.8206 C   0  0  0  0  0  0  0  0  0  0  0  0
   -0.9014    3.8021   -9.0312 O   0  0  0  0  0  0  0  0  0  0  0  0
   -1.2754    5.0172   -9.2694 C   0  0  0  0  0  0  0  0  0  0  0  0
   -0.8772    1.4624   -9.5436 C   0  0  0  0  0  0  0  0  0  0  0  0
   -0.4029    0.1478   -9.1269 C   0  0  0  0  0  0  0  0  0  0  0  0
   -0.8064   -1.1396   -9.5673 C   0  0  0  0  0  0  0  0  0  0  0  0
   -1.4947   -1.5382  -10.6379 C   0  0  0  0  0  0  0  0  0  0  0  0
   -2.1138   -0.8125  -11.6869 C   0  0  0  0  0  0  0  0  0  0  0  0
   -2.6260   -0.1974  -12.5909 N   0  0  0  0  0  0  0  0  0  0  0  0
   -1.6177   -2.9715  -10.8637 C   0  0  0  0  0  0  0  0  0  0  0  0
   -1.7498   -4.2671  -11.0649 N   0  0  0  0  0  0  0  0  0  0  0  0
   -1.6659    1.9972    9.3078 H   0  0  0  0  0  0  0  0  0  0  0  0
   -0.5052   -2.1581   12.2214 H   0  0  0  0  0  0  0  0  0  0  0  0
    1.2096    0.6413    7.4121 H   0  0  0  0  0  0  0  0  0  0  0  0
    2.0328   -1.0392    0.8154 H   0  0  0  0  0  0  0  0  0  0  0  0
    0.2569   -2.7512    0.0913 H   0  0  0  0  0  0  0  0  0  0  0  0
    1.1602   -4.8923    1.2037 H   0  0  0  0  0  0  0  0  0  0  0  0
    2.4145   -6.7782    1.1789 H   0  0  0  0  0  0  0  0  0  0  0  0
    3.7828   -7.0589    0.0494 H   0  0  0  0  0  0  0  0  0  0  0  0
    4.6853   -6.4719    2.2198 H   0  0  0  0  0  0  0  0  0  0  0  0
    4.9719   -5.0735    1.1447 H   0  0  0  0  0  0  0  0  0  0  0  0
    3.6168   -5.0329    2.3467 H   0  0  0  0  0  0  0  0  0  0  0  0
    4.1633   -5.1599   -1.8010 H   0  0  0  0  0  0  0  0  0  0  0  0
    3.3278   -3.2028   -2.7894 H   0  0  0  0  0  0  0  0  0  0  0  0
    1.6837   -0.4654   -4.3717 H   0  0  0  0  0  0  0  0  0  0  0  0
    3.5699    0.6997   -5.3067 H   0  0  0  0  0  0  0  0  0  0  0  0
    5.4179    1.7507   -5.0744 H   0  0  0  0  0  0  0  0  0  0  0  0
    6.2750    2.0292   -3.5625 H   0  0  0  0  0  0  0  0  0  0  0  0
    7.6176    0.7418   -5.2438 H   0  0  0  0  0  0  0  0  0  0  0  0
    7.3467   -0.3534   -3.8611 H   0  0  0  0  0  0  0  0  0  0  0  0
    6.3451   -0.4995   -5.3378 H   0  0  0  0  0  0  0  0  0  0  0  0
    5.5620    0.2627   -1.5274 H   0  0  0  0  0  0  0  0  0  0  0  0
    3.5556   -0.9378   -0.6319 H   0  0  0  0  0  0  0  0  0  0  0  0
   -2.1024    0.9506   -0.6405 H   0  0  0  0  0  0  0  0  0  0  0  0
   -3.9404    1.5748    1.1295 H   0  0  0  0  0  0  0  0  0  0  0  0
   -5.7997    0.2089    1.8137 H   0  0  0  0  0  0  0  0  0  0  0  0
   -5.9538   -2.3543    4.2773 H   0  0  0  0  0  0  0  0  0  0  0  0
   -6.7136   -1.5009    2.8943 H   0  0  0  0  0  0  0  0  0  0  0  0
   -4.9107   -3.9144    2.6611 H   0  0  0  0  0  0  0  0  0  0  0  0
   -6.4255   -3.3913    1.7305 H   0  0  0  0  0  0  0  0  0  0  0  0
   -4.8597   -2.6272    1.4342 H   0  0  0  0  0  0  0  0  0  0  0  0
   -3.2503   -2.0295    4.4595 H   0  0  0  0  0  0  0  0  0  0  0  0
   -1.3734   -0.6457    3.8517 H   0  0  0  0  0  0  0  0  0  0  0  0
   -3.6180    2.8420    2.9271 H   0  0  0  0  0  0  0  0  0  0  0  0
   -4.5757    4.7769    1.9436 H   0  0  0  0  0  0  0  0  0  0  0  0
   -4.6196    6.2254   -0.0029 H   0  0  0  0  0  0  0  0  0  0  0  0
   -3.1882    6.5363   -0.9937 H   0  0  0  0  0  0  0  0  0  0  0  0
   -3.5782    8.5044    0.1350 H   0  0  0  0  0  0  0  0  0  0  0  0
   -4.0986    7.7618    1.6450 H   0  0  0  0  0  0  0  0  0  0  0  0
   -2.3205    7.7842    1.2677 H   0  0  0  0  0  0  0  0  0  0  0  0
   -1.0865    5.2814   -0.4007 H   0  0  0  0  0  0  0  0  0  0  0  0
   -0.1140    3.1033    0.5830 H   0  0  0  0  0  0  0  0  0  0  0  0
   -2.4980   -2.3084   -6.5348 H   0  0  0  0  0  0  0  0  0  0  0  0
   -1.3035   -4.1341   -8.5821 H   0  0  0  0  0  0  0  0  0  0  0  0
    1.3545    1.0135   -6.4337 H   0  0  0  0  0  0  0  0  0  0  0  0
    2.0708    4.6969   -6.1202 H   0  0  0  0  0  0  0  0  0  0  0  0
    0.6432    5.5083   -6.7710 H   0  0  0  0  0  0  0  0  0  0  0  0
    0.5537    4.6849   -5.2114 H   0  0  0  0  0  0  0  0  0  0  0  0
   -1.1149    5.7520   -8.4048 H   0  0  0  0  0  0  0  0  0  0  0  0
   -2.4399    5.0477   -9.3097 H   0  0  0  0  0  0  0  0  0  0  0  0
   -0.9576    5.5420  -10.2311 H   0  0  0  0  0  0  0  0  0  0  0  0
   -1.4674    1.5095  -10.4092 H   0  0  0  0  0  0  0  0  0  0  0  0
  1  2  2  3
  2  3  1  0
  3  4  2  0
  3  5  1  0
  5  6  1  0
  6  7  2  0
  7  8  1  0
  8  9  1  0
  9 10  1  0
  6 11  1  0
 11 12  2  3
 12 13  1  0
 13 14  3  0
 12 15  1  0
 15 16  3  0
  1 17  1  0
 17 18  2  0
 18 19  1  0
 19 20  1  0
 20 21  1  0
 21 22  1  0
 22 23  2  0
 23 24  1  0
 24 25  1  0
 25 26  1  0
 26 27  2  0
 27 28  1  0
 28 29  2  0
 29 30  1  0
 30 31  1  0
 29 32  1  0
 32 33  2  0
 25 34  1  0
 34 35  2  0
 35 36  1  0
 36 37  2  0
 37 38  1  0
 38 39  1  0
 37 40  1  0
 40 41  2  0
 25 42  1  0
 42 43  2  0
 43 44  1  0
 44 45  1  0
 45 46  2  0
 46 47  1  0
 47 48  1  0
 48 49  2  0
 49 50  1  0
 50 51  2  0
 51 52  1  0
 52 53  1  0
 51 54  1  0
 54 55  2  0
 47 56  1  0
 56 57  2  0
 57 58  1  0
 58 59  2  0
 59 60  1  0
 60 61  1  0
 59 62  1  0
 62 63  2  0
 47 64  1  0
 64 65  1  0
 65 66  1  0
 43 67  1  0
 67 68  1  0
 68 69  1  0
 69 70  2  0
 70 71  1  0
 71 72  1  0
 70 73  1  0
 73 74  2  3
 74 75  1  0
 75 76  2  0
 75 77  1  0
 77 78  2  0
 78 79  1  0
 79 80  1  0
 80 81  1  0
 79 82  2  0
 82 83  1  0
 83 84  1  0
 82 85  1  0
 85 86  2  0
 86 87  1  0
 87 88  2  3
 88 89  1  0
 89 90  3  0
 88 91  1  0
 91 92  3  0
 11  2  1  0
 66 17  1  0
 72 68  2  0
 87 74  1  0
  9  5  2  0
 65 19  2  0
 86 77  1  0
 64 21  2  0
 46 22  1  0
 55 48  1  0
 63 56  1  0
 44 24  2  0
 33 26  1  0
 41 34  1  0
 72 42  1  0
  1 93  1  0
  7 94  1  0
 18 95  1  0
 23 96  1  0
 27 97  1  0
 28 98  1  0
 30 99  1  0
 30100  1  0
 31101  1  0
 31102  1  0
 31103  1  0
 32104  1  0
 33105  1  0
 35106  1  0
 36107  1  0
 38108  1  0
 38109  1  0
 39110  1  0
 39111  1  0
 39112  1  0
 40113  1  0
 41114  1  0
 45115  1  0
 49116  1  0
 50117  1  0
 52118  1  0
 52119  1  0
 53120  1  0
 53121  1  0
 53122  1  0
 54123  1  0
 55124  1  0
 57125  1  0
 58126  1  0
 60127  1  0
 60128  1  0
 61129  1  0
 61130  1  0
 61131  1  0
 62132  1  0
 63133  1  0
 69134  1  0
 73135  1  0
 78136  1  0
 81137  1  0
 81138  1  0
 81139  1  0
 84140  1  0
 84141  1  0
 84142  1  0
 85143  1  0
M  END

