
     RDKit          3D

 91102  0  0  0  0  0  0  0  0999 V2000
    3.7457    7.3812    1.0668 C   0  0  0  0  0  0  0  0  0  0  0  0
    4.3862    7.8694    0.0645 C   0  0  0  0  0  0  0  0  0  0  0  0
    4.4305    7.6366   -1.3429 C   0  0  0  0  0  0  0  0  0  0  0  0
    3.5342    6.8149   -1.8921 O   0  0  0  0  0  0  0  0  0  0  0  0
    5.4600    8.3059   -2.0683 C   0  0  0  0  0  0  0  0  0  0  0  0
    6.1746    9.0454   -1.1585 C   0  0  0  0  0  0  0  0  0  0  0  0
    7.2048    9.8143   -1.6332 C   0  0  0  0  0  0  0  0  0  0  0  0
    7.2020    9.5147   -3.3370 S   0  0  0  0  0  0  0  0  0  0  0  0
    5.9101    8.4411   -3.3715 C   0  0  0  0  0  0  0  0  0  0  0  0
    5.1862    7.6343   -4.8189 Cl  0  0  0  0  0  0  0  0  0  0  0  0
    5.6058    8.8597    0.2368 C   0  0  0  0  0  0  0  0  0  0  0  0
    5.8909    9.2922    1.2813 C   0  0  0  0  0  0  0  0  0  0  0  0
    5.9364    9.6006    2.6144 C   0  0  0  0  0  0  0  0  0  0  0  0
    5.9852    9.8689    3.7223 N   0  0  0  0  0  0  0  0  0  0  0  0
    7.6608    9.0594    1.1182 C   0  0  0  0  0  0  0  0  0  0  0  0
    8.7779    8.9242    1.0024 N   0  0  0  0  0  0  0  0  0  0  0  0
    2.7789    6.3325    0.9087 C   0  0  0  0  0  0  0  0  0  0  0  0
    1.4821    6.2902    1.3941 C   0  0  0  0  0  0  0  0  0  0  0  0
    1.0920    7.4559    2.3182 C   0  0  0  0  0  0  0  0  0  0  0  0
    0.8792    8.6881    1.4728 C   0  0  0  0  0  0  0  0  0  0  0  0
    0.7325    5.2123    1.1467 C   0  0  0  0  0  0  0  0  0  0  0  0
   -0.9936    4.7989    1.5635 S   0  0  0  0  0  0  0  0  0  0  0  0
   -0.9953    3.2690    0.7794 C   0  0  0  0  0  0  0  0  0  0  0  0
   -1.8130    2.1919    0.5243 C   0  0  0  0  0  0  0  0  0  0  0  0
   -3.1337    1.9266    0.9916 C   0  0  0  0  0  0  0  0  0  0  0  0
   -3.5747    0.6761    0.6508 C   0  0  0  0  0  0  0  0  0  0  0  0
   -4.8419    0.4115    1.1992 N   0  0  0  0  0  0  0  0  0  0  0  0
   -5.2647    1.7384    2.0216 S   0  0  0  0  0  0  0  0  0  0  0  0
   -3.9181    2.6835    1.7558 N   0  0  0  0  0  0  0  0  0  0  0  0
   -2.7898   -0.1684   -0.0489 C   0  0  0  0  0  0  0  0  0  0  0  0
   -3.0166   -1.4937   -0.4059 C   0  0  0  0  0  0  0  0  0  0  0  0
   -4.0693   -2.7861   -0.3222 S   0  0  0  0  0  0  0  0  0  0  0  0
   -2.7064   -4.1539   -1.2799 C   0  0  0  0  0  0  0  0  0  0  0  0
   -3.5093   -5.2106   -1.3073 C   0  0  0  0  0  0  0  0  0  0  0  0
   -4.8437   -5.7405   -1.3604 C   0  0  0  0  0  0  0  0  0  0  0  0
   -5.8193   -5.2451   -0.3030 C   0  0  0  0  0  0  0  0  0  0  0  0
   -2.4145   -6.1764   -1.4623 C   0  0  0  0  0  0  0  0  0  0  0  0
   -0.8328   -4.8838   -1.4526 Se  0  0  0  0  0  2  0  0  0  0  0  0
   -2.2096   -3.2498   -1.2451 C   0  0  0  0  0  0  0  0  0  0  0  0
   -1.8874   -2.0308   -1.0564 C   0  0  0  0  0  0  0  0  0  0  0  0
   -0.9815   -0.9948   -1.1198 N   0  0  0  0  0  0  0  0  0  0  0  0
   -1.4745    0.0876   -0.5329 C   0  0  0  0  0  0  0  0  0  0  0  0
   -1.0154    1.3391   -0.1901 C   0  0  0  0  0  0  0  0  0  0  0  0
    0.2228    1.8842   -0.3553 N   0  0  0  0  0  0  0  0  0  0  0  0
    0.1983    3.1408    0.2853 C   0  0  0  0  0  0  0  0  0  0  0  0
    1.0625    4.1644    0.4943 C   0  0  0  0  0  0  0  0  0  0  0  0
    2.9127    4.6132    0.0125 Se  0  0  0  0  0  2  0  0  0  0  0  0
    1.3912    1.3698   -0.9342 C   0  0  0  0  0  0  0  0  0  0  0  0
    2.3217    0.6944    0.0685 C   0  0  0  0  0  0  0  0  0  0  0  0
    0.2223   -1.1026   -1.9185 C   0  0  0  0  0  0  0  0  0  0  0  0
    0.0131   -0.5533   -3.3313 C   0  0  0  0  0  0  0  0  0  0  0  0
   -2.2304   -7.5023   -1.6620 C   0  0  0  0  0  0  0  0  0  0  0  0
   -2.5442   -8.6718   -1.0863 C   0  0  0  0  0  0  0  0  0  0  0  0
   -2.1947   -9.9946   -1.6065 C   0  0  0  0  0  0  0  0  0  0  0  0
   -1.7890  -10.2025   -2.7508 O   0  0  0  0  0  0  0  0  0  0  0  0
   -2.4529  -11.0159   -0.5140 C   0  0  0  0  0  0  0  0  0  0  0  0
   -2.8876  -10.3894    0.5253 C   0  0  0  0  0  0  0  0  0  0  0  0
   -2.9524  -11.1602    1.6846 C   0  0  0  0  0  0  0  0  0  0  0  0
   -2.3688  -12.7136    1.1619 S   0  0  0  0  0  0  0  0  0  0  0  0
   -2.0734  -12.3137   -0.5043 C   0  0  0  0  0  0  0  0  0  0  0  0
   -1.4702  -13.4304   -1.7064 Cl  0  0  0  0  0  0  0  0  0  0  0  0
   -3.0062   -8.8745    0.2895 C   0  0  0  0  0  0  0  0  0  0  0  0
   -3.2514   -8.0959    1.2616 C   0  0  0  0  0  0  0  0  0  0  0  0
   -3.1774   -6.6958    1.5639 C   0  0  0  0  0  0  0  0  0  0  0  0
   -3.1027   -5.6094    1.7925 N   0  0  0  0  0  0  0  0  0  0  0  0
   -4.1733   -8.6482    2.2873 C   0  0  0  0  0  0  0  0  0  0  0  0
   -4.9589   -9.1102    3.1775 N   0  0  0  0  0  0  0  0  0  0  0  0
    3.9373    7.8183    2.0878 H   0  0  0  0  0  0  0  0  0  0  0  0
    7.9058   10.4974   -1.0873 H   0  0  0  0  0  0  0  0  0  0  0  0
    0.2206    7.2313    2.9503 H   0  0  0  0  0  0  0  0  0  0  0  0
    1.9395    7.5968    3.0383 H   0  0  0  0  0  0  0  0  0  0  0  0
   -0.1083    9.1930    1.7377 H   0  0  0  0  0  0  0  0  0  0  0  0
    0.7760    8.3659    0.4120 H   0  0  0  0  0  0  0  0  0  0  0  0
    1.7429    9.3820    1.5270 H   0  0  0  0  0  0  0  0  0  0  0  0
   -4.8358   -6.8938   -1.2725 H   0  0  0  0  0  0  0  0  0  0  0  0
   -5.2885   -5.5797   -2.3492 H   0  0  0  0  0  0  0  0  0  0  0  0
   -6.7303   -4.8142   -0.8669 H   0  0  0  0  0  0  0  0  0  0  0  0
   -5.4409   -4.4726    0.3661 H   0  0  0  0  0  0  0  0  0  0  0  0
   -6.1910   -6.1134    0.2706 H   0  0  0  0  0  0  0  0  0  0  0  0
    1.4715    0.9579   -1.8857 H   0  0  0  0  0  0  0  0  0  0  0  0
    2.0986    2.3184   -1.1404 H   0  0  0  0  0  0  0  0  0  0  0  0
    3.1727    0.2656   -0.5295 H   0  0  0  0  0  0  0  0  0  0  0  0
    2.7029    1.4475    0.7981 H   0  0  0  0  0  0  0  0  0  0  0  0
    1.7542   -0.0562    0.6015 H   0  0  0  0  0  0  0  0  0  0  0  0
    0.1894   -2.2625   -2.2070 H   0  0  0  0  0  0  0  0  0  0  0  0
    1.1871   -1.1046   -1.4719 H   0  0  0  0  0  0  0  0  0  0  0  0
    0.9693   -0.4411   -3.8649 H   0  0  0  0  0  0  0  0  0  0  0  0
   -0.5996   -1.2436   -3.9698 H   0  0  0  0  0  0  0  0  0  0  0  0
   -0.5977    0.3973   -3.3349 H   0  0  0  0  0  0  0  0  0  0  0  0
   -1.5977   -7.7223   -2.6242 H   0  0  0  0  0  0  0  0  0  0  0  0
   -3.2587  -10.9399    2.7054 H   0  0  0  0  0  0  0  0  0  0  0  0
  1  2  2  3
  2  3  1  0
  3  4  2  0
  3  5  1  0
  5  6  1  0
  6  7  2  0
  7  8  1  0
  8  9  1  0
  9 10  1  0
  6 11  1  0
 11 12  2  3
 12 13  1  0
 13 14  3  0
 12 15  1  0
 15 16  3  0
  1 17  1  0
 17 18  2  0
 18 19  1  0
 19 20  1  0
 18 21  1  0
 21 22  1  0
 22 23  1  0
 23 24  1  0
 24 25  1  0
 25 26  1  0
 26 27  2  0
 27 28  1  0
 28 29  1  0
 26 30  1  0
 30 31  1  0
 31 32  1  0
 32 33  1  0
 33 34  1  0
 34 35  1  0
 35 36  1  0
 34 37  2  0
 37 38  1  0
 38 39  1  0
 39 40  1  0
 40 41  1  0
 41 42  1  0
 42 43  1  0
 43 44  1  0
 44 45  1  0
 45 46  1  0
 46 47  1  0
 44 48  1  0
 48 49  1  0
 41 50  1  0
 50 51  1  0
 37 52  1  0
 52 53  2  3
 53 54  1  0
 54 55  2  0
 54 56  1  0
 56 57  1  0
 57 58  2  0
 58 59  1  0
 59 60  1  0
 60 61  1  0
 57 62  1  0
 62 63  2  3
 63 64  1  0
 64 65  3  0
 63 66  1  0
 66 67  3  0
 11  2  1  0
 47 17  1  0
 62 53  1  0
  9  5  2  0
 46 21  2  0
 60 56  2  0
 45 23  2  0
 43 24  2  0
 29 25  2  0
 42 30  2  0
 40 31  2  0
 39 33  2  0
  1 68  1  0
  7 69  1  0
 19 70  1  0
 19 71  1  0
 20 72  1  0
 20 73  1  0
 20 74  1  0
 35 75  1  0
 35 76  1  0
 36 77  1  0
 36 78  1  0
 36 79  1  0
 48 80  1  0
 48 81  1  0
 49 82  1  0
 49 83  1  0
 49 84  1  0
 50 85  1  0
 50 86  1  0
 51 87  1  0
 51 88  1  0
 51 89  1  0
 52 90  1  0
 58 91  1  0
M  END

