
     RDKit          3D

126138  0  0  0  0  0  0  0  0999 V2000
    2.7612    5.0647   -2.1116 C   0  0  0  0  0  0  0  0  0  0  0  0
    3.9886    4.7565   -2.5742 C   0  0  0  0  0  0  0  0  0  0  0  0
    4.4788    3.3861   -2.8420 C   0  0  0  0  0  0  0  0  0  0  0  0
    3.8528    2.3124   -2.6553 O   0  0  0  0  0  0  0  0  0  0  0  0
    5.7514    3.5002   -3.5088 C   0  0  0  0  0  0  0  0  0  0  0  0
    6.0859    4.8237   -3.6672 C   0  0  0  0  0  0  0  0  0  0  0  0
    7.2678    5.0329   -4.3745 C   0  0  0  0  0  0  0  0  0  0  0  0
    7.8535    3.4931   -4.7803 S   0  0  0  0  0  0  0  0  0  0  0  0
    6.6208    2.5865   -4.0711 C   0  0  0  0  0  0  0  0  0  0  0  0
    6.4683    0.8427   -4.0921 Cl  0  0  0  0  0  0  0  0  0  0  0  0
    5.0498    5.7030   -3.0732 C   0  0  0  0  0  0  0  0  0  0  0  0
    5.1436    7.0449   -2.9081 C   0  0  0  0  0  0  0  0  0  0  0  0
    4.1572    7.8180   -2.1978 C   0  0  0  0  0  0  0  0  0  0  0  0
    3.3732    8.4531   -1.6286 N   0  0  0  0  0  0  0  0  0  0  0  0
    6.3033    7.7862   -3.3333 C   0  0  0  0  0  0  0  0  0  0  0  0
    7.2349    8.3894   -3.6585 N   0  0  0  0  0  0  0  0  0  0  0  0
    1.8380    4.0560   -1.5837 C   0  0  0  0  0  0  0  0  0  0  0  0
    2.1499    3.2079   -0.6126 O   0  0  0  0  0  0  0  0  0  0  0  0
    1.1023    2.4430   -0.4692 C   0  0  0  0  0  0  0  0  0  0  0  0
    0.7888    1.2458    0.2568 C   0  0  0  0  0  0  0  0  0  0  0  0
   -0.4376    0.7928   -0.2544 C   0  0  0  0  0  0  0  0  0  0  0  0
   -0.9752    1.7117   -1.3585 C   0  0  0  0  0  0  0  0  0  0  0  0
   -0.9525    1.0759   -2.7532 C   0  0  0  0  0  0  0  0  0  0  0  0
   -1.5690    1.7498   -3.8288 C   0  0  0  0  0  0  0  0  0  0  0  0
   -1.5554    1.2078   -5.1170 C   0  0  0  0  0  0  0  0  0  0  0  0
   -0.9153   -0.0151   -5.3624 C   0  0  0  0  0  0  0  0  0  0  0  0
   -0.8738   -0.5923   -6.7533 C   0  0  0  0  0  0  0  0  0  0  0  0
    0.3841   -0.1437   -7.4867 C   0  0  0  0  0  0  0  0  0  0  0  0
   -0.2545   -0.6663   -4.3104 C   0  0  0  0  0  0  0  0  0  0  0  0
   -0.2685   -0.1265   -3.0237 C   0  0  0  0  0  0  0  0  0  0  0  0
   -2.3632    2.2294   -0.9689 C   0  0  0  0  0  0  0  0  0  0  0  0
   -2.5464    3.4534   -0.2896 C   0  0  0  0  0  0  0  0  0  0  0  0
   -3.8306    3.8937    0.0505 C   0  0  0  0  0  0  0  0  0  0  0  0
   -4.9555    3.1185   -0.2635 C   0  0  0  0  0  0  0  0  0  0  0  0
   -6.3340    3.5925    0.1063 C   0  0  0  0  0  0  0  0  0  0  0  0
   -6.6922    3.1694    1.5276 C   0  0  0  0  0  0  0  0  0  0  0  0
   -4.7786    1.8770   -0.8882 C   0  0  0  0  0  0  0  0  0  0  0  0
   -3.4994    1.4354   -1.2286 C   0  0  0  0  0  0  0  0  0  0  0  0
    0.1104    2.7593   -1.3099 C   0  0  0  0  0  0  0  0  0  0  0  0
    0.5485    3.8208   -2.0703 C   0  0  0  0  0  0  0  0  0  0  0  0
   -0.9932   -0.4131    0.2043 C   0  0  0  0  0  0  0  0  0  0  0  0
   -0.2669   -1.1114    1.1690 C   0  0  0  0  0  0  0  0  0  0  0  0
   -0.5626   -2.3394    1.8446 C   0  0  0  0  0  0  0  0  0  0  0  0
    0.3931   -2.6298    2.7302 C   0  0  0  0  0  0  0  0  0  0  0  0
    1.4857   -1.5897    2.7891 C   0  0  0  0  0  0  0  0  0  0  0  0
    0.9518   -0.6528    1.6935 C   0  0  0  0  0  0  0  0  0  0  0  0
    1.5070    0.5562    1.2393 C   0  0  0  0  0  0  0  0  0  0  0  0
    2.8142   -2.2807    2.4631 C   0  0  0  0  0  0  0  0  0  0  0  0
    3.4675   -2.1346    1.2206 C   0  0  0  0  0  0  0  0  0  0  0  0
    4.6758   -2.7907    0.9678 C   0  0  0  0  0  0  0  0  0  0  0  0
    5.2528   -3.6205    1.9395 C   0  0  0  0  0  0  0  0  0  0  0  0
    6.5388   -4.3481    1.6534 C   0  0  0  0  0  0  0  0  0  0  0  0
    6.2751   -5.6564    0.9111 C   0  0  0  0  0  0  0  0  0  0  0  0
    4.5858   -3.8137    3.1570 C   0  0  0  0  0  0  0  0  0  0  0  0
    3.3835   -3.1506    3.4139 C   0  0  0  0  0  0  0  0  0  0  0  0
    1.5027   -0.8427    4.1283 C   0  0  0  0  0  0  0  0  0  0  0  0
    2.6895   -0.2516    4.6098 C   0  0  0  0  0  0  0  0  0  0  0  0
    2.7107    0.4163    5.8376 C   0  0  0  0  0  0  0  0  0  0  0  0
    1.5303    0.5678    6.5819 C   0  0  0  0  0  0  0  0  0  0  0  0
    1.5567    1.2405    7.9292 C   0  0  0  0  0  0  0  0  0  0  0  0
    1.6111    0.1981    9.0443 C   0  0  0  0  0  0  0  0  0  0  0  0
    0.3309    0.0452    6.0797 C   0  0  0  0  0  0  0  0  0  0  0  0
    0.3129   -0.6393    4.8630 C   0  0  0  0  0  0  0  0  0  0  0  0
    0.0046   -3.7767    3.3792 C   0  0  0  0  0  0  0  0  0  0  0  0
   -1.2258   -4.0910    2.7838 C   0  0  0  0  0  0  0  0  0  0  0  0
   -1.5369   -3.2070    1.8457 O   0  0  0  0  0  0  0  0  0  0  0  0
   -2.0299   -5.2738    3.1400 C   0  0  0  0  0  0  0  0  0  0  0  0
   -3.3571   -5.4058    2.9437 C   0  0  0  0  0  0  0  0  0  0  0  0
   -4.3098   -4.3111    2.6378 C   0  0  0  0  0  0  0  0  0  0  0  0
   -4.0421   -3.1001    2.4139 O   0  0  0  0  0  0  0  0  0  0  0  0
   -5.6444   -4.8321    2.8054 C   0  0  0  0  0  0  0  0  0  0  0  0
   -5.5940   -6.1491    3.1851 C   0  0  0  0  0  0  0  0  0  0  0  0
   -6.8425   -6.7221    3.4337 C   0  0  0  0  0  0  0  0  0  0  0  0
   -7.9860   -5.5007    3.1617 S   0  0  0  0  0  0  0  0  0  0  0  0
   -6.9058   -4.2712    2.7403 C   0  0  0  0  0  0  0  0  0  0  0  0
   -7.3237   -2.6229    2.3208 Cl  0  0  0  0  0  0  0  0  0  0  0  0
   -4.1921   -6.6235    3.2476 C   0  0  0  0  0  0  0  0  0  0  0  0
   -3.7905   -7.9104    3.4113 C   0  0  0  0  0  0  0  0  0  0  0  0
   -2.4191   -8.3254    3.2878 C   0  0  0  0  0  0  0  0  0  0  0  0
   -1.3220   -8.6753    3.2037 N   0  0  0  0  0  0  0  0  0  0  0  0
   -4.7272   -8.9716    3.6647 C   0  0  0  0  0  0  0  0  0  0  0  0
   -5.4696   -9.8361    3.8697 N   0  0  0  0  0  0  0  0  0  0  0  0
    2.3745    6.0714   -2.1735 H   0  0  0  0  0  0  0  0  0  0  0  0
    7.7269    5.9704   -4.6449 H   0  0  0  0  0  0  0  0  0  0  0  0
   -2.0664    2.7010   -3.6711 H   0  0  0  0  0  0  0  0  0  0  0  0
   -2.0399    1.7413   -5.9248 H   0  0  0  0  0  0  0  0  0  0  0  0
   -0.9082   -1.6987   -6.7023 H   0  0  0  0  0  0  0  0  0  0  0  0
   -1.7696   -0.2683   -7.3272 H   0  0  0  0  0  0  0  0  0  0  0  0
    0.4304   -0.6366   -8.4835 H   0  0  0  0  0  0  0  0  0  0  0  0
    1.2964   -0.4194   -6.9091 H   0  0  0  0  0  0  0  0  0  0  0  0
    0.3713    0.9592   -7.6294 H   0  0  0  0  0  0  0  0  0  0  0  0
    0.2734   -1.5961   -4.4885 H   0  0  0  0  0  0  0  0  0  0  0  0
    0.2701   -0.6564   -2.2500 H   0  0  0  0  0  0  0  0  0  0  0  0
   -1.7039    4.0761   -0.0226 H   0  0  0  0  0  0  0  0  0  0  0  0
   -3.9484    4.8417    0.5594 H   0  0  0  0  0  0  0  0  0  0  0  0
   -7.0853    3.1772   -0.5999 H   0  0  0  0  0  0  0  0  0  0  0  0
   -6.3912    4.6998    0.0276 H   0  0  0  0  0  0  0  0  0  0  0  0
   -7.7214    3.5101    1.7704 H   0  0  0  0  0  0  0  0  0  0  0  0
   -5.9864    3.6260    2.2531 H   0  0  0  0  0  0  0  0  0  0  0  0
   -6.6528    2.0617    1.6234 H   0  0  0  0  0  0  0  0  0  0  0  0
   -5.6315    1.2498   -1.1128 H   0  0  0  0  0  0  0  0  0  0  0  0
   -3.4005    0.4714   -1.7144 H   0  0  0  0  0  0  0  0  0  0  0  0
    0.0528    4.2870   -2.9122 H   0  0  0  0  0  0  0  0  0  0  0  0
   -1.9258   -0.8000   -0.1856 H   0  0  0  0  0  0  0  0  0  0  0  0
    2.4465    0.9330    1.6263 H   0  0  0  0  0  0  0  0  0  0  0  0
    3.0507   -1.5216    0.4349 H   0  0  0  0  0  0  0  0  0  0  0  0
    5.1577   -2.6597    0.0077 H   0  0  0  0  0  0  0  0  0  0  0  0
    7.2104   -3.7034    1.0408 H   0  0  0  0  0  0  0  0  0  0  0  0
    7.0744   -4.5722    2.6032 H   0  0  0  0  0  0  0  0  0  0  0  0
    5.6359   -6.3269    1.5243 H   0  0  0  0  0  0  0  0  0  0  0  0
    5.7710   -5.4553   -0.0614 H   0  0  0  0  0  0  0  0  0  0  0  0
    7.2371   -6.1678    0.7087 H   0  0  0  0  0  0  0  0  0  0  0  0
    4.9995   -4.4786    3.9068 H   0  0  0  0  0  0  0  0  0  0  0  0
    2.8916   -3.3167    4.3652 H   0  0  0  0  0  0  0  0  0  0  0  0
    3.6143   -0.3215    4.0497 H   0  0  0  0  0  0  0  0  0  0  0  0
    3.6444    0.8224    6.2030 H   0  0  0  0  0  0  0  0  0  0  0  0
    2.4415    1.9108    8.0127 H   0  0  0  0  0  0  0  0  0  0  0  0
    0.6461    1.8634    8.0561 H   0  0  0  0  0  0  0  0  0  0  0  0
    0.6912   -0.4299    9.0258 H   0  0  0  0  0  0  0  0  0  0  0  0
    1.6676    0.7104   10.0260 H   0  0  0  0  0  0  0  0  0  0  0  0
    2.5028   -0.4535    8.9230 H   0  0  0  0  0  0  0  0  0  0  0  0
   -0.5887    0.1580    6.6409 H   0  0  0  0  0  0  0  0  0  0  0  0
   -0.6363   -1.0097    4.4995 H   0  0  0  0  0  0  0  0  0  0  0  0
    0.5169   -4.2950    4.1801 H   0  0  0  0  0  0  0  0  0  0  0  0
   -1.4838   -6.0578    3.6340 H   0  0  0  0  0  0  0  0  0  0  0  0
   -7.0663   -7.7289    3.7525 H   0  0  0  0  0  0  0  0  0  0  0  0
  1  2  2  3
  2  3  1  0
  3  4  2  0
  3  5  1  0
  5  6  1  0
  6  7  2  0
  7  8  1  0
  8  9  1  0
  9 10  1  0
  6 11  1  0
 11 12  2  3
 12 13  1  0
 13 14  3  0
 12 15  1  0
 15 16  3  0
  1 17  1  0
 17 18  1  0
 18 19  1  0
 19 20  1  0
 20 21  2  0
 21 22  1  0
 22 23  1  0
 23 24  2  0
 24 25  1  0
 25 26  2  0
 26 27  1  0
 27 28  1  0
 26 29  1  0
 29 30  2  0
 22 31  1  0
 31 32  2  0
 32 33  1  0
 33 34  2  0
 34 35  1  0
 35 36  1  0
 34 37  1  0
 37 38  2  0
 22 39  1  0
 39 40  1  0
 21 41  1  0
 41 42  2  0
 42 43  1  0
 43 44  2  0
 44 45  1  0
 45 46  1  0
 46 47  2  0
 45 48  1  0
 48 49  2  0
 49 50  1  0
 50 51  2  0
 51 52  1  0
 52 53  1  0
 51 54  1  0
 54 55  2  0
 45 56  1  0
 56 57  2  0
 57 58  1  0
 58 59  2  0
 59 60  1  0
 60 61  1  0
 59 62  1  0
 62 63  2  0
 44 64  1  0
 64 65  2  0
 65 66  1  0
 65 67  1  0
 67 68  2  3
 68 69  1  0
 69 70  2  0
 69 71  1  0
 71 72  1  0
 72 73  2  0
 73 74  1  0
 74 75  1  0
 75 76  1  0
 72 77  1  0
 77 78  2  3
 78 79  1  0
 79 80  3  0
 78 81  1  0
 81 82  3  0
 11  2  1  0
 40 17  2  0
 46 42  1  0
 55 48  1  0
 63 56  1  0
 77 68  1  0
  9  5  2  0
 39 19  2  0
 66 43  1  0
 75 71  2  0
 47 20  1  0
 30 23  1  0
 38 31  1  0
  1 83  1  0
  7 84  1  0
 24 85  1  0
 25 86  1  0
 27 87  1  0
 27 88  1  0
 28 89  1  0
 28 90  1  0
 28 91  1  0
 29 92  1  0
 30 93  1  0
 32 94  1  0
 33 95  1  0
 35 96  1  0
 35 97  1  0
 36 98  1  0
 36 99  1  0
 36100  1  0
 37101  1  0
 38102  1  0
 40103  1  0
 41104  1  0
 47105  1  0
 49106  1  0
 50107  1  0
 52108  1  0
 52109  1  0
 53110  1  0
 53111  1  0
 53112  1  0
 54113  1  0
 55114  1  0
 57115  1  0
 58116  1  0
 60117  1  0
 60118  1  0
 61119  1  0
 61120  1  0
 61121  1  0
 62122  1  0
 63123  1  0
 64124  1  0
 67125  1  0
 73126  1  0
M  END

