
     RDKit          3D

113127  0  0  0  0  0  0  0  0999 V2000
   -4.6714    5.3211   -2.8204 C   0  0  0  0  0  0  0  0  0  0  0  0
   -5.2957    4.1885   -3.1144 C   0  0  0  0  0  0  0  0  0  0  0  0
   -5.3916    3.0068   -2.2441 C   0  0  0  0  0  0  0  0  0  0  0  0
   -4.9842    2.9215   -1.0744 O   0  0  0  0  0  0  0  0  0  0  0  0
   -6.0546    1.9106   -2.9573 C   0  0  0  0  0  0  0  0  0  0  0  0
   -6.3673    0.6283   -2.5827 C   0  0  0  0  0  0  0  0  0  0  0  0
   -6.9935   -0.2501   -3.4180 C   0  0  0  0  0  0  0  0  0  0  0  0
   -7.2727   -1.6662   -2.9746 C   0  0  0  0  0  0  0  0  0  0  0  0
   -8.1676   -2.2879   -3.7945 F   0  0  0  0  0  0  0  0  0  0  0  0
   -7.7262   -1.6690   -1.6538 F   0  0  0  0  0  0  0  0  0  0  0  0
   -6.0971   -2.3896   -2.9741 F   0  0  0  0  0  0  0  0  0  0  0  0
   -7.3057    0.2026   -4.6597 C   0  0  0  0  0  0  0  0  0  0  0  0
   -7.0113    1.4851   -5.1014 C   0  0  0  0  0  0  0  0  0  0  0  0
   -6.3564    2.3603   -4.2108 C   0  0  0  0  0  0  0  0  0  0  0  0
   -5.9029    3.7842   -4.3547 C   0  0  0  0  0  0  0  0  0  0  0  0
   -5.9455    4.3063   -5.5197 C   0  0  0  0  0  0  0  0  0  0  0  0
   -5.1029    5.7463   -5.6643 C   0  0  0  0  0  0  0  0  0  0  0  0
   -4.6597    6.5067   -5.7278 N   0  0  0  0  0  0  0  0  0  0  0  0
   -6.5043    3.9069   -6.6551 C   0  0  0  0  0  0  0  0  0  0  0  0
   -7.0355    3.5309   -7.7634 N   0  0  0  0  0  0  0  0  0  0  0  0
   -3.9917    5.2820   -1.4806 C   0  0  0  0  0  0  0  0  0  0  0  0
   -4.0213    5.7619   -0.3196 C   0  0  0  0  0  0  0  0  0  0  0  0
   -5.1423    6.7490    0.1307 C   0  0  0  0  0  0  0  0  0  0  0  0
   -6.3195    5.8221    0.4111 C   0  0  0  0  0  0  0  0  0  0  0  0
   -3.1082    5.3459    0.6698 C   0  0  0  0  0  0  0  0  0  0  0  0
   -2.6915    5.5336    2.3366 S   0  0  0  0  0  0  0  0  0  0  0  0
   -1.4078    4.3939    2.4520 C   0  0  0  0  0  0  0  0  0  0  0  0
   -0.5476    3.6929    3.2848 C   0  0  0  0  0  0  0  0  0  0  0  0
   -0.2551    3.8412    4.6774 C   0  0  0  0  0  0  0  0  0  0  0  0
    0.6735    2.9509    5.2335 C   0  0  0  0  0  0  0  0  0  0  0  0
    1.0569    3.2110    6.4628 N   0  0  0  0  0  0  0  0  0  0  0  0
   -0.0560    4.9363    6.9149 Se  0  0  0  0  0  2  0  0  0  0  0  0
   -0.6979    4.8445    5.3765 N   0  0  0  0  0  0  0  0  0  0  0  0
    1.2285    1.9876    4.4655 C   0  0  0  0  0  0  0  0  0  0  0  0
    2.0164    0.8606    4.7776 C   0  0  0  0  0  0  0  0  0  0  0  0
    2.8638   -0.0890    5.9337 S   0  0  0  0  0  0  0  0  0  0  0  0
    3.3306   -1.4279    4.9138 C   0  0  0  0  0  0  0  0  0  0  0  0
    3.9690   -2.6726    5.0438 C   0  0  0  0  0  0  0  0  0  0  0  0
    4.6004   -3.1583    6.3371 C   0  0  0  0  0  0  0  0  0  0  0  0
    3.6703   -3.4824    7.4536 C   0  0  0  0  0  0  0  0  0  0  0  0
    4.0302   -3.4443    3.9652 C   0  0  0  0  0  0  0  0  0  0  0  0
    3.1724   -2.3669    2.7333 S   0  0  0  0  0  0  0  0  0  0  0  0
    2.8254   -1.0743    3.7601 C   0  0  0  0  0  0  0  0  0  0  0  0
    2.1318    0.1231    3.6874 C   0  0  0  0  0  0  0  0  0  0  0  0
    1.4333    0.7609    2.6910 N   0  0  0  0  0  0  0  0  0  0  0  0
    0.8935    1.8928    3.1069 C   0  0  0  0  0  0  0  0  0  0  0  0
    0.0305    2.7730    2.4687 C   0  0  0  0  0  0  0  0  0  0  0  0
   -0.3756    2.8666    1.2024 N   0  0  0  0  0  0  0  0  0  0  0  0
   -1.3147    3.8879    1.1801 C   0  0  0  0  0  0  0  0  0  0  0  0
   -2.2402    4.4426    0.3008 C   0  0  0  0  0  0  0  0  0  0  0  0
   -2.6674    4.1638   -1.3842 S   0  0  0  0  0  0  0  0  0  0  0  0
    0.2634    2.4827   -0.0386 C   0  0  0  0  0  0  0  0  0  0  0  0
    0.6822    3.8265   -0.8017 C   0  0  0  0  0  0  0  0  0  0  0  0
    1.1910    0.0345    1.4132 C   0  0  0  0  0  0  0  0  0  0  0  0
    0.1712   -1.0537    1.9756 C   0  0  0  0  0  0  0  0  0  0  0  0
    4.2496   -4.6608    3.2740 C   0  0  0  0  0  0  0  0  0  0  0  0
    5.0573   -5.1063    2.2945 C   0  0  0  0  0  0  0  0  0  0  0  0
    4.9315   -6.4627    1.8034 C   0  0  0  0  0  0  0  0  0  0  0  0
    4.4476   -7.4607    2.3852 O   0  0  0  0  0  0  0  0  0  0  0  0
    5.4800   -6.4606    0.4610 C   0  0  0  0  0  0  0  0  0  0  0  0
    5.3196   -7.4162   -0.5462 C   0  0  0  0  0  0  0  0  0  0  0  0
    5.6019   -7.1152   -1.8673 C   0  0  0  0  0  0  0  0  0  0  0  0
    6.0479   -5.8980   -2.1395 C   0  0  0  0  0  0  0  0  0  0  0  0
    6.2416   -4.9260   -1.1608 C   0  0  0  0  0  0  0  0  0  0  0  0
    5.9404   -5.2229    0.1406 C   0  0  0  0  0  0  0  0  0  0  0  0
    5.7353   -4.2418    1.2880 C   0  0  0  0  0  0  0  0  0  0  0  0
    6.0479   -3.0813    1.3108 C   0  0  0  0  0  0  0  0  0  0  0  0
    6.7016   -2.4860    0.0805 C   0  0  0  0  0  0  0  0  0  0  0  0
    7.2804   -1.9541   -0.9815 N   0  0  0  0  0  0  0  0  0  0  0  0
    6.1617   -2.0578    2.3065 C   0  0  0  0  0  0  0  0  0  0  0  0
    6.2656   -1.1833    3.1776 N   0  0  0  0  0  0  0  0  0  0  0  0
    6.0434   -6.1688   -3.6084 C   0  0  0  0  0  0  0  0  0  0  0  0
    4.9354   -5.4236   -4.2753 C   0  0  0  0  0  0  0  0  0  0  0  0
    3.8659   -5.1898   -3.2214 C   0  0  0  0  0  0  0  0  0  0  0  0
    3.3443   -6.3805   -2.8957 C   0  0  0  0  0  0  0  0  0  0  0  0
    4.0118   -7.4059   -3.7563 C   0  0  0  0  0  0  0  0  0  0  0  0
    4.2039   -6.5194   -5.0246 C   0  0  0  0  0  0  0  0  0  0  0  0
    5.4785   -7.5405   -3.3231 C   0  0  0  0  0  0  0  0  0  0  0  0
   -4.6285    6.1931   -3.3417 H   0  0  0  0  0  0  0  0  0  0  0  0
   -6.1321    0.2522   -1.5855 H   0  0  0  0  0  0  0  0  0  0  0  0
   -7.8206   -0.4812   -5.3841 H   0  0  0  0  0  0  0  0  0  0  0  0
   -7.2812    1.7707   -6.0511 H   0  0  0  0  0  0  0  0  0  0  0  0
   -5.3239    7.4802   -0.6215 H   0  0  0  0  0  0  0  0  0  0  0  0
   -4.8692    7.2418    1.0273 H   0  0  0  0  0  0  0  0  0  0  0  0
   -6.9532    6.2156    1.2012 H   0  0  0  0  0  0  0  0  0  0  0  0
   -6.9086    5.7298   -0.5719 H   0  0  0  0  0  0  0  0  0  0  0  0
   -5.9608    4.8322    0.7262 H   0  0  0  0  0  0  0  0  0  0  0  0
    5.2172   -4.0597    6.0589 H   0  0  0  0  0  0  0  0  0  0  0  0
    5.3136   -2.3768    6.7384 H   0  0  0  0  0  0  0  0  0  0  0  0
    3.2531   -4.4728    7.5513 H   0  0  0  0  0  0  0  0  0  0  0  0
    2.8156   -2.6785    7.4291 H   0  0  0  0  0  0  0  0  0  0  0  0
    4.1650   -3.2871    8.4279 H   0  0  0  0  0  0  0  0  0  0  0  0
   -0.3210    1.9443   -0.7399 H   0  0  0  0  0  0  0  0  0  0  0  0
    1.3384    2.1511    0.1217 H   0  0  0  0  0  0  0  0  0  0  0  0
    1.7400    4.0302   -0.6489 H   0  0  0  0  0  0  0  0  0  0  0  0
    0.1213    4.6526   -0.3539 H   0  0  0  0  0  0  0  0  0  0  0  0
    0.4699    3.6912   -1.8766 H   0  0  0  0  0  0  0  0  0  0  0  0
    2.0655   -0.4978    1.0997 H   0  0  0  0  0  0  0  0  0  0  0  0
    0.6005    0.4265    0.6797 H   0  0  0  0  0  0  0  0  0  0  0  0
   -0.8131   -0.5110    2.0002 H   0  0  0  0  0  0  0  0  0  0  0  0
    0.4452   -1.3680    2.9634 H   0  0  0  0  0  0  0  0  0  0  0  0
    0.1273   -1.8219    1.1853 H   0  0  0  0  0  0  0  0  0  0  0  0
    3.5366   -5.4875    3.6441 H   0  0  0  0  0  0  0  0  0  0  0  0
    4.9567   -8.4169   -0.2658 H   0  0  0  0  0  0  0  0  0  0  0  0
    6.6202   -3.9767   -1.5300 H   0  0  0  0  0  0  0  0  0  0  0  0
    6.9613   -6.1428   -4.1675 H   0  0  0  0  0  0  0  0  0  0  0  0
    5.1920   -4.5873   -4.8858 H   0  0  0  0  0  0  0  0  0  0  0  0
    3.6025   -4.2343   -2.8501 H   0  0  0  0  0  0  0  0  0  0  0  0
    2.5913   -6.5723   -2.1274 H   0  0  0  0  0  0  0  0  0  0  0  0
    3.5507   -8.3725   -3.9389 H   0  0  0  0  0  0  0  0  0  0  0  0
    3.1640   -6.1896   -5.3814 H   0  0  0  0  0  0  0  0  0  0  0  0
    4.8363   -6.9751   -5.7996 H   0  0  0  0  0  0  0  0  0  0  0  0
    5.9962   -8.4321   -3.6191 H   0  0  0  0  0  0  0  0  0  0  0  0
  1  2  2  3
  2  3  1  0
  3  4  2  0
  3  5  1  0
  5  6  2  0
  6  7  1  0
  7  8  1  0
  8  9  1  0
  8 10  1  0
  8 11  1  0
  7 12  2  0
 12 13  1  0
 13 14  2  0
 14 15  1  0
 15 16  2  3
 16 17  1  0
 17 18  3  0
 16 19  1  0
 19 20  3  0
  1 21  1  0
 21 22  2  0
 22 23  1  0
 23 24  1  0
 22 25  1  0
 25 26  1  0
 26 27  1  0
 27 28  1  0
 28 29  1  0
 29 30  1  0
 30 31  2  0
 31 32  1  0
 32 33  1  0
 30 34  1  0
 34 35  1  0
 35 36  1  0
 36 37  1  0
 37 38  1  0
 38 39  1  0
 39 40  1  0
 38 41  2  0
 41 42  1  0
 42 43  1  0
 43 44  1  0
 44 45  1  0
 45 46  1  0
 46 47  1  0
 47 48  1  0
 48 49  1  0
 49 50  1  0
 50 51  1  0
 48 52  1  0
 52 53  1  0
 45 54  1  0
 54 55  1  0
 41 56  1  0
 56 57  2  3
 57 58  1  0
 58 59  2  0
 58 60  1  0
 60 61  2  0
 61 62  1  0
 62 63  2  0
 63 64  1  0
 64 65  2  0
 65 66  1  0
 66 67  2  3
 67 68  1  0
 68 69  3  0
 67 70  1  0
 70 71  3  0
 63 72  1  0
 72 73  1  0
 73 74  1  0
 74 75  2  0
 75 76  1  0
 76 77  1  0
 76 78  1  0
 15  2  1  0
 51 21  1  0
 66 57  1  0
 78 72  1  0
 14  5  1  0
 50 25  2  0
 65 60  1  0
 77 73  1  0
 49 27  2  0
 78 62  1  0
 47 28  2  0
 33 29  2  0
 46 34  2  0
 44 35  2  0
 43 37  2  0
  1 79  1  0
  6 80  1  0
 12 81  1  0
 13 82  1  0
 23 83  1  0
 23 84  1  0
 24 85  1  0
 24 86  1  0
 24 87  1  0
 39 88  1  0
 39 89  1  0
 40 90  1  0
 40 91  1  0
 40 92  1  0
 52 93  1  0
 52 94  1  0
 53 95  1  0
 53 96  1  0
 53 97  1  0
 54 98  1  0
 54 99  1  0
 55100  1  0
 55101  1  0
 55102  1  0
 56103  1  0
 61104  1  0
 64105  1  0
 72106  1  0
 73107  1  0
 74108  1  0
 75109  1  0
 76110  1  0
 77111  1  0
 77112  1  0
 78113  1  0
M  END

