
     RDKit          3D

120135  0  0  0  0  0  0  0  0999 V2000
    3.7419   -2.2194   -6.8673 C   0  0  0  0  0  0  0  0  0  0  0  0
    3.9185   -3.3829   -6.2102 C   0  0  0  0  0  0  0  0  0  0  0  0
    3.5137   -3.6557   -4.8246 C   0  0  0  0  0  0  0  0  0  0  0  0
    2.6908   -2.9912   -4.1376 O   0  0  0  0  0  0  0  0  0  0  0  0
    4.1748   -4.8631   -4.3840 C   0  0  0  0  0  0  0  0  0  0  0  0
    4.1964   -5.4134   -3.1026 C   0  0  0  0  0  0  0  0  0  0  0  0
    4.9896   -6.5516   -2.8646 C   0  0  0  0  0  0  0  0  0  0  0  0
    5.0843   -7.1227   -1.4739 C   0  0  0  0  0  0  0  0  0  0  0  0
    3.8502   -7.0761   -0.8513 F   0  0  0  0  0  0  0  0  0  0  0  0
    5.9883   -6.3793   -0.7391 F   0  0  0  0  0  0  0  0  0  0  0  0
    5.5054   -8.4406   -1.5051 F   0  0  0  0  0  0  0  0  0  0  0  0
    5.7800   -7.0732   -3.9162 C   0  0  0  0  0  0  0  0  0  0  0  0
    5.7412   -6.4999   -5.1976 C   0  0  0  0  0  0  0  0  0  0  0  0
    4.9000   -5.4009   -5.4311 C   0  0  0  0  0  0  0  0  0  0  0  0
    4.6883   -4.5857   -6.6632 C   0  0  0  0  0  0  0  0  0  0  0  0
    4.9412   -4.9739   -7.9415 C   0  0  0  0  0  0  0  0  0  0  0  0
    5.5361   -6.2471   -8.2586 C   0  0  0  0  0  0  0  0  0  0  0  0
    6.0075   -7.2699   -8.5303 N   0  0  0  0  0  0  0  0  0  0  0  0
    4.5198   -4.2116   -9.0870 C   0  0  0  0  0  0  0  0  0  0  0  0
    4.1875   -3.6105  -10.0202 N   0  0  0  0  0  0  0  0  0  0  0  0
    3.0887   -1.0420   -6.2809 C   0  0  0  0  0  0  0  0  0  0  0  0
    1.9411   -0.4364   -6.8057 C   0  0  0  0  0  0  0  0  0  0  0  0
    1.5625    0.6498   -6.0250 C   0  0  0  0  0  0  0  0  0  0  0  0
    0.1388    1.5733   -5.9441 S   0  0  0  0  0  0  0  0  0  0  0  0
    0.6472    2.3451   -4.5138 C   0  0  0  0  0  0  0  0  0  0  0  0
   -0.0116    3.0727   -3.5259 C   0  0  0  0  0  0  0  0  0  0  0  0
   -1.4816    3.3374   -3.2576 C   0  0  0  0  0  0  0  0  0  0  0  0
   -1.8616    4.6528   -3.9562 C   0  0  0  0  0  0  0  0  0  0  0  0
   -2.1531    5.8373   -3.2379 C   0  0  0  0  0  0  0  0  0  0  0  0
   -2.4681    7.0210   -3.9122 C   0  0  0  0  0  0  0  0  0  0  0  0
   -2.4864    7.0524   -5.3066 C   0  0  0  0  0  0  0  0  0  0  0  0
   -2.1917    5.8975   -6.0326 C   0  0  0  0  0  0  0  0  0  0  0  0
   -1.8777    4.7096   -5.3657 C   0  0  0  0  0  0  0  0  0  0  0  0
   -2.3814    2.1467   -3.6252 C   0  0  0  0  0  0  0  0  0  0  0  0
   -1.9781    0.8287   -3.3144 C   0  0  0  0  0  0  0  0  0  0  0  0
   -2.8160   -0.2578   -3.5808 C   0  0  0  0  0  0  0  0  0  0  0  0
   -4.0793   -0.0499   -4.1344 C   0  0  0  0  0  0  0  0  0  0  0  0
   -4.5155    1.2470   -4.4041 C   0  0  0  0  0  0  0  0  0  0  0  0
   -3.6836    2.3394   -4.1376 C   0  0  0  0  0  0  0  0  0  0  0  0
   -1.4220    3.4608   -1.7375 C   0  0  0  0  0  0  0  0  0  0  0  0
   -0.1152    3.4163   -1.2608 C   0  0  0  0  0  0  0  0  0  0  0  0
    0.7518    3.1731   -2.3848 C   0  0  0  0  0  0  0  0  0  0  0  0
    2.1967    2.2833   -2.5005 S   0  0  0  0  0  0  0  0  0  0  0  0
    1.8740    1.8711   -4.1073 C   0  0  0  0  0  0  0  0  0  0  0  0
    2.3815    0.9117   -4.9620 C   0  0  0  0  0  0  0  0  0  0  0  0
    3.6223   -0.2106   -4.8841 S   0  0  0  0  0  0  0  0  0  0  0  0
    0.1891    3.3827    0.1042 C   0  0  0  0  0  0  0  0  0  0  0  0
   -0.8840    3.4512    1.0261 C   0  0  0  0  0  0  0  0  0  0  0  0
   -0.9273    3.4325    2.5744 C   0  0  0  0  0  0  0  0  0  0  0  0
    0.2892    2.9230    3.3764 C   0  0  0  0  0  0  0  0  0  0  0  0
    1.6193    3.2138    2.9936 C   0  0  0  0  0  0  0  0  0  0  0  0
    2.7073    2.7957    3.7685 C   0  0  0  0  0  0  0  0  0  0  0  0
    2.4915    2.1956    5.0067 C   0  0  0  0  0  0  0  0  0  0  0  0
    1.1944    2.1046    5.5034 C   0  0  0  0  0  0  0  0  0  0  0  0
    0.1170    2.5289    4.7209 C   0  0  0  0  0  0  0  0  0  0  0  0
   -1.1845    4.8627    3.0727 C   0  0  0  0  0  0  0  0  0  0  0  0
   -0.4567    5.9475    2.5390 C   0  0  0  0  0  0  0  0  0  0  0  0
   -0.6325    7.2408    3.0388 C   0  0  0  0  0  0  0  0  0  0  0  0
   -1.5182    7.4715    4.0928 C   0  0  0  0  0  0  0  0  0  0  0  0
   -2.2248    6.4081    4.6537 C   0  0  0  0  0  0  0  0  0  0  0  0
   -2.0531    5.1128    4.1595 C   0  0  0  0  0  0  0  0  0  0  0  0
   -2.2316    2.6138    2.6823 C   0  0  0  0  0  0  0  0  0  0  0  0
   -3.0341    2.8369    1.5699 C   0  0  0  0  0  0  0  0  0  0  0  0
   -2.1933    3.3667    0.5267 C   0  0  0  0  0  0  0  0  0  0  0  0
   -2.4924    3.3841   -0.8411 C   0  0  0  0  0  0  0  0  0  0  0  0
   -4.1986    1.6132    1.3687 S   0  0  0  0  0  0  0  0  0  0  0  0
   -3.6868    0.7781    2.7282 C   0  0  0  0  0  0  0  0  0  0  0  0
   -3.9903   -0.5007    3.1982 C   0  0  0  0  0  0  0  0  0  0  0  0
   -3.0799   -0.9074    4.1785 C   0  0  0  0  0  0  0  0  0  0  0  0
   -1.9703    0.3496    4.4381 S   0  0  0  0  0  0  0  0  0  0  0  0
   -2.6105    1.4037    3.3018 C   0  0  0  0  0  0  0  0  0  0  0  0
   -3.1839   -2.1587    4.9548 C   0  0  0  0  0  0  0  0  0  0  0  0
   -2.1490   -2.8049    5.5342 C   0  0  0  0  0  0  0  0  0  0  0  0
   -0.7290   -2.4376    5.4511 C   0  0  0  0  0  0  0  0  0  0  0  0
   -0.1533   -1.8972    4.4690 O   0  0  0  0  0  0  0  0  0  0  0  0
   -0.0534   -2.9708    6.6126 C   0  0  0  0  0  0  0  0  0  0  0  0
    1.2447   -2.7075    7.0488 C   0  0  0  0  0  0  0  0  0  0  0  0
    1.6637   -3.2637    8.2651 C   0  0  0  0  0  0  0  0  0  0  0  0
    3.2765   -2.9330    8.8672 Cl  0  0  0  0  0  0  0  0  0  0  0  0
    0.7812   -4.0603    9.0191 C   0  0  0  0  0  0  0  0  0  0  0  0
   -0.5239   -4.3073    8.5633 C   0  0  0  0  0  0  0  0  0  0  0  0
   -0.9316   -3.7605    7.3348 C   0  0  0  0  0  0  0  0  0  0  0  0
   -2.2450   -3.8184    6.6295 C   0  0  0  0  0  0  0  0  0  0  0  0
   -3.2241   -4.7420    6.8030 C   0  0  0  0  0  0  0  0  0  0  0  0
   -4.3151   -4.8843    5.8733 C   0  0  0  0  0  0  0  0  0  0  0  0
   -5.1916   -5.0075    5.1265 N   0  0  0  0  0  0  0  0  0  0  0  0
   -3.1799   -5.7334    7.8460 C   0  0  0  0  0  0  0  0  0  0  0  0
   -3.1614   -6.5367    8.6810 N   0  0  0  0  0  0  0  0  0  0  0  0
    4.1074   -2.0857   -7.8677 H   0  0  0  0  0  0  0  0  0  0  0  0
    3.6308   -4.9473   -2.3040 H   0  0  0  0  0  0  0  0  0  0  0  0
    6.4418   -7.9125   -3.7413 H   0  0  0  0  0  0  0  0  0  0  0  0
    6.3946   -6.8963   -5.9571 H   0  0  0  0  0  0  0  0  0  0  0  0
    1.3800   -0.8065   -7.6537 H   0  0  0  0  0  0  0  0  0  0  0  0
   -2.1382    5.8656   -2.1577 H   0  0  0  0  0  0  0  0  0  0  0  0
   -2.6928    7.9191   -3.3508 H   0  0  0  0  0  0  0  0  0  0  0  0
   -2.7296    7.9713   -5.8244 H   0  0  0  0  0  0  0  0  0  0  0  0
   -2.2023    5.9228   -7.1147 H   0  0  0  0  0  0  0  0  0  0  0  0
   -1.6571    3.8297   -5.9515 H   0  0  0  0  0  0  0  0  0  0  0  0
   -1.0166    0.6383   -2.8557 H   0  0  0  0  0  0  0  0  0  0  0  0
   -2.4876   -1.2629   -3.3483 H   0  0  0  0  0  0  0  0  0  0  0  0
   -4.7293   -0.8918   -4.3350 H   0  0  0  0  0  0  0  0  0  0  0  0
   -5.5064    1.4102   -4.8112 H   0  0  0  0  0  0  0  0  0  0  0  0
   -4.0744    3.3306   -4.3205 H   0  0  0  0  0  0  0  0  0  0  0  0
    1.2109    3.2155    0.3718 H   0  0  0  0  0  0  0  0  0  0  0  0
    1.8423    3.8769    2.1815 H   0  0  0  0  0  0  0  0  0  0  0  0
    3.7182    2.9971    3.4375 H   0  0  0  0  0  0  0  0  0  0  0  0
    3.3299    1.8880    5.6166 H   0  0  0  0  0  0  0  0  0  0  0  0
    1.0249    1.7502    6.5120 H   0  0  0  0  0  0  0  0  0  0  0  0
   -0.8506    2.5999    5.1920 H   0  0  0  0  0  0  0  0  0  0  0  0
    0.2554    5.7959    1.7386 H   0  0  0  0  0  0  0  0  0  0  0  0
   -0.0740    8.0638    2.6141 H   0  0  0  0  0  0  0  0  0  0  0  0
   -1.6511    8.4740    4.4798 H   0  0  0  0  0  0  0  0  0  0  0  0
   -2.9011    6.5851    5.4807 H   0  0  0  0  0  0  0  0  0  0  0  0
   -2.5976    4.3076    4.6360 H   0  0  0  0  0  0  0  0  0  0  0  0
   -3.5063    3.2511   -1.1940 H   0  0  0  0  0  0  0  0  0  0  0  0
   -4.7925   -1.1165    2.8110 H   0  0  0  0  0  0  0  0  0  0  0  0
   -4.1927   -2.4834    5.1449 H   0  0  0  0  0  0  0  0  0  0  0  0
    1.9026   -2.0631    6.4763 H   0  0  0  0  0  0  0  0  0  0  0  0
    1.1026   -4.4699    9.9681 H   0  0  0  0  0  0  0  0  0  0  0  0
   -1.1893   -4.8796    9.1900 H   0  0  0  0  0  0  0  0  0  0  0  0
  1  2  2  3
  2  3  1  0
  3  4  2  0
  3  5  1  0
  5  6  2  0
  6  7  1  0
  7  8  1  0
  8  9  1  0
  8 10  1  0
  8 11  1  0
  7 12  2  0
 12 13  1  0
 13 14  2  0
 14 15  1  0
 15 16  2  3
 16 17  1  0
 17 18  3  0
 16 19  1  0
 19 20  3  0
  1 21  1  0
 21 22  2  0
 22 23  1  0
 23 24  1  0
 24 25  1  0
 25 26  1  0
 26 27  1  0
 27 28  1  0
 28 29  2  0
 29 30  1  0
 30 31  2  0
 31 32  1  0
 32 33  2  0
 27 34  1  0
 34 35  2  0
 35 36  1  0
 36 37  2  0
 37 38  1  0
 38 39  2  0
 27 40  1  0
 40 41  2  0
 41 42  1  0
 42 43  1  0
 43 44  1  0
 44 45  1  0
 45 46  1  0
 41 47  1  0
 47 48  2  0
 48 49  1  0
 49 50  1  0
 50 51  2  0
 51 52  1  0
 52 53  2  0
 53 54  1  0
 54 55  2  0
 49 56  1  0
 56 57  2  0
 57 58  1  0
 58 59  2  0
 59 60  1  0
 60 61  2  0
 49 62  1  0
 62 63  2  0
 63 64  1  0
 64 65  2  0
 63 66  1  0
 66 67  1  0
 67 68  1  0
 68 69  2  0
 69 70  1  0
 70 71  1  0
 69 72  1  0
 72 73  2  3
 73 74  1  0
 74 75  2  0
 74 76  1  0
 76 77  2  0
 77 78  1  0
 78 79  1  0
 78 80  2  0
 80 81  1  0
 81 82  2  0
 82 83  1  0
 83 84  2  3
 84 85  1  0
 85 86  3  0
 84 87  1  0
 87 88  3  0
 15  2  1  0
 46 21  1  0
 64 48  1  0
 71 67  2  0
 83 73  1  0
 14  5  1  0
 45 23  2  0
 55 50  1  0
 61 56  1  0
 71 62  1  0
 82 76  1  0
 44 25  2  0
 42 26  2  0
 33 28  1  0
 39 34  1  0
 65 40  1  0
  1 89  1  0
  6 90  1  0
 12 91  1  0
 13 92  1  0
 22 93  1  0
 29 94  1  0
 30 95  1  0
 31 96  1  0
 32 97  1  0
 33 98  1  0
 35 99  1  0
 36100  1  0
 37101  1  0
 38102  1  0
 39103  1  0
 47104  1  0
 51105  1  0
 52106  1  0
 53107  1  0
 54108  1  0
 55109  1  0
 57110  1  0
 58111  1  0
 59112  1  0
 60113  1  0
 61114  1  0
 65115  1  0
 68116  1  0
 72117  1  0
 77118  1  0
 80119  1  0
 81120  1  0
M  END

