
     RDKit          3D

100111  0  0  0  0  0  0  0  0999 V2000
    3.9326   -0.2574   -6.3768 C   0  0  0  0  0  0  0  0  0  0  0  0
    2.8480   -0.4577   -7.1505 C   0  0  0  0  0  0  0  0  0  0  0  0
    1.5256   -0.8697   -6.6624 C   0  0  0  0  0  0  0  0  0  0  0  0
    1.2542   -1.3406   -5.5269 O   0  0  0  0  0  0  0  0  0  0  0  0
    0.5610   -0.6300   -7.7113 C   0  0  0  0  0  0  0  0  0  0  0  0
   -0.8239   -0.7781   -7.6488 C   0  0  0  0  0  0  0  0  0  0  0  0
   -1.5957   -0.4225   -8.7723 C   0  0  0  0  0  0  0  0  0  0  0  0
   -3.0936   -0.5843   -8.7145 C   0  0  0  0  0  0  0  0  0  0  0  0
   -3.5998    0.1602   -7.6644 F   0  0  0  0  0  0  0  0  0  0  0  0
   -3.7024   -0.1648   -9.8828 F   0  0  0  0  0  0  0  0  0  0  0  0
   -3.4065   -1.9152   -8.5148 F   0  0  0  0  0  0  0  0  0  0  0  0
   -0.9496    0.0898   -9.9218 C   0  0  0  0  0  0  0  0  0  0  0  0
    0.4454    0.2331   -9.9558 C   0  0  0  0  0  0  0  0  0  0  0  0
    1.2044   -0.1548   -8.8409 C   0  0  0  0  0  0  0  0  0  0  0  0
    2.6763   -0.1108   -8.5961 C   0  0  0  0  0  0  0  0  0  0  0  0
    3.6562    0.0062   -9.5352 C   0  0  0  0  0  0  0  0  0  0  0  0
    5.0431   -0.2392   -9.2391 C   0  0  0  0  0  0  0  0  0  0  0  0
    6.1626   -0.4342   -9.0157 N   0  0  0  0  0  0  0  0  0  0  0  0
    3.3806    0.2557  -10.9249 C   0  0  0  0  0  0  0  0  0  0  0  0
    3.1661    0.4508  -12.0463 N   0  0  0  0  0  0  0  0  0  0  0  0
    3.9351   -0.5284   -4.9339 C   0  0  0  0  0  0  0  0  0  0  0  0
    4.4754   -1.6734   -4.3181 C   0  0  0  0  0  0  0  0  0  0  0  0
    5.2005   -2.7767   -5.0364 C   0  0  0  0  0  0  0  0  0  0  0  0
    6.6622   -2.4051   -5.2445 C   0  0  0  0  0  0  0  0  0  0  0  0
    4.2286   -1.6541   -2.9462 C   0  0  0  0  0  0  0  0  0  0  0  0
    4.5375   -2.7521   -1.6669 S   0  0  0  0  0  0  0  0  0  0  0  0
    3.7182   -1.7367   -0.5772 C   0  0  0  0  0  0  0  0  0  0  0  0
    3.4319   -1.6380    0.7578 C   0  0  0  0  0  0  0  0  0  0  0  0
    3.7751   -2.4253    1.8624 C   0  0  0  0  0  0  0  0  0  0  0  0
    3.3659   -1.9969    3.1616 C   0  0  0  0  0  0  0  0  0  0  0  0
    3.7013   -2.7964    4.2049 N   0  0  0  0  0  0  0  0  0  0  0  0
    4.5177   -3.9882    3.3937 S   0  0  0  0  0  0  0  0  0  0  0  0
    4.4780   -3.5804    1.7883 N   0  0  0  0  0  0  0  0  0  0  0  0
    2.6089   -0.8222    3.2776 C   0  0  0  0  0  0  0  0  0  0  0  0
    1.8429   -0.3589    4.3103 C   0  0  0  0  0  0  0  0  0  0  0  0
    1.2953   -1.0173    5.7775 S   0  0  0  0  0  0  0  0  0  0  0  0
   -0.0952   -0.0332    5.7481 C   0  0  0  0  0  0  0  0  0  0  0  0
   -1.2621   -0.0084    6.5149 C   0  0  0  0  0  0  0  0  0  0  0  0
   -1.4613   -0.8131    7.7677 C   0  0  0  0  0  0  0  0  0  0  0  0
   -1.0698   -0.0043    8.9981 C   0  0  0  0  0  0  0  0  0  0  0  0
   -2.2353    0.8190    5.9223 C   0  0  0  0  0  0  0  0  0  0  0  0
   -1.6131    1.5087    4.4865 S   0  0  0  0  0  0  0  0  0  0  0  0
   -0.1349    0.7308    4.6106 C   0  0  0  0  0  0  0  0  0  0  0  0
    0.9652    0.5428    3.7825 C   0  0  0  0  0  0  0  0  0  0  0  0
    1.1155    0.6953    2.4396 N   0  0  0  0  0  0  0  0  0  0  0  0
    2.2083   -0.0815    2.1553 C   0  0  0  0  0  0  0  0  0  0  0  0
    2.7206   -0.4394    0.8913 C   0  0  0  0  0  0  0  0  0  0  0  0
    2.6862    0.2576   -0.2852 N   0  0  0  0  0  0  0  0  0  0  0  0
    3.2464   -0.6070   -1.1632 C   0  0  0  0  0  0  0  0  0  0  0  0
    3.5534   -0.5427   -2.5078 C   0  0  0  0  0  0  0  0  0  0  0  0
    3.1972    0.4897   -3.7776 S   0  0  0  0  0  0  0  0  0  0  0  0
    2.7089    1.7217   -0.4362 C   0  0  0  0  0  0  0  0  0  0  0  0
    4.1455    2.2375   -0.4739 C   0  0  0  0  0  0  0  0  0  0  0  0
   -0.0071    0.9698    1.5231 C   0  0  0  0  0  0  0  0  0  0  0  0
   -0.9199   -0.2526    1.3914 C   0  0  0  0  0  0  0  0  0  0  0  0
   -3.5850    1.0695    6.4634 C   0  0  0  0  0  0  0  0  0  0  0  0
   -4.6786    1.2707    5.7055 C   0  0  0  0  0  0  0  0  0  0  0  0
   -5.8365    2.0299    6.1769 C   0  0  0  0  0  0  0  0  0  0  0  0
   -6.0941    2.3099    7.3804 O   0  0  0  0  0  0  0  0  0  0  0  0
   -6.5688    2.5060    5.0131 C   0  0  0  0  0  0  0  0  0  0  0  0
   -7.6497    3.3943    4.9463 C   0  0  0  0  0  0  0  0  0  0  0  0
   -8.4268    4.0191    6.3900 Cl  0  0  0  0  0  0  0  0  0  0  0  0
   -8.1143    3.7906    3.6834 C   0  0  0  0  0  0  0  0  0  0  0  0
   -7.4802    3.3255    2.5187 C   0  0  0  0  0  0  0  0  0  0  0  0
   -6.3917    2.4442    2.6023 C   0  0  0  0  0  0  0  0  0  0  0  0
   -5.9603    2.0150    3.8662 C   0  0  0  0  0  0  0  0  0  0  0  0
   -4.8531    1.0959    4.2360 C   0  0  0  0  0  0  0  0  0  0  0  0
   -4.4317    0.0315    3.5078 C   0  0  0  0  0  0  0  0  0  0  0  0
   -3.7440   -1.0806    4.1165 C   0  0  0  0  0  0  0  0  0  0  0  0
   -3.1916   -1.9775    4.5987 N   0  0  0  0  0  0  0  0  0  0  0  0
   -4.7750   -0.1421    2.1217 C   0  0  0  0  0  0  0  0  0  0  0  0
   -5.0494   -0.2984    1.0079 N   0  0  0  0  0  0  0  0  0  0  0  0
    4.8354    0.1683   -6.7723 H   0  0  0  0  0  0  0  0  0  0  0  0
   -1.2922   -1.1521   -6.7451 H   0  0  0  0  0  0  0  0  0  0  0  0
   -1.5185    0.3898  -10.7909 H   0  0  0  0  0  0  0  0  0  0  0  0
    0.8872    0.6652  -10.8341 H   0  0  0  0  0  0  0  0  0  0  0  0
    4.7195   -2.9601   -6.0216 H   0  0  0  0  0  0  0  0  0  0  0  0
    5.1439   -3.7200   -4.4502 H   0  0  0  0  0  0  0  0  0  0  0  0
    6.7431   -1.4782   -5.8505 H   0  0  0  0  0  0  0  0  0  0  0  0
    7.1646   -2.2457   -4.2658 H   0  0  0  0  0  0  0  0  0  0  0  0
    7.1837   -3.2246   -5.7804 H   0  0  0  0  0  0  0  0  0  0  0  0
   -0.8423   -1.7344    7.7247 H   0  0  0  0  0  0  0  0  0  0  0  0
   -2.5235   -1.1290    7.8477 H   0  0  0  0  0  0  0  0  0  0  0  0
   -1.7130    0.8966    9.0896 H   0  0  0  0  0  0  0  0  0  0  0  0
   -0.0049    0.3096    8.9329 H   0  0  0  0  0  0  0  0  0  0  0  0
   -1.1994   -0.6281    9.9069 H   0  0  0  0  0  0  0  0  0  0  0  0
    2.2176    2.2220    0.4216 H   0  0  0  0  0  0  0  0  0  0  0  0
    2.1792    2.0135   -1.3689 H   0  0  0  0  0  0  0  0  0  0  0  0
    4.6847    1.9346    0.4474 H   0  0  0  0  0  0  0  0  0  0  0  0
    4.1477    3.3445   -0.5365 H   0  0  0  0  0  0  0  0  0  0  0  0
    4.6892    1.8358   -1.3532 H   0  0  0  0  0  0  0  0  0  0  0  0
    0.3407    1.2188    0.5072 H   0  0  0  0  0  0  0  0  0  0  0  0
   -0.5928    1.8414    1.8868 H   0  0  0  0  0  0  0  0  0  0  0  0
   -1.3119   -0.5755    2.3794 H   0  0  0  0  0  0  0  0  0  0  0  0
   -0.3602   -1.0988    0.9370 H   0  0  0  0  0  0  0  0  0  0  0  0
   -1.7809   -0.0040    0.7339 H   0  0  0  0  0  0  0  0  0  0  0  0
   -3.6544    1.2341    7.5330 H   0  0  0  0  0  0  0  0  0  0  0  0
   -8.9472    4.4780    3.5990 H   0  0  0  0  0  0  0  0  0  0  0  0
   -7.8264    3.6576    1.5471 H   0  0  0  0  0  0  0  0  0  0  0  0
   -5.8968    2.1416    1.6945 H   0  0  0  0  0  0  0  0  0  0  0  0
  1  2  2  3
  2  3  1  0
  3  4  2  0
  3  5  1  0
  5  6  2  0
  6  7  1  0
  7  8  1  0
  8  9  1  0
  8 10  1  0
  8 11  1  0
  7 12  2  0
 12 13  1  0
 13 14  2  0
 14 15  1  0
 15 16  2  3
 16 17  1  0
 17 18  3  0
 16 19  1  0
 19 20  3  0
  1 21  1  0
 21 22  2  0
 22 23  1  0
 23 24  1  0
 22 25  1  0
 25 26  1  0
 26 27  1  0
 27 28  1  0
 28 29  1  0
 29 30  1  0
 30 31  2  0
 31 32  1  0
 32 33  1  0
 30 34  1  0
 34 35  1  0
 35 36  1  0
 36 37  1  0
 37 38  1  0
 38 39  1  0
 39 40  1  0
 38 41  2  0
 41 42  1  0
 42 43  1  0
 43 44  1  0
 44 45  1  0
 45 46  1  0
 46 47  1  0
 47 48  1  0
 48 49  1  0
 49 50  1  0
 50 51  1  0
 48 52  1  0
 52 53  1  0
 45 54  1  0
 54 55  1  0
 41 56  1  0
 56 57  2  3
 57 58  1  0
 58 59  2  0
 58 60  1  0
 60 61  2  0
 61 62  1  0
 61 63  1  0
 63 64  2  0
 64 65  1  0
 65 66  2  0
 66 67  1  0
 67 68  2  3
 68 69  1  0
 69 70  3  0
 68 71  1  0
 71 72  3  0
 15  2  1  0
 51 21  1  0
 67 57  1  0
 14  5  1  0
 50 25  2  0
 66 60  1  0
 49 27  2  0
 47 28  2  0
 33 29  2  0
 46 34  2  0
 44 35  2  0
 43 37  2  0
  1 73  1  0
  6 74  1  0
 12 75  1  0
 13 76  1  0
 23 77  1  0
 23 78  1  0
 24 79  1  0
 24 80  1  0
 24 81  1  0
 39 82  1  0
 39 83  1  0
 40 84  1  0
 40 85  1  0
 40 86  1  0
 52 87  1  0
 52 88  1  0
 53 89  1  0
 53 90  1  0
 53 91  1  0
 54 92  1  0
 54 93  1  0
 55 94  1  0
 55 95  1  0
 55 96  1  0
 56 97  1  0
 63 98  1  0
 64 99  1  0
 65100  1  0
M  END

