
     RDKit          3D

126139  0  0  0  0  0  0  0  0999 V2000
    1.0945    4.2687   -3.4210 C   0  0  0  0  0  0  0  0  0  0  0  0
    0.8017    5.0277   -4.4931 C   0  0  0  0  0  0  0  0  0  0  0  0
   -0.4957    5.6463   -4.7747 C   0  0  0  0  0  0  0  0  0  0  0  0
   -1.3821    5.9406   -3.9285 O   0  0  0  0  0  0  0  0  0  0  0  0
   -0.5576    5.9459   -6.1879 C   0  0  0  0  0  0  0  0  0  0  0  0
   -1.6550    6.3836   -6.9293 C   0  0  0  0  0  0  0  0  0  0  0  0
   -1.5252    6.5044   -8.3266 C   0  0  0  0  0  0  0  0  0  0  0  0
   -2.6687    6.9652   -9.1419 C   0  0  0  0  0  0  0  0  0  0  0  0
   -2.6046    6.9340  -10.4001 O   0  0  0  0  0  0  0  0  0  0  0  0
   -3.8261    7.4349   -8.5128 O   0  0  0  0  0  0  0  0  0  0  0  0
   -4.9697    7.8768   -9.2366 C   0  0  0  0  0  0  0  0  0  0  0  0
   -0.3004    6.1518   -8.9397 C   0  0  0  0  0  0  0  0  0  0  0  0
    0.7876    5.7081   -8.1710 C   0  0  0  0  0  0  0  0  0  0  0  0
    0.6553    5.6382   -6.7771 C   0  0  0  0  0  0  0  0  0  0  0  0
    1.6174    5.1812   -5.7358 C   0  0  0  0  0  0  0  0  0  0  0  0
    2.9697    5.1341   -5.8436 C   0  0  0  0  0  0  0  0  0  0  0  0
    3.6592    5.4505   -7.0671 C   0  0  0  0  0  0  0  0  0  0  0  0
    4.2272    5.7057   -8.0431 N   0  0  0  0  0  0  0  0  0  0  0  0
    3.8267    4.9122   -4.7077 C   0  0  0  0  0  0  0  0  0  0  0  0
    4.5256    4.7363   -3.8010 N   0  0  0  0  0  0  0  0  0  0  0  0
    0.1220    3.8883   -2.3840 C   0  0  0  0  0  0  0  0  0  0  0  0
   -1.0987    3.2040   -2.5908 C   0  0  0  0  0  0  0  0  0  0  0  0
   -1.6112    2.7305   -3.8963 C   0  0  0  0  0  0  0  0  0  0  0  0
   -2.8270    3.2604   -4.3595 C   0  0  0  0  0  0  0  0  0  0  0  0
   -3.3607    2.8503   -5.5809 C   0  0  0  0  0  0  0  0  0  0  0  0
   -2.7043    1.8861   -6.3424 C   0  0  0  0  0  0  0  0  0  0  0  0
   -1.5154    1.3215   -5.8810 C   0  0  0  0  0  0  0  0  0  0  0  0
   -0.9495    1.7281   -4.6582 C   0  0  0  0  0  0  0  0  0  0  0  0
    0.2957    1.0140   -4.1708 C   0  0  0  0  0  0  0  0  0  0  0  0
    1.4825    1.2297   -5.1116 C   0  0  0  0  0  0  0  0  0  0  0  0
   -1.6604    2.8120   -1.3757 C   0  0  0  0  0  0  0  0  0  0  0  0
   -2.9376    1.7427   -0.9882 S   0  0  0  0  0  0  0  0  0  0  0  0
   -2.4476    1.7102    0.6370 C   0  0  0  0  0  0  0  0  0  0  0  0
   -2.6459    0.9433    1.7523 C   0  0  0  0  0  0  0  0  0  0  0  0
   -3.6239    0.0073    2.0856 C   0  0  0  0  0  0  0  0  0  0  0  0
   -3.5047   -0.6899    3.3250 C   0  0  0  0  0  0  0  0  0  0  0  0
   -4.4617   -1.6118    3.5975 N   0  0  0  0  0  0  0  0  0  0  0  0
   -5.4070   -1.4501    2.2460 S   0  0  0  0  0  0  0  0  0  0  0  0
   -4.6880   -0.2963    1.3013 N   0  0  0  0  0  0  0  0  0  0  0  0
   -2.3720   -0.4672    4.1299 C   0  0  0  0  0  0  0  0  0  0  0  0
   -1.8231   -1.2988    5.0705 C   0  0  0  0  0  0  0  0  0  0  0  0
   -2.1566   -2.9176    5.4616 S   0  0  0  0  0  0  0  0  0  0  0  0
   -0.5214   -3.2531    5.7390 C   0  0  0  0  0  0  0  0  0  0  0  0
    0.1742   -4.4616    5.7997 C   0  0  0  0  0  0  0  0  0  0  0  0
   -0.4566   -5.7930    5.8726 C   0  0  0  0  0  0  0  0  0  0  0  0
   -1.0183   -6.4357    4.7381 C   0  0  0  0  0  0  0  0  0  0  0  0
   -1.0670   -5.7860    3.3696 C   0  0  0  0  0  0  0  0  0  0  0  0
   -2.5053   -5.5742    2.8974 C   0  0  0  0  0  0  0  0  0  0  0  0
   -1.5037   -7.7502    4.8750 C   0  0  0  0  0  0  0  0  0  0  0  0
   -1.4535   -8.4069    6.1063 C   0  0  0  0  0  0  0  0  0  0  0  0
   -0.9051   -7.7683    7.2179 C   0  0  0  0  0  0  0  0  0  0  0  0
   -0.4048   -6.4710    7.1010 C   0  0  0  0  0  0  0  0  0  0  0  0
    1.5460   -4.2644    5.5983 C   0  0  0  0  0  0  0  0  0  0  0  0
    1.8628   -2.6119    5.3597 S   0  0  0  0  0  0  0  0  0  0  0  0
    0.2546   -2.1430    5.5023 C   0  0  0  0  0  0  0  0  0  0  0  0
   -0.4825   -1.0216    5.1077 C   0  0  0  0  0  0  0  0  0  0  0  0
   -0.1423    0.0093    4.2827 N   0  0  0  0  0  0  0  0  0  0  0  0
   -1.3377    0.3968    3.7256 C   0  0  0  0  0  0  0  0  0  0  0  0
   -1.5536    1.2162    2.5880 C   0  0  0  0  0  0  0  0  0  0  0  0
   -0.7715    2.2098    2.0646 N   0  0  0  0  0  0  0  0  0  0  0  0
   -1.3372    2.4514    0.8608 C   0  0  0  0  0  0  0  0  0  0  0  0
   -0.8958    3.1025   -0.2739 C   0  0  0  0  0  0  0  0  0  0  0  0
    0.5196    3.8678   -0.7271 S   0  0  0  0  0  0  0  0  0  0  0  0
    0.1049    3.1356    2.7899 C   0  0  0  0  0  0  0  0  0  0  0  0
   -0.5572    4.5038    2.9454 C   0  0  0  0  0  0  0  0  0  0  0  0
    1.2001    0.1718    3.6986 C   0  0  0  0  0  0  0  0  0  0  0  0
    2.1896    0.7349    4.7216 C   0  0  0  0  0  0  0  0  0  0  0  0
    2.5192   -5.3415    5.3661 C   0  0  0  0  0  0  0  0  0  0  0  0
    3.0406   -5.6101    4.1528 C   0  0  0  0  0  0  0  0  0  0  0  0
    2.6075   -5.0214    2.8758 C   0  0  0  0  0  0  0  0  0  0  0  0
    1.9002   -3.9908    2.7184 O   0  0  0  0  0  0  0  0  0  0  0  0
    3.0598   -5.8758    1.8015 C   0  0  0  0  0  0  0  0  0  0  0  0
    2.7894   -5.7555    0.4393 C   0  0  0  0  0  0  0  0  0  0  0  0
    3.2577   -6.7557   -0.4323 C   0  0  0  0  0  0  0  0  0  0  0  0
    2.9915   -6.6613   -1.9066 C   0  0  0  0  0  0  0  0  0  0  0  0
    3.9575   -7.8651    0.0931 C   0  0  0  0  0  0  0  0  0  0  0  0
    4.3741   -8.8598   -0.7286 F   0  0  0  0  0  0  0  0  0  0  0  0
    4.2102   -7.9647    1.4722 C   0  0  0  0  0  0  0  0  0  0  0  0
    3.7775   -6.9366    2.3224 C   0  0  0  0  0  0  0  0  0  0  0  0
    3.9044   -6.7767    3.7999 C   0  0  0  0  0  0  0  0  0  0  0  0
    4.8028   -7.3901    4.6138 C   0  0  0  0  0  0  0  0  0  0  0  0
    5.0466   -6.9353    5.9585 C   0  0  0  0  0  0  0  0  0  0  0  0
    5.2490   -6.5699    7.0372 N   0  0  0  0  0  0  0  0  0  0  0  0
    5.6778   -8.4368    4.1560 C   0  0  0  0  0  0  0  0  0  0  0  0
    6.3887   -9.2791    3.8037 N   0  0  0  0  0  0  0  0  0  0  0  0
    2.0660    3.8163   -3.3173 H   0  0  0  0  0  0  0  0  0  0  0  0
   -2.5900    6.6022   -6.4283 H   0  0  0  0  0  0  0  0  0  0  0  0
   -5.7572    8.1894   -8.5202 H   0  0  0  0  0  0  0  0  0  0  0  0
   -5.3631    7.0521   -9.8667 H   0  0  0  0  0  0  0  0  0  0  0  0
   -4.7020    8.7461   -9.8760 H   0  0  0  0  0  0  0  0  0  0  0  0
   -0.1869    6.2079  -10.0154 H   0  0  0  0  0  0  0  0  0  0  0  0
    1.6853    5.3974   -8.6788 H   0  0  0  0  0  0  0  0  0  0  0  0
   -3.3594    4.0019   -3.7761 H   0  0  0  0  0  0  0  0  0  0  0  0
   -4.2910    3.2760   -5.9349 H   0  0  0  0  0  0  0  0  0  0  0  0
   -3.1254    1.5635   -7.2865 H   0  0  0  0  0  0  0  0  0  0  0  0
   -1.0427    0.5473   -6.4723 H   0  0  0  0  0  0  0  0  0  0  0  0
    0.5871    1.3328   -3.1512 H   0  0  0  0  0  0  0  0  0  0  0  0
    0.0843   -0.0757   -4.1069 H   0  0  0  0  0  0  0  0  0  0  0  0
    1.5907    2.3000   -5.3750 H   0  0  0  0  0  0  0  0  0  0  0  0
    1.3477    0.6435   -6.0427 H   0  0  0  0  0  0  0  0  0  0  0  0
    2.4161    0.8873   -4.6178 H   0  0  0  0  0  0  0  0  0  0  0  0
   -0.5532   -4.8038    3.3592 H   0  0  0  0  0  0  0  0  0  0  0  0
   -0.5356   -6.4352    2.6415 H   0  0  0  0  0  0  0  0  0  0  0  0
   -2.5042   -5.0061    1.9412 H   0  0  0  0  0  0  0  0  0  0  0  0
   -3.0066   -6.5493    2.7184 H   0  0  0  0  0  0  0  0  0  0  0  0
   -3.0885   -5.0021    3.6481 H   0  0  0  0  0  0  0  0  0  0  0  0
   -1.9115   -8.2757    4.0212 H   0  0  0  0  0  0  0  0  0  0  0  0
   -1.8294   -9.4180    6.1952 H   0  0  0  0  0  0  0  0  0  0  0  0
   -0.8554   -8.2830    8.1693 H   0  0  0  0  0  0  0  0  0  0  0  0
    0.0374   -5.9963    7.9690 H   0  0  0  0  0  0  0  0  0  0  0  0
    0.2958    2.7550    3.8092 H   0  0  0  0  0  0  0  0  0  0  0  0
    1.0681    3.2445    2.2495 H   0  0  0  0  0  0  0  0  0  0  0  0
    0.0950    5.1638    3.5567 H   0  0  0  0  0  0  0  0  0  0  0  0
   -1.5387    4.3961    3.4558 H   0  0  0  0  0  0  0  0  0  0  0  0
   -0.7116    4.9823    1.9545 H   0  0  0  0  0  0  0  0  0  0  0  0
    1.5603   -0.8087    3.3269 H   0  0  0  0  0  0  0  0  0  0  0  0
    1.1931    0.8060    2.7973 H   0  0  0  0  0  0  0  0  0  0  0  0
    2.0229    1.8163    4.8838 H   0  0  0  0  0  0  0  0  0  0  0  0
    3.2249    0.5960    4.3472 H   0  0  0  0  0  0  0  0  0  0  0  0
    2.0934    0.2204    5.6980 H   0  0  0  0  0  0  0  0  0  0  0  0
    2.6813   -6.0222    6.1866 H   0  0  0  0  0  0  0  0  0  0  0  0
    2.2186   -4.9116    0.0701 H   0  0  0  0  0  0  0  0  0  0  0  0
    3.9535   -6.6651   -2.4623 H   0  0  0  0  0  0  0  0  0  0  0  0
    2.3795   -7.5286   -2.2321 H   0  0  0  0  0  0  0  0  0  0  0  0
    2.4431   -5.7297   -2.1627 H   0  0  0  0  0  0  0  0  0  0  0  0
    4.6967   -8.8484    1.8453 H   0  0  0  0  0  0  0  0  0  0  0  0
  1  2  2  3
  2  3  1  0
  3  4  2  0
  3  5  1  0
  5  6  2  0
  6  7  1  0
  7  8  1  0
  8  9  2  0
  8 10  1  0
 10 11  1  0
  7 12  2  0
 12 13  1  0
 13 14  2  0
 14 15  1  0
 15 16  2  3
 16 17  1  0
 17 18  3  0
 16 19  1  0
 19 20  3  0
  1 21  1  0
 21 22  2  0
 22 23  1  0
 23 24  2  0
 24 25  1  0
 25 26  2  0
 26 27  1  0
 27 28  2  0
 28 29  1  0
 29 30  1  0
 22 31  1  0
 31 32  1  0
 32 33  1  0
 33 34  1  0
 34 35  1  0
 35 36  1  0
 36 37  2  0
 37 38  1  0
 38 39  1  0
 36 40  1  0
 40 41  1  0
 41 42  1  0
 42 43  1  0
 43 44  1  0
 44 45  1  0
 45 46  2  0
 46 47  1  0
 47 48  1  0
 46 49  1  0
 49 50  2  0
 50 51  1  0
 51 52  2  0
 44 53  2  0
 53 54  1  0
 54 55  1  0
 55 56  1  0
 56 57  1  0
 57 58  1  0
 58 59  1  0
 59 60  1  0
 60 61  1  0
 61 62  1  0
 62 63  1  0
 60 64  1  0
 64 65  1  0
 57 66  1  0
 66 67  1  0
 53 68  1  0
 68 69  2  3
 69 70  1  0
 70 71  2  0
 70 72  1  0
 72 73  2  0
 73 74  1  0
 74 75  1  0
 74 76  2  0
 76 77  1  0
 76 78  1  0
 78 79  2  0
 79 80  1  0
 80 81  2  3
 81 82  1  0
 82 83  3  0
 81 84  1  0
 84 85  3  0
 15  2  1  0
 63 21  1  0
 80 69  1  0
 14  5  1  0
 28 23  1  0
 62 31  2  0
 79 72  1  0
 61 33  2  0
 59 34  2  0
 39 35  2  0
 58 40  2  0
 56 41  2  0
 55 43  2  0
 52 45  1  0
  1 86  1  0
  6 87  1  0
 11 88  1  0
 11 89  1  0
 11 90  1  0
 12 91  1  0
 13 92  1  0
 24 93  1  0
 25 94  1  0
 26 95  1  0
 27 96  1  0
 29 97  1  0
 29 98  1  0
 30 99  1  0
 30100  1  0
 30101  1  0
 47102  1  0
 47103  1  0
 48104  1  0
 48105  1  0
 48106  1  0
 49107  1  0
 50108  1  0
 51109  1  0
 52110  1  0
 64111  1  0
 64112  1  0
 65113  1  0
 65114  1  0
 65115  1  0
 66116  1  0
 66117  1  0
 67118  1  0
 67119  1  0
 67120  1  0
 68121  1  0
 73122  1  0
 75123  1  0
 75124  1  0
 75125  1  0
 78126  1  0
M  END

