
     RDKit          3D

 91102  0  0  0  0  0  0  0  0999 V2000
    5.8257   -0.5348    2.0733 C   0  0  0  0  0  0  0  0  0  0  0  0
    6.1589    0.6922    2.2188 C   0  0  0  0  0  0  0  0  0  0  0  0
    5.3729    1.6192    3.1867 C   0  0  0  0  0  0  0  0  0  0  0  0
    4.3997    1.2839    3.7771 O   0  0  0  0  0  0  0  0  0  0  0  0
    6.0928    2.8008    3.1122 C   0  0  0  0  0  0  0  0  0  0  0  0
    6.0632    4.1557    3.6196 C   0  0  0  0  0  0  0  0  0  0  0  0
    6.6388    5.1026    3.5391 C   0  0  0  0  0  0  0  0  0  0  0  0
    6.4455    6.5122    4.0868 C   0  0  0  0  0  0  0  0  0  0  0  0
    5.3622    6.8638    2.8061 O   0  0  0  0  0  0  0  0  0  0  0  0
    6.3863    7.4700    4.5629 O   0  0  0  0  0  0  0  0  0  0  0  0
    6.0490    8.7872    4.8409 C   0  0  0  0  0  0  0  0  0  0  0  0
    7.8684    5.1556    2.6338 C   0  0  0  0  0  0  0  0  0  0  0  0
    8.0378    3.8636    2.0479 C   0  0  0  0  0  0  0  0  0  0  0  0
    7.2490    2.7776    2.2373 C   0  0  0  0  0  0  0  0  0  0  0  0
    7.3028    1.4413    1.6555 C   0  0  0  0  0  0  0  0  0  0  0  0
    8.0864    0.9233    0.7010 C   0  0  0  0  0  0  0  0  0  0  0  0
    8.0392   -0.2870   -0.0033 C   0  0  0  0  0  0  0  0  0  0  0  0
    7.9997   -1.2639   -0.5760 N   0  0  0  0  0  0  0  0  0  0  0  0
    9.5091    1.4194    0.9087 C   0  0  0  0  0  0  0  0  0  0  0  0
   10.6654    1.8323    1.0630 N   0  0  0  0  0  0  0  0  0  0  0  0
    4.6195   -1.0108    2.8385 C   0  0  0  0  0  0  0  0  0  0  0  0
    3.6461   -1.3246    3.3832 C   0  0  0  0  0  0  0  0  0  0  0  0
    2.5172   -1.6194    3.9137 C   0  0  0  0  0  0  0  0  0  0  0  0
    1.0184   -2.1003    4.7195 S   0  0  0  0  0  0  0  0  0  0  0  0
   -0.2362   -1.4437    3.7991 C   0  0  0  0  0  0  0  0  0  0  0  0
   -1.5961   -1.3233    3.3593 C   0  0  0  0  0  0  0  0  0  0  0  0
   -2.7670   -1.9160    3.8897 C   0  0  0  0  0  0  0  0  0  0  0  0
   -3.9198   -1.6990    3.0120 C   0  0  0  0  0  0  0  0  0  0  0  0
   -5.0037   -2.3657    3.4992 N   0  0  0  0  0  0  0  0  0  0  0  0
   -4.4805   -3.1603    4.9435 S   0  0  0  0  0  0  0  0  0  0  0  0
   -2.9470   -2.6058    4.7872 N   0  0  0  0  0  0  0  0  0  0  0  0
   -3.9534   -1.0314    1.7965 C   0  0  0  0  0  0  0  0  0  0  0  0
   -4.9238   -0.9993    0.7827 C   0  0  0  0  0  0  0  0  0  0  0  0
   -4.0917   -0.3823   -0.3184 C   0  0  0  0  0  0  0  0  0  0  0  0
   -2.9143   -0.1214    0.1090 N   0  0  0  0  0  0  0  0  0  0  0  0
   -1.9978    0.5213   -0.8606 C   0  0  0  0  0  0  0  0  0  0  0  0
   -1.2809   -0.5152   -1.7344 C   0  0  0  0  0  0  0  0  0  0  0  0
   -2.7639   -0.4942    1.3795 C   0  0  0  0  0  0  0  0  0  0  0  0
   -1.6375   -0.6024    2.1442 C   0  0  0  0  0  0  0  0  0  0  0  0
   -0.3875   -0.2347    1.8397 N   0  0  0  0  0  0  0  0  0  0  0  0
    0.4105   -0.7588    2.7721 C   0  0  0  0  0  0  0  0  0  0  0  0
    1.7193   -0.8793    2.9080 C   0  0  0  0  0  0  0  0  0  0  0  0
    3.0969   -0.0931    1.6576 Se  0  0  0  0  0  2  0  0  0  0  0  0
   -0.0728    0.7920    0.9279 C   0  0  0  0  0  0  0  0  0  0  0  0
   -0.4641    2.2428    1.4655 C   0  0  0  0  0  0  0  0  0  0  0  0
   -5.1146   -0.4530   -1.2490 C   0  0  0  0  0  0  0  0  0  0  0  0
   -5.7583   -0.5081   -1.7986 C   0  0  0  0  0  0  0  0  0  0  0  0
   -6.4563   -1.2428    0.0221 S   0  0  0  0  0  0  0  0  0  0  0  0
   -6.7361   -0.6377   -2.9022 C   0  0  0  0  0  0  0  0  0  0  0  0
   -5.9583   -0.9230   -4.0141 C   0  0  0  0  0  0  0  0  0  0  0  0
   -4.1106   -0.9218   -3.3556 Se  0  0  0  0  0  2  0  0  0  0  0  0
   -5.8615   -1.3640   -5.4136 C   0  0  0  0  0  0  0  0  0  0  0  0
   -6.0331   -2.7081   -5.5003 C   0  0  0  0  0  0  0  0  0  0  0  0
   -6.3544   -3.6415   -4.3658 C   0  0  0  0  0  0  0  0  0  0  0  0
   -7.0412   -3.1868   -3.4764 O   0  0  0  0  0  0  0  0  0  0  0  0
   -5.7303   -4.8552   -4.6705 C   0  0  0  0  0  0  0  0  0  0  0  0
   -5.5549   -6.0610   -4.0817 C   0  0  0  0  0  0  0  0  0  0  0  0
   -5.0808   -7.1249   -4.0601 C   0  0  0  0  0  0  0  0  0  0  0  0
   -4.9038   -8.6334   -3.2547 Cl  0  0  0  0  0  0  0  0  0  0  0  0
   -4.1344   -7.1392   -5.4866 C   0  0  0  0  0  0  0  0  0  0  0  0
   -3.2711   -8.5385   -5.6821 Cl  0  0  0  0  0  0  0  0  0  0  0  0
   -4.3190   -5.9788   -6.0960 C   0  0  0  0  0  0  0  0  0  0  0  0
   -5.0219   -4.8341   -5.8761 C   0  0  0  0  0  0  0  0  0  0  0  0
   -5.1624   -3.4776   -6.5173 C   0  0  0  0  0  0  0  0  0  0  0  0
   -4.5847   -3.0613   -7.5275 C   0  0  0  0  0  0  0  0  0  0  0  0
   -4.3616   -1.9133   -8.2448 C   0  0  0  0  0  0  0  0  0  0  0  0
   -4.1425   -0.8832   -8.8768 N   0  0  0  0  0  0  0  0  0  0  0  0
   -4.1394   -4.2623   -8.4500 C   0  0  0  0  0  0  0  0  0  0  0  0
   -3.8047   -5.1365   -9.1330 N   0  0  0  0  0  0  0  0  0  0  0  0
    6.3292   -1.2529    1.4905 H   0  0  0  0  0  0  0  0  0  0  0  0
    5.0513    4.1157    4.3272 H   0  0  0  0  0  0  0  0  0  0  0  0
    6.6043    9.4994    4.1238 H   0  0  0  0  0  0  0  0  0  0  0  0
    4.9772    8.9046    4.5085 H   0  0  0  0  0  0  0  0  0  0  0  0
    6.0917    9.1251    5.8980 H   0  0  0  0  0  0  0  0  0  0  0  0
    8.4016    5.9860    2.5499 H   0  0  0  0  0  0  0  0  0  0  0  0
    8.9031    3.7930    1.3845 H   0  0  0  0  0  0  0  0  0  0  0  0
    4.4026   -2.1430    4.3364 H   0  0  0  0  0  0  0  0  0  0  0  0
   -2.7760    0.8685   -1.7165 H   0  0  0  0  0  0  0  0  0  0  0  0
   -1.6605    1.5013   -0.7842 H   0  0  0  0  0  0  0  0  0  0  0  0
   -1.3382   -0.3100   -2.8561 H   0  0  0  0  0  0  0  0  0  0  0  0
   -0.1040   -0.4768   -1.6477 H   0  0  0  0  0  0  0  0  0  0  0  0
   -1.5172   -1.5723   -1.4910 H   0  0  0  0  0  0  0  0  0  0  0  0
    1.0816    1.0817    1.3677 H   0  0  0  0  0  0  0  0  0  0  0  0
    0.3521    0.7263    0.0010 H   0  0  0  0  0  0  0  0  0  0  0  0
   -0.1697    2.3853    2.4908 H   0  0  0  0  0  0  0  0  0  0  0  0
   -1.5698    2.3192    1.3883 H   0  0  0  0  0  0  0  0  0  0  0  0
    0.0387    2.9087    0.7083 H   0  0  0  0  0  0  0  0  0  0  0  0
   -7.7374   -0.5401   -2.9418 H   0  0  0  0  0  0  0  0  0  0  0  0
   -5.6771   -0.7025   -6.1767 H   0  0  0  0  0  0  0  0  0  0  0  0
   -6.2935   -5.9402   -3.0162 H   0  0  0  0  0  0  0  0  0  0  0  0
   -3.6604   -5.9364   -7.0044 H   0  0  0  0  0  0  0  0  0  0  0  0
  1  2  2  3
  2  3  1  0
  3  4  2  0
  3  5  1  0
  5  6  2  0
  6  7  1  0
  7  8  1  0
  8  9  2  0
  8 10  1  0
 10 11  1  0
  7 12  2  0
 12 13  1  0
 13 14  2  0
 14 15  1  0
 15 16  2  3
 16 17  1  0
 17 18  3  0
 16 19  1  0
 19 20  3  0
  1 21  1  0
 21 22  2  0
 22 23  1  0
 23 24  1  0
 24 25  1  0
 25 26  1  0
 26 27  1  0
 27 28  1  0
 28 29  2  0
 29 30  1  0
 30 31  1  0
 28 32  1  0
 32 33  1  0
 33 34  2  0
 34 35  1  0
 35 36  1  0
 36 37  1  0
 35 38  1  0
 38 39  1  0
 39 40  1  0
 40 41  1  0
 41 42  1  0
 42 43  1  0
 40 44  1  0
 44 45  1  0
 34 46  1  0
 46 47  2  0
 47 48  1  0
 47 49  1  0
 49 50  2  0
 50 51  1  0
 50 52  1  0
 52 53  2  3
 53 54  1  0
 54 55  2  0
 54 56  1  0
 56 57  2  0
 57 58  1  0
 58 59  1  0
 58 60  2  0
 60 61  1  0
 60 62  1  0
 62 63  2  0
 63 64  1  0
 64 65  2  3
 65 66  1  0
 66 67  3  0
 65 68  1  0
 68 69  3  0
 15  2  1  0
 43 21  1  0
 51 46  1  0
 64 53  1  0
 14  5  1  0
 42 23  2  0
 63 56  1  0
 41 25  2  0
 39 26  2  0
 31 27  2  0
 38 32  2  0
 48 33  1  0
  1 70  1  0
  6 71  1  0
 11 72  1  0
 11 73  1  0
 11 74  1  0
 12 75  1  0
 13 76  1  0
 22 77  1  0
 36 78  1  0
 36 79  1  0
 37 80  1  0
 37 81  1  0
 37 82  1  0
 44 83  1  0
 44 84  1  0
 45 85  1  0
 45 86  1  0
 45 87  1  0
 49 88  1  0
 52 89  1  0
 57 90  1  0
 62 91  1  0
M  END

