
     RDKit          3D

103114  0  0  0  0  0  0  0  0999 V2000
    0.3199    3.4742   -5.3703 C   0  0  0  0  0  0  0  0  0  0  0  0
    1.3348    4.3962   -5.4490 C   0  0  0  0  0  0  0  0  0  0  0  0
    1.2271    5.5517   -4.5114 C   0  0  0  0  0  0  0  0  0  0  0  0
    0.1752    5.9094   -3.9728 O   0  0  0  0  0  0  0  0  0  0  0  0
    2.5601    6.1259   -4.3993 C   0  0  0  0  0  0  0  0  0  0  0  0
    3.0723    7.0422   -3.5308 C   0  0  0  0  0  0  0  0  0  0  0  0
    4.4177    7.3303   -3.3994 C   0  0  0  0  0  0  0  0  0  0  0  0
    4.8980    8.1919   -2.3426 C   0  0  0  0  0  0  0  0  0  0  0  0
    4.0121    8.6412   -1.4948 O   0  0  0  0  0  0  0  0  0  0  0  0
    6.1696    8.5991   -2.0657 O   0  0  0  0  0  0  0  0  0  0  0  0
    6.4956    9.3940   -0.9764 C   0  0  0  0  0  0  0  0  0  0  0  0
    5.2875    6.6286   -4.2294 C   0  0  0  0  0  0  0  0  0  0  0  0
    4.7483    5.6896   -5.1251 C   0  0  0  0  0  0  0  0  0  0  0  0
    3.4384    5.4027   -5.2278 C   0  0  0  0  0  0  0  0  0  0  0  0
    2.6607    4.3146   -5.8983 C   0  0  0  0  0  0  0  0  0  0  0  0
    3.1737    3.4761   -6.8468 C   0  0  0  0  0  0  0  0  0  0  0  0
    4.4175    3.4556   -7.2022 C   0  0  0  0  0  0  0  0  0  0  0  0
    5.7158    3.4527   -7.5818 N   0  0  0  0  0  0  0  0  0  0  0  0
    2.2251    2.6574   -7.4752 C   0  0  0  0  0  0  0  0  0  0  0  0
    1.3099    1.8504   -8.0684 N   0  0  0  0  0  0  0  0  0  0  0  0
   -0.7856    3.4838   -4.5866 C   0  0  0  0  0  0  0  0  0  0  0  0
   -2.2275    3.2646   -4.7650 C   0  0  0  0  0  0  0  0  0  0  0  0
   -2.8320    3.4339   -6.0077 C   0  0  0  0  0  0  0  0  0  0  0  0
   -3.0311    4.8795   -6.4718 C   0  0  0  0  0  0  0  0  0  0  0  0
   -2.3872    2.8852   -3.4103 C   0  0  0  0  0  0  0  0  0  0  0  0
   -4.2407    1.9464   -3.3459 S   0  0  0  0  0  0  0  0  0  0  0  0
   -4.0748    1.5663   -1.6840 C   0  0  0  0  0  0  0  0  0  0  0  0
   -4.5223    0.7296   -0.6506 C   0  0  0  0  0  0  0  0  0  0  0  0
   -5.5941   -0.1432   -0.6120 C   0  0  0  0  0  0  0  0  0  0  0  0
   -5.6733   -1.0073    0.4037 C   0  0  0  0  0  0  0  0  0  0  0  0
   -6.7011   -1.8561    0.5047 N   0  0  0  0  0  0  0  0  0  0  0  0
   -7.7299   -1.3384   -1.1155 Se  0  0  0  0  0  2  0  0  0  0  0  0
   -6.5833   -0.1501   -1.5363 N   0  0  0  0  0  0  0  0  0  0  0  0
   -4.6435   -1.0046    1.3890 C   0  0  0  0  0  0  0  0  0  0  0  0
   -4.2809   -2.0084    2.2721 C   0  0  0  0  0  0  0  0  0  0  0  0
   -4.6485   -3.5680    2.8627 S   0  0  0  0  0  0  0  0  0  0  0  0
   -3.1744   -3.9093    3.7350 C   0  0  0  0  0  0  0  0  0  0  0  0
   -2.5904   -4.9806    4.3832 C   0  0  0  0  0  0  0  0  0  0  0  0
   -3.3239   -6.2651    4.5756 C   0  0  0  0  0  0  0  0  0  0  0  0
   -4.2380   -6.3457    5.7213 C   0  0  0  0  0  0  0  0  0  0  0  0
   -1.3149   -4.8176    4.7824 C   0  0  0  0  0  0  0  0  0  0  0  0
   -0.9876   -3.2294    4.2744 S   0  0  0  0  0  0  0  0  0  0  0  0
   -2.5135   -2.8027    3.5158 C   0  0  0  0  0  0  0  0  0  0  0  0
   -3.0247   -1.7832    2.7788 C   0  0  0  0  0  0  0  0  0  0  0  0
   -2.6064   -0.5626    2.2013 N   0  0  0  0  0  0  0  0  0  0  0  0
   -3.5880   -0.1384    1.3812 C   0  0  0  0  0  0  0  0  0  0  0  0
   -3.5095    0.8015    0.3192 C   0  0  0  0  0  0  0  0  0  0  0  0
   -2.5700    1.6302   -0.0893 N   0  0  0  0  0  0  0  0  0  0  0  0
   -2.8954    2.0854   -1.3503 C   0  0  0  0  0  0  0  0  0  0  0  0
   -2.3758    2.6537   -2.4980 C   0  0  0  0  0  0  0  0  0  0  0  0
   -0.5172    3.1141   -2.7995 S   0  0  0  0  0  0  0  0  0  0  0  0
   -1.5082    2.2518    0.6641 C   0  0  0  0  0  0  0  0  0  0  0  0
   -0.0933    2.0431    0.4029 C   0  0  0  0  0  0  0  0  0  0  0  0
   -1.3087   -0.1026    2.5680 C   0  0  0  0  0  0  0  0  0  0  0  0
   -0.2747   -0.7905    1.6449 C   0  0  0  0  0  0  0  0  0  0  0  0
   -0.2693   -5.7187    5.2968 C   0  0  0  0  0  0  0  0  0  0  0  0
    0.3129   -6.5465    4.4228 C   0  0  0  0  0  0  0  0  0  0  0  0
   -0.0878   -6.5542    2.9903 C   0  0  0  0  0  0  0  0  0  0  0  0
   -0.9988   -5.8953    2.4446 O   0  0  0  0  0  0  0  0  0  0  0  0
    0.7594   -7.4739    2.2797 C   0  0  0  0  0  0  0  0  0  0  0  0
    0.8100   -7.7563    0.9069 C   0  0  0  0  0  0  0  0  0  0  0  0
   -0.3495   -7.0074   -0.1816 Cl  0  0  0  0  0  0  0  0  0  0  0  0
    1.7432   -8.6036    0.3789 C   0  0  0  0  0  0  0  0  0  0  0  0
    2.6332   -9.1909    1.2157 C   0  0  0  0  0  0  0  0  0  0  0  0
    2.5717   -8.8966    2.5959 C   0  0  0  0  0  0  0  0  0  0  0  0
    1.6525   -8.0478    3.1430 C   0  0  0  0  0  0  0  0  0  0  0  0
    1.4076   -7.4875    4.4919 C   0  0  0  0  0  0  0  0  0  0  0  0
    2.2405   -7.6202    5.5408 C   0  0  0  0  0  0  0  0  0  0  0  0
    2.2345   -6.9314    6.6739 C   0  0  0  0  0  0  0  0  0  0  0  0
    2.2214   -6.2659    7.8087 N   0  0  0  0  0  0  0  0  0  0  0  0
    3.3124   -8.5464    5.4250 C   0  0  0  0  0  0  0  0  0  0  0  0
    4.3004   -9.3739    5.3296 N   0  0  0  0  0  0  0  0  0  0  0  0
    0.4896    2.6443   -6.0415 H   0  0  0  0  0  0  0  0  0  0  0  0
    2.3575    7.5811   -2.9045 H   0  0  0  0  0  0  0  0  0  0  0  0
    7.5799    9.6650   -1.0069 H   0  0  0  0  0  0  0  0  0  0  0  0
    5.9463   10.3564   -1.0812 H   0  0  0  0  0  0  0  0  0  0  0  0
    6.3193    8.9300    0.0206 H   0  0  0  0  0  0  0  0  0  0  0  0
    6.3326    6.8363   -4.1603 H   0  0  0  0  0  0  0  0  0  0  0  0
    5.4745    5.1775   -5.7318 H   0  0  0  0  0  0  0  0  0  0  0  0
   -2.2957    2.8658   -6.8486 H   0  0  0  0  0  0  0  0  0  0  0  0
   -3.8870    2.9721   -6.1263 H   0  0  0  0  0  0  0  0  0  0  0  0
   -2.6175    5.5805   -5.7288 H   0  0  0  0  0  0  0  0  0  0  0  0
   -2.5788    4.9865   -7.4757 H   0  0  0  0  0  0  0  0  0  0  0  0
   -4.1081    5.1303   -6.6088 H   0  0  0  0  0  0  0  0  0  0  0  0
   -3.8980   -6.4476    3.6042 H   0  0  0  0  0  0  0  0  0  0  0  0
   -2.6278   -7.1358    4.5845 H   0  0  0  0  0  0  0  0  0  0  0  0
   -4.5167   -5.3493    6.1269 H   0  0  0  0  0  0  0  0  0  0  0  0
   -3.8623   -7.0372    6.5154 H   0  0  0  0  0  0  0  0  0  0  0  0
   -5.1863   -6.8766    5.3678 H   0  0  0  0  0  0  0  0  0  0  0  0
   -1.8537    2.4188    1.7190 H   0  0  0  0  0  0  0  0  0  0  0  0
   -1.6666    3.3914    0.3596 H   0  0  0  0  0  0  0  0  0  0  0  0
    0.4211    3.0423    0.0552 H   0  0  0  0  0  0  0  0  0  0  0  0
    0.4823    1.9087    1.3686 H   0  0  0  0  0  0  0  0  0  0  0  0
    0.2300    1.2784   -0.2904 H   0  0  0  0  0  0  0  0  0  0  0  0
   -1.0758    0.9215    2.7055 H   0  0  0  0  0  0  0  0  0  0  0  0
   -1.1014   -0.5638    3.6198 H   0  0  0  0  0  0  0  0  0  0  0  0
    0.7131   -0.3859    1.7450 H   0  0  0  0  0  0  0  0  0  0  0  0
   -0.5985   -0.6870    0.5508 H   0  0  0  0  0  0  0  0  0  0  0  0
   -0.3957   -1.8763    1.8110 H   0  0  0  0  0  0  0  0  0  0  0  0
   -0.0161   -5.7057    6.2863 H   0  0  0  0  0  0  0  0  0  0  0  0
    1.7983   -8.8226   -0.7020 H   0  0  0  0  0  0  0  0  0  0  0  0
    3.3991   -9.8655    0.8180 H   0  0  0  0  0  0  0  0  0  0  0  0
    3.2828   -9.4000    3.1903 H   0  0  0  0  0  0  0  0  0  0  0  0
  1  2  2  3
  2  3  1  0
  3  4  2  0
  3  5  1  0
  5  6  2  0
  6  7  1  0
  7  8  1  0
  8  9  2  0
  8 10  1  0
 10 11  1  0
  7 12  2  0
 12 13  1  0
 13 14  2  0
 14 15  1  0
 15 16  2  3
 16 17  1  0
 17 18  3  0
 16 19  1  0
 19 20  3  0
  1 21  1  0
 21 22  2  0
 22 23  1  0
 23 24  1  0
 22 25  1  0
 25 26  1  0
 26 27  1  0
 27 28  1  0
 28 29  1  0
 29 30  1  0
 30 31  2  0
 31 32  1  0
 32 33  1  0
 30 34  1  0
 34 35  1  0
 35 36  1  0
 36 37  1  0
 37 38  1  0
 38 39  1  0
 39 40  1  0
 38 41  2  0
 41 42  1  0
 42 43  1  0
 43 44  1  0
 44 45  1  0
 45 46  1  0
 46 47  1  0
 47 48  1  0
 48 49  1  0
 49 50  1  0
 50 51  1  0
 48 52  1  0
 52 53  1  0
 45 54  1  0
 54 55  1  0
 41 56  1  0
 56 57  2  3
 57 58  1  0
 58 59  2  0
 58 60  1  0
 60 61  2  0
 61 62  1  0
 61 63  1  0
 63 64  2  0
 64 65  1  0
 65 66  2  0
 66 67  1  0
 67 68  2  3
 68 69  1  0
 69 70  3  0
 68 71  1  0
 71 72  3  0
 15  2  1  0
 51 21  1  0
 67 57  1  0
 14  5  1  0
 50 25  2  0
 66 60  1  0
 49 27  2  0
 47 28  2  0
 33 29  2  0
 46 34  2  0
 44 35  2  0
 43 37  2  0
  1 73  1  0
  6 74  1  0
 11 75  1  0
 11 76  1  0
 11 77  1  0
 12 78  1  0
 13 79  1  0
 23 80  1  0
 23 81  1  0
 24 82  1  0
 24 83  1  0
 24 84  1  0
 39 85  1  0
 39 86  1  0
 40 87  1  0
 40 88  1  0
 40 89  1  0
 52 90  1  0
 52 91  1  0
 53 92  1  0
 53 93  1  0
 53 94  1  0
 54 95  1  0
 54 96  1  0
 55 97  1  0
 55 98  1  0
 55 99  1  0
 56100  1  0
 63101  1  0
 64102  1  0
 65103  1  0
M  END

