
     RDKit          3D

102113  0  0  0  0  0  0  0  0999 V2000
    5.2559    4.3679    1.2404 C   0  0  0  0  0  0  0  0  0  0  0  0
    4.6078    5.3119    1.9497 C   0  0  0  0  0  0  0  0  0  0  0  0
    5.3218    6.3901    2.6329 C   0  0  0  0  0  0  0  0  0  0  0  0
    6.5000    6.7719    2.3869 O   0  0  0  0  0  0  0  0  0  0  0  0
    4.4686    6.9175    3.6740 C   0  0  0  0  0  0  0  0  0  0  0  0
    4.7777    7.8706    4.6426 C   0  0  0  0  0  0  0  0  0  0  0  0
    3.7967    8.2065    5.5961 C   0  0  0  0  0  0  0  0  0  0  0  0
    4.0809    9.2397    6.6134 C   0  0  0  0  0  0  0  0  0  0  0  0
    3.1331    9.7618    7.2664 O   0  0  0  0  0  0  0  0  0  0  0  0
    5.4044    9.6276    6.8609 O   0  0  0  0  0  0  0  0  0  0  0  0
    5.7412   10.6914    7.7496 C   0  0  0  0  0  0  0  0  0  0  0  0
    2.5372    7.5686    5.5454 C   0  0  0  0  0  0  0  0  0  0  0  0
    2.2606    6.5852    4.5778 C   0  0  0  0  0  0  0  0  0  0  0  0
    3.2408    6.2804    3.6238 C   0  0  0  0  0  0  0  0  0  0  0  0
    3.2056    5.3538    2.4537 C   0  0  0  0  0  0  0  0  0  0  0  0
    2.1003    5.0390    1.7325 C   0  0  0  0  0  0  0  0  0  0  0  0
    0.7668    5.2208    2.2407 C   0  0  0  0  0  0  0  0  0  0  0  0
   -0.3109    5.3642    2.6403 N   0  0  0  0  0  0  0  0  0  0  0  0
    2.1864    4.6528    0.3467 C   0  0  0  0  0  0  0  0  0  0  0  0
    2.2455    4.3444   -0.7678 N   0  0  0  0  0  0  0  0  0  0  0  0
    4.7911    2.9914    0.9502 C   0  0  0  0  0  0  0  0  0  0  0  0
    5.4745    2.1310    0.0771 C   0  0  0  0  0  0  0  0  0  0  0  0
    6.5472    2.5799   -0.7102 O   0  0  0  0  0  0  0  0  0  0  0  0
    7.1606    1.8684   -1.7826 C   0  0  0  0  0  0  0  0  0  0  0  0
    6.2598    1.8718   -3.0149 C   0  0  0  0  0  0  0  0  0  0  0  0
    4.9373    0.8341    0.1124 C   0  0  0  0  0  0  0  0  0  0  0  0
    5.2573   -0.6141   -0.7197 S   0  0  0  0  0  0  0  0  0  0  0  0
    3.9749   -1.4026    0.0515 C   0  0  0  0  0  0  0  0  0  0  0  0
    3.1528   -2.4231   -0.3053 C   0  0  0  0  0  0  0  0  0  0  0  0
    3.2983   -3.3143   -1.3730 C   0  0  0  0  0  0  0  0  0  0  0  0
    2.1797   -4.0745   -1.7833 C   0  0  0  0  0  0  0  0  0  0  0  0
    2.3483   -4.9014   -2.8448 N   0  0  0  0  0  0  0  0  0  0  0  0
    3.9397   -4.6029   -3.1866 S   0  0  0  0  0  0  0  0  0  0  0  0
    4.4450   -3.4812   -2.0798 N   0  0  0  0  0  0  0  0  0  0  0  0
    0.9804   -3.9167   -1.0935 C   0  0  0  0  0  0  0  0  0  0  0  0
   -0.2105   -4.5383   -1.2763 C   0  0  0  0  0  0  0  0  0  0  0  0
   -0.9070   -5.6739   -2.3188 S   0  0  0  0  0  0  0  0  0  0  0  0
   -2.3783   -5.5926   -1.4571 C   0  0  0  0  0  0  0  0  0  0  0  0
   -3.6441   -6.1724   -1.6216 C   0  0  0  0  0  0  0  0  0  0  0  0
   -4.0629   -7.0089   -2.6700 O   0  0  0  0  0  0  0  0  0  0  0  0
   -3.4188   -7.1335   -3.9372 C   0  0  0  0  0  0  0  0  0  0  0  0
   -3.4981   -5.8309   -4.7256 C   0  0  0  0  0  0  0  0  0  0  0  0
   -4.5094   -5.7867   -0.5937 C   0  0  0  0  0  0  0  0  0  0  0  0
   -3.7385   -4.6902    0.4540 S   0  0  0  0  0  0  0  0  0  0  0  0
   -2.2779   -4.7439   -0.3758 C   0  0  0  0  0  0  0  0  0  0  0  0
   -1.0339   -4.1244   -0.2940 C   0  0  0  0  0  0  0  0  0  0  0  0
   -0.4456   -3.2380    0.5511 N   0  0  0  0  0  0  0  0  0  0  0  0
    0.8176   -3.0560    0.0135 C   0  0  0  0  0  0  0  0  0  0  0  0
    1.9343   -2.2231    0.3831 C   0  0  0  0  0  0  0  0  0  0  0  0
    2.0102   -1.0466    1.1115 N   0  0  0  0  0  0  0  0  0  0  0  0
    3.2763   -0.5916    0.8820 C   0  0  0  0  0  0  0  0  0  0  0  0
    3.8511    0.6809    0.9411 C   0  0  0  0  0  0  0  0  0  0  0  0
    3.5469    2.1252    1.7391 S   0  0  0  0  0  0  0  0  0  0  0  0
    0.9351   -0.1924    1.6254 C   0  0  0  0  0  0  0  0  0  0  0  0
    0.0469    0.3283    0.4970 C   0  0  0  0  0  0  0  0  0  0  0  0
   -0.9907   -2.8917    1.8706 C   0  0  0  0  0  0  0  0  0  0  0  0
   -0.0676   -3.3655    2.9959 C   0  0  0  0  0  0  0  0  0  0  0  0
   -5.9269   -6.1548   -0.5192 C   0  0  0  0  0  0  0  0  0  0  0  0
   -6.8597   -5.5410   -1.2716 C   0  0  0  0  0  0  0  0  0  0  0  0
   -6.6129   -4.3782   -2.1632 C   0  0  0  0  0  0  0  0  0  0  0  0
   -5.5340   -3.7423   -2.3055 O   0  0  0  0  0  0  0  0  0  0  0  0
   -7.8543   -4.0733   -2.8297 C   0  0  0  0  0  0  0  0  0  0  0  0
   -8.2630   -3.0998   -3.7342 C   0  0  0  0  0  0  0  0  0  0  0  0
   -9.6214   -3.2423   -4.0211 C   0  0  0  0  0  0  0  0  0  0  0  0
  -10.5408   -2.2012   -5.0848 Cl  0  0  0  0  0  0  0  0  0  0  0  0
  -10.2752   -4.5503   -3.1508 S   0  0  0  0  0  0  0  0  0  0  0  0
   -8.8127   -4.9358   -2.4185 C   0  0  0  0  0  0  0  0  0  0  0  0
   -8.3140   -5.9040   -1.4262 C   0  0  0  0  0  0  0  0  0  0  0  0
   -9.0465   -6.8863   -0.8489 C   0  0  0  0  0  0  0  0  0  0  0  0
  -10.4354   -7.0721   -1.1874 C   0  0  0  0  0  0  0  0  0  0  0  0
  -11.5495   -7.2267   -1.4610 N   0  0  0  0  0  0  0  0  0  0  0  0
   -8.5142   -7.8068    0.1174 C   0  0  0  0  0  0  0  0  0  0  0  0
   -8.1027   -8.5567    0.8991 N   0  0  0  0  0  0  0  0  0  0  0  0
    6.2841    4.5758    0.9600 H   0  0  0  0  0  0  0  0  0  0  0  0
    5.7565    8.3364    4.6511 H   0  0  0  0  0  0  0  0  0  0  0  0
    5.2498   10.5373    8.7386 H   0  0  0  0  0  0  0  0  0  0  0  0
    5.4142   11.6610    7.3119 H   0  0  0  0  0  0  0  0  0  0  0  0
    6.8490   10.7153    7.8878 H   0  0  0  0  0  0  0  0  0  0  0  0
    1.7696    7.7979    6.2749 H   0  0  0  0  0  0  0  0  0  0  0  0
    1.3109    6.0715    4.6109 H   0  0  0  0  0  0  0  0  0  0  0  0
    8.1123    2.3852   -2.0455 H   0  0  0  0  0  0  0  0  0  0  0  0
    7.4320    0.8387   -1.4748 H   0  0  0  0  0  0  0  0  0  0  0  0
    6.7908    1.4073   -3.8707 H   0  0  0  0  0  0  0  0  0  0  0  0
    5.3290    1.3035   -2.8214 H   0  0  0  0  0  0  0  0  0  0  0  0
    5.9943    2.9165   -3.2838 H   0  0  0  0  0  0  0  0  0  0  0  0
   -2.3715   -7.4803   -3.8145 H   0  0  0  0  0  0  0  0  0  0  0  0
   -3.9448   -7.9124   -4.5149 H   0  0  0  0  0  0  0  0  0  0  0  0
   -2.9462   -5.0283   -4.2080 H   0  0  0  0  0  0  0  0  0  0  0  0
   -3.0528   -5.9742   -5.7350 H   0  0  0  0  0  0  0  0  0  0  0  0
   -4.5607   -5.5193   -4.8426 H   0  0  0  0  0  0  0  0  0  0  0  0
    0.3780   -0.6953    2.4223 H   0  0  0  0  0  0  0  0  0  0  0  0
    1.3561    0.6807    2.1563 H   0  0  0  0  0  0  0  0  0  0  0  0
   -0.4745   -0.5032   -0.0150 H   0  0  0  0  0  0  0  0  0  0  0  0
    0.6661    0.8703   -0.2442 H   0  0  0  0  0  0  0  0  0  0  0  0
   -0.7104    1.0248    0.9023 H   0  0  0  0  0  0  0  0  0  0  0  0
   -1.9580   -3.4081    2.0350 H   0  0  0  0  0  0  0  0  0  0  0  0
   -1.2629   -1.8234    1.9121 H   0  0  0  0  0  0  0  0  0  0  0  0
    0.1176   -4.4533    2.8957 H   0  0  0  0  0  0  0  0  0  0  0  0
    0.9077   -2.8421    2.9650 H   0  0  0  0  0  0  0  0  0  0  0  0
   -0.5421   -3.1744    3.9774 H   0  0  0  0  0  0  0  0  0  0  0  0
   -6.1592   -6.9988    0.1069 H   0  0  0  0  0  0  0  0  0  0  0  0
   -7.6182   -2.3361   -4.1459 H   0  0  0  0  0  0  0  0  0  0  0  0
  1  2  2  3
  2  3  1  0
  3  4  2  0
  3  5  1  0
  5  6  2  0
  6  7  1  0
  7  8  1  0
  8  9  2  0
  8 10  1  0
 10 11  1  0
  7 12  2  0
 12 13  1  0
 13 14  2  0
 14 15  1  0
 15 16  2  3
 16 17  1  0
 17 18  3  0
 16 19  1  0
 19 20  3  0
  1 21  1  0
 21 22  2  0
 22 23  1  0
 23 24  1  0
 24 25  1  0
 22 26  1  0
 26 27  1  0
 27 28  1  0
 28 29  1  0
 29 30  1  0
 30 31  1  0
 31 32  2  0
 32 33  1  0
 33 34  1  0
 31 35  1  0
 35 36  1  0
 36 37  1  0
 37 38  1  0
 38 39  1  0
 39 40  1  0
 40 41  1  0
 41 42  1  0
 39 43  2  0
 43 44  1  0
 44 45  1  0
 45 46  1  0
 46 47  1  0
 47 48  1  0
 48 49  1  0
 49 50  1  0
 50 51  1  0
 51 52  1  0
 52 53  1  0
 50 54  1  0
 54 55  1  0
 47 56  1  0
 56 57  1  0
 43 58  1  0
 58 59  2  3
 59 60  1  0
 60 61  2  0
 60 62  1  0
 62 63  1  0
 63 64  2  0
 64 65  1  0
 64 66  1  0
 66 67  1  0
 67 68  1  0
 68 69  2  3
 69 70  1  0
 70 71  3  0
 69 72  1  0
 72 73  3  0
 15  2  1  0
 53 21  1  0
 68 59  1  0
 14  5  1  0
 52 26  2  0
 67 62  2  0
 51 28  2  0
 49 29  2  0
 34 30  2  0
 48 35  2  0
 46 36  2  0
 45 38  2  0
  1 74  1  0
  6 75  1  0
 11 76  1  0
 11 77  1  0
 11 78  1  0
 12 79  1  0
 13 80  1  0
 24 81  1  0
 24 82  1  0
 25 83  1  0
 25 84  1  0
 25 85  1  0
 41 86  1  0
 41 87  1  0
 42 88  1  0
 42 89  1  0
 42 90  1  0
 54 91  1  0
 54 92  1  0
 55 93  1  0
 55 94  1  0
 55 95  1  0
 56 96  1  0
 56 97  1  0
 57 98  1  0
 57 99  1  0
 57100  1  0
 58101  1  0
 63102  1  0
M  END

