
     RDKit          3D

157174  0  0  0  0  0  0  0  0999 V2000
   -5.2049    6.2460   -4.5864 C   0  0  0  0  0  0  0  0  0  0  0  0
   -5.9272    6.9896   -3.7118 C   0  0  0  0  0  0  0  0  0  0  0  0
   -5.4835    7.5483   -2.4308 C   0  0  0  0  0  0  0  0  0  0  0  0
   -4.3913    8.1301   -2.2050 O   0  0  0  0  0  0  0  0  0  0  0  0
   -6.6151    7.5652   -1.5311 C   0  0  0  0  0  0  0  0  0  0  0  0
   -6.6176    7.8040   -0.1572 C   0  0  0  0  0  0  0  0  0  0  0  0
   -7.8307    7.6679    0.5522 C   0  0  0  0  0  0  0  0  0  0  0  0
   -7.8608    7.8890    2.0170 C   0  0  0  0  0  0  0  0  0  0  0  0
   -8.9231    7.6874    2.6693 O   0  0  0  0  0  0  0  0  0  0  0  0
   -6.7042    8.3261    2.6803 O   0  0  0  0  0  0  0  0  0  0  0  0
   -6.6443    8.4922    4.0928 C   0  0  0  0  0  0  0  0  0  0  0  0
   -9.0009    7.2872   -0.1454 C   0  0  0  0  0  0  0  0  0  0  0  0
   -8.9686    7.0522   -1.5292 C   0  0  0  0  0  0  0  0  0  0  0  0
   -7.7581    7.2146   -2.2198 C   0  0  0  0  0  0  0  0  0  0  0  0
   -7.4186    6.9994   -3.6534 C   0  0  0  0  0  0  0  0  0  0  0  0
   -8.2658    7.0538   -4.7081 C   0  0  0  0  0  0  0  0  0  0  0  0
   -9.6861    7.2226   -4.5444 C   0  0  0  0  0  0  0  0  0  0  0  0
  -10.8295    7.3610   -4.4308 N   0  0  0  0  0  0  0  0  0  0  0  0
   -7.7830    7.1327   -6.0620 C   0  0  0  0  0  0  0  0  0  0  0  0
   -7.4055    7.2010   -7.1553 N   0  0  0  0  0  0  0  0  0  0  0  0
   -3.8142    5.7606   -4.4164 C   0  0  0  0  0  0  0  0  0  0  0  0
   -3.2470    4.7889   -5.2599 C   0  0  0  0  0  0  0  0  0  0  0  0
   -2.0424    4.3067   -4.7488 C   0  0  0  0  0  0  0  0  0  0  0  0
   -1.1640    2.8957   -5.0631 S   0  0  0  0  0  0  0  0  0  0  0  0
   -0.2140    3.0832   -3.6627 C   0  0  0  0  0  0  0  0  0  0  0  0
    0.3599    2.1101   -2.7699 C   0  0  0  0  0  0  0  0  0  0  0  0
    0.7975    0.8105   -3.0397 C   0  0  0  0  0  0  0  0  0  0  0  0
    1.1362    0.0041   -1.9380 C   0  0  0  0  0  0  0  0  0  0  0  0
    1.6716   -1.4318   -1.9417 C   0  0  0  0  0  0  0  0  0  0  0  0
    3.1052   -1.5249   -2.4764 C   0  0  0  0  0  0  0  0  0  0  0  0
    3.5932   -2.7366   -3.0055 C   0  0  0  0  0  0  0  0  0  0  0  0
    4.9385   -2.8730   -3.3608 C   0  0  0  0  0  0  0  0  0  0  0  0
    5.8341   -1.8171   -3.1714 C   0  0  0  0  0  0  0  0  0  0  0  0
    7.2877   -1.9735   -3.5304 C   0  0  0  0  0  0  0  0  0  0  0  0
    7.5412   -1.5511   -4.9725 C   0  0  0  0  0  0  0  0  0  0  0  0
    5.3640   -0.6077   -2.6450 C   0  0  0  0  0  0  0  0  0  0  0  0
    4.0194   -0.4628   -2.2933 C   0  0  0  0  0  0  0  0  0  0  0  0
    0.6658   -2.3268   -2.6802 C   0  0  0  0  0  0  0  0  0  0  0  0
    0.6575   -2.3377   -4.0893 C   0  0  0  0  0  0  0  0  0  0  0  0
   -0.2952   -3.0694   -4.7960 C   0  0  0  0  0  0  0  0  0  0  0  0
   -1.2671   -3.8138   -4.1140 C   0  0  0  0  0  0  0  0  0  0  0  0
   -2.3035   -4.5860   -4.8867 C   0  0  0  0  0  0  0  0  0  0  0  0
   -3.4307   -3.6678   -5.3569 C   0  0  0  0  0  0  0  0  0  0  0  0
   -1.2918   -3.7876   -2.7125 C   0  0  0  0  0  0  0  0  0  0  0  0
   -0.3457   -3.0436   -2.0021 C   0  0  0  0  0  0  0  0  0  0  0  0
    1.7222   -1.6661   -0.4489 C   0  0  0  0  0  0  0  0  0  0  0  0
    1.3103   -0.5739    0.2629 C   0  0  0  0  0  0  0  0  0  0  0  0
    0.9758    0.4949   -0.6367 C   0  0  0  0  0  0  0  0  0  0  0  0
    0.5698    1.8050   -0.3648 C   0  0  0  0  0  0  0  0  0  0  0  0
    0.2881    2.6236   -1.4711 C   0  0  0  0  0  0  0  0  0  0  0  0
   -0.2351    4.0531   -1.4567 C   0  0  0  0  0  0  0  0  0  0  0  0
   -1.4192    4.1408   -0.4839 C   0  0  0  0  0  0  0  0  0  0  0  0
   -2.6192    3.4588   -0.7629 C   0  0  0  0  0  0  0  0  0  0  0  0
   -3.6636    3.4406    0.1651 C   0  0  0  0  0  0  0  0  0  0  0  0
   -3.5236    4.0677    1.4090 C   0  0  0  0  0  0  0  0  0  0  0  0
   -4.6241    3.9831    2.4382 C   0  0  0  0  0  0  0  0  0  0  0  0
   -5.1228    5.3645    2.8594 C   0  0  0  0  0  0  0  0  0  0  0  0
   -2.3172    4.7142    1.7128 C   0  0  0  0  0  0  0  0  0  0  0  0
   -1.2805    4.7487    0.7802 C   0  0  0  0  0  0  0  0  0  0  0  0
    0.8589    5.1020   -1.2111 C   0  0  0  0  0  0  0  0  0  0  0  0
    2.2028    4.7527   -0.9325 C   0  0  0  0  0  0  0  0  0  0  0  0
    3.1782    5.7409   -0.7584 C   0  0  0  0  0  0  0  0  0  0  0  0
    2.8391    7.0962   -0.8435 C   0  0  0  0  0  0  0  0  0  0  0  0
    3.8860    8.1582   -0.6377 C   0  0  0  0  0  0  0  0  0  0  0  0
    4.1442    8.3803    0.8474 C   0  0  0  0  0  0  0  0  0  0  0  0
    1.5086    7.4540   -1.0941 C   0  0  0  0  0  0  0  0  0  0  0  0
    0.5334    6.4722   -1.2843 C   0  0  0  0  0  0  0  0  0  0  0  0
   -0.6335    4.1576   -2.9174 C   0  0  0  0  0  0  0  0  0  0  0  0
   -1.6488    4.8543   -3.5630 C   0  0  0  0  0  0  0  0  0  0  0  0
   -2.7998    5.9486   -3.0558 S   0  0  0  0  0  0  0  0  0  0  0  0
    1.3340   -0.8059    1.9508 S   0  0  0  0  0  0  0  0  0  0  0  0
    1.9252   -2.3794    1.7014 C   0  0  0  0  0  0  0  0  0  0  0  0
    2.4119   -3.6297    2.6928 S   0  0  0  0  0  0  0  0  0  0  0  0
    2.9614   -4.6001    1.3883 C   0  0  0  0  0  0  0  0  0  0  0  0
    2.6919   -3.9500    0.1755 C   0  0  0  0  0  0  0  0  0  0  0  0
    2.1163   -2.6983    0.3882 C   0  0  0  0  0  0  0  0  0  0  0  0
    3.5210   -5.9701    1.4626 C   0  0  0  0  0  0  0  0  0  0  0  0
    3.9556   -6.5924    2.5768 C   0  0  0  0  0  0  0  0  0  0  0  0
    3.9382   -8.0479    2.7087 C   0  0  0  0  0  0  0  0  0  0  0  0
    3.9668   -8.8793    1.7590 O   0  0  0  0  0  0  0  0  0  0  0  0
    3.8422   -8.3805    4.1173 C   0  0  0  0  0  0  0  0  0  0  0  0
    3.6589   -9.6616    4.6925 C   0  0  0  0  0  0  0  0  0  0  0  0
    3.4735   -9.6324    6.0645 C   0  0  0  0  0  0  0  0  0  0  0  0
    3.4616   -8.4167    6.8269 C   0  0  0  0  0  0  0  0  0  0  0  0
    3.6695   -7.1647    6.2749 C   0  0  0  0  0  0  0  0  0  0  0  0
    3.8847   -7.1774    4.8703 C   0  0  0  0  0  0  0  0  0  0  0  0
    4.1450   -6.0439    3.9488 C   0  0  0  0  0  0  0  0  0  0  0  0
    4.8921   -4.9516    4.2477 C   0  0  0  0  0  0  0  0  0  0  0  0
    5.1286   -4.5318    5.6032 C   0  0  0  0  0  0  0  0  0  0  0  0
    5.2973   -4.1793    6.6951 N   0  0  0  0  0  0  0  0  0  0  0  0
    5.5669   -4.2035    3.2152 C   0  0  0  0  0  0  0  0  0  0  0  0
    6.1028   -3.6198    2.3709 N   0  0  0  0  0  0  0  0  0  0  0  0
    3.1600   -9.1823    8.0764 C   0  0  0  0  0  0  0  0  0  0  0  0
    1.7019   -9.1309    8.6275 C   0  0  0  0  0  0  0  0  0  0  0  0
    0.7181   -8.9798    7.4880 C   0  0  0  0  0  0  0  0  0  0  0  0
    0.7475  -10.1281    6.8026 C   0  0  0  0  0  0  0  0  0  0  0  0
    1.7614  -11.0126    7.4915 C   0  0  0  0  0  0  0  0  0  0  0  0
    1.4935  -10.6040    8.9333 C   0  0  0  0  0  0  0  0  0  0  0  0
    3.1939  -10.4312    7.3008 C   0  0  0  0  0  0  0  0  0  0  0  0
   -5.7243    5.7931   -5.4154 H   0  0  0  0  0  0  0  0  0  0  0  0
   -5.6958    8.0614    0.3480 H   0  0  0  0  0  0  0  0  0  0  0  0
   -6.8106    7.5145    4.5963 H   0  0  0  0  0  0  0  0  0  0  0  0
   -7.4140    9.2189    4.4257 H   0  0  0  0  0  0  0  0  0  0  0  0
   -5.6435    8.8717    4.3751 H   0  0  0  0  0  0  0  0  0  0  0  0
   -9.9392    7.1674    0.3829 H   0  0  0  0  0  0  0  0  0  0  0  0
   -9.8648    6.7136   -2.0203 H   0  0  0  0  0  0  0  0  0  0  0  0
   -3.7321    4.3727   -6.1328 H   0  0  0  0  0  0  0  0  0  0  0  0
    0.8672    0.4520   -4.0550 H   0  0  0  0  0  0  0  0  0  0  0  0
    2.9457   -3.5956   -3.1165 H   0  0  0  0  0  0  0  0  0  0  0  0
    5.2834   -3.8164   -3.7679 H   0  0  0  0  0  0  0  0  0  0  0  0
    7.9100   -1.3601   -2.8456 H   0  0  0  0  0  0  0  0  0  0  0  0
    7.6049   -3.0296   -3.4020 H   0  0  0  0  0  0  0  0  0  0  0  0
    7.0818   -2.2762   -5.6765 H   0  0  0  0  0  0  0  0  0  0  0  0
    8.6373   -1.5347   -5.1647 H   0  0  0  0  0  0  0  0  0  0  0  0
    7.1355   -0.5309   -5.1721 H   0  0  0  0  0  0  0  0  0  0  0  0
    6.0407    0.2249   -2.4973 H   0  0  0  0  0  0  0  0  0  0  0  0
    3.7068    0.4790   -1.8620 H   0  0  0  0  0  0  0  0  0  0  0  0
    1.3937   -1.7748   -4.6483 H   0  0  0  0  0  0  0  0  0  0  0  0
   -0.2723   -3.0678   -5.8780 H   0  0  0  0  0  0  0  0  0  0  0  0
   -1.8237   -5.0627   -5.7681 H   0  0  0  0  0  0  0  0  0  0  0  0
   -2.7325   -5.3979   -4.2601 H   0  0  0  0  0  0  0  0  0  0  0  0
   -3.9983   -3.2771   -4.4828 H   0  0  0  0  0  0  0  0  0  0  0  0
   -3.0252   -2.8153   -5.9432 H   0  0  0  0  0  0  0  0  0  0  0  0
   -4.1244   -4.2368   -6.0105 H   0  0  0  0  0  0  0  0  0  0  0  0
   -2.0540   -4.3305   -2.1702 H   0  0  0  0  0  0  0  0  0  0  0  0
   -0.4205   -3.0258   -0.9220 H   0  0  0  0  0  0  0  0  0  0  0  0
    0.4752    2.1668    0.6493 H   0  0  0  0  0  0  0  0  0  0  0  0
   -2.7457    2.9228   -1.6928 H   0  0  0  0  0  0  0  0  0  0  0  0
   -4.5664    2.9009   -0.0797 H   0  0  0  0  0  0  0  0  0  0  0  0
   -4.2437    3.4338    3.3292 H   0  0  0  0  0  0  0  0  0  0  0  0
   -5.4858    3.4046    2.0359 H   0  0  0  0  0  0  0  0  0  0  0  0
   -5.3973    5.9678    1.9632 H   0  0  0  0  0  0  0  0  0  0  0  0
   -4.3375    5.8978    3.4426 H   0  0  0  0  0  0  0  0  0  0  0  0
   -6.0149    5.2489    3.5092 H   0  0  0  0  0  0  0  0  0  0  0  0
   -2.1689    5.1815    2.6783 H   0  0  0  0  0  0  0  0  0  0  0  0
   -0.3581    5.2280    1.0751 H   0  0  0  0  0  0  0  0  0  0  0  0
    2.5191    3.7197   -0.8684 H   0  0  0  0  0  0  0  0  0  0  0  0
    4.2010    5.4439   -0.5509 H   0  0  0  0  0  0  0  0  0  0  0  0
    3.5656    9.1193   -1.1026 H   0  0  0  0  0  0  0  0  0  0  0  0
    4.8317    7.8585   -1.1402 H   0  0  0  0  0  0  0  0  0  0  0  0
    3.2201    8.7447    1.3450 H   0  0  0  0  0  0  0  0  0  0  0  0
    4.4761    7.4326    1.3300 H   0  0  0  0  0  0  0  0  0  0  0  0
    4.9418    9.1412    0.9811 H   0  0  0  0  0  0  0  0  0  0  0  0
    1.2248    8.4963   -1.1589 H   0  0  0  0  0  0  0  0  0  0  0  0
   -0.4873    6.7766   -1.4684 H   0  0  0  0  0  0  0  0  0  0  0  0
    2.9057   -4.3599   -0.8005 H   0  0  0  0  0  0  0  0  0  0  0  0
    3.4366   -6.5586    0.5560 H   0  0  0  0  0  0  0  0  0  0  0  0
    3.6252  -10.5738    4.1116 H   0  0  0  0  0  0  0  0  0  0  0  0
    3.6133   -6.2672    6.8702 H   0  0  0  0  0  0  0  0  0  0  0  0
    3.9585   -9.1101    8.8480 H   0  0  0  0  0  0  0  0  0  0  0  0
    1.5484   -8.4337    9.4788 H   0  0  0  0  0  0  0  0  0  0  0  0
    0.0325   -8.1577    7.3195 H   0  0  0  0  0  0  0  0  0  0  0  0
    0.0872  -10.3940    5.9859 H   0  0  0  0  0  0  0  0  0  0  0  0
    1.6598  -12.0983    7.2743 H   0  0  0  0  0  0  0  0  0  0  0  0
    2.2342  -11.0154    9.6617 H   0  0  0  0  0  0  0  0  0  0  0  0
    0.4581  -10.8426    9.2738 H   0  0  0  0  0  0  0  0  0  0  0  0
    4.0202  -11.1164    7.5927 H   0  0  0  0  0  0  0  0  0  0  0  0
  1  2  2  3
  2  3  1  0
  3  4  2  0
  3  5  1  0
  5  6  2  0
  6  7  1  0
  7  8  1  0
  8  9  2  0
  8 10  1  0
 10 11  1  0
  7 12  2  0
 12 13  1  0
 13 14  2  0
 14 15  1  0
 15 16  2  3
 16 17  1  0
 17 18  3  0
 16 19  1  0
 19 20  3  0
  1 21  1  0
 21 22  2  0
 22 23  1  0
 23 24  1  0
 24 25  1  0
 25 26  1  0
 26 27  2  0
 27 28  1  0
 28 29  1  0
 29 30  1  0
 30 31  2  0
 31 32  1  0
 32 33  2  0
 33 34  1  0
 34 35  1  0
 33 36  1  0
 36 37  2  0
 29 38  1  0
 38 39  2  0
 39 40  1  0
 40 41  2  0
 41 42  1  0
 42 43  1  0
 41 44  1  0
 44 45  2  0
 29 46  1  0
 46 47  2  0
 47 48  1  0
 48 49  1  0
 49 50  2  0
 50 51  1  0
 51 52  1  0
 52 53  2  0
 53 54  1  0
 54 55  2  0
 55 56  1  0
 56 57  1  0
 55 58  1  0
 58 59  2  0
 51 60  1  0
 60 61  2  0
 61 62  1  0
 62 63  2  0
 63 64  1  0
 64 65  1  0
 63 66  1  0
 66 67  2  0
 51 68  1  0
 68 69  1  0
 69 70  1  0
 47 71  1  0
 71 72  1  0
 72 73  1  0
 73 74  1  0
 74 75  2  0
 75 76  1  0
 74 77  1  0
 77 78  2  3
 78 79  1  0
 79 80  2  0
 79 81  1  0
 81 82  2  0
 82 83  1  0
 83 84  2  0
 84 85  1  0
 85 86  2  0
 86 87  1  0
 87 88  2  3
 88 89  1  0
 89 90  3  0
 88 91  1  0
 91 92  3  0
 84 93  1  0
 93 94  1  0
 94 95  1  0
 95 96  2  0
 96 97  1  0
 97 98  1  0
 97 99  1  0
 15  2  1  0
 70 21  1  0
 76 72  2  0
 87 78  1  0
 99 93  1  0
 14  5  1  0
 69 23  2  0
 86 81  1  0
 98 94  1  0
 68 25  2  0
 99 83  1  0
 50 26  1  0
 59 52  1  0
 67 60  1  0
 48 28  2  0
 37 30  1  0
 45 38  1  0
 76 46  1  0
  1100  1  0
  6101  1  0
 11102  1  0
 11103  1  0
 11104  1  0
 12105  1  0
 13106  1  0
 22107  1  0
 27108  1  0
 31109  1  0
 32110  1  0
 34111  1  0
 34112  1  0
 35113  1  0
 35114  1  0
 35115  1  0
 36116  1  0
 37117  1  0
 39118  1  0
 40119  1  0
 42120  1  0
 42121  1  0
 43122  1  0
 43123  1  0
 43124  1  0
 44125  1  0
 45126  1  0
 49127  1  0
 53128  1  0
 54129  1  0
 56130  1  0
 56131  1  0
 57132  1  0
 57133  1  0
 57134  1  0
 58135  1  0
 59136  1  0
 61137  1  0
 62138  1  0
 64139  1  0
 64140  1  0
 65141  1  0
 65142  1  0
 65143  1  0
 66144  1  0
 67145  1  0
 75146  1  0
 77147  1  0
 82148  1  0
 85149  1  0
 93150  1  0
 94151  1  0
 95152  1  0
 96153  1  0
 97154  1  0
 98155  1  0
 98156  1  0
 99157  1  0
M  END

