
     RDKit          3D

103114  0  0  0  0  0  0  0  0999 V2000
   -0.1500   -4.3848    5.1100 C   0  0  0  0  0  0  0  0  0  0  0  0
   -0.9984   -3.7148    5.9144 C   0  0  0  0  0  0  0  0  0  0  0  0
   -1.7186   -2.4746    5.5919 C   0  0  0  0  0  0  0  0  0  0  0  0
   -2.0014   -2.0456    4.4440 O   0  0  0  0  0  0  0  0  0  0  0  0
   -2.1563   -1.8702    6.8313 C   0  0  0  0  0  0  0  0  0  0  0  0
   -2.7495   -0.6216    7.0185 C   0  0  0  0  0  0  0  0  0  0  0  0
   -3.0011   -0.1803    8.3333 C   0  0  0  0  0  0  0  0  0  0  0  0
   -3.6057    1.1483    8.5815 C   0  0  0  0  0  0  0  0  0  0  0  0
   -4.1253    1.7931    7.6288 O   0  0  0  0  0  0  0  0  0  0  0  0
   -3.5744    1.6963    9.8706 O   0  0  0  0  0  0  0  0  0  0  0  0
   -4.1014    2.9824   10.1666 C   0  0  0  0  0  0  0  0  0  0  0  0
   -2.6333   -1.0073    9.4193 C   0  0  0  0  0  0  0  0  0  0  0  0
   -2.0470   -2.2663    9.2029 C   0  0  0  0  0  0  0  0  0  0  0  0
   -1.8371   -2.7021    7.8874 C   0  0  0  0  0  0  0  0  0  0  0  0
   -1.2351   -3.9619    7.3692 C   0  0  0  0  0  0  0  0  0  0  0  0
   -1.1954   -5.1552    8.0144 C   0  0  0  0  0  0  0  0  0  0  0  0
   -0.8922   -6.3831    7.3302 C   0  0  0  0  0  0  0  0  0  0  0  0
   -0.6601   -7.3790    6.7860 N   0  0  0  0  0  0  0  0  0  0  0  0
   -1.6351   -5.3166    9.3757 C   0  0  0  0  0  0  0  0  0  0  0  0
   -1.9953   -5.4691   10.4652 N   0  0  0  0  0  0  0  0  0  0  0  0
    0.2066   -3.9717    3.7374 C   0  0  0  0  0  0  0  0  0  0  0  0
    0.3428   -4.8532    2.6485 C   0  0  0  0  0  0  0  0  0  0  0  0
    0.1097   -6.3326    2.7010 C   0  0  0  0  0  0  0  0  0  0  0  0
    1.3970   -7.0609    3.0545 C   0  0  0  0  0  0  0  0  0  0  0  0
    0.8055   -4.1802    1.5193 C   0  0  0  0  0  0  0  0  0  0  0  0
    1.1099   -4.6420   -0.0985 S   0  0  0  0  0  0  0  0  0  0  0  0
    1.5132   -3.0414   -0.5025 C   0  0  0  0  0  0  0  0  0  0  0  0
    1.9231   -2.2896   -1.5683 C   0  0  0  0  0  0  0  0  0  0  0  0
    2.2291   -2.6191   -2.8894 C   0  0  0  0  0  0  0  0  0  0  0  0
    2.6177   -1.5751   -3.7798 C   0  0  0  0  0  0  0  0  0  0  0  0
    2.8749   -1.9311   -5.0620 N   0  0  0  0  0  0  0  0  0  0  0  0
    2.6232   -3.5647   -4.9587 S   0  0  0  0  0  0  0  0  0  0  0  0
    2.1814   -3.8756   -3.3937 N   0  0  0  0  0  0  0  0  0  0  0  0
    2.6330   -0.2511   -3.3118 C   0  0  0  0  0  0  0  0  0  0  0  0
    2.5824    0.9198   -4.0177 C   0  0  0  0  0  0  0  0  0  0  0  0
    2.2655    1.2748   -5.6451 S   0  0  0  0  0  0  0  0  0  0  0  0
    1.5410    2.7569   -5.2373 C   0  0  0  0  0  0  0  0  0  0  0  0
    0.7662    3.6555   -5.9748 C   0  0  0  0  0  0  0  0  0  0  0  0
    0.5745    3.5951   -7.4679 C   0  0  0  0  0  0  0  0  0  0  0  0
    1.5666    4.5085   -8.1769 C   0  0  0  0  0  0  0  0  0  0  0  0
    0.1286    4.5728   -5.1229 C   0  0  0  0  0  0  0  0  0  0  0  0
    0.4880    4.2103   -3.5020 S   0  0  0  0  0  0  0  0  0  0  0  0
    1.5035    2.9279   -3.8754 C   0  0  0  0  0  0  0  0  0  0  0  0
    2.1061    1.8815   -3.1704 C   0  0  0  0  0  0  0  0  0  0  0  0
    1.8921    1.4035   -1.9147 N   0  0  0  0  0  0  0  0  0  0  0  0
    2.2681    0.0820   -1.9955 C   0  0  0  0  0  0  0  0  0  0  0  0
    2.0151   -0.9753   -1.0837 C   0  0  0  0  0  0  0  0  0  0  0  0
    1.8042   -0.9334    0.2679 N   0  0  0  0  0  0  0  0  0  0  0  0
    1.4425   -2.2043    0.5586 C   0  0  0  0  0  0  0  0  0  0  0  0
    1.0572   -2.8488    1.7153 C   0  0  0  0  0  0  0  0  0  0  0  0
    0.7163   -2.4001    3.2860 S   0  0  0  0  0  0  0  0  0  0  0  0
    2.4337   -0.0143    1.2227 C   0  0  0  0  0  0  0  0  0  0  0  0
    3.7035   -0.6228    1.8199 C   0  0  0  0  0  0  0  0  0  0  0  0
    0.9442    2.0055   -0.9622 C   0  0  0  0  0  0  0  0  0  0  0  0
    1.5318    3.2662   -0.3184 C   0  0  0  0  0  0  0  0  0  0  0  0
   -0.8800    5.5565   -5.5325 C   0  0  0  0  0  0  0  0  0  0  0  0
   -2.1827    5.2406   -5.6565 C   0  0  0  0  0  0  0  0  0  0  0  0
   -2.7388    3.8864   -5.5363 C   0  0  0  0  0  0  0  0  0  0  0  0
   -2.1612    2.8729   -5.0592 O   0  0  0  0  0  0  0  0  0  0  0  0
   -4.0704    3.8923   -6.0974 C   0  0  0  0  0  0  0  0  0  0  0  0
   -4.9218    2.8034   -6.2884 C   0  0  0  0  0  0  0  0  0  0  0  0
   -6.1498    3.0176   -6.9267 C   0  0  0  0  0  0  0  0  0  0  0  0
   -6.9962    1.9761   -7.1370 F   0  0  0  0  0  0  0  0  0  0  0  0
   -6.4985    4.3081   -7.3680 C   0  0  0  0  0  0  0  0  0  0  0  0
   -7.6793    4.5061   -8.0029 F   0  0  0  0  0  0  0  0  0  0  0  0
   -5.6254    5.3909   -7.1691 C   0  0  0  0  0  0  0  0  0  0  0  0
   -4.4029    5.1719   -6.5083 C   0  0  0  0  0  0  0  0  0  0  0  0
   -3.2852    6.1077   -6.1821 C   0  0  0  0  0  0  0  0  0  0  0  0
   -3.3280    7.4653   -6.1851 C   0  0  0  0  0  0  0  0  0  0  0  0
   -2.2818    8.2768   -5.6112 C   0  0  0  0  0  0  0  0  0  0  0  0
   -1.4470    8.9354   -5.1537 N   0  0  0  0  0  0  0  0  0  0  0  0
   -4.4752    8.2015   -6.6467 C   0  0  0  0  0  0  0  0  0  0  0  0
   -5.3849    8.8187   -7.0108 N   0  0  0  0  0  0  0  0  0  0  0  0
    0.3609   -5.2597    5.4796 H   0  0  0  0  0  0  0  0  0  0  0  0
   -2.9806   -0.0023    6.1606 H   0  0  0  0  0  0  0  0  0  0  0  0
   -3.5923    3.7530    9.5479 H   0  0  0  0  0  0  0  0  0  0  0  0
   -5.1958    2.9938    9.9738 H   0  0  0  0  0  0  0  0  0  0  0  0
   -3.9225    3.2187   11.2377 H   0  0  0  0  0  0  0  0  0  0  0  0
   -2.7991   -0.6783   10.4389 H   0  0  0  0  0  0  0  0  0  0  0  0
   -1.7408   -2.8496   10.0576 H   0  0  0  0  0  0  0  0  0  0  0  0
   -0.2536   -6.6899    1.7133 H   0  0  0  0  0  0  0  0  0  0  0  0
   -0.6700   -6.5714    3.4562 H   0  0  0  0  0  0  0  0  0  0  0  0
    1.7630   -6.7386    4.0488 H   0  0  0  0  0  0  0  0  0  0  0  0
    2.1738   -6.8536    2.2784 H   0  0  0  0  0  0  0  0  0  0  0  0
    1.2069   -8.1537    3.0857 H   0  0  0  0  0  0  0  0  0  0  0  0
   -0.4585    3.9052   -7.7260 H   0  0  0  0  0  0  0  0  0  0  0  0
    0.6980    2.5525   -7.8269 H   0  0  0  0  0  0  0  0  0  0  0  0
    1.4227    4.4318   -9.2756 H   0  0  0  0  0  0  0  0  0  0  0  0
    1.3975    5.5625   -7.8673 H   0  0  0  0  0  0  0  0  0  0  0  0
    2.6073    4.2101   -7.9255 H   0  0  0  0  0  0  0  0  0  0  0  0
    2.7436    0.9129    0.7113 H   0  0  0  0  0  0  0  0  0  0  0  0
    1.7154    0.2332    2.0311 H   0  0  0  0  0  0  0  0  0  0  0  0
    3.4631   -1.5074    2.4417 H   0  0  0  0  0  0  0  0  0  0  0  0
    4.3902   -0.9376    1.0065 H   0  0  0  0  0  0  0  0  0  0  0  0
    4.2123    0.1304    2.4559 H   0  0  0  0  0  0  0  0  0  0  0  0
    0.6437    1.2956   -0.1689 H   0  0  0  0  0  0  0  0  0  0  0  0
   -0.0002    2.2658   -1.4883 H   0  0  0  0  0  0  0  0  0  0  0  0
    2.4217    3.0275    0.2943 H   0  0  0  0  0  0  0  0  0  0  0  0
    0.7747    3.7366    0.3387 H   0  0  0  0  0  0  0  0  0  0  0  0
    1.8337    4.0067   -1.0829 H   0  0  0  0  0  0  0  0  0  0  0  0
   -0.5107    6.5229   -5.8211 H   0  0  0  0  0  0  0  0  0  0  0  0
   -4.6315    1.8108   -5.9696 H   0  0  0  0  0  0  0  0  0  0  0  0
   -5.9135    6.3549   -7.5537 H   0  0  0  0  0  0  0  0  0  0  0  0
  1  2  2  3
  2  3  1  0
  3  4  2  0
  3  5  1  0
  5  6  2  0
  6  7  1  0
  7  8  1  0
  8  9  2  0
  8 10  1  0
 10 11  1  0
  7 12  2  0
 12 13  1  0
 13 14  2  0
 14 15  1  0
 15 16  2  3
 16 17  1  0
 17 18  3  0
 16 19  1  0
 19 20  3  0
  1 21  1  0
 21 22  2  0
 22 23  1  0
 23 24  1  0
 22 25  1  0
 25 26  1  0
 26 27  1  0
 27 28  1  0
 28 29  1  0
 29 30  1  0
 30 31  2  0
 31 32  1  0
 32 33  1  0
 30 34  1  0
 34 35  1  0
 35 36  1  0
 36 37  1  0
 37 38  1  0
 38 39  1  0
 39 40  1  0
 38 41  2  0
 41 42  1  0
 42 43  1  0
 43 44  1  0
 44 45  1  0
 45 46  1  0
 46 47  1  0
 47 48  1  0
 48 49  1  0
 49 50  1  0
 50 51  1  0
 48 52  1  0
 52 53  1  0
 45 54  1  0
 54 55  1  0
 41 56  1  0
 56 57  2  3
 57 58  1  0
 58 59  2  0
 58 60  1  0
 60 61  2  0
 61 62  1  0
 62 63  1  0
 62 64  2  0
 64 65  1  0
 64 66  1  0
 66 67  2  0
 67 68  1  0
 68 69  2  3
 69 70  1  0
 70 71  3  0
 69 72  1  0
 72 73  3  0
 15  2  1  0
 51 21  1  0
 68 57  1  0
 14  5  1  0
 50 25  2  0
 67 60  1  0
 49 27  2  0
 47 28  2  0
 33 29  2  0
 46 34  2  0
 44 35  2  0
 43 37  2  0
  1 74  1  0
  6 75  1  0
 11 76  1  0
 11 77  1  0
 11 78  1  0
 12 79  1  0
 13 80  1  0
 23 81  1  0
 23 82  1  0
 24 83  1  0
 24 84  1  0
 24 85  1  0
 39 86  1  0
 39 87  1  0
 40 88  1  0
 40 89  1  0
 40 90  1  0
 52 91  1  0
 52 92  1  0
 53 93  1  0
 53 94  1  0
 53 95  1  0
 54 96  1  0
 54 97  1  0
 55 98  1  0
 55 99  1  0
 55100  1  0
 56101  1  0
 61102  1  0
 66103  1  0
M  END

