
     RDKit          3D

103114  0  0  0  0  0  0  0  0999 V2000
   -1.0299    0.0140   -6.5397 C   0  0  0  0  0  0  0  0  0  0  0  0
   -0.1716    1.0533   -6.5592 C   0  0  0  0  0  0  0  0  0  0  0  0
    0.6347    1.5395   -5.4322 C   0  0  0  0  0  0  0  0  0  0  0  0
    1.0918    0.8537   -4.4847 O   0  0  0  0  0  0  0  0  0  0  0  0
    0.9425    2.9357   -5.6676 C   0  0  0  0  0  0  0  0  0  0  0  0
    1.4932    3.8523   -4.7759 C   0  0  0  0  0  0  0  0  0  0  0  0
    1.5388    5.2154   -5.1429 C   0  0  0  0  0  0  0  0  0  0  0  0
    2.0764    6.2333   -4.2100 C   0  0  0  0  0  0  0  0  0  0  0  0
    2.6747    5.8689   -3.1592 O   0  0  0  0  0  0  0  0  0  0  0  0
    1.9303    7.5945   -4.4956 O   0  0  0  0  0  0  0  0  0  0  0  0
    2.4204    8.6224   -3.6390 C   0  0  0  0  0  0  0  0  0  0  0  0
    1.0190    5.6094   -6.3979 C   0  0  0  0  0  0  0  0  0  0  0  0
    0.4699    4.6647   -7.2803 C   0  0  0  0  0  0  0  0  0  0  0  0
    0.4529    3.3101   -6.9046 C   0  0  0  0  0  0  0  0  0  0  0  0
   -0.1185    2.1251   -7.5983 C   0  0  0  0  0  0  0  0  0  0  0  0
   -0.3103    1.9793   -8.9342 C   0  0  0  0  0  0  0  0  0  0  0  0
   -0.5983    0.6954   -9.5256 C   0  0  0  0  0  0  0  0  0  0  0  0
   -0.8170   -0.3336  -10.0107 N   0  0  0  0  0  0  0  0  0  0  0  0
   -0.0920    3.0572   -9.8660 C   0  0  0  0  0  0  0  0  0  0  0  0
    0.0761    3.9118  -10.6276 N   0  0  0  0  0  0  0  0  0  0  0  0
   -1.3457   -0.7812   -5.3367 C   0  0  0  0  0  0  0  0  0  0  0  0
   -1.6157   -2.1656   -5.3151 C   0  0  0  0  0  0  0  0  0  0  0  0
   -1.4757   -3.0972   -6.4840 C   0  0  0  0  0  0  0  0  0  0  0  0
   -0.0393   -3.5734   -6.6288 C   0  0  0  0  0  0  0  0  0  0  0  0
   -1.9564   -2.5849   -4.0251 C   0  0  0  0  0  0  0  0  0  0  0  0
   -2.1279   -4.1250   -3.3096 S   0  0  0  0  0  0  0  0  0  0  0  0
   -2.3574   -3.4198   -1.7776 C   0  0  0  0  0  0  0  0  0  0  0  0
   -2.1797   -3.8024   -0.4760 C   0  0  0  0  0  0  0  0  0  0  0  0
   -1.8273   -5.0468    0.0623 C   0  0  0  0  0  0  0  0  0  0  0  0
   -1.3833   -5.1117    1.4177 C   0  0  0  0  0  0  0  0  0  0  0  0
   -1.0151   -6.3301    1.8901 N   0  0  0  0  0  0  0  0  0  0  0  0
   -1.2767   -7.2431    0.5325 S   0  0  0  0  0  0  0  0  0  0  0  0
   -1.8298   -6.2091   -0.6383 N   0  0  0  0  0  0  0  0  0  0  0  0
   -1.3588   -3.9357    2.1706 C   0  0  0  0  0  0  0  0  0  0  0  0
   -1.0421   -3.6929    3.4785 C   0  0  0  0  0  0  0  0  0  0  0  0
   -0.3654   -4.4699    4.8310 S   0  0  0  0  0  0  0  0  0  0  0  0
   -0.4423   -3.0189    5.7333 C   0  0  0  0  0  0  0  0  0  0  0  0
    0.0528   -2.6311    6.9818 C   0  0  0  0  0  0  0  0  0  0  0  0
    0.7495   -3.5858    7.9133 C   0  0  0  0  0  0  0  0  0  0  0  0
    2.2657   -3.4809    7.7616 C   0  0  0  0  0  0  0  0  0  0  0  0
   -0.0946   -1.2334    7.1863 C   0  0  0  0  0  0  0  0  0  0  0  0
   -0.8929   -0.5683    5.8314 S   0  0  0  0  0  0  0  0  0  0  0  0
   -1.0018   -2.0054    4.9971 C   0  0  0  0  0  0  0  0  0  0  0  0
   -1.3284   -2.3908    3.7095 C   0  0  0  0  0  0  0  0  0  0  0  0
   -1.8248   -1.7416    2.6321 N   0  0  0  0  0  0  0  0  0  0  0  0
   -1.7589   -2.6960    1.6426 C   0  0  0  0  0  0  0  0  0  0  0  0
   -2.0750   -2.6122    0.2614 C   0  0  0  0  0  0  0  0  0  0  0  0
   -2.0516   -1.5216   -0.5758 N   0  0  0  0  0  0  0  0  0  0  0  0
   -2.2651   -2.0617   -1.8030 C   0  0  0  0  0  0  0  0  0  0  0  0
   -2.0295   -1.5900   -3.0862 C   0  0  0  0  0  0  0  0  0  0  0  0
   -1.6206   -0.1239   -3.7865 S   0  0  0  0  0  0  0  0  0  0  0  0
   -1.3787   -0.2350   -0.3554 C   0  0  0  0  0  0  0  0  0  0  0  0
   -2.3541    0.9359   -0.4940 C   0  0  0  0  0  0  0  0  0  0  0  0
   -2.6716   -0.5425    2.7283 C   0  0  0  0  0  0  0  0  0  0  0  0
   -4.1065   -0.8272    2.2825 C   0  0  0  0  0  0  0  0  0  0  0  0
    0.4211   -0.5015    8.3739 C   0  0  0  0  0  0  0  0  0  0  0  0
    0.8154    0.7901    8.4471 C   0  0  0  0  0  0  0  0  0  0  0  0
    0.9509    1.7695    7.3499 C   0  0  0  0  0  0  0  0  0  0  0  0
    0.1517    1.9567    6.3962 O   0  0  0  0  0  0  0  0  0  0  0  0
    2.0283    2.6792    7.6870 C   0  0  0  0  0  0  0  0  0  0  0  0
    2.5998    3.6656    6.8800 C   0  0  0  0  0  0  0  0  0  0  0  0
    3.6832    4.4001    7.3896 C   0  0  0  0  0  0  0  0  0  0  0  0
    4.4229    5.6508    6.4064 Cl  0  0  0  0  0  0  0  0  0  0  0  0
    4.1809    4.1155    8.6764 C   0  0  0  0  0  0  0  0  0  0  0  0
    5.2431    4.8075    9.1654 F   0  0  0  0  0  0  0  0  0  0  0  0
    3.5840    3.1194    9.4695 C   0  0  0  0  0  0  0  0  0  0  0  0
    2.4755    2.4221    8.9640 C   0  0  0  0  0  0  0  0  0  0  0  0
    1.6519    1.3361    9.5585 C   0  0  0  0  0  0  0  0  0  0  0  0
    1.4898    1.0749   10.8811 C   0  0  0  0  0  0  0  0  0  0  0  0
    2.2705    1.7299   11.9013 C   0  0  0  0  0  0  0  0  0  0  0  0
    2.8932    2.2520   12.7301 N   0  0  0  0  0  0  0  0  0  0  0  0
    0.4346    0.2169   11.3638 C   0  0  0  0  0  0  0  0  0  0  0  0
   -0.4088   -0.4750   11.7486 N   0  0  0  0  0  0  0  0  0  0  0  0
   -1.6401   -0.2050   -7.4022 H   0  0  0  0  0  0  0  0  0  0  0  0
    1.8463    3.5190   -3.8088 H   0  0  0  0  0  0  0  0  0  0  0  0
    2.1689    9.6122   -4.0784 H   0  0  0  0  0  0  0  0  0  0  0  0
    3.5268    8.5357   -3.5385 H   0  0  0  0  0  0  0  0  0  0  0  0
    1.9382    8.5397   -2.6397 H   0  0  0  0  0  0  0  0  0  0  0  0
    1.0301    6.6548   -6.6919 H   0  0  0  0  0  0  0  0  0  0  0  0
    0.0345    5.0158   -8.2000 H   0  0  0  0  0  0  0  0  0  0  0  0
   -1.7913   -2.5847   -7.4193 H   0  0  0  0  0  0  0  0  0  0  0  0
   -2.1425   -3.9790   -6.3504 H   0  0  0  0  0  0  0  0  0  0  0  0
    0.6447   -2.7101   -6.7743 H   0  0  0  0  0  0  0  0  0  0  0  0
    0.0512   -4.2420   -7.5111 H   0  0  0  0  0  0  0  0  0  0  0  0
    0.2750   -4.1413   -5.7273 H   0  0  0  0  0  0  0  0  0  0  0  0
    0.4569   -3.3704    8.9645 H   0  0  0  0  0  0  0  0  0  0  0  0
    0.4376   -4.6331    7.6919 H   0  0  0  0  0  0  0  0  0  0  0  0
    2.6144   -2.4517    7.9835 H   0  0  0  0  0  0  0  0  0  0  0  0
    2.5665   -3.7478    6.7259 H   0  0  0  0  0  0  0  0  0  0  0  0
    2.7502   -4.1865    8.4675 H   0  0  0  0  0  0  0  0  0  0  0  0
   -0.8602   -0.2156    0.6183 H   0  0  0  0  0  0  0  0  0  0  0  0
   -0.5606   -0.1082   -1.0962 H   0  0  0  0  0  0  0  0  0  0  0  0
   -1.8301    1.8812   -0.2522 H   0  0  0  0  0  0  0  0  0  0  0  0
   -3.2113    0.8266    0.1951 H   0  0  0  0  0  0  0  0  0  0  0  0
   -2.7463    1.0051   -1.5273 H   0  0  0  0  0  0  0  0  0  0  0  0
   -2.7267   -0.1990    3.7803 H   0  0  0  0  0  0  0  0  0  0  0  0
   -2.2316    0.3029    2.1780 H   0  0  0  0  0  0  0  0  0  0  0  0
   -4.7332    0.0805    2.4266 H   0  0  0  0  0  0  0  0  0  0  0  0
   -4.1414   -1.0886    1.2106 H   0  0  0  0  0  0  0  0  0  0  0  0
   -4.5182   -1.6744    2.8786 H   0  0  0  0  0  0  0  0  0  0  0  0
    0.6441   -1.1250    9.2277 H   0  0  0  0  0  0  0  0  0  0  0  0
    2.2357    3.8513    5.8781 H   0  0  0  0  0  0  0  0  0  0  0  0
    4.0083    2.9049   10.4345 H   0  0  0  0  0  0  0  0  0  0  0  0
  1  2  2  3
  2  3  1  0
  3  4  2  0
  3  5  1  0
  5  6  2  0
  6  7  1  0
  7  8  1  0
  8  9  2  0
  8 10  1  0
 10 11  1  0
  7 12  2  0
 12 13  1  0
 13 14  2  0
 14 15  1  0
 15 16  2  3
 16 17  1  0
 17 18  3  0
 16 19  1  0
 19 20  3  0
  1 21  1  0
 21 22  2  0
 22 23  1  0
 23 24  1  0
 22 25  1  0
 25 26  1  0
 26 27  1  0
 27 28  1  0
 28 29  1  0
 29 30  1  0
 30 31  2  0
 31 32  1  0
 32 33  1  0
 30 34  1  0
 34 35  1  0
 35 36  1  0
 36 37  1  0
 37 38  1  0
 38 39  1  0
 39 40  1  0
 38 41  2  0
 41 42  1  0
 42 43  1  0
 43 44  1  0
 44 45  1  0
 45 46  1  0
 46 47  1  0
 47 48  1  0
 48 49  1  0
 49 50  1  0
 50 51  1  0
 48 52  1  0
 52 53  1  0
 45 54  1  0
 54 55  1  0
 41 56  1  0
 56 57  2  3
 57 58  1  0
 58 59  2  0
 58 60  1  0
 60 61  2  0
 61 62  1  0
 62 63  1  0
 62 64  2  0
 64 65  1  0
 64 66  1  0
 66 67  2  0
 67 68  1  0
 68 69  2  3
 69 70  1  0
 70 71  3  0
 69 72  1  0
 72 73  3  0
 15  2  1  0
 51 21  1  0
 68 57  1  0
 14  5  1  0
 50 25  2  0
 67 60  1  0
 49 27  2  0
 47 28  2  0
 33 29  2  0
 46 34  2  0
 44 35  2  0
 43 37  2  0
  1 74  1  0
  6 75  1  0
 11 76  1  0
 11 77  1  0
 11 78  1  0
 12 79  1  0
 13 80  1  0
 23 81  1  0
 23 82  1  0
 24 83  1  0
 24 84  1  0
 24 85  1  0
 39 86  1  0
 39 87  1  0
 40 88  1  0
 40 89  1  0
 40 90  1  0
 52 91  1  0
 52 92  1  0
 53 93  1  0
 53 94  1  0
 53 95  1  0
 54 96  1  0
 54 97  1  0
 55 98  1  0
 55 99  1  0
 55100  1  0
 56101  1  0
 61102  1  0
 66103  1  0
M  END

