
     RDKit          3D

113124  0  0  0  0  0  0  0  0999 V2000
   -7.1805   -1.6895    1.9537 C   0  0  0  0  0  0  0  0  0  0  0  0
   -7.1287   -2.7951    1.1889 C   0  0  0  0  0  0  0  0  0  0  0  0
   -6.1436   -3.0493    0.1287 C   0  0  0  0  0  0  0  0  0  0  0  0
   -5.3802   -2.2035   -0.4078 O   0  0  0  0  0  0  0  0  0  0  0  0
   -6.1519   -4.4652   -0.1673 C   0  0  0  0  0  0  0  0  0  0  0  0
   -5.2976   -5.1681   -1.0157 C   0  0  0  0  0  0  0  0  0  0  0  0
   -5.4097   -6.5701   -1.0839 C   0  0  0  0  0  0  0  0  0  0  0  0
   -4.5114   -7.3446   -1.9682 C   0  0  0  0  0  0  0  0  0  0  0  0
   -4.6308   -8.5987   -2.0524 O   0  0  0  0  0  0  0  0  0  0  0  0
   -3.5226   -6.6845   -2.7066 O   0  0  0  0  0  0  0  0  0  0  0  0
   -2.6261   -7.3663   -3.5759 C   0  0  0  0  0  0  0  0  0  0  0  0
   -6.3681   -7.2256   -0.2760 C   0  0  0  0  0  0  0  0  0  0  0  0
   -7.2110   -6.4955    0.5779 C   0  0  0  0  0  0  0  0  0  0  0  0
   -7.1090   -5.0965    0.6066 C   0  0  0  0  0  0  0  0  0  0  0  0
   -7.8484   -4.0844    1.4151 C   0  0  0  0  0  0  0  0  0  0  0  0
   -9.0562   -4.2437    2.0152 C   0  0  0  0  0  0  0  0  0  0  0  0
   -9.8094   -3.1306    2.5322 C   0  0  0  0  0  0  0  0  0  0  0  0
  -10.4235   -2.2411    2.9465 N   0  0  0  0  0  0  0  0  0  0  0  0
   -9.7427   -5.5078    2.0527 C   0  0  0  0  0  0  0  0  0  0  0  0
  -10.3101   -6.5167    2.0871 N   0  0  0  0  0  0  0  0  0  0  0  0
   -6.3705   -0.4986    1.6731 C   0  0  0  0  0  0  0  0  0  0  0  0
   -6.6028    0.4279    0.6415 C   0  0  0  0  0  0  0  0  0  0  0  0
   -7.7880    0.4064   -0.2841 C   0  0  0  0  0  0  0  0  0  0  0  0
   -9.0121    1.0053    0.3983 C   0  0  0  0  0  0  0  0  0  0  0  0
   -5.5692    1.3630    0.5789 C   0  0  0  0  0  0  0  0  0  0  0  0
   -5.1534    2.5446   -0.5699 S   0  0  0  0  0  0  0  0  0  0  0  0
   -3.6778    2.8426    0.2153 C   0  0  0  0  0  0  0  0  0  0  0  0
   -2.4481    3.2559   -0.2044 C   0  0  0  0  0  0  0  0  0  0  0  0
   -2.0153    3.6767   -1.4672 C   0  0  0  0  0  0  0  0  0  0  0  0
   -0.6936    3.6217   -1.8041 C   0  0  0  0  0  0  0  0  0  0  0  0
   -0.5578    3.9441   -3.0975 N   0  0  0  0  0  0  0  0  0  0  0  0
   -1.8026    4.1856   -3.5098 N   0  0  0  0  0  0  0  0  0  0  0  0
   -2.1399    4.4905   -4.8943 C   0  0  0  0  0  0  0  0  0  0  0  0
   -2.3619    3.2009   -5.6750 C   0  0  0  0  0  0  0  0  0  0  0  0
   -2.7206    4.0069   -2.5586 N   0  0  0  0  0  0  0  0  0  0  0  0
    0.2496    3.1849   -0.8785 C   0  0  0  0  0  0  0  0  0  0  0  0
    1.6064    3.0537   -0.9041 C   0  0  0  0  0  0  0  0  0  0  0  0
    2.9179    3.2925   -1.9541 S   0  0  0  0  0  0  0  0  0  0  0  0
    4.0096    2.8854   -0.7016 C   0  0  0  0  0  0  0  0  0  0  0  0
    5.3965    2.7640   -0.6372 C   0  0  0  0  0  0  0  0  0  0  0  0
    6.3256    3.0822   -1.7758 C   0  0  0  0  0  0  0  0  0  0  0  0
    6.7942    4.5300   -1.6975 C   0  0  0  0  0  0  0  0  0  0  0  0
    5.7992    2.3860    0.6591 C   0  0  0  0  0  0  0  0  0  0  0  0
    4.4465    2.2187    1.6847 S   0  0  0  0  0  0  0  0  0  0  0  0
    3.3581    2.6151    0.4752 C   0  0  0  0  0  0  0  0  0  0  0  0
    1.9848    2.6959    0.3487 C   0  0  0  0  0  0  0  0  0  0  0  0
    0.9474    2.5916    1.2170 N   0  0  0  0  0  0  0  0  0  0  0  0
   -0.1405    2.8117    0.4174 C   0  0  0  0  0  0  0  0  0  0  0  0
   -1.5266    2.7337    0.7251 C   0  0  0  0  0  0  0  0  0  0  0  0
   -2.1553    1.8869    1.6032 N   0  0  0  0  0  0  0  0  0  0  0  0
   -3.4730    2.0213    1.2869 C   0  0  0  0  0  0  0  0  0  0  0  0
   -4.5625    1.1788    1.4928 C   0  0  0  0  0  0  0  0  0  0  0  0
   -4.8923   -0.1615    2.4474 S   0  0  0  0  0  0  0  0  0  0  0  0
   -1.5831    0.6605    2.1876 C   0  0  0  0  0  0  0  0  0  0  0  0
   -1.4796   -0.4452    1.1383 C   0  0  0  0  0  0  0  0  0  0  0  0
    1.0368    2.8508    2.6622 C   0  0  0  0  0  0  0  0  0  0  0  0
    1.5561    4.2621    2.9367 C   0  0  0  0  0  0  0  0  0  0  0  0
    7.1811    2.1601    1.1011 C   0  0  0  0  0  0  0  0  0  0  0  0
    7.9129    1.1058    0.6981 C   0  0  0  0  0  0  0  0  0  0  0  0
    7.3979   -0.0616   -0.0303 C   0  0  0  0  0  0  0  0  0  0  0  0
    6.2897   -0.1504   -0.6239 O   0  0  0  0  0  0  0  0  0  0  0  0
    8.3536   -1.1389    0.1098 C   0  0  0  0  0  0  0  0  0  0  0  0
    8.2287   -2.4589   -0.3194 C   0  0  0  0  0  0  0  0  0  0  0  0
    9.2350   -3.3707    0.0217 C   0  0  0  0  0  0  0  0  0  0  0  0
   10.3282   -2.9635    0.8164 C   0  0  0  0  0  0  0  0  0  0  0  0
   11.3963   -3.9516    1.1806 C   0  0  0  0  0  0  0  0  0  0  0  0
   10.4372   -1.6180    1.2251 C   0  0  0  0  0  0  0  0  0  0  0  0
    9.4430   -0.7027    0.8438 C   0  0  0  0  0  0  0  0  0  0  0  0
    9.2874    0.7463    1.1554 C   0  0  0  0  0  0  0  0  0  0  0  0
   10.2649    1.6119    1.5273 C   0  0  0  0  0  0  0  0  0  0  0  0
   10.0644    3.0394    1.5240 C   0  0  0  0  0  0  0  0  0  0  0  0
    9.9114    4.1866    1.5199 N   0  0  0  0  0  0  0  0  0  0  0  0
   11.6115    1.1884    1.8069 C   0  0  0  0  0  0  0  0  0  0  0  0
   12.6998    0.8638    2.0309 N   0  0  0  0  0  0  0  0  0  0  0  0
   -7.7599   -1.6734    2.8633 H   0  0  0  0  0  0  0  0  0  0  0  0
   -4.5536   -4.6337   -1.5932 H   0  0  0  0  0  0  0  0  0  0  0  0
   -3.1932   -7.8645   -4.3913 H   0  0  0  0  0  0  0  0  0  0  0  0
   -1.9239   -6.6319   -4.0223 H   0  0  0  0  0  0  0  0  0  0  0  0
   -2.0421   -8.1214   -3.0064 H   0  0  0  0  0  0  0  0  0  0  0  0
   -6.4558   -8.3049   -0.2932 H   0  0  0  0  0  0  0  0  0  0  0  0
   -7.8901   -7.0375    1.2140 H   0  0  0  0  0  0  0  0  0  0  0  0
   -8.0099   -0.6379   -0.5914 H   0  0  0  0  0  0  0  0  0  0  0  0
   -7.5663    0.9847   -1.2058 H   0  0  0  0  0  0  0  0  0  0  0  0
   -9.3027    0.3905    1.2764 H   0  0  0  0  0  0  0  0  0  0  0  0
   -9.8612    1.0274   -0.3156 H   0  0  0  0  0  0  0  0  0  0  0  0
   -8.7979    2.0428    0.7317 H   0  0  0  0  0  0  0  0  0  0  0  0
   -3.0627    5.1102   -4.9286 H   0  0  0  0  0  0  0  0  0  0  0  0
   -1.3134    5.0694   -5.3611 H   0  0  0  0  0  0  0  0  0  0  0  0
   -2.6123    3.4409   -6.7300 H   0  0  0  0  0  0  0  0  0  0  0  0
   -3.2020    2.6259   -5.2297 H   0  0  0  0  0  0  0  0  0  0  0  0
   -1.4411    2.5788   -5.6556 H   0  0  0  0  0  0  0  0  0  0  0  0
    5.8078    2.9156   -2.7442 H   0  0  0  0  0  0  0  0  0  0  0  0
    7.2076    2.4090   -1.7519 H   0  0  0  0  0  0  0  0  0  0  0  0
    7.4753    4.7476   -2.5483 H   0  0  0  0  0  0  0  0  0  0  0  0
    5.9235    5.2180   -1.7514 H   0  0  0  0  0  0  0  0  0  0  0  0
    7.3431    4.7056   -0.7477 H   0  0  0  0  0  0  0  0  0  0  0  0
   -2.2075    0.3177    3.0379 H   0  0  0  0  0  0  0  0  0  0  0  0
   -0.5757    0.8246    2.5952 H   0  0  0  0  0  0  0  0  0  0  0  0
   -0.7744   -0.1418    0.3353 H   0  0  0  0  0  0  0  0  0  0  0  0
   -1.1002   -1.3754    1.6114 H   0  0  0  0  0  0  0  0  0  0  0  0
   -2.4708   -0.6565    0.6852 H   0  0  0  0  0  0  0  0  0  0  0  0
    0.0375    2.7922    3.1373 H   0  0  0  0  0  0  0  0  0  0  0  0
    1.7059    2.1014    3.1359 H   0  0  0  0  0  0  0  0  0  0  0  0
    0.9096    5.0109    2.4312 H   0  0  0  0  0  0  0  0  0  0  0  0
    2.5977    4.3788    2.5752 H   0  0  0  0  0  0  0  0  0  0  0  0
    1.5434    4.4577    4.0305 H   0  0  0  0  0  0  0  0  0  0  0  0
    7.5550    2.8238    1.8659 H   0  0  0  0  0  0  0  0  0  0  0  0
    7.3671   -2.7781   -0.8908 H   0  0  0  0  0  0  0  0  0  0  0  0
    9.1528   -4.3990   -0.3094 H   0  0  0  0  0  0  0  0  0  0  0  0
   10.9551   -4.9581    1.3415 H   0  0  0  0  0  0  0  0  0  0  0  0
   12.1412   -4.0112    0.3598 H   0  0  0  0  0  0  0  0  0  0  0  0
   11.9139   -3.6497    2.1165 H   0  0  0  0  0  0  0  0  0  0  0  0
   11.2604   -1.3266    1.8562 H   0  0  0  0  0  0  0  0  0  0  0  0
  1  2  2  3
  2  3  1  0
  3  4  2  0
  3  5  1  0
  5  6  2  0
  6  7  1  0
  7  8  1  0
  8  9  2  0
  8 10  1  0
 10 11  1  0
  7 12  2  0
 12 13  1  0
 13 14  2  0
 14 15  1  0
 15 16  2  3
 16 17  1  0
 17 18  3  0
 16 19  1  0
 19 20  3  0
  1 21  1  0
 21 22  2  0
 22 23  1  0
 23 24  1  0
 22 25  1  0
 25 26  1  0
 26 27  1  0
 27 28  1  0
 28 29  1  0
 29 30  1  0
 30 31  2  0
 31 32  1  0
 32 33  1  0
 33 34  1  0
 32 35  1  0
 30 36  1  0
 36 37  1  0
 37 38  1  0
 38 39  1  0
 39 40  1  0
 40 41  1  0
 41 42  1  0
 40 43  2  0
 43 44  1  0
 44 45  1  0
 45 46  1  0
 46 47  1  0
 47 48  1  0
 48 49  1  0
 49 50  1  0
 50 51  1  0
 51 52  1  0
 52 53  1  0
 50 54  1  0
 54 55  1  0
 47 56  1  0
 56 57  1  0
 43 58  1  0
 58 59  2  3
 59 60  1  0
 60 61  2  0
 60 62  1  0
 62 63  2  0
 63 64  1  0
 64 65  2  0
 65 66  1  0
 65 67  1  0
 67 68  2  0
 68 69  1  0
 69 70  2  3
 70 71  1  0
 71 72  3  0
 70 73  1  0
 73 74  3  0
 15  2  1  0
 53 21  1  0
 69 59  1  0
 14  5  1  0
 52 25  2  0
 68 62  1  0
 51 27  2  0
 49 28  2  0
 35 29  2  0
 48 36  2  0
 46 37  2  0
 45 39  2  0
  1 75  1  0
  6 76  1  0
 11 77  1  0
 11 78  1  0
 11 79  1  0
 12 80  1  0
 13 81  1  0
 23 82  1  0
 23 83  1  0
 24 84  1  0
 24 85  1  0
 24 86  1  0
 33 87  1  0
 33 88  1  0
 34 89  1  0
 34 90  1  0
 34 91  1  0
 41 92  1  0
 41 93  1  0
 42 94  1  0
 42 95  1  0
 42 96  1  0
 54 97  1  0
 54 98  1  0
 55 99  1  0
 55100  1  0
 55101  1  0
 56102  1  0
 56103  1  0
 57104  1  0
 57105  1  0
 57106  1  0
 58107  1  0
 63108  1  0
 64109  1  0
 66110  1  0
 66111  1  0
 66112  1  0
 67113  1  0
M  END

