
     RDKit          3D

112123  0  0  0  0  0  0  0  0999 V2000
    0.8160   -7.5628    2.4734 C   0  0  0  0  0  0  0  0  0  0  0  0
   -0.2005   -7.6550    1.6042 C   0  0  0  0  0  0  0  0  0  0  0  0
   -1.5552   -7.2265    2.0077 C   0  0  0  0  0  0  0  0  0  0  0  0
   -1.9962   -7.2515    3.1997 O   0  0  0  0  0  0  0  0  0  0  0  0
   -2.1662   -6.4700    0.9333 C   0  0  0  0  0  0  0  0  0  0  0  0
   -3.5011   -6.0942    0.7734 C   0  0  0  0  0  0  0  0  0  0  0  0
   -3.8412   -5.3763   -0.3823 C   0  0  0  0  0  0  0  0  0  0  0  0
   -5.2028   -5.4374   -0.9398 C   0  0  0  0  0  0  0  0  0  0  0  0
   -5.9435   -6.4298   -0.6690 O   0  0  0  0  0  0  0  0  0  0  0  0
   -5.6207   -4.4762   -1.8713 O   0  0  0  0  0  0  0  0  0  0  0  0
   -6.2050   -4.8635   -3.1133 C   0  0  0  0  0  0  0  0  0  0  0  0
   -2.8218   -4.8225   -1.1790 C   0  0  0  0  0  0  0  0  0  0  0  0
   -1.4984   -5.2741   -1.0301 C   0  0  0  0  0  0  0  0  0  0  0  0
   -1.2249   -6.2187   -0.0296 C   0  0  0  0  0  0  0  0  0  0  0  0
   -0.0519   -7.1043    0.2210 C   0  0  0  0  0  0  0  0  0  0  0  0
    0.7870   -7.6014   -0.7201 C   0  0  0  0  0  0  0  0  0  0  0  0
    1.5792   -8.7823   -0.4788 C   0  0  0  0  0  0  0  0  0  0  0  0
    2.1755   -9.7515   -0.3112 N   0  0  0  0  0  0  0  0  0  0  0  0
    0.7626   -7.1508   -2.0885 C   0  0  0  0  0  0  0  0  0  0  0  0
    0.7318   -6.7729   -3.1850 N   0  0  0  0  0  0  0  0  0  0  0  0
    1.3144   -6.2194    2.8553 C   0  0  0  0  0  0  0  0  0  0  0  0
    1.2298   -5.5930    4.1353 C   0  0  0  0  0  0  0  0  0  0  0  0
    0.7521   -6.2534    5.4029 C   0  0  0  0  0  0  0  0  0  0  0  0
    1.3023   -7.6736    5.5876 C   0  0  0  0  0  0  0  0  0  0  0  0
    1.5363   -4.2240    4.0327 C   0  0  0  0  0  0  0  0  0  0  0  0
    1.9023   -3.8300    2.7774 C   0  0  0  0  0  0  0  0  0  0  0  0
    1.8152   -5.0781    1.6828 S   0  0  0  0  0  0  0  0  0  0  0  0
    1.9350   -2.4680    2.6200 C   0  0  0  0  0  0  0  0  0  0  0  0
    1.5984   -1.7898    3.7297 C   0  0  0  0  0  0  0  0  0  0  0  0
    1.2551   -2.8505    5.0346 S   0  0  0  0  0  0  0  0  0  0  0  0
    1.4278   -0.4744    3.3526 C   0  0  0  0  0  0  0  0  0  0  0  0
    1.1761    0.6920    4.0910 C   0  0  0  0  0  0  0  0  0  0  0  0
    1.0184    0.6629    5.4391 N   0  0  0  0  0  0  0  0  0  0  0  0
    0.7892    1.8011    6.1409 C   0  0  0  0  0  0  0  0  0  0  0  0
    0.5904    1.7033    7.6224 C   0  0  0  0  0  0  0  0  0  0  0  0
    0.7186    3.0403    5.4621 C   0  0  0  0  0  0  0  0  0  0  0  0
    0.4809    4.3322    6.1849 C   0  0  0  0  0  0  0  0  0  0  0  0
    0.8820    3.0659    4.1073 N   0  0  0  0  0  0  0  0  0  0  0  0
    1.1135    1.9306    3.4017 C   0  0  0  0  0  0  0  0  0  0  0  0
    1.2124    1.9234    1.9923 C   0  0  0  0  0  0  0  0  0  0  0  0
    1.0658    2.9299    1.0619 C   0  0  0  0  0  0  0  0  0  0  0  0
    0.9448    4.6263    0.9246 S   0  0  0  0  0  0  0  0  0  0  0  0
    0.8472    4.5105   -0.7887 C   0  0  0  0  0  0  0  0  0  0  0  0
    0.8305    5.4318   -1.8435 C   0  0  0  0  0  0  0  0  0  0  0  0
    0.9192    6.9208   -1.6792 C   0  0  0  0  0  0  0  0  0  0  0  0
    2.3812    7.3423   -1.5534 C   0  0  0  0  0  0  0  0  0  0  0  0
    0.8086    4.7618   -3.0835 C   0  0  0  0  0  0  0  0  0  0  0  0
    0.8715    3.0800   -2.8634 S   0  0  0  0  0  0  0  0  0  0  0  0
    0.8648    3.2055   -1.1953 C   0  0  0  0  0  0  0  0  0  0  0  0
    1.0147    2.3163   -0.1444 C   0  0  0  0  0  0  0  0  0  0  0  0
    1.1396    0.9779   -0.0820 N   0  0  0  0  0  0  0  0  0  0  0  0
    0.7676    0.0652   -1.1789 C   0  0  0  0  0  0  0  0  0  0  0  0
   -0.4049   -0.8381   -0.8049 C   0  0  0  0  0  0  0  0  0  0  0  0
    1.3520    0.7354    1.2503 C   0  0  0  0  0  0  0  0  0  0  0  0
    1.5845   -0.4695    1.9526 C   0  0  0  0  0  0  0  0  0  0  0  0
    1.9877   -1.6982    1.5084 N   0  0  0  0  0  0  0  0  0  0  0  0
    2.7281   -2.0823    0.2984 C   0  0  0  0  0  0  0  0  0  0  0  0
    3.8992   -1.1309    0.0237 C   0  0  0  0  0  0  0  0  0  0  0  0
    0.8524    5.3655   -4.4189 C   0  0  0  0  0  0  0  0  0  0  0  0
   -0.0625    5.0712   -5.3649 C   0  0  0  0  0  0  0  0  0  0  0  0
   -1.4342    4.5625   -5.1296 C   0  0  0  0  0  0  0  0  0  0  0  0
   -1.9088    4.1311   -4.0423 O   0  0  0  0  0  0  0  0  0  0  0  0
   -2.1982    4.7691   -6.3347 C   0  0  0  0  0  0  0  0  0  0  0  0
   -3.5575    4.5175   -6.5278 C   0  0  0  0  0  0  0  0  0  0  0  0
   -4.1253    4.8555   -7.7670 C   0  0  0  0  0  0  0  0  0  0  0  0
   -5.4463    4.6197   -7.9954 F   0  0  0  0  0  0  0  0  0  0  0  0
   -3.3405    5.4470   -8.7673 C   0  0  0  0  0  0  0  0  0  0  0  0
   -3.8883    5.7783   -9.9624 F   0  0  0  0  0  0  0  0  0  0  0  0
   -1.9784    5.7106   -8.5409 C   0  0  0  0  0  0  0  0  0  0  0  0
   -1.3987    5.3392   -7.3120 C   0  0  0  0  0  0  0  0  0  0  0  0
   -0.0052    5.4666   -6.8074 C   0  0  0  0  0  0  0  0  0  0  0  0
    1.1247    5.5778   -7.5593 C   0  0  0  0  0  0  0  0  0  0  0  0
    1.0908    5.8315   -8.9783 C   0  0  0  0  0  0  0  0  0  0  0  0
    1.0875    6.0352  -10.1145 N   0  0  0  0  0  0  0  0  0  0  0  0
    2.4062    5.2244   -7.0260 C   0  0  0  0  0  0  0  0  0  0  0  0
    3.4279    4.9165   -6.5875 N   0  0  0  0  0  0  0  0  0  0  0  0
    1.6459   -8.2345    2.2998 H   0  0  0  0  0  0  0  0  0  0  0  0
   -4.2577   -6.4889    1.4420 H   0  0  0  0  0  0  0  0  0  0  0  0
   -5.5315   -5.5800   -3.6151 H   0  0  0  0  0  0  0  0  0  0  0  0
   -7.1837   -5.3786   -2.9274 H   0  0  0  0  0  0  0  0  0  0  0  0
   -6.3662   -3.9569   -3.7501 H   0  0  0  0  0  0  0  0  0  0  0  0
   -3.0695   -4.1942   -2.0323 H   0  0  0  0  0  0  0  0  0  0  0  0
   -0.7331   -4.8650   -1.6651 H   0  0  0  0  0  0  0  0  0  0  0  0
   -0.3697   -6.2802    5.4289 H   0  0  0  0  0  0  0  0  0  0  0  0
    1.0879   -5.6537    6.2744 H   0  0  0  0  0  0  0  0  0  0  0  0
    2.3404   -7.7577    5.2042 H   0  0  0  0  0  0  0  0  0  0  0  0
    1.3052   -7.9418    6.6636 H   0  0  0  0  0  0  0  0  0  0  0  0
    0.6469   -8.4076    5.0563 H   0  0  0  0  0  0  0  0  0  0  0  0
    1.2107    2.4520    8.1572 H   0  0  0  0  0  0  0  0  0  0  0  0
    0.8857    0.6893    7.9832 H   0  0  0  0  0  0  0  0  0  0  0  0
   -0.4822    1.8597    7.8590 H   0  0  0  0  0  0  0  0  0  0  0  0
    1.3775    4.6010    6.7756 H   0  0  0  0  0  0  0  0  0  0  0  0
    0.2694    5.1488    5.4652 H   0  0  0  0  0  0  0  0  0  0  0  0
   -0.3914    4.2356    6.8651 H   0  0  0  0  0  0  0  0  0  0  0  0
    0.4630    7.4277   -2.5627 H   0  0  0  0  0  0  0  0  0  0  0  0
    0.3557    7.2482   -0.7772 H   0  0  0  0  0  0  0  0  0  0  0  0
    2.9697    6.9543   -2.4127 H   0  0  0  0  0  0  0  0  0  0  0  0
    2.4563    8.4522   -1.5519 H   0  0  0  0  0  0  0  0  0  0  0  0
    2.8150    6.9477   -0.6121 H   0  0  0  0  0  0  0  0  0  0  0  0
    1.6425   -0.4715   -1.5638 H   0  0  0  0  0  0  0  0  0  0  0  0
    0.4183    0.6489   -2.0563 H   0  0  0  0  0  0  0  0  0  0  0  0
   -0.6201   -1.5271   -1.6527 H   0  0  0  0  0  0  0  0  0  0  0  0
   -0.1956   -1.4467    0.0888 H   0  0  0  0  0  0  0  0  0  0  0  0
   -1.3068   -0.2152   -0.6157 H   0  0  0  0  0  0  0  0  0  0  0  0
    3.1793   -3.0966    0.4321 H   0  0  0  0  0  0  0  0  0  0  0  0
    2.0570   -2.2385   -0.5490 H   0  0  0  0  0  0  0  0  0  0  0  0
    3.5399   -0.1137   -0.1902 H   0  0  0  0  0  0  0  0  0  0  0  0
    4.5499   -1.0767    0.9378 H   0  0  0  0  0  0  0  0  0  0  0  0
    4.4996   -1.5026   -0.8311 H   0  0  0  0  0  0  0  0  0  0  0  0
    1.6613    6.0354   -4.6477 H   0  0  0  0  0  0  0  0  0  0  0  0
   -4.1640    4.0903   -5.7365 H   0  0  0  0  0  0  0  0  0  0  0  0
   -1.4059    6.2084   -9.3050 H   0  0  0  0  0  0  0  0  0  0  0  0
  1  2  2  3
  2  3  1  0
  3  4  2  0
  3  5  1  0
  5  6  2  0
  6  7  1  0
  7  8  1  0
  8  9  2  0
  8 10  1  0
 10 11  1  0
  7 12  2  0
 12 13  1  0
 13 14  2  0
 14 15  1  0
 15 16  2  3
 16 17  1  0
 17 18  3  0
 16 19  1  0
 19 20  3  0
  1 21  1  0
 21 22  2  0
 22 23  1  0
 23 24  1  0
 22 25  1  0
 25 26  2  0
 26 27  1  0
 26 28  1  0
 28 29  2  0
 29 30  1  0
 29 31  1  0
 31 32  2  0
 32 33  1  0
 33 34  2  0
 34 35  1  0
 34 36  1  0
 36 37  1  0
 36 38  2  0
 38 39  1  0
 39 40  2  0
 40 41  1  0
 41 42  1  0
 42 43  1  0
 43 44  1  0
 44 45  1  0
 45 46  1  0
 44 47  2  0
 47 48  1  0
 48 49  1  0
 49 50  1  0
 50 51  1  0
 51 52  1  0
 52 53  1  0
 51 54  1  0
 54 55  2  0
 55 56  1  0
 56 57  1  0
 57 58  1  0
 47 59  1  0
 59 60  2  3
 60 61  1  0
 61 62  2  0
 61 63  1  0
 63 64  2  0
 64 65  1  0
 65 66  1  0
 65 67  2  0
 67 68  1  0
 67 69  1  0
 69 70  2  0
 70 71  1  0
 71 72  2  3
 72 73  1  0
 73 74  3  0
 72 75  1  0
 75 76  3  0
 15  2  1  0
 27 21  1  0
 56 28  1  0
 71 60  1  0
 14  5  1  0
 30 25  1  0
 55 31  1  0
 70 63  1  0
 39 32  1  0
 54 40  1  0
 50 41  2  0
 49 43  2  0
  1 77  1  0
  6 78  1  0
 11 79  1  0
 11 80  1  0
 11 81  1  0
 12 82  1  0
 13 83  1  0
 23 84  1  0
 23 85  1  0
 24 86  1  0
 24 87  1  0
 24 88  1  0
 35 89  1  0
 35 90  1  0
 35 91  1  0
 37 92  1  0
 37 93  1  0
 37 94  1  0
 45 95  1  0
 45 96  1  0
 46 97  1  0
 46 98  1  0
 46 99  1  0
 52100  1  0
 52101  1  0
 53102  1  0
 53103  1  0
 53104  1  0
 57105  1  0
 57106  1  0
 58107  1  0
 58108  1  0
 58109  1  0
 59110  1  0
 64111  1  0
 69112  1  0
M  END

