
     RDKit          3D

174190  0  0  0  0  0  0  0  0999 V2000
   -5.5485   -4.5815   -6.2243 C   0  0  0  0  0  0  0  0  0  0  0  0
   -6.2754   -5.6293   -5.7855 C   0  0  0  0  0  0  0  0  0  0  0  0
   -6.2345   -6.9419   -6.4390 C   0  0  0  0  0  0  0  0  0  0  0  0
   -5.9542   -7.1568   -7.6519 O   0  0  0  0  0  0  0  0  0  0  0  0
   -6.3934   -7.9611   -5.4100 C   0  0  0  0  0  0  0  0  0  0  0  0
   -6.0895   -9.3246   -5.4829 C   0  0  0  0  0  0  0  0  0  0  0  0
   -6.0356  -10.0774   -4.2868 C   0  0  0  0  0  0  0  0  0  0  0  0
   -5.6121  -11.4899   -4.2961 C   0  0  0  0  0  0  0  0  0  0  0  0
   -5.7491  -12.1825   -5.3380 O   0  0  0  0  0  0  0  0  0  0  0  0
   -5.0583  -12.0524   -3.1345 O   0  0  0  0  0  0  0  0  0  0  0  0
   -4.5734  -13.3902   -3.0726 C   0  0  0  0  0  0  0  0  0  0  0  0
   -6.2978   -9.4358   -3.0545 C   0  0  0  0  0  0  0  0  0  0  0  0
   -6.5917   -8.0718   -3.0031 C   0  0  0  0  0  0  0  0  0  0  0  0
   -6.6543   -7.3427   -4.1979 C   0  0  0  0  0  0  0  0  0  0  0  0
   -6.7574   -5.8803   -4.3996 C   0  0  0  0  0  0  0  0  0  0  0  0
   -7.4122   -4.9904   -3.6144 C   0  0  0  0  0  0  0  0  0  0  0  0
   -7.6217   -3.6270   -4.0383 C   0  0  0  0  0  0  0  0  0  0  0  0
   -7.7839   -2.5304   -4.3723 N   0  0  0  0  0  0  0  0  0  0  0  0
   -7.9741   -5.3483   -2.3358 C   0  0  0  0  0  0  0  0  0  0  0  0
   -8.4387   -5.6209   -1.3122 N   0  0  0  0  0  0  0  0  0  0  0  0
   -4.8217   -3.6612   -5.3213 C   0  0  0  0  0  0  0  0  0  0  0  0
   -4.2417   -4.1143   -3.7710 S   0  0  0  0  0  0  0  0  0  0  0  0
   -3.5129   -2.6428   -3.5310 C   0  0  0  0  0  0  0  0  0  0  0  0
   -2.9046   -1.9445   -2.5534 C   0  0  0  0  0  0  0  0  0  0  0  0
   -2.4498   -2.1722   -0.9519 S   0  0  0  0  0  0  0  0  0  0  0  0
   -1.9105   -0.5609   -0.9275 C   0  0  0  0  0  0  0  0  0  0  0  0
   -1.0822    0.1479   -0.0134 C   0  0  0  0  0  0  0  0  0  0  0  0
   -0.7316   -0.1945    1.2936 C   0  0  0  0  0  0  0  0  0  0  0  0
    0.1697    0.6532    1.9482 C   0  0  0  0  0  0  0  0  0  0  0  0
    0.7122    0.5096    3.3679 C   0  0  0  0  0  0  0  0  0  0  0  0
   -0.3633    0.9010    4.4066 C   0  0  0  0  0  0  0  0  0  0  0  0
   -0.3636    0.3773    5.7177 C   0  0  0  0  0  0  0  0  0  0  0  0
   -1.3032    0.8052    6.6579 C   0  0  0  0  0  0  0  0  0  0  0  0
   -2.2288    1.7920    6.3322 C   0  0  0  0  0  0  0  0  0  0  0  0
   -2.2225    2.3734    5.0651 C   0  0  0  0  0  0  0  0  0  0  0  0
   -3.1463    3.3964    4.7930 O   0  0  0  0  0  0  0  0  0  0  0  0
   -3.1996    4.1243    3.5668 C   0  0  0  0  0  0  0  0  0  0  0  0
   -4.2742    5.1979    3.6573 C   0  0  0  0  0  0  0  0  0  0  0  0
   -1.2885    1.9320    4.1120 C   0  0  0  0  0  0  0  0  0  0  0  0
    1.2941   -0.9030    3.4856 C   0  0  0  0  0  0  0  0  0  0  0  0
    2.5675   -1.1997    2.9605 C   0  0  0  0  0  0  0  0  0  0  0  0
    3.0689   -2.5044    3.0036 C   0  0  0  0  0  0  0  0  0  0  0  0
    2.2905   -3.5439    3.5155 C   0  0  0  0  0  0  0  0  0  0  0  0
    0.9916   -3.2935    3.9632 C   0  0  0  0  0  0  0  0  0  0  0  0
    0.2317   -4.3715    4.4469 O   0  0  0  0  0  0  0  0  0  0  0  0
   -1.0951   -4.2565    4.9588 C   0  0  0  0  0  0  0  0  0  0  0  0
   -1.5689   -5.6196    5.4398 C   0  0  0  0  0  0  0  0  0  0  0  0
    0.4860   -1.9791    3.9109 C   0  0  0  0  0  0  0  0  0  0  0  0
    1.7502    1.6231    3.3340 C   0  0  0  0  0  0  0  0  0  0  0  0
    1.6347    2.3743    2.1830 C   0  0  0  0  0  0  0  0  0  0  0  0
    0.6752    1.7779    1.2964 C   0  0  0  0  0  0  0  0  0  0  0  0
    0.2693    2.1573    0.0110 C   0  0  0  0  0  0  0  0  0  0  0  0
   -0.6355    1.3033   -0.6514 C   0  0  0  0  0  0  0  0  0  0  0  0
   -1.2234    1.4340   -2.0668 C   0  0  0  0  0  0  0  0  0  0  0  0
   -2.1672    2.6495   -2.1483 C   0  0  0  0  0  0  0  0  0  0  0  0
   -2.9870    2.9866   -1.0505 C   0  0  0  0  0  0  0  0  0  0  0  0
   -3.8134    4.1110   -1.0939 C   0  0  0  0  0  0  0  0  0  0  0  0
   -3.8685    4.9003   -2.2411 C   0  0  0  0  0  0  0  0  0  0  0  0
   -3.0779    4.5779   -3.3582 C   0  0  0  0  0  0  0  0  0  0  0  0
   -3.0711    5.3442   -4.5350 O   0  0  0  0  0  0  0  0  0  0  0  0
   -3.6902    6.6230   -4.7013 C   0  0  0  0  0  0  0  0  0  0  0  0
   -2.9248    7.6996   -3.9371 C   0  0  0  0  0  0  0  0  0  0  0  0
   -2.2579    3.4477   -3.3112 C   0  0  0  0  0  0  0  0  0  0  0  0
   -0.0317    1.4813   -3.0414 C   0  0  0  0  0  0  0  0  0  0  0  0
    0.4470    0.3362   -3.7089 C   0  0  0  0  0  0  0  0  0  0  0  0
    1.5429    0.4209   -4.5752 C   0  0  0  0  0  0  0  0  0  0  0  0
    2.2246    1.6306   -4.7320 C   0  0  0  0  0  0  0  0  0  0  0  0
    1.8293    2.7614   -4.0185 C   0  0  0  0  0  0  0  0  0  0  0  0
    2.5834    3.9412   -4.1600 O   0  0  0  0  0  0  0  0  0  0  0  0
    2.4110    5.1281   -3.3829 C   0  0  0  0  0  0  0  0  0  0  0  0
    2.9364    4.9225   -1.9650 C   0  0  0  0  0  0  0  0  0  0  0  0
    0.6982    2.6824   -3.1870 C   0  0  0  0  0  0  0  0  0  0  0  0
   -2.0357    0.1313   -2.1123 C   0  0  0  0  0  0  0  0  0  0  0  0
   -2.6722   -0.6948   -3.0559 C   0  0  0  0  0  0  0  0  0  0  0  0
   -3.1510   -0.5701   -4.3315 N   0  0  0  0  0  0  0  0  0  0  0  0
   -3.6626   -1.8102   -4.5836 C   0  0  0  0  0  0  0  0  0  0  0  0
   -4.4101   -2.3440   -5.6401 C   0  0  0  0  0  0  0  0  0  0  0  0
   -3.3560    0.6293   -5.1408 C   0  0  0  0  0  0  0  0  0  0  0  0
   -2.2338    0.8005   -6.1537 C   0  0  0  0  0  0  0  0  0  0  0  0
    2.5902    3.7866    2.1642 S   0  0  0  0  0  0  0  0  0  0  0  0
    3.1180    3.4248    3.7343 C   0  0  0  0  0  0  0  0  0  0  0  0
    4.1145    3.8066    4.5801 C   0  0  0  0  0  0  0  0  0  0  0  0
    5.4953    4.7465    4.5039 S   0  0  0  0  0  0  0  0  0  0  0  0
    6.2552    3.8636    5.7620 C   0  0  0  0  0  0  0  0  0  0  0  0
    5.4126    2.8497    6.2364 C   0  0  0  0  0  0  0  0  0  0  0  0
    4.2154    2.8348    5.5225 C   0  0  0  0  0  0  0  0  0  0  0  0
    3.3070    1.8356    5.3390 N   0  0  0  0  0  0  0  0  0  0  0  0
    3.3760    0.4998    5.9410 C   0  0  0  0  0  0  0  0  0  0  0  0
    4.5856   -0.2864    5.4293 C   0  0  0  0  0  0  0  0  0  0  0  0
    2.6279    2.2466    4.2294 C   0  0  0  0  0  0  0  0  0  0  0  0
    7.6432    4.0488    6.2245 C   0  0  0  0  0  0  0  0  0  0  0  0
    8.7243    4.0921    5.4130 C   0  0  0  0  0  0  0  0  0  0  0  0
    8.7264    3.7576    3.9774 C   0  0  0  0  0  0  0  0  0  0  0  0
    7.7349    3.4219    3.2784 O   0  0  0  0  0  0  0  0  0  0  0  0
   10.0874    3.7107    3.5164 C   0  0  0  0  0  0  0  0  0  0  0  0
   10.5397    3.3632    2.2408 C   0  0  0  0  0  0  0  0  0  0  0  0
   11.9196    3.2278    2.0244 C   0  0  0  0  0  0  0  0  0  0  0  0
   12.4194    2.8552    0.6842 C   0  0  0  0  0  0  0  0  0  0  0  0
   13.6547    2.6890    0.4825 O   0  0  0  0  0  0  0  0  0  0  0  0
   11.5150    2.7104   -0.3724 O   0  0  0  0  0  0  0  0  0  0  0  0
   11.9184    2.3999   -1.7034 C   0  0  0  0  0  0  0  0  0  0  0  0
   12.8101    3.4313    3.1061 C   0  0  0  0  0  0  0  0  0  0  0  0
   12.3305    3.7924    4.3763 C   0  0  0  0  0  0  0  0  0  0  0  0
   10.9521    3.9744    4.5636 C   0  0  0  0  0  0  0  0  0  0  0  0
   10.1654    4.2892    5.7989 C   0  0  0  0  0  0  0  0  0  0  0  0
   10.6605    4.7874    6.9656 C   0  0  0  0  0  0  0  0  0  0  0  0
    9.8427    5.0333    8.1201 C   0  0  0  0  0  0  0  0  0  0  0  0
    9.1983    5.2105    9.0611 N   0  0  0  0  0  0  0  0  0  0  0  0
   12.0569    5.0900    7.1510 C   0  0  0  0  0  0  0  0  0  0  0  0
   13.1748    5.3381    7.3216 N   0  0  0  0  0  0  0  0  0  0  0  0
   -5.3444   -4.4932   -7.2850 H   0  0  0  0  0  0  0  0  0  0  0  0
   -5.8295   -9.7721   -6.4374 H   0  0  0  0  0  0  0  0  0  0  0  0
   -3.8829  -13.5916   -3.9161 H   0  0  0  0  0  0  0  0  0  0  0  0
   -4.0260  -13.5329   -2.1205 H   0  0  0  0  0  0  0  0  0  0  0  0
   -5.4274  -14.0972   -3.1073 H   0  0  0  0  0  0  0  0  0  0  0  0
   -6.2242   -9.9892   -2.1220 H   0  0  0  0  0  0  0  0  0  0  0  0
   -6.7076   -7.5934   -2.0384 H   0  0  0  0  0  0  0  0  0  0  0  0
   -1.1279   -1.0829    1.7655 H   0  0  0  0  0  0  0  0  0  0  0  0
    0.3329   -0.3848    6.0239 H   0  0  0  0  0  0  0  0  0  0  0  0
   -1.3014    0.3734    7.6500 H   0  0  0  0  0  0  0  0  0  0  0  0
   -2.9387    2.1176    7.0765 H   0  0  0  0  0  0  0  0  0  0  0  0
   -3.4419    3.4337    2.7322 H   0  0  0  0  0  0  0  0  0  0  0  0
   -2.2158    4.6106    3.3780 H   0  0  0  0  0  0  0  0  0  0  0  0
   -4.3008    5.7774    2.7087 H   0  0  0  0  0  0  0  0  0  0  0  0
   -4.0491    5.8937    4.4937 H   0  0  0  0  0  0  0  0  0  0  0  0
   -5.2709    4.7315    3.8230 H   0  0  0  0  0  0  0  0  0  0  0  0
   -1.2730    2.4077    3.1425 H   0  0  0  0  0  0  0  0  0  0  0  0
    3.1808   -0.4253    2.5203 H   0  0  0  0  0  0  0  0  0  0  0  0
    4.0607   -2.7141    2.6216 H   0  0  0  0  0  0  0  0  0  0  0  0
    2.6898   -4.5504    3.5422 H   0  0  0  0  0  0  0  0  0  0  0  0
   -1.7745   -3.8949    4.1573 H   0  0  0  0  0  0  0  0  0  0  0  0
   -1.1081   -3.5504    5.8135 H   0  0  0  0  0  0  0  0  0  0  0  0
   -2.6124   -5.5405    5.8144 H   0  0  0  0  0  0  0  0  0  0  0  0
   -0.9195   -5.9825    6.2690 H   0  0  0  0  0  0  0  0  0  0  0  0
   -1.5407   -6.3490    4.6042 H   0  0  0  0  0  0  0  0  0  0  0  0
   -0.5443   -1.7940    4.1897 H   0  0  0  0  0  0  0  0  0  0  0  0
    0.6551    3.0530   -0.4416 H   0  0  0  0  0  0  0  0  0  0  0  0
   -2.9929    2.3863   -0.1535 H   0  0  0  0  0  0  0  0  0  0  0  0
   -4.4271    4.3619   -0.2402 H   0  0  0  0  0  0  0  0  0  0  0  0
   -4.5225    5.7544   -2.2491 H   0  0  0  0  0  0  0  0  0  0  0  0
   -4.7515    6.5883   -4.3853 H   0  0  0  0  0  0  0  0  0  0  0  0
   -3.6718    6.8723   -5.7800 H   0  0  0  0  0  0  0  0  0  0  0  0
   -1.8429    7.6246   -4.1644 H   0  0  0  0  0  0  0  0  0  0  0  0
   -3.0782    7.5891   -2.8466 H   0  0  0  0  0  0  0  0  0  0  0  0
   -3.2858    8.7046   -4.2443 H   0  0  0  0  0  0  0  0  0  0  0  0
   -1.6946    3.1923   -4.1983 H   0  0  0  0  0  0  0  0  0  0  0  0
   -0.0305   -0.6271   -3.5932 H   0  0  0  0  0  0  0  0  0  0  0  0
    1.8790   -0.4568   -5.1115 H   0  0  0  0  0  0  0  0  0  0  0  0
    3.0805    1.6816   -5.3933 H   0  0  0  0  0  0  0  0  0  0  0  0
    2.9844    5.9544   -3.8609 H   0  0  0  0  0  0  0  0  0  0  0  0
    1.3428    5.4359   -3.3694 H   0  0  0  0  0  0  0  0  0  0  0  0
    2.6432    3.9305   -1.5742 H   0  0  0  0  0  0  0  0  0  0  0  0
    2.5318    5.7018   -1.2880 H   0  0  0  0  0  0  0  0  0  0  0  0
    4.0481    4.9761   -1.9561 H   0  0  0  0  0  0  0  0  0  0  0  0
    0.3782    3.5571   -2.6384 H   0  0  0  0  0  0  0  0  0  0  0  0
   -4.6607   -1.8250   -6.5576 H   0  0  0  0  0  0  0  0  0  0  0  0
   -4.3234    0.5518   -5.6837 H   0  0  0  0  0  0  0  0  0  0  0  0
   -3.4310    1.5142   -4.4868 H   0  0  0  0  0  0  0  0  0  0  0  0
   -2.1656   -0.0938   -6.8120 H   0  0  0  0  0  0  0  0  0  0  0  0
   -1.2668    0.9460   -5.6398 H   0  0  0  0  0  0  0  0  0  0  0  0
   -2.4407    1.7003   -6.7808 H   0  0  0  0  0  0  0  0  0  0  0  0
    5.7010    2.1171    6.9764 H   0  0  0  0  0  0  0  0  0  0  0  0
    3.4391    0.5967    7.0463 H   0  0  0  0  0  0  0  0  0  0  0  0
    2.4628   -0.0599    5.7024 H   0  0  0  0  0  0  0  0  0  0  0  0
    4.4325   -1.3705    5.6241 H   0  0  0  0  0  0  0  0  0  0  0  0
    4.7238   -0.1298    4.3409 H   0  0  0  0  0  0  0  0  0  0  0  0
    5.5119    0.0295    5.9489 H   0  0  0  0  0  0  0  0  0  0  0  0
    7.7634    4.0313    7.2926 H   0  0  0  0  0  0  0  0  0  0  0  0
    9.8185    3.1705    1.4539 H   0  0  0  0  0  0  0  0  0  0  0  0
   12.4346    1.4169   -1.7146 H   0  0  0  0  0  0  0  0  0  0  0  0
   11.0186    2.3388   -2.3533 H   0  0  0  0  0  0  0  0  0  0  0  0
   12.5925    3.1917   -2.0913 H   0  0  0  0  0  0  0  0  0  0  0  0
   13.8767    3.3037    2.9695 H   0  0  0  0  0  0  0  0  0  0  0  0
   13.0431    3.8923    5.1770 H   0  0  0  0  0  0  0  0  0  0  0  0
  1  2  2  3
  2  3  1  0
  3  4  2  0
  3  5  1  0
  5  6  2  0
  6  7  1  0
  7  8  1  0
  8  9  2  0
  8 10  1  0
 10 11  1  0
  7 12  2  0
 12 13  1  0
 13 14  2  0
 14 15  1  0
 15 16  2  3
 16 17  1  0
 17 18  3  0
 16 19  1  0
 19 20  3  0
  1 21  1  0
 21 22  1  0
 22 23  1  0
 23 24  1  0
 24 25  1  0
 25 26  1  0
 26 27  1  0
 27 28  2  0
 28 29  1  0
 29 30  1  0
 30 31  1  0
 31 32  2  0
 32 33  1  0
 33 34  2  0
 34 35  1  0
 35 36  1  0
 36 37  1  0
 37 38  1  0
 35 39  2  0
 30 40  1  0
 40 41  2  0
 41 42  1  0
 42 43  2  0
 43 44  1  0
 44 45  1  0
 45 46  1  0
 46 47  1  0
 44 48  2  0
 30 49  1  0
 49 50  2  0
 50 51  1  0
 51 52  1  0
 52 53  2  0
 53 54  1  0
 54 55  1  0
 55 56  2  0
 56 57  1  0
 57 58  2  0
 58 59  1  0
 59 60  1  0
 60 61  1  0
 61 62  1  0
 59 63  2  0
 54 64  1  0
 64 65  2  0
 65 66  1  0
 66 67  2  0
 67 68  1  0
 68 69  1  0
 69 70  1  0
 70 71  1  0
 68 72  2  0
 54 73  1  0
 73 74  1  0
 74 75  1  0
 75 76  1  0
 76 77  1  0
 75 78  1  0
 78 79  1  0
 50 80  1  0
 80 81  1  0
 81 82  1  0
 82 83  1  0
 83 84  1  0
 84 85  2  0
 85 86  1  0
 86 87  1  0
 87 88  1  0
 88 89  1  0
 87 90  1  0
 84 91  1  0
 91 92  2  3
 92 93  1  0
 93 94  2  0
 93 95  1  0
 95 96  2  0
 96 97  1  0
 97 98  1  0
 98 99  2  0
 98100  1  0
100101  1  0
 97102  2  0
102103  1  0
103104  2  0
104105  1  0
105106  2  3
106107  1  0
107108  3  0
106109  1  0
109110  3  0
 15  2  1  0
 77 21  2  0
 90 81  2  0
105 92  1  0
 14  5  1  0
 76 23  2  0
 86 82  2  0
104 95  1  0
 74 24  2  0
 73 26  2  0
 53 27  1  0
 63 55  1  0
 72 64  1  0
 51 29  2  0
 39 31  1  0
 48 40  1  0
 90 49  1  0
  1111  1  0
  6112  1  0
 11113  1  0
 11114  1  0
 11115  1  0
 12116  1  0
 13117  1  0
 28118  1  0
 32119  1  0
 33120  1  0
 34121  1  0
 37122  1  0
 37123  1  0
 38124  1  0
 38125  1  0
 38126  1  0
 39127  1  0
 41128  1  0
 42129  1  0
 43130  1  0
 46131  1  0
 46132  1  0
 47133  1  0
 47134  1  0
 47135  1  0
 48136  1  0
 52137  1  0
 56138  1  0
 57139  1  0
 58140  1  0
 61141  1  0
 61142  1  0
 62143  1  0
 62144  1  0
 62145  1  0
 63146  1  0
 65147  1  0
 66148  1  0
 67149  1  0
 70150  1  0
 70151  1  0
 71152  1  0
 71153  1  0
 71154  1  0
 72155  1  0
 77156  1  0
 78157  1  0
 78158  1  0
 79159  1  0
 79160  1  0
 79161  1  0
 85162  1  0
 88163  1  0
 88164  1  0
 89165  1  0
 89166  1  0
 89167  1  0
 91168  1  0
 96169  1  0
101170  1  0
101171  1  0
101172  1  0
102173  1  0
103174  1  0
M  END

