
     RDKit          3D

113126  0  0  0  0  0  0  0  0999 V2000
    6.5751    3.8728   -0.2562 C   0  0  0  0  0  0  0  0  0  0  0  0
    6.7386    4.1269    1.0619 C   0  0  0  0  0  0  0  0  0  0  0  0
    5.6513    4.3687    2.0270 C   0  0  0  0  0  0  0  0  0  0  0  0
    4.4359    4.5685    1.7567 O   0  0  0  0  0  0  0  0  0  0  0  0
    6.1906    4.2973    3.3661 C   0  0  0  0  0  0  0  0  0  0  0  0
    5.5261    4.5415    4.5691 C   0  0  0  0  0  0  0  0  0  0  0  0
    6.2543    4.5071    5.7647 C   0  0  0  0  0  0  0  0  0  0  0  0
    5.5772    4.7911    6.9613 O   0  0  0  0  0  0  0  0  0  0  0  0
    5.9244    4.3012    8.2291 C   0  0  0  0  0  0  0  0  0  0  0  0
    6.7214    3.3307    8.3571 O   0  0  0  0  0  0  0  0  0  0  0  0
    5.3351    4.9492    9.4439 C   0  0  0  0  0  0  0  0  0  0  0  0
    7.6470    4.2536    5.7228 C   0  0  0  0  0  0  0  0  0  0  0  0
    8.2954    4.0209    4.4955 C   0  0  0  0  0  0  0  0  0  0  0  0
    7.5433    4.0197    3.3103 C   0  0  0  0  0  0  0  0  0  0  0  0
    7.9772    3.8995    1.8867 C   0  0  0  0  0  0  0  0  0  0  0  0
    9.2336    3.6363    1.4445 C   0  0  0  0  0  0  0  0  0  0  0  0
    9.6345    3.8468    0.0742 C   0  0  0  0  0  0  0  0  0  0  0  0
    9.9276    4.0172   -1.0304 N   0  0  0  0  0  0  0  0  0  0  0  0
   10.2274    3.0354    2.2972 C   0  0  0  0  0  0  0  0  0  0  0  0
   11.0169    2.5228    2.9780 N   0  0  0  0  0  0  0  0  0  0  0  0
    5.2633    3.8470   -0.9255 C   0  0  0  0  0  0  0  0  0  0  0  0
    4.2651    5.2053   -1.1147 S   0  0  0  0  0  0  0  0  0  0  0  0
    3.0153    4.3026   -1.7633 C   0  0  0  0  0  0  0  0  0  0  0  0
    1.6580    4.4440   -1.7515 C   0  0  0  0  0  0  0  0  0  0  0  0
    0.8879    5.4643   -1.1665 C   0  0  0  0  0  0  0  0  0  0  0  0
   -0.4614    5.1883   -0.7943 C   0  0  0  0  0  0  0  0  0  0  0  0
   -1.1439    6.1703   -0.1564 N   0  0  0  0  0  0  0  0  0  0  0  0
    0.0329    7.3321   -0.0991 S   0  0  0  0  0  0  0  0  0  0  0  0
    1.3769    6.6812   -0.8217 N   0  0  0  0  0  0  0  0  0  0  0  0
   -0.9872    3.9318   -1.0894 C   0  0  0  0  0  0  0  0  0  0  0  0
   -2.2061    3.3627   -0.8403 C   0  0  0  0  0  0  0  0  0  0  0  0
   -3.6585    3.6829   -0.0176 S   0  0  0  0  0  0  0  0  0  0  0  0
   -4.2623    2.1397   -0.4495 C   0  0  0  0  0  0  0  0  0  0  0  0
   -5.4335    1.4411   -0.1501 C   0  0  0  0  0  0  0  0  0  0  0  0
   -6.5316    1.9783    0.7272 C   0  0  0  0  0  0  0  0  0  0  0  0
   -6.4135    1.4232    2.1438 C   0  0  0  0  0  0  0  0  0  0  0  0
   -5.3906    0.1370   -0.6853 C   0  0  0  0  0  0  0  0  0  0  0  0
   -3.9402   -0.0845   -1.5601 S   0  0  0  0  0  0  0  0  0  0  0  0
   -3.3619    1.4436   -1.2131 C   0  0  0  0  0  0  0  0  0  0  0  0
   -2.1910    2.1404   -1.4234 C   0  0  0  0  0  0  0  0  0  0  0  0
   -1.0316    1.8667   -2.0611 N   0  0  0  0  0  0  0  0  0  0  0  0
   -0.2468    2.9487   -1.7645 C   0  0  0  0  0  0  0  0  0  0  0  0
    1.1447    3.1578   -1.9741 C   0  0  0  0  0  0  0  0  0  0  0  0
    2.1661    2.2288   -1.9972 N   0  0  0  0  0  0  0  0  0  0  0  0
    3.3045    2.9773   -1.8310 C   0  0  0  0  0  0  0  0  0  0  0  0
    4.6051    2.6699   -1.3446 C   0  0  0  0  0  0  0  0  0  0  0  0
    5.1886    1.3047   -1.0515 C   0  0  0  0  0  0  0  0  0  0  0  0
    5.0231    0.9287    0.4225 C   0  0  0  0  0  0  0  0  0  0  0  0
    2.0561    0.7769   -1.7883 C   0  0  0  0  0  0  0  0  0  0  0  0
    2.5696   -0.0114   -3.0010 C   0  0  0  0  0  0  0  0  0  0  0  0
   -0.8892    0.9770   -3.2211 C   0  0  0  0  0  0  0  0  0  0  0  0
   -1.9190    1.2840   -4.3037 C   0  0  0  0  0  0  0  0  0  0  0  0
   -6.5154   -0.8169   -0.6776 C   0  0  0  0  0  0  0  0  0  0  0  0
   -6.3851   -2.1547   -0.5639 C   0  0  0  0  0  0  0  0  0  0  0  0
   -5.1319   -2.8892   -0.3573 C   0  0  0  0  0  0  0  0  0  0  0  0
   -4.0977   -2.4505    0.2155 O   0  0  0  0  0  0  0  0  0  0  0  0
   -5.3154   -4.2504   -0.8059 C   0  0  0  0  0  0  0  0  0  0  0  0
   -4.3273   -5.2545   -0.9095 C   0  0  0  0  0  0  0  0  0  0  0  0
   -4.7893   -6.4382   -1.4567 C   0  0  0  0  0  0  0  0  0  0  0  0
   -6.1407   -6.6228   -1.8906 C   0  0  0  0  0  0  0  0  0  0  0  0
   -7.1140   -5.6453   -1.7872 C   0  0  0  0  0  0  0  0  0  0  0  0
   -6.6671   -4.4303   -1.1944 C   0  0  0  0  0  0  0  0  0  0  0  0
   -7.4206   -3.1763   -0.9098 C   0  0  0  0  0  0  0  0  0  0  0  0
   -8.7643   -3.0571   -0.7472 C   0  0  0  0  0  0  0  0  0  0  0  0
   -9.3688   -1.8831   -0.1675 C   0  0  0  0  0  0  0  0  0  0  0  0
   -9.8624   -0.9444    0.3022 N   0  0  0  0  0  0  0  0  0  0  0  0
   -9.6746   -4.1397   -1.0113 C   0  0  0  0  0  0  0  0  0  0  0  0
  -10.4166   -5.0053   -1.2244 N   0  0  0  0  0  0  0  0  0  0  0  0
   -5.8313   -8.0270   -2.3165 C   0  0  0  0  0  0  0  0  0  0  0  0
   -6.3533   -9.1883   -1.4178 C   0  0  0  0  0  0  0  0  0  0  0  0
   -6.4258   -8.7361    0.0226 C   0  0  0  0  0  0  0  0  0  0  0  0
   -5.1679   -8.5642    0.4336 C   0  0  0  0  0  0  0  0  0  0  0  0
   -4.2807   -8.9042   -0.7414 C   0  0  0  0  0  0  0  0  0  0  0  0
   -5.0967  -10.0373   -1.3349 C   0  0  0  0  0  0  0  0  0  0  0  0
   -4.4489   -7.8392   -1.8655 C   0  0  0  0  0  0  0  0  0  0  0  0
    7.3779    3.4761   -0.8449 H   0  0  0  0  0  0  0  0  0  0  0  0
    4.4681    4.7789    4.5779 H   0  0  0  0  0  0  0  0  0  0  0  0
    5.4062    4.2647   10.3212 H   0  0  0  0  0  0  0  0  0  0  0  0
    5.8932    5.8839    9.6689 H   0  0  0  0  0  0  0  0  0  0  0  0
    4.2666    5.1906    9.2594 H   0  0  0  0  0  0  0  0  0  0  0  0
    8.2415    4.2935    6.6281 H   0  0  0  0  0  0  0  0  0  0  0  0
    9.3656    3.8987    4.5042 H   0  0  0  0  0  0  0  0  0  0  0  0
   -7.5209    1.7120    0.3064 H   0  0  0  0  0  0  0  0  0  0  0  0
   -6.4821    3.0856    0.7668 H   0  0  0  0  0  0  0  0  0  0  0  0
   -5.4252    1.6853    2.5804 H   0  0  0  0  0  0  0  0  0  0  0  0
   -7.2127    1.8592    2.7827 H   0  0  0  0  0  0  0  0  0  0  0  0
   -6.5292    0.3179    2.1372 H   0  0  0  0  0  0  0  0  0  0  0  0
    6.2722    1.3116   -1.2940 H   0  0  0  0  0  0  0  0  0  0  0  0
    4.7581    0.5246   -1.6898 H   0  0  0  0  0  0  0  0  0  0  0  0
    5.2442   -0.1540    0.5589 H   0  0  0  0  0  0  0  0  0  0  0  0
    5.7281    1.5029    1.0537 H   0  0  0  0  0  0  0  0  0  0  0  0
    3.9915    1.1264    0.7852 H   0  0  0  0  0  0  0  0  0  0  0  0
    1.0221    0.4704   -1.5504 H   0  0  0  0  0  0  0  0  0  0  0  0
    2.6178    0.4848   -0.8868 H   0  0  0  0  0  0  0  0  0  0  0  0
    3.4310    0.4956   -3.4835 H   0  0  0  0  0  0  0  0  0  0  0  0
    2.8786   -1.0278   -2.6748 H   0  0  0  0  0  0  0  0  0  0  0  0
    1.7886   -0.1419   -3.7728 H   0  0  0  0  0  0  0  0  0  0  0  0
    0.0901    1.1542   -3.6903 H   0  0  0  0  0  0  0  0  0  0  0  0
   -0.9704   -0.0810   -2.8963 H   0  0  0  0  0  0  0  0  0  0  0  0
   -1.8719    2.3569   -4.5851 H   0  0  0  0  0  0  0  0  0  0  0  0
   -1.7115    0.6602   -5.2012 H   0  0  0  0  0  0  0  0  0  0  0  0
   -2.9454    1.0509   -3.9620 H   0  0  0  0  0  0  0  0  0  0  0  0
   -7.4804   -0.3912   -0.9026 H   0  0  0  0  0  0  0  0  0  0  0  0
   -3.2973   -5.1093   -0.6097 H   0  0  0  0  0  0  0  0  0  0  0  0
   -8.1095   -5.8149   -2.1595 H   0  0  0  0  0  0  0  0  0  0  0  0
   -5.9244   -8.1986   -3.4110 H   0  0  0  0  0  0  0  0  0  0  0  0
   -7.2576   -9.7093   -1.7945 H   0  0  0  0  0  0  0  0  0  0  0  0
   -7.3174   -8.6426    0.6365 H   0  0  0  0  0  0  0  0  0  0  0  0
   -4.8560   -8.3110    1.4427 H   0  0  0  0  0  0  0  0  0  0  0  0
   -3.2329   -9.1567   -0.4805 H   0  0  0  0  0  0  0  0  0  0  0  0
   -4.7237  -10.3796   -2.3333 H   0  0  0  0  0  0  0  0  0  0  0  0
   -5.1987  -10.9170   -0.6534 H   0  0  0  0  0  0  0  0  0  0  0  0
   -3.6990   -7.8982   -2.6862 H   0  0  0  0  0  0  0  0  0  0  0  0
  1  2  2  3
  2  3  1  0
  3  4  2  0
  3  5  1  0
  5  6  2  0
  6  7  1  0
  7  8  1  0
  8  9  1  0
  9 10  2  0
  9 11  1  0
  7 12  2  0
 12 13  1  0
 13 14  2  0
 14 15  1  0
 15 16  2  3
 16 17  1  0
 17 18  3  0
 16 19  1  0
 19 20  3  0
  1 21  1  0
 21 22  1  0
 22 23  1  0
 23 24  1  0
 24 25  1  0
 25 26  1  0
 26 27  2  0
 27 28  1  0
 28 29  1  0
 26 30  1  0
 30 31  1  0
 31 32  1  0
 32 33  1  0
 33 34  1  0
 34 35  1  0
 35 36  1  0
 34 37  2  0
 37 38  1  0
 38 39  1  0
 39 40  1  0
 40 41  1  0
 41 42  1  0
 42 43  1  0
 43 44  1  0
 44 45  1  0
 45 46  1  0
 46 47  1  0
 47 48  1  0
 44 49  1  0
 49 50  1  0
 41 51  1  0
 51 52  1  0
 37 53  1  0
 53 54  2  3
 54 55  1  0
 55 56  2  0
 55 57  1  0
 57 58  2  0
 58 59  1  0
 59 60  2  0
 60 61  1  0
 61 62  2  0
 62 63  1  0
 63 64  2  3
 64 65  1  0
 65 66  3  0
 64 67  1  0
 67 68  3  0
 60 69  1  0
 69 70  1  0
 70 71  1  0
 71 72  2  0
 72 73  1  0
 73 74  1  0
 73 75  1  0
 15  2  1  0
 46 21  2  0
 63 54  1  0
 75 69  1  0
 14  5  1  0
 45 23  2  0
 62 57  1  0
 74 70  1  0
 43 24  2  0
 75 59  1  0
 29 25  2  0
 42 30  2  0
 40 31  2  0
 39 33  2  0
  1 76  1  0
  6 77  1  0
 11 78  1  0
 11 79  1  0
 11 80  1  0
 12 81  1  0
 13 82  1  0
 35 83  1  0
 35 84  1  0
 36 85  1  0
 36 86  1  0
 36 87  1  0
 47 88  1  0
 47 89  1  0
 48 90  1  0
 48 91  1  0
 48 92  1  0
 49 93  1  0
 49 94  1  0
 50 95  1  0
 50 96  1  0
 50 97  1  0
 51 98  1  0
 51 99  1  0
 52100  1  0
 52101  1  0
 52102  1  0
 53103  1  0
 58104  1  0
 61105  1  0
 69106  1  0
 70107  1  0
 71108  1  0
 72109  1  0
 73110  1  0
 74111  1  0
 74112  1  0
 75113  1  0
M  END

