
     RDKit          3D

152166  0  0  0  0  0  0  0  0999 V2000
   -1.5484    5.6416    3.9660 C   0  0  0  0  0  0  0  0  0  0  0  0
   -2.2365    6.7219    3.5452 C   0  0  0  0  0  0  0  0  0  0  0  0
   -2.8625    6.8568    2.2183 C   0  0  0  0  0  0  0  0  0  0  0  0
   -2.6806    6.1083    1.2206 O   0  0  0  0  0  0  0  0  0  0  0  0
   -3.7157    8.0182    2.2268 C   0  0  0  0  0  0  0  0  0  0  0  0
   -4.5831    8.4481    1.2225 C   0  0  0  0  0  0  0  0  0  0  0  0
   -5.4225    9.5505    1.4769 C   0  0  0  0  0  0  0  0  0  0  0  0
   -6.3312   10.0189    0.5161 O   0  0  0  0  0  0  0  0  0  0  0  0
   -7.0010    9.1996   -0.4027 C   0  0  0  0  0  0  0  0  0  0  0  0
   -7.0925    7.9541   -0.2143 O   0  0  0  0  0  0  0  0  0  0  0  0
   -7.6881    9.8122   -1.5749 C   0  0  0  0  0  0  0  0  0  0  0  0
   -5.3353   10.2164    2.7138 C   0  0  0  0  0  0  0  0  0  0  0  0
   -4.4520    9.7605    3.7148 C   0  0  0  0  0  0  0  0  0  0  0  0
   -3.6155    8.6620    3.4483 C   0  0  0  0  0  0  0  0  0  0  0  0
   -2.6365    7.9428    4.3228 C   0  0  0  0  0  0  0  0  0  0  0  0
   -2.0973    8.4111    5.4798 C   0  0  0  0  0  0  0  0  0  0  0  0
   -1.1197    7.6834    6.2467 C   0  0  0  0  0  0  0  0  0  0  0  0
   -0.3316    7.1121    6.8769 N   0  0  0  0  0  0  0  0  0  0  0  0
   -2.3596    9.7424    5.9667 C   0  0  0  0  0  0  0  0  0  0  0  0
   -2.5524   10.8089    6.3733 N   0  0  0  0  0  0  0  0  0  0  0  0
   -1.2943    4.5020    3.0794 C   0  0  0  0  0  0  0  0  0  0  0  0
   -2.1776    3.4323    2.8642 C   0  0  0  0  0  0  0  0  0  0  0  0
   -3.4033    3.1462    3.6897 C   0  0  0  0  0  0  0  0  0  0  0  0
   -3.0250    2.4248    4.9788 C   0  0  0  0  0  0  0  0  0  0  0  0
   -1.7573    2.6622    1.7819 C   0  0  0  0  0  0  0  0  0  0  0  0
   -2.3281    1.2442    1.0333 S   0  0  0  0  0  0  0  0  0  0  0  0
   -1.1033    1.3120   -0.1461 C   0  0  0  0  0  0  0  0  0  0  0  0
   -0.4471    0.3321   -0.9734 C   0  0  0  0  0  0  0  0  0  0  0  0
   -0.8705   -0.9368   -1.3737 C   0  0  0  0  0  0  0  0  0  0  0  0
    0.0835   -1.7619   -1.9987 C   0  0  0  0  0  0  0  0  0  0  0  0
   -0.0916   -3.1792   -2.5364 C   0  0  0  0  0  0  0  0  0  0  0  0
   -0.9738   -4.0496   -1.6314 C   0  0  0  0  0  0  0  0  0  0  0  0
   -1.9514   -4.9218   -2.1635 C   0  0  0  0  0  0  0  0  0  0  0  0
   -2.6422   -5.8130   -1.3420 C   0  0  0  0  0  0  0  0  0  0  0  0
   -2.3643   -5.8702    0.0298 C   0  0  0  0  0  0  0  0  0  0  0  0
   -3.0220   -6.9201    0.8890 C   0  0  0  0  0  0  0  0  0  0  0  0
   -2.3414   -8.2767    0.6915 C   0  0  0  0  0  0  0  0  0  0  0  0
   -1.4082   -4.9996    0.5744 C   0  0  0  0  0  0  0  0  0  0  0  0
   -0.7312   -4.0887   -0.2426 C   0  0  0  0  0  0  0  0  0  0  0  0
   -0.5752   -3.1109   -3.9988 C   0  0  0  0  0  0  0  0  0  0  0  0
   -1.6153   -2.2330   -4.3715 C   0  0  0  0  0  0  0  0  0  0  0  0
   -2.0167   -2.1213   -5.7070 C   0  0  0  0  0  0  0  0  0  0  0  0
   -1.4214   -2.9128   -6.6996 C   0  0  0  0  0  0  0  0  0  0  0  0
   -1.8213   -2.7431   -8.1392 C   0  0  0  0  0  0  0  0  0  0  0  0
   -0.9058   -1.7460   -8.8579 C   0  0  0  0  0  0  0  0  0  0  0  0
   -0.4235   -3.8253   -6.3372 C   0  0  0  0  0  0  0  0  0  0  0  0
   -0.0192   -3.9409   -5.0020 C   0  0  0  0  0  0  0  0  0  0  0  0
    1.3731   -3.6053   -2.4878 C   0  0  0  0  0  0  0  0  0  0  0  0
    2.2209   -2.5261   -2.3415 C   0  0  0  0  0  0  0  0  0  0  0  0
    1.4169   -1.3598   -2.0683 C   0  0  0  0  0  0  0  0  0  0  0  0
    1.8300   -0.0752   -1.7010 C   0  0  0  0  0  0  0  0  0  0  0  0
    0.8444    0.8034   -1.2216 C   0  0  0  0  0  0  0  0  0  0  0  0
    1.0200    2.2575   -0.7650 C   0  0  0  0  0  0  0  0  0  0  0  0
    0.9121    3.2101   -1.9779 C   0  0  0  0  0  0  0  0  0  0  0  0
    1.4672    2.8619   -3.2296 C   0  0  0  0  0  0  0  0  0  0  0  0
    1.3091    3.7007   -4.3396 C   0  0  0  0  0  0  0  0  0  0  0  0
    0.6464    4.9279   -4.2200 C   0  0  0  0  0  0  0  0  0  0  0  0
    0.4165    5.7913   -5.4367 C   0  0  0  0  0  0  0  0  0  0  0  0
   -0.8369    5.3439   -6.1872 C   0  0  0  0  0  0  0  0  0  0  0  0
    0.1417    5.3105   -2.9703 C   0  0  0  0  0  0  0  0  0  0  0  0
    0.2923    4.4723   -1.8607 C   0  0  0  0  0  0  0  0  0  0  0  0
    2.2702    2.4649    0.0916 C   0  0  0  0  0  0  0  0  0  0  0  0
    3.0616    3.6301   -0.0208 C   0  0  0  0  0  0  0  0  0  0  0  0
    4.1917    3.8079    0.7833 C   0  0  0  0  0  0  0  0  0  0  0  0
    4.5592    2.8370    1.7242 C   0  0  0  0  0  0  0  0  0  0  0  0
    5.7922    3.0192    2.5634 C   0  0  0  0  0  0  0  0  0  0  0  0
    7.0504    2.6586    1.7782 C   0  0  0  0  0  0  0  0  0  0  0  0
    3.7713    1.6831    1.8541 C   0  0  0  0  0  0  0  0  0  0  0  0
    2.6325    1.5068    1.0609 C   0  0  0  0  0  0  0  0  0  0  0  0
   -0.2356    2.3484    0.0732 C   0  0  0  0  0  0  0  0  0  0  0  0
   -0.6225    3.1079    1.1669 C   0  0  0  0  0  0  0  0  0  0  0  0
   -0.0276    4.4687    1.9395 S   0  0  0  0  0  0  0  0  0  0  0  0
    3.6522   -2.9900   -1.5566 S   0  0  0  0  0  0  0  0  0  0  0  0
    3.2129   -4.6210   -1.4990 C   0  0  0  0  0  0  0  0  0  0  0  0
    3.6833   -5.6886   -0.7266 C   0  0  0  0  0  0  0  0  0  0  0  0
    4.8930   -5.5891    0.1760 C   0  0  0  0  0  0  0  0  0  0  0  0
    4.6010   -4.7876    1.4377 C   0  0  0  0  0  0  0  0  0  0  0  0
    2.7423   -6.7444   -0.7158 C   0  0  0  0  0  0  0  0  0  0  0  0
    1.3660   -6.2847   -1.5962 S   0  0  0  0  0  0  0  0  0  0  0  0
    1.9693   -4.7866   -2.0389 C   0  0  0  0  0  0  0  0  0  0  0  0
    2.7286   -7.9015    0.1926 C   0  0  0  0  0  0  0  0  0  0  0  0
    3.6840   -8.8382    0.2357 C   0  0  0  0  0  0  0  0  0  0  0  0
    4.8668   -8.9905   -0.6218 C   0  0  0  0  0  0  0  0  0  0  0  0
    5.1381   -8.3124   -1.6522 O   0  0  0  0  0  0  0  0  0  0  0  0
    5.6374  -10.1247   -0.1262 C   0  0  0  0  0  0  0  0  0  0  0  0
    6.8591  -10.6248   -0.5731 C   0  0  0  0  0  0  0  0  0  0  0  0
    7.4193  -11.7259    0.0996 C   0  0  0  0  0  0  0  0  0  0  0  0
    8.9764  -12.3411   -0.4359 Cl  0  0  0  0  0  0  0  0  0  0  0  0
    6.7434  -12.3049    1.2001 C   0  0  0  0  0  0  0  0  0  0  0  0
    7.4212  -13.6799    2.0672 Cl  0  0  0  0  0  0  0  0  0  0  0  0
    5.5077  -11.7848    1.6208 C   0  0  0  0  0  0  0  0  0  0  0  0
    4.9765  -10.6894    0.9417 C   0  0  0  0  0  0  0  0  0  0  0  0
    3.7524   -9.9410    1.1997 C   0  0  0  0  0  0  0  0  0  0  0  0
    2.9115  -10.1929    2.1038 O   0  0  0  0  0  0  0  0  0  0  0  0
   -1.2141    5.5376    4.9849 H   0  0  0  0  0  0  0  0  0  0  0  0
   -4.6162    7.9242    0.2780 H   0  0  0  0  0  0  0  0  0  0  0  0
   -8.7846    9.6547   -1.4827 H   0  0  0  0  0  0  0  0  0  0  0  0
   -7.4750   10.8997   -1.6141 H   0  0  0  0  0  0  0  0  0  0  0  0
   -7.3233    9.3384   -2.5128 H   0  0  0  0  0  0  0  0  0  0  0  0
   -5.9726   11.0689    2.9102 H   0  0  0  0  0  0  0  0  0  0  0  0
   -4.4745   10.2507    4.6730 H   0  0  0  0  0  0  0  0  0  0  0  0
   -4.1113    2.5188    3.1108 H   0  0  0  0  0  0  0  0  0  0  0  0
   -3.9156    4.0998    3.9378 H   0  0  0  0  0  0  0  0  0  0  0  0
   -3.9390    2.2387    5.5804 H   0  0  0  0  0  0  0  0  0  0  0  0
   -2.3236    3.0455    5.5828 H   0  0  0  0  0  0  0  0  0  0  0  0
   -2.5445    1.4522    4.7433 H   0  0  0  0  0  0  0  0  0  0  0  0
   -1.8738   -1.2841   -1.1793 H   0  0  0  0  0  0  0  0  0  0  0  0
   -2.1665   -4.9505   -3.2218 H   0  0  0  0  0  0  0  0  0  0  0  0
   -3.3641   -6.4909   -1.7823 H   0  0  0  0  0  0  0  0  0  0  0  0
   -4.0979   -7.0052    0.6177 H   0  0  0  0  0  0  0  0  0  0  0  0
   -2.9658   -6.6386    1.9617 H   0  0  0  0  0  0  0  0  0  0  0  0
   -1.2652   -8.2045    0.9495 H   0  0  0  0  0  0  0  0  0  0  0  0
   -2.4449   -8.6105   -0.3645 H   0  0  0  0  0  0  0  0  0  0  0  0
   -2.8243   -9.0316    1.3515 H   0  0  0  0  0  0  0  0  0  0  0  0
   -1.1644   -5.0482    1.6255 H   0  0  0  0  0  0  0  0  0  0  0  0
    0.0361   -3.4621    0.1986 H   0  0  0  0  0  0  0  0  0  0  0  0
   -2.1188   -1.6200   -3.6383 H   0  0  0  0  0  0  0  0  0  0  0  0
   -2.7943   -1.4131   -5.9694 H   0  0  0  0  0  0  0  0  0  0  0  0
   -1.7832   -3.7230   -8.6653 H   0  0  0  0  0  0  0  0  0  0  0  0
   -2.8685   -2.3844   -8.1931 H   0  0  0  0  0  0  0  0  0  0  0  0
   -0.0080   -2.2635   -9.2507 H   0  0  0  0  0  0  0  0  0  0  0  0
   -1.4573   -1.3059   -9.7173 H   0  0  0  0  0  0  0  0  0  0  0  0
   -0.5967   -0.9167   -8.1859 H   0  0  0  0  0  0  0  0  0  0  0  0
    0.0363   -4.4551   -7.0872 H   0  0  0  0  0  0  0  0  0  0  0  0
    0.7284   -4.6832   -4.7521 H   0  0  0  0  0  0  0  0  0  0  0  0
    2.8749    0.2217   -1.7549 H   0  0  0  0  0  0  0  0  0  0  0  0
    2.0044    1.9375   -3.3721 H   0  0  0  0  0  0  0  0  0  0  0  0
    1.7041    3.3892   -5.2996 H   0  0  0  0  0  0  0  0  0  0  0  0
    0.3016    6.8557   -5.1351 H   0  0  0  0  0  0  0  0  0  0  0  0
    1.2940    5.7201   -6.1134 H   0  0  0  0  0  0  0  0  0  0  0  0
   -0.7421    4.2841   -6.5061 H   0  0  0  0  0  0  0  0  0  0  0  0
   -0.9670    5.9659   -7.0957 H   0  0  0  0  0  0  0  0  0  0  0  0
   -1.7342    5.4541   -5.5467 H   0  0  0  0  0  0  0  0  0  0  0  0
   -0.3650    6.2611   -2.8513 H   0  0  0  0  0  0  0  0  0  0  0  0
   -0.0893    4.8146   -0.9106 H   0  0  0  0  0  0  0  0  0  0  0  0
    2.8188    4.4084   -0.7292 H   0  0  0  0  0  0  0  0  0  0  0  0
    4.7826    4.7079    0.6750 H   0  0  0  0  0  0  0  0  0  0  0  0
    5.8606    4.0752    2.9034 H   0  0  0  0  0  0  0  0  0  0  0  0
    5.7417    2.3787    3.4741 H   0  0  0  0  0  0  0  0  0  0  0  0
    7.9407    2.7809    2.4295 H   0  0  0  0  0  0  0  0  0  0  0  0
    7.0022    1.6009    1.4406 H   0  0  0  0  0  0  0  0  0  0  0  0
    7.1596    3.3235    0.8950 H   0  0  0  0  0  0  0  0  0  0  0  0
    4.0422    0.9134    2.5724 H   0  0  0  0  0  0  0  0  0  0  0  0
    2.0382    0.6139    1.2033 H   0  0  0  0  0  0  0  0  0  0  0  0
    5.2488   -6.5989    0.4745 H   0  0  0  0  0  0  0  0  0  0  0  0
    5.7202   -5.1065   -0.3849 H   0  0  0  0  0  0  0  0  0  0  0  0
    4.4346   -3.7166    1.1933 H   0  0  0  0  0  0  0  0  0  0  0  0
    3.7110   -5.1847    1.9648 H   0  0  0  0  0  0  0  0  0  0  0  0
    5.4793   -4.8550    2.1201 H   0  0  0  0  0  0  0  0  0  0  0  0
    1.8732   -7.9998    0.8487 H   0  0  0  0  0  0  0  0  0  0  0  0
    7.3670  -10.1653   -1.4074 H   0  0  0  0  0  0  0  0  0  0  0  0
    4.9821  -12.2156    2.4600 H   0  0  0  0  0  0  0  0  0  0  0  0
  1  2  2  3
  2  3  1  0
  3  4  2  0
  3  5  1  0
  5  6  2  0
  6  7  1  0
  7  8  1  0
  8  9  1  0
  9 10  2  0
  9 11  1  0
  7 12  2  0
 12 13  1  0
 13 14  2  0
 14 15  1  0
 15 16  2  3
 16 17  1  0
 17 18  3  0
 16 19  1  0
 19 20  3  0
  1 21  1  0
 21 22  2  0
 22 23  1  0
 23 24  1  0
 22 25  1  0
 25 26  1  0
 26 27  1  0
 27 28  1  0
 28 29  2  0
 29 30  1  0
 30 31  1  0
 31 32  1  0
 32 33  2  0
 33 34  1  0
 34 35  2  0
 35 36  1  0
 36 37  1  0
 35 38  1  0
 38 39  2  0
 31 40  1  0
 40 41  2  0
 41 42  1  0
 42 43  2  0
 43 44  1  0
 44 45  1  0
 43 46  1  0
 46 47  2  0
 31 48  1  0
 48 49  2  0
 49 50  1  0
 50 51  1  0
 51 52  2  0
 52 53  1  0
 53 54  1  0
 54 55  2  0
 55 56  1  0
 56 57  2  0
 57 58  1  0
 58 59  1  0
 57 60  1  0
 60 61  2  0
 53 62  1  0
 62 63  2  0
 63 64  1  0
 64 65  2  0
 65 66  1  0
 66 67  1  0
 65 68  1  0
 68 69  2  0
 53 70  1  0
 70 71  1  0
 71 72  1  0
 49 73  1  0
 73 74  1  0
 74 75  1  0
 75 76  1  0
 76 77  1  0
 75 78  2  0
 78 79  1  0
 79 80  1  0
 78 81  1  0
 81 82  2  3
 82 83  1  0
 83 84  2  0
 83 85  1  0
 85 86  2  0
 86 87  1  0
 87 88  1  0
 87 89  2  0
 89 90  1  0
 89 91  1  0
 91 92  2  0
 92 93  1  0
 93 94  2  0
 15  2  1  0
 72 21  1  0
 80 74  2  0
 93 82  1  0
 14  5  1  0
 71 25  2  0
 92 85  1  0
 70 27  2  0
 52 28  1  0
 61 54  1  0
 69 62  1  0
 50 30  2  0
 39 32  1  0
 47 40  1  0
 80 48  1  0
  1 95  1  0
  6 96  1  0
 11 97  1  0
 11 98  1  0
 11 99  1  0
 12100  1  0
 13101  1  0
 23102  1  0
 23103  1  0
 24104  1  0
 24105  1  0
 24106  1  0
 29107  1  0
 33108  1  0
 34109  1  0
 36110  1  0
 36111  1  0
 37112  1  0
 37113  1  0
 37114  1  0
 38115  1  0
 39116  1  0
 41117  1  0
 42118  1  0
 44119  1  0
 44120  1  0
 45121  1  0
 45122  1  0
 45123  1  0
 46124  1  0
 47125  1  0
 51126  1  0
 55127  1  0
 56128  1  0
 58129  1  0
 58130  1  0
 59131  1  0
 59132  1  0
 59133  1  0
 60134  1  0
 61135  1  0
 63136  1  0
 64137  1  0
 66138  1  0
 66139  1  0
 67140  1  0
 67141  1  0
 67142  1  0
 68143  1  0
 69144  1  0
 76145  1  0
 76146  1  0
 77147  1  0
 77148  1  0
 77149  1  0
 81150  1  0
 86151  1  0
 91152  1  0
M  END

