
     RDKit          3D

113127  0  0  0  0  0  0  0  0999 V2000
   -4.7971    2.0289    0.9312 C   0  0  0  0  0  0  0  0  0  0  0  0
   -5.6557    2.9587    0.4797 C   0  0  0  0  0  0  0  0  0  0  0  0
   -5.4220    4.4062    0.4881 C   0  0  0  0  0  0  0  0  0  0  0  0
   -4.3182    4.9868    0.6695 O   0  0  0  0  0  0  0  0  0  0  0  0
   -6.6991    5.0702    0.3371 C   0  0  0  0  0  0  0  0  0  0  0  0
   -6.9746    6.4331    0.4458 C   0  0  0  0  0  0  0  0  0  0  0  0
   -8.3151    6.8537    0.3995 C   0  0  0  0  0  0  0  0  0  0  0  0
   -8.6407    8.2129    0.5179 C   0  0  0  0  0  0  0  0  0  0  0  0
   -9.9771    8.6198    0.4953 C   0  0  0  0  0  0  0  0  0  0  0  0
  -10.9988    7.6767    0.3552 C   0  0  0  0  0  0  0  0  0  0  0  0
  -10.6920    6.3183    0.2382 C   0  0  0  0  0  0  0  0  0  0  0  0
   -9.3559    5.8914    0.2588 C   0  0  0  0  0  0  0  0  0  0  0  0
   -9.0433    4.5206    0.1598 C   0  0  0  0  0  0  0  0  0  0  0  0
   -7.6973    4.1236    0.1775 C   0  0  0  0  0  0  0  0  0  0  0  0
   -7.0950    2.7614    0.1412 C   0  0  0  0  0  0  0  0  0  0  0  0
   -7.6644    1.6314   -0.3534 C   0  0  0  0  0  0  0  0  0  0  0  0
   -6.9125    0.4215   -0.5676 C   0  0  0  0  0  0  0  0  0  0  0  0
   -6.3170   -0.5566   -0.7447 N   0  0  0  0  0  0  0  0  0  0  0  0
   -9.0262    1.5887   -0.8180 C   0  0  0  0  0  0  0  0  0  0  0  0
  -10.1210    1.5355   -1.1914 N   0  0  0  0  0  0  0  0  0  0  0  0
   -3.3950    2.3263    1.2458 C   0  0  0  0  0  0  0  0  0  0  0  0
   -2.7886    2.3242    2.8308 S   0  0  0  0  0  0  0  0  0  0  0  0
   -1.2222    2.5810    2.3105 C   0  0  0  0  0  0  0  0  0  0  0  0
    0.0209    2.4312    2.8459 C   0  0  0  0  0  0  0  0  0  0  0  0
    0.3898    1.9786    4.1184 C   0  0  0  0  0  0  0  0  0  0  0  0
    1.7262    1.5379    4.3259 C   0  0  0  0  0  0  0  0  0  0  0  0
    2.0280    1.0281    5.5458 N   0  0  0  0  0  0  0  0  0  0  0  0
    0.5503    1.1708    6.2787 S   0  0  0  0  0  0  0  0  0  0  0  0
   -0.4710    1.8353    5.1564 N   0  0  0  0  0  0  0  0  0  0  0  0
    2.6359    1.6418    3.2716 C   0  0  0  0  0  0  0  0  0  0  0  0
    3.9146    1.1768    3.1536 C   0  0  0  0  0  0  0  0  0  0  0  0
    4.7346   -0.1477    3.8269 S   0  0  0  0  0  0  0  0  0  0  0  0
    5.6225   -0.3870    2.3933 C   0  0  0  0  0  0  0  0  0  0  0  0
    6.2717   -1.5223    1.9037 C   0  0  0  0  0  0  0  0  0  0  0  0
    6.7457   -2.6560    2.7756 C   0  0  0  0  0  0  0  0  0  0  0  0
    5.6326   -3.6452    3.1091 C   0  0  0  0  0  0  0  0  0  0  0  0
    6.3407   -1.4875    0.4961 C   0  0  0  0  0  0  0  0  0  0  0  0
    5.6167   -0.0639   -0.0896 S   0  0  0  0  0  0  0  0  0  0  0  0
    5.2499    0.5221    1.4334 C   0  0  0  0  0  0  0  0  0  0  0  0
    4.2919    1.4214    1.8709 C   0  0  0  0  0  0  0  0  0  0  0  0
    3.3543    2.0770    1.1461 N   0  0  0  0  0  0  0  0  0  0  0  0
    2.2836    2.1450    2.0058 C   0  0  0  0  0  0  0  0  0  0  0  0
    0.9098    2.4593    1.7591 C   0  0  0  0  0  0  0  0  0  0  0  0
    0.1992    2.5274    0.5785 N   0  0  0  0  0  0  0  0  0  0  0  0
   -1.1114    2.6045    0.9634 C   0  0  0  0  0  0  0  0  0  0  0  0
   -2.3542    2.4504    0.2975 C   0  0  0  0  0  0  0  0  0  0  0  0
   -2.6061    2.2436   -1.1779 C   0  0  0  0  0  0  0  0  0  0  0  0
   -2.6979    0.7562   -1.5225 C   0  0  0  0  0  0  0  0  0  0  0  0
    0.6912    2.3243   -0.7853 C   0  0  0  0  0  0  0  0  0  0  0  0
    0.8351    3.6655   -1.5126 C   0  0  0  0  0  0  0  0  0  0  0  0
    3.7971    3.1266    0.2104 C   0  0  0  0  0  0  0  0  0  0  0  0
    3.7174    4.5144    0.8475 C   0  0  0  0  0  0  0  0  0  0  0  0
    6.6445   -2.6269   -0.3785 C   0  0  0  0  0  0  0  0  0  0  0  0
    5.7509   -3.6089   -0.6225 C   0  0  0  0  0  0  0  0  0  0  0  0
    4.3616   -3.6286   -0.1315 C   0  0  0  0  0  0  0  0  0  0  0  0
    3.8178   -2.7745    0.6184 O   0  0  0  0  0  0  0  0  0  0  0  0
    3.6763   -4.7587   -0.7064 C   0  0  0  0  0  0  0  0  0  0  0  0
    2.3364   -5.1450   -0.4726 C   0  0  0  0  0  0  0  0  0  0  0  0
    1.9327   -6.2403   -1.2099 C   0  0  0  0  0  0  0  0  0  0  0  0
    2.7822   -6.8995   -2.1556 C   0  0  0  0  0  0  0  0  0  0  0  0
    4.0961   -6.5243   -2.3897 C   0  0  0  0  0  0  0  0  0  0  0  0
    4.5553   -5.4372   -1.5899 C   0  0  0  0  0  0  0  0  0  0  0  0
    5.9117   -4.8119   -1.5085 C   0  0  0  0  0  0  0  0  0  0  0  0
    7.0765   -5.3547   -1.9582 C   0  0  0  0  0  0  0  0  0  0  0  0
    7.1307   -6.6138   -2.6536 C   0  0  0  0  0  0  0  0  0  0  0  0
    7.1983   -7.6282   -3.2065 N   0  0  0  0  0  0  0  0  0  0  0  0
    8.3687   -4.7858   -1.6749 C   0  0  0  0  0  0  0  0  0  0  0  0
    9.4161   -4.3434   -1.4548 N   0  0  0  0  0  0  0  0  0  0  0  0
    1.6730   -7.8420   -2.5191 C   0  0  0  0  0  0  0  0  0  0  0  0
    0.9207   -7.6087   -3.8647 C   0  0  0  0  0  0  0  0  0  0  0  0
    0.8955   -6.1352   -4.2020 C   0  0  0  0  0  0  0  0  0  0  0  0
    0.1043   -5.5497   -3.3006 C   0  0  0  0  0  0  0  0  0  0  0  0
   -0.3771   -6.6451   -2.3782 C   0  0  0  0  0  0  0  0  0  0  0  0
   -0.5114   -7.7687   -3.3886 C   0  0  0  0  0  0  0  0  0  0  0  0
    0.8121   -7.1855   -1.5286 C   0  0  0  0  0  0  0  0  0  0  0  0
   -5.1320    1.0237    1.1348 H   0  0  0  0  0  0  0  0  0  0  0  0
   -6.1684    7.1434    0.5916 H   0  0  0  0  0  0  0  0  0  0  0  0
   -7.8625    8.9590    0.6329 H   0  0  0  0  0  0  0  0  0  0  0  0
  -10.2236    9.6699    0.5878 H   0  0  0  0  0  0  0  0  0  0  0  0
  -12.0326    7.9989    0.3366 H   0  0  0  0  0  0  0  0  0  0  0  0
  -11.4993    5.6018    0.1284 H   0  0  0  0  0  0  0  0  0  0  0  0
   -9.8423    3.7994    0.1157 H   0  0  0  0  0  0  0  0  0  0  0  0
    7.5830   -3.1942    2.2801 H   0  0  0  0  0  0  0  0  0  0  0  0
    7.1423   -2.2332    3.7245 H   0  0  0  0  0  0  0  0  0  0  0  0
    4.6957   -3.1171    3.3849 H   0  0  0  0  0  0  0  0  0  0  0  0
    5.4403   -4.3197    2.2508 H   0  0  0  0  0  0  0  0  0  0  0  0
    5.9436   -4.2751    3.9687 H   0  0  0  0  0  0  0  0  0  0  0  0
   -3.5687    2.7256   -1.4534 H   0  0  0  0  0  0  0  0  0  0  0  0
   -1.8487    2.7368   -1.8074 H   0  0  0  0  0  0  0  0  0  0  0  0
   -2.9701    0.6385   -2.5913 H   0  0  0  0  0  0  0  0  0  0  0  0
   -1.7321    0.2456   -1.3393 H   0  0  0  0  0  0  0  0  0  0  0  0
   -3.4739    0.2608   -0.9046 H   0  0  0  0  0  0  0  0  0  0  0  0
    0.0171    1.6629   -1.3516 H   0  0  0  0  0  0  0  0  0  0  0  0
    1.6328    1.7498   -0.7725 H   0  0  0  0  0  0  0  0  0  0  0  0
   -0.1532    4.1124   -1.7297 H   0  0  0  0  0  0  0  0  0  0  0  0
    1.3848    4.3967   -0.8917 H   0  0  0  0  0  0  0  0  0  0  0  0
    1.3770    3.5158   -2.4693 H   0  0  0  0  0  0  0  0  0  0  0  0
    3.2557    3.1033   -0.7408 H   0  0  0  0  0  0  0  0  0  0  0  0
    4.8570    2.9499   -0.0810 H   0  0  0  0  0  0  0  0  0  0  0  0
    4.1169    5.2726    0.1451 H   0  0  0  0  0  0  0  0  0  0  0  0
    4.3165    4.5396    1.7821 H   0  0  0  0  0  0  0  0  0  0  0  0
    2.6662    4.7711    1.0878 H   0  0  0  0  0  0  0  0  0  0  0  0
    7.5787   -2.5715   -0.9060 H   0  0  0  0  0  0  0  0  0  0  0  0
    1.6782   -4.6238    0.2112 H   0  0  0  0  0  0  0  0  0  0  0  0
    4.6802   -7.0252   -3.1430 H   0  0  0  0  0  0  0  0  0  0  0  0
    1.8924   -8.9065   -2.2818 H   0  0  0  0  0  0  0  0  0  0  0  0
    1.2232   -8.2766   -4.6979 H   0  0  0  0  0  0  0  0  0  0  0  0
    1.3575   -5.6471   -5.0535 H   0  0  0  0  0  0  0  0  0  0  0  0
   -0.1872   -4.5046   -3.2897 H   0  0  0  0  0  0  0  0  0  0  0  0
   -1.2968   -6.4042   -1.8036 H   0  0  0  0  0  0  0  0  0  0  0  0
   -1.2689   -7.5628   -4.1822 H   0  0  0  0  0  0  0  0  0  0  0  0
   -0.7182   -8.7621   -2.9242 H   0  0  0  0  0  0  0  0  0  0  0  0
    0.5226   -7.8464   -0.6811 H   0  0  0  0  0  0  0  0  0  0  0  0
  1  2  2  3
  2  3  1  0
  3  4  2  0
  3  5  1  0
  5  6  2  0
  6  7  1  0
  7  8  2  0
  8  9  1  0
  9 10  2  0
 10 11  1  0
 11 12  2  0
 12 13  1  0
 13 14  2  0
 14 15  1  0
 15 16  2  3
 16 17  1  0
 17 18  3  0
 16 19  1  0
 19 20  3  0
  1 21  1  0
 21 22  1  0
 22 23  1  0
 23 24  1  0
 24 25  1  0
 25 26  1  0
 26 27  2  0
 27 28  1  0
 28 29  1  0
 26 30  1  0
 30 31  1  0
 31 32  1  0
 32 33  1  0
 33 34  1  0
 34 35  1  0
 35 36  1  0
 34 37  2  0
 37 38  1  0
 38 39  1  0
 39 40  1  0
 40 41  1  0
 41 42  1  0
 42 43  1  0
 43 44  1  0
 44 45  1  0
 45 46  1  0
 46 47  1  0
 47 48  1  0
 44 49  1  0
 49 50  1  0
 41 51  1  0
 51 52  1  0
 37 53  1  0
 53 54  2  3
 54 55  1  0
 55 56  2  0
 55 57  1  0
 57 58  2  0
 58 59  1  0
 59 60  2  0
 60 61  1  0
 61 62  2  0
 62 63  1  0
 63 64  2  3
 64 65  1  0
 65 66  3  0
 64 67  1  0
 67 68  3  0
 60 69  1  0
 69 70  1  0
 70 71  1  0
 71 72  2  0
 72 73  1  0
 73 74  1  0
 73 75  1  0
 15  2  1  0
 46 21  2  0
 63 54  1  0
 75 69  1  0
 14  5  1  0
 45 23  2  0
 62 57  1  0
 74 70  1  0
 12  7  1  0
 43 24  2  0
 75 59  1  0
 29 25  2  0
 42 30  2  0
 40 31  2  0
 39 33  2  0
  1 76  1  0
  6 77  1  0
  8 78  1  0
  9 79  1  0
 10 80  1  0
 11 81  1  0
 13 82  1  0
 35 83  1  0
 35 84  1  0
 36 85  1  0
 36 86  1  0
 36 87  1  0
 47 88  1  0
 47 89  1  0
 48 90  1  0
 48 91  1  0
 48 92  1  0
 49 93  1  0
 49 94  1  0
 50 95  1  0
 50 96  1  0
 50 97  1  0
 51 98  1  0
 51 99  1  0
 52100  1  0
 52101  1  0
 52102  1  0
 53103  1  0
 58104  1  0
 61105  1  0
 69106  1  0
 70107  1  0
 71108  1  0
 72109  1  0
 73110  1  0
 74111  1  0
 74112  1  0
 75113  1  0
M  END

