
     RDKit          3D

109122  0  0  0  0  0  0  0  0999 V2000
    5.9661   -3.7300    3.7306 C   0  0  0  0  0  0  0  0  0  0  0  0
    6.1829   -2.6496    4.5071 C   0  0  0  0  0  0  0  0  0  0  0  0
    6.6009   -1.3292    4.0243 C   0  0  0  0  0  0  0  0  0  0  0  0
    6.9098   -1.0269    2.8402 O   0  0  0  0  0  0  0  0  0  0  0  0
    6.8466   -0.4840    5.1683 C   0  0  0  0  0  0  0  0  0  0  0  0
    7.2692    0.8431    5.1610 C   0  0  0  0  0  0  0  0  0  0  0  0
    7.5125    1.4807    6.3877 C   0  0  0  0  0  0  0  0  0  0  0  0
    7.9347    2.8202    6.4221 C   0  0  0  0  0  0  0  0  0  0  0  0
    8.1913    3.4441    7.6441 C   0  0  0  0  0  0  0  0  0  0  0  0
    8.0115    2.7423    8.8428 C   0  0  0  0  0  0  0  0  0  0  0  0
    7.5756    1.4115    8.8248 C   0  0  0  0  0  0  0  0  0  0  0  0
    7.3250    0.7680    7.6028 C   0  0  0  0  0  0  0  0  0  0  0  0
    6.8945   -0.5737    7.5758 C   0  0  0  0  0  0  0  0  0  0  0  0
    6.6516   -1.1975    6.3375 C   0  0  0  0  0  0  0  0  0  0  0  0
    6.1869   -2.5808    6.0091 C   0  0  0  0  0  0  0  0  0  0  0  0
    5.6745   -3.5017    6.8741 C   0  0  0  0  0  0  0  0  0  0  0  0
    5.0369   -4.7141    6.4328 C   0  0  0  0  0  0  0  0  0  0  0  0
    4.5157   -5.6875    6.0902 N   0  0  0  0  0  0  0  0  0  0  0  0
    5.6286   -3.3047    8.2998 C   0  0  0  0  0  0  0  0  0  0  0  0
    5.5784   -3.1748    9.4511 N   0  0  0  0  0  0  0  0  0  0  0  0
    5.5577   -3.6536    2.3080 C   0  0  0  0  0  0  0  0  0  0  0  0
    5.5922   -4.7214    1.3830 C   0  0  0  0  0  0  0  0  0  0  0  0
    6.1157   -6.0999    1.6809 C   0  0  0  0  0  0  0  0  0  0  0  0
    4.9943   -6.9945    2.2077 C   0  0  0  0  0  0  0  0  0  0  0  0
    4.8894   -4.4015    0.2126 C   0  0  0  0  0  0  0  0  0  0  0  0
    4.2896   -5.3572   -1.0603 S   0  0  0  0  0  0  0  0  0  0  0  0
    3.3447   -4.0702   -1.6401 C   0  0  0  0  0  0  0  0  0  0  0  0
    2.1549   -3.9810   -2.3093 C   0  0  0  0  0  0  0  0  0  0  0  0
    1.4121   -4.9993   -2.9193 C   0  0  0  0  0  0  0  0  0  0  0  0
    0.0422   -4.7658   -3.2156 C   0  0  0  0  0  0  0  0  0  0  0  0
   -0.6556   -5.7883   -3.7648 N   0  0  0  0  0  0  0  0  0  0  0  0
    0.5406   -6.9298   -3.8429 S   0  0  0  0  0  0  0  0  0  0  0  0
    1.9011   -6.2289   -3.2141 N   0  0  0  0  0  0  0  0  0  0  0  0
   -0.5010   -3.5173   -2.9221 C   0  0  0  0  0  0  0  0  0  0  0  0
   -1.7580   -3.0273   -3.1117 C   0  0  0  0  0  0  0  0  0  0  0  0
   -3.2854   -3.5288   -3.6653 S   0  0  0  0  0  0  0  0  0  0  0  0
   -3.9122   -1.9582   -3.4247 C   0  0  0  0  0  0  0  0  0  0  0  0
   -5.1803   -1.3907   -3.5712 C   0  0  0  0  0  0  0  0  0  0  0  0
   -6.4041   -2.1700   -3.9595 C   0  0  0  0  0  0  0  0  0  0  0  0
   -7.0634   -2.7892   -2.7302 C   0  0  0  0  0  0  0  0  0  0  0  0
   -5.1669   -0.0283   -3.2068 C   0  0  0  0  0  0  0  0  0  0  0  0
   -3.6105    0.3993   -2.6435 S   0  0  0  0  0  0  0  0  0  0  0  0
   -2.9490   -1.1057   -2.9500 C   0  0  0  0  0  0  0  0  0  0  0  0
   -1.7242   -1.7242   -2.7679 C   0  0  0  0  0  0  0  0  0  0  0  0
   -0.5034   -1.3025   -2.3554 N   0  0  0  0  0  0  0  0  0  0  0  0
    0.2528   -2.4568   -2.3768 C   0  0  0  0  0  0  0  0  0  0  0  0
    1.6012   -2.7262   -1.9776 C   0  0  0  0  0  0  0  0  0  0  0  0
    2.4058   -2.1012   -1.0483 N   0  0  0  0  0  0  0  0  0  0  0  0
    3.4425   -2.9603   -0.8676 C   0  0  0  0  0  0  0  0  0  0  0  0
    4.3199   -3.1540    0.1946 C   0  0  0  0  0  0  0  0  0  0  0  0
    4.5982   -2.4008    1.6608 S   0  0  0  0  0  0  0  0  0  0  0  0
    2.1433   -0.9442   -0.1845 C   0  0  0  0  0  0  0  0  0  0  0  0
    1.0091   -1.2197    0.8001 C   0  0  0  0  0  0  0  0  0  0  0  0
   -0.0927    0.1100   -2.3829 C   0  0  0  0  0  0  0  0  0  0  0  0
    1.0646    0.3461   -3.3574 C   0  0  0  0  0  0  0  0  0  0  0  0
   -6.3496    0.8509   -3.1475 C   0  0  0  0  0  0  0  0  0  0  0  0
   -6.3588    2.1363   -3.5496 C   0  0  0  0  0  0  0  0  0  0  0  0
   -5.2305    2.8773   -4.1281 C   0  0  0  0  0  0  0  0  0  0  0  0
   -4.2481    2.3889   -4.7462 O   0  0  0  0  0  0  0  0  0  0  0  0
   -5.4828    4.2896   -3.9567 C   0  0  0  0  0  0  0  0  0  0  0  0
   -4.6087    5.3489   -4.1823 C   0  0  0  0  0  0  0  0  0  0  0  0
   -5.0156    6.6434   -3.8168 C   0  0  0  0  0  0  0  0  0  0  0  0
   -4.1598    7.7393   -4.0124 C   0  0  0  0  0  0  0  0  0  0  0  0
   -4.5530    9.0203   -3.6123 C   0  0  0  0  0  0  0  0  0  0  0  0
   -5.8025    9.2149   -3.0101 C   0  0  0  0  0  0  0  0  0  0  0  0
   -6.1772   10.4573   -2.6185 F   0  0  0  0  0  0  0  0  0  0  0  0
   -6.6690    8.1335   -2.8174 C   0  0  0  0  0  0  0  0  0  0  0  0
   -6.2916    6.8432   -3.2177 C   0  0  0  0  0  0  0  0  0  0  0  0
   -7.1559    5.7482   -3.0072 C   0  0  0  0  0  0  0  0  0  0  0  0
   -6.7405    4.4684   -3.4048 C   0  0  0  0  0  0  0  0  0  0  0  0
   -7.4152    3.1501   -3.2615 C   0  0  0  0  0  0  0  0  0  0  0  0
   -8.7503    2.9323   -3.1842 C   0  0  0  0  0  0  0  0  0  0  0  0
   -9.7008    4.0057   -3.0778 C   0  0  0  0  0  0  0  0  0  0  0  0
  -10.4754    4.8613   -3.0001 N   0  0  0  0  0  0  0  0  0  0  0  0
   -9.3237    1.6212   -3.3418 C   0  0  0  0  0  0  0  0  0  0  0  0
   -9.7897    0.5690   -3.4772 N   0  0  0  0  0  0  0  0  0  0  0  0
    5.9952   -4.7163    4.1599 H   0  0  0  0  0  0  0  0  0  0  0  0
    7.4128    1.3602    4.2224 H   0  0  0  0  0  0  0  0  0  0  0  0
    8.0668    3.3782    5.5051 H   0  0  0  0  0  0  0  0  0  0  0  0
    8.5190    4.4767    7.6673 H   0  0  0  0  0  0  0  0  0  0  0  0
    8.1932    3.2355    9.7877 H   0  0  0  0  0  0  0  0  0  0  0  0
    7.4493    0.8846    9.7676 H   0  0  0  0  0  0  0  0  0  0  0  0
    6.7904   -1.0977    8.5108 H   0  0  0  0  0  0  0  0  0  0  0  0
    6.9380   -6.0499    2.4346 H   0  0  0  0  0  0  0  0  0  0  0  0
    6.5299   -6.5550    0.7533 H   0  0  0  0  0  0  0  0  0  0  0  0
    5.4100   -7.9788    2.5114 H   0  0  0  0  0  0  0  0  0  0  0  0
    4.2392   -7.1665    1.4142 H   0  0  0  0  0  0  0  0  0  0  0  0
    4.4861   -6.5248    3.0798 H   0  0  0  0  0  0  0  0  0  0  0  0
   -6.1315   -2.9809   -4.6682 H   0  0  0  0  0  0  0  0  0  0  0  0
   -7.1320   -1.5040   -4.4722 H   0  0  0  0  0  0  0  0  0  0  0  0
   -7.3679   -1.9961   -2.0150 H   0  0  0  0  0  0  0  0  0  0  0  0
   -7.9663   -3.3583   -3.0327 H   0  0  0  0  0  0  0  0  0  0  0  0
   -6.3560   -3.4855   -2.2315 H   0  0  0  0  0  0  0  0  0  0  0  0
    3.0460   -0.6798    0.3945 H   0  0  0  0  0  0  0  0  0  0  0  0
    1.9947   -0.0378   -0.7799 H   0  0  0  0  0  0  0  0  0  0  0  0
    0.0646   -1.4469    0.2636 H   0  0  0  0  0  0  0  0  0  0  0  0
    0.8409   -0.3242    1.4361 H   0  0  0  0  0  0  0  0  0  0  0  0
    1.2771   -2.0793    1.4525 H   0  0  0  0  0  0  0  0  0  0  0  0
    0.0883    0.4928   -1.3644 H   0  0  0  0  0  0  0  0  0  0  0  0
   -0.9255    0.7427   -2.7555 H   0  0  0  0  0  0  0  0  0  0  0  0
    1.9688   -0.2296   -3.0790 H   0  0  0  0  0  0  0  0  0  0  0  0
    1.3251    1.4243   -3.3722 H   0  0  0  0  0  0  0  0  0  0  0  0
    0.7597    0.0407   -4.3835 H   0  0  0  0  0  0  0  0  0  0  0  0
   -7.2166    0.4266   -2.6663 H   0  0  0  0  0  0  0  0  0  0  0  0
   -3.6262    5.1652   -4.6049 H   0  0  0  0  0  0  0  0  0  0  0  0
   -3.1850    7.6009   -4.4687 H   0  0  0  0  0  0  0  0  0  0  0  0
   -3.8824    9.8599   -3.7571 H   0  0  0  0  0  0  0  0  0  0  0  0
   -7.6326    8.3077   -2.3518 H   0  0  0  0  0  0  0  0  0  0  0  0
   -8.0980    5.9045   -2.4986 H   0  0  0  0  0  0  0  0  0  0  0  0
  1  2  2  3
  2  3  1  0
  3  4  2  0
  3  5  1  0
  5  6  2  0
  6  7  1  0
  7  8  2  0
  8  9  1  0
  9 10  2  0
 10 11  1  0
 11 12  2  0
 12 13  1  0
 13 14  2  0
 14 15  1  0
 15 16  2  3
 16 17  1  0
 17 18  3  0
 16 19  1  0
 19 20  3  0
  1 21  1  0
 21 22  2  0
 22 23  1  0
 23 24  1  0
 22 25  1  0
 25 26  1  0
 26 27  1  0
 27 28  1  0
 28 29  1  0
 29 30  1  0
 30 31  2  0
 31 32  1  0
 32 33  1  0
 30 34  1  0
 34 35  1  0
 35 36  1  0
 36 37  1  0
 37 38  1  0
 38 39  1  0
 39 40  1  0
 38 41  2  0
 41 42  1  0
 42 43  1  0
 43 44  1  0
 44 45  1  0
 45 46  1  0
 46 47  1  0
 47 48  1  0
 48 49  1  0
 49 50  1  0
 50 51  1  0
 48 52  1  0
 52 53  1  0
 45 54  1  0
 54 55  1  0
 41 56  1  0
 56 57  2  3
 57 58  1  0
 58 59  2  0
 58 60  1  0
 60 61  2  0
 61 62  1  0
 62 63  2  0
 63 64  1  0
 64 65  2  0
 65 66  1  0
 65 67  1  0
 67 68  2  0
 68 69  1  0
 69 70  2  0
 70 71  1  0
 71 72  2  3
 72 73  1  0
 73 74  3  0
 72 75  1  0
 75 76  3  0
 15  2  1  0
 51 21  1  0
 71 57  1  0
 14  5  1  0
 50 25  2  0
 70 60  1  0
 12  7  1  0
 49 27  2  0
 68 62  1  0
 47 28  2  0
 33 29  2  0
 46 34  2  0
 44 35  2  0
 43 37  2  0
  1 77  1  0
  6 78  1  0
  8 79  1  0
  9 80  1  0
 10 81  1  0
 11 82  1  0
 13 83  1  0
 23 84  1  0
 23 85  1  0
 24 86  1  0
 24 87  1  0
 24 88  1  0
 39 89  1  0
 39 90  1  0
 40 91  1  0
 40 92  1  0
 40 93  1  0
 52 94  1  0
 52 95  1  0
 53 96  1  0
 53 97  1  0
 53 98  1  0
 54 99  1  0
 54100  1  0
 55101  1  0
 55102  1  0
 55103  1  0
 56104  1  0
 61105  1  0
 63106  1  0
 64107  1  0
 67108  1  0
 69109  1  0
M  END

