
     RDKit          3D

106118  0  0  0  0  0  0  0  0999 V2000
    0.7632   -5.2606   -3.1838 C   0  0  0  0  0  0  0  0  0  0  0  0
    1.3992   -4.8135   -4.2844 C   0  0  0  0  0  0  0  0  0  0  0  0
    0.8782   -3.8245   -5.2387 C   0  0  0  0  0  0  0  0  0  0  0  0
   -0.1571   -3.1222   -5.1033 O   0  0  0  0  0  0  0  0  0  0  0  0
    1.6675   -3.8991   -6.4499 C   0  0  0  0  0  0  0  0  0  0  0  0
    1.4825   -3.1830   -7.6326 C   0  0  0  0  0  0  0  0  0  0  0  0
    2.3250   -3.4533   -8.7220 C   0  0  0  0  0  0  0  0  0  0  0  0
    2.1786   -2.7509   -9.9273 C   0  0  0  0  0  0  0  0  0  0  0  0
    3.0222   -3.0264  -11.0067 C   0  0  0  0  0  0  0  0  0  0  0  0
    4.0073   -4.0138  -10.8973 C   0  0  0  0  0  0  0  0  0  0  0  0
    4.1599   -4.7273   -9.7053 C   0  0  0  0  0  0  0  0  0  0  0  0
    3.3288   -4.4572   -8.6082 C   0  0  0  0  0  0  0  0  0  0  0  0
    3.4792   -5.1713   -7.4029 C   0  0  0  0  0  0  0  0  0  0  0  0
    2.6491   -4.8642   -6.3109 C   0  0  0  0  0  0  0  0  0  0  0  0
    2.5977   -5.4335   -4.9323 C   0  0  0  0  0  0  0  0  0  0  0  0
    3.5690   -6.1543   -4.3085 C   0  0  0  0  0  0  0  0  0  0  0  0
    4.7357   -6.6515   -4.9888 C   0  0  0  0  0  0  0  0  0  0  0  0
    5.6793   -7.0630   -5.5194 N   0  0  0  0  0  0  0  0  0  0  0  0
    3.5666   -6.3735   -2.8843 C   0  0  0  0  0  0  0  0  0  0  0  0
    3.5773   -6.5522   -1.7397 N   0  0  0  0  0  0  0  0  0  0  0  0
   -0.3404   -4.5524   -2.5076 C   0  0  0  0  0  0  0  0  0  0  0  0
   -1.4056   -5.1758   -1.8243 C   0  0  0  0  0  0  0  0  0  0  0  0
   -1.6466   -6.6586   -1.7673 C   0  0  0  0  0  0  0  0  0  0  0  0
   -0.9848   -7.2706   -0.5374 C   0  0  0  0  0  0  0  0  0  0  0  0
   -2.1572   -4.2389   -1.1107 C   0  0  0  0  0  0  0  0  0  0  0  0
   -3.4144   -4.3733    0.0345 S   0  0  0  0  0  0  0  0  0  0  0  0
   -3.3749   -2.6985    0.3255 C   0  0  0  0  0  0  0  0  0  0  0  0
   -3.7456   -1.8542    1.3356 C   0  0  0  0  0  0  0  0  0  0  0  0
   -4.4189   -2.0993    2.5416 C   0  0  0  0  0  0  0  0  0  0  0  0
   -4.4046   -1.0926    3.5547 C   0  0  0  0  0  0  0  0  0  0  0  0
   -5.0277   -1.3819    4.7234 N   0  0  0  0  0  0  0  0  0  0  0  0
   -5.5478   -2.9185    4.3826 S   0  0  0  0  0  0  0  0  0  0  0  0
   -5.0411   -3.2661    2.8433 N   0  0  0  0  0  0  0  0  0  0  0  0
   -3.7625    0.1205    3.2821 C   0  0  0  0  0  0  0  0  0  0  0  0
   -3.5846    1.2539    4.0175 C   0  0  0  0  0  0  0  0  0  0  0  0
   -3.5504    1.6561    5.6646 S   0  0  0  0  0  0  0  0  0  0  0  0
   -2.6013    3.0395    5.3357 C   0  0  0  0  0  0  0  0  0  0  0  0
   -1.8031    3.8333    6.1721 C   0  0  0  0  0  0  0  0  0  0  0  0
   -1.8384    3.7136    7.6725 C   0  0  0  0  0  0  0  0  0  0  0  0
   -0.8279    2.6815    8.1591 C   0  0  0  0  0  0  0  0  0  0  0  0
   -0.8347    4.5587    5.4304 C   0  0  0  0  0  0  0  0  0  0  0  0
   -1.0360    4.1747    3.7857 S   0  0  0  0  0  0  0  0  0  0  0  0
   -2.3301    3.1476    3.9937 C   0  0  0  0  0  0  0  0  0  0  0  0
   -2.8983    2.1323    3.2380 C   0  0  0  0  0  0  0  0  0  0  0  0
   -2.6085    1.6402    2.0047 N   0  0  0  0  0  0  0  0  0  0  0  0
   -3.1018    0.3648    2.0720 C   0  0  0  0  0  0  0  0  0  0  0  0
   -3.0105   -0.6774    1.1207 C   0  0  0  0  0  0  0  0  0  0  0  0
   -2.1041   -0.8379    0.1036 N   0  0  0  0  0  0  0  0  0  0  0  0
   -2.4051   -2.0669   -0.3889 C   0  0  0  0  0  0  0  0  0  0  0  0
   -1.7048   -2.9484   -1.1998 C   0  0  0  0  0  0  0  0  0  0  0  0
   -0.3265   -2.8840   -2.1467 S   0  0  0  0  0  0  0  0  0  0  0  0
   -0.7622   -0.2422    0.0256 C   0  0  0  0  0  0  0  0  0  0  0  0
    0.2014   -0.9421    0.9824 C   0  0  0  0  0  0  0  0  0  0  0  0
   -2.6731    2.4647    0.7844 C   0  0  0  0  0  0  0  0  0  0  0  0
   -1.4744    3.4039    0.6356 C   0  0  0  0  0  0  0  0  0  0  0  0
    0.2851    5.3304    6.0372 C   0  0  0  0  0  0  0  0  0  0  0  0
    1.4269    5.7634    5.4482 C   0  0  0  0  0  0  0  0  0  0  0  0
    1.8719    5.5687    4.0581 C   0  0  0  0  0  0  0  0  0  0  0  0
    1.1729    5.6991    3.0186 O   0  0  0  0  0  0  0  0  0  0  0  0
    3.3184    5.4724    4.0543 C   0  0  0  0  0  0  0  0  0  0  0  0
    4.1564    5.0901    3.0063 C   0  0  0  0  0  0  0  0  0  0  0  0
    5.5370    4.9712    3.2557 C   0  0  0  0  0  0  0  0  0  0  0  0
    6.4699    4.5313    2.1653 C   0  0  0  0  0  0  0  0  0  0  0  0
    6.0353    5.2299    4.5523 C   0  0  0  0  0  0  0  0  0  0  0  0
    7.3579    5.0893    4.8167 F   0  0  0  0  0  0  0  0  0  0  0  0
    5.1696    5.6205    5.5862 C   0  0  0  0  0  0  0  0  0  0  0  0
    3.8012    5.7595    5.3143 C   0  0  0  0  0  0  0  0  0  0  0  0
    2.6658    6.1203    6.2060 C   0  0  0  0  0  0  0  0  0  0  0  0
    2.7301    6.8562    7.3416 C   0  0  0  0  0  0  0  0  0  0  0  0
    1.5504    7.3723    7.9867 C   0  0  0  0  0  0  0  0  0  0  0  0
    0.6036    7.7821    8.5084 N   0  0  0  0  0  0  0  0  0  0  0  0
    3.9824    7.2685    7.9193 C   0  0  0  0  0  0  0  0  0  0  0  0
    4.9852    7.5992    8.3991 N   0  0  0  0  0  0  0  0  0  0  0  0
    1.0528   -6.2059   -2.7520 H   0  0  0  0  0  0  0  0  0  0  0  0
    0.6956   -2.4392   -7.7057 H   0  0  0  0  0  0  0  0  0  0  0  0
    1.4179   -1.9832  -10.0310 H   0  0  0  0  0  0  0  0  0  0  0  0
    2.9056   -2.4793  -11.9336 H   0  0  0  0  0  0  0  0  0  0  0  0
    4.6559   -4.2229  -11.7371 H   0  0  0  0  0  0  0  0  0  0  0  0
    4.9310   -5.4848   -9.6393 H   0  0  0  0  0  0  0  0  0  0  0  0
    4.2118   -5.9562   -7.3533 H   0  0  0  0  0  0  0  0  0  0  0  0
   -2.7385   -6.8559   -1.7351 H   0  0  0  0  0  0  0  0  0  0  0  0
   -1.2509   -7.1455   -2.6827 H   0  0  0  0  0  0  0  0  0  0  0  0
   -1.4197   -6.8441    0.3899 H   0  0  0  0  0  0  0  0  0  0  0  0
   -1.1510   -8.3665   -0.5351 H   0  0  0  0  0  0  0  0  0  0  0  0
    0.1070   -7.0780   -0.5442 H   0  0  0  0  0  0  0  0  0  0  0  0
   -1.6343    4.6963    8.1435 H   0  0  0  0  0  0  0  0  0  0  0  0
   -2.8552    3.4058    8.0007 H   0  0  0  0  0  0  0  0  0  0  0  0
    0.2017    2.9708    7.8633 H   0  0  0  0  0  0  0  0  0  0  0  0
   -0.8743    2.6134    9.2668 H   0  0  0  0  0  0  0  0  0  0  0  0
   -1.0653    1.6837    7.7340 H   0  0  0  0  0  0  0  0  0  0  0  0
   -0.3783   -0.3047   -1.0131 H   0  0  0  0  0  0  0  0  0  0  0  0
   -0.7762    0.8196    0.2831 H   0  0  0  0  0  0  0  0  0  0  0  0
    1.1995   -0.4630    0.9254 H   0  0  0  0  0  0  0  0  0  0  0  0
   -0.1727   -0.8652    2.0232 H   0  0  0  0  0  0  0  0  0  0  0  0
    0.3031   -2.0129    0.7153 H   0  0  0  0  0  0  0  0  0  0  0  0
   -2.7377    1.8186   -0.1163 H   0  0  0  0  0  0  0  0  0  0  0  0
   -3.6090    3.0642    0.7897 H   0  0  0  0  0  0  0  0  0  0  0  0
   -1.6991    4.3881    1.0973 H   0  0  0  0  0  0  0  0  0  0  0  0
   -0.5637    2.9749    1.0999 H   0  0  0  0  0  0  0  0  0  0  0  0
   -1.2692    3.5815   -0.4396 H   0  0  0  0  0  0  0  0  0  0  0  0
    0.2431    5.4019    7.1085 H   0  0  0  0  0  0  0  0  0  0  0  0
    3.7418    4.8693    2.0287 H   0  0  0  0  0  0  0  0  0  0  0  0
    6.9701    3.5838    2.4618 H   0  0  0  0  0  0  0  0  0  0  0  0
    5.9291    4.3575    1.2096 H   0  0  0  0  0  0  0  0  0  0  0  0
    7.2406    5.3132    1.9957 H   0  0  0  0  0  0  0  0  0  0  0  0
    5.5684    5.7567    6.5757 H   0  0  0  0  0  0  0  0  0  0  0  0
  1  2  2  3
  2  3  1  0
  3  4  2  0
  3  5  1  0
  5  6  2  0
  6  7  1  0
  7  8  2  0
  8  9  1  0
  9 10  2  0
 10 11  1  0
 11 12  2  0
 12 13  1  0
 13 14  2  0
 14 15  1  0
 15 16  2  3
 16 17  1  0
 17 18  3  0
 16 19  1  0
 19 20  3  0
  1 21  1  0
 21 22  2  0
 22 23  1  0
 23 24  1  0
 22 25  1  0
 25 26  1  0
 26 27  1  0
 27 28  1  0
 28 29  1  0
 29 30  1  0
 30 31  2  0
 31 32  1  0
 32 33  1  0
 30 34  1  0
 34 35  1  0
 35 36  1  0
 36 37  1  0
 37 38  1  0
 38 39  1  0
 39 40  1  0
 38 41  2  0
 41 42  1  0
 42 43  1  0
 43 44  1  0
 44 45  1  0
 45 46  1  0
 46 47  1  0
 47 48  1  0
 48 49  1  0
 49 50  1  0
 50 51  1  0
 48 52  1  0
 52 53  1  0
 45 54  1  0
 54 55  1  0
 41 56  1  0
 56 57  2  3
 57 58  1  0
 58 59  2  0
 58 60  1  0
 60 61  2  0
 61 62  1  0
 62 63  1  0
 62 64  2  0
 64 65  1  0
 64 66  1  0
 66 67  2  0
 67 68  1  0
 68 69  2  3
 69 70  1  0
 70 71  3  0
 69 72  1  0
 72 73  3  0
 15  2  1  0
 51 21  1  0
 68 57  1  0
 14  5  1  0
 50 25  2  0
 67 60  1  0
 12  7  1  0
 49 27  2  0
 47 28  2  0
 33 29  2  0
 46 34  2  0
 44 35  2  0
 43 37  2  0
  1 74  1  0
  6 75  1  0
  8 76  1  0
  9 77  1  0
 10 78  1  0
 11 79  1  0
 13 80  1  0
 23 81  1  0
 23 82  1  0
 24 83  1  0
 24 84  1  0
 24 85  1  0
 39 86  1  0
 39 87  1  0
 40 88  1  0
 40 89  1  0
 40 90  1  0
 52 91  1  0
 52 92  1  0
 53 93  1  0
 53 94  1  0
 53 95  1  0
 54 96  1  0
 54 97  1  0
 55 98  1  0
 55 99  1  0
 55100  1  0
 56101  1  0
 61102  1  0
 63103  1  0
 63104  1  0
 63105  1  0
 66106  1  0
M  END

