
     RDKit          3D

 89 99  0  0  0  0  0  0  0  0999 V2000
   -7.0969   -0.8353    1.9656 C   0  0  0  0  0  0  0  0  0  0  0  0
   -6.9929    0.3260    2.6857 C   0  0  0  0  0  0  0  0  0  0  0  0
   -5.8180    1.1270    2.5313 C   0  0  0  0  0  0  0  0  0  0  0  0
   -4.8666    1.0598    1.8458 O   0  0  0  0  0  0  0  0  0  0  0  0
   -5.7802    2.3550    3.4593 N   0  0  0  0  0  0  0  0  0  0  0  0
   -4.5665    3.1197    3.4177 C   0  0  0  0  0  0  0  0  0  0  0  0
   -4.4688    4.1407    2.3335 C   0  0  0  0  0  0  0  0  0  0  0  0
   -6.8066    2.5616    4.2924 C   0  0  0  0  0  0  0  0  0  0  0  0
   -6.6979    3.8864    5.3287 S   0  0  0  0  0  0  0  0  0  0  0  0
   -8.0203    1.8049    4.5012 N   0  0  0  0  0  0  0  0  0  0  0  0
   -9.0011    2.1475    5.4135 C   0  0  0  0  0  0  0  0  0  0  0  0
   -8.8320    1.6758    6.8409 C   0  0  0  0  0  0  0  0  0  0  0  0
   -7.9993    0.6338    3.5856 C   0  0  0  0  0  0  0  0  0  0  0  0
   -9.0746   -0.0397    3.7775 O   0  0  0  0  0  0  0  0  0  0  0  0
   -6.0304   -1.2092    1.1158 C   0  0  0  0  0  0  0  0  0  0  0  0
   -6.1082   -1.7721   -0.2177 C   0  0  0  0  0  0  0  0  0  0  0  0
   -4.7582   -1.9225   -0.5944 C   0  0  0  0  0  0  0  0  0  0  0  0
   -4.4730   -3.4280   -1.9811 S   0  0  0  0  0  0  0  0  0  0  0  0
   -2.7245   -3.1430   -1.9860 C   0  0  0  0  0  0  0  0  0  0  0  0
   -1.4789   -3.4653   -2.4751 C   0  0  0  0  0  0  0  0  0  0  0  0
   -1.0204   -4.3771   -3.3562 C   0  0  0  0  0  0  0  0  0  0  0  0
    0.2834   -4.5133   -3.7066 C   0  0  0  0  0  0  0  0  0  0  0  0
    0.6093   -5.4205   -4.5739 N   0  0  0  0  0  0  0  0  0  0  0  0
   -0.8280   -6.1718   -4.9794 S   0  0  0  0  0  0  0  0  0  0  0  0
   -1.8474   -5.2758   -4.0061 N   0  0  0  0  0  0  0  0  0  0  0  0
    1.1569   -3.5766   -3.0105 C   0  0  0  0  0  0  0  0  0  0  0  0
    2.5530   -3.5525   -3.1326 C   0  0  0  0  0  0  0  0  0  0  0  0
    2.9747   -2.5385   -2.2377 C   0  0  0  0  0  0  0  0  0  0  0  0
    1.8648   -2.0069   -1.6302 N   0  0  0  0  0  0  0  0  0  0  0  0
    1.9469   -1.1116   -0.5118 C   0  0  0  0  0  0  0  0  0  0  0  0
    1.6613   -1.7964    0.8429 C   0  0  0  0  0  0  0  0  0  0  0  0
    0.7919   -2.6895   -2.1669 C   0  0  0  0  0  0  0  0  0  0  0  0
   -0.5879   -2.5424   -1.8161 C   0  0  0  0  0  0  0  0  0  0  0  0
   -1.2953   -1.8122   -1.0635 N   0  0  0  0  0  0  0  0  0  0  0  0
   -2.5842   -2.0455   -1.0286 C   0  0  0  0  0  0  0  0  0  0  0  0
   -3.9262   -1.9990   -0.7888 C   0  0  0  0  0  0  0  0  0  0  0  0
   -4.1778   -1.0836    1.4150 Se  0  0  0  0  0  2  0  0  0  0  0  0
   -0.8650   -0.4351   -0.5966 C   0  0  0  0  0  0  0  0  0  0  0  0
   -1.9268    0.5482   -1.2450 C   0  0  0  0  0  0  0  0  0  0  0  0
    4.3309   -2.3422   -2.2833 C   0  0  0  0  0  0  0  0  0  0  0  0
    5.1485   -3.0615   -3.0929 C   0  0  0  0  0  0  0  0  0  0  0  0
    3.9903   -4.0527   -3.8259 S   0  0  0  0  0  0  0  0  0  0  0  0
    6.3373   -2.4591   -2.7387 C   0  0  0  0  0  0  0  0  0  0  0  0
    7.3094   -2.0469   -2.5249 C   0  0  0  0  0  0  0  0  0  0  0  0
    5.4636   -1.0657   -1.2953 Se  0  0  0  0  0  2  0  0  0  0  0  0
    8.2723   -1.1304   -1.7921 C   0  0  0  0  0  0  0  0  0  0  0  0
    8.5676    0.0600   -2.2370 C   0  0  0  0  0  0  0  0  0  0  0  0
    7.9734    0.5672   -3.5156 C   0  0  0  0  0  0  0  0  0  0  0  0
    7.3166   -0.1648   -4.3427 O   0  0  0  0  0  0  0  0  0  0  0  0
    8.2492    1.9529   -3.6499 C   0  0  0  0  0  0  0  0  0  0  0  0
    7.9033    2.9021   -4.6060 C   0  0  0  0  0  0  0  0  0  0  0  0
    8.2566    4.2199   -4.4990 C   0  0  0  0  0  0  0  0  0  0  0  0
    7.9010    5.1147   -5.4338 F   0  0  0  0  0  0  0  0  0  0  0  0
    8.9880    4.6219   -3.3916 C   0  0  0  0  0  0  0  0  0  0  0  0
    9.3517    3.7282   -2.4345 C   0  0  0  0  0  0  0  0  0  0  0  0
    8.9872    2.3653   -2.5373 C   0  0  0  0  0  0  0  0  0  0  0  0
    9.2232    1.2435   -1.6225 C   0  0  0  0  0  0  0  0  0  0  0  0
    9.7669    1.1437   -0.4532 C   0  0  0  0  0  0  0  0  0  0  0  0
    9.8179    0.0029    0.3201 C   0  0  0  0  0  0  0  0  0  0  0  0
    9.8611   -1.0208    1.0155 N   0  0  0  0  0  0  0  0  0  0  0  0
   10.2815    2.3450    0.2437 C   0  0  0  0  0  0  0  0  0  0  0  0
   10.6759    3.2591    0.7810 N   0  0  0  0  0  0  0  0  0  0  0  0
   -7.9692   -1.4543    2.0195 H   0  0  0  0  0  0  0  0  0  0  0  0
   -3.6664    2.4571    3.3124 H   0  0  0  0  0  0  0  0  0  0  0  0
   -4.3877    3.6403    4.3713 H   0  0  0  0  0  0  0  0  0  0  0  0
   -3.3741    4.4955    2.2686 H   0  0  0  0  0  0  0  0  0  0  0  0
   -5.1501    4.9616    2.4271 H   0  0  0  0  0  0  0  0  0  0  0  0
   -4.6358    3.6947    1.3215 H   0  0  0  0  0  0  0  0  0  0  0  0
  -10.0620    1.9076    5.0488 H   0  0  0  0  0  0  0  0  0  0  0  0
   -9.0442    3.2838    5.4940 H   0  0  0  0  0  0  0  0  0  0  0  0
   -8.7204    2.5727    7.5403 H   0  0  0  0  0  0  0  0  0  0  0  0
   -7.9238    1.1068    6.9063 H   0  0  0  0  0  0  0  0  0  0  0  0
   -9.7757    1.1781    7.1834 H   0  0  0  0  0  0  0  0  0  0  0  0
   -7.0286   -1.9403   -0.6478 H   0  0  0  0  0  0  0  0  0  0  0  0
    3.1050   -0.9273   -0.3464 H   0  0  0  0  0  0  0  0  0  0  0  0
    1.5618   -0.1365   -0.5206 H   0  0  0  0  0  0  0  0  0  0  0  0
    0.9672   -2.6454    0.7391 H   0  0  0  0  0  0  0  0  0  0  0  0
    2.5575   -2.0498    1.4230 H   0  0  0  0  0  0  0  0  0  0  0  0
    1.1114   -1.0630    1.5019 H   0  0  0  0  0  0  0  0  0  0  0  0
   -0.0622   -0.1584   -1.2760 H   0  0  0  0  0  0  0  0  0  0  0  0
   -0.8714   -0.2770    0.4224 H   0  0  0  0  0  0  0  0  0  0  0  0
   -2.8616    0.5293   -0.7327 H   0  0  0  0  0  0  0  0  0  0  0  0
   -1.4372    1.5523   -1.2898 H   0  0  0  0  0  0  0  0  0  0  0  0
   -2.0113    0.2033   -2.2987 H   0  0  0  0  0  0  0  0  0  0  0  0
    7.0591   -3.4238   -3.6610 H   0  0  0  0  0  0  0  0  0  0  0  0
    8.4785   -1.4774   -0.8434 H   0  0  0  0  0  0  0  0  0  0  0  0
    7.3093    2.5842   -5.4670 H   0  0  0  0  0  0  0  0  0  0  0  0
    9.2739    5.6974   -3.3364 H   0  0  0  0  0  0  0  0  0  0  0  0
    9.9095    4.0584   -1.6023 H   0  0  0  0  0  0  0  0  0  0  0  0
  1  2  2  3
  2  3  1  0
  3  4  2  0
  3  5  1  0
  5  6  1  0
  6  7  1  0
  5  8  1  0
  8  9  2  0
  8 10  1  0
 10 11  1  0
 11 12  1  0
 10 13  1  0
 13 14  2  0
  1 15  1  0
 15 16  2  0
 16 17  1  0
 17 18  1  0
 18 19  1  0
 19 20  1  0
 20 21  1  0
 21 22  1  0
 22 23  2  0
 23 24  1  0
 24 25  1  0
 22 26  1  0
 26 27  1  0
 27 28  2  0
 28 29  1  0
 29 30  1  0
 30 31  1  0
 29 32  1  0
 32 33  1  0
 33 34  1  0
 34 35  1  0
 35 36  1  0
 36 37  1  0
 34 38  1  0
 38 39  1  0
 28 40  1  0
 40 41  2  0
 41 42  1  0
 41 43  1  0
 43 44  2  0
 44 45  1  0
 44 46  1  0
 46 47  2  3
 47 48  1  0
 48 49  2  0
 48 50  1  0
 50 51  2  0
 51 52  1  0
 52 53  1  0
 52 54  2  0
 54 55  1  0
 55 56  2  0
 56 57  1  0
 57 58  2  3
 58 59  1  0
 59 60  3  0
 58 61  1  0
 61 62  3  0
 13  2  1  0
 37 15  1  0
 45 40  1  0
 57 47  1  0
 36 17  2  0
 56 50  1  0
 35 19  2  0
 33 20  2  0
 25 21  2  0
 32 26  2  0
 42 27  1  0
  1 63  1  0
  6 64  1  0
  6 65  1  0
  7 66  1  0
  7 67  1  0
  7 68  1  0
 11 69  1  0
 11 70  1  0
 12 71  1  0
 12 72  1  0
 12 73  1  0
 16 74  1  0
 30 75  1  0
 30 76  1  0
 31 77  1  0
 31 78  1  0
 31 79  1  0
 38 80  1  0
 38 81  1  0
 39 82  1  0
 39 83  1  0
 39 84  1  0
 43 85  1  0
 46 86  1  0
 51 87  1  0
 54 88  1  0
 55 89  1  0
M  END

