
     RDKit          3D

 96107  0  0  0  0  0  0  0  0999 V2000
    2.8190    4.4209    3.7662 C   0  0  0  0  0  0  0  0  0  0  0  0
    3.8558    5.2467    3.5090 C   0  0  0  0  0  0  0  0  0  0  0  0
    5.2430    4.7733    3.2888 C   0  0  0  0  0  0  0  0  0  0  0  0
    5.5942    3.6244    3.6760 O   0  0  0  0  0  0  0  0  0  0  0  0
    6.2214    5.6579    2.7066 N   0  0  0  0  0  0  0  0  0  0  0  0
    7.6017    5.1763    2.5113 C   0  0  0  0  0  0  0  0  0  0  0  0
    7.7292    4.3952    1.2077 C   0  0  0  0  0  0  0  0  0  0  0  0
    5.8320    6.9976    2.3207 C   0  0  0  0  0  0  0  0  0  0  0  0
    6.7293    7.8323    1.2127 S   0  0  0  0  0  0  0  0  0  0  0  0
    4.6183    7.5771    2.8639 N   0  0  0  0  0  0  0  0  0  0  0  0
    4.3186    9.0134    2.7161 C   0  0  0  0  0  0  0  0  0  0  0  0
    3.4602    9.2621    1.4792 C   0  0  0  0  0  0  0  0  0  0  0  0
    3.6392    6.7131    3.4792 C   0  0  0  0  0  0  0  0  0  0  0  0
    2.5784    7.2051    3.9620 O   0  0  0  0  0  0  0  0  0  0  0  0
    2.8343    2.9560    3.6023 C   0  0  0  0  0  0  0  0  0  0  0  0
    1.8843    1.9049    4.5516 S   0  0  0  0  0  0  0  0  0  0  0  0
    2.2194    0.5788    3.5879 C   0  0  0  0  0  0  0  0  0  0  0  0
    1.6044   -0.6048    3.3104 C   0  0  0  0  0  0  0  0  0  0  0  0
    0.4816   -1.1795    3.9153 C   0  0  0  0  0  0  0  0  0  0  0  0
   -0.1954   -2.2318    3.2411 C   0  0  0  0  0  0  0  0  0  0  0  0
   -1.3112   -2.7312    3.8293 N   0  0  0  0  0  0  0  0  0  0  0  0
   -1.3584   -1.7730    5.1799 S   0  0  0  0  0  0  0  0  0  0  0  0
   -0.0566   -0.7522    5.0839 N   0  0  0  0  0  0  0  0  0  0  0  0
    0.3127   -2.6749    2.0228 C   0  0  0  0  0  0  0  0  0  0  0  0
   -0.1405   -3.6260    1.1644 C   0  0  0  0  0  0  0  0  0  0  0  0
    0.7241   -3.7009    0.1443 C   0  0  0  0  0  0  0  0  0  0  0  0
    1.7631   -2.8400    0.2752 N   0  0  0  0  0  0  0  0  0  0  0  0
    3.0381   -3.0153   -0.4377 C   0  0  0  0  0  0  0  0  0  0  0  0
    4.1980   -3.2309    0.5339 C   0  0  0  0  0  0  0  0  0  0  0  0
    1.4697   -2.1399    1.4266 C   0  0  0  0  0  0  0  0  0  0  0  0
    2.0862   -1.0082    2.0485 C   0  0  0  0  0  0  0  0  0  0  0  0
    2.9049   -0.0234    1.5332 N   0  0  0  0  0  0  0  0  0  0  0  0
    2.9566    0.9172    2.5150 C   0  0  0  0  0  0  0  0  0  0  0  0
    3.3246    2.2701    2.4752 C   0  0  0  0  0  0  0  0  0  0  0  0
    3.3184    0.2434    0.1498 C   0  0  0  0  0  0  0  0  0  0  0  0
    2.1096    0.4562   -0.7621 C   0  0  0  0  0  0  0  0  0  0  0  0
    0.3669   -4.6006   -0.8601 C   0  0  0  0  0  0  0  0  0  0  0  0
   -0.8675   -5.1939   -0.5456 C   0  0  0  0  0  0  0  0  0  0  0  0
   -1.4551   -4.6372    0.9635 S   0  0  0  0  0  0  0  0  0  0  0  0
   -1.6370   -6.0461   -1.4603 C   0  0  0  0  0  0  0  0  0  0  0  0
   -2.7462   -5.6095   -2.0902 C   0  0  0  0  0  0  0  0  0  0  0  0
   -3.3383   -4.2701   -1.9386 C   0  0  0  0  0  0  0  0  0  0  0  0
   -2.7568   -3.2361   -1.5098 O   0  0  0  0  0  0  0  0  0  0  0  0
   -4.7069   -4.3140   -2.3961 C   0  0  0  0  0  0  0  0  0  0  0  0
   -5.6821   -3.2996   -2.2602 C   0  0  0  0  0  0  0  0  0  0  0  0
   -6.9437   -3.6765   -2.6749 C   0  0  0  0  0  0  0  0  0  0  0  0
   -7.2382   -4.9783   -3.1946 C   0  0  0  0  0  0  0  0  0  0  0  0
   -6.2875   -5.9765   -3.3314 C   0  0  0  0  0  0  0  0  0  0  0  0
   -4.9747   -5.6009   -2.9264 C   0  0  0  0  0  0  0  0  0  0  0  0
   -3.7281   -6.4182   -2.8788 C   0  0  0  0  0  0  0  0  0  0  0  0
   -3.4733   -7.5367   -3.6076 C   0  0  0  0  0  0  0  0  0  0  0  0
   -4.4487   -8.1179   -4.4947 C   0  0  0  0  0  0  0  0  0  0  0  0
   -5.2183   -8.5897   -5.2183 N   0  0  0  0  0  0  0  0  0  0  0  0
   -2.1626   -8.1358   -3.6711 C   0  0  0  0  0  0  0  0  0  0  0  0
   -1.1161   -8.6262   -3.7302 N   0  0  0  0  0  0  0  0  0  0  0  0
   -8.6790   -4.6051   -3.3546 C   0  0  0  0  0  0  0  0  0  0  0  0
   -9.1718   -4.3209   -4.8045 C   0  0  0  0  0  0  0  0  0  0  0  0
  -10.4914   -3.6015   -4.6553 C   0  0  0  0  0  0  0  0  0  0  0  0
  -10.2051   -2.3824   -4.1772 C   0  0  0  0  0  0  0  0  0  0  0  0
   -8.7073   -2.3231   -4.0153 C   0  0  0  0  0  0  0  0  0  0  0  0
   -8.3157   -3.1409   -5.2348 C   0  0  0  0  0  0  0  0  0  0  0  0
   -8.3755   -3.2720   -2.8267 C   0  0  0  0  0  0  0  0  0  0  0  0
    1.8650    4.8470    4.0494 H   0  0  0  0  0  0  0  0  0  0  0  0
    8.3167    6.0237    2.5137 H   0  0  0  0  0  0  0  0  0  0  0  0
    7.9058    4.5263    3.3591 H   0  0  0  0  0  0  0  0  0  0  0  0
    8.7772    4.0501    1.0837 H   0  0  0  0  0  0  0  0  0  0  0  0
    7.0565    3.5102    1.2181 H   0  0  0  0  0  0  0  0  0  0  0  0
    7.4704    5.0395    0.3446 H   0  0  0  0  0  0  0  0  0  0  0  0
    5.2500    9.6177    2.6552 H   0  0  0  0  0  0  0  0  0  0  0  0
    3.7737    9.3892    3.6038 H   0  0  0  0  0  0  0  0  0  0  0  0
    3.2751   10.3507    1.3706 H   0  0  0  0  0  0  0  0  0  0  0  0
    2.4868    8.7347    1.5715 H   0  0  0  0  0  0  0  0  0  0  0  0
    3.9845    8.9074    0.5704 H   0  0  0  0  0  0  0  0  0  0  0  0
    2.9927   -3.9289   -1.0725 H   0  0  0  0  0  0  0  0  0  0  0  0
    3.2086   -2.1932   -1.1516 H   0  0  0  0  0  0  0  0  0  0  0  0
    4.3952   -2.3294    1.1500 H   0  0  0  0  0  0  0  0  0  0  0  0
    3.9679   -4.0869    1.2073 H   0  0  0  0  0  0  0  0  0  0  0  0
    5.1214   -3.4774   -0.0319 H   0  0  0  0  0  0  0  0  0  0  0  0
    3.8270    2.7560    1.6522 H   0  0  0  0  0  0  0  0  0  0  0  0
    3.9400    1.1629    0.0973 H   0  0  0  0  0  0  0  0  0  0  0  0
    4.0027   -0.5311   -0.2081 H   0  0  0  0  0  0  0  0  0  0  0  0
    1.4927    1.2990   -0.3801 H   0  0  0  0  0  0  0  0  0  0  0  0
    1.4762   -0.4493   -0.8197 H   0  0  0  0  0  0  0  0  0  0  0  0
    2.4621    0.7087   -1.7831 H   0  0  0  0  0  0  0  0  0  0  0  0
    0.9066   -4.7600   -1.7836 H   0  0  0  0  0  0  0  0  0  0  0  0
   -1.3158   -7.0731   -1.5385 H   0  0  0  0  0  0  0  0  0  0  0  0
   -5.4741   -2.3280   -1.8379 H   0  0  0  0  0  0  0  0  0  0  0  0
   -6.5570   -6.9613   -3.6684 H   0  0  0  0  0  0  0  0  0  0  0  0
   -9.3595   -5.2186   -2.7284 H   0  0  0  0  0  0  0  0  0  0  0  0
   -9.1782   -5.1895   -5.4967 H   0  0  0  0  0  0  0  0  0  0  0  0
  -11.4728   -3.9492   -4.9598 H   0  0  0  0  0  0  0  0  0  0  0  0
  -10.9125   -1.5777   -4.0245 H   0  0  0  0  0  0  0  0  0  0  0  0
   -8.2745   -1.3027   -3.9463 H   0  0  0  0  0  0  0  0  0  0  0  0
   -8.6410   -2.6854   -6.2043 H   0  0  0  0  0  0  0  0  0  0  0  0
   -7.2288   -3.3650   -5.2909 H   0  0  0  0  0  0  0  0  0  0  0  0
   -8.8800   -3.0359   -1.8635 H   0  0  0  0  0  0  0  0  0  0  0  0
  1  2  2  3
  2  3  1  0
  3  4  2  0
  3  5  1  0
  5  6  1  0
  6  7  1  0
  5  8  1  0
  8  9  2  0
  8 10  1  0
 10 11  1  0
 11 12  1  0
 10 13  1  0
 13 14  2  0
  1 15  1  0
 15 16  1  0
 16 17  1  0
 17 18  1  0
 18 19  1  0
 19 20  1  0
 20 21  2  0
 21 22  1  0
 22 23  1  0
 20 24  1  0
 24 25  1  0
 25 26  2  0
 26 27  1  0
 27 28  1  0
 28 29  1  0
 27 30  1  0
 30 31  1  0
 31 32  1  0
 32 33  1  0
 33 34  1  0
 32 35  1  0
 35 36  1  0
 26 37  1  0
 37 38  2  0
 38 39  1  0
 38 40  1  0
 40 41  2  3
 41 42  1  0
 42 43  2  0
 42 44  1  0
 44 45  2  0
 45 46  1  0
 46 47  2  0
 47 48  1  0
 48 49  2  0
 49 50  1  0
 50 51  2  3
 51 52  1  0
 52 53  3  0
 51 54  1  0
 54 55  3  0
 47 56  1  0
 56 57  1  0
 57 58  1  0
 58 59  2  0
 59 60  1  0
 60 61  1  0
 60 62  1  0
 13  2  1  0
 34 15  2  0
 50 41  1  0
 62 56  1  0
 33 17  2  0
 49 44  1  0
 61 57  1  0
 31 18  2  0
 62 46  1  0
 23 19  2  0
 30 24  2  0
 39 25  1  0
  1 63  1  0
  6 64  1  0
  6 65  1  0
  7 66  1  0
  7 67  1  0
  7 68  1  0
 11 69  1  0
 11 70  1  0
 12 71  1  0
 12 72  1  0
 12 73  1  0
 28 74  1  0
 28 75  1  0
 29 76  1  0
 29 77  1  0
 29 78  1  0
 34 79  1  0
 35 80  1  0
 35 81  1  0
 36 82  1  0
 36 83  1  0
 36 84  1  0
 37 85  1  0
 40 86  1  0
 45 87  1  0
 48 88  1  0
 56 89  1  0
 57 90  1  0
 58 91  1  0
 59 92  1  0
 60 93  1  0
 61 94  1  0
 61 95  1  0
 62 96  1  0
M  END

