
     RDKit          3D

101111  0  0  0  0  0  0  0  0999 V2000
    0.6245    1.9845   -7.4722 C   0  0  0  0  0  0  0  0  0  0  0  0
    0.7946    2.7168   -8.4638 C   0  0  0  0  0  0  0  0  0  0  0  0
    2.1351    3.4318   -8.3767 C   0  0  0  0  0  0  0  0  0  0  0  0
    2.8369    3.2679   -7.3426 O   0  0  0  0  0  0  0  0  0  0  0  0
    2.6259    4.2719   -9.3846 N   0  0  0  0  0  0  0  0  0  0  0  0
    3.8961    4.9799   -9.3025 C   0  0  0  0  0  0  0  0  0  0  0  0
    5.0180    4.1126   -9.8542 C   0  0  0  0  0  0  0  0  0  0  0  0
    1.8168    4.4547  -10.5337 C   0  0  0  0  0  0  0  0  0  0  0  0
    2.4208    5.4485  -11.7245 S   0  0  0  0  0  0  0  0  0  0  0  0
    0.5750    3.8456  -10.7014 N   0  0  0  0  0  0  0  0  0  0  0  0
   -0.1975    4.0558  -11.9110 C   0  0  0  0  0  0  0  0  0  0  0  0
    0.1615    3.0905  -12.9855 C   0  0  0  0  0  0  0  0  0  0  0  0
    0.0550    2.9669   -9.6634 C   0  0  0  0  0  0  0  0  0  0  0  0
   -1.0741    2.4684   -9.9165 O   0  0  0  0  0  0  0  0  0  0  0  0
    0.3874    1.1495   -6.3787 C   0  0  0  0  0  0  0  0  0  0  0  0
    0.7940   -0.1911   -6.2780 C   0  0  0  0  0  0  0  0  0  0  0  0
    1.2674   -0.9377   -7.5012 C   0  0  0  0  0  0  0  0  0  0  0  0
    2.6606   -0.7092   -7.9101 C   0  0  0  0  0  0  0  0  0  0  0  0
    0.6664   -0.7606   -5.0550 C   0  0  0  0  0  0  0  0  0  0  0  0
    1.1372   -2.2865   -4.3173 S   0  0  0  0  0  0  0  0  0  0  0  0
    0.6687   -1.9362   -2.7305 C   0  0  0  0  0  0  0  0  0  0  0  0
    0.6242   -2.3957   -1.4137 C   0  0  0  0  0  0  0  0  0  0  0  0
    1.2347   -3.5624   -0.9150 C   0  0  0  0  0  0  0  0  0  0  0  0
    1.2537   -3.6918    0.4259 C   0  0  0  0  0  0  0  0  0  0  0  0
    1.8350   -4.7760    0.9659 N   0  0  0  0  0  0  0  0  0  0  0  0
    2.4231   -5.7682   -0.3442 Se  0  0  0  0  0  2  0  0  0  0  0  0
    1.7751   -4.4951   -1.6853 N   0  0  0  0  0  0  0  0  0  0  0  0
    0.6456   -2.6809    1.1718 C   0  0  0  0  0  0  0  0  0  0  0  0
    0.4788   -2.5848    2.5582 C   0  0  0  0  0  0  0  0  0  0  0  0
    0.9365   -3.2900    4.0321 S   0  0  0  0  0  0  0  0  0  0  0  0
    0.1715   -2.1087    5.0837 C   0  0  0  0  0  0  0  0  0  0  0  0
    0.0100   -1.9548    6.4413 C   0  0  0  0  0  0  0  0  0  0  0  0
    0.8990   -2.7381    7.3852 C   0  0  0  0  0  0  0  0  0  0  0  0
    0.8441   -4.2054    7.2758 C   0  0  0  0  0  0  0  0  0  0  0  0
   -0.7717   -0.8821    6.8383 C   0  0  0  0  0  0  0  0  0  0  0  0
   -1.1927   -0.1849    5.3730 S   0  0  0  0  0  0  0  0  0  0  0  0
   -0.3798   -1.2624    4.2535 C   0  0  0  0  0  0  0  0  0  0  0  0
   -0.2267   -1.4863    2.8940 C   0  0  0  0  0  0  0  0  0  0  0  0
   -0.5031   -0.8497    1.6755 N   0  0  0  0  0  0  0  0  0  0  0  0
    0.0177   -1.5454    0.6847 C   0  0  0  0  0  0  0  0  0  0  0  0
    0.0454   -1.4007   -0.6923 C   0  0  0  0  0  0  0  0  0  0  0  0
   -0.2440   -0.3486   -1.4870 N   0  0  0  0  0  0  0  0  0  0  0  0
    0.1560   -0.6947   -2.7797 C   0  0  0  0  0  0  0  0  0  0  0  0
    0.1805   -0.1011   -4.0421 C   0  0  0  0  0  0  0  0  0  0  0  0
   -0.1416    1.4524   -4.7806 S   0  0  0  0  0  0  0  0  0  0  0  0
   -0.7120    0.9373   -1.1438 C   0  0  0  0  0  0  0  0  0  0  0  0
    0.4738    1.8658   -0.7469 C   0  0  0  0  0  0  0  0  0  0  0  0
   -1.3683    0.2908    1.6151 C   0  0  0  0  0  0  0  0  0  0  0  0
   -2.8231   -0.1207    1.3565 C   0  0  0  0  0  0  0  0  0  0  0  0
   -1.0448   -0.5104    8.2488 C   0  0  0  0  0  0  0  0  0  0  0  0
   -1.4650   -1.4428    9.0954 C   0  0  0  0  0  0  0  0  0  0  0  0
   -1.7469   -2.8414    8.8278 C   0  0  0  0  0  0  0  0  0  0  0  0
   -2.0370   -3.3126    7.6751 O   0  0  0  0  0  0  0  0  0  0  0  0
   -1.6638   -3.6061   10.0370 C   0  0  0  0  0  0  0  0  0  0  0  0
   -1.7610   -4.9642   10.2698 C   0  0  0  0  0  0  0  0  0  0  0  0
   -1.5581   -5.5401   11.4922 C   0  0  0  0  0  0  0  0  0  0  0  0
   -1.6836   -7.2668   11.6868 Cl  0  0  0  0  0  0  0  0  0  0  0  0
   -1.2407   -4.6986   12.5349 C   0  0  0  0  0  0  0  0  0  0  0  0
   -1.0242   -5.2436   13.7842 F   0  0  0  0  0  0  0  0  0  0  0  0
   -1.1498   -3.3394   12.2933 C   0  0  0  0  0  0  0  0  0  0  0  0
   -1.3416   -2.7368   11.0965 C   0  0  0  0  0  0  0  0  0  0  0  0
   -1.2123   -1.3377   10.5678 C   0  0  0  0  0  0  0  0  0  0  0  0
   -1.0224   -0.3155   11.3080 C   0  0  0  0  0  0  0  0  0  0  0  0
   -0.7662   -0.3390   12.7137 C   0  0  0  0  0  0  0  0  0  0  0  0
   -0.5632   -0.3673   13.8943 N   0  0  0  0  0  0  0  0  0  0  0  0
   -1.1628    1.0466   10.8213 C   0  0  0  0  0  0  0  0  0  0  0  0
   -1.2635    2.1772   10.4092 N   0  0  0  0  0  0  0  0  0  0  0  0
   -0.6826    1.6874   -7.9391 H   0  0  0  0  0  0  0  0  0  0  0  0
    3.8494    5.8568  -10.0136 H   0  0  0  0  0  0  0  0  0  0  0  0
    4.1265    5.3403   -8.3002 H   0  0  0  0  0  0  0  0  0  0  0  0
    5.9839    4.7104   -9.8807 H   0  0  0  0  0  0  0  0  0  0  0  0
    5.2295    3.1995   -9.2617 H   0  0  0  0  0  0  0  0  0  0  0  0
    4.8473    3.8373  -10.8941 H   0  0  0  0  0  0  0  0  0  0  0  0
   -1.2787    3.9955  -11.7144 H   0  0  0  0  0  0  0  0  0  0  0  0
    0.0139    5.0762  -12.3085 H   0  0  0  0  0  0  0  0  0  0  0  0
   -0.7559    2.7905  -13.5312 H   0  0  0  0  0  0  0  0  0  0  0  0
    0.8206    3.5766  -13.7551 H   0  0  0  0  0  0  0  0  0  0  0  0
    0.5995    2.1773  -12.5896 H   0  0  0  0  0  0  0  0  0  0  0  0
    1.1227   -2.0514   -7.3469 H   0  0  0  0  0  0  0  0  0  0  0  0
    0.5432   -0.7313   -8.3297 H   0  0  0  0  0  0  0  0  0  0  0  0
    3.2917   -0.0677   -7.3040 H   0  0  0  0  0  0  0  0  0  0  0  0
    2.6452   -0.4072   -8.9888 H   0  0  0  0  0  0  0  0  0  0  0  0
    3.2325   -1.7118   -7.9688 H   0  0  0  0  0  0  0  0  0  0  0  0
    1.9710   -2.3820    7.0728 H   0  0  0  0  0  0  0  0  0  0  0  0
    0.8452   -2.3178    8.4030 H   0  0  0  0  0  0  0  0  0  0  0  0
    0.3874   -4.6538    8.1716 H   0  0  0  0  0  0  0  0  0  0  0  0
    1.9072   -4.6207    7.1113 H   0  0  0  0  0  0  0  0  0  0  0  0
    0.3227   -4.5269    6.3289 H   0  0  0  0  0  0  0  0  0  0  0  0
   -1.6655    1.1772   -0.7752 H   0  0  0  0  0  0  0  0  0  0  0  0
   -0.8867    1.4661   -2.2064 H   0  0  0  0  0  0  0  0  0  0  0  0
    1.2082    1.9549   -1.5814 H   0  0  0  0  0  0  0  0  0  0  0  0
    0.0448    2.8706   -0.6422 H   0  0  0  0  0  0  0  0  0  0  0  0
    0.9906    1.4714    0.1181 H   0  0  0  0  0  0  0  0  0  0  0  0
   -1.4878    0.6311    2.7416 H   0  0  0  0  0  0  0  0  0  0  0  0
   -1.1364    1.2145    1.1994 H   0  0  0  0  0  0  0  0  0  0  0  0
   -2.8405   -1.2010    1.6134 H   0  0  0  0  0  0  0  0  0  0  0  0
   -3.5173    0.4958    1.9256 H   0  0  0  0  0  0  0  0  0  0  0  0
   -3.1252   -0.0917    0.2979 H   0  0  0  0  0  0  0  0  0  0  0  0
   -0.8943    0.4796    8.5235 H   0  0  0  0  0  0  0  0  0  0  0  0
   -2.0193   -5.5973    9.4169 H   0  0  0  0  0  0  0  0  0  0  0  0
   -0.8960   -2.7542   13.1846 H   0  0  0  0  0  0  0  0  0  0  0  0
  1  2  2  3
  2  3  1  0
  3  4  2  0
  3  5  1  0
  5  6  1  0
  6  7  1  0
  5  8  1  0
  8  9  2  0
  8 10  1  0
 10 11  1  0
 11 12  1  0
 10 13  1  0
 13 14  2  0
  1 15  1  0
 15 16  2  0
 16 17  1  0
 17 18  1  0
 16 19  1  0
 19 20  1  0
 20 21  1  0
 21 22  1  0
 22 23  1  0
 23 24  1  0
 24 25  2  0
 25 26  1  0
 26 27  1  0
 24 28  1  0
 28 29  1  0
 29 30  1  0
 30 31  1  0
 31 32  1  0
 32 33  1  0
 33 34  1  0
 32 35  2  0
 35 36  1  0
 36 37  1  0
 37 38  1  0
 38 39  1  0
 39 40  1  0
 40 41  1  0
 41 42  1  0
 42 43  1  0
 43 44  1  0
 44 45  1  0
 42 46  1  0
 46 47  1  0
 39 48  1  0
 48 49  1  0
 35 50  1  0
 50 51  2  3
 51 52  1  0
 52 53  2  0
 52 54  1  0
 54 55  2  0
 55 56  1  0
 56 57  1  0
 56 58  2  0
 58 59  1  0
 58 60  1  0
 60 61  2  0
 61 62  1  0
 62 63  2  3
 63 64  1  0
 64 65  3  0
 63 66  1  0
 66 67  3  0
 13  2  1  0
 45 15  1  0
 62 51  1  0
 44 19  2  0
 61 54  1  0
 43 21  2  0
 41 22  2  0
 27 23  2  0
 40 28  2  0
 38 29  2  0
 37 31  2  0
  1 68  1  0
  6 69  1  0
  6 70  1  0
  7 71  1  0
  7 72  1  0
  7 73  1  0
 11 74  1  0
 11 75  1  0
 12 76  1  0
 12 77  1  0
 12 78  1  0
 17 79  1  0
 17 80  1  0
 18 81  1  0
 18 82  1  0
 18 83  1  0
 33 84  1  0
 33 85  1  0
 34 86  1  0
 34 87  1  0
 34 88  1  0
 46 89  1  0
 46 90  1  0
 47 91  1  0
 47 92  1  0
 47 93  1  0
 48 94  1  0
 48 95  1  0
 49 96  1  0
 49 97  1  0
 49 98  1  0
 50 99  1  0
 55100  1  0
 60101  1  0
M  END

