
     RDKit          3D

118132  0  0  0  0  0  0  0  0999 V2000
   -4.4419   -0.2039   -9.9540 C   0  0  0  0  0  0  0  0  0  0  0  0
   -5.6538    0.3736   -9.7915 C   0  0  0  0  0  0  0  0  0  0  0  0
   -6.2367    0.6805   -8.4611 C   0  0  0  0  0  0  0  0  0  0  0  0
   -5.5040    0.6852   -7.4335 O   0  0  0  0  0  0  0  0  0  0  0  0
   -7.6286    1.0357   -8.3422 N   0  0  0  0  0  0  0  0  0  0  0  0
   -8.1868    1.3095   -7.0055 C   0  0  0  0  0  0  0  0  0  0  0  0
   -8.5846    0.0099   -6.3133 C   0  0  0  0  0  0  0  0  0  0  0  0
   -8.4520    1.0963   -9.5306 C   0  0  0  0  0  0  0  0  0  0  0  0
  -10.0959    1.0171   -9.4024 S   0  0  0  0  0  0  0  0  0  0  0  0
   -7.8266    1.1571  -10.8346 N   0  0  0  0  0  0  0  0  0  0  0  0
   -8.5878    1.5547  -12.0324 C   0  0  0  0  0  0  0  0  0  0  0  0
   -9.1431    0.3282  -12.7513 C   0  0  0  0  0  0  0  0  0  0  0  0
   -6.4460    0.7677  -10.9769 C   0  0  0  0  0  0  0  0  0  0  0  0
   -5.9158    0.7442  -12.1235 O   0  0  0  0  0  0  0  0  0  0  0  0
   -3.6579   -0.8001   -8.8646 C   0  0  0  0  0  0  0  0  0  0  0  0
   -4.1873   -2.1082   -7.8953 S   0  0  0  0  0  0  0  0  0  0  0  0
   -2.7893   -2.0846   -6.9784 C   0  0  0  0  0  0  0  0  0  0  0  0
   -2.4183   -2.4583   -5.7223 C   0  0  0  0  0  0  0  0  0  0  0  0
   -3.1784   -3.1923   -4.3906 S   0  0  0  0  0  0  0  0  0  0  0  0
   -2.0192   -2.4784   -3.3717 C   0  0  0  0  0  0  0  0  0  0  0  0
   -1.6082   -2.5946   -2.0785 C   0  0  0  0  0  0  0  0  0  0  0  0
   -2.0472   -3.4070   -1.0262 C   0  0  0  0  0  0  0  0  0  0  0  0
   -1.2988   -3.4135    0.1894 C   0  0  0  0  0  0  0  0  0  0  0  0
   -1.7624   -4.1991    1.1922 N   0  0  0  0  0  0  0  0  0  0  0  0
   -3.0894   -4.8511    0.4440 S   0  0  0  0  0  0  0  0  0  0  0  0
   -3.1422   -4.2042   -1.0806 N   0  0  0  0  0  0  0  0  0  0  0  0
   -0.1661   -2.5944    0.2867 C   0  0  0  0  0  0  0  0  0  0  0  0
    0.5762   -2.2148    1.3681 C   0  0  0  0  0  0  0  0  0  0  0  0
    0.4557   -2.3766    3.0530 S   0  0  0  0  0  0  0  0  0  0  0  0
    1.4630   -1.0204    3.2824 C   0  0  0  0  0  0  0  0  0  0  0  0
    1.8494   -0.3047    4.4152 C   0  0  0  0  0  0  0  0  0  0  0  0
    1.3975   -0.6464    5.8095 C   0  0  0  0  0  0  0  0  0  0  0  0
    0.0677    0.0285    6.1249 C   0  0  0  0  0  0  0  0  0  0  0  0
    2.5494    0.8626    4.0473 C   0  0  0  0  0  0  0  0  0  0  0  0
    2.6159    1.0013    2.3504 S   0  0  0  0  0  0  0  0  0  0  0  0
    1.8139   -0.4468    2.0869 C   0  0  0  0  0  0  0  0  0  0  0  0
    1.3099   -1.1330    0.9901 C   0  0  0  0  0  0  0  0  0  0  0  0
    1.0884   -0.7725   -0.3012 N   0  0  0  0  0  0  0  0  0  0  0  0
    0.2298   -1.7413   -0.7544 C   0  0  0  0  0  0  0  0  0  0  0  0
   -0.4507   -1.8131   -1.9902 C   0  0  0  0  0  0  0  0  0  0  0  0
   -0.0692   -1.3340   -3.2165 N   0  0  0  0  0  0  0  0  0  0  0  0
   -1.1152   -1.6851   -4.0154 C   0  0  0  0  0  0  0  0  0  0  0  0
   -1.3447   -1.6657   -5.3895 C   0  0  0  0  0  0  0  0  0  0  0  0
   -1.0656   -0.7553   -6.3662 N   0  0  0  0  0  0  0  0  0  0  0  0
   -1.9647   -1.0656   -7.3404 C   0  0  0  0  0  0  0  0  0  0  0  0
   -2.4184   -0.3157   -8.4244 C   0  0  0  0  0  0  0  0  0  0  0  0
   -0.3579    0.5202   -6.2406 C   0  0  0  0  0  0  0  0  0  0  0  0
    0.9456    0.4811   -7.0281 C   0  0  0  0  0  0  0  0  0  0  0  0
    1.3357   -1.2311   -3.6590 C   0  0  0  0  0  0  0  0  0  0  0  0
    1.7719   -2.4695   -4.4430 C   0  0  0  0  0  0  0  0  0  0  0  0
    1.1826    0.6102   -0.7954 C   0  0  0  0  0  0  0  0  0  0  0  0
    0.0279    1.4550   -0.2588 C   0  0  0  0  0  0  0  0  0  0  0  0
    3.0229    1.9116    4.9606 C   0  0  0  0  0  0  0  0  0  0  0  0
    4.0212    1.7237    5.8437 C   0  0  0  0  0  0  0  0  0  0  0  0
    4.7304    0.4575    6.0691 C   0  0  0  0  0  0  0  0  0  0  0  0
    4.7620   -0.5314    5.2888 O   0  0  0  0  0  0  0  0  0  0  0  0
    5.3900    0.5211    7.3536 C   0  0  0  0  0  0  0  0  0  0  0  0
    6.0401   -0.5375    8.0292 C   0  0  0  0  0  0  0  0  0  0  0  0
    6.4603   -0.2108    9.3043 C   0  0  0  0  0  0  0  0  0  0  0  0
    6.2481    1.0780    9.8918 C   0  0  0  0  0  0  0  0  0  0  0  0
    5.6062    2.1160    9.2380 C   0  0  0  0  0  0  0  0  0  0  0  0
    5.1909    1.8109    7.9111 C   0  0  0  0  0  0  0  0  0  0  0  0
    4.4446    2.6547    6.9345 C   0  0  0  0  0  0  0  0  0  0  0  0
    4.3756    4.0115    6.9236 C   0  0  0  0  0  0  0  0  0  0  0  0
    3.8519    4.7484    5.8032 C   0  0  0  0  0  0  0  0  0  0  0  0
    3.4369    5.3504    4.9060 N   0  0  0  0  0  0  0  0  0  0  0  0
    4.9538    4.8241    7.9618 C   0  0  0  0  0  0  0  0  0  0  0  0
    5.4168    5.4919    8.7863 N   0  0  0  0  0  0  0  0  0  0  0  0
    6.8825    0.6186   11.1693 C   0  0  0  0  0  0  0  0  0  0  0  0
    5.9176    0.3243   12.3555 C   0  0  0  0  0  0  0  0  0  0  0  0
    6.7213   -0.4755   13.3528 C   0  0  0  0  0  0  0  0  0  0  0  0
    6.9182   -1.6800   12.8034 C   0  0  0  0  0  0  0  0  0  0  0  0
    6.2413   -1.6512   11.4543 C   0  0  0  0  0  0  0  0  0  0  0  0
    5.0401   -0.7932   11.8163 C   0  0  0  0  0  0  0  0  0  0  0  0
    7.0996   -0.7010   10.5677 C   0  0  0  0  0  0  0  0  0  0  0  0
   -4.0162   -0.2990  -10.9452 H   0  0  0  0  0  0  0  0  0  0  0  0
   -9.0653    1.9857   -7.0710 H   0  0  0  0  0  0  0  0  0  0  0  0
   -7.4414    1.8445   -6.3775 H   0  0  0  0  0  0  0  0  0  0  0  0
   -9.3514   -0.5262   -6.9116 H   0  0  0  0  0  0  0  0  0  0  0  0
   -9.0064    0.2361   -5.3116 H   0  0  0  0  0  0  0  0  0  0  0  0
   -7.6977   -0.6464   -6.1881 H   0  0  0  0  0  0  0  0  0  0  0  0
   -9.4193    2.2406  -11.7631 H   0  0  0  0  0  0  0  0  0  0  0  0
   -7.9368    2.1246  -12.7302 H   0  0  0  0  0  0  0  0  0  0  0  0
   -9.8141   -0.2456  -12.0783 H   0  0  0  0  0  0  0  0  0  0  0  0
   -9.7223    0.6492  -13.6437 H   0  0  0  0  0  0  0  0  0  0  0  0
   -8.3143   -0.3318  -13.0836 H   0  0  0  0  0  0  0  0  0  0  0  0
    2.1518   -0.3244    6.5555 H   0  0  0  0  0  0  0  0  0  0  0  0
    1.2831   -1.7476    5.9078 H   0  0  0  0  0  0  0  0  0  0  0  0
    0.1772    1.1335    6.0835 H   0  0  0  0  0  0  0  0  0  0  0  0
   -0.2599   -0.2584    7.1464 H   0  0  0  0  0  0  0  0  0  0  0  0
   -0.7112   -0.2916    5.3993 H   0  0  0  0  0  0  0  0  0  0  0  0
   -1.9366    0.5743   -8.8066 H   0  0  0  0  0  0  0  0  0  0  0  0
   -0.9930    1.3438   -6.6323 H   0  0  0  0  0  0  0  0  0  0  0  0
   -0.1699    0.7620   -5.1770 H   0  0  0  0  0  0  0  0  0  0  0  0
    1.5802   -0.3638   -6.6882 H   0  0  0  0  0  0  0  0  0  0  0  0
    0.7307    0.3540   -8.1106 H   0  0  0  0  0  0  0  0  0  0  0  0
    1.4999    1.4313   -6.8809 H   0  0  0  0  0  0  0  0  0  0  0  0
    2.0173   -1.1608   -2.7869 H   0  0  0  0  0  0  0  0  0  0  0  0
    1.4952   -0.3224   -4.2651 H   0  0  0  0  0  0  0  0  0  0  0  0
    1.2341   -2.5359   -5.4099 H   0  0  0  0  0  0  0  0  0  0  0  0
    2.8595   -2.4111   -4.6559 H   0  0  0  0  0  0  0  0  0  0  0  0
    1.5731   -3.3860   -3.8483 H   0  0  0  0  0  0  0  0  0  0  0  0
    1.1385    0.6558   -1.8952 H   0  0  0  0  0  0  0  0  0  0  0  0
    2.1515    1.0567   -0.4888 H   0  0  0  0  0  0  0  0  0  0  0  0
    0.0471    1.4869    0.8490 H   0  0  0  0  0  0  0  0  0  0  0  0
    0.1109    2.4915   -0.6464 H   0  0  0  0  0  0  0  0  0  0  0  0
   -0.9421    1.0255   -0.5908 H   0  0  0  0  0  0  0  0  0  0  0  0
    2.4813    2.8414    4.9237 H   0  0  0  0  0  0  0  0  0  0  0  0
    6.1589   -1.5276    7.6090 H   0  0  0  0  0  0  0  0  0  0  0  0
    5.4052    3.0441    9.7448 H   0  0  0  0  0  0  0  0  0  0  0  0
    7.8142    1.1696   11.4284 H   0  0  0  0  0  0  0  0  0  0  0  0
    5.3839    1.2039   12.7725 H   0  0  0  0  0  0  0  0  0  0  0  0
    7.0050   -0.1815   14.3575 H   0  0  0  0  0  0  0  0  0  0  0  0
    7.3878   -2.5302   13.2863 H   0  0  0  0  0  0  0  0  0  0  0  0
    6.0142   -2.6452   11.0159 H   0  0  0  0  0  0  0  0  0  0  0  0
    4.4094   -0.5001   10.9483 H   0  0  0  0  0  0  0  0  0  0  0  0
    4.3835   -1.2549   12.5932 H   0  0  0  0  0  0  0  0  0  0  0  0
    8.1685   -0.9866   10.4459 H   0  0  0  0  0  0  0  0  0  0  0  0
  1  2  2  3
  2  3  1  0
  3  4  2  0
  3  5  1  0
  5  6  1  0
  6  7  1  0
  5  8  1  0
  8  9  2  0
  8 10  1  0
 10 11  1  0
 11 12  1  0
 10 13  1  0
 13 14  2  0
  1 15  1  0
 15 16  1  0
 16 17  1  0
 17 18  1  0
 18 19  1  0
 19 20  1  0
 20 21  1  0
 21 22  1  0
 22 23  1  0
 23 24  2  0
 24 25  1  0
 25 26  1  0
 23 27  1  0
 27 28  1  0
 28 29  1  0
 29 30  1  0
 30 31  1  0
 31 32  1  0
 32 33  1  0
 31 34  2  0
 34 35  1  0
 35 36  1  0
 36 37  1  0
 37 38  1  0
 38 39  1  0
 39 40  1  0
 40 41  1  0
 41 42  1  0
 42 43  1  0
 43 44  1  0
 44 45  1  0
 45 46  1  0
 44 47  1  0
 47 48  1  0
 41 49  1  0
 49 50  1  0
 38 51  1  0
 51 52  1  0
 34 53  1  0
 53 54  2  3
 54 55  1  0
 55 56  2  0
 55 57  1  0
 57 58  2  0
 58 59  1  0
 59 60  2  0
 60 61  1  0
 61 62  2  0
 62 63  1  0
 63 64  2  3
 64 65  1  0
 65 66  3  0
 64 67  1  0
 67 68  3  0
 60 69  1  0
 69 70  1  0
 70 71  1  0
 71 72  2  0
 72 73  1  0
 73 74  1  0
 73 75  1  0
 13  2  1  0
 46 15  2  0
 63 54  1  0
 75 69  1  0
 45 17  2  0
 62 57  1  0
 74 70  1  0
 43 18  2  0
 75 59  1  0
 42 20  2  0
 40 21  2  0
 26 22  2  0
 39 27  2  0
 37 28  2  0
 36 30  2  0
  1 76  1  0
  6 77  1  0
  6 78  1  0
  7 79  1  0
  7 80  1  0
  7 81  1  0
 11 82  1  0
 11 83  1  0
 12 84  1  0
 12 85  1  0
 12 86  1  0
 32 87  1  0
 32 88  1  0
 33 89  1  0
 33 90  1  0
 33 91  1  0
 46 92  1  0
 47 93  1  0
 47 94  1  0
 48 95  1  0
 48 96  1  0
 48 97  1  0
 49 98  1  0
 49 99  1  0
 50100  1  0
 50101  1  0
 50102  1  0
 51103  1  0
 51104  1  0
 52105  1  0
 52106  1  0
 52107  1  0
 53108  1  0
 58109  1  0
 61110  1  0
 69111  1  0
 70112  1  0
 71113  1  0
 72114  1  0
 73115  1  0
 74116  1  0
 74117  1  0
 75118  1  0
M  END

