
     RDKit          3D

155168  0  0  0  0  0  0  0  0999 V2000
    0.0717    1.5392    8.6274 C   0  0  0  0  0  0  0  0  0  0  0  0
    1.1706    2.3178    8.7293 C   0  0  0  0  0  0  0  0  0  0  0  0
    1.5014    2.9478   10.0268 C   0  0  0  0  0  0  0  0  0  0  0  0
    0.6449    2.9618   10.9555 O   0  0  0  0  0  0  0  0  0  0  0  0
    2.7982    3.5390   10.2397 N   0  0  0  0  0  0  0  0  0  0  0  0
    3.1078    4.1343   11.5527 C   0  0  0  0  0  0  0  0  0  0  0  0
    3.5770    3.0613   12.5315 C   0  0  0  0  0  0  0  0  0  0  0  0
    3.7845    3.4864    9.1823 C   0  0  0  0  0  0  0  0  0  0  0  0
    5.3878    3.6180    9.5385 S   0  0  0  0  0  0  0  0  0  0  0  0
    3.3676    3.2057    7.8258 N   0  0  0  0  0  0  0  0  0  0  0  0
    4.2408    3.5073    6.6776 C   0  0  0  0  0  0  0  0  0  0  0  0
    4.9947    2.2606    6.2301 C   0  0  0  0  0  0  0  0  0  0  0  0
    2.0796    2.6028    7.5894 C   0  0  0  0  0  0  0  0  0  0  0  0
    1.7123    2.3595    6.4063 O   0  0  0  0  0  0  0  0  0  0  0  0
   -0.2765    0.7550    7.4378 C   0  0  0  0  0  0  0  0  0  0  0  0
    0.4135   -0.3814    6.9923 C   0  0  0  0  0  0  0  0  0  0  0  0
   -0.1595   -0.8688    5.8228 C   0  0  0  0  0  0  0  0  0  0  0  0
    0.3371   -2.0150    4.6772 S   0  0  0  0  0  0  0  0  0  0  0  0
   -0.9307   -1.5972    3.6169 C   0  0  0  0  0  0  0  0  0  0  0  0
   -1.0743   -1.6403    2.1729 C   0  0  0  0  0  0  0  0  0  0  0  0
   -1.8757   -0.5649    1.8145 C   0  0  0  0  0  0  0  0  0  0  0  0
   -2.4096    0.1873    3.0248 C   0  0  0  0  0  0  0  0  0  0  0  0
   -3.9441   -0.0512    3.1787 C   0  0  0  0  0  0  0  0  0  0  0  0
   -4.3333   -1.5155    3.0910 C   0  0  0  0  0  0  0  0  0  0  0  0
   -4.6402   -2.0958    1.8484 C   0  0  0  0  0  0  0  0  0  0  0  0
   -4.8588   -3.4725    1.7416 C   0  0  0  0  0  0  0  0  0  0  0  0
   -4.7653   -4.2938    2.8761 C   0  0  0  0  0  0  0  0  0  0  0  0
   -4.9827   -5.7808    2.7631 C   0  0  0  0  0  0  0  0  0  0  0  0
   -6.4261   -6.1460    3.0947 C   0  0  0  0  0  0  0  0  0  0  0  0
   -4.4952   -3.7134    4.1254 C   0  0  0  0  0  0  0  0  0  0  0  0
   -4.2799   -2.3359    4.2313 C   0  0  0  0  0  0  0  0  0  0  0  0
   -1.9793    1.6608    2.9721 C   0  0  0  0  0  0  0  0  0  0  0  0
   -0.6346    1.9806    2.6812 C   0  0  0  0  0  0  0  0  0  0  0  0
   -0.2072    3.3068    2.6246 C   0  0  0  0  0  0  0  0  0  0  0  0
   -1.1057    4.3507    2.8717 C   0  0  0  0  0  0  0  0  0  0  0  0
   -0.6350    5.7795    2.8272 C   0  0  0  0  0  0  0  0  0  0  0  0
    0.0824    6.1566    4.1216 C   0  0  0  0  0  0  0  0  0  0  0  0
   -2.4339    4.0487    3.2049 C   0  0  0  0  0  0  0  0  0  0  0  0
   -2.8685    2.7212    3.2530 C   0  0  0  0  0  0  0  0  0  0  0  0
   -1.6591   -0.5426    4.1073 C   0  0  0  0  0  0  0  0  0  0  0  0
   -1.2291   -0.1545    5.3647 C   0  0  0  0  0  0  0  0  0  0  0  0
   -1.5479    1.1477    6.3727 S   0  0  0  0  0  0  0  0  0  0  0  0
   -2.0676   -0.2344    0.4770 C   0  0  0  0  0  0  0  0  0  0  0  0
   -1.4812   -1.0396   -0.5137 C   0  0  0  0  0  0  0  0  0  0  0  0
   -1.5103   -0.6304   -1.9175 C   0  0  0  0  0  0  0  0  0  0  0  0
   -1.0306   -1.4543   -2.9346 C   0  0  0  0  0  0  0  0  0  0  0  0
   -0.5958   -2.8976   -2.6757 C   0  0  0  0  0  0  0  0  0  0  0  0
   -0.2753   -3.0983   -1.1694 C   0  0  0  0  0  0  0  0  0  0  0  0
   -0.7767   -2.2214   -0.1637 C   0  0  0  0  0  0  0  0  0  0  0  0
   -0.5373   -2.5070    1.2115 C   0  0  0  0  0  0  0  0  0  0  0  0
    0.1960   -3.6448    1.5719 C   0  0  0  0  0  0  0  0  0  0  0  0
    0.7153   -4.4813    0.5904 C   0  0  0  0  0  0  0  0  0  0  0  0
    0.4833   -4.2177   -0.7581 C   0  0  0  0  0  0  0  0  0  0  0  0
   -1.7582   -3.8677   -3.0162 C   0  0  0  0  0  0  0  0  0  0  0  0
   -1.5377   -5.2618   -3.0910 C   0  0  0  0  0  0  0  0  0  0  0  0
   -2.5868   -6.1510   -3.3477 C   0  0  0  0  0  0  0  0  0  0  0  0
   -3.8963   -5.6800   -3.5001 C   0  0  0  0  0  0  0  0  0  0  0  0
   -5.0236   -6.6266   -3.8167 C   0  0  0  0  0  0  0  0  0  0  0  0
   -5.2682   -6.6902   -5.3211 C   0  0  0  0  0  0  0  0  0  0  0  0
   -4.1425   -4.3073   -3.3895 C   0  0  0  0  0  0  0  0  0  0  0  0
   -3.0981   -3.4165   -3.1360 C   0  0  0  0  0  0  0  0  0  0  0  0
    0.6880   -3.1176   -3.5041 C   0  0  0  0  0  0  0  0  0  0  0  0
    1.8710   -2.4524   -3.1160 C   0  0  0  0  0  0  0  0  0  0  0  0
    3.0420   -2.5679   -3.8644 C   0  0  0  0  0  0  0  0  0  0  0  0
    3.0581   -3.3277   -5.0403 C   0  0  0  0  0  0  0  0  0  0  0  0
    4.3393   -3.4841   -5.8179 C   0  0  0  0  0  0  0  0  0  0  0  0
    5.1528   -4.6564   -5.2797 C   0  0  0  0  0  0  0  0  0  0  0  0
    1.8881   -3.9758   -5.4541 C   0  0  0  0  0  0  0  0  0  0  0  0
    0.7096   -3.8548   -4.7100 C   0  0  0  0  0  0  0  0  0  0  0  0
   -1.1291   -0.7975   -4.1690 C   0  0  0  0  0  0  0  0  0  0  0  0
   -1.5987    0.4787   -4.1095 C   0  0  0  0  0  0  0  0  0  0  0  0
   -1.9742    0.8926   -2.5307 S   0  0  0  0  0  0  0  0  0  0  0  0
   -1.6252    1.1773   -5.3113 C   0  0  0  0  0  0  0  0  0  0  0  0
   -1.1545    0.3683   -6.3508 C   0  0  0  0  0  0  0  0  0  0  0  0
   -0.7310   -1.1703   -5.7575 S   0  0  0  0  0  0  0  0  0  0  0  0
   -0.9189    0.8158   -7.7274 C   0  0  0  0  0  0  0  0  0  0  0  0
    0.2459    1.3482   -8.1683 C   0  0  0  0  0  0  0  0  0  0  0  0
    0.3771    1.7226   -9.5935 C   0  0  0  0  0  0  0  0  0  0  0  0
   -0.6277    1.6382  -10.3568 O   0  0  0  0  0  0  0  0  0  0  0  0
    1.6388    2.1693  -10.1283 N   0  0  0  0  0  0  0  0  0  0  0  0
    1.7579    2.3631  -11.5866 C   0  0  0  0  0  0  0  0  0  0  0  0
    1.3525    3.7804  -11.9764 C   0  0  0  0  0  0  0  0  0  0  0  0
    2.7311    2.4888   -9.2306 C   0  0  0  0  0  0  0  0  0  0  0  0
    4.1244    3.1520   -9.8293 S   0  0  0  0  0  0  0  0  0  0  0  0
    2.6016    2.2394   -7.8078 N   0  0  0  0  0  0  0  0  0  0  0  0
    3.7000    2.5494   -6.8698 C   0  0  0  0  0  0  0  0  0  0  0  0
    4.6708    1.3727   -6.7750 C   0  0  0  0  0  0  0  0  0  0  0  0
    1.4263    1.5829   -7.2934 C   0  0  0  0  0  0  0  0  0  0  0  0
    1.4069    1.2177   -6.0836 O   0  0  0  0  0  0  0  0  0  0  0  0
   -0.5937    1.4225    9.4744 H   0  0  0  0  0  0  0  0  0  0  0  0
    3.8814    4.9276   11.4577 H   0  0  0  0  0  0  0  0  0  0  0  0
    2.2048    4.6341   11.9677 H   0  0  0  0  0  0  0  0  0  0  0  0
    4.5733    2.6741   12.2329 H   0  0  0  0  0  0  0  0  0  0  0  0
    2.8557    2.2178   12.5542 H   0  0  0  0  0  0  0  0  0  0  0  0
    3.6496    3.4936   13.5515 H   0  0  0  0  0  0  0  0  0  0  0  0
    4.9632    4.3075    6.9300 H   0  0  0  0  0  0  0  0  0  0  0  0
    3.6362    3.8964    5.8278 H   0  0  0  0  0  0  0  0  0  0  0  0
    5.6192    1.8684    7.0623 H   0  0  0  0  0  0  0  0  0  0  0  0
    5.6556    2.5113    5.3737 H   0  0  0  0  0  0  0  0  0  0  0  0
    4.2825    1.4722    5.9095 H   0  0  0  0  0  0  0  0  0  0  0  0
    1.3002   -0.7904    7.4617 H   0  0  0  0  0  0  0  0  0  0  0  0
   -4.2852    0.3489    4.1586 H   0  0  0  0  0  0  0  0  0  0  0  0
   -4.4843    0.5083    2.3845 H   0  0  0  0  0  0  0  0  0  0  0  0
   -4.6822   -1.4869    0.9566 H   0  0  0  0  0  0  0  0  0  0  0  0
   -5.0771   -3.9030    0.7712 H   0  0  0  0  0  0  0  0  0  0  0  0
   -4.3006   -6.3202    3.4567 H   0  0  0  0  0  0  0  0  0  0  0  0
   -4.7445   -6.1287    1.7341 H   0  0  0  0  0  0  0  0  0  0  0  0
   -6.5617   -7.2456    3.0067 H   0  0  0  0  0  0  0  0  0  0  0  0
   -6.6738   -5.8389    4.1350 H   0  0  0  0  0  0  0  0  0  0  0  0
   -7.1207   -5.6420    2.3894 H   0  0  0  0  0  0  0  0  0  0  0  0
   -4.4310   -4.3318    5.0151 H   0  0  0  0  0  0  0  0  0  0  0  0
   -4.0400   -1.9113    5.1980 H   0  0  0  0  0  0  0  0  0  0  0  0
    0.0881    1.1952    2.5040 H   0  0  0  0  0  0  0  0  0  0  0  0
    0.8285    3.5192    2.3869 H   0  0  0  0  0  0  0  0  0  0  0  0
   -1.4974    6.4685    2.6737 H   0  0  0  0  0  0  0  0  0  0  0  0
    0.0597    5.9220    1.9666 H   0  0  0  0  0  0  0  0  0  0  0  0
    0.3853    7.2250    4.0796 H   0  0  0  0  0  0  0  0  0  0  0  0
   -0.5931    6.0096    4.9921 H   0  0  0  0  0  0  0  0  0  0  0  0
    0.9958    5.5359    4.2552 H   0  0  0  0  0  0  0  0  0  0  0  0
   -3.1363    4.8431    3.4214 H   0  0  0  0  0  0  0  0  0  0  0  0
   -3.9008    2.5410    3.5115 H   0  0  0  0  0  0  0  0  0  0  0  0
   -2.6414    0.6483    0.2221 H   0  0  0  0  0  0  0  0  0  0  0  0
    0.3620   -3.9002    2.6070 H   0  0  0  0  0  0  0  0  0  0  0  0
    1.2888   -5.3534    0.8763 H   0  0  0  0  0  0  0  0  0  0  0  0
    0.9138   -4.8947   -1.4832 H   0  0  0  0  0  0  0  0  0  0  0  0
   -0.5466   -5.6729   -2.9824 H   0  0  0  0  0  0  0  0  0  0  0  0
   -2.3770   -7.2095   -3.4246 H   0  0  0  0  0  0  0  0  0  0  0  0
   -4.7911   -7.6447   -3.4422 H   0  0  0  0  0  0  0  0  0  0  0  0
   -5.9507   -6.2895   -3.3091 H   0  0  0  0  0  0  0  0  0  0  0  0
   -4.3658   -7.0692   -5.8462 H   0  0  0  0  0  0  0  0  0  0  0  0
   -6.1163   -7.3754   -5.5332 H   0  0  0  0  0  0  0  0  0  0  0  0
   -5.5210   -5.6819   -5.7173 H   0  0  0  0  0  0  0  0  0  0  0  0
   -5.1509   -3.9239   -3.5003 H   0  0  0  0  0  0  0  0  0  0  0  0
   -3.3589   -2.3729   -3.0364 H   0  0  0  0  0  0  0  0  0  0  0  0
    1.8841   -1.8338   -2.2266 H   0  0  0  0  0  0  0  0  0  0  0  0
    3.9377   -2.0612   -3.5271 H   0  0  0  0  0  0  0  0  0  0  0  0
    4.1180   -3.6560   -6.8919 H   0  0  0  0  0  0  0  0  0  0  0  0
    4.9436   -2.5547   -5.7493 H   0  0  0  0  0  0  0  0  0  0  0  0
    6.1299   -4.7121   -5.8035 H   0  0  0  0  0  0  0  0  0  0  0  0
    4.6047   -5.6100   -5.4464 H   0  0  0  0  0  0  0  0  0  0  0  0
    5.3414   -4.5341   -4.1905 H   0  0  0  0  0  0  0  0  0  0  0  0
    1.8841   -4.5635   -6.3625 H   0  0  0  0  0  0  0  0  0  0  0  0
   -0.1823   -4.3154   -5.1071 H   0  0  0  0  0  0  0  0  0  0  0  0
   -1.9277    2.2124   -5.4184 H   0  0  0  0  0  0  0  0  0  0  0  0
   -1.7426    0.6693   -8.4123 H   0  0  0  0  0  0  0  0  0  0  0  0
    2.7911    2.1527  -11.9378 H   0  0  0  0  0  0  0  0  0  0  0  0
    1.1096    1.6368  -12.1293 H   0  0  0  0  0  0  0  0  0  0  0  0
    1.4753    3.9168  -13.0708 H   0  0  0  0  0  0  0  0  0  0  0  0
    0.2897    3.9625  -11.7114 H   0  0  0  0  0  0  0  0  0  0  0  0
    1.9868    4.5264  -11.4507 H   0  0  0  0  0  0  0  0  0  0  0  0
    3.3012    2.7746   -5.8558 H   0  0  0  0  0  0  0  0  0  0  0  0
    4.2455    3.4674   -7.1753 H   0  0  0  0  0  0  0  0  0  0  0  0
    5.5236    1.6437   -6.1179 H   0  0  0  0  0  0  0  0  0  0  0  0
    4.1555    0.4888   -6.3482 H   0  0  0  0  0  0  0  0  0  0  0  0
    5.0597    1.1147   -7.7809 H   0  0  0  0  0  0  0  0  0  0  0  0
  1  2  2  3
  2  3  1  0
  3  4  2  0
  3  5  1  0
  5  6  1  0
  6  7  1  0
  5  8  1  0
  8  9  2  0
  8 10  1  0
 10 11  1  0
 11 12  1  0
 10 13  1  0
 13 14  2  0
  1 15  1  0
 15 16  2  0
 16 17  1  0
 17 18  1  0
 18 19  1  0
 19 20  1  0
 20 21  2  0
 21 22  1  0
 22 23  1  0
 23 24  1  0
 24 25  2  0
 25 26  1  0
 26 27  2  0
 27 28  1  0
 28 29  1  0
 27 30  1  0
 30 31  2  0
 22 32  1  0
 32 33  2  0
 33 34  1  0
 34 35  2  0
 35 36  1  0
 36 37  1  0
 35 38  1  0
 38 39  2  0
 22 40  1  0
 40 41  1  0
 41 42  1  0
 21 43  1  0
 43 44  2  0
 44 45  1  0
 45 46  2  0
 46 47  1  0
 47 48  1  0
 48 49  1  0
 49 50  2  0
 50 51  1  0
 51 52  2  0
 52 53  1  0
 47 54  1  0
 54 55  2  0
 55 56  1  0
 56 57  2  0
 57 58  1  0
 58 59  1  0
 57 60  1  0
 60 61  2  0
 47 62  1  0
 62 63  2  0
 63 64  1  0
 64 65  2  0
 65 66  1  0
 66 67  1  0
 65 68  1  0
 68 69  2  0
 46 70  1  0
 70 71  2  0
 71 72  1  0
 71 73  1  0
 73 74  2  0
 74 75  1  0
 74 76  1  0
 76 77  2  3
 77 78  1  0
 78 79  2  0
 78 80  1  0
 80 81  1  0
 81 82  1  0
 80 83  1  0
 83 84  2  0
 83 85  1  0
 85 86  1  0
 86 87  1  0
 85 88  1  0
 88 89  2  0
 13  2  1  0
 42 15  1  0
 49 44  1  0
 61 54  1  0
 69 62  1  0
 75 70  1  0
 88 77  1  0
 41 17  2  0
 72 45  1  0
 40 19  2  0
 53 48  2  0
 50 20  1  0
 31 24  1  0
 39 32  1  0
  1 90  1  0
  6 91  1  0
  6 92  1  0
  7 93  1  0
  7 94  1  0
  7 95  1  0
 11 96  1  0
 11 97  1  0
 12 98  1  0
 12 99  1  0
 12100  1  0
 16101  1  0
 23102  1  0
 23103  1  0
 25104  1  0
 26105  1  0
 28106  1  0
 28107  1  0
 29108  1  0
 29109  1  0
 29110  1  0
 30111  1  0
 31112  1  0
 33113  1  0
 34114  1  0
 36115  1  0
 36116  1  0
 37117  1  0
 37118  1  0
 37119  1  0
 38120  1  0
 39121  1  0
 43122  1  0
 51123  1  0
 52124  1  0
 53125  1  0
 55126  1  0
 56127  1  0
 58128  1  0
 58129  1  0
 59130  1  0
 59131  1  0
 59132  1  0
 60133  1  0
 61134  1  0
 63135  1  0
 64136  1  0
 66137  1  0
 66138  1  0
 67139  1  0
 67140  1  0
 67141  1  0
 68142  1  0
 69143  1  0
 73144  1  0
 76145  1  0
 81146  1  0
 81147  1  0
 82148  1  0
 82149  1  0
 82150  1  0
 86151  1  0
 86152  1  0
 87153  1  0
 87154  1  0
 87155  1  0
M  END

