
     RDKit          3D

164180  0  0  0  0  0  0  0  0999 V2000
    3.3752   -6.0109   -2.8806 C   0  0  0  0  0  0  0  0  0  0  0  0
    4.5955   -5.4495   -2.9007 C   0  0  0  0  0  0  0  0  0  0  0  0
    4.8777   -4.0130   -2.7488 C   0  0  0  0  0  0  0  0  0  0  0  0
    4.0880   -3.1332   -2.3165 O   0  0  0  0  0  0  0  0  0  0  0  0
    6.2168   -3.7518   -3.2290 C   0  0  0  0  0  0  0  0  0  0  0  0
    6.8085   -4.9470   -3.6115 C   0  0  0  0  0  0  0  0  0  0  0  0
    8.0766   -4.9361   -4.2234 C   0  0  0  0  0  0  0  0  0  0  0  0
    8.7477   -3.7074   -4.3754 C   0  0  0  0  0  0  0  0  0  0  0  0
    9.9676   -3.6776   -4.9642 F   0  0  0  0  0  0  0  0  0  0  0  0
    8.1452   -2.5083   -3.9559 C   0  0  0  0  0  0  0  0  0  0  0  0
    8.7881   -1.3275   -4.1366 F   0  0  0  0  0  0  0  0  0  0  0  0
    6.8645   -2.5256   -3.3807 C   0  0  0  0  0  0  0  0  0  0  0  0
    6.2750   -1.3687   -2.9971 F   0  0  0  0  0  0  0  0  0  0  0  0
    5.8801   -6.0796   -3.3248 C   0  0  0  0  0  0  0  0  0  0  0  0
    6.2176   -7.3918   -3.2023 C   0  0  0  0  0  0  0  0  0  0  0  0
    5.3189   -8.3677   -2.6468 C   0  0  0  0  0  0  0  0  0  0  0  0
    4.5977   -9.1542   -2.2031 N   0  0  0  0  0  0  0  0  0  0  0  0
    7.5419   -7.8813   -3.4862 C   0  0  0  0  0  0  0  0  0  0  0  0
    8.6002   -8.2972   -3.7067 N   0  0  0  0  0  0  0  0  0  0  0  0
    2.1755   -5.2552   -2.5013 C   0  0  0  0  0  0  0  0  0  0  0  0
    1.7546   -5.0611   -1.1830 C   0  0  0  0  0  0  0  0  0  0  0  0
    0.7586   -4.0965   -1.1305 C   0  0  0  0  0  0  0  0  0  0  0  0
   -0.0077   -3.2880    0.1442 S   0  0  0  0  0  0  0  0  0  0  0  0
   -0.8077   -2.2140   -0.9027 C   0  0  0  0  0  0  0  0  0  0  0  0
   -1.2683   -0.8382   -0.7643 C   0  0  0  0  0  0  0  0  0  0  0  0
   -1.7507   -0.1347    0.3540 C   0  0  0  0  0  0  0  0  0  0  0  0
   -2.0659   -0.8729    1.5850 C   0  0  0  0  0  0  0  0  0  0  0  0
   -1.0973   -1.3514    2.4546 C   0  0  0  0  0  0  0  0  0  0  0  0
   -1.5916   -2.2718    3.3815 C   0  0  0  0  0  0  0  0  0  0  0  0
   -2.9360   -2.5514    3.2022 C   0  0  0  0  0  0  0  0  0  0  0  0
   -3.6866   -3.6579    3.8785 C   0  0  0  0  0  0  0  0  0  0  0  0
   -3.2918   -5.0037    3.2800 C   0  0  0  0  0  0  0  0  0  0  0  0
   -3.5187   -1.6567    1.8964 S   0  0  0  0  0  0  0  0  0  0  0  0
   -1.7112    1.2838    0.2578 C   0  0  0  0  0  0  0  0  0  0  0  0
   -2.1917    2.4114    1.1923 C   0  0  0  0  0  0  0  0  0  0  0  0
   -3.3264    3.2546    0.5580 C   0  0  0  0  0  0  0  0  0  0  0  0
   -3.8951    2.9294   -0.6960 C   0  0  0  0  0  0  0  0  0  0  0  0
   -4.7092    3.8512   -1.3731 C   0  0  0  0  0  0  0  0  0  0  0  0
   -5.0054    5.1009   -0.7922 C   0  0  0  0  0  0  0  0  0  0  0  0
   -5.7850    6.1229   -1.5687 C   0  0  0  0  0  0  0  0  0  0  0  0
   -4.8428    7.0151   -2.3766 C   0  0  0  0  0  0  0  0  0  0  0  0
   -4.5052    5.3928    0.4853 C   0  0  0  0  0  0  0  0  0  0  0  0
   -3.6774    4.4876    1.1460 C   0  0  0  0  0  0  0  0  0  0  0  0
   -2.5481    1.9404    2.6039 C   0  0  0  0  0  0  0  0  0  0  0  0
   -3.9017    1.8268    3.0137 C   0  0  0  0  0  0  0  0  0  0  0  0
   -4.2254    1.3909    4.3062 C   0  0  0  0  0  0  0  0  0  0  0  0
   -3.2115    1.0127    5.1971 C   0  0  0  0  0  0  0  0  0  0  0  0
   -3.5614    0.4668    6.5517 C   0  0  0  0  0  0  0  0  0  0  0  0
   -3.6896   -1.0491    6.4857 C   0  0  0  0  0  0  0  0  0  0  0  0
   -1.8793    1.0524    4.7704 C   0  0  0  0  0  0  0  0  0  0  0  0
   -1.5543    1.4796    3.4814 C   0  0  0  0  0  0  0  0  0  0  0  0
   -0.9723    3.2979    1.0635 C   0  0  0  0  0  0  0  0  0  0  0  0
   -0.2933    3.0513   -0.1173 C   0  0  0  0  0  0  0  0  0  0  0  0
   -0.8576    1.8411   -0.7015 C   0  0  0  0  0  0  0  0  0  0  0  0
   -0.5164    1.1463   -1.8843 C   0  0  0  0  0  0  0  0  0  0  0  0
   -0.9605   -0.2017   -1.9699 C   0  0  0  0  0  0  0  0  0  0  0  0
   -0.8690   -1.2695   -3.0722 C   0  0  0  0  0  0  0  0  0  0  0  0
   -2.2618   -1.7651   -3.5232 C   0  0  0  0  0  0  0  0  0  0  0  0
   -3.4598   -1.1417   -3.1259 C   0  0  0  0  0  0  0  0  0  0  0  0
   -4.6991   -1.7277   -3.4081 C   0  0  0  0  0  0  0  0  0  0  0  0
   -4.7682   -2.9525   -4.0868 C   0  0  0  0  0  0  0  0  0  0  0  0
   -6.0971   -3.6342   -4.3003 C   0  0  0  0  0  0  0  0  0  0  0  0
   -6.6251   -4.2201   -3.0009 C   0  0  0  0  0  0  0  0  0  0  0  0
   -3.5849   -3.5444   -4.5469 C   0  0  0  0  0  0  0  0  0  0  0  0
   -2.3531   -2.9464   -4.2876 C   0  0  0  0  0  0  0  0  0  0  0  0
   -0.0608   -0.8474   -4.3008 C   0  0  0  0  0  0  0  0  0  0  0  0
   -0.7146   -0.1295   -5.3236 C   0  0  0  0  0  0  0  0  0  0  0  0
   -0.0642    0.1901   -6.5108 C   0  0  0  0  0  0  0  0  0  0  0  0
    1.2659   -0.2044   -6.7194 C   0  0  0  0  0  0  0  0  0  0  0  0
    1.9622    0.1419   -8.0074 C   0  0  0  0  0  0  0  0  0  0  0  0
    1.3212   -0.5662   -9.1976 C   0  0  0  0  0  0  0  0  0  0  0  0
    1.9645   -0.8210   -5.6595 C   0  0  0  0  0  0  0  0  0  0  0  0
    1.3111   -1.1148   -4.4487 C   0  0  0  0  0  0  0  0  0  0  0  0
   -0.3808   -2.3991   -2.1947 C   0  0  0  0  0  0  0  0  0  0  0  0
    0.4469   -3.5152   -2.3210 C   0  0  0  0  0  0  0  0  0  0  0  0
    1.3286   -4.2239   -3.5569 S   0  0  0  0  0  0  0  0  0  0  0  0
    0.3574    1.7867   -2.8756 C   0  0  0  0  0  0  0  0  0  0  0  0
   -0.0333    2.7806   -3.7635 C   0  0  0  0  0  0  0  0  0  0  0  0
    1.0411    3.3310   -4.4784 C   0  0  0  0  0  0  0  0  0  0  0  0
    2.2721    2.8003   -4.1100 C   0  0  0  0  0  0  0  0  0  0  0  0
    3.6061    3.1561   -4.7147 C   0  0  0  0  0  0  0  0  0  0  0  0
    3.7043    2.6391   -6.1460 C   0  0  0  0  0  0  0  0  0  0  0  0
    2.0332    1.6355   -2.9243 S   0  0  0  0  0  0  0  0  0  0  0  0
    1.3429    3.4745    0.0718 S   0  0  0  0  0  0  0  0  0  0  0  0
    1.1131    4.1158    1.6215 C   0  0  0  0  0  0  0  0  0  0  0  0
    2.0009    4.4800    2.6357 C   0  0  0  0  0  0  0  0  0  0  0  0
    1.3160    4.6053    3.8554 C   0  0  0  0  0  0  0  0  0  0  0  0
   -0.3461    4.3163    3.6460 S   0  0  0  0  0  0  0  0  0  0  0  0
   -0.1855    3.9630    2.0070 C   0  0  0  0  0  0  0  0  0  0  0  0
    1.9333    4.8454    5.1699 C   0  0  0  0  0  0  0  0  0  0  0  0
    2.1547    3.8790    6.0866 C   0  0  0  0  0  0  0  0  0  0  0  0
    1.7886    2.4626    5.9519 C   0  0  0  0  0  0  0  0  0  0  0  0
    1.5403    1.8544    4.8751 O   0  0  0  0  0  0  0  0  0  0  0  0
    1.7446    1.8835    7.2832 C   0  0  0  0  0  0  0  0  0  0  0  0
    1.3334    0.5977    7.6812 C   0  0  0  0  0  0  0  0  0  0  0  0
    1.0023   -0.6841    6.5229 Cl  0  0  0  0  0  0  0  0  0  0  0  0
    1.2472    0.3153    9.0483 C   0  0  0  0  0  0  0  0  0  0  0  0
    1.5537    1.3042    9.9970 C   0  0  0  0  0  0  0  0  0  0  0  0
    1.9886    2.5717    9.5846 C   0  0  0  0  0  0  0  0  0  0  0  0
    2.1072    2.8455    8.2061 C   0  0  0  0  0  0  0  0  0  0  0  0
    2.5299    4.0901    7.5150 C   0  0  0  0  0  0  0  0  0  0  0  0
    3.3526    5.0539    8.0051 C   0  0  0  0  0  0  0  0  0  0  0  0
    3.9331    6.0623    7.1510 C   0  0  0  0  0  0  0  0  0  0  0  0
    4.3686    6.8717    6.4525 N   0  0  0  0  0  0  0  0  0  0  0  0
    3.7440    5.1024    9.3914 C   0  0  0  0  0  0  0  0  0  0  0  0
    4.0981    5.1407   10.4958 N   0  0  0  0  0  0  0  0  0  0  0  0
    3.2272   -7.0240   -3.2134 H   0  0  0  0  0  0  0  0  0  0  0  0
    8.5289   -5.8274   -4.6325 H   0  0  0  0  0  0  0  0  0  0  0  0
    2.1891   -5.5494   -0.3171 H   0  0  0  0  0  0  0  0  0  0  0  0
   -0.0514   -1.0857    2.3932 H   0  0  0  0  0  0  0  0  0  0  0  0
   -0.9690   -2.7806    4.1074 H   0  0  0  0  0  0  0  0  0  0  0  0
   -3.4442   -3.6532    4.9639 H   0  0  0  0  0  0  0  0  0  0  0  0
   -4.7797   -3.5013    3.7677 H   0  0  0  0  0  0  0  0  0  0  0  0
   -3.5092   -5.0266    2.1851 H   0  0  0  0  0  0  0  0  0  0  0  0
   -2.2067   -5.1859    3.4385 H   0  0  0  0  0  0  0  0  0  0  0  0
   -3.8614   -5.8187    3.7813 H   0  0  0  0  0  0  0  0  0  0  0  0
   -3.6754    1.9998   -1.1968 H   0  0  0  0  0  0  0  0  0  0  0  0
   -5.0713    3.6162   -2.3653 H   0  0  0  0  0  0  0  0  0  0  0  0
   -6.4960    5.6263   -2.2702 H   0  0  0  0  0  0  0  0  0  0  0  0
   -6.3832    6.7549   -0.8823 H   0  0  0  0  0  0  0  0  0  0  0  0
   -4.2937    6.4056   -3.1260 H   0  0  0  0  0  0  0  0  0  0  0  0
   -4.1050    7.5085   -1.7002 H   0  0  0  0  0  0  0  0  0  0  0  0
   -5.4252    7.7980   -2.9028 H   0  0  0  0  0  0  0  0  0  0  0  0
   -4.7385    6.3397    0.9500 H   0  0  0  0  0  0  0  0  0  0  0  0
   -3.2593    4.7683    2.1017 H   0  0  0  0  0  0  0  0  0  0  0  0
   -4.7146    2.0808    2.3453 H   0  0  0  0  0  0  0  0  0  0  0  0
   -5.2700    1.3145    4.5858 H   0  0  0  0  0  0  0  0  0  0  0  0
   -4.5266    0.9017    6.8997 H   0  0  0  0  0  0  0  0  0  0  0  0
   -2.7763    0.7454    7.2870 H   0  0  0  0  0  0  0  0  0  0  0  0
   -4.4629   -1.3351    5.7391 H   0  0  0  0  0  0  0  0  0  0  0  0
   -3.9849   -1.4450    7.4777 H   0  0  0  0  0  0  0  0  0  0  0  0
   -2.7189   -1.5021    6.1918 H   0  0  0  0  0  0  0  0  0  0  0  0
   -1.0987    0.7040    5.4235 H   0  0  0  0  0  0  0  0  0  0  0  0
   -0.5174    1.4566    3.1822 H   0  0  0  0  0  0  0  0  0  0  0  0
   -3.4522   -0.2182   -2.5625 H   0  0  0  0  0  0  0  0  0  0  0  0
   -5.6022   -1.2342   -3.0582 H   0  0  0  0  0  0  0  0  0  0  0  0
   -6.8211   -2.9164   -4.7243 H   0  0  0  0  0  0  0  0  0  0  0  0
   -5.9941   -4.4471   -5.0446 H   0  0  0  0  0  0  0  0  0  0  0  0
   -6.6599   -3.4167   -2.2291 H   0  0  0  0  0  0  0  0  0  0  0  0
   -5.9606   -5.0507   -2.6677 H   0  0  0  0  0  0  0  0  0  0  0  0
   -7.6553   -4.6214   -3.1487 H   0  0  0  0  0  0  0  0  0  0  0  0
   -3.6103   -4.5007   -5.0707 H   0  0  0  0  0  0  0  0  0  0  0  0
   -1.4526   -3.4359   -4.6339 H   0  0  0  0  0  0  0  0  0  0  0  0
   -1.7444    0.1849   -5.2032 H   0  0  0  0  0  0  0  0  0  0  0  0
   -0.6021    0.7263   -7.2771 H   0  0  0  0  0  0  0  0  0  0  0  0
    3.0362   -0.1441   -7.9680 H   0  0  0  0  0  0  0  0  0  0  0  0
    1.9140    1.2420   -8.1707 H   0  0  0  0  0  0  0  0  0  0  0  0
    1.3148   -1.6672   -9.0342 H   0  0  0  0  0  0  0  0  0  0  0  0
    1.9024   -0.3569  -10.1217 H   0  0  0  0  0  0  0  0  0  0  0  0
    0.2811   -0.2057   -9.3509 H   0  0  0  0  0  0  0  0  0  0  0  0
    3.0125   -1.0663   -5.7632 H   0  0  0  0  0  0  0  0  0  0  0  0
    1.8873   -1.5248   -3.6350 H   0  0  0  0  0  0  0  0  0  0  0  0
   -1.0575    3.0989   -3.9036 H   0  0  0  0  0  0  0  0  0  0  0  0
    0.9269    4.0982   -5.2303 H   0  0  0  0  0  0  0  0  0  0  0  0
    3.7435    4.2565   -4.6937 H   0  0  0  0  0  0  0  0  0  0  0  0
    4.4155    2.6961   -4.1101 H   0  0  0  0  0  0  0  0  0  0  0  0
    4.6733    2.9629   -6.5915 H   0  0  0  0  0  0  0  0  0  0  0  0
    2.8890    3.0560   -6.7721 H   0  0  0  0  0  0  0  0  0  0  0  0
    3.6640    1.5324   -6.1620 H   0  0  0  0  0  0  0  0  0  0  0  0
    3.0754    4.5682    2.5164 H   0  0  0  0  0  0  0  0  0  0  0  0
    2.0816    5.8747    5.4252 H   0  0  0  0  0  0  0  0  0  0  0  0
    0.9462   -0.6692    9.3822 H   0  0  0  0  0  0  0  0  0  0  0  0
    1.4690    1.0712   11.0494 H   0  0  0  0  0  0  0  0  0  0  0  0
    2.1835    3.3115   10.3422 H   0  0  0  0  0  0  0  0  0  0  0  0
  1  2  2  3
  2  3  1  0
  3  4  2  0
  3  5  1  0
  5  6  2  0
  6  7  1  0
  7  8  2  0
  8  9  1  0
  8 10  1  0
 10 11  1  0
 10 12  2  0
 12 13  1  0
  6 14  1  0
 14 15  2  3
 15 16  1  0
 16 17  3  0
 15 18  1  0
 18 19  3  0
  1 20  1  0
 20 21  2  0
 21 22  1  0
 22 23  1  0
 23 24  1  0
 24 25  1  0
 25 26  2  0
 26 27  1  0
 27 28  2  0
 28 29  1  0
 29 30  2  0
 30 31  1  0
 31 32  1  0
 30 33  1  0
 26 34  1  0
 34 35  1  0
 35 36  1  0
 36 37  2  0
 37 38  1  0
 38 39  2  0
 39 40  1  0
 40 41  1  0
 39 42  1  0
 42 43  2  0
 35 44  1  0
 44 45  2  0
 45 46  1  0
 46 47  2  0
 47 48  1  0
 48 49  1  0
 47 50  1  0
 50 51  2  0
 35 52  1  0
 52 53  2  0
 53 54  1  0
 54 55  1  0
 55 56  2  0
 56 57  1  0
 57 58  1  0
 58 59  2  0
 59 60  1  0
 60 61  2  0
 61 62  1  0
 62 63  1  0
 61 64  1  0
 64 65  2  0
 57 66  1  0
 66 67  2  0
 67 68  1  0
 68 69  2  0
 69 70  1  0
 70 71  1  0
 69 72  1  0
 72 73  2  0
 57 74  1  0
 74 75  1  0
 75 76  1  0
 55 77  1  0
 77 78  2  0
 78 79  1  0
 79 80  2  0
 80 81  1  0
 81 82  1  0
 80 83  1  0
 53 84  1  0
 84 85  1  0
 85 86  1  0
 86 87  2  0
 87 88  1  0
 88 89  1  0
 87 90  1  0
 90 91  2  3
 91 92  1  0
 92 93  2  0
 92 94  1  0
 94 95  2  0
 95 96  1  0
 95 97  1  0
 97 98  2  0
 98 99  1  0
 99100  2  0
100101  1  0
101102  2  3
102103  1  0
103104  3  0
102105  1  0
105106  3  0
 14  2  1  0
 76 20  1  0
 83 77  1  0
 89 85  2  0
101 91  1  0
 12  5  1  0
 75 22  2  0
100 94  1  0
 74 24  2  0
 56 25  1  0
 65 58  1  0
 73 66  1  0
 33 27  1  0
 54 34  2  0
 43 36  1  0
 51 44  1  0
 89 52  1  0
  1107  1  0
  7108  1  0
 21109  1  0
 28110  1  0
 29111  1  0
 31112  1  0
 31113  1  0
 32114  1  0
 32115  1  0
 32116  1  0
 37117  1  0
 38118  1  0
 40119  1  0
 40120  1  0
 41121  1  0
 41122  1  0
 41123  1  0
 42124  1  0
 43125  1  0
 45126  1  0
 46127  1  0
 48128  1  0
 48129  1  0
 49130  1  0
 49131  1  0
 49132  1  0
 50133  1  0
 51134  1  0
 59135  1  0
 60136  1  0
 62137  1  0
 62138  1  0
 63139  1  0
 63140  1  0
 63141  1  0
 64142  1  0
 65143  1  0
 67144  1  0
 68145  1  0
 70146  1  0
 70147  1  0
 71148  1  0
 71149  1  0
 71150  1  0
 72151  1  0
 73152  1  0
 78153  1  0
 79154  1  0
 81155  1  0
 81156  1  0
 82157  1  0
 82158  1  0
 82159  1  0
 86160  1  0
 90161  1  0
 97162  1  0
 98163  1  0
 99164  1  0
M  END

