
     RDKit          3D

117130  0  0  0  0  0  0  0  0999 V2000
   -3.0920   -4.5347    4.5668 C   0  0  0  0  0  0  0  0  0  0  0  0
   -1.7497   -4.4934    4.6975 C   0  0  0  0  0  0  0  0  0  0  0  0
   -0.8660   -3.4742    4.1126 C   0  0  0  0  0  0  0  0  0  0  0  0
   -1.1562   -2.6539    3.2054 O   0  0  0  0  0  0  0  0  0  0  0  0
    0.3917   -3.4954    4.8256 C   0  0  0  0  0  0  0  0  0  0  0  0
    0.3636   -4.4932    5.7859 C   0  0  0  0  0  0  0  0  0  0  0  0
    1.4347   -4.6203    6.6858 C   0  0  0  0  0  0  0  0  0  0  0  0
    2.5364   -3.7551    6.5657 C   0  0  0  0  0  0  0  0  0  0  0  0
    3.5797   -3.8754    7.4222 F   0  0  0  0  0  0  0  0  0  0  0  0
    2.5556   -2.7578    5.5762 C   0  0  0  0  0  0  0  0  0  0  0  0
    3.6147   -1.9144    5.4822 F   0  0  0  0  0  0  0  0  0  0  0  0
    1.4692   -2.6147    4.7027 C   0  0  0  0  0  0  0  0  0  0  0  0
    1.4589   -1.6233    3.7795 F   0  0  0  0  0  0  0  0  0  0  0  0
   -0.9228   -5.2424    5.6929 C   0  0  0  0  0  0  0  0  0  0  0  0
   -1.1986   -6.4629    6.2220 C   0  0  0  0  0  0  0  0  0  0  0  0
   -0.2912   -7.1562    7.0964 C   0  0  0  0  0  0  0  0  0  0  0  0
    0.4326   -7.7247    7.8006 N   0  0  0  0  0  0  0  0  0  0  0  0
   -2.3736   -7.2113    5.8499 C   0  0  0  0  0  0  0  0  0  0  0  0
   -3.3121   -7.8224    5.5561 N   0  0  0  0  0  0  0  0  0  0  0  0
   -3.8293   -3.6358    3.6676 C   0  0  0  0  0  0  0  0  0  0  0  0
   -4.4790   -2.4623    4.0826 C   0  0  0  0  0  0  0  0  0  0  0  0
   -4.6686   -2.0640    5.4911 C   0  0  0  0  0  0  0  0  0  0  0  0
   -5.7073   -2.6789    6.2052 C   0  0  0  0  0  0  0  0  0  0  0  0
   -5.9890   -2.3023    7.5183 C   0  0  0  0  0  0  0  0  0  0  0  0
   -5.2379   -1.3005    8.1329 C   0  0  0  0  0  0  0  0  0  0  0  0
   -4.1976   -0.6808    7.4392 C   0  0  0  0  0  0  0  0  0  0  0  0
   -3.8806   -1.0650    6.1215 C   0  0  0  0  0  0  0  0  0  0  0  0
   -2.7186   -0.3833    5.4249 C   0  0  0  0  0  0  0  0  0  0  0  0
   -1.4017   -0.6063    6.1702 C   0  0  0  0  0  0  0  0  0  0  0  0
   -4.8397   -1.6754    2.9904 C   0  0  0  0  0  0  0  0  0  0  0  0
   -5.2088   -0.0130    2.8626 S   0  0  0  0  0  0  0  0  0  0  0  0
   -4.9480   -0.0616    1.1862 C   0  0  0  0  0  0  0  0  0  0  0  0
   -4.5814    0.8292    0.2156 C   0  0  0  0  0  0  0  0  0  0  0  0
   -4.6352    2.2229    0.1768 C   0  0  0  0  0  0  0  0  0  0  0  0
   -4.0590    2.8954   -0.9381 C   0  0  0  0  0  0  0  0  0  0  0  0
   -4.1023    4.2509   -0.9234 N   0  0  0  0  0  0  0  0  0  0  0  0
   -4.8938    4.4940    0.5100 S   0  0  0  0  0  0  0  0  0  0  0  0
   -5.1873    2.9931    1.1459 N   0  0  0  0  0  0  0  0  0  0  0  0
   -3.4127    2.1392   -1.9267 C   0  0  0  0  0  0  0  0  0  0  0  0
   -2.5070    2.5466   -2.8635 C   0  0  0  0  0  0  0  0  0  0  0  0
   -1.6375    3.9885   -3.0910 S   0  0  0  0  0  0  0  0  0  0  0  0
   -0.3481    3.1537   -3.8115 C   0  0  0  0  0  0  0  0  0  0  0  0
    0.9433    3.5403   -4.1708 C   0  0  0  0  0  0  0  0  0  0  0  0
    1.4708    4.9040   -4.0004 C   0  0  0  0  0  0  0  0  0  0  0  0
    1.4278    5.8606   -5.0439 C   0  0  0  0  0  0  0  0  0  0  0  0
    0.8029    5.5574   -6.3872 C   0  0  0  0  0  0  0  0  0  0  0  0
   -0.6670    5.9607   -6.4070 C   0  0  0  0  0  0  0  0  0  0  0  0
    1.9392    7.1504   -4.8083 C   0  0  0  0  0  0  0  0  0  0  0  0
    2.5079    7.4757   -3.5736 C   0  0  0  0  0  0  0  0  0  0  0  0
    2.5668    6.5212   -2.5583 C   0  0  0  0  0  0  0  0  0  0  0  0
    2.0534    5.2428   -2.7680 C   0  0  0  0  0  0  0  0  0  0  0  0
    1.7309    2.4283   -4.5068 C   0  0  0  0  0  0  0  0  0  0  0  0
    0.8398    1.0030   -4.2458 S   0  0  0  0  0  0  0  0  0  0  0  0
   -0.5703    1.7997   -3.8047 C   0  0  0  0  0  0  0  0  0  0  0  0
   -1.8027    1.4433   -3.2492 C   0  0  0  0  0  0  0  0  0  0  0  0
   -2.2123    0.3129   -2.6098 N   0  0  0  0  0  0  0  0  0  0  0  0
   -3.2678    0.7411   -1.8319 C   0  0  0  0  0  0  0  0  0  0  0  0
   -3.9579    0.0672   -0.7851 C   0  0  0  0  0  0  0  0  0  0  0  0
   -4.0198   -1.2668   -0.4812 N   0  0  0  0  0  0  0  0  0  0  0  0
   -4.5818   -1.2902    0.7481 C   0  0  0  0  0  0  0  0  0  0  0  0
   -4.5158   -2.2158    1.7708 C   0  0  0  0  0  0  0  0  0  0  0  0
   -3.7172   -3.6778    1.9637 S   0  0  0  0  0  0  0  0  0  0  0  0
   -4.0122   -2.4009   -1.4120 C   0  0  0  0  0  0  0  0  0  0  0  0
   -5.3922   -3.0554   -1.5096 C   0  0  0  0  0  0  0  0  0  0  0  0
   -1.3339   -0.8417   -2.3722 C   0  0  0  0  0  0  0  0  0  0  0  0
   -1.2451   -1.7417   -3.6055 C   0  0  0  0  0  0  0  0  0  0  0  0
    3.1795    2.4589   -4.7613 C   0  0  0  0  0  0  0  0  0  0  0  0
    3.7696    1.8073   -5.7820 C   0  0  0  0  0  0  0  0  0  0  0  0
    3.0822    1.0172   -6.8101 C   0  0  0  0  0  0  0  0  0  0  0  0
    1.8622    1.0863   -7.1164 O   0  0  0  0  0  0  0  0  0  0  0  0
    4.0603    0.1850   -7.4713 C   0  0  0  0  0  0  0  0  0  0  0  0
    3.8427   -0.7946   -8.4389 C   0  0  0  0  0  0  0  0  0  0  0  0
    4.9399   -1.5397   -8.8919 C   0  0  0  0  0  0  0  0  0  0  0  0
    6.2217   -1.3084   -8.3609 C   0  0  0  0  0  0  0  0  0  0  0  0
    7.5795   -2.2726   -8.9099 Cl  0  0  0  0  0  0  0  0  0  0  0  0
    6.4179   -0.3155   -7.3865 C   0  0  0  0  0  0  0  0  0  0  0  0
    5.3207    0.4550   -6.9649 C   0  0  0  0  0  0  0  0  0  0  0  0
    5.2349    1.5699   -5.9778 C   0  0  0  0  0  0  0  0  0  0  0  0
    6.2580    2.3502   -5.5421 C   0  0  0  0  0  0  0  0  0  0  0  0
    6.0439    3.5773   -4.8163 C   0  0  0  0  0  0  0  0  0  0  0  0
    5.8797    4.5654   -4.2366 N   0  0  0  0  0  0  0  0  0  0  0  0
    7.6321    2.0856   -5.8805 C   0  0  0  0  0  0  0  0  0  0  0  0
    8.7422    1.8842   -6.1443 N   0  0  0  0  0  0  0  0  0  0  0  0
   -3.6863   -5.1353    5.2299 H   0  0  0  0  0  0  0  0  0  0  0  0
    1.4294   -5.3364    7.4902 H   0  0  0  0  0  0  0  0  0  0  0  0
   -6.3148   -3.4455    5.7364 H   0  0  0  0  0  0  0  0  0  0  0  0
   -6.8010   -2.7778    8.0552 H   0  0  0  0  0  0  0  0  0  0  0  0
   -5.4647   -1.0020    9.1488 H   0  0  0  0  0  0  0  0  0  0  0  0
   -3.6321    0.0971    7.9370 H   0  0  0  0  0  0  0  0  0  0  0  0
   -2.5850   -0.7568    4.3909 H   0  0  0  0  0  0  0  0  0  0  0  0
   -2.9201    0.7047    5.3471 H   0  0  0  0  0  0  0  0  0  0  0  0
   -0.5538   -0.2614    5.5397 H   0  0  0  0  0  0  0  0  0  0  0  0
   -1.3848   -0.0245    7.1164 H   0  0  0  0  0  0  0  0  0  0  0  0
   -1.2605   -1.6831    6.4053 H   0  0  0  0  0  0  0  0  0  0  0  0
    0.8970    4.4798   -6.6390 H   0  0  0  0  0  0  0  0  0  0  0  0
    1.3416    6.1150   -7.1830 H   0  0  0  0  0  0  0  0  0  0  0  0
   -1.2471    5.3425   -5.6898 H   0  0  0  0  0  0  0  0  0  0  0  0
   -1.0842    5.8029   -7.4258 H   0  0  0  0  0  0  0  0  0  0  0  0
   -0.7787    7.0332   -6.1401 H   0  0  0  0  0  0  0  0  0  0  0  0
    1.8942    7.9067   -5.5826 H   0  0  0  0  0  0  0  0  0  0  0  0
    2.9018    8.4692   -3.4071 H   0  0  0  0  0  0  0  0  0  0  0  0
    3.0120    6.7746   -1.6041 H   0  0  0  0  0  0  0  0  0  0  0  0
    2.1008    4.5139   -1.9681 H   0  0  0  0  0  0  0  0  0  0  0  0
   -3.7694   -2.0491   -2.4266 H   0  0  0  0  0  0  0  0  0  0  0  0
   -3.2652   -3.1556   -1.0848 H   0  0  0  0  0  0  0  0  0  0  0  0
   -6.1501   -2.3014   -1.8185 H   0  0  0  0  0  0  0  0  0  0  0  0
   -5.3642   -3.8719   -2.2642 H   0  0  0  0  0  0  0  0  0  0  0  0
   -5.6852   -3.4969   -0.5354 H   0  0  0  0  0  0  0  0  0  0  0  0
   -0.3175   -0.4864   -2.1039 H   0  0  0  0  0  0  0  0  0  0  0  0
   -1.6566   -1.4242   -1.4908 H   0  0  0  0  0  0  0  0  0  0  0  0
   -2.2438   -2.0434   -3.9730 H   0  0  0  0  0  0  0  0  0  0  0  0
   -0.6641   -2.6560   -3.3591 H   0  0  0  0  0  0  0  0  0  0  0  0
   -0.7372   -1.2212   -4.4422 H   0  0  0  0  0  0  0  0  0  0  0  0
    3.7639    2.9733   -4.0189 H   0  0  0  0  0  0  0  0  0  0  0  0
    2.8493   -0.9886   -8.8218 H   0  0  0  0  0  0  0  0  0  0  0  0
    4.7923   -2.3064   -9.6443 H   0  0  0  0  0  0  0  0  0  0  0  0
    7.3985   -0.1928   -6.9631 H   0  0  0  0  0  0  0  0  0  0  0  0
  1  2  2  3
  2  3  1  0
  3  4  2  0
  3  5  1  0
  5  6  2  0
  6  7  1  0
  7  8  2  0
  8  9  1  0
  8 10  1  0
 10 11  1  0
 10 12  2  0
 12 13  1  0
  6 14  1  0
 14 15  2  3
 15 16  1  0
 16 17  3  0
 15 18  1  0
 18 19  3  0
  1 20  1  0
 20 21  2  0
 21 22  1  0
 22 23  2  0
 23 24  1  0
 24 25  2  0
 25 26  1  0
 26 27  2  0
 27 28  1  0
 28 29  1  0
 21 30  1  0
 30 31  1  0
 31 32  1  0
 32 33  1  0
 33 34  1  0
 34 35  1  0
 35 36  2  0
 36 37  1  0
 37 38  1  0
 35 39  1  0
 39 40  1  0
 40 41  1  0
 41 42  1  0
 42 43  1  0
 43 44  1  0
 44 45  2  0
 45 46  1  0
 46 47  1  0
 45 48  1  0
 48 49  2  0
 49 50  1  0
 50 51  2  0
 43 52  2  0
 52 53  1  0
 53 54  1  0
 54 55  1  0
 55 56  1  0
 56 57  1  0
 57 58  1  0
 58 59  1  0
 59 60  1  0
 60 61  1  0
 61 62  1  0
 59 63  1  0
 63 64  1  0
 56 65  1  0
 65 66  1  0
 52 67  1  0
 67 68  2  3
 68 69  1  0
 69 70  2  0
 69 71  1  0
 71 72  2  0
 72 73  1  0
 73 74  2  0
 74 75  1  0
 74 76  1  0
 76 77  2  0
 77 78  1  0
 78 79  2  3
 79 80  1  0
 80 81  3  0
 79 82  1  0
 82 83  3  0
 14  2  1  0
 62 20  1  0
 78 68  1  0
 12  5  1  0
 27 22  1  0
 61 30  2  0
 77 71  1  0
 60 32  2  0
 58 33  2  0
 38 34  2  0
 57 39  2  0
 55 40  2  0
 54 42  2  0
 51 44  1  0
  1 84  1  0
  7 85  1  0
 23 86  1  0
 24 87  1  0
 25 88  1  0
 26 89  1  0
 28 90  1  0
 28 91  1  0
 29 92  1  0
 29 93  1  0
 29 94  1  0
 46 95  1  0
 46 96  1  0
 47 97  1  0
 47 98  1  0
 47 99  1  0
 48100  1  0
 49101  1  0
 50102  1  0
 51103  1  0
 63104  1  0
 63105  1  0
 64106  1  0
 64107  1  0
 64108  1  0
 65109  1  0
 65110  1  0
 66111  1  0
 66112  1  0
 66113  1  0
 67114  1  0
 72115  1  0
 73116  1  0
 76117  1  0
M  END

