
     RDKit          3D

130146  0  0  0  0  0  0  0  0999 V2000
    2.7239   -0.4900   -6.4162 C   0  0  0  0  0  0  0  0  0  0  0  0
    1.5551   -0.4954   -7.0928 C   0  0  0  0  0  0  0  0  0  0  0  0
    1.4998   -1.0680   -8.4433 C   0  0  0  0  0  0  0  0  0  0  0  0
    2.4674   -1.5811   -9.0676 O   0  0  0  0  0  0  0  0  0  0  0  0
    0.1662   -0.9220   -8.9714 C   0  0  0  0  0  0  0  0  0  0  0  0
   -0.6256   -0.2971   -8.0324 C   0  0  0  0  0  0  0  0  0  0  0  0
   -1.9110    0.1486   -8.3968 C   0  0  0  0  0  0  0  0  0  0  0  0
   -2.3988   -0.1427   -9.6809 C   0  0  0  0  0  0  0  0  0  0  0  0
   -3.6375    0.2763  -10.0415 F   0  0  0  0  0  0  0  0  0  0  0  0
   -1.5978   -0.8343  -10.6056 C   0  0  0  0  0  0  0  0  0  0  0  0
   -2.0645   -1.0801  -11.8566 F   0  0  0  0  0  0  0  0  0  0  0  0
   -0.2940   -1.2116  -10.2603 C   0  0  0  0  0  0  0  0  0  0  0  0
    0.5101   -1.8182  -11.1686 F   0  0  0  0  0  0  0  0  0  0  0  0
    0.1425   -0.0554   -6.7739 C   0  0  0  0  0  0  0  0  0  0  0  0
   -0.4364    0.2890   -5.5881 C   0  0  0  0  0  0  0  0  0  0  0  0
    0.2449    0.8707   -4.4699 C   0  0  0  0  0  0  0  0  0  0  0  0
    0.7303    1.3666   -3.5452 N   0  0  0  0  0  0  0  0  0  0  0  0
   -1.8573    0.1682   -5.3806 C   0  0  0  0  0  0  0  0  0  0  0  0
   -2.9961    0.0610   -5.2014 N   0  0  0  0  0  0  0  0  0  0  0  0
    2.9863    0.0447   -5.0852 C   0  0  0  0  0  0  0  0  0  0  0  0
    3.5189    1.3208   -4.8121 C   0  0  0  0  0  0  0  0  0  0  0  0
    3.7388    2.3695   -5.8263 C   0  0  0  0  0  0  0  0  0  0  0  0
    2.7007    2.7575   -6.6872 C   0  0  0  0  0  0  0  0  0  0  0  0
    2.9509    3.6383   -7.7420 C   0  0  0  0  0  0  0  0  0  0  0  0
    4.2462    4.1427   -7.9494 C   0  0  0  0  0  0  0  0  0  0  0  0
    4.5376    4.9909   -9.1580 C   0  0  0  0  0  0  0  0  0  0  0  0
    4.7550    4.1139  -10.3894 C   0  0  0  0  0  0  0  0  0  0  0  0
    5.2771    3.7764   -7.0713 C   0  0  0  0  0  0  0  0  0  0  0  0
    5.0223    2.9043   -6.0091 C   0  0  0  0  0  0  0  0  0  0  0  0
    3.8294    1.4450   -3.4576 C   0  0  0  0  0  0  0  0  0  0  0  0
    4.1424    2.7914   -2.4482 S   0  0  0  0  0  0  0  0  0  0  0  0
    3.9768    1.8180   -1.0654 C   0  0  0  0  0  0  0  0  0  0  0  0
    3.8629    1.9352    0.2944 C   0  0  0  0  0  0  0  0  0  0  0  0
    4.0103    3.0242    1.1548 C   0  0  0  0  0  0  0  0  0  0  0  0
    3.7589    2.8306    2.5460 C   0  0  0  0  0  0  0  0  0  0  0  0
    3.8848    3.9189    3.3453 N   0  0  0  0  0  0  0  0  0  0  0  0
    4.3307    5.0485    2.2176 S   0  0  0  0  0  0  0  0  0  0  0  0
    4.3677    4.2691    0.7566 N   0  0  0  0  0  0  0  0  0  0  0  0
    3.3230    1.5724    2.9922 C   0  0  0  0  0  0  0  0  0  0  0  0
    2.6876    1.2395    4.1583 C   0  0  0  0  0  0  0  0  0  0  0  0
    1.9633    2.1622    5.3911 S   0  0  0  0  0  0  0  0  0  0  0  0
    0.8067    0.9529    5.6940 C   0  0  0  0  0  0  0  0  0  0  0  0
   -0.4042    0.9694    6.3976 C   0  0  0  0  0  0  0  0  0  0  0  0
   -0.8639    2.1379    7.1662 C   0  0  0  0  0  0  0  0  0  0  0  0
   -1.8675    2.9682    6.6494 C   0  0  0  0  0  0  0  0  0  0  0  0
   -2.2905    4.0908    7.3639 C   0  0  0  0  0  0  0  0  0  0  0  0
   -1.7110    4.3994    8.6035 C   0  0  0  0  0  0  0  0  0  0  0  0
   -2.1510    5.6257    9.3593 C   0  0  0  0  0  0  0  0  0  0  0  0
   -1.4104    6.8637    8.8624 C   0  0  0  0  0  0  0  0  0  0  0  0
   -0.6825    3.5856    9.1040 C   0  0  0  0  0  0  0  0  0  0  0  0
   -0.2610    2.4602    8.3902 C   0  0  0  0  0  0  0  0  0  0  0  0
   -1.2048   -0.1502    6.0797 C   0  0  0  0  0  0  0  0  0  0  0  0
   -0.4122   -1.0386    4.8612 S   0  0  0  0  0  0  0  0  0  0  0  0
    0.9581   -0.0894    4.8162 C   0  0  0  0  0  0  0  0  0  0  0  0
    2.0246    0.0682    3.9312 C   0  0  0  0  0  0  0  0  0  0  0  0
    2.2199   -0.4050    2.6677 N   0  0  0  0  0  0  0  0  0  0  0  0
    3.0853    0.5061    2.1075 C   0  0  0  0  0  0  0  0  0  0  0  0
    3.4657    0.6665    0.7479 C   0  0  0  0  0  0  0  0  0  0  0  0
    3.4329   -0.2313   -0.2845 N   0  0  0  0  0  0  0  0  0  0  0  0
    3.7001    0.5295   -1.3671 C   0  0  0  0  0  0  0  0  0  0  0  0
    3.6107    0.3060   -2.7251 C   0  0  0  0  0  0  0  0  0  0  0  0
    3.0026   -0.9259   -3.6817 S   0  0  0  0  0  0  0  0  0  0  0  0
    3.6637   -1.6789   -0.2182 C   0  0  0  0  0  0  0  0  0  0  0  0
    5.0929   -2.0331   -0.6318 C   0  0  0  0  0  0  0  0  0  0  0  0
    1.2556   -1.2671    1.9643 C   0  0  0  0  0  0  0  0  0  0  0  0
    1.3728   -2.7312    2.4064 C   0  0  0  0  0  0  0  0  0  0  0  0
   -2.6361   -0.3105    6.4358 C   0  0  0  0  0  0  0  0  0  0  0  0
   -3.3517   -1.4398    6.2552 C   0  0  0  0  0  0  0  0  0  0  0  0
   -2.8168   -2.7526    5.8780 C   0  0  0  0  0  0  0  0  0  0  0  0
   -1.7345   -3.2602    6.2760 O   0  0  0  0  0  0  0  0  0  0  0  0
   -3.7904   -3.4183    5.0387 C   0  0  0  0  0  0  0  0  0  0  0  0
   -3.5795   -4.5578    4.2326 C   0  0  0  0  0  0  0  0  0  0  0  0
   -4.6105   -4.8145    3.3482 C   0  0  0  0  0  0  0  0  0  0  0  0
   -5.7858   -3.9996    3.2572 C   0  0  0  0  0  0  0  0  0  0  0  0
   -6.0049   -2.8914    4.0599 C   0  0  0  0  0  0  0  0  0  0  0  0
   -4.9655   -2.6262    4.9920 C   0  0  0  0  0  0  0  0  0  0  0  0
   -4.7968   -1.4633    5.9016 C   0  0  0  0  0  0  0  0  0  0  0  0
   -5.7804   -0.7182    6.4587 C   0  0  0  0  0  0  0  0  0  0  0  0
   -7.1671   -0.9071    6.1262 C   0  0  0  0  0  0  0  0  0  0  0  0
   -8.2864   -1.0510    5.8688 N   0  0  0  0  0  0  0  0  0  0  0  0
   -5.5156    0.2001    7.5398 C   0  0  0  0  0  0  0  0  0  0  0  0
   -5.3053    0.9303    8.4142 N   0  0  0  0  0  0  0  0  0  0  0  0
   -6.2843   -4.8151    2.1002 C   0  0  0  0  0  0  0  0  0  0  0  0
   -6.1710   -4.1955    0.6727 C   0  0  0  0  0  0  0  0  0  0  0  0
   -4.9761   -3.2715    0.6008 C   0  0  0  0  0  0  0  0  0  0  0  0
   -3.8912   -4.0422    0.6871 C   0  0  0  0  0  0  0  0  0  0  0  0
   -4.3859   -5.4650    0.8216 C   0  0  0  0  0  0  0  0  0  0  0  0
   -5.6022   -5.3809   -0.0814 C   0  0  0  0  0  0  0  0  0  0  0  0
   -5.0876   -5.6585    2.2018 C   0  0  0  0  0  0  0  0  0  0  0  0
    3.6024   -0.8939   -6.9079 H   0  0  0  0  0  0  0  0  0  0  0  0
   -2.5146    0.7572   -7.7443 H   0  0  0  0  0  0  0  0  0  0  0  0
    1.7013    2.3686   -6.5529 H   0  0  0  0  0  0  0  0  0  0  0  0
    2.1459    3.9026   -8.4137 H   0  0  0  0  0  0  0  0  0  0  0  0
    5.4480    5.6081   -8.9881 H   0  0  0  0  0  0  0  0  0  0  0  0
    3.6923    5.6891   -9.3459 H   0  0  0  0  0  0  0  0  0  0  0  0
    5.6262    3.4409  -10.2354 H   0  0  0  0  0  0  0  0  0  0  0  0
    3.8520    3.5004  -10.5939 H   0  0  0  0  0  0  0  0  0  0  0  0
    4.9547    4.7567  -11.2716 H   0  0  0  0  0  0  0  0  0  0  0  0
    6.2857    4.1395   -7.2276 H   0  0  0  0  0  0  0  0  0  0  0  0
    5.8376    2.6087   -5.3607 H   0  0  0  0  0  0  0  0  0  0  0  0
   -2.3158    2.7526    5.6900 H   0  0  0  0  0  0  0  0  0  0  0  0
   -3.0699    4.7208    6.9522 H   0  0  0  0  0  0  0  0  0  0  0  0
   -1.9601    5.4962   10.4477 H   0  0  0  0  0  0  0  0  0  0  0  0
   -3.2471    5.7781    9.2280 H   0  0  0  0  0  0  0  0  0  0  0  0
   -1.6168    7.0324    7.7859 H   0  0  0  0  0  0  0  0  0  0  0  0
   -1.7487    7.7550    9.4329 H   0  0  0  0  0  0  0  0  0  0  0  0
   -0.3161    6.7401    9.0134 H   0  0  0  0  0  0  0  0  0  0  0  0
   -0.2097    3.8214   10.0497 H   0  0  0  0  0  0  0  0  0  0  0  0
    0.5344    1.8412    8.7907 H   0  0  0  0  0  0  0  0  0  0  0  0
    3.5479   -2.0335    0.8161 H   0  0  0  0  0  0  0  0  0  0  0  0
    2.9399   -2.2081   -0.8794 H   0  0  0  0  0  0  0  0  0  0  0  0
    5.2794   -3.1123   -0.4425 H   0  0  0  0  0  0  0  0  0  0  0  0
    5.8205   -1.4354   -0.0424 H   0  0  0  0  0  0  0  0  0  0  0  0
    5.2447   -1.8429   -1.7120 H   0  0  0  0  0  0  0  0  0  0  0  0
    1.3649   -1.1960    0.8663 H   0  0  0  0  0  0  0  0  0  0  0  0
    0.2210   -0.9128    2.1582 H   0  0  0  0  0  0  0  0  0  0  0  0
    0.6878   -3.3494    1.7910 H   0  0  0  0  0  0  0  0  0  0  0  0
    2.4030   -3.1195    2.2966 H   0  0  0  0  0  0  0  0  0  0  0  0
    1.0874   -2.8498    3.4663 H   0  0  0  0  0  0  0  0  0  0  0  0
   -3.1631    0.5999    6.6608 H   0  0  0  0  0  0  0  0  0  0  0  0
   -2.6633   -5.1283    4.2384 H   0  0  0  0  0  0  0  0  0  0  0  0
   -6.8628   -2.2551    3.9110 H   0  0  0  0  0  0  0  0  0  0  0  0
   -7.2323   -5.3591    2.3044 H   0  0  0  0  0  0  0  0  0  0  0  0
   -7.1137   -3.7767    0.2639 H   0  0  0  0  0  0  0  0  0  0  0  0
   -4.9798   -2.2001    0.4279 H   0  0  0  0  0  0  0  0  0  0  0  0
   -2.8622   -3.7064    0.6015 H   0  0  0  0  0  0  0  0  0  0  0  0
   -3.6426   -6.2477    0.5522 H   0  0  0  0  0  0  0  0  0  0  0  0
   -6.2505   -6.2890   -0.0425 H   0  0  0  0  0  0  0  0  0  0  0  0
   -5.3486   -5.1486   -1.1444 H   0  0  0  0  0  0  0  0  0  0  0  0
   -5.2997   -6.7172    2.4777 H   0  0  0  0  0  0  0  0  0  0  0  0
  1  2  2  3
  2  3  1  0
  3  4  2  0
  3  5  1  0
  5  6  2  0
  6  7  1  0
  7  8  2  0
  8  9  1  0
  8 10  1  0
 10 11  1  0
 10 12  2  0
 12 13  1  0
  6 14  1  0
 14 15  2  3
 15 16  1  0
 16 17  3  0
 15 18  1  0
 18 19  3  0
  1 20  1  0
 20 21  2  0
 21 22  1  0
 22 23  2  0
 23 24  1  0
 24 25  2  0
 25 26  1  0
 26 27  1  0
 25 28  1  0
 28 29  2  0
 21 30  1  0
 30 31  1  0
 31 32  1  0
 32 33  1  0
 33 34  1  0
 34 35  1  0
 35 36  2  0
 36 37  1  0
 37 38  1  0
 35 39  1  0
 39 40  1  0
 40 41  1  0
 41 42  1  0
 42 43  1  0
 43 44  1  0
 44 45  2  0
 45 46  1  0
 46 47  2  0
 47 48  1  0
 48 49  1  0
 47 50  1  0
 50 51  2  0
 43 52  2  0
 52 53  1  0
 53 54  1  0
 54 55  1  0
 55 56  1  0
 56 57  1  0
 57 58  1  0
 58 59  1  0
 59 60  1  0
 60 61  1  0
 61 62  1  0
 59 63  1  0
 63 64  1  0
 56 65  1  0
 65 66  1  0
 52 67  1  0
 67 68  2  3
 68 69  1  0
 69 70  2  0
 69 71  1  0
 71 72  2  0
 72 73  1  0
 73 74  2  0
 74 75  1  0
 75 76  2  0
 76 77  1  0
 77 78  2  3
 78 79  1  0
 79 80  3  0
 78 81  1  0
 81 82  3  0
 74 83  1  0
 83 84  1  0
 84 85  1  0
 85 86  2  0
 86 87  1  0
 87 88  1  0
 87 89  1  0
 14  2  1  0
 62 20  1  0
 77 68  1  0
 89 83  1  0
 12  5  1  0
 29 22  1  0
 61 30  2  0
 76 71  1  0
 88 84  1  0
 60 32  2  0
 89 73  1  0
 58 33  2  0
 38 34  2  0
 57 39  2  0
 55 40  2  0
 54 42  2  0
 51 44  1  0
  1 90  1  0
  7 91  1  0
 23 92  1  0
 24 93  1  0
 26 94  1  0
 26 95  1  0
 27 96  1  0
 27 97  1  0
 27 98  1  0
 28 99  1  0
 29100  1  0
 45101  1  0
 46102  1  0
 48103  1  0
 48104  1  0
 49105  1  0
 49106  1  0
 49107  1  0
 50108  1  0
 51109  1  0
 63110  1  0
 63111  1  0
 64112  1  0
 64113  1  0
 64114  1  0
 65115  1  0
 65116  1  0
 66117  1  0
 66118  1  0
 66119  1  0
 67120  1  0
 72121  1  0
 75122  1  0
 83123  1  0
 84124  1  0
 85125  1  0
 86126  1  0
 87127  1  0
 88128  1  0
 88129  1  0
 89130  1  0
M  END

