
     RDKit          3D

138152  0  0  0  0  0  0  0  0999 V2000
   -3.5563    7.7861   -0.5389 C   0  0  0  0  0  0  0  0  0  0  0  0
   -3.1115    8.6737    0.3657 C   0  0  0  0  0  0  0  0  0  0  0  0
   -3.4375   10.0993    0.3018 C   0  0  0  0  0  0  0  0  0  0  0  0
   -4.3612   10.6188   -0.3783 O   0  0  0  0  0  0  0  0  0  0  0  0
   -2.4394   10.8198    1.0689 C   0  0  0  0  0  0  0  0  0  0  0  0
   -1.5671    9.9167    1.6568 C   0  0  0  0  0  0  0  0  0  0  0  0
   -0.4352   10.3796    2.3420 C   0  0  0  0  0  0  0  0  0  0  0  0
   -0.2414   11.7648    2.4787 C   0  0  0  0  0  0  0  0  0  0  0  0
    0.8385   12.2272    3.1579 F   0  0  0  0  0  0  0  0  0  0  0  0
   -1.1512   12.6710    1.9055 C   0  0  0  0  0  0  0  0  0  0  0  0
   -0.9485   14.0077    2.0372 F   0  0  0  0  0  0  0  0  0  0  0  0
   -2.2560   12.2012    1.1808 C   0  0  0  0  0  0  0  0  0  0  0  0
   -3.1164   13.0670    0.5937 F   0  0  0  0  0  0  0  0  0  0  0  0
   -2.0252    8.5302    1.3782 C   0  0  0  0  0  0  0  0  0  0  0  0
   -1.8153    7.4464    2.1726 C   0  0  0  0  0  0  0  0  0  0  0  0
   -2.6701    6.2867    2.1196 C   0  0  0  0  0  0  0  0  0  0  0  0
   -3.3651    5.3637    2.0953 N   0  0  0  0  0  0  0  0  0  0  0  0
   -0.8832    7.4725    3.2711 C   0  0  0  0  0  0  0  0  0  0  0  0
   -0.1408    7.4771    4.1603 N   0  0  0  0  0  0  0  0  0  0  0  0
   -2.8904    6.5172   -0.8562 C   0  0  0  0  0  0  0  0  0  0  0  0
   -1.1981    6.2798   -0.9709 S   0  0  0  0  0  0  0  0  0  0  0  0
   -1.3818    4.6837   -1.4327 C   0  0  0  0  0  0  0  0  0  0  0  0
   -0.5629    3.5884   -1.8489 C   0  0  0  0  0  0  0  0  0  0  0  0
   -1.3896    2.5477   -2.1960 C   0  0  0  0  0  0  0  0  0  0  0  0
   -2.8597    2.8694   -1.9123 C   0  0  0  0  0  0  0  0  0  0  0  0
   -2.6905    4.3275   -1.5271 C   0  0  0  0  0  0  0  0  0  0  0  0
   -3.5770    5.3541   -1.2227 C   0  0  0  0  0  0  0  0  0  0  0  0
   -3.4249    2.1607   -0.6660 C   0  0  0  0  0  0  0  0  0  0  0  0
   -4.7783    2.3592   -0.3140 C   0  0  0  0  0  0  0  0  0  0  0  0
   -5.2867    1.8823    0.8979 C   0  0  0  0  0  0  0  0  0  0  0  0
   -4.4601    1.1816    1.7866 C   0  0  0  0  0  0  0  0  0  0  0  0
   -4.9663    0.7687    3.1397 C   0  0  0  0  0  0  0  0  0  0  0  0
   -4.5573    1.7912    4.1978 C   0  0  0  0  0  0  0  0  0  0  0  0
   -3.1207    0.9676    1.4473 C   0  0  0  0  0  0  0  0  0  0  0  0
   -2.6034    1.4671    0.2525 C   0  0  0  0  0  0  0  0  0  0  0  0
   -3.6998    2.6901   -3.1831 C   0  0  0  0  0  0  0  0  0  0  0  0
   -4.4953    1.5414   -3.3774 C   0  0  0  0  0  0  0  0  0  0  0  0
   -5.2567    1.3852   -4.5388 C   0  0  0  0  0  0  0  0  0  0  0  0
   -5.2382    2.3696   -5.5354 C   0  0  0  0  0  0  0  0  0  0  0  0
   -6.0557    2.1972   -6.7876 C   0  0  0  0  0  0  0  0  0  0  0  0
   -5.2465    1.4983   -7.8753 C   0  0  0  0  0  0  0  0  0  0  0  0
   -4.4075    3.4875   -5.3801 C   0  0  0  0  0  0  0  0  0  0  0  0
   -3.6442    3.6418   -4.2226 C   0  0  0  0  0  0  0  0  0  0  0  0
   -0.6965    1.3434   -2.3351 C   0  0  0  0  0  0  0  0  0  0  0  0
   -1.2325    0.1033   -2.6959 C   0  0  0  0  0  0  0  0  0  0  0  0
   -0.3768   -0.9997   -2.6365 C   0  0  0  0  0  0  0  0  0  0  0  0
   -0.7881   -2.6110   -2.9332 S   0  0  0  0  0  0  0  0  0  0  0  0
    0.7338   -3.1720   -2.4785 C   0  0  0  0  0  0  0  0  0  0  0  0
    1.1252   -4.3936   -1.8516 C   0  0  0  0  0  0  0  0  0  0  0  0
    2.0904   -4.1390   -0.9267 C   0  0  0  0  0  0  0  0  0  0  0  0
    2.5195   -2.6743   -0.9397 C   0  0  0  0  0  0  0  0  0  0  0  0
    3.9846   -2.6003   -1.3821 C   0  0  0  0  0  0  0  0  0  0  0  0
    4.3789   -1.9942   -2.5945 C   0  0  0  0  0  0  0  0  0  0  0  0
    5.7274   -1.9501   -2.9600 C   0  0  0  0  0  0  0  0  0  0  0  0
    6.7121   -2.4894   -2.1237 C   0  0  0  0  0  0  0  0  0  0  0  0
    8.1635   -2.4147   -2.5203 C   0  0  0  0  0  0  0  0  0  0  0  0
    8.7032   -0.9964   -2.3764 C   0  0  0  0  0  0  0  0  0  0  0  0
    6.3310   -3.0859   -0.9154 C   0  0  0  0  0  0  0  0  0  0  0  0
    4.9845   -3.1492   -0.5532 C   0  0  0  0  0  0  0  0  0  0  0  0
    2.2466   -1.9963    0.4126 C   0  0  0  0  0  0  0  0  0  0  0  0
    3.1007   -0.9986    0.9275 C   0  0  0  0  0  0  0  0  0  0  0  0
    2.8303   -0.3791    2.1508 C   0  0  0  0  0  0  0  0  0  0  0  0
    1.6886   -0.7256    2.8856 C   0  0  0  0  0  0  0  0  0  0  0  0
    1.3973   -0.0568    4.1998 C   0  0  0  0  0  0  0  0  0  0  0  0
    0.3644    1.0545    4.0321 C   0  0  0  0  0  0  0  0  0  0  0  0
    0.7970   -1.6673    2.3574 C   0  0  0  0  0  0  0  0  0  0  0  0
    1.0651   -2.2859    1.1332 C   0  0  0  0  0  0  0  0  0  0  0  0
    1.5254   -2.1598   -1.9865 C   0  0  0  0  0  0  0  0  0  0  0  0
    0.9331   -0.9016   -2.1383 C   0  0  0  0  0  0  0  0  0  0  0  0
    1.4764    0.3446   -1.7932 C   0  0  0  0  0  0  0  0  0  0  0  0
    0.6487    1.4643   -1.9424 C   0  0  0  0  0  0  0  0  0  0  0  0
    1.0005    3.0668   -1.4993 S   0  0  0  0  0  0  0  0  0  0  0  0
    2.2183   -5.1504    0.0331 C   0  0  0  0  0  0  0  0  0  0  0  0
    1.2871   -6.1781   -0.1836 C   0  0  0  0  0  0  0  0  0  0  0  0
    0.3258   -5.8213   -1.5290 S   0  0  0  0  0  0  0  0  0  0  0  0
    1.1429   -7.4244    0.5852 C   0  0  0  0  0  0  0  0  0  0  0  0
    1.0834   -7.5074    1.9303 C   0  0  0  0  0  0  0  0  0  0  0  0
    0.8779   -6.3804    2.8484 C   0  0  0  0  0  0  0  0  0  0  0  0
    0.8780   -5.1565    2.5524 O   0  0  0  0  0  0  0  0  0  0  0  0
    0.5480   -6.9033    4.1538 C   0  0  0  0  0  0  0  0  0  0  0  0
    0.3018   -6.1905    5.3258 C   0  0  0  0  0  0  0  0  0  0  0  0
    0.0536   -6.9029    6.5047 C   0  0  0  0  0  0  0  0  0  0  0  0
   -0.1733   -6.2323    7.6617 F   0  0  0  0  0  0  0  0  0  0  0  0
    0.0749   -8.3086    6.4965 C   0  0  0  0  0  0  0  0  0  0  0  0
   -0.1047   -8.9911    7.6508 F   0  0  0  0  0  0  0  0  0  0  0  0
    0.3270   -9.0093    5.3032 C   0  0  0  0  0  0  0  0  0  0  0  0
    0.5278   -8.2873    4.1154 C   0  0  0  0  0  0  0  0  0  0  0  0
    0.8721   -8.7531    2.7400 C   0  0  0  0  0  0  0  0  0  0  0  0
    0.9777  -10.0420    2.3129 C   0  0  0  0  0  0  0  0  0  0  0  0
    1.6473  -10.3940    1.0880 C   0  0  0  0  0  0  0  0  0  0  0  0
    2.1876  -10.6836    0.1060 N   0  0  0  0  0  0  0  0  0  0  0  0
    0.4712  -11.1560    3.0723 C   0  0  0  0  0  0  0  0  0  0  0  0
    0.0617  -12.0584    3.6703 N   0  0  0  0  0  0  0  0  0  0  0  0
   -4.3951    8.0580   -1.1692 H   0  0  0  0  0  0  0  0  0  0  0  0
    0.3034    9.7029    2.7399 H   0  0  0  0  0  0  0  0  0  0  0  0
   -4.6532    5.2605   -1.2507 H   0  0  0  0  0  0  0  0  0  0  0  0
   -5.4355    2.9200   -0.9663 H   0  0  0  0  0  0  0  0  0  0  0  0
   -6.3174    2.0864    1.1550 H   0  0  0  0  0  0  0  0  0  0  0  0
   -4.5547   -0.2270    3.4098 H   0  0  0  0  0  0  0  0  0  0  0  0
   -6.0758    0.6751    3.1302 H   0  0  0  0  0  0  0  0  0  0  0  0
   -3.4488    1.8248    4.2948 H   0  0  0  0  0  0  0  0  0  0  0  0
   -4.9922    1.5102    5.1790 H   0  0  0  0  0  0  0  0  0  0  0  0
   -4.9268    2.8024    3.9202 H   0  0  0  0  0  0  0  0  0  0  0  0
   -2.4608    0.4466    2.1329 H   0  0  0  0  0  0  0  0  0  0  0  0
   -1.5495    1.3329    0.0900 H   0  0  0  0  0  0  0  0  0  0  0  0
   -4.5375    0.7600   -2.6301 H   0  0  0  0  0  0  0  0  0  0  0  0
   -5.8614    0.4959   -4.6589 H   0  0  0  0  0  0  0  0  0  0  0  0
   -6.9698    1.6033   -6.5738 H   0  0  0  0  0  0  0  0  0  0  0  0
   -6.3893    3.1915   -7.1584 H   0  0  0  0  0  0  0  0  0  0  0  0
   -5.8612    1.4127   -8.7960 H   0  0  0  0  0  0  0  0  0  0  0  0
   -4.9613    0.4780   -7.5393 H   0  0  0  0  0  0  0  0  0  0  0  0
   -4.3308    2.0808   -8.1083 H   0  0  0  0  0  0  0  0  0  0  0  0
   -4.3556    4.2417   -6.1557 H   0  0  0  0  0  0  0  0  0  0  0  0
   -3.0061    4.5131   -4.1410 H   0  0  0  0  0  0  0  0  0  0  0  0
   -2.2651   -0.0094   -2.9923 H   0  0  0  0  0  0  0  0  0  0  0  0
    3.6550   -1.5570   -3.2681 H   0  0  0  0  0  0  0  0  0  0  0  0
    6.0036   -1.4854   -3.9005 H   0  0  0  0  0  0  0  0  0  0  0  0
    8.2779   -2.7556   -3.5698 H   0  0  0  0  0  0  0  0  0  0  0  0
    8.7789   -3.0947   -1.8876 H   0  0  0  0  0  0  0  0  0  0  0  0
    8.1251   -0.2922   -3.0176 H   0  0  0  0  0  0  0  0  0  0  0  0
    9.7688   -0.9663   -2.6864 H   0  0  0  0  0  0  0  0  0  0  0  0
    8.6265   -0.6558   -1.3225 H   0  0  0  0  0  0  0  0  0  0  0  0
    7.0741   -3.5053   -0.2506 H   0  0  0  0  0  0  0  0  0  0  0  0
    4.7208   -3.6045    0.3904 H   0  0  0  0  0  0  0  0  0  0  0  0
    3.9799   -0.6799    0.3823 H   0  0  0  0  0  0  0  0  0  0  0  0
    3.5091    0.3800    2.5213 H   0  0  0  0  0  0  0  0  0  0  0  0
    1.0168   -0.8085    4.9252 H   0  0  0  0  0  0  0  0  0  0  0  0
    2.3272    0.3777    4.6318 H   0  0  0  0  0  0  0  0  0  0  0  0
   -0.6143    0.6270    3.7271 H   0  0  0  0  0  0  0  0  0  0  0  0
    0.2298    1.5865    4.9962 H   0  0  0  0  0  0  0  0  0  0  0  0
    0.7002    1.7886    3.2657 H   0  0  0  0  0  0  0  0  0  0  0  0
   -0.1095   -1.9214    2.8917 H   0  0  0  0  0  0  0  0  0  0  0  0
    0.3401   -2.9876    0.7436 H   0  0  0  0  0  0  0  0  0  0  0  0
    2.4887    0.4444   -1.4241 H   0  0  0  0  0  0  0  0  0  0  0  0
    2.8948   -5.1102    0.8742 H   0  0  0  0  0  0  0  0  0  0  0  0
    0.9631   -8.2949   -0.0194 H   0  0  0  0  0  0  0  0  0  0  0  0
    0.3140   -5.1075    5.3294 H   0  0  0  0  0  0  0  0  0  0  0  0
    0.3748  -10.0837    5.3461 H   0  0  0  0  0  0  0  0  0  0  0  0
  1  2  2  3
  2  3  1  0
  3  4  2  0
  3  5  1  0
  5  6  2  0
  6  7  1  0
  7  8  2  0
  8  9  1  0
  8 10  1  0
 10 11  1  0
 10 12  2  0
 12 13  1  0
  6 14  1  0
 14 15  2  3
 15 16  1  0
 16 17  3  0
 15 18  1  0
 18 19  3  0
  1 20  1  0
 20 21  1  0
 21 22  1  0
 22 23  1  0
 23 24  2  0
 24 25  1  0
 25 26  1  0
 26 27  1  0
 25 28  1  0
 28 29  2  0
 29 30  1  0
 30 31  2  0
 31 32  1  0
 32 33  1  0
 31 34  1  0
 34 35  2  0
 25 36  1  0
 36 37  2  0
 37 38  1  0
 38 39  2  0
 39 40  1  0
 40 41  1  0
 39 42  1  0
 42 43  2  0
 24 44  1  0
 44 45  2  0
 45 46  1  0
 46 47  1  0
 47 48  1  0
 48 49  1  0
 49 50  2  0
 50 51  1  0
 51 52  1  0
 52 53  2  0
 53 54  1  0
 54 55  2  0
 55 56  1  0
 56 57  1  0
 55 58  1  0
 58 59  2  0
 51 60  1  0
 60 61  2  0
 61 62  1  0
 62 63  2  0
 63 64  1  0
 64 65  1  0
 63 66  1  0
 66 67  2  0
 51 68  1  0
 68 69  1  0
 69 70  1  0
 70 71  2  0
 71 72  1  0
 50 73  1  0
 73 74  2  0
 74 75  1  0
 74 76  1  0
 76 77  2  3
 77 78  1  0
 78 79  2  0
 78 80  1  0
 80 81  2  0
 81 82  1  0
 82 83  1  0
 82 84  2  0
 84 85  1  0
 84 86  1  0
 86 87  2  0
 87 88  1  0
 88 89  2  3
 89 90  1  0
 90 91  3  0
 89 92  1  0
 92 93  3  0
 14  2  1  0
 27 20  2  0
 35 28  1  0
 43 36  1  0
 71 44  1  0
 88 77  1  0
 12  5  1  0
 26 22  2  0
 69 46  2  0
 87 80  1  0
 72 23  1  0
 68 48  2  0
 75 49  1  0
 59 52  1  0
 67 60  1  0
  1 94  1  0
  7 95  1  0
 27 96  1  0
 29 97  1  0
 30 98  1  0
 32 99  1  0
 32100  1  0
 33101  1  0
 33102  1  0
 33103  1  0
 34104  1  0
 35105  1  0
 37106  1  0
 38107  1  0
 40108  1  0
 40109  1  0
 41110  1  0
 41111  1  0
 41112  1  0
 42113  1  0
 43114  1  0
 45115  1  0
 53116  1  0
 54117  1  0
 56118  1  0
 56119  1  0
 57120  1  0
 57121  1  0
 57122  1  0
 58123  1  0
 59124  1  0
 61125  1  0
 62126  1  0
 64127  1  0
 64128  1  0
 65129  1  0
 65130  1  0
 65131  1  0
 66132  1  0
 67133  1  0
 70134  1  0
 73135  1  0
 76136  1  0
 81137  1  0
 86138  1  0
M  END

