
     RDKit          3D

104115  0  0  0  0  0  0  0  0999 V2000
   -2.0684    0.5942    6.5074 C   0  0  0  0  0  0  0  0  0  0  0  0
   -2.7408    1.4518    7.2920 C   0  0  0  0  0  0  0  0  0  0  0  0
   -4.1927    1.6649    7.2791 C   0  0  0  0  0  0  0  0  0  0  0  0
   -4.9887    1.3556    6.3534 O   0  0  0  0  0  0  0  0  0  0  0  0
   -4.5769    2.2122    8.5698 C   0  0  0  0  0  0  0  0  0  0  0  0
   -3.4470    2.3833    9.3530 C   0  0  0  0  0  0  0  0  0  0  0  0
   -3.5777    2.7524   10.7018 C   0  0  0  0  0  0  0  0  0  0  0  0
   -4.8632    2.9882   11.2222 C   0  0  0  0  0  0  0  0  0  0  0  0
   -5.0061    3.3360   12.5251 F   0  0  0  0  0  0  0  0  0  0  0  0
   -6.0003    2.8321   10.4111 C   0  0  0  0  0  0  0  0  0  0  0  0
   -7.2361    3.0217   10.9358 F   0  0  0  0  0  0  0  0  0  0  0  0
   -5.8600    2.4352    9.0738 C   0  0  0  0  0  0  0  0  0  0  0  0
   -6.9571    2.2590    8.2899 F   0  0  0  0  0  0  0  0  0  0  0  0
   -2.2338    2.0374    8.5651 C   0  0  0  0  0  0  0  0  0  0  0  0
   -0.9523    2.3910    8.8334 C   0  0  0  0  0  0  0  0  0  0  0  0
    0.0890    2.2749    7.8362 C   0  0  0  0  0  0  0  0  0  0  0  0
    0.9163    2.1892    7.0301 N   0  0  0  0  0  0  0  0  0  0  0  0
   -0.5613    3.0305   10.0587 C   0  0  0  0  0  0  0  0  0  0  0  0
   -0.2266    3.5447   11.0390 N   0  0  0  0  0  0  0  0  0  0  0  0
   -2.5912    0.0006    5.2702 C   0  0  0  0  0  0  0  0  0  0  0  0
   -2.3736   -1.3336    4.9133 C   0  0  0  0  0  0  0  0  0  0  0  0
   -2.6429   -1.5382    3.5679 C   0  0  0  0  0  0  0  0  0  0  0  0
   -2.2598   -2.8061    2.5308 S   0  0  0  0  0  0  0  0  0  0  0  0
   -2.5874   -1.8832    1.1384 C   0  0  0  0  0  0  0  0  0  0  0  0
   -2.2940   -2.2321   -0.1793 C   0  0  0  0  0  0  0  0  0  0  0  0
   -2.4102   -1.2208   -1.1439 C   0  0  0  0  0  0  0  0  0  0  0  0
   -1.9352   -1.1967   -2.5180 C   0  0  0  0  0  0  0  0  0  0  0  0
   -2.0730    0.0287   -2.9936 C   0  0  0  0  0  0  0  0  0  0  0  0
   -2.7511    0.9818   -2.0184 C   0  0  0  0  0  0  0  0  0  0  0  0
   -1.9345    2.2644   -1.6878 C   0  0  0  0  0  0  0  0  0  0  0  0
   -0.5155    2.0006   -1.1872 C   0  0  0  0  0  0  0  0  0  0  0  0
   -4.1932    1.3110   -2.4889 C   0  0  0  0  0  0  0  0  0  0  0  0
   -4.2668    2.0094   -3.8493 C   0  0  0  0  0  0  0  0  0  0  0  0
   -2.8439    0.0662   -0.8165 C   0  0  0  0  0  0  0  0  0  0  0  0
   -3.1516    0.4102    0.5130 C   0  0  0  0  0  0  0  0  0  0  0  0
   -2.9923   -0.5848    1.4866 C   0  0  0  0  0  0  0  0  0  0  0  0
   -3.0180   -0.4304    2.8688 C   0  0  0  0  0  0  0  0  0  0  0  0
   -3.0483    0.9024    3.8908 S   0  0  0  0  0  0  0  0  0  0  0  0
   -1.1335    0.2152   -4.0928 C   0  0  0  0  0  0  0  0  0  0  0  0
   -0.4253   -0.9770   -4.2462 C   0  0  0  0  0  0  0  0  0  0  0  0
   -0.8985   -2.0232   -3.2633 C   0  0  0  0  0  0  0  0  0  0  0  0
    0.2865   -2.5143   -2.3761 C   0  0  0  0  0  0  0  0  0  0  0  0
    1.0234   -1.4054   -1.6179 C   0  0  0  0  0  0  0  0  0  0  0  0
   -1.5648   -3.1753   -4.0596 C   0  0  0  0  0  0  0  0  0  0  0  0
   -2.2470   -4.2366   -3.1944 C   0  0  0  0  0  0  0  0  0  0  0  0
    0.6970   -1.0508   -5.0866 C   0  0  0  0  0  0  0  0  0  0  0  0
    1.1105    0.1283   -5.7145 C   0  0  0  0  0  0  0  0  0  0  0  0
    0.3900    1.3237   -5.5595 C   0  0  0  0  0  0  0  0  0  0  0  0
   -0.7556    1.3909   -4.7630 C   0  0  0  0  0  0  0  0  0  0  0  0
    1.2710    2.6274   -6.2058 S   0  0  0  0  0  0  0  0  0  0  0  0
    2.5667    1.6511   -6.6768 C   0  0  0  0  0  0  0  0  0  0  0  0
    3.8830    1.9414   -7.0178 C   0  0  0  0  0  0  0  0  0  0  0  0
    4.6733    0.7797   -6.9634 C   0  0  0  0  0  0  0  0  0  0  0  0
    3.7322   -0.5542   -6.4720 S   0  0  0  0  0  0  0  0  0  0  0  0
    2.3227    0.3487   -6.3563 C   0  0  0  0  0  0  0  0  0  0  0  0
    6.1434    0.7843   -6.9428 C   0  0  0  0  0  0  0  0  0  0  0  0
    6.8442    0.8208   -5.7917 C   0  0  0  0  0  0  0  0  0  0  0  0
    6.2718    1.0573   -4.4569 C   0  0  0  0  0  0  0  0  0  0  0  0
    5.0502    1.0437   -4.1488 O   0  0  0  0  0  0  0  0  0  0  0  0
    7.3501    1.3860   -3.5472 C   0  0  0  0  0  0  0  0  0  0  0  0
    8.5604    1.3360   -4.2215 C   0  0  0  0  0  0  0  0  0  0  0  0
    9.7360    1.7235   -3.5579 C   0  0  0  0  0  0  0  0  0  0  0  0
    9.6666    2.1219   -2.2136 C   0  0  0  0  0  0  0  0  0  0  0  0
   10.7986    2.4900   -1.5664 F   0  0  0  0  0  0  0  0  0  0  0  0
    8.4350    2.1398   -1.5384 C   0  0  0  0  0  0  0  0  0  0  0  0
    8.3806    2.5354   -0.2423 F   0  0  0  0  0  0  0  0  0  0  0  0
    7.2591    1.7781   -2.2093 C   0  0  0  0  0  0  0  0  0  0  0  0
    6.0649    1.8219   -1.5725 F   0  0  0  0  0  0  0  0  0  0  0  0
    8.3336    0.8804   -5.6260 C   0  0  0  0  0  0  0  0  0  0  0  0
    9.2711    0.4153   -6.4937 C   0  0  0  0  0  0  0  0  0  0  0  0
    8.9279   -0.2183   -7.7419 C   0  0  0  0  0  0  0  0  0  0  0  0
    8.6710   -0.7379   -8.7464 N   0  0  0  0  0  0  0  0  0  0  0  0
   10.6790    0.4115   -6.1920 C   0  0  0  0  0  0  0  0  0  0  0  0
   11.8141    0.4059   -5.9671 N   0  0  0  0  0  0  0  0  0  0  0  0
   -1.0904    0.2523    6.8089 H   0  0  0  0  0  0  0  0  0  0  0  0
   -2.7362    2.8323   11.3637 H   0  0  0  0  0  0  0  0  0  0  0  0
   -1.9302   -2.0777    5.5597 H   0  0  0  0  0  0  0  0  0  0  0  0
   -1.9255   -3.2168   -0.4167 H   0  0  0  0  0  0  0  0  0  0  0  0
   -2.4715    2.8488   -0.9082 H   0  0  0  0  0  0  0  0  0  0  0  0
   -1.8740    2.9267   -2.5721 H   0  0  0  0  0  0  0  0  0  0  0  0
    0.0682    1.4369   -1.9431 H   0  0  0  0  0  0  0  0  0  0  0  0
   -0.5287    1.4364   -0.2295 H   0  0  0  0  0  0  0  0  0  0  0  0
   -0.0007    2.9715   -1.0088 H   0  0  0  0  0  0  0  0  0  0  0  0
   -4.6918    1.9550   -1.7293 H   0  0  0  0  0  0  0  0  0  0  0  0
   -4.7800    0.3673   -2.5605 H   0  0  0  0  0  0  0  0  0  0  0  0
   -3.7403    1.4221   -4.6291 H   0  0  0  0  0  0  0  0  0  0  0  0
   -3.8350    3.0299   -3.7997 H   0  0  0  0  0  0  0  0  0  0  0  0
   -5.3280    2.0957   -4.1514 H   0  0  0  0  0  0  0  0  0  0  0  0
   -3.4266    1.4183    0.7856 H   0  0  0  0  0  0  0  0  0  0  0  0
    1.0251   -3.0391   -3.0197 H   0  0  0  0  0  0  0  0  0  0  0  0
   -0.0577   -3.2641   -1.6384 H   0  0  0  0  0  0  0  0  0  0  0  0
    0.3514   -0.9064   -0.8900 H   0  0  0  0  0  0  0  0  0  0  0  0
    1.8768   -1.8452   -1.0575 H   0  0  0  0  0  0  0  0  0  0  0  0
    1.4307   -0.6484   -2.3214 H   0  0  0  0  0  0  0  0  0  0  0  0
   -0.7929   -3.6771   -4.6838 H   0  0  0  0  0  0  0  0  0  0  0  0
   -2.3243   -2.7540   -4.7571 H   0  0  0  0  0  0  0  0  0  0  0  0
   -3.0108   -3.7838   -2.5337 H   0  0  0  0  0  0  0  0  0  0  0  0
   -2.7557   -4.9714   -3.8537 H   0  0  0  0  0  0  0  0  0  0  0  0
   -1.4966   -4.7828   -2.5940 H   0  0  0  0  0  0  0  0  0  0  0  0
    1.2792   -1.9553   -5.1616 H   0  0  0  0  0  0  0  0  0  0  0  0
   -1.2624    2.3308   -4.6073 H   0  0  0  0  0  0  0  0  0  0  0  0
    4.2711    2.9438   -7.1512 H   0  0  0  0  0  0  0  0  0  0  0  0
    6.6356    0.8301   -7.8982 H   0  0  0  0  0  0  0  0  0  0  0  0
   10.6869    1.7612   -4.0557 H   0  0  0  0  0  0  0  0  0  0  0  0
  1  2  2  3
  2  3  1  0
  3  4  2  0
  3  5  1  0
  5  6  2  0
  6  7  1  0
  7  8  2  0
  8  9  1  0
  8 10  1  0
 10 11  1  0
 10 12  2  0
 12 13  1  0
  6 14  1  0
 14 15  2  3
 15 16  1  0
 16 17  3  0
 15 18  1  0
 18 19  3  0
  1 20  1  0
 20 21  2  0
 21 22  1  0
 22 23  1  0
 23 24  1  0
 24 25  2  0
 25 26  1  0
 26 27  1  0
 27 28  2  0
 28 29  1  0
 29 30  1  0
 30 31  1  0
 29 32  1  0
 32 33  1  0
 29 34  1  0
 34 35  1  0
 35 36  2  0
 36 37  1  0
 37 38  1  0
 28 39  1  0
 39 40  2  0
 40 41  1  0
 41 42  1  0
 42 43  1  0
 41 44  1  0
 44 45  1  0
 40 46  1  0
 46 47  2  0
 47 48  1  0
 48 49  2  0
 48 50  1  0
 50 51  1  0
 51 52  1  0
 52 53  2  0
 53 54  1  0
 54 55  1  0
 53 56  1  0
 56 57  2  3
 57 58  1  0
 58 59  2  0
 58 60  1  0
 60 61  2  0
 61 62  1  0
 62 63  2  0
 63 64  1  0
 63 65  1  0
 65 66  1  0
 65 67  2  0
 67 68  1  0
 61 69  1  0
 69 70  2  3
 70 71  1  0
 71 72  3  0
 70 73  1  0
 73 74  3  0
 14  2  1  0
 38 20  1  0
 49 39  1  0
 55 51  2  0
 69 57  1  0
 12  5  1  0
 37 22  2  0
 55 47  1  0
 67 60  1  0
 36 24  1  0
 34 26  2  0
 41 27  1  0
  1 75  1  0
  7 76  1  0
 21 77  1  0
 25 78  1  0
 30 79  1  0
 30 80  1  0
 31 81  1  0
 31 82  1  0
 31 83  1  0
 32 84  1  0
 32 85  1  0
 33 86  1  0
 33 87  1  0
 33 88  1  0
 35 89  1  0
 42 90  1  0
 42 91  1  0
 43 92  1  0
 43 93  1  0
 43 94  1  0
 44 95  1  0
 44 96  1  0
 45 97  1  0
 45 98  1  0
 45 99  1  0
 46100  1  0
 49101  1  0
 52102  1  0
 56103  1  0
 62104  1  0
M  END

