
     RDKit          3D

 85 96  0  0  0  0  0  0  0  0999 V2000
   -4.2488    2.0030   -6.8803 C   0  0  0  0  0  0  0  0  0  0  0  0
   -3.9495    2.3271   -8.0224 C   0  0  0  0  0  0  0  0  0  0  0  0
   -3.1349    2.4416   -9.2141 C   0  0  0  0  0  0  0  0  0  0  0  0
   -2.3809    1.3001   -9.4006 O   0  0  0  0  0  0  0  0  0  0  0  0
   -3.1304    3.5406  -10.0132 C   0  0  0  0  0  0  0  0  0  0  0  0
   -4.0224    4.3915   -9.4528 C   0  0  0  0  0  0  0  0  0  0  0  0
   -4.1711    5.6469  -10.2149 C   0  0  0  0  0  0  0  0  0  0  0  0
   -3.4546    5.8400  -11.3104 C   0  0  0  0  0  0  0  0  0  0  0  0
   -3.6456    7.0476  -12.0581 F   0  0  0  0  0  0  0  0  0  0  0  0
   -2.5476    4.9953  -11.8752 C   0  0  0  0  0  0  0  0  0  0  0  0
   -1.8513    5.2969  -12.9977 F   0  0  0  0  0  0  0  0  0  0  0  0
   -2.3787    3.7964  -11.1921 C   0  0  0  0  0  0  0  0  0  0  0  0
   -1.4865    2.9029  -11.6136 F   0  0  0  0  0  0  0  0  0  0  0  0
   -4.6233    3.8983   -8.3011 C   0  0  0  0  0  0  0  0  0  0  0  0
   -5.5220    4.3452   -7.5427 C   0  0  0  0  0  0  0  0  0  0  0  0
   -6.2514    3.9530   -6.4601 C   0  0  0  0  0  0  0  0  0  0  0  0
   -6.9298    3.5767   -5.4754 N   0  0  0  0  0  0  0  0  0  0  0  0
   -5.8225    5.8632   -7.7605 C   0  0  0  0  0  0  0  0  0  0  0  0
   -6.0353    6.9776   -7.9306 N   0  0  0  0  0  0  0  0  0  0  0  0
   -3.5552    1.3040   -5.7802 C   0  0  0  0  0  0  0  0  0  0  0  0
   -3.8238    2.0173   -4.5208 C   0  0  0  0  0  0  0  0  0  0  0  0
   -3.3245    1.4377   -3.4358 C   0  0  0  0  0  0  0  0  0  0  0  0
   -3.7564    1.9151   -1.6790 S   0  0  0  0  0  0  0  0  0  0  0  0
   -2.8486    0.6697   -1.0308 C   0  0  0  0  0  0  0  0  0  0  0  0
   -2.2712    0.3281    0.1951 C   0  0  0  0  0  0  0  0  0  0  0  0
   -2.4485    0.7789    1.4122 C   0  0  0  0  0  0  0  0  0  0  0  0
   -2.0700    0.7520    2.5688 C   0  0  0  0  0  0  0  0  0  0  0  0
   -1.6281    0.6917    3.6492 N   0  0  0  0  0  0  0  0  0  0  0  0
   -3.4910    1.4999    3.6926 S   0  0  0  0  0  0  0  0  0  0  0  0
   -3.7575    1.4047    1.9899 N   0  0  0  0  0  0  0  0  0  0  0  0
   -0.8378   -0.4187    2.1310 C   0  0  0  0  0  0  0  0  0  0  0  0
    0.1953   -0.7726    2.9387 C   0  0  0  0  0  0  0  0  0  0  0  0
    1.0744   -1.4338    2.4871 C   0  0  0  0  0  0  0  0  0  0  0  0
    0.6822   -1.6707    1.0985 N   0  0  0  0  0  0  0  0  0  0  0  0
    1.2347   -2.5363    0.2561 C   0  0  0  0  0  0  0  0  0  0  0  0
    2.5233   -2.1720   -0.4255 C   0  0  0  0  0  0  0  0  0  0  0  0
   -0.5913   -0.9249    1.0428 C   0  0  0  0  0  0  0  0  0  0  0  0
   -1.3022   -0.6077   -0.1039 C   0  0  0  0  0  0  0  0  0  0  0  0
   -1.3066   -0.8354   -1.4061 N   0  0  0  0  0  0  0  0  0  0  0  0
   -2.3214   -0.0254   -1.9715 C   0  0  0  0  0  0  0  0  0  0  0  0
   -2.6279    0.4102   -3.2693 C   0  0  0  0  0  0  0  0  0  0  0  0
   -2.5508   -0.0811   -5.1647 Se  0  0  0  0  0  2  0  0  0  0  0  0
   -0.4027   -1.6130   -2.1600 C   0  0  0  0  0  0  0  0  0  0  0  0
   -0.8929   -2.9771   -2.4526 C   0  0  0  0  0  0  0  0  0  0  0  0
    2.2077   -1.7271    3.1429 C   0  0  0  0  0  0  0  0  0  0  0  0
    2.1932   -1.1726    4.4907 C   0  0  0  0  0  0  0  0  0  0  0  0
    0.7142   -0.3992    4.5689 S   0  0  0  0  0  0  0  0  0  0  0  0
    3.2686   -1.2384    5.2380 C   0  0  0  0  0  0  0  0  0  0  0  0
    4.4730   -1.7681    4.9354 C   0  0  0  0  0  0  0  0  0  0  0  0
    4.1776   -2.3667    3.2589 Se  0  0  0  0  0  2  0  0  0  0  0  0
    5.5908   -1.4184    5.8866 C   0  0  0  0  0  0  0  0  0  0  0  0
    5.4204   -2.0490    7.1452 C   0  0  0  0  0  0  0  0  0  0  0  0
    4.3515   -2.9952    7.3877 C   0  0  0  0  0  0  0  0  0  0  0  0
    3.8782   -3.7259    6.3834 O   0  0  0  0  0  0  0  0  0  0  0  0
    3.9382   -3.0889    8.6760 C   0  0  0  0  0  0  0  0  0  0  0  0
    3.0145   -3.8368    9.4708 C   0  0  0  0  0  0  0  0  0  0  0  0
    2.8826   -3.6577   10.8570 C   0  0  0  0  0  0  0  0  0  0  0  0
    1.7176   -4.6564   11.7833 Cl  0  0  0  0  0  0  0  0  0  0  0  0
    3.6417   -2.7754   11.4267 C   0  0  0  0  0  0  0  0  0  0  0  0
    3.5098   -2.5478   12.7841 F   0  0  0  0  0  0  0  0  0  0  0  0
    4.5880   -2.0094   10.7187 C   0  0  0  0  0  0  0  0  0  0  0  0
    4.7612   -2.1468    9.4422 C   0  0  0  0  0  0  0  0  0  0  0  0
    5.7279   -1.4833    8.3058 C   0  0  0  0  0  0  0  0  0  0  0  0
    6.4135   -0.5828    9.0391 C   0  0  0  0  0  0  0  0  0  0  0  0
    7.3395    0.1838    7.8087 C   0  0  0  0  0  0  0  0  0  0  0  0
    7.9177    0.6814    7.0456 N   0  0  0  0  0  0  0  0  0  0  0  0
    6.6953    0.1164   10.0688 C   0  0  0  0  0  0  0  0  0  0  0  0
    6.9642    0.7807   11.0147 N   0  0  0  0  0  0  0  0  0  0  0  0
   -5.3705    2.0294   -6.6408 H   0  0  0  0  0  0  0  0  0  0  0  0
   -4.8952    6.3250   -9.8652 H   0  0  0  0  0  0  0  0  0  0  0  0
   -4.3675    2.9483   -4.6030 H   0  0  0  0  0  0  0  0  0  0  0  0
    0.5775   -3.1536   -0.4150 H   0  0  0  0  0  0  0  0  0  0  0  0
    1.5653   -3.4999    0.8779 H   0  0  0  0  0  0  0  0  0  0  0  0
    2.8215   -1.1442   -0.3986 H   0  0  0  0  0  0  0  0  0  0  0  0
    3.4314   -2.7465    0.0482 H   0  0  0  0  0  0  0  0  0  0  0  0
    2.5612   -2.5480   -1.4859 H   0  0  0  0  0  0  0  0  0  0  0  0
    0.6480   -1.4287   -1.9776 H   0  0  0  0  0  0  0  0  0  0  0  0
   -0.3974   -1.1241   -3.2635 H   0  0  0  0  0  0  0  0  0  0  0  0
   -1.5122   -3.4121   -1.6057 H   0  0  0  0  0  0  0  0  0  0  0  0
   -1.4404   -2.9964   -3.3974 H   0  0  0  0  0  0  0  0  0  0  0  0
   -0.0004   -3.6400   -2.6144 H   0  0  0  0  0  0  0  0  0  0  0  0
    3.2535   -0.8100    6.3252 H   0  0  0  0  0  0  0  0  0  0  0  0
    6.3274   -0.8269    5.6609 H   0  0  0  0  0  0  0  0  0  0  0  0
    2.3615   -4.5574    8.9809 H   0  0  0  0  0  0  0  0  0  0  0  0
    5.1639   -1.3234   11.3512 H   0  0  0  0  0  0  0  0  0  0  0  0
  1  2  2  3
  2  3  1  0
  3  4  2  0
  3  5  1  0
  5  6  2  0
  6  7  1  0
  7  8  2  0
  8  9  1  0
  8 10  1  0
 10 11  1  0
 10 12  2  0
 12 13  1  0
  6 14  1  0
 14 15  2  3
 15 16  1  0
 16 17  3  0
 15 18  1  0
 18 19  3  0
  1 20  1  0
 20 21  2  0
 21 22  1  0
 22 23  1  0
 23 24  1  0
 24 25  1  0
 25 26  1  0
 26 27  1  0
 27 28  2  0
 28 29  1  0
 29 30  1  0
 27 31  1  0
 31 32  1  0
 32 33  2  0
 33 34  1  0
 34 35  1  0
 35 36  1  0
 34 37  1  0
 37 38  1  0
 38 39  1  0
 39 40  1  0
 40 41  1  0
 41 42  1  0
 39 43  1  0
 43 44  1  0
 33 45  1  0
 45 46  2  0
 46 47  1  0
 46 48  1  0
 48 49  2  0
 49 50  1  0
 49 51  1  0
 51 52  2  3
 52 53  1  0
 53 54  2  0
 53 55  1  0
 55 56  2  0
 56 57  1  0
 57 58  1  0
 57 59  2  0
 59 60  1  0
 59 61  1  0
 61 62  2  0
 62 63  1  0
 63 64  2  3
 64 65  1  0
 65 66  3  0
 64 67  1  0
 67 68  3  0
 14  2  1  0
 42 20  1  0
 50 45  1  0
 63 52  1  0
 12  5  1  0
 41 22  2  0
 62 55  1  0
 40 24  2  0
 38 25  2  0
 30 26  2  0
 37 31  2  0
 47 32  1  0
  1 69  1  0
  7 70  1  0
 21 71  1  0
 35 72  1  0
 35 73  1  0
 36 74  1  0
 36 75  1  0
 36 76  1  0
 43 77  1  0
 43 78  1  0
 44 79  1  0
 44 80  1  0
 44 81  1  0
 48 82  1  0
 51 83  1  0
 56 84  1  0
 61 85  1  0
M  END

