
     RDKit          3D

100111  0  0  0  0  0  0  0  0999 V2000
    0.4252   -2.4336    6.7563 C   0  0  0  0  0  0  0  0  0  0  0  0
    1.2799   -1.3936    6.7906 C   0  0  0  0  0  0  0  0  0  0  0  0
    1.9377   -0.7869    5.6251 C   0  0  0  0  0  0  0  0  0  0  0  0
    1.6054   -0.9265    4.4170 O   0  0  0  0  0  0  0  0  0  0  0  0
    3.0619   -0.0071    6.0955 C   0  0  0  0  0  0  0  0  0  0  0  0
    3.1057   -0.0502    7.4803 C   0  0  0  0  0  0  0  0  0  0  0  0
    4.1815    0.5418    8.1625 C   0  0  0  0  0  0  0  0  0  0  0  0
    5.1711    1.2125    7.4253 C   0  0  0  0  0  0  0  0  0  0  0  0
    6.2270    1.7729    8.0680 F   0  0  0  0  0  0  0  0  0  0  0  0
    5.0963    1.2735    6.0214 C   0  0  0  0  0  0  0  0  0  0  0  0
    6.0723    1.9013    5.3162 F   0  0  0  0  0  0  0  0  0  0  0  0
    4.0343    0.6552    5.3458 C   0  0  0  0  0  0  0  0  0  0  0  0
    3.9736    0.6785    3.9913 F   0  0  0  0  0  0  0  0  0  0  0  0
    1.9309   -0.8075    7.9979 C   0  0  0  0  0  0  0  0  0  0  0  0
    1.3931   -0.7263    9.2425 C   0  0  0  0  0  0  0  0  0  0  0  0
    0.0580   -1.1929    9.5206 C   0  0  0  0  0  0  0  0  0  0  0  0
   -1.0201   -1.5533    9.7343 N   0  0  0  0  0  0  0  0  0  0  0  0
    2.0271   -0.0018   10.3131 C   0  0  0  0  0  0  0  0  0  0  0  0
    2.5224    0.5767   11.1848 N   0  0  0  0  0  0  0  0  0  0  0  0
   -0.1200   -2.9567    5.4967 C   0  0  0  0  0  0  0  0  0  0  0  0
    0.7141   -4.0821    4.5189 S   0  0  0  0  0  0  0  0  0  0  0  0
   -0.3590   -3.8737    3.2545 C   0  0  0  0  0  0  0  0  0  0  0  0
   -0.4494   -4.1968    1.9366 C   0  0  0  0  0  0  0  0  0  0  0  0
    0.3175   -5.0516    1.1455 C   0  0  0  0  0  0  0  0  0  0  0  0
    0.0276   -5.1323   -0.2440 C   0  0  0  0  0  0  0  0  0  0  0  0
    0.8035   -5.9604   -0.9864 N   0  0  0  0  0  0  0  0  0  0  0  0
    1.7976   -6.5516    0.1992 S   0  0  0  0  0  0  0  0  0  0  0  0
    1.3322   -5.8219    1.6111 N   0  0  0  0  0  0  0  0  0  0  0  0
   -0.9712   -4.3082   -0.7729 C   0  0  0  0  0  0  0  0  0  0  0  0
   -1.2070   -3.9637   -2.0704 C   0  0  0  0  0  0  0  0  0  0  0  0
   -0.4669   -4.2499   -3.5727 S   0  0  0  0  0  0  0  0  0  0  0  0
   -1.2325   -2.8831   -4.2390 C   0  0  0  0  0  0  0  0  0  0  0  0
   -1.1315   -2.2485   -5.4787 C   0  0  0  0  0  0  0  0  0  0  0  0
   -0.2792   -2.7401   -6.6155 C   0  0  0  0  0  0  0  0  0  0  0  0
    1.1010   -2.0934   -6.5679 C   0  0  0  0  0  0  0  0  0  0  0  0
   -1.8143   -1.0217   -5.4647 C   0  0  0  0  0  0  0  0  0  0  0  0
   -2.5379   -0.7679   -3.9423 S   0  0  0  0  0  0  0  0  0  0  0  0
   -1.9794   -2.2152   -3.2997 C   0  0  0  0  0  0  0  0  0  0  0  0
   -1.9707   -2.8457   -2.0573 C   0  0  0  0  0  0  0  0  0  0  0  0
   -2.2875   -2.4414   -0.7998 N   0  0  0  0  0  0  0  0  0  0  0  0
   -1.6976   -3.3872    0.0134 C   0  0  0  0  0  0  0  0  0  0  0  0
   -1.4981   -3.4120    1.4299 C   0  0  0  0  0  0  0  0  0  0  0  0
   -2.1205   -2.7331    2.4554 N   0  0  0  0  0  0  0  0  0  0  0  0
   -1.3329   -2.9880    3.5367 C   0  0  0  0  0  0  0  0  0  0  0  0
   -1.2352   -2.4183    4.8181 C   0  0  0  0  0  0  0  0  0  0  0  0
   -2.0710   -1.2909    5.3716 C   0  0  0  0  0  0  0  0  0  0  0  0
   -3.0927   -1.8174    6.3787 C   0  0  0  0  0  0  0  0  0  0  0  0
   -3.5237   -2.2987    2.5574 C   0  0  0  0  0  0  0  0  0  0  0  0
   -4.4882   -3.2581    1.8551 C   0  0  0  0  0  0  0  0  0  0  0  0
   -2.8243   -1.1143   -0.4701 C   0  0  0  0  0  0  0  0  0  0  0  0
   -1.7535   -0.2075    0.1312 C   0  0  0  0  0  0  0  0  0  0  0  0
   -1.9190   -0.0919   -6.5981 C   0  0  0  0  0  0  0  0  0  0  0  0
   -1.4267    1.1603   -6.5796 C   0  0  0  0  0  0  0  0  0  0  0  0
   -0.4708    1.6882   -5.5966 C   0  0  0  0  0  0  0  0  0  0  0  0
   -0.1556    1.1314   -4.5102 O   0  0  0  0  0  0  0  0  0  0  0  0
    0.1635    2.8818   -6.1542 C   0  0  0  0  0  0  0  0  0  0  0  0
   -0.3811    3.1183   -7.4118 C   0  0  0  0  0  0  0  0  0  0  0  0
    0.1713    4.1010   -8.2451 C   0  0  0  0  0  0  0  0  0  0  0  0
    1.2339    4.8836   -7.7794 C   0  0  0  0  0  0  0  0  0  0  0  0
    1.7632    4.6808   -6.4910 C   0  0  0  0  0  0  0  0  0  0  0  0
    2.8323    5.4698   -6.0383 C   0  0  0  0  0  0  0  0  0  0  0  0
    3.3697    5.2615   -4.7680 C   0  0  0  0  0  0  0  0  0  0  0  0
    2.8473    4.2680   -3.9376 C   0  0  0  0  0  0  0  0  0  0  0  0
    1.7839    3.4708   -4.3729 C   0  0  0  0  0  0  0  0  0  0  0  0
    1.2300    3.6620   -5.6537 C   0  0  0  0  0  0  0  0  0  0  0  0
   -1.4692    2.1436   -7.6951 C   0  0  0  0  0  0  0  0  0  0  0  0
   -2.4559    2.2688   -8.6210 C   0  0  0  0  0  0  0  0  0  0  0  0
   -3.5942    1.3843   -8.6547 C   0  0  0  0  0  0  0  0  0  0  0  0
   -4.5130    0.6808   -8.6902 N   0  0  0  0  0  0  0  0  0  0  0  0
   -2.5228    3.3748   -9.5418 C   0  0  0  0  0  0  0  0  0  0  0  0
   -2.5931    4.2622  -10.2831 N   0  0  0  0  0  0  0  0  0  0  0  0
    0.1277   -2.9387    7.6631 H   0  0  0  0  0  0  0  0  0  0  0  0
    4.2938    0.4680    9.2321 H   0  0  0  0  0  0  0  0  0  0  0  0
   -0.1690   -3.8456   -6.5606 H   0  0  0  0  0  0  0  0  0  0  0  0
   -0.7648   -2.5004   -7.5837 H   0  0  0  0  0  0  0  0  0  0  0  0
    1.0143   -0.9887   -6.6561 H   0  0  0  0  0  0  0  0  0  0  0  0
    1.6150   -2.3481   -5.6167 H   0  0  0  0  0  0  0  0  0  0  0  0
    1.7146   -2.4655   -7.4150 H   0  0  0  0  0  0  0  0  0  0  0  0
   -2.5759   -0.7291    4.5612 H   0  0  0  0  0  0  0  0  0  0  0  0
   -1.4124   -0.5584    5.8855 H   0  0  0  0  0  0  0  0  0  0  0  0
   -3.7571   -2.5742    5.9120 H   0  0  0  0  0  0  0  0  0  0  0  0
   -2.5758   -2.2867    7.2418 H   0  0  0  0  0  0  0  0  0  0  0  0
   -3.7136   -0.9759    6.7508 H   0  0  0  0  0  0  0  0  0  0  0  0
   -3.8466   -2.3162    3.6142 H   0  0  0  0  0  0  0  0  0  0  0  0
   -3.6357   -1.2459    2.2444 H   0  0  0  0  0  0  0  0  0  0  0  0
   -5.5289   -2.8923    1.9798 H   0  0  0  0  0  0  0  0  0  0  0  0
   -4.2856   -3.3438    0.7712 H   0  0  0  0  0  0  0  0  0  0  0  0
   -4.4114   -4.2683    2.3086 H   0  0  0  0  0  0  0  0  0  0  0  0
   -3.7153   -1.1961    0.1640 H   0  0  0  0  0  0  0  0  0  0  0  0
   -3.2179   -0.6185   -1.3741 H   0  0  0  0  0  0  0  0  0  0  0  0
   -1.3729   -0.6132    1.0894 H   0  0  0  0  0  0  0  0  0  0  0  0
   -2.1855    0.7970    0.3229 H   0  0  0  0  0  0  0  0  0  0  0  0
   -0.9063   -0.1031   -0.5789 H   0  0  0  0  0  0  0  0  0  0  0  0
   -2.3384   -0.4947   -7.5062 H   0  0  0  0  0  0  0  0  0  0  0  0
   -0.1640    4.2485   -9.2585 H   0  0  0  0  0  0  0  0  0  0  0  0
    1.6533    5.6426   -8.4309 H   0  0  0  0  0  0  0  0  0  0  0  0
    3.2557    6.2411   -6.6689 H   0  0  0  0  0  0  0  0  0  0  0  0
    4.1945    5.8729   -4.4231 H   0  0  0  0  0  0  0  0  0  0  0  0
    3.2677    4.1150   -2.9507 H   0  0  0  0  0  0  0  0  0  0  0  0
    1.4002    2.7294   -3.6912 H   0  0  0  0  0  0  0  0  0  0  0  0
  1  2  2  3
  2  3  1  0
  3  4  2  0
  3  5  1  0
  5  6  2  0
  6  7  1  0
  7  8  2  0
  8  9  1  0
  8 10  1  0
 10 11  1  0
 10 12  2  0
 12 13  1  0
  6 14  1  0
 14 15  2  3
 15 16  1  0
 16 17  3  0
 15 18  1  0
 18 19  3  0
  1 20  1  0
 20 21  1  0
 21 22  1  0
 22 23  1  0
 23 24  1  0
 24 25  1  0
 25 26  2  0
 26 27  1  0
 27 28  1  0
 25 29  1  0
 29 30  1  0
 30 31  1  0
 31 32  1  0
 32 33  1  0
 33 34  1  0
 34 35  1  0
 33 36  2  0
 36 37  1  0
 37 38  1  0
 38 39  1  0
 39 40  1  0
 40 41  1  0
 41 42  1  0
 42 43  1  0
 43 44  1  0
 44 45  1  0
 45 46  1  0
 46 47  1  0
 43 48  1  0
 48 49  1  0
 40 50  1  0
 50 51  1  0
 36 52  1  0
 52 53  2  3
 53 54  1  0
 54 55  2  0
 54 56  1  0
 56 57  2  0
 57 58  1  0
 58 59  2  0
 59 60  1  0
 60 61  2  0
 61 62  1  0
 62 63  2  0
 63 64  1  0
 64 65  2  0
 57 66  1  0
 66 67  2  3
 67 68  1  0
 68 69  3  0
 67 70  1  0
 70 71  3  0
 14  2  1  0
 45 20  2  0
 66 53  1  0
 12  5  1  0
 44 22  2  0
 65 56  1  0
 42 23  2  0
 65 60  1  0
 28 24  2  0
 41 29  2  0
 39 30  2  0
 38 32  2  0
  1 72  1  0
  7 73  1  0
 34 74  1  0
 34 75  1  0
 35 76  1  0
 35 77  1  0
 35 78  1  0
 46 79  1  0
 46 80  1  0
 47 81  1  0
 47 82  1  0
 47 83  1  0
 48 84  1  0
 48 85  1  0
 49 86  1  0
 49 87  1  0
 49 88  1  0
 50 89  1  0
 50 90  1  0
 51 91  1  0
 51 92  1  0
 51 93  1  0
 52 94  1  0
 58 95  1  0
 59 96  1  0
 61 97  1  0
 62 98  1  0
 63 99  1  0
 64100  1  0
M  END

