
     RDKit          3D

134146  0  0  0  0  0  0  0  0999 V2000
   -0.6569    0.7744    6.0213 C   0  0  0  0  0  0  0  0  0  0  0  0
   -0.2351    0.5049    7.3055 C   0  0  0  0  0  0  0  0  0  0  0  0
    0.5684   -0.6500    7.7581 C   0  0  0  0  0  0  0  0  0  0  0  0
    0.8680   -1.6354    7.0371 O   0  0  0  0  0  0  0  0  0  0  0  0
    0.7626   -0.6261    9.1791 C   0  0  0  0  0  0  0  0  0  0  0  0
    0.1410    0.5238    9.6515 C   0  0  0  0  0  0  0  0  0  0  0  0
    0.0376    0.6955   11.0409 C   0  0  0  0  0  0  0  0  0  0  0  0
    0.9015   -0.0492   11.8802 C   0  0  0  0  0  0  0  0  0  0  0  0
    0.6470   -0.1225   13.2146 F   0  0  0  0  0  0  0  0  0  0  0  0
    1.8976   -0.8610   11.2869 C   0  0  0  0  0  0  0  0  0  0  0  0
    2.8359   -1.4863   12.0525 F   0  0  0  0  0  0  0  0  0  0  0  0
    1.8385   -1.1419    9.9052 C   0  0  0  0  0  0  0  0  0  0  0  0
    2.9320   -1.6023    9.2291 F   0  0  0  0  0  0  0  0  0  0  0  0
   -0.4213    1.3410    8.5372 C   0  0  0  0  0  0  0  0  0  0  0  0
   -0.6811    2.6758    8.6047 C   0  0  0  0  0  0  0  0  0  0  0  0
   -0.4778    3.4355    9.8209 C   0  0  0  0  0  0  0  0  0  0  0  0
   -0.2595    3.9897   10.8097 N   0  0  0  0  0  0  0  0  0  0  0  0
   -1.0322    3.5276    7.5062 C   0  0  0  0  0  0  0  0  0  0  0  0
   -1.2487    4.2084    6.6038 N   0  0  0  0  0  0  0  0  0  0  0  0
   -0.6690   -0.0674    4.7996 C   0  0  0  0  0  0  0  0  0  0  0  0
    0.3407   -0.8996    4.3822 C   0  0  0  0  0  0  0  0  0  0  0  0
   -0.0023   -1.6099    3.2778 C   0  0  0  0  0  0  0  0  0  0  0  0
    0.8820   -2.4466    2.6486 O   0  0  0  0  0  0  0  0  0  0  0  0
    1.0434   -2.3163    1.2285 C   0  0  0  0  0  0  0  0  0  0  0  0
    1.9268   -3.4555    0.7093 C   0  0  0  0  0  0  0  0  0  0  0  0
    2.7694   -3.2536   -0.4168 C   0  0  0  0  0  0  0  0  0  0  0  0
    3.6570   -4.2380   -0.8333 C   0  0  0  0  0  0  0  0  0  0  0  0
    3.7237   -5.4759   -0.1517 C   0  0  0  0  0  0  0  0  0  0  0  0
    4.7690   -6.4653   -0.5084 C   0  0  0  0  0  0  0  0  0  0  0  0
    6.0165   -6.2892    0.3587 C   0  0  0  0  0  0  0  0  0  0  0  0
    2.8873   -5.6701    0.9584 C   0  0  0  0  0  0  0  0  0  0  0  0
    1.9899   -4.6768    1.3844 C   0  0  0  0  0  0  0  0  0  0  0  0
    1.7109   -0.9354    1.0184 C   0  0  0  0  0  0  0  0  0  0  0  0
    0.9960    0.2085    0.6038 C   0  0  0  0  0  0  0  0  0  0  0  0
    1.4704    1.4937    0.8373 C   0  0  0  0  0  0  0  0  0  0  0  0
    2.7936    1.6903    1.2994 C   0  0  0  0  0  0  0  0  0  0  0  0
    3.2369    3.0849    1.6858 C   0  0  0  0  0  0  0  0  0  0  0  0
    2.8792    4.1312    0.6321 C   0  0  0  0  0  0  0  0  0  0  0  0
    3.5562    0.5796    1.6401 C   0  0  0  0  0  0  0  0  0  0  0  0
    3.0168   -0.7081    1.5213 C   0  0  0  0  0  0  0  0  0  0  0  0
   -0.3631   -2.3358    0.6038 C   0  0  0  0  0  0  0  0  0  0  0  0
   -1.4765   -1.7329    1.2655 C   0  0  0  0  0  0  0  0  0  0  0  0
   -1.2215   -1.3251    2.6966 C   0  0  0  0  0  0  0  0  0  0  0  0
   -1.9357   -0.1256    3.6645 S   0  0  0  0  0  0  0  0  0  0  0  0
   -2.5426   -1.2507    0.5440 C   0  0  0  0  0  0  0  0  0  0  0  0
   -2.6179   -1.4748   -0.8698 C   0  0  0  0  0  0  0  0  0  0  0  0
   -1.6738   -2.3010   -1.4848 C   0  0  0  0  0  0  0  0  0  0  0  0
   -0.5168   -2.6757   -0.7696 C   0  0  0  0  0  0  0  0  0  0  0  0
   -1.6987   -2.5103   -2.9342 C   0  0  0  0  0  0  0  0  0  0  0  0
   -0.5518   -3.0787   -4.0154 S   0  0  0  0  0  0  0  0  0  0  0  0
   -1.4857   -2.8726   -5.4054 C   0  0  0  0  0  0  0  0  0  0  0  0
   -2.7693   -2.4629   -5.0030 C   0  0  0  0  0  0  0  0  0  0  0  0
   -2.8228   -2.1607   -3.6203 C   0  0  0  0  0  0  0  0  0  0  0  0
   -3.8180   -1.3981   -2.9881 O   0  0  0  0  0  0  0  0  0  0  0  0
   -3.4941   -0.5905   -1.8411 C   0  0  0  0  0  0  0  0  0  0  0  0
   -4.8080    0.0422   -1.3693 C   0  0  0  0  0  0  0  0  0  0  0  0
   -5.3771    1.0380   -2.2023 C   0  0  0  0  0  0  0  0  0  0  0  0
   -6.4452    1.8318   -1.7889 C   0  0  0  0  0  0  0  0  0  0  0  0
   -7.0351    1.5868   -0.5391 C   0  0  0  0  0  0  0  0  0  0  0  0
   -8.1591    2.4916   -0.0867 C   0  0  0  0  0  0  0  0  0  0  0  0
   -9.4970    2.0437   -0.6626 C   0  0  0  0  0  0  0  0  0  0  0  0
   -6.6065    0.5038    0.2326 C   0  0  0  0  0  0  0  0  0  0  0  0
   -5.5128   -0.2941   -0.1769 C   0  0  0  0  0  0  0  0  0  0  0  0
   -2.5722    0.5562   -2.2548 C   0  0  0  0  0  0  0  0  0  0  0  0
   -2.3167    0.8657   -3.6037 C   0  0  0  0  0  0  0  0  0  0  0  0
   -1.4645    1.8979   -3.9614 C   0  0  0  0  0  0  0  0  0  0  0  0
   -0.8544    2.6785   -2.9666 C   0  0  0  0  0  0  0  0  0  0  0  0
    0.2216    3.6304   -3.3399 C   0  0  0  0  0  0  0  0  0  0  0  0
    1.5562    2.9018   -3.4203 C   0  0  0  0  0  0  0  0  0  0  0  0
   -1.1674    2.4476   -1.6311 C   0  0  0  0  0  0  0  0  0  0  0  0
   -2.0255    1.4113   -1.2599 C   0  0  0  0  0  0  0  0  0  0  0  0
   -1.0769   -3.3096   -6.7385 C   0  0  0  0  0  0  0  0  0  0  0  0
   -0.2319   -2.6131   -7.5397 C   0  0  0  0  0  0  0  0  0  0  0  0
    0.5770   -3.2328   -8.5668 C   0  0  0  0  0  0  0  0  0  0  0  0
    0.4360   -4.4040   -9.0136 O   0  0  0  0  0  0  0  0  0  0  0  0
    1.6602   -2.3259   -8.9078 C   0  0  0  0  0  0  0  0  0  0  0  0
    2.7011   -2.5123   -9.8243 C   0  0  0  0  0  0  0  0  0  0  0  0
    3.6464   -1.4878   -9.9778 C   0  0  0  0  0  0  0  0  0  0  0  0
    4.6597   -1.6312  -10.8577 F   0  0  0  0  0  0  0  0  0  0  0  0
    3.5612   -0.3386   -9.1836 C   0  0  0  0  0  0  0  0  0  0  0  0
    4.4828    0.6489   -9.3257 F   0  0  0  0  0  0  0  0  0  0  0  0
    2.5145   -0.1711   -8.2686 C   0  0  0  0  0  0  0  0  0  0  0  0
    1.5448   -1.1810   -8.1563 C   0  0  0  0  0  0  0  0  0  0  0  0
    0.2721   -1.2124   -7.3873 C   0  0  0  0  0  0  0  0  0  0  0  0
   -0.4989   -0.1286   -7.1188 C   0  0  0  0  0  0  0  0  0  0  0  0
   -1.9353   -0.2058   -7.1058 C   0  0  0  0  0  0  0  0  0  0  0  0
   -3.0855   -0.2281   -7.1376 N   0  0  0  0  0  0  0  0  0  0  0  0
    0.0216    1.2134   -7.1661 C   0  0  0  0  0  0  0  0  0  0  0  0
    0.4353    2.2968   -7.2118 N   0  0  0  0  0  0  0  0  0  0  0  0
   -1.2472    1.6624    5.8344 H   0  0  0  0  0  0  0  0  0  0  0  0
   -0.6604    1.3853   11.4891 H   0  0  0  0  0  0  0  0  0  0  0  0
    1.3136   -0.9669    4.8987 H   0  0  0  0  0  0  0  0  0  0  0  0
    2.7325   -2.3287   -0.9831 H   0  0  0  0  0  0  0  0  0  0  0  0
    4.3070   -4.0503   -1.6679 H   0  0  0  0  0  0  0  0  0  0  0  0
    4.3673   -7.5074   -0.3843 H   0  0  0  0  0  0  0  0  0  0  0  0
    5.0537   -6.3567   -1.5794 H   0  0  0  0  0  0  0  0  0  0  0  0
    6.8370   -6.9228   -0.0315 H   0  0  0  0  0  0  0  0  0  0  0  0
    5.7895   -6.6095    1.4057 H   0  0  0  0  0  0  0  0  0  0  0  0
    6.3385   -5.2373    0.3562 H   0  0  0  0  0  0  0  0  0  0  0  0
    2.9325   -6.6026    1.5179 H   0  0  0  0  0  0  0  0  0  0  0  0
    1.3599   -4.8692    2.2331 H   0  0  0  0  0  0  0  0  0  0  0  0
    0.0039    0.1386    0.1989 H   0  0  0  0  0  0  0  0  0  0  0  0
    0.8162    2.3321    0.6391 H   0  0  0  0  0  0  0  0  0  0  0  0
    2.7668    3.3501    2.6585 H   0  0  0  0  0  0  0  0  0  0  0  0
    4.3344    3.0971    1.8311 H   0  0  0  0  0  0  0  0  0  0  0  0
    3.1203    3.7590   -0.3786 H   0  0  0  0  0  0  0  0  0  0  0  0
    3.4254    5.0846    0.8327 H   0  0  0  0  0  0  0  0  0  0  0  0
    1.7931    4.3611    0.6827 H   0  0  0  0  0  0  0  0  0  0  0  0
    4.5879    0.6926    1.9749 H   0  0  0  0  0  0  0  0  0  0  0  0
    3.6251   -1.5513    1.8386 H   0  0  0  0  0  0  0  0  0  0  0  0
   -3.2495   -0.5661    1.0215 H   0  0  0  0  0  0  0  0  0  0  0  0
    0.2805   -3.1630   -1.3004 H   0  0  0  0  0  0  0  0  0  0  0  0
   -3.6058   -2.3300   -5.6952 H   0  0  0  0  0  0  0  0  0  0  0  0
   -4.9466    1.2707   -3.1731 H   0  0  0  0  0  0  0  0  0  0  0  0
   -6.7896    2.6318   -2.4106 H   0  0  0  0  0  0  0  0  0  0  0  0
   -7.9440    3.5358   -0.4347 H   0  0  0  0  0  0  0  0  0  0  0  0
   -8.2177    2.5120    1.0130 H   0  0  0  0  0  0  0  0  0  0  0  0
  -10.2801    2.7996   -0.4233 H   0  0  0  0  0  0  0  0  0  0  0  0
   -9.4355    1.9449   -1.7778 H   0  0  0  0  0  0  0  0  0  0  0  0
   -9.7809    1.0588   -0.2448 H   0  0  0  0  0  0  0  0  0  0  0  0
   -7.0949    0.2682    1.1609 H   0  0  0  0  0  0  0  0  0  0  0  0
   -5.2209   -1.1256    0.4168 H   0  0  0  0  0  0  0  0  0  0  0  0
   -2.8060    0.3260   -4.4070 H   0  0  0  0  0  0  0  0  0  0  0  0
   -1.2578    2.0749   -4.9892 H   0  0  0  0  0  0  0  0  0  0  0  0
    0.2951    4.4498   -2.5760 H   0  0  0  0  0  0  0  0  0  0  0  0
    0.0007    4.1161   -4.3310 H   0  0  0  0  0  0  0  0  0  0  0  0
    2.3719    3.6068   -3.6581 H   0  0  0  0  0  0  0  0  0  0  0  0
    1.5184    2.1147   -4.1949 H   0  0  0  0  0  0  0  0  0  0  0  0
    1.7870    2.4045   -2.4465 H   0  0  0  0  0  0  0  0  0  0  0  0
   -0.7565    3.0738   -0.8673 H   0  0  0  0  0  0  0  0  0  0  0  0
   -2.2813    1.2959   -0.2274 H   0  0  0  0  0  0  0  0  0  0  0  0
   -1.2961   -4.3434   -6.9795 H   0  0  0  0  0  0  0  0  0  0  0  0
    2.7623   -3.4105  -10.4131 H   0  0  0  0  0  0  0  0  0  0  0  0
    2.4839    0.7307   -7.6658 H   0  0  0  0  0  0  0  0  0  0  0  0
  1  2  2  3
  2  3  1  0
  3  4  2  0
  3  5  1  0
  5  6  2  0
  6  7  1  0
  7  8  2  0
  8  9  1  0
  8 10  1  0
 10 11  1  0
 10 12  2  0
 12 13  1  0
  6 14  1  0
 14 15  2  3
 15 16  1  0
 16 17  3  0
 15 18  1  0
 18 19  3  0
  1 20  1  0
 20 21  2  0
 21 22  1  0
 22 23  1  0
 23 24  1  0
 24 25  1  0
 25 26  2  0
 26 27  1  0
 27 28  2  0
 28 29  1  0
 29 30  1  0
 28 31  1  0
 31 32  2  0
 24 33  1  0
 33 34  2  0
 34 35  1  0
 35 36  2  0
 36 37  1  0
 37 38  1  0
 36 39  1  0
 39 40  2  0
 24 41  1  0
 41 42  2  0
 42 43  1  0
 43 44  1  0
 42 45  1  0
 45 46  2  0
 46 47  1  0
 47 48  2  0
 47 49  1  0
 49 50  1  0
 50 51  1  0
 51 52  2  0
 52 53  1  0
 53 54  1  0
 54 55  1  0
 55 56  1  0
 56 57  2  0
 57 58  1  0
 58 59  2  0
 59 60  1  0
 60 61  1  0
 59 62  1  0
 62 63  2  0
 55 64  1  0
 64 65  2  0
 65 66  1  0
 66 67  2  0
 67 68  1  0
 68 69  1  0
 67 70  1  0
 70 71  2  0
 51 72  1  0
 72 73  2  3
 73 74  1  0
 74 75  2  0
 74 76  1  0
 76 77  2  0
 77 78  1  0
 78 79  1  0
 78 80  2  0
 80 81  1  0
 80 82  1  0
 82 83  2  0
 83 84  1  0
 84 85  2  3
 85 86  1  0
 86 87  3  0
 85 88  1  0
 88 89  3  0
 14  2  1  0
 44 20  1  0
 55 46  1  0
 63 56  1  0
 71 64  1  0
 84 73  1  0
 12  5  1  0
 43 22  2  0
 53 49  2  0
 83 76  1  0
 32 25  1  0
 40 33  1  0
 48 41  1  0
  1 90  1  0
  7 91  1  0
 21 92  1  0
 26 93  1  0
 27 94  1  0
 29 95  1  0
 29 96  1  0
 30 97  1  0
 30 98  1  0
 30 99  1  0
 31100  1  0
 32101  1  0
 34102  1  0
 35103  1  0
 37104  1  0
 37105  1  0
 38106  1  0
 38107  1  0
 38108  1  0
 39109  1  0
 40110  1  0
 45111  1  0
 48112  1  0
 52113  1  0
 57114  1  0
 58115  1  0
 60116  1  0
 60117  1  0
 61118  1  0
 61119  1  0
 61120  1  0
 62121  1  0
 63122  1  0
 65123  1  0
 66124  1  0
 68125  1  0
 68126  1  0
 69127  1  0
 69128  1  0
 69129  1  0
 70130  1  0
 71131  1  0
 72132  1  0
 77133  1  0
 82134  1  0
M  END

