
     RDKit          3D

150165  0  0  0  0  0  0  0  0999 V2000
    5.4807   -5.4969    0.5112 C   0  0  0  0  0  0  0  0  0  0  0  0
    5.8915   -6.0749    1.6583 C   0  0  0  0  0  0  0  0  0  0  0  0
    5.1890   -6.0652    2.9444 C   0  0  0  0  0  0  0  0  0  0  0  0
    4.3011   -5.2483    3.3091 O   0  0  0  0  0  0  0  0  0  0  0  0
    5.7642   -7.0964    3.7842 C   0  0  0  0  0  0  0  0  0  0  0  0
    6.8369   -7.6720    3.1299 C   0  0  0  0  0  0  0  0  0  0  0  0
    7.4629   -8.8081    3.6708 C   0  0  0  0  0  0  0  0  0  0  0  0
    7.0265   -9.2994    4.9127 C   0  0  0  0  0  0  0  0  0  0  0  0
    7.6160  -10.4019    5.4418 F   0  0  0  0  0  0  0  0  0  0  0  0
    5.9634   -8.6765    5.5921 C   0  0  0  0  0  0  0  0  0  0  0  0
    5.5555   -9.1574    6.7910 F   0  0  0  0  0  0  0  0  0  0  0  0
    5.3184   -7.5638    5.0239 C   0  0  0  0  0  0  0  0  0  0  0  0
    4.2618   -6.9877    5.6479 F   0  0  0  0  0  0  0  0  0  0  0  0
    7.0709   -6.9779    1.8360 C   0  0  0  0  0  0  0  0  0  0  0  0
    8.2411   -6.9557    1.1437 C   0  0  0  0  0  0  0  0  0  0  0  0
    8.4548   -6.1001    0.0081 C   0  0  0  0  0  0  0  0  0  0  0  0
    8.6381   -5.4144   -0.9064 N   0  0  0  0  0  0  0  0  0  0  0  0
    9.4170   -7.6401    1.6106 C   0  0  0  0  0  0  0  0  0  0  0  0
   10.3710   -8.1767    1.9856 N   0  0  0  0  0  0  0  0  0  0  0  0
    4.2546   -4.6919    0.3489 C   0  0  0  0  0  0  0  0  0  0  0  0
    2.6877   -5.1810    0.8195 S   0  0  0  0  0  0  0  0  0  0  0  0
    1.9495   -3.9071    0.0302 C   0  0  0  0  0  0  0  0  0  0  0  0
    0.6217   -3.4608   -0.2774 C   0  0  0  0  0  0  0  0  0  0  0  0
    0.7111   -2.4361   -1.1779 C   0  0  0  0  0  0  0  0  0  0  0  0
    2.1622   -2.1032   -1.5403 C   0  0  0  0  0  0  0  0  0  0  0  0
    2.8482   -3.1367   -0.6503 C   0  0  0  0  0  0  0  0  0  0  0  0
    4.1748   -3.5456   -0.4664 C   0  0  0  0  0  0  0  0  0  0  0  0
    5.3634   -2.8701   -1.0798 C   0  0  0  0  0  0  0  0  0  0  0  0
    2.4788   -2.4895   -3.0002 C   0  0  0  0  0  0  0  0  0  0  0  0
    3.6008   -1.9536   -3.6688 C   0  0  0  0  0  0  0  0  0  0  0  0
    3.9341   -2.3664   -4.9608 C   0  0  0  0  0  0  0  0  0  0  0  0
    3.1805   -3.3559   -5.6073 C   0  0  0  0  0  0  0  0  0  0  0  0
    3.5552   -3.8150   -6.9915 C   0  0  0  0  0  0  0  0  0  0  0  0
    4.5733   -4.9504   -6.9276 C   0  0  0  0  0  0  0  0  0  0  0  0
    2.1147   -3.9543   -4.9258 C   0  0  0  0  0  0  0  0  0  0  0  0
    1.7674   -3.5290   -3.6428 C   0  0  0  0  0  0  0  0  0  0  0  0
    2.4531   -0.6231   -1.1438 C   0  0  0  0  0  0  0  0  0  0  0  0
    2.3466    0.3732   -2.1452 C   0  0  0  0  0  0  0  0  0  0  0  0
    2.5369    1.7263   -1.8685 C   0  0  0  0  0  0  0  0  0  0  0  0
    2.8452    2.1478   -0.5751 C   0  0  0  0  0  0  0  0  0  0  0  0
    3.0258    3.6150   -0.2718 C   0  0  0  0  0  0  0  0  0  0  0  0
    1.7705    4.2051    0.3662 C   0  0  0  0  0  0  0  0  0  0  0  0
    2.9042    1.2019    0.4496 C   0  0  0  0  0  0  0  0  0  0  0  0
    2.6661   -0.1636    0.2037 C   0  0  0  0  0  0  0  0  0  0  0  0
    2.6086   -1.0542    1.4226 C   0  0  0  0  0  0  0  0  0  0  0  0
   -0.5214   -1.8255   -1.4160 C   0  0  0  0  0  0  0  0  0  0  0  0
   -0.8107   -0.8155   -2.3415 C   0  0  0  0  0  0  0  0  0  0  0  0
   -2.0927   -0.2689   -2.3128 C   0  0  0  0  0  0  0  0  0  0  0  0
   -2.5974    1.1135   -3.1206 S   0  0  0  0  0  0  0  0  0  0  0  0
   -4.0766    1.1923   -2.3151 C   0  0  0  0  0  0  0  0  0  0  0  0
   -4.7322    2.3727   -1.8190 C   0  0  0  0  0  0  0  0  0  0  0  0
   -5.1810    2.1155   -0.5505 C   0  0  0  0  0  0  0  0  0  0  0  0
   -4.9876    0.6584   -0.1486 C   0  0  0  0  0  0  0  0  0  0  0  0
   -6.3529   -0.0360   -0.0692 C   0  0  0  0  0  0  0  0  0  0  0  0
   -7.4501    0.6232    0.5301 C   0  0  0  0  0  0  0  0  0  0  0  0
   -8.6951    0.0081    0.6266 C   0  0  0  0  0  0  0  0  0  0  0  0
   -8.8828   -1.2910    0.1424 C   0  0  0  0  0  0  0  0  0  0  0  0
  -10.2192   -1.9613    0.2935 C   0  0  0  0  0  0  0  0  0  0  0  0
  -10.3647   -2.5527    1.6926 C   0  0  0  0  0  0  0  0  0  0  0  0
   -7.7911   -1.9804   -0.4157 C   0  0  0  0  0  0  0  0  0  0  0  0
   -6.5438   -1.3564   -0.5276 C   0  0  0  0  0  0  0  0  0  0  0  0
   -4.1635    0.5768    1.1481 C   0  0  0  0  0  0  0  0  0  0  0  0
   -4.6172   -0.1155    2.2913 C   0  0  0  0  0  0  0  0  0  0  0  0
   -3.8562   -0.1248    3.4645 C   0  0  0  0  0  0  0  0  0  0  0  0
   -2.6329    0.5607    3.5306 C   0  0  0  0  0  0  0  0  0  0  0  0
   -1.8219    0.5587    4.7976 C   0  0  0  0  0  0  0  0  0  0  0  0
   -0.7535   -0.5285    4.7609 C   0  0  0  0  0  0  0  0  0  0  0  0
   -2.1574    1.2206    2.3910 C   0  0  0  0  0  0  0  0  0  0  0  0
   -2.9127    1.2305    1.2192 C   0  0  0  0  0  0  0  0  0  0  0  0
   -4.1674    0.1946   -1.3576 C   0  0  0  0  0  0  0  0  0  0  0  0
   -3.0600   -0.6754   -1.3817 C   0  0  0  0  0  0  0  0  0  0  0  0
   -2.7938   -1.7401   -0.5020 C   0  0  0  0  0  0  0  0  0  0  0  0
   -1.5207   -2.3212   -0.5604 C   0  0  0  0  0  0  0  0  0  0  0  0
   -0.9088   -3.5717    0.4195 S   0  0  0  0  0  0  0  0  0  0  0  0
   -5.2226    3.2469    0.2788 C   0  0  0  0  0  0  0  0  0  0  0  0
   -4.7269    4.3798   -0.3578 C   0  0  0  0  0  0  0  0  0  0  0  0
   -4.2698    3.9792   -1.9430 S   0  0  0  0  0  0  0  0  0  0  0  0
   -4.4904    5.6660    0.3146 C   0  0  0  0  0  0  0  0  0  0  0  0
   -3.3190    6.3290    0.2785 C   0  0  0  0  0  0  0  0  0  0  0  0
   -2.1006    5.9194   -0.4199 C   0  0  0  0  0  0  0  0  0  0  0  0
   -1.7419    4.7375   -0.6679 O   0  0  0  0  0  0  0  0  0  0  0  0
   -1.3020    7.0968   -0.6584 C   0  0  0  0  0  0  0  0  0  0  0  0
   -0.1166    7.1897   -1.3838 C   0  0  0  0  0  0  0  0  0  0  0  0
    0.5005    8.4486   -1.4937 C   0  0  0  0  0  0  0  0  0  0  0  0
    1.7037    8.5903   -2.2070 C   0  0  0  0  0  0  0  0  0  0  0  0
    2.3137    9.8434   -2.3169 C   0  0  0  0  0  0  0  0  0  0  0  0
    3.4764    9.9697   -3.0071 F   0  0  0  0  0  0  0  0  0  0  0  0
    1.7305   10.9662   -1.7163 C   0  0  0  0  0  0  0  0  0  0  0  0
    2.3216   12.1816   -1.8330 F   0  0  0  0  0  0  0  0  0  0  0  0
    0.5367   10.8436   -0.9956 C   0  0  0  0  0  0  0  0  0  0  0  0
   -0.0898    9.5918   -0.8802 C   0  0  0  0  0  0  0  0  0  0  0  0
   -1.2989    9.4634   -0.1654 C   0  0  0  0  0  0  0  0  0  0  0  0
   -1.8940    8.1936   -0.0528 C   0  0  0  0  0  0  0  0  0  0  0  0
   -3.1098    7.7476    0.6854 C   0  0  0  0  0  0  0  0  0  0  0  0
   -3.7198    8.3715    1.7152 C   0  0  0  0  0  0  0  0  0  0  0  0
   -3.4490    9.7443    2.0684 C   0  0  0  0  0  0  0  0  0  0  0  0
   -3.2137   10.8315    2.3794 N   0  0  0  0  0  0  0  0  0  0  0  0
   -4.3828    7.6014    2.7342 C   0  0  0  0  0  0  0  0  0  0  0  0
   -4.8341    6.9675    3.6034 N   0  0  0  0  0  0  0  0  0  0  0  0
    6.0491   -5.6326   -0.3945 H   0  0  0  0  0  0  0  0  0  0  0  0
    8.2353   -9.3416    3.1398 H   0  0  0  0  0  0  0  0  0  0  0  0
    6.2685   -3.0436   -0.4628 H   0  0  0  0  0  0  0  0  0  0  0  0
    5.1972   -1.7747   -1.1231 H   0  0  0  0  0  0  0  0  0  0  0  0
    5.5389   -3.2694   -2.0994 H   0  0  0  0  0  0  0  0  0  0  0  0
    4.2254   -1.2057   -3.2006 H   0  0  0  0  0  0  0  0  0  0  0  0
    4.7930   -1.9251   -5.4559 H   0  0  0  0  0  0  0  0  0  0  0  0
    3.9832   -2.9690   -7.5710 H   0  0  0  0  0  0  0  0  0  0  0  0
    2.6501   -4.1676   -7.5339 H   0  0  0  0  0  0  0  0  0  0  0  0
    4.1593   -5.8096   -6.3612 H   0  0  0  0  0  0  0  0  0  0  0  0
    4.8171   -5.2872   -7.9562 H   0  0  0  0  0  0  0  0  0  0  0  0
    5.5080   -4.6046   -6.4350 H   0  0  0  0  0  0  0  0  0  0  0  0
    1.5579   -4.7617   -5.3810 H   0  0  0  0  0  0  0  0  0  0  0  0
    0.9537   -4.0422   -3.1484 H   0  0  0  0  0  0  0  0  0  0  0  0
    2.1070    0.1191   -3.1660 H   0  0  0  0  0  0  0  0  0  0  0  0
    2.4444    2.4457   -2.6712 H   0  0  0  0  0  0  0  0  0  0  0  0
    3.2574    4.1824   -1.1980 H   0  0  0  0  0  0  0  0  0  0  0  0
    3.8846    3.7548    0.4210 H   0  0  0  0  0  0  0  0  0  0  0  0
    1.9108    5.2938    0.5353 H   0  0  0  0  0  0  0  0  0  0  0  0
    0.8946    4.0600   -0.3011 H   0  0  0  0  0  0  0  0  0  0  0  0
    1.5658    3.7167    1.3445 H   0  0  0  0  0  0  0  0  0  0  0  0
    3.1070    1.5433    1.4578 H   0  0  0  0  0  0  0  0  0  0  0  0
    3.4978   -1.7141    1.4707 H   0  0  0  0  0  0  0  0  0  0  0  0
    1.6654   -1.6325    1.4252 H   0  0  0  0  0  0  0  0  0  0  0  0
    2.5948   -0.4673    2.3636 H   0  0  0  0  0  0  0  0  0  0  0  0
   -0.0701   -0.4489   -3.0354 H   0  0  0  0  0  0  0  0  0  0  0  0
   -7.3370    1.6120    0.9512 H   0  0  0  0  0  0  0  0  0  0  0  0
   -9.5173    0.5470    1.0858 H   0  0  0  0  0  0  0  0  0  0  0  0
  -10.3389   -2.7709   -0.4604 H   0  0  0  0  0  0  0  0  0  0  0  0
  -11.0339   -1.2281    0.1235 H   0  0  0  0  0  0  0  0  0  0  0  0
   -9.5720   -3.3100    1.8833 H   0  0  0  0  0  0  0  0  0  0  0  0
  -10.2933   -1.7516    2.4633 H   0  0  0  0  0  0  0  0  0  0  0  0
  -11.3555   -3.0462    1.7922 H   0  0  0  0  0  0  0  0  0  0  0  0
   -7.9133   -2.9907   -0.7814 H   0  0  0  0  0  0  0  0  0  0  0  0
   -5.7285   -1.9192   -0.9637 H   0  0  0  0  0  0  0  0  0  0  0  0
   -5.5532   -0.6508    2.2906 H   0  0  0  0  0  0  0  0  0  0  0  0
   -4.2300   -0.6597    4.3312 H   0  0  0  0  0  0  0  0  0  0  0  0
   -1.3373    1.5499    4.9361 H   0  0  0  0  0  0  0  0  0  0  0  0
   -2.4850    0.3873    5.6767 H   0  0  0  0  0  0  0  0  0  0  0  0
   -0.1890   -0.5243    5.7158 H   0  0  0  0  0  0  0  0  0  0  0  0
   -1.2186   -1.5283    4.6242 H   0  0  0  0  0  0  0  0  0  0  0  0
   -0.0383   -0.3346    3.9321 H   0  0  0  0  0  0  0  0  0  0  0  0
   -1.2067    1.7375    2.4133 H   0  0  0  0  0  0  0  0  0  0  0  0
   -2.5259    1.7672    0.3604 H   0  0  0  0  0  0  0  0  0  0  0  0
   -3.5204   -2.0779    0.2240 H   0  0  0  0  0  0  0  0  0  0  0  0
   -5.4273    3.2009    1.3400 H   0  0  0  0  0  0  0  0  0  0  0  0
   -5.3400    6.1025    0.8210 H   0  0  0  0  0  0  0  0  0  0  0  0
    0.3223    6.3096   -1.8336 H   0  0  0  0  0  0  0  0  0  0  0  0
    2.1610    7.7296   -2.6906 H   0  0  0  0  0  0  0  0  0  0  0  0
    0.0995   11.7215   -0.5356 H   0  0  0  0  0  0  0  0  0  0  0  0
   -1.7456   10.3386    0.2791 H   0  0  0  0  0  0  0  0  0  0  0  0
  1  2  2  3
  2  3  1  0
  3  4  2  0
  3  5  1  0
  5  6  2  0
  6  7  1  0
  7  8  2  0
  8  9  1  0
  8 10  1  0
 10 11  1  0
 10 12  2  0
 12 13  1  0
  6 14  1  0
 14 15  2  3
 15 16  1  0
 16 17  3  0
 15 18  1  0
 18 19  3  0
  1 20  1  0
 20 21  1  0
 21 22  1  0
 22 23  1  0
 23 24  2  0
 24 25  1  0
 25 26  1  0
 26 27  1  0
 27 28  1  0
 25 29  1  0
 29 30  2  0
 30 31  1  0
 31 32  2  0
 32 33  1  0
 33 34  1  0
 32 35  1  0
 35 36  2  0
 25 37  1  0
 37 38  2  0
 38 39  1  0
 39 40  2  0
 40 41  1  0
 41 42  1  0
 40 43  1  0
 43 44  2  0
 44 45  1  0
 24 46  1  0
 46 47  2  0
 47 48  1  0
 48 49  1  0
 49 50  1  0
 50 51  1  0
 51 52  2  0
 52 53  1  0
 53 54  1  0
 54 55  2  0
 55 56  1  0
 56 57  2  0
 57 58  1  0
 58 59  1  0
 57 60  1  0
 60 61  2  0
 53 62  1  0
 62 63  2  0
 63 64  1  0
 64 65  2  0
 65 66  1  0
 66 67  1  0
 65 68  1  0
 68 69  2  0
 53 70  1  0
 70 71  1  0
 71 72  1  0
 72 73  2  0
 73 74  1  0
 52 75  1  0
 75 76  2  0
 76 77  1  0
 76 78  1  0
 78 79  2  3
 79 80  1  0
 80 81  2  0
 80 82  1  0
 82 83  2  0
 83 84  1  0
 84 85  2  0
 85 86  1  0
 86 87  1  0
 86 88  2  0
 88 89  1  0
 88 90  1  0
 90 91  2  0
 91 92  1  0
 92 93  2  0
 93 94  1  0
 94 95  2  3
 95 96  1  0
 96 97  3  0
 95 98  1  0
 98 99  3  0
 14  2  1  0
 27 20  2  0
 36 29  1  0
 44 37  1  0
 73 46  1  0
 94 79  1  0
 12  5  1  0
 26 22  2  0
 71 48  2  0
 93 82  1  0
 74 23  1  0
 91 84  1  0
 70 50  2  0
 77 51  1  0
 61 54  1  0
 69 62  1  0
  1100  1  0
  7101  1  0
 28102  1  0
 28103  1  0
 28104  1  0
 30105  1  0
 31106  1  0
 33107  1  0
 33108  1  0
 34109  1  0
 34110  1  0
 34111  1  0
 35112  1  0
 36113  1  0
 38114  1  0
 39115  1  0
 41116  1  0
 41117  1  0
 42118  1  0
 42119  1  0
 42120  1  0
 43121  1  0
 45122  1  0
 45123  1  0
 45124  1  0
 47125  1  0
 55126  1  0
 56127  1  0
 58128  1  0
 58129  1  0
 59130  1  0
 59131  1  0
 59132  1  0
 60133  1  0
 61134  1  0
 63135  1  0
 64136  1  0
 66137  1  0
 66138  1  0
 67139  1  0
 67140  1  0
 67141  1  0
 68142  1  0
 69143  1  0
 72144  1  0
 75145  1  0
 78146  1  0
 83147  1  0
 85148  1  0
 90149  1  0
 92150  1  0
M  END

