
     RDKit          3D

115125  0  0  0  0  0  0  0  0999 V2000
    5.4043   -7.5413    0.0381 C   0  0  0  0  0  0  0  0  0  0  0  0
    5.6832   -7.7061    1.3467 C   0  0  0  0  0  0  0  0  0  0  0  0
    5.0236   -6.9952    2.4518 C   0  0  0  0  0  0  0  0  0  0  0  0
    4.2649   -5.9938    2.3529 O   0  0  0  0  0  0  0  0  0  0  0  0
    5.3255   -7.6858    3.6863 C   0  0  0  0  0  0  0  0  0  0  0  0
    6.1586   -8.7610    3.4236 C   0  0  0  0  0  0  0  0  0  0  0  0
    6.4813   -9.6576    4.4571 C   0  0  0  0  0  0  0  0  0  0  0  0
    5.9928   -9.4135    5.7510 C   0  0  0  0  0  0  0  0  0  0  0  0
    6.2978  -10.2703    6.7583 F   0  0  0  0  0  0  0  0  0  0  0  0
    5.1753   -8.2965    6.0062 C   0  0  0  0  0  0  0  0  0  0  0  0
    4.7038   -8.0755    7.2582 F   0  0  0  0  0  0  0  0  0  0  0  0
    4.8236   -7.4272    4.9645 C   0  0  0  0  0  0  0  0  0  0  0  0
    3.9915   -6.3786    5.1931 F   0  0  0  0  0  0  0  0  0  0  0  0
    6.5130   -8.7823    1.9742 C   0  0  0  0  0  0  0  0  0  0  0  0
    7.5297   -9.4737    1.3941 C   0  0  0  0  0  0  0  0  0  0  0  0
    8.3811  -10.3691    2.1342 C   0  0  0  0  0  0  0  0  0  0  0  0
    9.0769  -11.0848    2.7206 N   0  0  0  0  0  0  0  0  0  0  0  0
    7.9307   -9.2554    0.0292 C   0  0  0  0  0  0  0  0  0  0  0  0
    8.2695   -9.0846   -1.0645 N   0  0  0  0  0  0  0  0  0  0  0  0
    4.5135   -6.4859   -0.4522 C   0  0  0  0  0  0  0  0  0  0  0  0
    4.9175   -4.8323   -0.5046 S   0  0  0  0  0  0  0  0  0  0  0  0
    3.3551   -4.3821   -0.9108 C   0  0  0  0  0  0  0  0  0  0  0  0
    2.6011   -3.1640   -0.8789 C   0  0  0  0  0  0  0  0  0  0  0  0
    1.2473   -3.5112   -0.9318 C   0  0  0  0  0  0  0  0  0  0  0  0
    1.0569   -5.0389   -0.9881 C   0  0  0  0  0  0  0  0  0  0  0  0
    2.5177   -5.4473   -0.9439 C   0  0  0  0  0  0  0  0  0  0  0  0
    3.1506   -6.6675   -0.7045 C   0  0  0  0  0  0  0  0  0  0  0  0
    0.3741   -5.6095    0.2954 C   0  0  0  0  0  0  0  0  0  0  0  0
   -1.1435   -5.4673    0.3819 C   0  0  0  0  0  0  0  0  0  0  0  0
    0.4489   -5.5634   -2.3271 C   0  0  0  0  0  0  0  0  0  0  0  0
   -0.6830   -4.7216   -2.9203 C   0  0  0  0  0  0  0  0  0  0  0  0
    0.2720   -2.5050   -0.8115 C   0  0  0  0  0  0  0  0  0  0  0  0
    0.7166   -1.1852   -0.6529 C   0  0  0  0  0  0  0  0  0  0  0  0
   -0.0572    0.0080   -0.4127 C   0  0  0  0  0  0  0  0  0  0  0  0
    0.8183    1.0820   -0.2545 C   0  0  0  0  0  0  0  0  0  0  0  0
    2.2698    0.6424   -0.3775 C   0  0  0  0  0  0  0  0  0  0  0  0
    3.0399    0.8172    0.9659 C   0  0  0  0  0  0  0  0  0  0  0  0
    3.3263    2.2591    1.3860 C   0  0  0  0  0  0  0  0  0  0  0  0
    2.9083    1.3600   -1.6028 C   0  0  0  0  0  0  0  0  0  0  0  0
    4.3538    0.9624   -1.9185 C   0  0  0  0  0  0  0  0  0  0  0  0
    2.0660   -0.8451   -0.6352 C   0  0  0  0  0  0  0  0  0  0  0  0
    3.0448   -1.8492   -0.7134 C   0  0  0  0  0  0  0  0  0  0  0  0
    0.3164    2.3890   -0.1310 C   0  0  0  0  0  0  0  0  0  0  0  0
   -1.0712    2.5336   -0.0863 C   0  0  0  0  0  0  0  0  0  0  0  0
   -1.8708    3.7224   -0.0485 C   0  0  0  0  0  0  0  0  0  0  0  0
   -3.1882    3.4073   -0.0766 C   0  0  0  0  0  0  0  0  0  0  0  0
   -3.4167    1.9093   -0.1319 C   0  0  0  0  0  0  0  0  0  0  0  0
   -1.9520    1.4525   -0.1655 C   0  0  0  0  0  0  0  0  0  0  0  0
   -1.4504    0.1581   -0.3692 C   0  0  0  0  0  0  0  0  0  0  0  0
   -4.1306    1.4627    1.1781 C   0  0  0  0  0  0  0  0  0  0  0  0
   -4.4272   -0.0352    1.2828 C   0  0  0  0  0  0  0  0  0  0  0  0
   -4.1310    1.4878   -1.4483 C   0  0  0  0  0  0  0  0  0  0  0  0
   -5.5870    1.9474   -1.5763 C   0  0  0  0  0  0  0  0  0  0  0  0
   -4.0286    4.5120    0.0723 C   0  0  0  0  0  0  0  0  0  0  0  0
   -3.2910    5.6992    0.1450 C   0  0  0  0  0  0  0  0  0  0  0  0
   -1.6163    5.3704    0.1240 S   0  0  0  0  0  0  0  0  0  0  0  0
   -3.8823    7.0246    0.3621 C   0  0  0  0  0  0  0  0  0  0  0  0
   -3.7944    8.0310   -0.5310 C   0  0  0  0  0  0  0  0  0  0  0  0
   -3.0554    7.9815   -1.8003 C   0  0  0  0  0  0  0  0  0  0  0  0
   -2.6058    6.9533   -2.3703 O   0  0  0  0  0  0  0  0  0  0  0  0
   -2.9631    9.3264   -2.3258 C   0  0  0  0  0  0  0  0  0  0  0  0
   -2.2843    9.7650   -3.4651 C   0  0  0  0  0  0  0  0  0  0  0  0
   -1.6352    8.8914   -4.2747 F   0  0  0  0  0  0  0  0  0  0  0  0
   -2.2760   11.1349   -3.7521 C   0  0  0  0  0  0  0  0  0  0  0  0
   -2.9191   12.0396   -2.8911 C   0  0  0  0  0  0  0  0  0  0  0  0
   -3.5920   11.5801   -1.7466 C   0  0  0  0  0  0  0  0  0  0  0  0
   -3.6375   10.1999   -1.4876 C   0  0  0  0  0  0  0  0  0  0  0  0
   -4.2887    9.4378   -0.3811 C   0  0  0  0  0  0  0  0  0  0  0  0
   -5.2929    9.8788    0.4237 C   0  0  0  0  0  0  0  0  0  0  0  0
   -6.0309    9.0050    1.2958 C   0  0  0  0  0  0  0  0  0  0  0  0
   -6.6360    8.3104    1.9969 N   0  0  0  0  0  0  0  0  0  0  0  0
   -5.7945   11.2256    0.3741 C   0  0  0  0  0  0  0  0  0  0  0  0
   -6.2119   12.3042    0.3450 N   0  0  0  0  0  0  0  0  0  0  0  0
    5.7455   -8.2527   -0.6957 H   0  0  0  0  0  0  0  0  0  0  0  0
    7.0575  -10.5514    4.2865 H   0  0  0  0  0  0  0  0  0  0  0  0
    2.6363   -7.6156   -0.6223 H   0  0  0  0  0  0  0  0  0  0  0  0
    0.8237   -5.1290    1.1945 H   0  0  0  0  0  0  0  0  0  0  0  0
    0.5862   -6.6998    0.3721 H   0  0  0  0  0  0  0  0  0  0  0  0
   -1.4581   -4.4111    0.3987 H   0  0  0  0  0  0  0  0  0  0  0  0
   -1.4960   -5.9243    1.3311 H   0  0  0  0  0  0  0  0  0  0  0  0
   -1.6443   -6.0053   -0.4478 H   0  0  0  0  0  0  0  0  0  0  0  0
    0.0903   -6.6045   -2.1887 H   0  0  0  0  0  0  0  0  0  0  0  0
    1.2391   -5.6142   -3.1096 H   0  0  0  0  0  0  0  0  0  0  0  0
   -0.2904   -3.7427   -3.2682 H   0  0  0  0  0  0  0  0  0  0  0  0
   -1.1087   -5.2454   -3.8012 H   0  0  0  0  0  0  0  0  0  0  0  0
   -1.5008   -4.5571   -2.1974 H   0  0  0  0  0  0  0  0  0  0  0  0
   -0.7828   -2.7228   -0.8280 H   0  0  0  0  0  0  0  0  0  0  0  0
    2.4643    0.3278    1.7841 H   0  0  0  0  0  0  0  0  0  0  0  0
    4.0111    0.2828    0.9174 H   0  0  0  0  0  0  0  0  0  0  0  0
    3.9481    2.2525    2.3054 H   0  0  0  0  0  0  0  0  0  0  0  0
    2.3923    2.7930    1.6322 H   0  0  0  0  0  0  0  0  0  0  0  0
    3.8862    2.8049    0.6035 H   0  0  0  0  0  0  0  0  0  0  0  0
    2.2911    1.1589   -2.5077 H   0  0  0  0  0  0  0  0  0  0  0  0
    2.8801    2.4613   -1.4472 H   0  0  0  0  0  0  0  0  0  0  0  0
    5.0077    1.0618   -1.0271 H   0  0  0  0  0  0  0  0  0  0  0  0
    4.3995   -0.0713   -2.3182 H   0  0  0  0  0  0  0  0  0  0  0  0
    4.7511    1.6373   -2.7083 H   0  0  0  0  0  0  0  0  0  0  0  0
    4.0995   -1.6310   -0.6189 H   0  0  0  0  0  0  0  0  0  0  0  0
    0.9631    3.2534   -0.1078 H   0  0  0  0  0  0  0  0  0  0  0  0
   -2.1097   -0.6861   -0.5133 H   0  0  0  0  0  0  0  0  0  0  0  0
   -3.5036    1.7503    2.0531 H   0  0  0  0  0  0  0  0  0  0  0  0
   -5.0916    2.0138    1.2883 H   0  0  0  0  0  0  0  0  0  0  0  0
   -5.0437   -0.3857    0.4317 H   0  0  0  0  0  0  0  0  0  0  0  0
   -5.0026   -0.2265    2.2134 H   0  0  0  0  0  0  0  0  0  0  0  0
   -3.4929   -0.6247    1.3443 H   0  0  0  0  0  0  0  0  0  0  0  0
   -4.1061    0.3828   -1.5515 H   0  0  0  0  0  0  0  0  0  0  0  0
   -3.5634    1.8911   -2.3154 H   0  0  0  0  0  0  0  0  0  0  0  0
   -5.6382    3.0482   -1.6690 H   0  0  0  0  0  0  0  0  0  0  0  0
   -6.1903    1.6141   -0.7081 H   0  0  0  0  0  0  0  0  0  0  0  0
   -6.0258    1.5044   -2.4963 H   0  0  0  0  0  0  0  0  0  0  0  0
   -5.1077    4.4608    0.1436 H   0  0  0  0  0  0  0  0  0  0  0  0
   -4.3835    7.1538    1.3024 H   0  0  0  0  0  0  0  0  0  0  0  0
   -1.7595   11.5031   -4.6304 H   0  0  0  0  0  0  0  0  0  0  0  0
   -2.8877   13.1018   -3.1076 H   0  0  0  0  0  0  0  0  0  0  0  0
   -4.0279   12.3089   -1.0863 H   0  0  0  0  0  0  0  0  0  0  0  0
  1  2  2  3
  2  3  1  0
  3  4  2  0
  3  5  1  0
  5  6  2  0
  6  7  1  0
  7  8  2  0
  8  9  1  0
  8 10  1  0
 10 11  1  0
 10 12  2  0
 12 13  1  0
  6 14  1  0
 14 15  2  3
 15 16  1  0
 16 17  3  0
 15 18  1  0
 18 19  3  0
  1 20  1  0
 20 21  1  0
 21 22  1  0
 22 23  1  0
 23 24  2  0
 24 25  1  0
 25 26  1  0
 26 27  1  0
 25 28  1  0
 28 29  1  0
 25 30  1  0
 30 31  1  0
 24 32  1  0
 32 33  2  0
 33 34  1  0
 34 35  2  0
 35 36  1  0
 36 37  1  0
 37 38  1  0
 36 39  1  0
 39 40  1  0
 36 41  1  0
 41 42  2  0
 35 43  1  0
 43 44  2  0
 44 45  1  0
 45 46  2  0
 46 47  1  0
 47 48  1  0
 48 49  2  0
 47 50  1  0
 50 51  1  0
 47 52  1  0
 52 53  1  0
 46 54  1  0
 54 55  2  0
 55 56  1  0
 55 57  1  0
 57 58  2  3
 58 59  1  0
 59 60  2  0
 59 61  1  0
 61 62  2  0
 62 63  1  0
 62 64  1  0
 64 65  2  0
 65 66  1  0
 66 67  2  0
 67 68  1  0
 68 69  2  3
 69 70  1  0
 70 71  3  0
 69 72  1  0
 72 73  3  0
 14  2  1  0
 27 20  2  0
 41 33  1  0
 48 44  1  0
 68 58  1  0
 12  5  1  0
 26 22  2  0
 49 34  1  0
 67 61  1  0
 42 23  1  0
 56 45  1  0
  1 74  1  0
  7 75  1  0
 27 76  1  0
 28 77  1  0
 28 78  1  0
 29 79  1  0
 29 80  1  0
 29 81  1  0
 30 82  1  0
 30 83  1  0
 31 84  1  0
 31 85  1  0
 31 86  1  0
 32 87  1  0
 37 88  1  0
 37 89  1  0
 38 90  1  0
 38 91  1  0
 38 92  1  0
 39 93  1  0
 39 94  1  0
 40 95  1  0
 40 96  1  0
 40 97  1  0
 42 98  1  0
 43 99  1  0
 49100  1  0
 50101  1  0
 50102  1  0
 51103  1  0
 51104  1  0
 51105  1  0
 52106  1  0
 52107  1  0
 53108  1  0
 53109  1  0
 53110  1  0
 54111  1  0
 57112  1  0
 64113  1  0
 65114  1  0
 66115  1  0
M  END

