
     RDKit          3D

 95106  0  0  0  0  0  0  0  0999 V2000
   -7.6558    0.1045    4.6921 C   0  0  0  0  0  0  0  0  0  0  0  0
   -7.9515    1.4168    4.7712 C   0  0  0  0  0  0  0  0  0  0  0  0
   -7.0511    2.5263    4.4254 C   0  0  0  0  0  0  0  0  0  0  0  0
   -5.9536    2.4431    3.8109 O   0  0  0  0  0  0  0  0  0  0  0  0
   -7.5595    3.7365    5.0374 C   0  0  0  0  0  0  0  0  0  0  0  0
   -8.7237    3.4533    5.7348 C   0  0  0  0  0  0  0  0  0  0  0  0
   -9.3386    4.4602    6.5010 C   0  0  0  0  0  0  0  0  0  0  0  0
   -8.7806    5.7505    6.5093 C   0  0  0  0  0  0  0  0  0  0  0  0
   -9.3631    6.7347    7.2417 F   0  0  0  0  0  0  0  0  0  0  0  0
   -7.6122    6.0252    5.7788 C   0  0  0  0  0  0  0  0  0  0  0  0
   -7.0798    7.2713    5.7969 F   0  0  0  0  0  0  0  0  0  0  0  0
   -6.9832    5.0089    5.0427 C   0  0  0  0  0  0  0  0  0  0  0  0
   -5.8405    5.2595    4.3552 F   0  0  0  0  0  0  0  0  0  0  0  0
   -9.0881    2.0203    5.5363 C   0  0  0  0  0  0  0  0  0  0  0  0
  -10.2908    1.4395    5.7864 C   0  0  0  0  0  0  0  0  0  0  0  0
  -11.3623    2.1188    6.4718 C   0  0  0  0  0  0  0  0  0  0  0  0
  -12.2336    2.6482    7.0229 N   0  0  0  0  0  0  0  0  0  0  0  0
  -10.6330    0.1361    5.2797 C   0  0  0  0  0  0  0  0  0  0  0  0
  -10.9203   -0.9085    4.8726 N   0  0  0  0  0  0  0  0  0  0  0  0
   -6.5259   -0.4621    3.9416 C   0  0  0  0  0  0  0  0  0  0  0  0
   -5.5031   -1.6776    4.5700 S   0  0  0  0  0  0  0  0  0  0  0  0
   -4.6487   -1.8024    3.1416 C   0  0  0  0  0  0  0  0  0  0  0  0
   -3.4480   -2.2676    2.7089 C   0  0  0  0  0  0  0  0  0  0  0  0
   -2.0712   -2.9125    3.4573 S   0  0  0  0  0  0  0  0  0  0  0  0
   -1.1798   -2.5384    2.0631 C   0  0  0  0  0  0  0  0  0  0  0  0
    0.1226   -2.5959    1.6792 C   0  0  0  0  0  0  0  0  0  0  0  0
    1.2710   -2.8503    2.4376 C   0  0  0  0  0  0  0  0  0  0  0  0
    2.5376   -2.5752    1.8545 C   0  0  0  0  0  0  0  0  0  0  0  0
    3.6311   -2.7645    2.6338 N   0  0  0  0  0  0  0  0  0  0  0  0
    2.8908   -3.2719    4.0267 S   0  0  0  0  0  0  0  0  0  0  0  0
    1.2598   -3.2724    3.7271 N   0  0  0  0  0  0  0  0  0  0  0  0
    2.5810   -2.1226    0.5349 C   0  0  0  0  0  0  0  0  0  0  0  0
    3.6263   -1.7879   -0.2616 C   0  0  0  0  0  0  0  0  0  0  0  0
    5.2878   -1.6766   -0.1774 S   0  0  0  0  0  0  0  0  0  0  0  0
    5.4032   -1.1704   -1.8075 C   0  0  0  0  0  0  0  0  0  0  0  0
    4.1260   -1.1052   -2.4138 C   0  0  0  0  0  0  0  0  0  0  0  0
    3.8447   -0.5197   -3.7848 C   0  0  0  0  0  0  0  0  0  0  0  0
    4.4414    0.8790   -3.9642 C   0  0  0  0  0  0  0  0  0  0  0  0
    3.1466   -1.5040   -1.4858 C   0  0  0  0  0  0  0  0  0  0  0  0
    1.8013   -1.7096   -1.5708 N   0  0  0  0  0  0  0  0  0  0  0  0
    1.4394   -1.9665   -0.2649 C   0  0  0  0  0  0  0  0  0  0  0  0
    0.1578   -2.1013    0.3622 C   0  0  0  0  0  0  0  0  0  0  0  0
   -1.0911   -1.6408   -0.0029 N   0  0  0  0  0  0  0  0  0  0  0  0
   -1.8807   -1.9037    1.0815 C   0  0  0  0  0  0  0  0  0  0  0  0
   -3.2133   -1.6745    1.4846 C   0  0  0  0  0  0  0  0  0  0  0  0
   -4.2103   -0.7769    1.1768 N   0  0  0  0  0  0  0  0  0  0  0  0
   -5.0849   -0.9231    2.2116 C   0  0  0  0  0  0  0  0  0  0  0  0
   -6.1646   -0.1418    2.6220 C   0  0  0  0  0  0  0  0  0  0  0  0
   -4.2052    0.3761    0.2734 C   0  0  0  0  0  0  0  0  0  0  0  0
   -5.0910    0.1136   -0.9441 C   0  0  0  0  0  0  0  0  0  0  0  0
   -1.5186   -1.0447   -1.2660 C   0  0  0  0  0  0  0  0  0  0  0  0
   -0.9127    0.3422   -1.4691 C   0  0  0  0  0  0  0  0  0  0  0  0
    1.1827   -2.2860   -2.7845 C   0  0  0  0  0  0  0  0  0  0  0  0
    0.6106   -3.6901   -2.5417 C   0  0  0  0  0  0  0  0  0  0  0  0
    6.6783   -0.8464   -2.4609 C   0  0  0  0  0  0  0  0  0  0  0  0
    7.4314    0.2071   -2.1000 C   0  0  0  0  0  0  0  0  0  0  0  0
    7.0079    1.2849   -1.1750 C   0  0  0  0  0  0  0  0  0  0  0  0
    5.9646    1.3163   -0.4639 O   0  0  0  0  0  0  0  0  0  0  0  0
    7.9740    2.3527   -1.2761 C   0  0  0  0  0  0  0  0  0  0  0  0
    8.0942    3.6259   -0.7246 C   0  0  0  0  0  0  0  0  0  0  0  0
    9.2277    4.2790   -1.2219 C   0  0  0  0  0  0  0  0  0  0  0  0
   10.0326    3.2648   -2.3345 S   0  0  0  0  0  0  0  0  0  0  0  0
    8.9298    2.0074   -2.1687 C   0  0  0  0  0  0  0  0  0  0  0  0
    8.7160    0.6659   -2.7296 C   0  0  0  0  0  0  0  0  0  0  0  0
    9.5700    0.0044   -3.5394 C   0  0  0  0  0  0  0  0  0  0  0  0
   10.7657    0.6348   -4.0352 C   0  0  0  0  0  0  0  0  0  0  0  0
   11.7285    1.1371   -4.4419 N   0  0  0  0  0  0  0  0  0  0  0  0
    9.3867   -1.3756   -3.9073 C   0  0  0  0  0  0  0  0  0  0  0  0
    9.2530   -2.4891   -4.1994 N   0  0  0  0  0  0  0  0  0  0  0  0
   -8.2151   -0.6026    5.2848 H   0  0  0  0  0  0  0  0  0  0  0  0
  -10.2028    4.2727    7.1147 H   0  0  0  0  0  0  0  0  0  0  0  0
    2.7548   -0.4061   -3.9385 H   0  0  0  0  0  0  0  0  0  0  0  0
    4.2355   -1.1963   -4.5690 H   0  0  0  0  0  0  0  0  0  0  0  0
    3.9625    1.3672   -4.8318 H   0  0  0  0  0  0  0  0  0  0  0  0
    4.2626    1.5076   -3.0602 H   0  0  0  0  0  0  0  0  0  0  0  0
    5.5312    0.8242   -4.1777 H   0  0  0  0  0  0  0  0  0  0  0  0
   -6.6373    0.6205    2.0204 H   0  0  0  0  0  0  0  0  0  0  0  0
   -4.5975    1.2698    0.8027 H   0  0  0  0  0  0  0  0  0  0  0  0
   -3.1786    0.6491   -0.0059 H   0  0  0  0  0  0  0  0  0  0  0  0
   -4.8691    0.8531   -1.7389 H   0  0  0  0  0  0  0  0  0  0  0  0
   -6.1558    0.1989   -0.6550 H   0  0  0  0  0  0  0  0  0  0  0  0
   -4.9240   -0.9051   -1.3531 H   0  0  0  0  0  0  0  0  0  0  0  0
   -1.3068   -1.7199   -2.1029 H   0  0  0  0  0  0  0  0  0  0  0  0
   -2.6139   -0.9817   -1.3034 H   0  0  0  0  0  0  0  0  0  0  0  0
   -1.4313    0.8476   -2.3113 H   0  0  0  0  0  0  0  0  0  0  0  0
   -1.0221    0.9592   -0.5574 H   0  0  0  0  0  0  0  0  0  0  0  0
    0.1644    0.2809   -1.7037 H   0  0  0  0  0  0  0  0  0  0  0  0
    0.4504   -1.5913   -3.2320 H   0  0  0  0  0  0  0  0  0  0  0  0
    1.9544   -2.4354   -3.5677 H   0  0  0  0  0  0  0  0  0  0  0  0
   -0.2057   -3.6788   -1.7973 H   0  0  0  0  0  0  0  0  0  0  0  0
    1.4068   -4.3663   -2.1730 H   0  0  0  0  0  0  0  0  0  0  0  0
    0.2142   -4.1023   -3.4942 H   0  0  0  0  0  0  0  0  0  0  0  0
    6.9321   -1.4378   -3.3190 H   0  0  0  0  0  0  0  0  0  0  0  0
    7.3989    4.0541   -0.0111 H   0  0  0  0  0  0  0  0  0  0  0  0
    9.5382    5.2774   -0.9356 H   0  0  0  0  0  0  0  0  0  0  0  0
  1  2  2  3
  2  3  1  0
  3  4  2  0
  3  5  1  0
  5  6  2  0
  6  7  1  0
  7  8  2  0
  8  9  1  0
  8 10  1  0
 10 11  1  0
 10 12  2  0
 12 13  1  0
  6 14  1  0
 14 15  2  3
 15 16  1  0
 16 17  3  0
 15 18  1  0
 18 19  3  0
  1 20  1  0
 20 21  1  0
 21 22  1  0
 22 23  1  0
 23 24  1  0
 24 25  1  0
 25 26  1  0
 26 27  1  0
 27 28  1  0
 28 29  2  0
 29 30  1  0
 30 31  1  0
 28 32  1  0
 32 33  1  0
 33 34  1  0
 34 35  1  0
 35 36  2  0
 36 37  1  0
 37 38  1  0
 36 39  1  0
 39 40  1  0
 40 41  1  0
 41 42  1  0
 42 43  1  0
 43 44  1  0
 44 45  1  0
 45 46  1  0
 46 47  1  0
 47 48  1  0
 46 49  1  0
 49 50  1  0
 43 51  1  0
 51 52  1  0
 40 53  1  0
 53 54  1  0
 35 55  1  0
 55 56  2  3
 56 57  1  0
 57 58  2  0
 57 59  1  0
 59 60  1  0
 60 61  2  0
 61 62  1  0
 62 63  1  0
 63 64  1  0
 64 65  2  3
 65 66  1  0
 66 67  3  0
 65 68  1  0
 68 69  3  0
 14  2  1  0
 48 20  2  0
 64 56  1  0
 12  5  1  0
 47 22  2  0
 63 59  2  0
 45 23  2  0
 44 25  2  0
 42 26  2  0
 31 27  2  0
 41 32  2  0
 39 33  2  0
  1 70  1  0
  7 71  1  0
 37 72  1  0
 37 73  1  0
 38 74  1  0
 38 75  1  0
 38 76  1  0
 48 77  1  0
 49 78  1  0
 49 79  1  0
 50 80  1  0
 50 81  1  0
 50 82  1  0
 51 83  1  0
 51 84  1  0
 52 85  1  0
 52 86  1  0
 52 87  1  0
 53 88  1  0
 53 89  1  0
 54 90  1  0
 54 91  1  0
 54 92  1  0
 55 93  1  0
 60 94  1  0
 61 95  1  0
M  END

