
     RDKit          3D

 99110  0  0  0  0  0  0  0  0999 V2000
   -2.0303   -3.3835   -6.5436 C   0  0  0  0  0  0  0  0  0  0  0  0
   -1.6703   -3.1102   -7.8158 C   0  0  0  0  0  0  0  0  0  0  0  0
   -0.3459   -2.6734   -8.2992 C   0  0  0  0  0  0  0  0  0  0  0  0
    0.6150   -2.2469   -7.6090 O   0  0  0  0  0  0  0  0  0  0  0  0
   -0.4012   -2.6206   -9.7385 C   0  0  0  0  0  0  0  0  0  0  0  0
   -1.6902   -2.8883  -10.1493 C   0  0  0  0  0  0  0  0  0  0  0  0
   -2.0261   -2.8594  -11.5082 C   0  0  0  0  0  0  0  0  0  0  0  0
   -1.0231   -2.5382  -12.4419 C   0  0  0  0  0  0  0  0  0  0  0  0
   -1.3260   -2.4979  -13.7673 F   0  0  0  0  0  0  0  0  0  0  0  0
    0.2904   -2.2450  -12.0073 C   0  0  0  0  0  0  0  0  0  0  0  0
    1.2404   -1.9157  -12.9193 F   0  0  0  0  0  0  0  0  0  0  0  0
    0.6039   -2.2760  -10.6406 C   0  0  0  0  0  0  0  0  0  0  0  0
    1.8581   -1.9807  -10.2137 F   0  0  0  0  0  0  0  0  0  0  0  0
   -2.5955   -3.1410   -9.0000 C   0  0  0  0  0  0  0  0  0  0  0  0
   -3.7788   -2.5145   -8.9490 C   0  0  0  0  0  0  0  0  0  0  0  0
   -4.8599   -3.1333   -8.2231 C   0  0  0  0  0  0  0  0  0  0  0  0
   -5.7202   -3.6087   -7.6011 N   0  0  0  0  0  0  0  0  0  0  0  0
   -3.7516   -1.0820   -8.8668 C   0  0  0  0  0  0  0  0  0  0  0  0
   -3.7131    0.0734   -8.7733 N   0  0  0  0  0  0  0  0  0  0  0  0
   -1.1237   -3.2835   -5.3853 C   0  0  0  0  0  0  0  0  0  0  0  0
    0.1955   -3.7709   -5.3049 C   0  0  0  0  0  0  0  0  0  0  0  0
    0.7823   -4.6363   -6.2236 O   0  0  0  0  0  0  0  0  0  0  0  0
    0.7084   -6.0511   -6.0860 C   0  0  0  0  0  0  0  0  0  0  0  0
   -0.6989   -6.5639   -6.3549 C   0  0  0  0  0  0  0  0  0  0  0  0
    0.8427   -3.2652   -4.1848 C   0  0  0  0  0  0  0  0  0  0  0  0
    2.4890   -3.0609   -3.8164 S   0  0  0  0  0  0  0  0  0  0  0  0
    2.0971   -1.9765   -2.5688 C   0  0  0  0  0  0  0  0  0  0  0  0
    2.6996   -1.2215   -1.6048 C   0  0  0  0  0  0  0  0  0  0  0  0
    4.0461   -1.0713   -1.2430 C   0  0  0  0  0  0  0  0  0  0  0  0
    4.3561   -0.2833   -0.0930 C   0  0  0  0  0  0  0  0  0  0  0  0
    5.6650   -0.1693    0.2459 N   0  0  0  0  0  0  0  0  0  0  0  0
    6.3343   -1.1077   -0.9496 S   0  0  0  0  0  0  0  0  0  0  0  0
    5.0840   -1.6576   -1.8962 N   0  0  0  0  0  0  0  0  0  0  0  0
    3.3066    0.3259    0.6117 C   0  0  0  0  0  0  0  0  0  0  0  0
    3.2880    1.1075    1.7300 C   0  0  0  0  0  0  0  0  0  0  0  0
    4.3324    1.7532    2.9078 S   0  0  0  0  0  0  0  0  0  0  0  0
    3.0153    2.4488    3.7539 C   0  0  0  0  0  0  0  0  0  0  0  0
    2.8455    3.0434    5.0163 C   0  0  0  0  0  0  0  0  0  0  0  0
    3.8679    3.4449    5.8936 O   0  0  0  0  0  0  0  0  0  0  0  0
    5.2016    3.7340    5.4797 C   0  0  0  0  0  0  0  0  0  0  0  0
    5.9631    4.3361    6.6460 C   0  0  0  0  0  0  0  0  0  0  0  0
    1.4836    3.1800    5.3483 C   0  0  0  0  0  0  0  0  0  0  0  0
    0.5228    2.5274    4.0905 S   0  0  0  0  0  0  0  0  0  0  0  0
    1.8280    2.1626    3.1157 C   0  0  0  0  0  0  0  0  0  0  0  0
    1.9973    1.4280    1.9603 C   0  0  0  0  0  0  0  0  0  0  0  0
    1.1407    0.9599    1.0144 N   0  0  0  0  0  0  0  0  0  0  0  0
    1.9612    0.2011    0.2169 C   0  0  0  0  0  0  0  0  0  0  0  0
    1.6438   -0.6343   -0.8796 C   0  0  0  0  0  0  0  0  0  0  0  0
    0.4264   -1.0703   -1.3417 N   0  0  0  0  0  0  0  0  0  0  0  0
    0.7639   -1.8077   -2.4243 C   0  0  0  0  0  0  0  0  0  0  0  0
    0.0386   -2.5284   -3.3488 C   0  0  0  0  0  0  0  0  0  0  0  0
   -1.4986   -2.3640   -3.9950 S   0  0  0  0  0  0  0  0  0  0  0  0
   -0.8220   -1.2725   -0.5729 C   0  0  0  0  0  0  0  0  0  0  0  0
   -1.0297   -2.7401   -0.1971 C   0  0  0  0  0  0  0  0  0  0  0  0
   -0.0845    1.6744    0.6066 C   0  0  0  0  0  0  0  0  0  0  0  0
    0.1759    3.1652    0.3533 C   0  0  0  0  0  0  0  0  0  0  0  0
    1.0236    3.5960    6.7004 C   0  0  0  0  0  0  0  0  0  0  0  0
   -0.2520    3.8654    7.0770 C   0  0  0  0  0  0  0  0  0  0  0  0
   -1.4494    3.8742    6.2292 C   0  0  0  0  0  0  0  0  0  0  0  0
   -1.5230    4.2457    5.0181 O   0  0  0  0  0  0  0  0  0  0  0  0
   -2.6082    3.6152    7.0617 C   0  0  0  0  0  0  0  0  0  0  0  0
   -3.9346    3.3411    6.6803 C   0  0  0  0  0  0  0  0  0  0  0  0
   -4.4470    3.3554    4.9942 Cl  0  0  0  0  0  0  0  0  0  0  0  0
   -4.8586    3.0397    7.6922 C   0  0  0  0  0  0  0  0  0  0  0  0
   -4.4504    2.9670    9.0331 C   0  0  0  0  0  0  0  0  0  0  0  0
   -3.1240    3.2489    9.3888 C   0  0  0  0  0  0  0  0  0  0  0  0
   -2.2155    3.6127    8.3832 C   0  0  0  0  0  0  0  0  0  0  0  0
   -0.7630    3.9199    8.4792 C   0  0  0  0  0  0  0  0  0  0  0  0
   -0.1329    4.4304    9.5715 C   0  0  0  0  0  0  0  0  0  0  0  0
    1.2483    4.8442    9.5615 C   0  0  0  0  0  0  0  0  0  0  0  0
    2.3532    5.1896    9.5613 N   0  0  0  0  0  0  0  0  0  0  0  0
   -0.8727    4.7990   10.7581 C   0  0  0  0  0  0  0  0  0  0  0  0
   -1.5024    5.1335   11.6683 N   0  0  0  0  0  0  0  0  0  0  0  0
   -3.0579   -3.6465   -6.3136 H   0  0  0  0  0  0  0  0  0  0  0  0
   -3.0334   -3.1073  -11.8396 H   0  0  0  0  0  0  0  0  0  0  0  0
    1.0258   -6.3559   -5.0644 H   0  0  0  0  0  0  0  0  0  0  0  0
    1.3939   -6.5078   -6.8247 H   0  0  0  0  0  0  0  0  0  0  0  0
   -1.0464   -6.2445   -7.3636 H   0  0  0  0  0  0  0  0  0  0  0  0
   -0.7219   -7.6779   -6.3077 H   0  0  0  0  0  0  0  0  0  0  0  0
   -1.3976   -6.1947   -5.5811 H   0  0  0  0  0  0  0  0  0  0  0  0
    5.1840    4.4861    4.6535 H   0  0  0  0  0  0  0  0  0  0  0  0
    5.7166    2.8049    5.1325 H   0  0  0  0  0  0  0  0  0  0  0  0
    5.4330    5.2304    7.0428 H   0  0  0  0  0  0  0  0  0  0  0  0
    6.0626    3.5893    7.4567 H   0  0  0  0  0  0  0  0  0  0  0  0
    6.9807    4.6412    6.3202 H   0  0  0  0  0  0  0  0  0  0  0  0
   -0.7847   -0.7503    0.3983 H   0  0  0  0  0  0  0  0  0  0  0  0
   -1.6860   -0.8955   -1.1664 H   0  0  0  0  0  0  0  0  0  0  0  0
   -1.2245   -3.3600   -1.0955 H   0  0  0  0  0  0  0  0  0  0  0  0
   -0.1298   -3.1306    0.3274 H   0  0  0  0  0  0  0  0  0  0  0  0
   -1.9060   -2.8180    0.4796 H   0  0  0  0  0  0  0  0  0  0  0  0
   -0.4759    1.2926   -0.3509 H   0  0  0  0  0  0  0  0  0  0  0  0
   -0.8660    1.5521    1.3919 H   0  0  0  0  0  0  0  0  0  0  0  0
    1.0026    3.2696   -0.3943 H   0  0  0  0  0  0  0  0  0  0  0  0
   -0.7502    3.6404   -0.0476 H   0  0  0  0  0  0  0  0  0  0  0  0
    0.4491    3.6840    1.2940 H   0  0  0  0  0  0  0  0  0  0  0  0
    1.8007    3.5797    7.4567 H   0  0  0  0  0  0  0  0  0  0  0  0
   -5.8878    2.8296    7.4376 H   0  0  0  0  0  0  0  0  0  0  0  0
   -5.1617    2.6871    9.8000 H   0  0  0  0  0  0  0  0  0  0  0  0
   -2.8239    3.1367   10.4172 H   0  0  0  0  0  0  0  0  0  0  0  0
  1  2  2  3
  2  3  1  0
  3  4  2  0
  3  5  1  0
  5  6  2  0
  6  7  1  0
  7  8  2  0
  8  9  1  0
  8 10  1  0
 10 11  1  0
 10 12  2  0
 12 13  1  0
  6 14  1  0
 14 15  2  3
 15 16  1  0
 16 17  3  0
 15 18  1  0
 18 19  3  0
  1 20  1  0
 20 21  2  0
 21 22  1  0
 22 23  1  0
 23 24  1  0
 21 25  1  0
 25 26  1  0
 26 27  1  0
 27 28  1  0
 28 29  1  0
 29 30  1  0
 30 31  2  0
 31 32  1  0
 32 33  1  0
 30 34  1  0
 34 35  1  0
 35 36  1  0
 36 37  1  0
 37 38  1  0
 38 39  1  0
 39 40  1  0
 40 41  1  0
 38 42  2  0
 42 43  1  0
 43 44  1  0
 44 45  1  0
 45 46  1  0
 46 47  1  0
 47 48  1  0
 48 49  1  0
 49 50  1  0
 50 51  1  0
 51 52  1  0
 49 53  1  0
 53 54  1  0
 46 55  1  0
 55 56  1  0
 42 57  1  0
 57 58  2  3
 58 59  1  0
 59 60  2  0
 59 61  1  0
 61 62  2  0
 62 63  1  0
 62 64  1  0
 64 65  2  0
 65 66  1  0
 66 67  2  0
 67 68  1  0
 68 69  2  3
 69 70  1  0
 70 71  3  0
 69 72  1  0
 72 73  3  0
 14  2  1  0
 52 20  1  0
 68 58  1  0
 12  5  1  0
 51 25  2  0
 67 61  1  0
 50 27  2  0
 48 28  2  0
 33 29  2  0
 47 34  2  0
 45 35  2  0
 44 37  2  0
  1 74  1  0
  7 75  1  0
 23 76  1  0
 23 77  1  0
 24 78  1  0
 24 79  1  0
 24 80  1  0
 40 81  1  0
 40 82  1  0
 41 83  1  0
 41 84  1  0
 41 85  1  0
 53 86  1  0
 53 87  1  0
 54 88  1  0
 54 89  1  0
 54 90  1  0
 55 91  1  0
 55 92  1  0
 56 93  1  0
 56 94  1  0
 56 95  1  0
 57 96  1  0
 64 97  1  0
 65 98  1  0
 66 99  1  0
M  END

