
     RDKit          3D

 94105  0  0  0  0  0  0  0  0999 V2000
    3.3785   -2.6821    5.6974 C   0  0  0  0  0  0  0  0  0  0  0  0
    3.0087   -3.9708    5.8354 C   0  0  0  0  0  0  0  0  0  0  0  0
    2.9111   -4.9483    4.7437 C   0  0  0  0  0  0  0  0  0  0  0  0
    3.0311   -4.7131    3.5154 O   0  0  0  0  0  0  0  0  0  0  0  0
    2.8275   -6.2734    5.3215 C   0  0  0  0  0  0  0  0  0  0  0  0
    2.8702   -6.1896    6.7049 C   0  0  0  0  0  0  0  0  0  0  0  0
    2.7666   -7.3596    7.4697 C   0  0  0  0  0  0  0  0  0  0  0  0
    2.6571   -8.6006    6.8193 C   0  0  0  0  0  0  0  0  0  0  0  0
    2.5676   -9.7386    7.5550 F   0  0  0  0  0  0  0  0  0  0  0  0
    2.6315   -8.6701    5.4166 C   0  0  0  0  0  0  0  0  0  0  0  0
    2.5051   -9.8718    4.7957 F   0  0  0  0  0  0  0  0  0  0  0  0
    2.7073   -7.4939    4.6531 C   0  0  0  0  0  0  0  0  0  0  0  0
    2.6495   -7.5414    3.2953 F   0  0  0  0  0  0  0  0  0  0  0  0
    2.9307   -4.7523    7.1105 C   0  0  0  0  0  0  0  0  0  0  0  0
    2.7695   -4.2501    8.3634 C   0  0  0  0  0  0  0  0  0  0  0  0
    2.8406   -5.0514    9.5528 C   0  0  0  0  0  0  0  0  0  0  0  0
    2.9116   -5.6709   10.5283 N   0  0  0  0  0  0  0  0  0  0  0  0
    2.4857   -2.8607    8.6005 C   0  0  0  0  0  0  0  0  0  0  0  0
    2.2422   -1.7457    8.7885 N   0  0  0  0  0  0  0  0  0  0  0  0
    3.3703   -1.9558    4.4148 C   0  0  0  0  0  0  0  0  0  0  0  0
    4.4000   -1.1174    3.9395 C   0  0  0  0  0  0  0  0  0  0  0  0
    5.7308   -0.9136    4.6060 C   0  0  0  0  0  0  0  0  0  0  0  0
    6.7248   -1.9678    4.1328 C   0  0  0  0  0  0  0  0  0  0  0  0
    4.0403   -0.5429    2.7163 C   0  0  0  0  0  0  0  0  0  0  0  0
    4.8113    0.5722    1.6820 S   0  0  0  0  0  0  0  0  0  0  0  0
    3.4831    0.5409    0.6234 C   0  0  0  0  0  0  0  0  0  0  0  0
    2.9869    1.3000   -0.3964 C   0  0  0  0  0  0  0  0  0  0  0  0
    3.4924    2.4755   -0.9608 C   0  0  0  0  0  0  0  0  0  0  0  0
    2.6506    3.2496   -1.8036 C   0  0  0  0  0  0  0  0  0  0  0  0
    3.1566    4.4083   -2.2898 N   0  0  0  0  0  0  0  0  0  0  0  0
    4.6533    4.3723   -1.5852 S   0  0  0  0  0  0  0  0  0  0  0  0
    4.7208    2.9800   -0.6928 N   0  0  0  0  0  0  0  0  0  0  0  0
    1.3669    2.7755   -2.0780 C   0  0  0  0  0  0  0  0  0  0  0  0
    0.3606    3.3042   -2.8335 C   0  0  0  0  0  0  0  0  0  0  0  0
   -0.0361    4.7523   -3.6325 S   0  0  0  0  0  0  0  0  0  0  0  0
   -1.6058    4.1571   -3.9636 C   0  0  0  0  0  0  0  0  0  0  0  0
   -2.7649    4.7498   -4.4696 C   0  0  0  0  0  0  0  0  0  0  0  0
   -2.8246    6.1773   -4.9484 C   0  0  0  0  0  0  0  0  0  0  0  0
   -3.0230    6.2537   -6.4580 C   0  0  0  0  0  0  0  0  0  0  0  0
   -3.8673    3.8654   -4.3764 C   0  0  0  0  0  0  0  0  0  0  0  0
   -3.3784    2.4326   -3.5794 S   0  0  0  0  0  0  0  0  0  0  0  0
   -1.7771    2.8878   -3.4674 C   0  0  0  0  0  0  0  0  0  0  0  0
   -0.6538    2.4167   -2.8103 C   0  0  0  0  0  0  0  0  0  0  0  0
   -0.3807    1.3015   -2.0895 N   0  0  0  0  0  0  0  0  0  0  0  0
    0.8673    1.5584   -1.5620 C   0  0  0  0  0  0  0  0  0  0  0  0
    1.6658    0.8517   -0.6103 C   0  0  0  0  0  0  0  0  0  0  0  0
    1.3300   -0.0870    0.3432 N   0  0  0  0  0  0  0  0  0  0  0  0
    2.4782   -0.2558    1.0507 C   0  0  0  0  0  0  0  0  0  0  0  0
    2.7905   -0.8736    2.2555 C   0  0  0  0  0  0  0  0  0  0  0  0
    2.0422   -1.9031    3.3445 S   0  0  0  0  0  0  0  0  0  0  0  0
    0.0074   -0.5265    0.8043 C   0  0  0  0  0  0  0  0  0  0  0  0
   -0.8342    0.6464    1.2936 C   0  0  0  0  0  0  0  0  0  0  0  0
   -1.1050    0.0337   -2.2658 C   0  0  0  0  0  0  0  0  0  0  0  0
   -0.1716   -1.0899   -2.7238 C   0  0  0  0  0  0  0  0  0  0  0  0
   -5.2760    4.2578   -4.6092 C   0  0  0  0  0  0  0  0  0  0  0  0
   -6.2703    3.4218   -4.9518 C   0  0  0  0  0  0  0  0  0  0  0  0
   -6.1496    1.9780   -5.2784 C   0  0  0  0  0  0  0  0  0  0  0  0
   -5.1281    1.3771   -5.7071 O   0  0  0  0  0  0  0  0  0  0  0  0
   -7.4715    1.4026   -5.1738 C   0  0  0  0  0  0  0  0  0  0  0  0
   -8.0031    0.1286   -5.3578 C   0  0  0  0  0  0  0  0  0  0  0  0
   -9.3941    0.1463   -5.2086 C   0  0  0  0  0  0  0  0  0  0  0  0
   -9.9149    1.7378   -4.8826 S   0  0  0  0  0  0  0  0  0  0  0  0
   -8.3637    2.3800   -4.8982 C   0  0  0  0  0  0  0  0  0  0  0  0
   -7.7429    3.7081   -4.8442 C   0  0  0  0  0  0  0  0  0  0  0  0
   -8.3937    4.8925   -4.7981 C   0  0  0  0  0  0  0  0  0  0  0  0
   -7.7333    6.1527   -5.0275 C   0  0  0  0  0  0  0  0  0  0  0  0
   -7.2136    7.1706   -5.2153 N   0  0  0  0  0  0  0  0  0  0  0  0
   -9.8230    4.9518   -4.6127 C   0  0  0  0  0  0  0  0  0  0  0  0
  -10.9699    5.0141   -4.4583 N   0  0  0  0  0  0  0  0  0  0  0  0
    3.7395   -2.1322    6.5488 H   0  0  0  0  0  0  0  0  0  0  0  0
    2.7723   -7.3531    8.5440 H   0  0  0  0  0  0  0  0  0  0  0  0
    5.6242   -0.9697    5.7101 H   0  0  0  0  0  0  0  0  0  0  0  0
    6.1259    0.0998    4.3650 H   0  0  0  0  0  0  0  0  0  0  0  0
    6.3229   -2.9912    4.3208 H   0  0  0  0  0  0  0  0  0  0  0  0
    7.6851   -1.8418    4.6735 H   0  0  0  0  0  0  0  0  0  0  0  0
    6.9162   -1.8513    3.0438 H   0  0  0  0  0  0  0  0  0  0  0  0
   -3.6463    6.7159   -4.4326 H   0  0  0  0  0  0  0  0  0  0  0  0
   -1.8808    6.7024   -4.6917 H   0  0  0  0  0  0  0  0  0  0  0  0
   -3.1340    7.3216   -6.7530 H   0  0  0  0  0  0  0  0  0  0  0  0
   -2.1449    5.8228   -6.9898 H   0  0  0  0  0  0  0  0  0  0  0  0
   -3.9433    5.7076   -6.7527 H   0  0  0  0  0  0  0  0  0  0  0  0
   -0.4914   -1.1377    0.0456 H   0  0  0  0  0  0  0  0  0  0  0  0
    0.0990   -1.2317    1.6444 H   0  0  0  0  0  0  0  0  0  0  0  0
   -0.3041    1.1807    2.1060 H   0  0  0  0  0  0  0  0  0  0  0  0
   -1.8049    0.2794    1.6755 H   0  0  0  0  0  0  0  0  0  0  0  0
   -1.0346    1.3550    0.4711 H   0  0  0  0  0  0  0  0  0  0  0  0
   -1.8630    0.1420   -3.0716 H   0  0  0  0  0  0  0  0  0  0  0  0
   -1.6936   -0.2069   -1.3677 H   0  0  0  0  0  0  0  0  0  0  0  0
    0.3430   -0.7864   -3.6600 H   0  0  0  0  0  0  0  0  0  0  0  0
   -0.7586   -2.0083   -2.9179 H   0  0  0  0  0  0  0  0  0  0  0  0
    0.5962   -1.3272   -1.9649 H   0  0  0  0  0  0  0  0  0  0  0  0
   -5.5096    5.2748   -4.3428 H   0  0  0  0  0  0  0  0  0  0  0  0
   -7.4202   -0.7540   -5.5961 H   0  0  0  0  0  0  0  0  0  0  0  0
  -10.0408   -0.7205   -5.3073 H   0  0  0  0  0  0  0  0  0  0  0  0
  1  2  2  3
  2  3  1  0
  3  4  2  0
  3  5  1  0
  5  6  2  0
  6  7  1  0
  7  8  2  0
  8  9  1  0
  8 10  1  0
 10 11  1  0
 10 12  2  0
 12 13  1  0
  6 14  1  0
 14 15  2  3
 15 16  1  0
 16 17  3  0
 15 18  1  0
 18 19  3  0
  1 20  1  0
 20 21  2  0
 21 22  1  0
 22 23  1  0
 21 24  1  0
 24 25  1  0
 25 26  1  0
 26 27  1  0
 27 28  1  0
 28 29  1  0
 29 30  2  0
 30 31  1  0
 31 32  1  0
 29 33  1  0
 33 34  1  0
 34 35  1  0
 35 36  1  0
 36 37  1  0
 37 38  1  0
 38 39  1  0
 37 40  2  0
 40 41  1  0
 41 42  1  0
 42 43  1  0
 43 44  1  0
 44 45  1  0
 45 46  1  0
 46 47  1  0
 47 48  1  0
 48 49  1  0
 49 50  1  0
 47 51  1  0
 51 52  1  0
 44 53  1  0
 53 54  1  0
 40 55  1  0
 55 56  2  3
 56 57  1  0
 57 58  2  0
 57 59  1  0
 59 60  1  0
 60 61  2  0
 61 62  1  0
 62 63  1  0
 63 64  1  0
 64 65  2  3
 65 66  1  0
 66 67  3  0
 65 68  1  0
 68 69  3  0
 14  2  1  0
 50 20  1  0
 64 56  1  0
 12  5  1  0
 49 24  2  0
 63 59  2  0
 48 26  2  0
 46 27  2  0
 32 28  2  0
 45 33  2  0
 43 34  2  0
 42 36  2  0
  1 70  1  0
  7 71  1  0
 22 72  1  0
 22 73  1  0
 23 74  1  0
 23 75  1  0
 23 76  1  0
 38 77  1  0
 38 78  1  0
 39 79  1  0
 39 80  1  0
 39 81  1  0
 51 82  1  0
 51 83  1  0
 52 84  1  0
 52 85  1  0
 52 86  1  0
 53 87  1  0
 53 88  1  0
 54 89  1  0
 54 90  1  0
 54 91  1  0
 55 92  1  0
 60 93  1  0
 61 94  1  0
M  END

