
     RDKit          3D

 85 95  0  0  0  0  0  0  0  0999 V2000
   -1.5106   -2.5130    6.0123 C   0  0  0  0  0  0  0  0  0  0  0  0
   -0.8246   -2.3843    7.1616 C   0  0  0  0  0  0  0  0  0  0  0  0
   -1.3310   -2.8939    8.4340 C   0  0  0  0  0  0  0  0  0  0  0  0
   -2.2449   -3.7502    8.5774 O   0  0  0  0  0  0  0  0  0  0  0  0
   -0.6597   -2.1889    9.5059 C   0  0  0  0  0  0  0  0  0  0  0  0
    0.2804   -1.3205    8.9685 C   0  0  0  0  0  0  0  0  0  0  0  0
    1.0197   -0.4806    9.8209 C   0  0  0  0  0  0  0  0  0  0  0  0
    0.8134   -0.5668   11.2083 C   0  0  0  0  0  0  0  0  0  0  0  0
    1.5326    0.2229   12.0447 F   0  0  0  0  0  0  0  0  0  0  0  0
   -0.1323   -1.4654   11.7381 C   0  0  0  0  0  0  0  0  0  0  0  0
   -0.3248   -1.5316   13.0802 F   0  0  0  0  0  0  0  0  0  0  0  0
   -0.8860   -2.2795   10.8812 C   0  0  0  0  0  0  0  0  0  0  0  0
   -1.8133   -3.1318   11.3796 F   0  0  0  0  0  0  0  0  0  0  0  0
    0.3279   -1.4929    7.4885 C   0  0  0  0  0  0  0  0  0  0  0  0
    1.3855   -1.2242    6.6855 C   0  0  0  0  0  0  0  0  0  0  0  0
    2.4831   -0.3920    7.1013 C   0  0  0  0  0  0  0  0  0  0  0  0
    3.3722    0.2754    7.4204 N   0  0  0  0  0  0  0  0  0  0  0  0
    1.5905   -1.9403    5.4532 C   0  0  0  0  0  0  0  0  0  0  0  0
    1.7771   -2.5268    4.4736 N   0  0  0  0  0  0  0  0  0  0  0  0
   -1.3471   -1.6587    4.8250 C   0  0  0  0  0  0  0  0  0  0  0  0
   -1.5104   -0.2565    4.7611 C   0  0  0  0  0  0  0  0  0  0  0  0
   -1.8994    0.6426    5.9041 C   0  0  0  0  0  0  0  0  0  0  0  0
   -3.4163    0.7034    6.0424 C   0  0  0  0  0  0  0  0  0  0  0  0
   -1.4592    0.1826    3.4367 C   0  0  0  0  0  0  0  0  0  0  0  0
   -1.5398    1.7239    2.7111 S   0  0  0  0  0  0  0  0  0  0  0  0
   -1.3709    1.0328    1.1693 C   0  0  0  0  0  0  0  0  0  0  0  0
   -0.9764    1.4464   -0.0689 C   0  0  0  0  0  0  0  0  0  0  0  0
   -0.6338    2.7203   -0.5439 C   0  0  0  0  0  0  0  0  0  0  0  0
    0.0209    2.8275   -1.8067 C   0  0  0  0  0  0  0  0  0  0  0  0
    0.3446    4.0746   -2.2298 N   0  0  0  0  0  0  0  0  0  0  0  0
   -0.2138    4.9571   -0.9441 S   0  0  0  0  0  0  0  0  0  0  0  0
   -0.8547    3.8730    0.1331 N   0  0  0  0  0  0  0  0  0  0  0  0
    0.2801    1.6575   -2.5276 C   0  0  0  0  0  0  0  0  0  0  0  0
    0.7404    1.4609   -3.7971 C   0  0  0  0  0  0  0  0  0  0  0  0
    1.1340    2.3933   -5.1599 S   0  0  0  0  0  0  0  0  0  0  0  0
    1.0794    1.0046   -6.1528 C   0  0  0  0  0  0  0  0  0  0  0  0
    1.2689    0.7933   -7.5197 C   0  0  0  0  0  0  0  0  0  0  0  0
    1.7414    1.8676   -8.4618 C   0  0  0  0  0  0  0  0  0  0  0  0
    3.2430    1.7575   -8.6976 C   0  0  0  0  0  0  0  0  0  0  0  0
    1.0891   -0.5705   -7.8385 C   0  0  0  0  0  0  0  0  0  0  0  0
    0.6899   -1.4550   -6.4337 S   0  0  0  0  0  0  0  0  0  0  0  0
    0.7415   -0.1125   -5.4355 C   0  0  0  0  0  0  0  0  0  0  0  0
    0.5553    0.1485   -4.0872 C   0  0  0  0  0  0  0  0  0  0  0  0
   -0.0290   -0.5429   -3.0753 N   0  0  0  0  0  0  0  0  0  0  0  0
   -0.1183    0.3895   -2.0733 C   0  0  0  0  0  0  0  0  0  0  0  0
   -0.6764    0.2708   -0.7773 C   0  0  0  0  0  0  0  0  0  0  0  0
   -0.7738   -0.8337    0.0349 N   0  0  0  0  0  0  0  0  0  0  0  0
   -1.2339   -0.3184    1.2036 C   0  0  0  0  0  0  0  0  0  0  0  0
   -1.2752   -0.8041    2.5033 C   0  0  0  0  0  0  0  0  0  0  0  0
   -1.1858   -2.2987    3.2519 S   0  0  0  0  0  0  0  0  0  0  0  0
    0.0167   -2.0726   -0.0508 C   0  0  0  0  0  0  0  0  0  0  0  0
   -0.8738   -3.3200    0.0500 C   0  0  0  0  0  0  0  0  0  0  0  0
   -0.9231   -1.6912   -3.2801 C   0  0  0  0  0  0  0  0  0  0  0  0
   -2.1914   -1.2686   -4.0215 C   0  0  0  0  0  0  0  0  0  0  0  0
    1.2852   -1.1981   -9.1510 C   0  0  0  0  0  0  0  0  0  0  0  0
    0.7520   -0.7667  -10.3628 C   0  0  0  0  0  0  0  0  0  0  0  0
    1.0934   -1.5974  -11.4369 C   0  0  0  0  0  0  0  0  0  0  0  0
    1.8866   -2.6740  -11.0625 C   0  0  0  0  0  0  0  0  0  0  0  0
    2.3889   -3.6873  -11.9461 C   0  0  0  0  0  0  0  0  0  0  0  0
    2.7965   -4.5068  -12.6565 N   0  0  0  0  0  0  0  0  0  0  0  0
    2.1590   -2.6169   -9.4092 S   0  0  0  0  0  0  0  0  0  0  0  0
   -2.3246   -3.2289    5.9716 H   0  0  0  0  0  0  0  0  0  0  0  0
    1.7273    0.2421    9.4461 H   0  0  0  0  0  0  0  0  0  0  0  0
   -1.5058    1.6675    5.7244 H   0  0  0  0  0  0  0  0  0  0  0  0
   -1.4678    0.2860    6.8579 H   0  0  0  0  0  0  0  0  0  0  0  0
   -3.8765    1.0911    5.1071 H   0  0  0  0  0  0  0  0  0  0  0  0
   -3.8182   -0.3089    6.2636 H   0  0  0  0  0  0  0  0  0  0  0  0
   -3.6874    1.3823    6.8771 H   0  0  0  0  0  0  0  0  0  0  0  0
    1.2046    1.8019   -9.4275 H   0  0  0  0  0  0  0  0  0  0  0  0
    1.5125    2.8702   -8.0397 H   0  0  0  0  0  0  0  0  0  0  0  0
    3.5836    2.6069   -9.3257 H   0  0  0  0  0  0  0  0  0  0  0  0
    3.7915    1.7912   -7.7308 H   0  0  0  0  0  0  0  0  0  0  0  0
    3.4808    0.8082   -9.2256 H   0  0  0  0  0  0  0  0  0  0  0  0
    0.6099   -2.1038   -0.9876 H   0  0  0  0  0  0  0  0  0  0  0  0
    0.7641   -2.0833    0.7754 H   0  0  0  0  0  0  0  0  0  0  0  0
   -1.9254   -3.0575    0.2974 H   0  0  0  0  0  0  0  0  0  0  0  0
   -0.8709   -3.8774   -0.9087 H   0  0  0  0  0  0  0  0  0  0  0  0
   -0.4845   -4.0028    0.8336 H   0  0  0  0  0  0  0  0  0  0  0  0
   -0.3944   -2.4892   -3.8462 H   0  0  0  0  0  0  0  0  0  0  0  0
   -1.2515   -2.1123   -2.3203 H   0  0  0  0  0  0  0  0  0  0  0  0
   -2.8788   -2.1356   -4.1125 H   0  0  0  0  0  0  0  0  0  0  0  0
   -1.9482   -0.9043   -5.0409 H   0  0  0  0  0  0  0  0  0  0  0  0
   -2.7100   -0.4620   -3.4587 H   0  0  0  0  0  0  0  0  0  0  0  0
    0.1004    0.0925  -10.4678 H   0  0  0  0  0  0  0  0  0  0  0  0
    0.7664   -1.4197  -12.4528 H   0  0  0  0  0  0  0  0  0  0  0  0
  1  2  2  3
  2  3  1  0
  3  4  2  0
  3  5  1  0
  5  6  2  0
  6  7  1  0
  7  8  2  0
  8  9  1  0
  8 10  1  0
 10 11  1  0
 10 12  2  0
 12 13  1  0
  6 14  1  0
 14 15  2  3
 15 16  1  0
 16 17  3  0
 15 18  1  0
 18 19  3  0
  1 20  1  0
 20 21  2  0
 21 22  1  0
 22 23  1  0
 21 24  1  0
 24 25  1  0
 25 26  1  0
 26 27  1  0
 27 28  1  0
 28 29  1  0
 29 30  2  0
 30 31  1  0
 31 32  1  0
 29 33  1  0
 33 34  1  0
 34 35  1  0
 35 36  1  0
 36 37  1  0
 37 38  1  0
 38 39  1  0
 37 40  2  0
 40 41  1  0
 41 42  1  0
 42 43  1  0
 43 44  1  0
 44 45  1  0
 45 46  1  0
 46 47  1  0
 47 48  1  0
 48 49  1  0
 49 50  1  0
 47 51  1  0
 51 52  1  0
 44 53  1  0
 53 54  1  0
 40 55  1  0
 55 56  2  0
 56 57  1  0
 57 58  2  0
 58 59  1  0
 59 60  3  0
 58 61  1  0
 14  2  1  0
 50 20  1  0
 61 55  1  0
 12  5  1  0
 49 24  2  0
 48 26  2  0
 46 27  2  0
 32 28  2  0
 45 33  2  0
 43 34  2  0
 42 36  2  0
  1 62  1  0
  7 63  1  0
 22 64  1  0
 22 65  1  0
 23 66  1  0
 23 67  1  0
 23 68  1  0
 38 69  1  0
 38 70  1  0
 39 71  1  0
 39 72  1  0
 39 73  1  0
 51 74  1  0
 51 75  1  0
 52 76  1  0
 52 77  1  0
 52 78  1  0
 53 79  1  0
 53 80  1  0
 54 81  1  0
 54 82  1  0
 54 83  1  0
 56 84  1  0
 57 85  1  0
M  END

