
     RDKit          3D

 99109  0  0  0  0  0  0  0  0999 V2000
   -0.1978   -4.2129   -5.8604 C   0  0  0  0  0  0  0  0  0  0  0  0
   -1.0534   -5.1535   -5.4192 C   0  0  0  0  0  0  0  0  0  0  0  0
   -1.2011   -5.6003   -4.0251 C   0  0  0  0  0  0  0  0  0  0  0  0
   -0.6648   -5.0827   -3.0089 O   0  0  0  0  0  0  0  0  0  0  0  0
   -1.9378   -6.8461   -4.0197 C   0  0  0  0  0  0  0  0  0  0  0  0
   -2.2590   -7.2003   -5.3198 C   0  0  0  0  0  0  0  0  0  0  0  0
   -2.8783   -8.4353   -5.5700 C   0  0  0  0  0  0  0  0  0  0  0  0
   -3.2046   -9.2701   -4.4888 C   0  0  0  0  0  0  0  0  0  0  0  0
   -3.8121  -10.4595   -4.7188 F   0  0  0  0  0  0  0  0  0  0  0  0
   -2.8952   -8.8858   -3.1732 C   0  0  0  0  0  0  0  0  0  0  0  0
   -3.2129   -9.6991   -2.1355 F   0  0  0  0  0  0  0  0  0  0  0  0
   -2.2444   -7.6673   -2.9310 C   0  0  0  0  0  0  0  0  0  0  0  0
   -1.9079   -7.3096   -1.6678 F   0  0  0  0  0  0  0  0  0  0  0  0
   -1.8119   -6.1318   -6.2588 C   0  0  0  0  0  0  0  0  0  0  0  0
   -2.2152   -5.9567   -7.5462 C   0  0  0  0  0  0  0  0  0  0  0  0
   -1.9417   -4.7479   -8.2813 C   0  0  0  0  0  0  0  0  0  0  0  0
   -1.7274   -3.7784   -8.8765 N   0  0  0  0  0  0  0  0  0  0  0  0
   -3.0651   -6.8915   -8.2336 C   0  0  0  0  0  0  0  0  0  0  0  0
   -3.7528   -7.6281   -8.8034 N   0  0  0  0  0  0  0  0  0  0  0  0
    0.4370   -3.1937   -5.0059 C   0  0  0  0  0  0  0  0  0  0  0  0
    1.7582   -2.7255   -5.1520 C   0  0  0  0  0  0  0  0  0  0  0  0
    2.7655   -3.2647   -6.1302 C   0  0  0  0  0  0  0  0  0  0  0  0
    2.7259   -2.4797   -7.4380 C   0  0  0  0  0  0  0  0  0  0  0  0
    2.0043   -1.6520   -4.2937 C   0  0  0  0  0  0  0  0  0  0  0  0
    3.3997   -0.7438   -3.9169 S   0  0  0  0  0  0  0  0  0  0  0  0
    2.5316    0.1567   -2.7653 C   0  0  0  0  0  0  0  0  0  0  0  0
    2.8191    0.9092   -1.6623 C   0  0  0  0  0  0  0  0  0  0  0  0
    4.0431    1.3011   -1.1037 C   0  0  0  0  0  0  0  0  0  0  0  0
    4.0535    1.8436    0.2183 C   0  0  0  0  0  0  0  0  0  0  0  0
    5.2572    2.1960    0.7306 N   0  0  0  0  0  0  0  0  0  0  0  0
    6.2337    1.7654   -0.5365 S   0  0  0  0  0  0  0  0  0  0  0  0
    5.2427    1.1610   -1.7188 N   0  0  0  0  0  0  0  0  0  0  0  0
    2.8369    1.9839    0.8947 C   0  0  0  0  0  0  0  0  0  0  0  0
    2.5075    2.5733    2.0819 C   0  0  0  0  0  0  0  0  0  0  0  0
    3.2488    3.4238    3.3522 S   0  0  0  0  0  0  0  0  0  0  0  0
    1.7183    3.8497    3.9834 C   0  0  0  0  0  0  0  0  0  0  0  0
    1.3067    4.5779    5.0990 C   0  0  0  0  0  0  0  0  0  0  0  0
    2.2518    5.1359    6.1270 C   0  0  0  0  0  0  0  0  0  0  0  0
    2.6152    4.0755    7.1615 C   0  0  0  0  0  0  0  0  0  0  0  0
   -0.0988    4.6620    5.1516 C   0  0  0  0  0  0  0  0  0  0  0  0
   -0.7836    3.8012    3.8401 S   0  0  0  0  0  0  0  0  0  0  0  0
    0.7001    3.3676    3.2056 C   0  0  0  0  0  0  0  0  0  0  0  0
    1.1527    2.6257    2.1324 C   0  0  0  0  0  0  0  0  0  0  0  0
    0.5551    2.1196    1.0279 N   0  0  0  0  0  0  0  0  0  0  0  0
    1.6129    1.6373    0.3058 C   0  0  0  0  0  0  0  0  0  0  0  0
    1.6144    0.9919   -0.9473 C   0  0  0  0  0  0  0  0  0  0  0  0
    0.6508    0.1904   -1.5006 N   0  0  0  0  0  0  0  0  0  0  0  0
    1.2380   -0.2466   -2.6440 C   0  0  0  0  0  0  0  0  0  0  0  0
    0.9402   -1.2826   -3.5141 C   0  0  0  0  0  0  0  0  0  0  0  0
   -0.3872   -2.2504   -3.8402 S   0  0  0  0  0  0  0  0  0  0  0  0
   -0.3615   -0.5843   -0.7618 C   0  0  0  0  0  0  0  0  0  0  0  0
    0.2501   -1.8594   -0.1817 C   0  0  0  0  0  0  0  0  0  0  0  0
   -0.7292    2.5955    0.4907 C   0  0  0  0  0  0  0  0  0  0  0  0
   -0.6420    4.0676    0.0927 C   0  0  0  0  0  0  0  0  0  0  0  0
   -0.8758    5.2300    6.2694 C   0  0  0  0  0  0  0  0  0  0  0  0
   -2.0149    5.9449    6.1279 C   0  0  0  0  0  0  0  0  0  0  0  0
   -2.4833    6.4337    4.8102 C   0  0  0  0  0  0  0  0  0  0  0  0
   -1.6565    6.7198    3.8990 O   0  0  0  0  0  0  0  0  0  0  0  0
   -3.8889    6.6416    4.6000 N   0  0  0  0  0  0  0  0  0  0  0  0
   -4.4145    6.8505    3.2436 C   0  0  0  0  0  0  0  0  0  0  0  0
   -4.5991    5.5146    2.5349 C   0  0  0  0  0  0  0  0  0  0  0  0
   -4.7757    6.5433    5.7310 C   0  0  0  0  0  0  0  0  0  0  0  0
   -6.0265    6.5667    5.5601 O   0  0  0  0  0  0  0  0  0  0  0  0
   -4.2235    6.4421    7.1025 C   0  0  0  0  0  0  0  0  0  0  0  0
   -2.8984    6.2257    7.3031 C   0  0  0  0  0  0  0  0  0  0  0  0
   -2.3221    6.1825    8.7040 C   0  0  0  0  0  0  0  0  0  0  0  0
   -5.1452    6.5815    8.2127 C   0  0  0  0  0  0  0  0  0  0  0  0
   -5.8819    6.6935    9.0975 N   0  0  0  0  0  0  0  0  0  0  0  0
    0.0869   -4.2001   -6.9017 H   0  0  0  0  0  0  0  0  0  0  0  0
   -3.0882   -8.7829   -6.5668 H   0  0  0  0  0  0  0  0  0  0  0  0
    3.7845   -3.1955   -5.6926 H   0  0  0  0  0  0  0  0  0  0  0  0
    2.5649   -4.3387   -6.3361 H   0  0  0  0  0  0  0  0  0  0  0  0
    2.9925   -1.4170   -7.2554 H   0  0  0  0  0  0  0  0  0  0  0  0
    3.4574   -2.9133   -8.1538 H   0  0  0  0  0  0  0  0  0  0  0  0
    1.7128   -2.5293   -7.8916 H   0  0  0  0  0  0  0  0  0  0  0  0
    3.1777    5.4954    5.6284 H   0  0  0  0  0  0  0  0  0  0  0  0
    1.7922    6.0070    6.6386 H   0  0  0  0  0  0  0  0  0  0  0  0
    3.0882    3.1976    6.6709 H   0  0  0  0  0  0  0  0  0  0  0  0
    1.7061    3.7424    7.7037 H   0  0  0  0  0  0  0  0  0  0  0  0
    3.3306    4.5000    7.8963 H   0  0  0  0  0  0  0  0  0  0  0  0
   -0.7741   -0.0177    0.0908 H   0  0  0  0  0  0  0  0  0  0  0  0
   -1.2069   -0.8413   -1.4342 H   0  0  0  0  0  0  0  0  0  0  0  0
   -0.5106   -2.4014    0.4197 H   0  0  0  0  0  0  0  0  0  0  0  0
    1.1050   -1.6042    0.4799 H   0  0  0  0  0  0  0  0  0  0  0  0
    0.6116   -2.5319   -0.9899 H   0  0  0  0  0  0  0  0  0  0  0  0
   -1.5313    2.4512    1.2486 H   0  0  0  0  0  0  0  0  0  0  0  0
   -1.0144    2.0429   -0.4232 H   0  0  0  0  0  0  0  0  0  0  0  0
    0.1326    4.2011   -0.6903 H   0  0  0  0  0  0  0  0  0  0  0  0
   -0.3884    4.7034    0.9654 H   0  0  0  0  0  0  0  0  0  0  0  0
   -1.6208    4.4011   -0.3111 H   0  0  0  0  0  0  0  0  0  0  0  0
   -0.5278    4.9509    7.2538 H   0  0  0  0  0  0  0  0  0  0  0  0
   -5.3880    7.3871    3.2759 H   0  0  0  0  0  0  0  0  0  0  0  0
   -3.7207    7.4865    2.6547 H   0  0  0  0  0  0  0  0  0  0  0  0
   -5.2887    4.8703    3.1156 H   0  0  0  0  0  0  0  0  0  0  0  0
   -5.0291    5.6831    1.5252 H   0  0  0  0  0  0  0  0  0  0  0  0
   -3.6222    4.9992    2.4278 H   0  0  0  0  0  0  0  0  0  0  0  0
   -2.3559    5.1409    9.0874 H   0  0  0  0  0  0  0  0  0  0  0  0
   -2.8728    6.8480    9.4011 H   0  0  0  0  0  0  0  0  0  0  0  0
   -1.2720    6.5448    8.7067 H   0  0  0  0  0  0  0  0  0  0  0  0
  1  2  2  3
  2  3  1  0
  3  4  2  0
  3  5  1  0
  5  6  2  0
  6  7  1  0
  7  8  2  0
  8  9  1  0
  8 10  1  0
 10 11  1  0
 10 12  2  0
 12 13  1  0
  6 14  1  0
 14 15  2  3
 15 16  1  0
 16 17  3  0
 15 18  1  0
 18 19  3  0
  1 20  1  0
 20 21  2  0
 21 22  1  0
 22 23  1  0
 21 24  1  0
 24 25  1  0
 25 26  1  0
 26 27  1  0
 27 28  1  0
 28 29  1  0
 29 30  2  0
 30 31  1  0
 31 32  1  0
 29 33  1  0
 33 34  1  0
 34 35  1  0
 35 36  1  0
 36 37  1  0
 37 38  1  0
 38 39  1  0
 37 40  2  0
 40 41  1  0
 41 42  1  0
 42 43  1  0
 43 44  1  0
 44 45  1  0
 45 46  1  0
 46 47  1  0
 47 48  1  0
 48 49  1  0
 49 50  1  0
 47 51  1  0
 51 52  1  0
 44 53  1  0
 53 54  1  0
 40 55  1  0
 55 56  2  3
 56 57  1  0
 57 58  2  0
 57 59  1  0
 59 60  1  0
 60 61  1  0
 59 62  1  0
 62 63  2  0
 62 64  1  0
 64 65  2  0
 65 66  1  0
 64 67  1  0
 67 68  3  0
 14  2  1  0
 50 20  1  0
 65 56  1  0
 12  5  1  0
 49 24  2  0
 48 26  2  0
 46 27  2  0
 32 28  2  0
 45 33  2  0
 43 34  2  0
 42 36  2  0
  1 69  1  0
  7 70  1  0
 22 71  1  0
 22 72  1  0
 23 73  1  0
 23 74  1  0
 23 75  1  0
 38 76  1  0
 38 77  1  0
 39 78  1  0
 39 79  1  0
 39 80  1  0
 51 81  1  0
 51 82  1  0
 52 83  1  0
 52 84  1  0
 52 85  1  0
 53 86  1  0
 53 87  1  0
 54 88  1  0
 54 89  1  0
 54 90  1  0
 55 91  1  0
 60 92  1  0
 60 93  1  0
 61 94  1  0
 61 95  1  0
 61 96  1  0
 66 97  1  0
 66 98  1  0
 66 99  1  0
M  END

