
     RDKit          3D

 97108  0  0  0  0  0  0  0  0999 V2000
   -5.3954    0.4472   -5.0909 C   0  0  0  0  0  0  0  0  0  0  0  0
   -6.1520    1.4707   -5.5264 C   0  0  0  0  0  0  0  0  0  0  0  0
   -7.2203    1.2901   -6.5005 C   0  0  0  0  0  0  0  0  0  0  0  0
   -7.7757    0.2016   -6.7961 O   0  0  0  0  0  0  0  0  0  0  0  0
   -7.5066    2.5684   -7.1078 C   0  0  0  0  0  0  0  0  0  0  0  0
   -6.7236    3.5463   -6.5113 C   0  0  0  0  0  0  0  0  0  0  0  0
   -6.8756    4.8914   -6.9027 C   0  0  0  0  0  0  0  0  0  0  0  0
   -7.8225    5.2143   -7.8898 C   0  0  0  0  0  0  0  0  0  0  0  0
   -8.0248    6.5096   -8.2345 F   0  0  0  0  0  0  0  0  0  0  0  0
   -8.5944    4.2083   -8.4971 C   0  0  0  0  0  0  0  0  0  0  0  0
   -9.5279    4.5297   -9.4308 F   0  0  0  0  0  0  0  0  0  0  0  0
   -8.4376    2.8713   -8.1042 C   0  0  0  0  0  0  0  0  0  0  0  0
   -9.1968    1.9018   -8.6632 F   0  0  0  0  0  0  0  0  0  0  0  0
   -5.9165    2.9409   -5.4138 C   0  0  0  0  0  0  0  0  0  0  0  0
   -5.4237    3.6009   -4.3356 C   0  0  0  0  0  0  0  0  0  0  0  0
   -5.1376    5.0102   -4.3441 C   0  0  0  0  0  0  0  0  0  0  0  0
   -4.8698    6.1317   -4.3324 N   0  0  0  0  0  0  0  0  0  0  0  0
   -5.2124    2.9499   -3.0678 C   0  0  0  0  0  0  0  0  0  0  0  0
   -5.0379    2.4389   -2.0396 N   0  0  0  0  0  0  0  0  0  0  0  0
   -4.0354    0.5737   -4.5446 C   0  0  0  0  0  0  0  0  0  0  0  0
   -2.9061    1.0919   -5.2269 C   0  0  0  0  0  0  0  0  0  0  0  0
   -2.8923    1.6296   -6.6321 C   0  0  0  0  0  0  0  0  0  0  0  0
   -2.5548    3.1187   -6.6638 C   0  0  0  0  0  0  0  0  0  0  0  0
   -1.7480    0.8991   -4.4683 C   0  0  0  0  0  0  0  0  0  0  0  0
   -0.0856    1.1774   -4.7559 S   0  0  0  0  0  0  0  0  0  0  0  0
    0.3226    0.5241   -3.2483 C   0  0  0  0  0  0  0  0  0  0  0  0
    1.4235    0.1042   -2.5607 C   0  0  0  0  0  0  0  0  0  0  0  0
    2.7846    0.0781   -2.8878 C   0  0  0  0  0  0  0  0  0  0  0  0
    3.6874   -0.5822   -1.9985 C   0  0  0  0  0  0  0  0  0  0  0  0
    4.9980   -0.5893   -2.3486 N   0  0  0  0  0  0  0  0  0  0  0  0
    4.9068    0.2331   -3.7857 S   0  0  0  0  0  0  0  0  0  0  0  0
    3.3135    0.6272   -4.0130 N   0  0  0  0  0  0  0  0  0  0  0  0
    3.1803   -1.1587   -0.8243 C   0  0  0  0  0  0  0  0  0  0  0  0
    3.8072   -1.6239    0.2997 C   0  0  0  0  0  0  0  0  0  0  0  0
    5.3920   -1.5894    0.9234 S   0  0  0  0  0  0  0  0  0  0  0  0
    4.7972   -1.7492    2.5125 C   0  0  0  0  0  0  0  0  0  0  0  0
    5.4028   -1.7389    3.7734 C   0  0  0  0  0  0  0  0  0  0  0  0
    6.8868   -1.6671    3.9993 C   0  0  0  0  0  0  0  0  0  0  0  0
    7.5045   -3.0656    4.0058 C   0  0  0  0  0  0  0  0  0  0  0  0
    4.4346   -1.7766    4.7946 C   0  0  0  0  0  0  0  0  0  0  0  0
    2.8680   -1.8497    4.1077 S   0  0  0  0  0  0  0  0  0  0  0  0
    3.4258   -1.7903    2.5335 C   0  0  0  0  0  0  0  0  0  0  0  0
    2.8579   -1.7092    1.2728 C   0  0  0  0  0  0  0  0  0  0  0  0
    1.6298   -1.3016    0.8544 N   0  0  0  0  0  0  0  0  0  0  0  0
    1.8259   -1.0670   -0.4819 C   0  0  0  0  0  0  0  0  0  0  0  0
    0.9220   -0.5251   -1.4161 C   0  0  0  0  0  0  0  0  0  0  0  0
   -0.4406   -0.6358   -1.4619 N   0  0  0  0  0  0  0  0  0  0  0  0
   -0.7642    0.0611   -2.5764 C   0  0  0  0  0  0  0  0  0  0  0  0
   -1.9450    0.2464   -3.2771 C   0  0  0  0  0  0  0  0  0  0  0  0
   -3.5536   -0.1740   -3.0808 S   0  0  0  0  0  0  0  0  0  0  0  0
   -1.2438   -1.7384   -0.9032 C   0  0  0  0  0  0  0  0  0  0  0  0
   -1.2754   -2.9271   -1.8642 C   0  0  0  0  0  0  0  0  0  0  0  0
    0.6893   -0.5536    1.7099 C   0  0  0  0  0  0  0  0  0  0  0  0
    1.2503    0.8243    2.0707 C   0  0  0  0  0  0  0  0  0  0  0  0
    4.7212   -1.8541    6.2424 C   0  0  0  0  0  0  0  0  0  0  0  0
    3.9193   -1.3787    7.2105 C   0  0  0  0  0  0  0  0  0  0  0  0
    3.9355   -1.9080    8.5718 C   0  0  0  0  0  0  0  0  0  0  0  0
    4.8399   -2.6239    9.0840 O   0  0  0  0  0  0  0  0  0  0  0  0
    2.6761   -1.5661    9.1993 C   0  0  0  0  0  0  0  0  0  0  0  0
    2.1959   -1.9571   10.4498 C   0  0  0  0  0  0  0  0  0  0  0  0
    0.9111   -1.5497   10.8278 C   0  0  0  0  0  0  0  0  0  0  0  0
    0.4169   -1.9165   12.0400 F   0  0  0  0  0  0  0  0  0  0  0  0
    0.1244   -0.7879    9.9507 C   0  0  0  0  0  0  0  0  0  0  0  0
    0.6216   -0.4040    8.6934 C   0  0  0  0  0  0  0  0  0  0  0  0
    1.9213   -0.7892    8.3341 C   0  0  0  0  0  0  0  0  0  0  0  0
    2.7135   -0.4992    7.1091 C   0  0  0  0  0  0  0  0  0  0  0  0
    2.5926    0.5984    6.3184 C   0  0  0  0  0  0  0  0  0  0  0  0
    3.6722    1.0535    5.4817 C   0  0  0  0  0  0  0  0  0  0  0  0
    4.5253    1.4503    4.8014 N   0  0  0  0  0  0  0  0  0  0  0  0
    1.4281    1.4458    6.3248 C   0  0  0  0  0  0  0  0  0  0  0  0
    0.4924    2.1302    6.3297 N   0  0  0  0  0  0  0  0  0  0  0  0
   -5.7448   -0.5683   -5.2485 H   0  0  0  0  0  0  0  0  0  0  0  0
   -6.3081    5.6910   -6.4577 H   0  0  0  0  0  0  0  0  0  0  0  0
   -3.8716    1.4649   -7.1281 H   0  0  0  0  0  0  0  0  0  0  0  0
   -2.1350    1.0799   -7.2264 H   0  0  0  0  0  0  0  0  0  0  0  0
   -1.5383    3.3005   -6.2455 H   0  0  0  0  0  0  0  0  0  0  0  0
   -3.3018    3.7013   -6.0906 H   0  0  0  0  0  0  0  0  0  0  0  0
   -2.5660    3.4772   -7.7132 H   0  0  0  0  0  0  0  0  0  0  0  0
    7.1093   -1.1558    4.9600 H   0  0  0  0  0  0  0  0  0  0  0  0
    7.3528   -1.0683    3.1889 H   0  0  0  0  0  0  0  0  0  0  0  0
    7.0521   -3.6868    4.8080 H   0  0  0  0  0  0  0  0  0  0  0  0
    8.5947   -2.9933    4.1928 H   0  0  0  0  0  0  0  0  0  0  0  0
    7.3382   -3.5675    3.0300 H   0  0  0  0  0  0  0  0  0  0  0  0
   -2.2752   -1.3917   -0.7083 H   0  0  0  0  0  0  0  0  0  0  0  0
   -0.8289   -2.1039    0.0543 H   0  0  0  0  0  0  0  0  0  0  0  0
   -1.7402   -2.6485   -2.8333 H   0  0  0  0  0  0  0  0  0  0  0  0
   -0.2412   -3.2909   -2.0409 H   0  0  0  0  0  0  0  0  0  0  0  0
   -1.8692   -3.7540   -1.4267 H   0  0  0  0  0  0  0  0  0  0  0  0
   -0.2821   -0.3804    1.2153 H   0  0  0  0  0  0  0  0  0  0  0  0
    0.4927   -1.1318    2.6381 H   0  0  0  0  0  0  0  0  0  0  0  0
    0.5012    1.3840    2.6710 H   0  0  0  0  0  0  0  0  0  0  0  0
    1.4744    1.4032    1.1464 H   0  0  0  0  0  0  0  0  0  0  0  0
    2.1748    0.7441    2.6782 H   0  0  0  0  0  0  0  0  0  0  0  0
    5.5716   -2.4652    6.5406 H   0  0  0  0  0  0  0  0  0  0  0  0
    2.7915   -2.5760   11.1116 H   0  0  0  0  0  0  0  0  0  0  0  0
   -0.8764   -0.4994   10.2438 H   0  0  0  0  0  0  0  0  0  0  0  0
   -0.0185    0.1500    8.0264 H   0  0  0  0  0  0  0  0  0  0  0  0
  1  2  2  3
  2  3  1  0
  3  4  2  0
  3  5  1  0
  5  6  2  0
  6  7  1  0
  7  8  2  0
  8  9  1  0
  8 10  1  0
 10 11  1  0
 10 12  2  0
 12 13  1  0
  6 14  1  0
 14 15  2  3
 15 16  1  0
 16 17  3  0
 15 18  1  0
 18 19  3  0
  1 20  1  0
 20 21  2  0
 21 22  1  0
 22 23  1  0
 21 24  1  0
 24 25  1  0
 25 26  1  0
 26 27  1  0
 27 28  1  0
 28 29  1  0
 29 30  2  0
 30 31  1  0
 31 32  1  0
 29 33  1  0
 33 34  1  0
 34 35  1  0
 35 36  1  0
 36 37  1  0
 37 38  1  0
 38 39  1  0
 37 40  2  0
 40 41  1  0
 41 42  1  0
 42 43  1  0
 43 44  1  0
 44 45  1  0
 45 46  1  0
 46 47  1  0
 47 48  1  0
 48 49  1  0
 49 50  1  0
 47 51  1  0
 51 52  1  0
 44 53  1  0
 53 54  1  0
 40 55  1  0
 55 56  2  3
 56 57  1  0
 57 58  2  0
 57 59  1  0
 59 60  2  0
 60 61  1  0
 61 62  1  0
 61 63  2  0
 63 64  1  0
 64 65  2  0
 65 66  1  0
 66 67  2  3
 67 68  1  0
 68 69  3  0
 67 70  1  0
 70 71  3  0
 14  2  1  0
 50 20  1  0
 66 56  1  0
 12  5  1  0
 49 24  2  0
 65 59  1  0
 48 26  2  0
 46 27  2  0
 32 28  2  0
 45 33  2  0
 43 34  2  0
 42 36  2  0
  1 72  1  0
  7 73  1  0
 22 74  1  0
 22 75  1  0
 23 76  1  0
 23 77  1  0
 23 78  1  0
 38 79  1  0
 38 80  1  0
 39 81  1  0
 39 82  1  0
 39 83  1  0
 51 84  1  0
 51 85  1  0
 52 86  1  0
 52 87  1  0
 52 88  1  0
 53 89  1  0
 53 90  1  0
 54 91  1  0
 54 92  1  0
 54 93  1  0
 55 94  1  0
 60 95  1  0
 63 96  1  0
 64 97  1  0
M  END

