
     RDKit          3D

 97108  0  0  0  0  0  0  0  0999 V2000
   -5.0972    4.7222    3.2338 C   0  0  0  0  0  0  0  0  0  0  0  0
   -6.0014    3.8663    2.7221 C   0  0  0  0  0  0  0  0  0  0  0  0
   -5.7265    2.8086    1.7395 C   0  0  0  0  0  0  0  0  0  0  0  0
   -4.7165    2.7205    0.9938 O   0  0  0  0  0  0  0  0  0  0  0  0
   -6.8435    1.8877    1.7408 C   0  0  0  0  0  0  0  0  0  0  0  0
   -7.8215    2.3487    2.6070 C   0  0  0  0  0  0  0  0  0  0  0  0
   -8.9625    1.5633    2.8475 C   0  0  0  0  0  0  0  0  0  0  0  0
   -9.1197    0.3528    2.1533 C   0  0  0  0  0  0  0  0  0  0  0  0
  -10.2195   -0.4112    2.3691 F   0  0  0  0  0  0  0  0  0  0  0  0
   -8.1264   -0.0902    1.2607 C   0  0  0  0  0  0  0  0  0  0  0  0
   -8.2847   -1.2678    0.6059 F   0  0  0  0  0  0  0  0  0  0  0  0
   -6.9699    0.6758    1.0571 C   0  0  0  0  0  0  0  0  0  0  0  0
   -5.9904    0.2380    0.2258 F   0  0  0  0  0  0  0  0  0  0  0  0
   -7.4129    3.6673    3.1745 C   0  0  0  0  0  0  0  0  0  0  0  0
   -8.2221    4.5872    3.7639 C   0  0  0  0  0  0  0  0  0  0  0  0
   -9.6105    4.3311    4.0488 C   0  0  0  0  0  0  0  0  0  0  0  0
  -10.7289    4.1431    4.2852 N   0  0  0  0  0  0  0  0  0  0  0  0
   -7.7978    5.9408    4.0173 C   0  0  0  0  0  0  0  0  0  0  0  0
   -7.4693    7.0329    4.2154 N   0  0  0  0  0  0  0  0  0  0  0  0
   -3.6917    4.7529    2.8087 C   0  0  0  0  0  0  0  0  0  0  0  0
   -3.0669    5.8160    2.1309 C   0  0  0  0  0  0  0  0  0  0  0  0
   -3.7501    7.0804    1.6916 C   0  0  0  0  0  0  0  0  0  0  0  0
   -3.7583    8.1112    2.8155 C   0  0  0  0  0  0  0  0  0  0  0  0
   -1.7262    5.5208    1.8817 C   0  0  0  0  0  0  0  0  0  0  0  0
   -0.5251    6.2702    0.9343 S   0  0  0  0  0  0  0  0  0  0  0  0
    0.5445    4.9782    1.2038 C   0  0  0  0  0  0  0  0  0  0  0  0
    1.5796    4.4251    0.5048 C   0  0  0  0  0  0  0  0  0  0  0  0
    2.2044    4.8538   -0.6772 C   0  0  0  0  0  0  0  0  0  0  0  0
    2.9869    3.9176   -1.4204 C   0  0  0  0  0  0  0  0  0  0  0  0
    3.5440    4.3586   -2.5734 N   0  0  0  0  0  0  0  0  0  0  0  0
    2.9852    5.9184   -2.5725 S   0  0  0  0  0  0  0  0  0  0  0  0
    2.0733    6.0971   -1.2009 N   0  0  0  0  0  0  0  0  0  0  0  0
    3.1330    2.6198   -0.9188 C   0  0  0  0  0  0  0  0  0  0  0  0
    3.8126    1.5197   -1.3684 C   0  0  0  0  0  0  0  0  0  0  0  0
    4.7023    0.9866   -2.7132 S   0  0  0  0  0  0  0  0  0  0  0  0
    4.9169   -0.5503   -1.9881 C   0  0  0  0  0  0  0  0  0  0  0  0
    5.4376   -1.7607   -2.4418 C   0  0  0  0  0  0  0  0  0  0  0  0
    6.0195   -1.9694   -3.8104 C   0  0  0  0  0  0  0  0  0  0  0  0
    4.9588   -2.4639   -4.7856 C   0  0  0  0  0  0  0  0  0  0  0  0
    5.1906   -2.7817   -1.5070 C   0  0  0  0  0  0  0  0  0  0  0  0
    4.3744   -2.1695   -0.1362 S   0  0  0  0  0  0  0  0  0  0  0  0
    4.3222   -0.6144   -0.7546 C   0  0  0  0  0  0  0  0  0  0  0  0
    3.6833    0.5631   -0.4178 C   0  0  0  0  0  0  0  0  0  0  0  0
    2.9564    0.9630    0.6513 N   0  0  0  0  0  0  0  0  0  0  0  0
    2.5486    2.2175    0.2893 C   0  0  0  0  0  0  0  0  0  0  0  0
    1.6634    3.0959    0.9484 C   0  0  0  0  0  0  0  0  0  0  0  0
    0.6084    2.7832    1.7665 N   0  0  0  0  0  0  0  0  0  0  0  0
   -0.0162    3.9777    1.9400 C   0  0  0  0  0  0  0  0  0  0  0  0
   -1.3133    4.2928    2.3295 C   0  0  0  0  0  0  0  0  0  0  0  0
   -2.5809    3.4856    3.0751 S   0  0  0  0  0  0  0  0  0  0  0  0
   -0.0985    1.4907    1.8113 C   0  0  0  0  0  0  0  0  0  0  0  0
   -0.9925    1.3201    0.5840 C   0  0  0  0  0  0  0  0  0  0  0  0
    3.1449    0.4581    2.0200 C   0  0  0  0  0  0  0  0  0  0  0  0
    4.5867    0.6570    2.4849 C   0  0  0  0  0  0  0  0  0  0  0  0
    5.4745   -4.2065   -1.7213 C   0  0  0  0  0  0  0  0  0  0  0  0
    4.5066   -5.1160   -1.9431 C   0  0  0  0  0  0  0  0  0  0  0  0
    3.0622   -4.8533   -1.9264 C   0  0  0  0  0  0  0  0  0  0  0  0
    2.5050   -3.7273   -2.0229 O   0  0  0  0  0  0  0  0  0  0  0  0
    2.3666   -6.1148   -1.8103 C   0  0  0  0  0  0  0  0  0  0  0  0
    3.2855   -7.1513   -1.8294 C   0  0  0  0  0  0  0  0  0  0  0  0
    2.8453   -8.4702   -1.6259 C   0  0  0  0  0  0  0  0  0  0  0  0
    1.4716   -8.7156   -1.4552 C   0  0  0  0  0  0  0  0  0  0  0  0
    1.0334   -9.9854   -1.2644 F   0  0  0  0  0  0  0  0  0  0  0  0
    0.5498   -7.6538   -1.4750 C   0  0  0  0  0  0  0  0  0  0  0  0
   -0.7738   -7.9037   -1.3107 F   0  0  0  0  0  0  0  0  0  0  0  0
    0.9981   -6.3358   -1.6403 C   0  0  0  0  0  0  0  0  0  0  0  0
    0.1196   -5.3021   -1.6271 F   0  0  0  0  0  0  0  0  0  0  0  0
    4.6583   -6.6009   -2.0437 C   0  0  0  0  0  0  0  0  0  0  0  0
    5.7512   -7.2806   -2.4808 C   0  0  0  0  0  0  0  0  0  0  0  0
    6.9412   -6.6094   -2.9416 C   0  0  0  0  0  0  0  0  0  0  0  0
    7.9005   -6.0817   -3.3193 N   0  0  0  0  0  0  0  0  0  0  0  0
    5.7679   -8.7137   -2.6291 C   0  0  0  0  0  0  0  0  0  0  0  0
    5.8005   -9.8663   -2.7518 N   0  0  0  0  0  0  0  0  0  0  0  0
   -5.3598    5.4032    4.0246 H   0  0  0  0  0  0  0  0  0  0  0  0
   -9.7113    1.8442    3.5680 H   0  0  0  0  0  0  0  0  0  0  0  0
   -4.7942    6.8581    1.3826 H   0  0  0  0  0  0  0  0  0  0  0  0
   -3.2269    7.5064    0.8074 H   0  0  0  0  0  0  0  0  0  0  0  0
   -4.2286    9.0497    2.4622 H   0  0  0  0  0  0  0  0  0  0  0  0
   -4.3380    7.7381    3.6854 H   0  0  0  0  0  0  0  0  0  0  0  0
   -2.7205    8.3390    3.1442 H   0  0  0  0  0  0  0  0  0  0  0  0
    6.4471   -1.0182   -4.1831 H   0  0  0  0  0  0  0  0  0  0  0  0
    6.8498   -2.7057   -3.7605 H   0  0  0  0  0  0  0  0  0  0  0  0
    4.6132   -3.4766   -4.4926 H   0  0  0  0  0  0  0  0  0  0  0  0
    5.3910   -2.5264   -5.8047 H   0  0  0  0  0  0  0  0  0  0  0  0
    4.0896   -1.7713   -4.8045 H   0  0  0  0  0  0  0  0  0  0  0  0
   -0.7076    1.4212    2.7359 H   0  0  0  0  0  0  0  0  0  0  0  0
    0.5933    0.6360    1.8284 H   0  0  0  0  0  0  0  0  0  0  0  0
   -1.7410    2.1384    0.5200 H   0  0  0  0  0  0  0  0  0  0  0  0
   -1.5306    0.3512    0.6485 H   0  0  0  0  0  0  0  0  0  0  0  0
   -0.3731    1.3263   -0.3407 H   0  0  0  0  0  0  0  0  0  0  0  0
    2.5077    1.0082    2.7407 H   0  0  0  0  0  0  0  0  0  0  0  0
    2.8846   -0.6202    2.0587 H   0  0  0  0  0  0  0  0  0  0  0  0
    4.8763    1.7268    2.3903 H   0  0  0  0  0  0  0  0  0  0  0  0
    4.6865    0.3487    3.5482 H   0  0  0  0  0  0  0  0  0  0  0  0
    5.2844    0.0413    1.8816 H   0  0  0  0  0  0  0  0  0  0  0  0
    6.5058   -4.5030   -1.6467 H   0  0  0  0  0  0  0  0  0  0  0  0
    3.5280   -9.2996   -1.5595 H   0  0  0  0  0  0  0  0  0  0  0  0
  1  2  2  3
  2  3  1  0
  3  4  2  0
  3  5  1  0
  5  6  2  0
  6  7  1  0
  7  8  2  0
  8  9  1  0
  8 10  1  0
 10 11  1  0
 10 12  2  0
 12 13  1  0
  6 14  1  0
 14 15  2  3
 15 16  1  0
 16 17  3  0
 15 18  1  0
 18 19  3  0
  1 20  1  0
 20 21  2  0
 21 22  1  0
 22 23  1  0
 21 24  1  0
 24 25  1  0
 25 26  1  0
 26 27  1  0
 27 28  1  0
 28 29  1  0
 29 30  2  0
 30 31  1  0
 31 32  1  0
 29 33  1  0
 33 34  1  0
 34 35  1  0
 35 36  1  0
 36 37  1  0
 37 38  1  0
 38 39  1  0
 37 40  2  0
 40 41  1  0
 41 42  1  0
 42 43  1  0
 43 44  1  0
 44 45  1  0
 45 46  1  0
 46 47  1  0
 47 48  1  0
 48 49  1  0
 49 50  1  0
 47 51  1  0
 51 52  1  0
 44 53  1  0
 53 54  1  0
 40 55  1  0
 55 56  2  3
 56 57  1  0
 57 58  2  0
 57 59  1  0
 59 60  2  0
 60 61  1  0
 61 62  2  0
 62 63  1  0
 62 64  1  0
 64 65  1  0
 64 66  2  0
 66 67  1  0
 60 68  1  0
 68 69  2  3
 69 70  1  0
 70 71  3  0
 69 72  1  0
 72 73  3  0
 14  2  1  0
 50 20  1  0
 68 56  1  0
 12  5  1  0
 49 24  2  0
 66 59  1  0
 48 26  2  0
 46 27  2  0
 32 28  2  0
 45 33  2  0
 43 34  2  0
 42 36  2  0
  1 74  1  0
  7 75  1  0
 22 76  1  0
 22 77  1  0
 23 78  1  0
 23 79  1  0
 23 80  1  0
 38 81  1  0
 38 82  1  0
 39 83  1  0
 39 84  1  0
 39 85  1  0
 51 86  1  0
 51 87  1  0
 52 88  1  0
 52 89  1  0
 52 90  1  0
 53 91  1  0
 53 92  1  0
 54 93  1  0
 54 94  1  0
 54 95  1  0
 55 96  1  0
 61 97  1  0
M  END

