
     RDKit          3D

 97108  0  0  0  0  0  0  0  0999 V2000
    0.0727    3.6849    7.1910 C   0  0  0  0  0  0  0  0  0  0  0  0
   -0.4139    2.6509    7.8853 C   0  0  0  0  0  0  0  0  0  0  0  0
   -1.7318    2.7439    8.5522 C   0  0  0  0  0  0  0  0  0  0  0  0
   -2.4381    3.7845    8.7182 O   0  0  0  0  0  0  0  0  0  0  0  0
   -2.1412    1.4064    8.8986 C   0  0  0  0  0  0  0  0  0  0  0  0
   -1.0766    0.5182    8.7173 C   0  0  0  0  0  0  0  0  0  0  0  0
   -1.3182   -0.8539    8.8568 C   0  0  0  0  0  0  0  0  0  0  0  0
   -2.6266   -1.3222    9.0409 C   0  0  0  0  0  0  0  0  0  0  0  0
   -2.8295   -2.6614    9.1481 F   0  0  0  0  0  0  0  0  0  0  0  0
   -3.6857   -0.4157    9.1515 C   0  0  0  0  0  0  0  0  0  0  0  0
   -4.9240   -0.8906    9.3807 F   0  0  0  0  0  0  0  0  0  0  0  0
   -3.4568    0.9615    9.0924 C   0  0  0  0  0  0  0  0  0  0  0  0
   -4.4904    1.8352    9.1444 F   0  0  0  0  0  0  0  0  0  0  0  0
    0.0500    1.2164    8.0191 C   0  0  0  0  0  0  0  0  0  0  0  0
    1.2497    0.6555    7.6431 C   0  0  0  0  0  0  0  0  0  0  0  0
    1.7146   -0.6097    8.1777 C   0  0  0  0  0  0  0  0  0  0  0  0
    2.1170   -1.6191    8.5996 N   0  0  0  0  0  0  0  0  0  0  0  0
    2.1025    1.1844    6.6032 C   0  0  0  0  0  0  0  0  0  0  0  0
    2.7831    1.5420    5.7393 N   0  0  0  0  0  0  0  0  0  0  0  0
    0.4970    3.5672    5.7904 C   0  0  0  0  0  0  0  0  0  0  0  0
    1.3625    4.4599    5.1186 C   0  0  0  0  0  0  0  0  0  0  0  0
    2.2556    5.4687    5.8053 C   0  0  0  0  0  0  0  0  0  0  0  0
    3.5434    4.8116    6.3106 C   0  0  0  0  0  0  0  0  0  0  0  0
    1.3588    4.2077    3.7444 C   0  0  0  0  0  0  0  0  0  0  0  0
    2.1894    4.8716    2.4061 S   0  0  0  0  0  0  0  0  0  0  0  0
    1.3633    3.7980    1.3685 C   0  0  0  0  0  0  0  0  0  0  0  0
    1.3814    3.3992    0.0586 C   0  0  0  0  0  0  0  0  0  0  0  0
    2.1631    3.7977   -1.0360 C   0  0  0  0  0  0  0  0  0  0  0  0
    1.9766    3.1364   -2.2907 C   0  0  0  0  0  0  0  0  0  0  0  0
    2.7055    3.5824   -3.3485 N   0  0  0  0  0  0  0  0  0  0  0  0
    3.5728    4.7635   -2.5815 S   0  0  0  0  0  0  0  0  0  0  0  0
    3.0902    4.7851   -0.9926 N   0  0  0  0  0  0  0  0  0  0  0  0
    1.0138    2.1288   -2.3750 C   0  0  0  0  0  0  0  0  0  0  0  0
    0.6018    1.3459   -3.4105 C   0  0  0  0  0  0  0  0  0  0  0  0
    1.1333    0.8981   -4.9515 S   0  0  0  0  0  0  0  0  0  0  0  0
   -0.0034   -0.3711   -4.9999 C   0  0  0  0  0  0  0  0  0  0  0  0
   -0.0946   -1.4935   -5.8242 C   0  0  0  0  0  0  0  0  0  0  0  0
    0.7106   -1.6941   -7.0781 C   0  0  0  0  0  0  0  0  0  0  0  0
   -0.1716   -2.1475   -8.2466 C   0  0  0  0  0  0  0  0  0  0  0  0
   -0.8785   -2.4892   -5.2167 C   0  0  0  0  0  0  0  0  0  0  0  0
   -1.4718   -1.9273   -3.7198 S   0  0  0  0  0  0  0  0  0  0  0  0
   -0.7465   -0.4285   -3.8427 C   0  0  0  0  0  0  0  0  0  0  0  0
   -0.4049    0.5641   -2.9447 C   0  0  0  0  0  0  0  0  0  0  0  0
   -0.6909    0.7777   -1.6336 N   0  0  0  0  0  0  0  0  0  0  0  0
    0.2401    1.7203   -1.2759 C   0  0  0  0  0  0  0  0  0  0  0  0
    0.4883    2.3114   -0.0142 C   0  0  0  0  0  0  0  0  0  0  0  0
    0.0610    1.9417    1.2393 N   0  0  0  0  0  0  0  0  0  0  0  0
    0.5294    2.9519    2.0170 C   0  0  0  0  0  0  0  0  0  0  0  0
    0.5322    3.1733    3.3707 C   0  0  0  0  0  0  0  0  0  0  0  0
   -0.2924    2.5474    4.6794 S   0  0  0  0  0  0  0  0  0  0  0  0
   -0.2493    0.5902    1.7502 C   0  0  0  0  0  0  0  0  0  0  0  0
    0.9356   -0.0221    2.5383 C   0  0  0  0  0  0  0  0  0  0  0  0
   -2.0335    0.6046   -1.0378 C   0  0  0  0  0  0  0  0  0  0  0  0
   -2.3258   -0.8574   -0.6915 C   0  0  0  0  0  0  0  0  0  0  0  0
   -0.7489   -3.9261   -5.5171 C   0  0  0  0  0  0  0  0  0  0  0  0
    0.3654   -4.6176   -5.1830 C   0  0  0  0  0  0  0  0  0  0  0  0
    1.4766   -4.1074   -4.3448 C   0  0  0  0  0  0  0  0  0  0  0  0
    1.6185   -2.9315   -3.9267 O   0  0  0  0  0  0  0  0  0  0  0  0
    2.3292   -5.2228   -3.9817 C   0  0  0  0  0  0  0  0  0  0  0  0
    3.4185   -5.2547   -3.1018 C   0  0  0  0  0  0  0  0  0  0  0  0
    4.0885   -3.7907   -2.3761 Cl  0  0  0  0  0  0  0  0  0  0  0  0
    3.9915   -6.4893   -2.7968 C   0  0  0  0  0  0  0  0  0  0  0  0
    3.4385   -7.6788   -3.3033 C   0  0  0  0  0  0  0  0  0  0  0  0
    4.1656   -9.3635   -2.7882 Br  0  0  0  0  0  0  0  0  0  0  0  0
    2.3513   -7.6274   -4.1866 C   0  0  0  0  0  0  0  0  0  0  0  0
    1.8288   -6.3749   -4.5585 C   0  0  0  0  0  0  0  0  0  0  0  0
    0.6711   -6.0526   -5.4393 C   0  0  0  0  0  0  0  0  0  0  0  0
    0.1783   -6.8222   -6.4431 C   0  0  0  0  0  0  0  0  0  0  0  0
   -0.7970   -6.3346   -7.3891 C   0  0  0  0  0  0  0  0  0  0  0  0
   -1.5926   -5.9388   -8.1342 N   0  0  0  0  0  0  0  0  0  0  0  0
    0.7051   -8.1144   -6.7355 C   0  0  0  0  0  0  0  0  0  0  0  0
    1.1408   -9.1558   -7.0234 N   0  0  0  0  0  0  0  0  0  0  0  0
   -0.3297    4.6764    7.4217 H   0  0  0  0  0  0  0  0  0  0  0  0
   -0.5452   -1.5894    8.7396 H   0  0  0  0  0  0  0  0  0  0  0  0
    2.5177    6.2908    5.1140 H   0  0  0  0  0  0  0  0  0  0  0  0
    1.7247    5.9365    6.6673 H   0  0  0  0  0  0  0  0  0  0  0  0
    3.3152    3.9551    6.9729 H   0  0  0  0  0  0  0  0  0  0  0  0
    4.1748    4.4718    5.4609 H   0  0  0  0  0  0  0  0  0  0  0  0
    4.1359    5.5523    6.8818 H   0  0  0  0  0  0  0  0  0  0  0  0
    1.2454   -0.7545   -7.3440 H   0  0  0  0  0  0  0  0  0  0  0  0
    1.4972   -2.4517   -6.8867 H   0  0  0  0  0  0  0  0  0  0  0  0
   -1.1992   -2.4288   -7.9289 H   0  0  0  0  0  0  0  0  0  0  0  0
    0.2822   -3.0480   -8.7197 H   0  0  0  0  0  0  0  0  0  0  0  0
   -0.2294   -1.3372   -9.0167 H   0  0  0  0  0  0  0  0  0  0  0  0
   -1.1624    0.6218    2.3920 H   0  0  0  0  0  0  0  0  0  0  0  0
   -0.4121   -0.0919    0.9060 H   0  0  0  0  0  0  0  0  0  0  0  0
    1.9206    0.2126    2.0718 H   0  0  0  0  0  0  0  0  0  0  0  0
    0.9577    0.3147    3.5986 H   0  0  0  0  0  0  0  0  0  0  0  0
    0.8097   -1.1267    2.5769 H   0  0  0  0  0  0  0  0  0  0  0  0
   -2.1432    1.2283   -0.1207 H   0  0  0  0  0  0  0  0  0  0  0  0
   -2.8266    0.9864   -1.7370 H   0  0  0  0  0  0  0  0  0  0  0  0
   -1.3961   -1.4705   -0.7032 H   0  0  0  0  0  0  0  0  0  0  0  0
   -3.0583   -1.3026   -1.3990 H   0  0  0  0  0  0  0  0  0  0  0  0
   -2.7624   -0.8998    0.3289 H   0  0  0  0  0  0  0  0  0  0  0  0
   -1.6213   -4.4237   -5.9377 H   0  0  0  0  0  0  0  0  0  0  0  0
    4.8153   -6.5466   -2.0968 H   0  0  0  0  0  0  0  0  0  0  0  0
    1.9069   -8.5487   -4.5279 H   0  0  0  0  0  0  0  0  0  0  0  0
  1  2  2  3
  2  3  1  0
  3  4  2  0
  3  5  1  0
  5  6  2  0
  6  7  1  0
  7  8  2  0
  8  9  1  0
  8 10  1  0
 10 11  1  0
 10 12  2  0
 12 13  1  0
  6 14  1  0
 14 15  2  3
 15 16  1  0
 16 17  3  0
 15 18  1  0
 18 19  3  0
  1 20  1  0
 20 21  2  0
 21 22  1  0
 22 23  1  0
 21 24  1  0
 24 25  1  0
 25 26  1  0
 26 27  1  0
 27 28  1  0
 28 29  1  0
 29 30  2  0
 30 31  1  0
 31 32  1  0
 29 33  1  0
 33 34  1  0
 34 35  1  0
 35 36  1  0
 36 37  1  0
 37 38  1  0
 38 39  1  0
 37 40  2  0
 40 41  1  0
 41 42  1  0
 42 43  1  0
 43 44  1  0
 44 45  1  0
 45 46  1  0
 46 47  1  0
 47 48  1  0
 48 49  1  0
 49 50  1  0
 47 51  1  0
 51 52  1  0
 44 53  1  0
 53 54  1  0
 40 55  1  0
 55 56  2  3
 56 57  1  0
 57 58  2  0
 57 59  1  0
 59 60  2  0
 60 61  1  0
 60 62  1  0
 62 63  2  0
 63 64  1  0
 63 65  1  0
 65 66  2  0
 66 67  1  0
 67 68  2  3
 68 69  1  0
 69 70  3  0
 68 71  1  0
 71 72  3  0
 14  2  1  0
 50 20  1  0
 67 56  1  0
 12  5  1  0
 49 24  2  0
 66 59  1  0
 48 26  2  0
 46 27  2  0
 32 28  2  0
 45 33  2  0
 43 34  2  0
 42 36  2  0
  1 73  1  0
  7 74  1  0
 22 75  1  0
 22 76  1  0
 23 77  1  0
 23 78  1  0
 23 79  1  0
 38 80  1  0
 38 81  1  0
 39 82  1  0
 39 83  1  0
 39 84  1  0
 51 85  1  0
 51 86  1  0
 52 87  1  0
 52 88  1  0
 52 89  1  0
 53 90  1  0
 53 91  1  0
 54 92  1  0
 54 93  1  0
 54 94  1  0
 55 95  1  0
 62 96  1  0
 65 97  1  0
M  END

