
     RDKit          3D

 88 98  0  0  0  0  0  0  0  0999 V2000
    6.5940    4.4947    0.3063 C   0  0  0  0  0  0  0  0  0  0  0  0
    5.9827    5.6616    0.6333 C   0  0  0  0  0  0  0  0  0  0  0  0
    5.7207    6.7142    0.8486 C   0  0  0  0  0  0  0  0  0  0  0  0
    4.8625    6.0954    2.3358 O   0  0  0  0  0  0  0  0  0  0  0  0
    5.3689    7.8873    1.1847 C   0  0  0  0  0  0  0  0  0  0  0  0
    6.2913    8.1006   -0.2428 C   0  0  0  0  0  0  0  0  0  0  0  0
    6.4240    9.3125   -0.6735 C   0  0  0  0  0  0  0  0  0  0  0  0
    5.9512   10.4729   -0.1639 C   0  0  0  0  0  0  0  0  0  0  0  0
    5.1825   10.3496    1.0336 C   0  0  0  0  0  0  0  0  0  0  0  0
    4.4328   11.9639    1.7562 Br  0  0  0  0  0  0  0  0  0  0  0  0
    5.0251    9.1605    1.4907 C   0  0  0  0  0  0  0  0  0  0  0  0
    4.1641    9.1019    3.1674 Cl  0  0  0  0  0  0  0  0  0  0  0  0
    6.7071    6.7064   -0.6433 C   0  0  0  0  0  0  0  0  0  0  0  0
    7.0663    6.3103   -1.7603 C   0  0  0  0  0  0  0  0  0  0  0  0
    6.9448    4.9129   -2.3194 C   0  0  0  0  0  0  0  0  0  0  0  0
    6.8474    3.9260   -2.7288 N   0  0  0  0  0  0  0  0  0  0  0  0
    7.6716    7.1773   -2.7509 C   0  0  0  0  0  0  0  0  0  0  0  0
    8.1338    7.8729   -3.5302 N   0  0  0  0  0  0  0  0  0  0  0  0
    5.6237    3.4141    0.4426 C   0  0  0  0  0  0  0  0  0  0  0  0
    5.2041    2.6650    2.1994 Se  0  0  0  0  0  2  0  0  0  0  0  0
    3.8938    1.4211    1.4184 C   0  0  0  0  0  0  0  0  0  0  0  0
    3.0555    0.4467    1.6171 C   0  0  0  0  0  0  0  0  0  0  0  0
    2.6733   -0.5399    2.8726 C   0  0  0  0  0  0  0  0  0  0  0  0
    2.1300   -1.2063    2.3185 C   0  0  0  0  0  0  0  0  0  0  0  0
    2.2434   -2.2679    3.6039 N   0  0  0  0  0  0  0  0  0  0  0  0
    3.1264   -1.4253    4.7471 S   0  0  0  0  0  0  0  0  0  0  0  0
    3.4428    0.1683    3.8867 N   0  0  0  0  0  0  0  0  0  0  0  0
    1.5353   -1.7842    1.3654 C   0  0  0  0  0  0  0  0  0  0  0  0
    0.6180   -2.7517    1.0406 C   0  0  0  0  0  0  0  0  0  0  0  0
   -0.4014   -3.9820    1.5757 S   0  0  0  0  0  0  0  0  0  0  0  0
   -1.2800   -4.2543    0.0340 C   0  0  0  0  0  0  0  0  0  0  0  0
   -2.3723   -5.0281   -0.2471 C   0  0  0  0  0  0  0  0  0  0  0  0
   -2.8465   -6.2285    0.5542 C   0  0  0  0  0  0  0  0  0  0  0  0
   -1.8066   -7.3561    0.1726 C   0  0  0  0  0  0  0  0  0  0  0  0
   -2.8871   -4.7782   -1.5267 C   0  0  0  0  0  0  0  0  0  0  0  0
   -1.8379   -3.5850   -2.1464 S   0  0  0  0  0  0  0  0  0  0  0  0
   -0.7408   -3.4112   -0.7443 C   0  0  0  0  0  0  0  0  0  0  0  0
    0.2547   -2.5886   -0.3181 C   0  0  0  0  0  0  0  0  0  0  0  0
    1.0133   -1.5407   -0.8173 N   0  0  0  0  0  0  0  0  0  0  0  0
    1.7360   -1.0301    0.1261 C   0  0  0  0  0  0  0  0  0  0  0  0
    2.5482    0.1044    0.3462 C   0  0  0  0  0  0  0  0  0  0  0  0
    3.0761    0.8844   -0.5368 N   0  0  0  0  0  0  0  0  0  0  0  0
    3.9789    1.7636    0.0314 C   0  0  0  0  0  0  0  0  0  0  0  0
    4.8484    2.7222   -0.2318 C   0  0  0  0  0  0  0  0  0  0  0  0
    2.6801    1.1548   -1.9352 C   0  0  0  0  0  0  0  0  0  0  0  0
    2.1417    2.6507   -2.1184 C   0  0  0  0  0  0  0  0  0  0  0  0
    1.1014   -1.3669   -2.2465 C   0  0  0  0  0  0  0  0  0  0  0  0
   -0.0074   -0.6161   -2.8822 C   0  0  0  0  0  0  0  0  0  0  0  0
   -4.1719   -5.3127   -2.1165 C   0  0  0  0  0  0  0  0  0  0  0  0
   -5.2621   -5.0517   -1.3928 C   0  0  0  0  0  0  0  0  0  0  0  0
   -5.4137   -4.3511   -0.1267 C   0  0  0  0  0  0  0  0  0  0  0  0
   -4.4981   -3.7322    0.4512 O   0  0  0  0  0  0  0  0  0  0  0  0
   -6.8086   -4.4671    0.3201 C   0  0  0  0  0  0  0  0  0  0  0  0
   -7.5017   -3.9634    1.4057 C   0  0  0  0  0  0  0  0  0  0  0  0
   -8.7740   -4.1012    1.6961 C   0  0  0  0  0  0  0  0  0  0  0  0
   -9.4163   -3.5802    2.7649 F   0  0  0  0  0  0  0  0  0  0  0  0
   -9.4963   -4.8686    0.7611 C   0  0  0  0  0  0  0  0  0  0  0  0
  -10.8361   -5.0026    1.0388 F   0  0  0  0  0  0  0  0  0  0  0  0
   -8.9215   -5.4257   -0.3542 C   0  0  0  0  0  0  0  0  0  0  0  0
   -7.5238   -5.2018   -0.5756 C   0  0  0  0  0  0  0  0  0  0  0  0
   -6.6076   -5.6075   -1.6944 C   0  0  0  0  0  0  0  0  0  0  0  0
   -7.0344   -6.1287   -2.8241 C   0  0  0  0  0  0  0  0  0  0  0  0
   -6.1985   -6.2165   -3.9963 C   0  0  0  0  0  0  0  0  0  0  0  0
   -5.4838   -6.2943   -5.0157 N   0  0  0  0  0  0  0  0  0  0  0  0
   -8.3062   -6.8305   -3.0292 C   0  0  0  0  0  0  0  0  0  0  0  0
   -9.3213   -7.4085   -3.2024 N   0  0  0  0  0  0  0  0  0  0  0  0
    7.5880    4.4021    0.0187 H   0  0  0  0  0  0  0  0  0  0  0  0
    7.0202    9.4640   -1.6099 H   0  0  0  0  0  0  0  0  0  0  0  0
    6.0922   11.4344   -0.5600 H   0  0  0  0  0  0  0  0  0  0  0  0
   -2.8709   -6.0943    1.5679 H   0  0  0  0  0  0  0  0  0  0  0  0
   -3.8469   -6.5338    0.1162 H   0  0  0  0  0  0  0  0  0  0  0  0
   -0.8575   -7.1378    0.5735 H   0  0  0  0  0  0  0  0  0  0  0  0
   -2.1637   -8.3187    0.2888 H   0  0  0  0  0  0  0  0  0  0  0  0
   -1.6551   -7.1999   -0.9645 H   0  0  0  0  0  0  0  0  0  0  0  0
    4.9021    3.0079   -1.3913 H   0  0  0  0  0  0  0  0  0  0  0  0
    3.4456    1.0005   -2.6312 H   0  0  0  0  0  0  0  0  0  0  0  0
    1.7762    0.6759   -2.1236 H   0  0  0  0  0  0  0  0  0  0  0  0
    1.4509    2.9277   -1.3429 H   0  0  0  0  0  0  0  0  0  0  0  0
    2.8977    3.3704   -2.2036 H   0  0  0  0  0  0  0  0  0  0  0  0
    1.5411    2.6370   -3.0904 H   0  0  0  0  0  0  0  0  0  0  0  0
    0.9525   -2.4644   -2.7203 H   0  0  0  0  0  0  0  0  0  0  0  0
    2.1306   -1.2403   -2.6663 H   0  0  0  0  0  0  0  0  0  0  0  0
   -0.8581   -1.2623   -3.2711 H   0  0  0  0  0  0  0  0  0  0  0  0
    0.3623   -0.1432   -3.8043 H   0  0  0  0  0  0  0  0  0  0  0  0
   -0.4600    0.1846   -2.2149 H   0  0  0  0  0  0  0  0  0  0  0  0
   -4.0658   -5.8596   -3.0033 H   0  0  0  0  0  0  0  0  0  0  0  0
   -6.8456   -3.4080    2.1015 H   0  0  0  0  0  0  0  0  0  0  0  0
   -9.4770   -5.9847   -1.0541 H   0  0  0  0  0  0  0  0  0  0  0  0
  1  2  2  3
  2  3  1  0
  3  4  2  0
  3  5  1  0
  5  6  2  0
  6  7  1  0
  7  8  2  0
  8  9  1  0
  9 10  1  0
  9 11  2  0
 11 12  1  0
  6 13  1  0
 13 14  2  3
 14 15  1  0
 15 16  3  0
 14 17  1  0
 17 18  3  0
  1 19  1  0
 19 20  1  0
 20 21  1  0
 21 22  1  0
 22 23  1  0
 23 24  1  0
 24 25  2  0
 25 26  1  0
 26 27  1  0
 24 28  1  0
 28 29  1  0
 29 30  1  0
 30 31  1  0
 31 32  1  0
 32 33  1  0
 33 34  1  0
 32 35  2  0
 35 36  1  0
 36 37  1  0
 37 38  1  0
 38 39  1  0
 39 40  1  0
 40 41  1  0
 41 42  1  0
 42 43  1  0
 43 44  1  0
 42 45  1  0
 45 46  1  0
 39 47  1  0
 47 48  1  0
 35 49  1  0
 49 50  2  3
 50 51  1  0
 51 52  2  0
 51 53  1  0
 53 54  2  0
 54 55  1  0
 55 56  1  0
 55 57  2  0
 57 58  1  0
 57 59  1  0
 59 60  2  0
 60 61  1  0
 61 62  2  3
 62 63  1  0
 63 64  3  0
 62 65  1  0
 65 66  3  0
 13  2  1  0
 44 19  2  0
 61 50  1  0
 11  5  1  0
 43 21  2  0
 60 53  1  0
 41 22  2  0
 27 23  2  0
 40 28  2  0
 38 29  2  0
 37 31  2  0
  1 67  1  0
  7 68  1  0
  8 69  1  0
 33 70  1  0
 33 71  1  0
 34 72  1  0
 34 73  1  0
 34 74  1  0
 44 75  1  0
 45 76  1  0
 45 77  1  0
 46 78  1  0
 46 79  1  0
 46 80  1  0
 47 81  1  0
 47 82  1  0
 48 83  1  0
 48 84  1  0
 48 85  1  0
 49 86  1  0
 54 87  1  0
 59 88  1  0
M  END

