
     RDKit          3D

117130  0  0  0  0  0  0  0  0999 V2000
    3.1031    3.4339   -5.5703 C   0  0  0  0  0  0  0  0  0  0  0  0
    4.2562    3.4276   -6.2749 C   0  0  0  0  0  0  0  0  0  0  0  0
    5.0369    4.6612   -6.3879 C   0  0  0  0  0  0  0  0  0  0  0  0
    4.6337    5.8110   -6.0622 O   0  0  0  0  0  0  0  0  0  0  0  0
    6.3489    4.3519   -6.9126 C   0  0  0  0  0  0  0  0  0  0  0  0
    6.4107    2.9966   -7.2019 C   0  0  0  0  0  0  0  0  0  0  0  0
    7.5473    2.4924   -7.8631 C   0  0  0  0  0  0  0  0  0  0  0  0
    8.6281    3.3437   -8.1258 C   0  0  0  0  0  0  0  0  0  0  0  0
    8.5823    4.6975   -7.7666 C   0  0  0  0  0  0  0  0  0  0  0  0
   10.1024    5.7985   -8.1487 Br  0  0  0  0  0  0  0  0  0  0  0  0
    7.4209    5.2233   -7.1630 C   0  0  0  0  0  0  0  0  0  0  0  0
    7.3214    6.9283   -6.7367 Cl  0  0  0  0  0  0  0  0  0  0  0  0
    5.1173    2.3253   -6.8341 C   0  0  0  0  0  0  0  0  0  0  0  0
    4.8266    1.0086   -7.0297 C   0  0  0  0  0  0  0  0  0  0  0  0
    5.8511    0.0227   -7.2799 C   0  0  0  0  0  0  0  0  0  0  0  0
    6.6734   -0.7763   -7.4794 N   0  0  0  0  0  0  0  0  0  0  0  0
    3.4923    0.4793   -7.0835 C   0  0  0  0  0  0  0  0  0  0  0  0
    2.4346    0.0178   -7.1411 N   0  0  0  0  0  0  0  0  0  0  0  0
    2.2673    2.3074   -5.1728 C   0  0  0  0  0  0  0  0  0  0  0  0
    0.9529    2.1001   -5.6366 C   0  0  0  0  0  0  0  0  0  0  0  0
    0.3530    2.7700   -6.8098 C   0  0  0  0  0  0  0  0  0  0  0  0
    0.3127    4.1699   -6.9035 C   0  0  0  0  0  0  0  0  0  0  0  0
   -0.1753    4.7888   -8.0603 C   0  0  0  0  0  0  0  0  0  0  0  0
   -0.6251    4.0133   -9.1419 C   0  0  0  0  0  0  0  0  0  0  0  0
   -1.1224    4.6763  -10.4003 C   0  0  0  0  0  0  0  0  0  0  0  0
   -2.6318    4.8816  -10.3462 C   0  0  0  0  0  0  0  0  0  0  0  0
   -0.6351    2.6154   -9.0277 C   0  0  0  0  0  0  0  0  0  0  0  0
   -0.1540    1.9995   -7.8672 C   0  0  0  0  0  0  0  0  0  0  0  0
    0.2904    1.1566   -4.8495 C   0  0  0  0  0  0  0  0  0  0  0  0
   -1.3354    0.6692   -4.7815 S   0  0  0  0  0  0  0  0  0  0  0  0
   -1.0469   -0.2089   -3.3595 C   0  0  0  0  0  0  0  0  0  0  0  0
   -1.8098   -0.6014   -2.3001 C   0  0  0  0  0  0  0  0  0  0  0  0
   -3.1963   -0.5088   -2.1306 C   0  0  0  0  0  0  0  0  0  0  0  0
   -3.7361   -0.6357   -0.8232 C   0  0  0  0  0  0  0  0  0  0  0  0
   -5.0810   -0.5331   -0.6967 N   0  0  0  0  0  0  0  0  0  0  0  0
   -5.4896   -0.2834   -2.2802 S   0  0  0  0  0  0  0  0  0  0  0  0
   -4.0727   -0.2858   -3.1369 N   0  0  0  0  0  0  0  0  0  0  0  0
   -2.8662   -0.8883    0.2387 C   0  0  0  0  0  0  0  0  0  0  0  0
   -3.1227   -1.1404    1.5523 C   0  0  0  0  0  0  0  0  0  0  0  0
   -4.4411   -1.1949    2.6156 S   0  0  0  0  0  0  0  0  0  0  0  0
   -3.4233   -1.7499    3.8742 C   0  0  0  0  0  0  0  0  0  0  0  0
   -3.6435   -2.0601    5.2207 C   0  0  0  0  0  0  0  0  0  0  0  0
   -4.9100   -1.7787    5.9361 C   0  0  0  0  0  0  0  0  0  0  0  0
   -5.4599   -2.7194    6.8218 C   0  0  0  0  0  0  0  0  0  0  0  0
   -6.6156   -2.4158    7.5487 C   0  0  0  0  0  0  0  0  0  0  0  0
   -7.2356   -1.1638    7.4025 C   0  0  0  0  0  0  0  0  0  0  0  0
   -8.4745   -0.8240    8.1901 C   0  0  0  0  0  0  0  0  0  0  0  0
   -9.7313   -1.0771    7.3620 C   0  0  0  0  0  0  0  0  0  0  0  0
   -6.7018   -0.2371    6.4971 C   0  0  0  0  0  0  0  0  0  0  0  0
   -5.5475   -0.5384    5.7716 C   0  0  0  0  0  0  0  0  0  0  0  0
   -2.4607   -2.5397    5.8194 C   0  0  0  0  0  0  0  0  0  0  0  0
   -1.1721   -2.4595    4.7010 S   0  0  0  0  0  0  0  0  0  0  0  0
   -2.1303   -1.9042    3.4444 C   0  0  0  0  0  0  0  0  0  0  0  0
   -1.9610   -1.5306    2.1172 C   0  0  0  0  0  0  0  0  0  0  0  0
   -0.9203   -1.5436    1.2430 N   0  0  0  0  0  0  0  0  0  0  0  0
   -1.4782   -1.0687    0.0706 C   0  0  0  0  0  0  0  0  0  0  0  0
   -0.9184   -0.8106   -1.2253 C   0  0  0  0  0  0  0  0  0  0  0  0
    0.3580   -0.4439   -1.6017 N   0  0  0  0  0  0  0  0  0  0  0  0
    0.2293   -0.0949   -2.9114 C   0  0  0  0  0  0  0  0  0  0  0  0
    1.0028    0.6860   -3.7725 C   0  0  0  0  0  0  0  0  0  0  0  0
    2.5192    1.4138   -3.7464 S   0  0  0  0  0  0  0  0  0  0  0  0
    1.5086   -0.0879   -0.7654 C   0  0  0  0  0  0  0  0  0  0  0  0
    1.1874    1.0819    0.1574 C   0  0  0  0  0  0  0  0  0  0  0  0
    0.3325   -2.2759    1.4789 C   0  0  0  0  0  0  0  0  0  0  0  0
    0.5723   -3.3574    0.4263 C   0  0  0  0  0  0  0  0  0  0  0  0
   -2.2951   -2.8303    7.2560 C   0  0  0  0  0  0  0  0  0  0  0  0
   -1.5873   -3.8686    7.7457 C   0  0  0  0  0  0  0  0  0  0  0  0
   -1.1553   -5.0479    6.9806 C   0  0  0  0  0  0  0  0  0  0  0  0
   -1.2846   -5.2300    5.7414 O   0  0  0  0  0  0  0  0  0  0  0  0
   -0.7055   -6.0581    7.9100 C   0  0  0  0  0  0  0  0  0  0  0  0
   -0.2376   -7.3403    7.6205 C   0  0  0  0  0  0  0  0  0  0  0  0
    0.1010   -8.1869    8.6867 C   0  0  0  0  0  0  0  0  0  0  0  0
    0.6981   -9.8059    8.3639 Cl  0  0  0  0  0  0  0  0  0  0  0  0
   -0.0685   -7.7500   10.0097 C   0  0  0  0  0  0  0  0  0  0  0  0
   -0.5448   -6.4568   10.2813 C   0  0  0  0  0  0  0  0  0  0  0  0
   -0.8435   -5.5975    9.2076 C   0  0  0  0  0  0  0  0  0  0  0  0
   -1.3277   -4.1832    9.1865 C   0  0  0  0  0  0  0  0  0  0  0  0
   -1.3153   -3.3035   10.2254 C   0  0  0  0  0  0  0  0  0  0  0  0
   -1.5281   -1.8899   10.0460 C   0  0  0  0  0  0  0  0  0  0  0  0
   -1.6908   -0.7518    9.9090 N   0  0  0  0  0  0  0  0  0  0  0  0
   -0.9700   -3.6861   11.5701 C   0  0  0  0  0  0  0  0  0  0  0  0
   -0.6973   -3.9715   12.6579 N   0  0  0  0  0  0  0  0  0  0  0  0
    2.7552    4.3844   -5.1767 H   0  0  0  0  0  0  0  0  0  0  0  0
    7.6194    1.4818   -8.2150 H   0  0  0  0  0  0  0  0  0  0  0  0
    9.5049    2.9496   -8.6270 H   0  0  0  0  0  0  0  0  0  0  0  0
    0.6493    4.7876   -6.0829 H   0  0  0  0  0  0  0  0  0  0  0  0
   -0.1909    5.8717   -8.1165 H   0  0  0  0  0  0  0  0  0  0  0  0
   -0.6249    5.6601  -10.5390 H   0  0  0  0  0  0  0  0  0  0  0  0
   -0.8657    4.0550  -11.2852 H   0  0  0  0  0  0  0  0  0  0  0  0
   -2.9714    5.3610  -11.2891 H   0  0  0  0  0  0  0  0  0  0  0  0
   -2.8994    5.5428   -9.4942 H   0  0  0  0  0  0  0  0  0  0  0  0
   -3.1509    3.9058  -10.2340 H   0  0  0  0  0  0  0  0  0  0  0  0
   -0.9994    2.0021   -9.8421 H   0  0  0  0  0  0  0  0  0  0  0  0
   -0.1518    0.9203   -7.8098 H   0  0  0  0  0  0  0  0  0  0  0  0
   -4.9944   -3.6881    6.9542 H   0  0  0  0  0  0  0  0  0  0  0  0
   -7.0234   -3.1523    8.2316 H   0  0  0  0  0  0  0  0  0  0  0  0
   -8.4449    0.2433    8.4961 H   0  0  0  0  0  0  0  0  0  0  0  0
   -8.5234   -1.4314    9.1193 H   0  0  0  0  0  0  0  0  0  0  0  0
  -10.6272   -0.8219    7.9645 H   0  0  0  0  0  0  0  0  0  0  0  0
   -9.7284   -0.4452    6.4466 H   0  0  0  0  0  0  0  0  0  0  0  0
   -9.7877   -2.1475    7.0675 H   0  0  0  0  0  0  0  0  0  0  0  0
   -7.1760    0.7283    6.3642 H   0  0  0  0  0  0  0  0  0  0  0  0
   -5.1368    0.2141    5.1087 H   0  0  0  0  0  0  0  0  0  0  0  0
    2.3731    0.1941   -1.3934 H   0  0  0  0  0  0  0  0  0  0  0  0
    1.8883   -0.9657   -0.2323 H   0  0  0  0  0  0  0  0  0  0  0  0
    0.3379    0.8489    0.8316 H   0  0  0  0  0  0  0  0  0  0  0  0
    0.9352    1.9838   -0.4465 H   0  0  0  0  0  0  0  0  0  0  0  0
    2.0739    1.3160    0.7820 H   0  0  0  0  0  0  0  0  0  0  0  0
    0.2843   -2.8127    2.4448 H   0  0  0  0  0  0  0  0  0  0  0  0
    1.1787   -1.5803    1.6061 H   0  0  0  0  0  0  0  0  0  0  0  0
   -0.2669   -4.0848    0.4291 H   0  0  0  0  0  0  0  0  0  0  0  0
    1.5132   -3.8999    0.6611 H   0  0  0  0  0  0  0  0  0  0  0  0
    0.6657   -2.9310   -0.5925 H   0  0  0  0  0  0  0  0  0  0  0  0
   -2.8198   -2.1717    7.9305 H   0  0  0  0  0  0  0  0  0  0  0  0
   -0.1399   -7.6768    6.5957 H   0  0  0  0  0  0  0  0  0  0  0  0
    0.1693   -8.4129   10.8326 H   0  0  0  0  0  0  0  0  0  0  0  0
   -0.6850   -6.1726   11.3094 H   0  0  0  0  0  0  0  0  0  0  0  0
  1  2  2  3
  2  3  1  0
  3  4  2  0
  3  5  1  0
  5  6  2  0
  6  7  1  0
  7  8  2  0
  8  9  1  0
  9 10  1  0
  9 11  2  0
 11 12  1  0
  6 13  1  0
 13 14  2  3
 14 15  1  0
 15 16  3  0
 14 17  1  0
 17 18  3  0
  1 19  1  0
 19 20  2  0
 20 21  1  0
 21 22  2  0
 22 23  1  0
 23 24  2  0
 24 25  1  0
 25 26  1  0
 24 27  1  0
 27 28  2  0
 20 29  1  0
 29 30  1  0
 30 31  1  0
 31 32  1  0
 32 33  1  0
 33 34  1  0
 34 35  2  0
 35 36  1  0
 36 37  1  0
 34 38  1  0
 38 39  1  0
 39 40  1  0
 40 41  1  0
 41 42  1  0
 42 43  1  0
 43 44  2  0
 44 45  1  0
 45 46  2  0
 46 47  1  0
 47 48  1  0
 46 49  1  0
 49 50  2  0
 42 51  2  0
 51 52  1  0
 52 53  1  0
 53 54  1  0
 54 55  1  0
 55 56  1  0
 56 57  1  0
 57 58  1  0
 58 59  1  0
 59 60  1  0
 60 61  1  0
 58 62  1  0
 62 63  1  0
 55 64  1  0
 64 65  1  0
 51 66  1  0
 66 67  2  3
 67 68  1  0
 68 69  2  0
 68 70  1  0
 70 71  2  0
 71 72  1  0
 72 73  1  0
 72 74  2  0
 74 75  1  0
 75 76  2  0
 76 77  1  0
 77 78  2  3
 78 79  1  0
 79 80  3  0
 78 81  1  0
 81 82  3  0
 13  2  1  0
 61 19  1  0
 77 67  1  0
 11  5  1  0
 28 21  1  0
 60 29  2  0
 76 70  1  0
 59 31  2  0
 57 32  2  0
 37 33  2  0
 56 38  2  0
 54 39  2  0
 53 41  2  0
 50 43  1  0
  1 83  1  0
  7 84  1  0
  8 85  1  0
 22 86  1  0
 23 87  1  0
 25 88  1  0
 25 89  1  0
 26 90  1  0
 26 91  1  0
 26 92  1  0
 27 93  1  0
 28 94  1  0
 44 95  1  0
 45 96  1  0
 47 97  1  0
 47 98  1  0
 48 99  1  0
 48100  1  0
 48101  1  0
 49102  1  0
 50103  1  0
 62104  1  0
 62105  1  0
 63106  1  0
 63107  1  0
 63108  1  0
 64109  1  0
 64110  1  0
 65111  1  0
 65112  1  0
 65113  1  0
 66114  1  0
 71115  1  0
 74116  1  0
 75117  1  0
M  END

