
     RDKit          3D

107120  0  0  0  0  0  0  0  0999 V2000
    2.0490   -5.0584   -5.0336 C   0  0  0  0  0  0  0  0  0  0  0  0
    1.4197   -5.8588   -4.1527 C   0  0  0  0  0  0  0  0  0  0  0  0
    0.4500   -5.4143   -3.1449 C   0  0  0  0  0  0  0  0  0  0  0  0
    0.2554   -4.2263   -2.7751 O   0  0  0  0  0  0  0  0  0  0  0  0
   -0.2857   -6.5717   -2.6674 C   0  0  0  0  0  0  0  0  0  0  0  0
    0.2082   -7.7074   -3.2924 C   0  0  0  0  0  0  0  0  0  0  0  0
   -0.4135   -8.9476   -3.0767 C   0  0  0  0  0  0  0  0  0  0  0  0
   -1.5042   -9.0232   -2.2006 C   0  0  0  0  0  0  0  0  0  0  0  0
   -1.9794   -7.8747   -1.5436 C   0  0  0  0  0  0  0  0  0  0  0  0
   -3.4765   -8.0599   -0.3556 Br  0  0  0  0  0  0  0  0  0  0  0  0
   -1.3788   -6.6225   -1.7881 C   0  0  0  0  0  0  0  0  0  0  0  0
   -1.9987   -5.1646   -1.0179 Cl  0  0  0  0  0  0  0  0  0  0  0  0
    1.3640   -7.3499   -4.1638 C   0  0  0  0  0  0  0  0  0  0  0  0
    2.3132   -8.1936   -4.6449 C   0  0  0  0  0  0  0  0  0  0  0  0
    3.5309   -7.7179   -5.2519 C   0  0  0  0  0  0  0  0  0  0  0  0
    4.5073   -7.3400   -5.7378 N   0  0  0  0  0  0  0  0  0  0  0  0
    2.2472   -9.6188   -4.4739 C   0  0  0  0  0  0  0  0  0  0  0  0
    2.2134  -10.7688   -4.3413 N   0  0  0  0  0  0  0  0  0  0  0  0
    2.0302   -3.5917   -4.9354 C   0  0  0  0  0  0  0  0  0  0  0  0
    0.8638   -2.6243   -5.7245 S   0  0  0  0  0  0  0  0  0  0  0  0
    1.4036   -1.2376   -4.9670 C   0  0  0  0  0  0  0  0  0  0  0  0
    1.0369    0.0676   -4.8362 C   0  0  0  0  0  0  0  0  0  0  0  0
    0.0418    0.8342   -5.4456 C   0  0  0  0  0  0  0  0  0  0  0  0
   -0.1153    2.1945   -5.0379 C   0  0  0  0  0  0  0  0  0  0  0  0
   -1.1031    2.9029   -5.6380 N   0  0  0  0  0  0  0  0  0  0  0  0
   -1.7056    1.7400   -6.6526 S   0  0  0  0  0  0  0  0  0  0  0  0
   -0.8024    0.3734   -6.3975 N   0  0  0  0  0  0  0  0  0  0  0  0
    0.7017    2.6958   -4.0098 C   0  0  0  0  0  0  0  0  0  0  0  0
    0.5097    3.7813   -3.1983 C   0  0  0  0  0  0  0  0  0  0  0  0
   -0.8257    4.7929   -2.9212 S   0  0  0  0  0  0  0  0  0  0  0  0
   -0.3899    5.0091   -1.2940 C   0  0  0  0  0  0  0  0  0  0  0  0
   -1.0739    5.5411   -0.1965 C   0  0  0  0  0  0  0  0  0  0  0  0
   -2.3511    6.3325   -0.2883 C   0  0  0  0  0  0  0  0  0  0  0  0
   -2.0535    7.8290   -0.3061 C   0  0  0  0  0  0  0  0  0  0  0  0
   -0.4396    5.1872    1.0074 C   0  0  0  0  0  0  0  0  0  0  0  0
    0.9409    4.2441    0.6773 S   0  0  0  0  0  0  0  0  0  0  0  0
    0.7295    4.2786   -0.9855 C   0  0  0  0  0  0  0  0  0  0  0  0
    1.2505    3.5741   -2.0705 C   0  0  0  0  0  0  0  0  0  0  0  0
    1.9549    2.4099   -2.1193 N   0  0  0  0  0  0  0  0  0  0  0  0
    1.6537    1.8931   -3.3564 C   0  0  0  0  0  0  0  0  0  0  0  0
    1.8863    0.5841   -3.8555 C   0  0  0  0  0  0  0  0  0  0  0  0
    2.8300   -0.3335   -3.4874 N   0  0  0  0  0  0  0  0  0  0  0  0
    2.4445   -1.4675   -4.1388 C   0  0  0  0  0  0  0  0  0  0  0  0
    2.8409   -2.8158   -4.0761 C   0  0  0  0  0  0  0  0  0  0  0  0
    3.8060   -3.4181   -3.0873 C   0  0  0  0  0  0  0  0  0  0  0  0
    5.0461   -3.9919   -3.7743 C   0  0  0  0  0  0  0  0  0  0  0  0
    4.2117    0.0146   -3.1178 C   0  0  0  0  0  0  0  0  0  0  0  0
    5.1584   -0.0826   -4.3150 C   0  0  0  0  0  0  0  0  0  0  0  0
    2.3912    1.6690   -0.9215 C   0  0  0  0  0  0  0  0  0  0  0  0
    3.6215    2.3194   -0.2790 C   0  0  0  0  0  0  0  0  0  0  0  0
   -0.9160    5.5309    2.3589 C   0  0  0  0  0  0  0  0  0  0  0  0
   -1.1761    4.6153    3.3142 C   0  0  0  0  0  0  0  0  0  0  0  0
   -1.0349    3.1598    3.1697 C   0  0  0  0  0  0  0  0  0  0  0  0
   -1.0711    2.5054    2.0939 O   0  0  0  0  0  0  0  0  0  0  0  0
   -0.9131    2.5773    4.4847 C   0  0  0  0  0  0  0  0  0  0  0  0
   -0.5933    1.2361    4.7963 C   0  0  0  0  0  0  0  0  0  0  0  0
   -0.4156    1.0038    6.1468 C   0  0  0  0  0  0  0  0  0  0  0  0
   -0.5425    2.0274    7.1403 C   0  0  0  0  0  0  0  0  0  0  0  0
   -0.8664    3.3416    6.8429 C   0  0  0  0  0  0  0  0  0  0  0  0
   -1.0728    3.5978    5.4578 C   0  0  0  0  0  0  0  0  0  0  0  0
   -1.3909    4.8814    4.7667 C   0  0  0  0  0  0  0  0  0  0  0  0
   -1.9910    5.9725    5.3109 C   0  0  0  0  0  0  0  0  0  0  0  0
   -2.5544    7.0187    4.4977 C   0  0  0  0  0  0  0  0  0  0  0  0
   -3.0212    7.8605    3.8517 N   0  0  0  0  0  0  0  0  0  0  0  0
   -2.2577    6.0825    6.7216 C   0  0  0  0  0  0  0  0  0  0  0  0
   -2.4740    6.1782    7.8553 N   0  0  0  0  0  0  0  0  0  0  0  0
   -0.1871    1.0444    8.2194 C   0  0  0  0  0  0  0  0  0  0  0  0
   -1.3308    0.5168    9.1391 C   0  0  0  0  0  0  0  0  0  0  0  0
   -2.6378    0.4881    8.3803 C   0  0  0  0  0  0  0  0  0  0  0  0
   -2.5167   -0.4609    7.4532 C   0  0  0  0  0  0  0  0  0  0  0  0
   -1.1352   -1.0509    7.6153 C   0  0  0  0  0  0  0  0  0  0  0  0
   -1.0134   -0.9679    9.1252 C   0  0  0  0  0  0  0  0  0  0  0  0
   -0.0575   -0.0028    7.2022 C   0  0  0  0  0  0  0  0  0  0  0  0
    2.5634   -5.4735   -5.8835 H   0  0  0  0  0  0  0  0  0  0  0  0
   -0.1117   -9.8408   -3.5949 H   0  0  0  0  0  0  0  0  0  0  0  0
   -1.9849   -9.9801   -2.0273 H   0  0  0  0  0  0  0  0  0  0  0  0
   -2.9085    6.0615   -1.2104 H   0  0  0  0  0  0  0  0  0  0  0  0
   -3.0056    6.0984    0.5794 H   0  0  0  0  0  0  0  0  0  0  0  0
   -1.5022    8.1250    0.6120 H   0  0  0  0  0  0  0  0  0  0  0  0
   -1.4410    8.0952   -1.1970 H   0  0  0  0  0  0  0  0  0  0  0  0
   -3.0084    8.3928   -0.3429 H   0  0  0  0  0  0  0  0  0  0  0  0
    4.1081   -2.6877   -2.3216 H   0  0  0  0  0  0  0  0  0  0  0  0
    3.2969   -4.2409   -2.5363 H   0  0  0  0  0  0  0  0  0  0  0  0
    5.5544   -3.2254   -4.3986 H   0  0  0  0  0  0  0  0  0  0  0  0
    4.7693   -4.8474   -4.4251 H   0  0  0  0  0  0  0  0  0  0  0  0
    5.7635   -4.3528   -3.0070 H   0  0  0  0  0  0  0  0  0  0  0  0
    4.5694   -0.6017   -2.2754 H   0  0  0  0  0  0  0  0  0  0  0  0
    4.2638    1.0675   -2.7862 H   0  0  0  0  0  0  0  0  0  0  0  0
    5.0801   -1.0647   -4.8153 H   0  0  0  0  0  0  0  0  0  0  0  0
    4.9133    0.7097   -5.0503 H   0  0  0  0  0  0  0  0  0  0  0  0
    6.2066    0.0570   -3.9733 H   0  0  0  0  0  0  0  0  0  0  0  0
    1.5620    1.6418   -0.1811 H   0  0  0  0  0  0  0  0  0  0  0  0
    2.6040    0.6067   -1.1382 H   0  0  0  0  0  0  0  0  0  0  0  0
    3.5210    3.4212   -0.2348 H   0  0  0  0  0  0  0  0  0  0  0  0
    3.7417    1.9360    0.7528 H   0  0  0  0  0  0  0  0  0  0  0  0
    4.5400    2.0869   -0.8424 H   0  0  0  0  0  0  0  0  0  0  0  0
   -0.9723    6.5823    2.5815 H   0  0  0  0  0  0  0  0  0  0  0  0
   -0.4569    0.4708    4.0459 H   0  0  0  0  0  0  0  0  0  0  0  0
   -0.8969    4.0924    7.6184 H   0  0  0  0  0  0  0  0  0  0  0  0
    0.7657    1.2763    8.7465 H   0  0  0  0  0  0  0  0  0  0  0  0
   -1.3806    0.9835   10.1459 H   0  0  0  0  0  0  0  0  0  0  0  0
   -3.5391    1.0543    8.5977 H   0  0  0  0  0  0  0  0  0  0  0  0
   -3.3058   -0.8088    6.7951 H   0  0  0  0  0  0  0  0  0  0  0  0
   -1.0019   -2.0624    7.1815 H   0  0  0  0  0  0  0  0  0  0  0  0
   -1.7661   -1.5845    9.6686 H   0  0  0  0  0  0  0  0  0  0  0  0
    0.0087   -1.2123    9.5037 H   0  0  0  0  0  0  0  0  0  0  0  0
    0.9747   -0.4071    7.1059 H   0  0  0  0  0  0  0  0  0  0  0  0
  1  2  2  3
  2  3  1  0
  3  4  2  0
  3  5  1  0
  5  6  2  0
  6  7  1  0
  7  8  2  0
  8  9  1  0
  9 10  1  0
  9 11  2  0
 11 12  1  0
  6 13  1  0
 13 14  2  3
 14 15  1  0
 15 16  3  0
 14 17  1  0
 17 18  3  0
  1 19  1  0
 19 20  1  0
 20 21  1  0
 21 22  1  0
 22 23  1  0
 23 24  1  0
 24 25  2  0
 25 26  1  0
 26 27  1  0
 24 28  1  0
 28 29  1  0
 29 30  1  0
 30 31  1  0
 31 32  1  0
 32 33  1  0
 33 34  1  0
 32 35  2  0
 35 36  1  0
 36 37  1  0
 37 38  1  0
 38 39  1  0
 39 40  1  0
 40 41  1  0
 41 42  1  0
 42 43  1  0
 43 44  1  0
 44 45  1  0
 45 46  1  0
 42 47  1  0
 47 48  1  0
 39 49  1  0
 49 50  1  0
 35 51  1  0
 51 52  2  3
 52 53  1  0
 53 54  2  0
 53 55  1  0
 55 56  2  0
 56 57  1  0
 57 58  2  0
 58 59  1  0
 59 60  2  0
 60 61  1  0
 61 62  2  3
 62 63  1  0
 63 64  3  0
 62 65  1  0
 65 66  3  0
 58 67  1  0
 67 68  1  0
 68 69  1  0
 69 70  2  0
 70 71  1  0
 71 72  1  0
 71 73  1  0
 13  2  1  0
 44 19  2  0
 61 52  1  0
 73 67  1  0
 11  5  1  0
 43 21  2  0
 60 55  1  0
 72 68  1  0
 41 22  2  0
 73 57  1  0
 27 23  2  0
 40 28  2  0
 38 29  2  0
 37 31  2  0
  1 74  1  0
  7 75  1  0
  8 76  1  0
 33 77  1  0
 33 78  1  0
 34 79  1  0
 34 80  1  0
 34 81  1  0
 45 82  1  0
 45 83  1  0
 46 84  1  0
 46 85  1  0
 46 86  1  0
 47 87  1  0
 47 88  1  0
 48 89  1  0
 48 90  1  0
 48 91  1  0
 49 92  1  0
 49 93  1  0
 50 94  1  0
 50 95  1  0
 50 96  1  0
 51 97  1  0
 56 98  1  0
 59 99  1  0
 67100  1  0
 68101  1  0
 69102  1  0
 70103  1  0
 71104  1  0
 72105  1  0
 72106  1  0
 73107  1  0
M  END

