
     RDKit          3D

112123  0  0  0  0  0  0  0  0999 V2000
   -7.7537   -0.0384    1.9414 C   0  0  0  0  0  0  0  0  0  0  0  0
   -8.5491    0.6938    2.7468 C   0  0  0  0  0  0  0  0  0  0  0  0
   -8.0975    1.6658    3.7537 C   0  0  0  0  0  0  0  0  0  0  0  0
   -6.9128    2.0576    3.9305 O   0  0  0  0  0  0  0  0  0  0  0  0
   -9.2134    1.9682    4.6380 C   0  0  0  0  0  0  0  0  0  0  0  0
  -10.3197    1.2316    4.2411 C   0  0  0  0  0  0  0  0  0  0  0  0
  -11.4880    1.2539    5.0197 C   0  0  0  0  0  0  0  0  0  0  0  0
  -11.5345    2.0666    6.1593 C   0  0  0  0  0  0  0  0  0  0  0  0
  -10.4266    2.8444    6.5325 C   0  0  0  0  0  0  0  0  0  0  0  0
  -10.5648    3.9452    8.0966 Br  0  0  0  0  0  0  0  0  0  0  0  0
   -9.2396    2.7896    5.7748 C   0  0  0  0  0  0  0  0  0  0  0  0
   -7.8289    3.7343    6.2444 Cl  0  0  0  0  0  0  0  0  0  0  0  0
  -10.0051    0.4692    2.9985 C   0  0  0  0  0  0  0  0  0  0  0  0
  -10.8986   -0.0909    2.1378 C   0  0  0  0  0  0  0  0  0  0  0  0
  -10.5228   -0.5576    0.8270 C   0  0  0  0  0  0  0  0  0  0  0  0
  -10.2296   -0.9344   -0.2281 N   0  0  0  0  0  0  0  0  0  0  0  0
  -12.3136   -0.1393    2.4036 C   0  0  0  0  0  0  0  0  0  0  0  0
  -13.4540   -0.1863    2.5965 N   0  0  0  0  0  0  0  0  0  0  0  0
   -6.3466    0.2765    1.6074 C   0  0  0  0  0  0  0  0  0  0  0  0
   -5.9436    1.5967    1.2836 C   0  0  0  0  0  0  0  0  0  0  0  0
   -4.6324    1.8682    0.8568 C   0  0  0  0  0  0  0  0  0  0  0  0
   -3.7642    0.7916    0.6750 C   0  0  0  0  0  0  0  0  0  0  0  0
   -2.4496    0.6760    0.2512 C   0  0  0  0  0  0  0  0  0  0  0  0
   -2.0930   -0.6077    0.4151 C   0  0  0  0  0  0  0  0  0  0  0  0
   -3.1026   -1.3822    0.8755 N   0  0  0  0  0  0  0  0  0  0  0  0
   -4.1400   -0.5075    1.0080 C   0  0  0  0  0  0  0  0  0  0  0  0
   -5.4286   -0.7866    1.4742 C   0  0  0  0  0  0  0  0  0  0  0  0
   -3.0889   -2.8014    1.2290 C   0  0  0  0  0  0  0  0  0  0  0  0
   -2.8535   -2.9806    2.7235 C   0  0  0  0  0  0  0  0  0  0  0  0
   -0.7197   -0.6528    0.4007 C   0  0  0  0  0  0  0  0  0  0  0  0
    0.2127   -1.5988    0.8319 C   0  0  0  0  0  0  0  0  0  0  0  0
    1.5342   -1.2729    0.9476 C   0  0  0  0  0  0  0  0  0  0  0  0
    2.2000   -2.3495    1.3856 N   0  0  0  0  0  0  0  0  0  0  0  0
    1.2700   -3.2900    1.5377 N   0  0  0  0  0  0  0  0  0  0  0  0
    1.5703   -4.6570    1.9426 C   0  0  0  0  0  0  0  0  0  0  0  0
    1.9817   -5.4817    0.7283 C   0  0  0  0  0  0  0  0  0  0  0  0
    0.0490   -2.8748    1.2091 N   0  0  0  0  0  0  0  0  0  0  0  0
    1.9951    0.0006    0.6008 C   0  0  0  0  0  0  0  0  0  0  0  0
    1.0959    0.9630    0.0868 C   0  0  0  0  0  0  0  0  0  0  0  0
   -0.3093    0.6653    0.0852 C   0  0  0  0  0  0  0  0  0  0  0  0
   -1.3980    1.5108    0.0481 N   0  0  0  0  0  0  0  0  0  0  0  0
   -1.4393    2.9694    0.2103 C   0  0  0  0  0  0  0  0  0  0  0  0
   -2.0841    3.6446   -1.0120 C   0  0  0  0  0  0  0  0  0  0  0  0
    1.7850    1.9537   -0.5740 N   0  0  0  0  0  0  0  0  0  0  0  0
    1.3390    2.6511   -1.7863 C   0  0  0  0  0  0  0  0  0  0  0  0
    1.3672    1.7196   -3.0008 C   0  0  0  0  0  0  0  0  0  0  0  0
    3.0888    1.6673   -0.3117 C   0  0  0  0  0  0  0  0  0  0  0  0
    3.2523    0.5222    0.3854 C   0  0  0  0  0  0  0  0  0  0  0  0
    4.4937   -0.0058    0.2401 N   0  0  0  0  0  0  0  0  0  0  0  0
    5.0274   -1.2692    0.7524 C   0  0  0  0  0  0  0  0  0  0  0  0
    4.9234   -2.3683   -0.3012 C   0  0  0  0  0  0  0  0  0  0  0  0
    5.1248    0.8673   -0.5930 C   0  0  0  0  0  0  0  0  0  0  0  0
    4.2837    1.9047   -0.9783 C   0  0  0  0  0  0  0  0  0  0  0  0
    4.6940    2.8708   -1.9027 C   0  0  0  0  0  0  0  0  0  0  0  0
    5.9820    2.7553   -2.4535 C   0  0  0  0  0  0  0  0  0  0  0  0
    6.8233    1.6746   -2.1080 C   0  0  0  0  0  0  0  0  0  0  0  0
    6.4044    0.7367   -1.1421 C   0  0  0  0  0  0  0  0  0  0  0  0
    8.1555    1.5646   -2.7302 C   0  0  0  0  0  0  0  0  0  0  0  0
    8.5868    0.4724   -3.3898 C   0  0  0  0  0  0  0  0  0  0  0  0
    7.7653   -0.6585   -3.8377 C   0  0  0  0  0  0  0  0  0  0  0  0
    6.5762   -0.8978   -3.4966 O   0  0  0  0  0  0  0  0  0  0  0  0
    8.5041   -1.3848   -4.8596 C   0  0  0  0  0  0  0  0  0  0  0  0
    8.0671   -2.4457   -5.6625 C   0  0  0  0  0  0  0  0  0  0  0  0
    6.5138   -3.2275   -5.3652 Cl  0  0  0  0  0  0  0  0  0  0  0  0
    8.8941   -2.8658   -6.7238 C   0  0  0  0  0  0  0  0  0  0  0  0
    8.3985   -4.2269   -7.7340 Cl  0  0  0  0  0  0  0  0  0  0  0  0
   10.0859   -2.1599   -7.0181 C   0  0  0  0  0  0  0  0  0  0  0  0
   11.0537   -2.6203   -8.4221 Cl  0  0  0  0  0  0  0  0  0  0  0  0
   10.4815   -1.0652   -6.2177 C   0  0  0  0  0  0  0  0  0  0  0  0
   11.7300    0.0279   -6.8176 Cl  0  0  0  0  0  0  0  0  0  0  0  0
    9.7265   -0.7622   -5.0653 C   0  0  0  0  0  0  0  0  0  0  0  0
    9.9143    0.3064   -4.0439 C   0  0  0  0  0  0  0  0  0  0  0  0
   11.0979    0.6689   -3.4816 C   0  0  0  0  0  0  0  0  0  0  0  0
   11.1666    1.5271   -2.3257 C   0  0  0  0  0  0  0  0  0  0  0  0
   11.2254    2.2041   -1.3908 N   0  0  0  0  0  0  0  0  0  0  0  0
   12.3420    0.0440   -3.8439 C   0  0  0  0  0  0  0  0  0  0  0  0
   13.3454   -0.4571   -4.1216 N   0  0  0  0  0  0  0  0  0  0  0  0
   -8.1378   -0.9501    1.5081 H   0  0  0  0  0  0  0  0  0  0  0  0
  -12.3416    0.6402    4.7936 H   0  0  0  0  0  0  0  0  0  0  0  0
  -12.4355    2.0946    6.7582 H   0  0  0  0  0  0  0  0  0  0  0  0
   -6.6508    2.4144    1.3500 H   0  0  0  0  0  0  0  0  0  0  0  0
   -4.3387    2.8871    0.6869 H   0  0  0  0  0  0  0  0  0  0  0  0
   -5.7239   -1.8003    1.7185 H   0  0  0  0  0  0  0  0  0  0  0  0
   -2.3156   -3.3349    0.6438 H   0  0  0  0  0  0  0  0  0  0  0  0
   -4.0569   -3.2675    0.9528 H   0  0  0  0  0  0  0  0  0  0  0  0
   -3.6782   -2.5090    3.3003 H   0  0  0  0  0  0  0  0  0  0  0  0
   -1.8924   -2.5123    3.0262 H   0  0  0  0  0  0  0  0  0  0  0  0
   -2.8199   -4.0652    2.9713 H   0  0  0  0  0  0  0  0  0  0  0  0
    2.3993   -4.6512    2.6842 H   0  0  0  0  0  0  0  0  0  0  0  0
    0.6744   -5.1135    2.4198 H   0  0  0  0  0  0  0  0  0  0  0  0
    2.9001   -5.0543    0.2711 H   0  0  0  0  0  0  0  0  0  0  0  0
    2.1917   -6.5266    1.0439 H   0  0  0  0  0  0  0  0  0  0  0  0
    1.1633   -5.4889   -0.0244 H   0  0  0  0  0  0  0  0  0  0  0  0
   -0.4158    3.3698    0.3797 H   0  0  0  0  0  0  0  0  0  0  0  0
   -2.0135    3.2311    1.1261 H   0  0  0  0  0  0  0  0  0  0  0  0
   -1.8214    3.1243   -1.9583 H   0  0  0  0  0  0  0  0  0  0  0  0
   -3.1876    3.6462   -0.9489 H   0  0  0  0  0  0  0  0  0  0  0  0
   -1.7480    4.7012   -1.0731 H   0  0  0  0  0  0  0  0  0  0  0  0
    1.9560    3.5489   -1.9700 H   0  0  0  0  0  0  0  0  0  0  0  0
    0.3241    3.0303   -1.6731 H   0  0  0  0  0  0  0  0  0  0  0  0
    2.3881    1.3017   -3.1479 H   0  0  0  0  0  0  0  0  0  0  0  0
    1.0768    2.2865   -3.9091 H   0  0  0  0  0  0  0  0  0  0  0  0
    0.6500    0.8834   -2.8559 H   0  0  0  0  0  0  0  0  0  0  0  0
    6.0933   -1.1364    1.0363 H   0  0  0  0  0  0  0  0  0  0  0  0
    4.5016   -1.5563    1.6845 H   0  0  0  0  0  0  0  0  0  0  0  0
    5.2249   -3.3424    0.1451 H   0  0  0  0  0  0  0  0  0  0  0  0
    3.8825   -2.4518   -0.6828 H   0  0  0  0  0  0  0  0  0  0  0  0
    5.6049   -2.1493   -1.1473 H   0  0  0  0  0  0  0  0  0  0  0  0
    4.0745    3.7060   -2.1801 H   0  0  0  0  0  0  0  0  0  0  0  0
    6.3137    3.4908   -3.1747 H   0  0  0  0  0  0  0  0  0  0  0  0
    7.0530   -0.0826   -0.8557 H   0  0  0  0  0  0  0  0  0  0  0  0
    8.7720    2.4512   -2.7122 H   0  0  0  0  0  0  0  0  0  0  0  0
  1  2  2  3
  2  3  1  0
  3  4  2  0
  3  5  1  0
  5  6  2  0
  6  7  1  0
  7  8  2  0
  8  9  1  0
  9 10  1  0
  9 11  2  0
 11 12  1  0
  6 13  1  0
 13 14  2  3
 14 15  1  0
 15 16  3  0
 14 17  1  0
 17 18  3  0
  1 19  1  0
 19 20  2  0
 20 21  1  0
 21 22  2  0
 22 23  1  0
 23 24  2  0
 24 25  1  0
 25 26  1  0
 26 27  2  0
 25 28  1  0
 28 29  1  0
 24 30  1  0
 30 31  1  0
 31 32  1  0
 32 33  2  0
 33 34  1  0
 34 35  1  0
 35 36  1  0
 34 37  1  0
 32 38  1  0
 38 39  2  0
 39 40  1  0
 40 41  1  0
 41 42  1  0
 42 43  1  0
 39 44  1  0
 44 45  1  0
 45 46  1  0
 44 47  1  0
 47 48  2  0
 48 49  1  0
 49 50  1  0
 50 51  1  0
 49 52  1  0
 52 53  2  0
 53 54  1  0
 54 55  2  0
 55 56  1  0
 56 57  2  0
 56 58  1  0
 58 59  2  3
 59 60  1  0
 60 61  2  0
 60 62  1  0
 62 63  2  0
 63 64  1  0
 63 65  1  0
 65 66  1  0
 65 67  2  0
 67 68  1  0
 67 69  1  0
 69 70  1  0
 69 71  2  0
 71 72  1  0
 72 73  2  3
 73 74  1  0
 74 75  3  0
 73 76  1  0
 76 77  3  0
 13  2  1  0
 27 19  1  0
 40 30  2  0
 53 47  1  0
 72 59  1  0
 11  5  1  0
 26 22  1  0
 37 31  2  0
 48 38  1  0
 57 52  1  0
 71 62  1  0
 41 23  1  0
  1 78  1  0
  7 79  1  0
  8 80  1  0
 20 81  1  0
 21 82  1  0
 27 83  1  0
 28 84  1  0
 28 85  1  0
 29 86  1  0
 29 87  1  0
 29 88  1  0
 35 89  1  0
 35 90  1  0
 36 91  1  0
 36 92  1  0
 36 93  1  0
 42 94  1  0
 42 95  1  0
 43 96  1  0
 43 97  1  0
 43 98  1  0
 45 99  1  0
 45100  1  0
 46101  1  0
 46102  1  0
 46103  1  0
 50104  1  0
 50105  1  0
 51106  1  0
 51107  1  0
 51108  1  0
 54109  1  0
 55110  1  0
 57111  1  0
 58112  1  0
M  END

