
     RDKit          3D

104115  0  0  0  0  0  0  0  0999 V2000
    6.3962   -5.3799    2.6335 C   0  0  0  0  0  0  0  0  0  0  0  0
    7.4018   -5.0429    3.4673 C   0  0  0  0  0  0  0  0  0  0  0  0
    7.2653   -4.2832    4.7140 C   0  0  0  0  0  0  0  0  0  0  0  0
    6.2364   -4.2331    5.4359 O   0  0  0  0  0  0  0  0  0  0  0  0
    8.5532   -3.6945    5.0405 C   0  0  0  0  0  0  0  0  0  0  0  0
    9.4909   -4.1284    4.1157 C   0  0  0  0  0  0  0  0  0  0  0  0
   10.7792   -3.5763    4.1190 C   0  0  0  0  0  0  0  0  0  0  0  0
   11.1160   -2.6370    5.1062 C   0  0  0  0  0  0  0  0  0  0  0  0
   10.1730   -2.2316    6.0669 C   0  0  0  0  0  0  0  0  0  0  0  0
   10.7020   -0.9377    7.3744 Br  0  0  0  0  0  0  0  0  0  0  0  0
    8.8662   -2.7512    6.0311 C   0  0  0  0  0  0  0  0  0  0  0  0
    7.6512   -2.2154    7.1872 Cl  0  0  0  0  0  0  0  0  0  0  0  0
    8.8644   -5.1058    3.1780 C   0  0  0  0  0  0  0  0  0  0  0  0
    9.5062   -5.9976    2.3777 C   0  0  0  0  0  0  0  0  0  0  0  0
   10.9367   -6.0136    2.2290 C   0  0  0  0  0  0  0  0  0  0  0  0
   12.0845   -6.0252    2.0943 N   0  0  0  0  0  0  0  0  0  0  0  0
    8.8163   -7.0727    1.7171 C   0  0  0  0  0  0  0  0  0  0  0  0
    8.2680   -7.9455    1.1898 N   0  0  0  0  0  0  0  0  0  0  0  0
    5.0019   -4.9318    2.7931 C   0  0  0  0  0  0  0  0  0  0  0  0
    3.6564   -5.8211    2.2237 S   0  0  0  0  0  0  0  0  0  0  0  0
    2.5955   -4.5572    2.5165 C   0  0  0  0  0  0  0  0  0  0  0  0
    1.3720   -4.1453    2.0935 C   0  0  0  0  0  0  0  0  0  0  0  0
    0.1693   -4.7806    1.0920 S   0  0  0  0  0  0  0  0  0  0  0  0
   -0.5326   -3.2373    1.0276 C   0  0  0  0  0  0  0  0  0  0  0  0
   -1.5633   -2.6697    0.3499 C   0  0  0  0  0  0  0  0  0  0  0  0
   -2.3967   -3.2487   -0.6066 C   0  0  0  0  0  0  0  0  0  0  0  0
   -3.2975   -2.4191   -1.3131 C   0  0  0  0  0  0  0  0  0  0  0  0
   -4.0794   -3.0104   -2.2511 N   0  0  0  0  0  0  0  0  0  0  0  0
   -3.5439   -4.5728   -2.1154 S   0  0  0  0  0  0  0  0  0  0  0  0
   -2.3768   -4.5648   -0.9415 N   0  0  0  0  0  0  0  0  0  0  0  0
   -3.3525   -1.0664   -0.9917 C   0  0  0  0  0  0  0  0  0  0  0  0
   -4.1603   -0.1018   -1.4976 C   0  0  0  0  0  0  0  0  0  0  0  0
   -5.2571    0.0640   -2.7457 S   0  0  0  0  0  0  0  0  0  0  0  0
   -5.5343    1.6956   -2.3665 C   0  0  0  0  0  0  0  0  0  0  0  0
   -4.8049    2.0904   -1.2199 C   0  0  0  0  0  0  0  0  0  0  0  0
   -5.1428    3.3681   -0.4827 C   0  0  0  0  0  0  0  0  0  0  0  0
   -6.2643    3.1242    0.5237 C   0  0  0  0  0  0  0  0  0  0  0  0
   -3.9759    1.0214   -0.7920 C   0  0  0  0  0  0  0  0  0  0  0  0
   -3.0073    0.8581    0.1624 N   0  0  0  0  0  0  0  0  0  0  0  0
   -2.5711   -0.4573    0.0154 C   0  0  0  0  0  0  0  0  0  0  0  0
   -1.5586   -1.2919    0.6634 C   0  0  0  0  0  0  0  0  0  0  0  0
   -0.4635   -1.0387    1.4852 N   0  0  0  0  0  0  0  0  0  0  0  0
    0.1390   -2.2541    1.6808 C   0  0  0  0  0  0  0  0  0  0  0  0
    1.3042   -2.7805    2.3029 C   0  0  0  0  0  0  0  0  0  0  0  0
    2.4854   -2.3217    2.8464 N   0  0  0  0  0  0  0  0  0  0  0  0
    3.2385   -3.4530    2.9530 C   0  0  0  0  0  0  0  0  0  0  0  0
    4.6148   -3.6170    3.1114 C   0  0  0  0  0  0  0  0  0  0  0  0
    3.0525   -0.9795    2.9977 C   0  0  0  0  0  0  0  0  0  0  0  0
    3.6542   -0.4912    1.6811 C   0  0  0  0  0  0  0  0  0  0  0  0
    0.0454    0.2131    2.0127 C   0  0  0  0  0  0  0  0  0  0  0  0
   -0.2880    0.3520    3.5009 C   0  0  0  0  0  0  0  0  0  0  0  0
   -2.6350    1.9008    1.1170 C   0  0  0  0  0  0  0  0  0  0  0  0
   -1.6714    2.9109    0.4688 C   0  0  0  0  0  0  0  0  0  0  0  0
   -6.3402    2.5816   -3.2218 C   0  0  0  0  0  0  0  0  0  0  0  0
   -5.8058    3.6203   -3.8975 C   0  0  0  0  0  0  0  0  0  0  0  0
   -4.3677    3.8832   -4.0552 C   0  0  0  0  0  0  0  0  0  0  0  0
   -3.4277    3.3476   -3.4136 O   0  0  0  0  0  0  0  0  0  0  0  0
   -4.1920    4.8409   -5.1208 C   0  0  0  0  0  0  0  0  0  0  0  0
   -2.9928    5.3238   -5.6407 C   0  0  0  0  0  0  0  0  0  0  0  0
   -3.0300    6.2320   -6.7168 C   0  0  0  0  0  0  0  0  0  0  0  0
   -1.7710    6.7515   -7.2968 C   0  0  0  0  0  0  0  0  0  0  0  0
   -0.6579    6.3616   -6.8404 O   0  0  0  0  0  0  0  0  0  0  0  0
   -1.8119    7.6674   -8.3589 O   0  0  0  0  0  0  0  0  0  0  0  0
   -0.6314    8.1684   -8.9778 C   0  0  0  0  0  0  0  0  0  0  0  0
   -4.2836    6.6234   -7.2409 C   0  0  0  0  0  0  0  0  0  0  0  0
   -5.4800    6.1135   -6.7040 C   0  0  0  0  0  0  0  0  0  0  0  0
   -5.4237    5.2197   -5.6219 C   0  0  0  0  0  0  0  0  0  0  0  0
   -6.5062    4.5491   -4.8375 C   0  0  0  0  0  0  0  0  0  0  0  0
   -7.8244    4.8773   -4.8130 C   0  0  0  0  0  0  0  0  0  0  0  0
   -8.4159    5.8030   -5.7422 C   0  0  0  0  0  0  0  0  0  0  0  0
   -8.9134    6.5458   -6.4783 N   0  0  0  0  0  0  0  0  0  0  0  0
   -8.6985    4.4264   -3.7586 C   0  0  0  0  0  0  0  0  0  0  0  0
   -9.3913    4.0757   -2.9018 N   0  0  0  0  0  0  0  0  0  0  0  0
    6.6016   -5.9056    1.7170 H   0  0  0  0  0  0  0  0  0  0  0  0
   11.5111   -3.8175    3.3690 H   0  0  0  0  0  0  0  0  0  0  0  0
   12.1096   -2.2057    5.1086 H   0  0  0  0  0  0  0  0  0  0  0  0
   -5.4886    4.1421   -1.1980 H   0  0  0  0  0  0  0  0  0  0  0  0
   -4.2840    3.8209    0.0268 H   0  0  0  0  0  0  0  0  0  0  0  0
   -6.4765    4.0620    1.0798 H   0  0  0  0  0  0  0  0  0  0  0  0
   -5.9723    2.3368    1.2499 H   0  0  0  0  0  0  0  0  0  0  0  0
   -7.1904    2.8080   -0.0010 H   0  0  0  0  0  0  0  0  0  0  0  0
    5.3079   -2.8145    3.3305 H   0  0  0  0  0  0  0  0  0  0  0  0
    2.3282   -0.2759    3.4289 H   0  0  0  0  0  0  0  0  0  0  0  0
    3.8628   -1.0024    3.7561 H   0  0  0  0  0  0  0  0  0  0  0  0
    3.9144    0.5843    1.7618 H   0  0  0  0  0  0  0  0  0  0  0  0
    4.5779   -1.0644    1.4526 H   0  0  0  0  0  0  0  0  0  0  0  0
    2.9435   -0.6375    0.8410 H   0  0  0  0  0  0  0  0  0  0  0  0
    1.1184    0.2871    1.8254 H   0  0  0  0  0  0  0  0  0  0  0  0
   -0.2961    1.0462    1.4260 H   0  0  0  0  0  0  0  0  0  0  0  0
    0.0636    1.3360    3.8720 H   0  0  0  0  0  0  0  0  0  0  0  0
    0.1959   -0.4572    4.0880 H   0  0  0  0  0  0  0  0  0  0  0  0
   -1.3783    0.2666    3.6738 H   0  0  0  0  0  0  0  0  0  0  0  0
   -3.5384    2.4241    1.4860 H   0  0  0  0  0  0  0  0  0  0  0  0
   -2.2516    1.4602    2.0423 H   0  0  0  0  0  0  0  0  0  0  0  0
   -0.8869    2.3986   -0.1261 H   0  0  0  0  0  0  0  0  0  0  0  0
   -1.1978    3.5359    1.2547 H   0  0  0  0  0  0  0  0  0  0  0  0
   -2.1873    3.5778   -0.2455 H   0  0  0  0  0  0  0  0  0  0  0  0
   -7.3673    2.2943   -3.3845 H   0  0  0  0  0  0  0  0  0  0  0  0
   -2.0527    4.9923   -5.2166 H   0  0  0  0  0  0  0  0  0  0  0  0
   -0.0055    8.7038   -8.2299 H   0  0  0  0  0  0  0  0  0  0  0  0
   -0.9136    8.8798   -9.7816 H   0  0  0  0  0  0  0  0  0  0  0  0
   -0.0511    7.3293   -9.4160 H   0  0  0  0  0  0  0  0  0  0  0  0
   -4.3388    7.3112   -8.0748 H   0  0  0  0  0  0  0  0  0  0  0  0
   -6.4092    6.4078   -7.1572 H   0  0  0  0  0  0  0  0  0  0  0  0
  1  2  2  3
  2  3  1  0
  3  4  2  0
  3  5  1  0
  5  6  2  0
  6  7  1  0
  7  8  2  0
  8  9  1  0
  9 10  1  0
  9 11  2  0
 11 12  1  0
  6 13  1  0
 13 14  2  3
 14 15  1  0
 15 16  3  0
 14 17  1  0
 17 18  3  0
  1 19  1  0
 19 20  1  0
 20 21  1  0
 21 22  1  0
 22 23  1  0
 23 24  1  0
 24 25  1  0
 25 26  1  0
 26 27  1  0
 27 28  2  0
 28 29  1  0
 29 30  1  0
 27 31  1  0
 31 32  1  0
 32 33  1  0
 33 34  1  0
 34 35  2  0
 35 36  1  0
 36 37  1  0
 35 38  1  0
 38 39  1  0
 39 40  1  0
 40 41  1  0
 41 42  1  0
 42 43  1  0
 43 44  1  0
 44 45  1  0
 45 46  1  0
 46 47  1  0
 45 48  1  0
 48 49  1  0
 42 50  1  0
 50 51  1  0
 39 52  1  0
 52 53  1  0
 34 54  1  0
 54 55  2  3
 55 56  1  0
 56 57  2  0
 56 58  1  0
 58 59  2  0
 59 60  1  0
 60 61  1  0
 61 62  2  0
 61 63  1  0
 63 64  1  0
 60 65  2  0
 65 66  1  0
 66 67  2  0
 67 68  1  0
 68 69  2  3
 69 70  1  0
 70 71  3  0
 69 72  1  0
 72 73  3  0
 13  2  1  0
 47 19  2  0
 68 55  1  0
 11  5  1  0
 46 21  2  0
 67 58  1  0
 44 22  2  0
 43 24  2  0
 41 25  2  0
 30 26  2  0
 40 31  2  0
 38 32  2  0
  1 74  1  0
  7 75  1  0
  8 76  1  0
 36 77  1  0
 36 78  1  0
 37 79  1  0
 37 80  1  0
 37 81  1  0
 47 82  1  0
 48 83  1  0
 48 84  1  0
 49 85  1  0
 49 86  1  0
 49 87  1  0
 50 88  1  0
 50 89  1  0
 51 90  1  0
 51 91  1  0
 51 92  1  0
 52 93  1  0
 52 94  1  0
 53 95  1  0
 53 96  1  0
 53 97  1  0
 54 98  1  0
 59 99  1  0
 64100  1  0
 64101  1  0
 64102  1  0
 65103  1  0
 66104  1  0
M  END

