
     RDKit          3D

136147  0  0  0  0  0  0  0  0999 V2000
   -0.3427    3.5111   -5.3385 C   0  0  0  0  0  0  0  0  0  0  0  0
   -1.4056    4.1558   -5.8543 C   0  0  0  0  0  0  0  0  0  0  0  0
   -2.8120    3.8136   -5.6146 C   0  0  0  0  0  0  0  0  0  0  0  0
   -3.2427    3.0250   -4.7311 O   0  0  0  0  0  0  0  0  0  0  0  0
   -3.6346    4.5373   -6.5674 C   0  0  0  0  0  0  0  0  0  0  0  0
   -2.8158    5.3383   -7.3522 C   0  0  0  0  0  0  0  0  0  0  0  0
   -3.3649    6.0481   -8.4317 C   0  0  0  0  0  0  0  0  0  0  0  0
   -4.7487    5.9963   -8.6491 C   0  0  0  0  0  0  0  0  0  0  0  0
   -5.5798    5.2290   -7.8148 C   0  0  0  0  0  0  0  0  0  0  0  0
   -7.4656    5.2294   -8.1579 Br  0  0  0  0  0  0  0  0  0  0  0  0
   -5.0214    4.4721   -6.7661 C   0  0  0  0  0  0  0  0  0  0  0  0
   -6.0376    3.4695   -5.7360 Cl  0  0  0  0  0  0  0  0  0  0  0  0
   -1.4023    5.2419   -6.8823 C   0  0  0  0  0  0  0  0  0  0  0  0
   -0.3961    6.1163   -7.1543 C   0  0  0  0  0  0  0  0  0  0  0  0
   -0.5511    7.2234   -8.0626 C   0  0  0  0  0  0  0  0  0  0  0  0
   -0.6659    8.1176   -8.7880 N   0  0  0  0  0  0  0  0  0  0  0  0
    0.8572    6.1017   -6.4466 C   0  0  0  0  0  0  0  0  0  0  0  0
    1.8674    6.1031   -5.8800 N   0  0  0  0  0  0  0  0  0  0  0  0
   -0.4574    2.3897   -4.3991 C   0  0  0  0  0  0  0  0  0  0  0  0
   -0.0771    2.4620   -3.1320 O   0  0  0  0  0  0  0  0  0  0  0  0
   -0.2994    1.2754   -2.6348 C   0  0  0  0  0  0  0  0  0  0  0  0
   -0.0879    0.6238   -1.3763 C   0  0  0  0  0  0  0  0  0  0  0  0
   -0.4585   -0.7169   -1.5637 C   0  0  0  0  0  0  0  0  0  0  0  0
   -0.9991   -0.9683   -2.9790 C   0  0  0  0  0  0  0  0  0  0  0  0
   -2.4740   -1.3808   -2.8743 C   0  0  0  0  0  0  0  0  0  0  0  0
   -3.5274   -0.4514   -3.0170 C   0  0  0  0  0  0  0  0  0  0  0  0
   -4.8588   -0.8572   -2.8985 C   0  0  0  0  0  0  0  0  0  0  0  0
   -5.1721   -2.1941   -2.6237 C   0  0  0  0  0  0  0  0  0  0  0  0
   -6.6075   -2.6198   -2.4612 C   0  0  0  0  0  0  0  0  0  0  0  0
   -7.0790   -2.3874   -1.0288 C   0  0  0  0  0  0  0  0  0  0  0  0
   -4.1333   -3.1167   -2.4314 C   0  0  0  0  0  0  0  0  0  0  0  0
   -2.8018   -2.7129   -2.5532 C   0  0  0  0  0  0  0  0  0  0  0  0
   -0.1581   -1.9527   -3.8004 C   0  0  0  0  0  0  0  0  0  0  0  0
   -0.6928   -2.5219   -4.9751 C   0  0  0  0  0  0  0  0  0  0  0  0
    0.0450   -3.4404   -5.7245 C   0  0  0  0  0  0  0  0  0  0  0  0
    1.3443   -3.7912   -5.3355 C   0  0  0  0  0  0  0  0  0  0  0  0
    2.1360   -4.7827   -6.1444 C   0  0  0  0  0  0  0  0  0  0  0  0
    2.8462   -4.0899   -7.3035 C   0  0  0  0  0  0  0  0  0  0  0  0
    1.9174   -3.1678   -4.2185 C   0  0  0  0  0  0  0  0  0  0  0  0
    1.1797   -2.2509   -3.4651 C   0  0  0  0  0  0  0  0  0  0  0  0
   -0.7997    0.4205   -3.5331 C   0  0  0  0  0  0  0  0  0  0  0  0
   -0.9224    1.1057   -4.7191 C   0  0  0  0  0  0  0  0  0  0  0  0
   -0.2312   -1.6593   -0.5485 C   0  0  0  0  0  0  0  0  0  0  0  0
    0.3562   -1.1859    0.6278 C   0  0  0  0  0  0  0  0  0  0  0  0
    0.8589   -1.8987    1.7642 C   0  0  0  0  0  0  0  0  0  0  0  0
    1.4349   -1.0583    2.6301 C   0  0  0  0  0  0  0  0  0  0  0  0
    1.3984    0.3814    2.1766 C   0  0  0  0  0  0  0  0  0  0  0  0
    0.6873    0.1634    0.8320 C   0  0  0  0  0  0  0  0  0  0  0  0
    0.4786    1.1017   -0.1917 C   0  0  0  0  0  0  0  0  0  0  0  0
    0.5931    1.1769    3.2055 C   0  0  0  0  0  0  0  0  0  0  0  0
   -0.7268    1.6150    2.9673 C   0  0  0  0  0  0  0  0  0  0  0  0
   -1.4327    2.3132    3.9513 C   0  0  0  0  0  0  0  0  0  0  0  0
   -0.8477    2.5702    5.1998 C   0  0  0  0  0  0  0  0  0  0  0  0
   -1.5991    3.3452    6.2497 C   0  0  0  0  0  0  0  0  0  0  0  0
   -1.2977    4.8363    6.1373 C   0  0  0  0  0  0  0  0  0  0  0  0
    0.4611    2.1368    5.4451 C   0  0  0  0  0  0  0  0  0  0  0  0
    1.1699    1.4422    4.4638 C   0  0  0  0  0  0  0  0  0  0  0  0
    2.7822    0.9843    1.9139 C   0  0  0  0  0  0  0  0  0  0  0  0
    2.9252    2.3835    1.8214 C   0  0  0  0  0  0  0  0  0  0  0  0
    4.1466    2.9574    1.4649 C   0  0  0  0  0  0  0  0  0  0  0  0
    5.2544    2.1487    1.1815 C   0  0  0  0  0  0  0  0  0  0  0  0
    6.5468    2.7726    0.7275 C   0  0  0  0  0  0  0  0  0  0  0  0
    6.4839    3.1176   -0.7593 C   0  0  0  0  0  0  0  0  0  0  0  0
    5.1211    0.7554    1.2496 C   0  0  0  0  0  0  0  0  0  0  0  0
    3.8976    0.1769    1.6061 C   0  0  0  0  0  0  0  0  0  0  0  0
    1.9115   -1.8191    3.6698 C   0  0  0  0  0  0  0  0  0  0  0  0
    1.5614   -3.1275    3.3036 C   0  0  0  0  0  0  0  0  0  0  0  0
    0.9333   -3.1481    2.1374 O   0  0  0  0  0  0  0  0  0  0  0  0
    1.8867   -4.3400    4.0681 C   0  0  0  0  0  0  0  0  0  0  0  0
    1.6866   -4.4771    5.4006 C   0  0  0  0  0  0  0  0  0  0  0  0
    0.7724   -3.5726    6.1576 C   0  0  0  0  0  0  0  0  0  0  0  0
   -0.0738   -2.8680    5.5447 O   0  0  0  0  0  0  0  0  0  0  0  0
    0.7850   -3.5737    7.6014 N   0  0  0  0  0  0  0  0  0  0  0  0
   -0.2302   -2.8149    8.3484 C   0  0  0  0  0  0  0  0  0  0  0  0
   -1.4937   -3.6503    8.5285 C   0  0  0  0  0  0  0  0  0  0  0  0
    1.7006   -4.4361    8.3069 C   0  0  0  0  0  0  0  0  0  0  0  0
    1.6239   -4.5665    9.5602 O   0  0  0  0  0  0  0  0  0  0  0  0
    2.7868   -5.1588    7.5641 C   0  0  0  0  0  0  0  0  0  0  0  0
    3.9484   -4.2625    7.4306 C   0  0  0  0  0  0  0  0  0  0  0  0
    4.8669   -3.5614    7.3369 N   0  0  0  0  0  0  0  0  0  0  0  0
    2.2691   -5.6481    6.1914 C   0  0  0  0  0  0  0  0  0  0  0  0
    3.3632   -6.4593    5.4616 C   0  0  0  0  0  0  0  0  0  0  0  0
    0.6604    3.7620   -5.6317 H   0  0  0  0  0  0  0  0  0  0  0  0
   -2.7588    6.6030   -9.1250 H   0  0  0  0  0  0  0  0  0  0  0  0
   -5.1775    6.5453   -9.4775 H   0  0  0  0  0  0  0  0  0  0  0  0
   -3.3354    0.5943   -3.2130 H   0  0  0  0  0  0  0  0  0  0  0  0
   -5.6483   -0.1250   -3.0157 H   0  0  0  0  0  0  0  0  0  0  0  0
   -6.7225   -3.6983   -2.7110 H   0  0  0  0  0  0  0  0  0  0  0  0
   -7.2534   -2.0439   -3.1593 H   0  0  0  0  0  0  0  0  0  0  0  0
   -6.9730   -1.3151   -0.7560 H   0  0  0  0  0  0  0  0  0  0  0  0
   -6.4823   -3.0044   -0.3228 H   0  0  0  0  0  0  0  0  0  0  0  0
   -8.1478   -2.6742   -0.9402 H   0  0  0  0  0  0  0  0  0  0  0  0
   -4.3557   -4.1481   -2.1908 H   0  0  0  0  0  0  0  0  0  0  0  0
   -2.0222   -3.4486   -2.4050 H   0  0  0  0  0  0  0  0  0  0  0  0
   -1.6918   -2.2643   -5.3040 H   0  0  0  0  0  0  0  0  0  0  0  0
   -0.4004   -3.8815   -6.6071 H   0  0  0  0  0  0  0  0  0  0  0  0
    1.4622   -5.5728   -6.5444 H   0  0  0  0  0  0  0  0  0  0  0  0
    2.8909   -5.2866   -5.5013 H   0  0  0  0  0  0  0  0  0  0  0  0
    3.4237   -4.8386   -7.8847 H   0  0  0  0  0  0  0  0  0  0  0  0
    3.5454   -3.3160   -6.9188 H   0  0  0  0  0  0  0  0  0  0  0  0
    2.1035   -3.6121   -7.9779 H   0  0  0  0  0  0  0  0  0  0  0  0
    2.9343   -3.3961   -3.9269 H   0  0  0  0  0  0  0  0  0  0  0  0
    1.6627   -1.7828   -2.6174 H   0  0  0  0  0  0  0  0  0  0  0  0
   -1.2743    0.7337   -5.6714 H   0  0  0  0  0  0  0  0  0  0  0  0
   -0.4426   -2.7107   -0.6895 H   0  0  0  0  0  0  0  0  0  0  0  0
    0.7796    2.1358   -0.0885 H   0  0  0  0  0  0  0  0  0  0  0  0
   -1.2219    1.4232    2.0262 H   0  0  0  0  0  0  0  0  0  0  0  0
   -2.4405    2.6499    3.7429 H   0  0  0  0  0  0  0  0  0  0  0  0
   -1.3137    2.9866    7.2629 H   0  0  0  0  0  0  0  0  0  0  0  0
   -2.6944    3.1862    6.1376 H   0  0  0  0  0  0  0  0  0  0  0  0
   -1.8615    5.3898    6.9175 H   0  0  0  0  0  0  0  0  0  0  0  0
   -1.6012    5.2193    5.1402 H   0  0  0  0  0  0  0  0  0  0  0  0
   -0.2108    5.0236    6.2834 H   0  0  0  0  0  0  0  0  0  0  0  0
    0.9340    2.3347    6.4012 H   0  0  0  0  0  0  0  0  0  0  0  0
    2.1764    1.1107    4.6837 H   0  0  0  0  0  0  0  0  0  0  0  0
    2.0804    3.0380    1.9938 H   0  0  0  0  0  0  0  0  0  0  0  0
    4.2219    4.0349    1.3880 H   0  0  0  0  0  0  0  0  0  0  0  0
    7.3973    2.0786    0.9049 H   0  0  0  0  0  0  0  0  0  0  0  0
    6.7443    3.6984    1.3119 H   0  0  0  0  0  0  0  0  0  0  0  0
    7.4473    3.5678   -1.0772 H   0  0  0  0  0  0  0  0  0  0  0  0
    5.6698    3.8515   -0.9505 H   0  0  0  0  0  0  0  0  0  0  0  0
    6.3005    2.2015   -1.3609 H   0  0  0  0  0  0  0  0  0  0  0  0
    5.9597    0.1134    1.0108 H   0  0  0  0  0  0  0  0  0  0  0  0
    3.8267   -0.9021    1.6138 H   0  0  0  0  0  0  0  0  0  0  0  0
    2.4516   -1.4891    4.5461 H   0  0  0  0  0  0  0  0  0  0  0  0
    2.3599   -5.1251    3.4963 H   0  0  0  0  0  0  0  0  0  0  0  0
   -0.4813   -1.8725    7.8159 H   0  0  0  0  0  0  0  0  0  0  0  0
    0.1632   -2.5205    9.3448 H   0  0  0  0  0  0  0  0  0  0  0  0
   -2.2162   -3.1024    9.1700 H   0  0  0  0  0  0  0  0  0  0  0  0
   -1.9681   -3.8424    7.5399 H   0  0  0  0  0  0  0  0  0  0  0  0
   -1.2526   -4.6227    9.0098 H   0  0  0  0  0  0  0  0  0  0  0  0
    3.1015   -6.0392    8.1653 H   0  0  0  0  0  0  0  0  0  0  0  0
    1.4315   -6.3540    6.3850 H   0  0  0  0  0  0  0  0  0  0  0  0
    3.8281   -7.1922    6.1533 H   0  0  0  0  0  0  0  0  0  0  0  0
    2.9222   -7.0366    4.6228 H   0  0  0  0  0  0  0  0  0  0  0  0
    4.1585   -5.7929    5.0692 H   0  0  0  0  0  0  0  0  0  0  0  0
  1  2  2  3
  2  3  1  0
  3  4  2  0
  3  5  1  0
  5  6  2  0
  6  7  1  0
  7  8  2  0
  8  9  1  0
  9 10  1  0
  9 11  2  0
 11 12  1  0
  6 13  1  0
 13 14  2  3
 14 15  1  0
 15 16  3  0
 14 17  1  0
 17 18  3  0
  1 19  1  0
 19 20  1  0
 20 21  1  0
 21 22  1  0
 22 23  2  0
 23 24  1  0
 24 25  1  0
 25 26  2  0
 26 27  1  0
 27 28  2  0
 28 29  1  0
 29 30  1  0
 28 31  1  0
 31 32  2  0
 24 33  1  0
 33 34  2  0
 34 35  1  0
 35 36  2  0
 36 37  1  0
 37 38  1  0
 36 39  1  0
 39 40  2  0
 24 41  1  0
 41 42  1  0
 23 43  1  0
 43 44  2  0
 44 45  1  0
 45 46  2  0
 46 47  1  0
 47 48  1  0
 48 49  2  0
 47 50  1  0
 50 51  2  0
 51 52  1  0
 52 53  2  0
 53 54  1  0
 54 55  1  0
 53 56  1  0
 56 57  2  0
 47 58  1  0
 58 59  2  0
 59 60  1  0
 60 61  2  0
 61 62  1  0
 62 63  1  0
 61 64  1  0
 64 65  2  0
 46 66  1  0
 66 67  2  0
 67 68  1  0
 67 69  1  0
 69 70  2  3
 70 71  1  0
 71 72  2  0
 71 73  1  0
 73 74  1  0
 74 75  1  0
 73 76  1  0
 76 77  2  0
 76 78  1  0
 78 79  1  0
 79 80  3  0
 78 81  1  0
 81 82  1  0
 13  2  1  0
 42 19  2  0
 48 44  1  0
 57 50  1  0
 65 58  1  0
 81 70  1  0
 11  5  1  0
 41 21  2  0
 68 45  1  0
 49 22  1  0
 32 25  1  0
 40 33  1  0
  1 83  1  0
  7 84  1  0
  8 85  1  0
 26 86  1  0
 27 87  1  0
 29 88  1  0
 29 89  1  0
 30 90  1  0
 30 91  1  0
 30 92  1  0
 31 93  1  0
 32 94  1  0
 34 95  1  0
 35 96  1  0
 37 97  1  0
 37 98  1  0
 38 99  1  0
 38100  1  0
 38101  1  0
 39102  1  0
 40103  1  0
 42104  1  0
 43105  1  0
 49106  1  0
 51107  1  0
 52108  1  0
 54109  1  0
 54110  1  0
 55111  1  0
 55112  1  0
 55113  1  0
 56114  1  0
 57115  1  0
 59116  1  0
 60117  1  0
 62118  1  0
 62119  1  0
 63120  1  0
 63121  1  0
 63122  1  0
 64123  1  0
 65124  1  0
 66125  1  0
 69126  1  0
 74127  1  0
 74128  1  0
 75129  1  0
 75130  1  0
 75131  1  0
 78132  1  0
 81133  1  0
 82134  1  0
 82135  1  0
 82136  1  0
M  END

