
     RDKit          3D

 94105  0  0  0  0  0  0  0  0999 V2000
   -2.3782    5.6570   -3.6283 C   0  0  0  0  0  0  0  0  0  0  0  0
   -2.3104    6.4959   -2.5661 C   0  0  0  0  0  0  0  0  0  0  0  0
   -2.6589    6.1496   -1.1864 C   0  0  0  0  0  0  0  0  0  0  0  0
   -3.5043    5.2806   -0.8382 O   0  0  0  0  0  0  0  0  0  0  0  0
   -1.9068    7.0073   -0.2817 C   0  0  0  0  0  0  0  0  0  0  0  0
   -1.2072    7.9356   -1.0322 C   0  0  0  0  0  0  0  0  0  0  0  0
   -0.2933    8.8010   -0.3962 C   0  0  0  0  0  0  0  0  0  0  0  0
   -0.1610    8.7415    0.9953 C   0  0  0  0  0  0  0  0  0  0  0  0
   -0.9097    7.8258    1.7564 C   0  0  0  0  0  0  0  0  0  0  0  0
   -0.6592    7.7853    3.6562 Br  0  0  0  0  0  0  0  0  0  0  0  0
   -1.7972    6.9330    1.1127 C   0  0  0  0  0  0  0  0  0  0  0  0
   -2.7336    5.7587    2.0350 Cl  0  0  0  0  0  0  0  0  0  0  0  0
   -1.5201    7.7602   -2.4791 C   0  0  0  0  0  0  0  0  0  0  0  0
   -1.2806    8.6442   -3.4785 C   0  0  0  0  0  0  0  0  0  0  0  0
   -0.5892    9.8909   -3.2764 C   0  0  0  0  0  0  0  0  0  0  0  0
   -0.0418   10.9049   -3.1312 N   0  0  0  0  0  0  0  0  0  0  0  0
   -1.8732    8.4904   -4.7914 C   0  0  0  0  0  0  0  0  0  0  0  0
   -2.3558    8.3962   -5.8434 N   0  0  0  0  0  0  0  0  0  0  0  0
   -2.5717    4.2031   -3.4764 C   0  0  0  0  0  0  0  0  0  0  0  0
   -3.4272    3.3466   -4.2221 C   0  0  0  0  0  0  0  0  0  0  0  0
   -4.6006    3.7598   -5.0841 C   0  0  0  0  0  0  0  0  0  0  0  0
   -4.2960    4.8059   -6.1743 C   0  0  0  0  0  0  0  0  0  0  0  0
   -3.2776    2.0342   -3.7644 C   0  0  0  0  0  0  0  0  0  0  0  0
   -3.8691    0.5177   -4.3037 S   0  0  0  0  0  0  0  0  0  0  0  0
   -2.9991   -0.2954   -3.0818 C   0  0  0  0  0  0  0  0  0  0  0  0
   -2.7552   -1.5562   -2.6127 C   0  0  0  0  0  0  0  0  0  0  0  0
   -3.1976   -2.8110   -3.0371 C   0  0  0  0  0  0  0  0  0  0  0  0
   -2.8013   -3.9591   -2.2977 C   0  0  0  0  0  0  0  0  0  0  0  0
   -3.2931   -5.1532   -2.7102 N   0  0  0  0  0  0  0  0  0  0  0  0
   -4.2340   -4.6601   -3.9787 S   0  0  0  0  0  0  0  0  0  0  0  0
   -4.0441   -3.0173   -4.0810 N   0  0  0  0  0  0  0  0  0  0  0  0
   -1.9448   -3.7900   -1.1986 C   0  0  0  0  0  0  0  0  0  0  0  0
   -1.2460   -4.7133   -0.4736 C   0  0  0  0  0  0  0  0  0  0  0  0
   -0.7266   -6.3171   -0.7053 S   0  0  0  0  0  0  0  0  0  0  0  0
    0.5813   -6.1073    0.3700 C   0  0  0  0  0  0  0  0  0  0  0  0
    1.6459   -6.9288    0.7873 C   0  0  0  0  0  0  0  0  0  0  0  0
    1.9100   -8.3108    0.2648 C   0  0  0  0  0  0  0  0  0  0  0  0
    2.8629   -8.2661   -0.9305 C   0  0  0  0  0  0  0  0  0  0  0  0
    2.5098   -6.2162    1.6398 C   0  0  0  0  0  0  0  0  0  0  0  0
    1.9652   -4.6100    1.7967 S   0  0  0  0  0  0  0  0  0  0  0  0
    0.6202   -4.8224    0.8242 C   0  0  0  0  0  0  0  0  0  0  0  0
   -0.3988   -4.0188    0.3333 C   0  0  0  0  0  0  0  0  0  0  0  0
   -0.4814   -2.6646    0.1634 N   0  0  0  0  0  0  0  0  0  0  0  0
   -1.4955   -2.5328   -0.7684 C   0  0  0  0  0  0  0  0  0  0  0  0
   -1.9438   -1.3813   -1.4749 C   0  0  0  0  0  0  0  0  0  0  0  0
   -1.7632   -0.0541   -1.1938 N   0  0  0  0  0  0  0  0  0  0  0  0
   -2.3375    0.5616   -2.2656 C   0  0  0  0  0  0  0  0  0  0  0  0
   -2.4228    1.8707   -2.7016 C   0  0  0  0  0  0  0  0  0  0  0  0
   -1.6690    3.3133   -2.3409 S   0  0  0  0  0  0  0  0  0  0  0  0
   -1.6298    0.5167    0.1615 C   0  0  0  0  0  0  0  0  0  0  0  0
   -2.6490    1.6141    0.5046 C   0  0  0  0  0  0  0  0  0  0  0  0
    0.6547   -1.7617    0.3722 C   0  0  0  0  0  0  0  0  0  0  0  0
    0.7482   -1.3325    1.8288 C   0  0  0  0  0  0  0  0  0  0  0  0
    3.7690   -6.6660    2.2343 C   0  0  0  0  0  0  0  0  0  0  0  0
    3.9387   -6.6493    3.5628 C   0  0  0  0  0  0  0  0  0  0  0  0
    2.8373   -6.6680    4.5540 C   0  0  0  0  0  0  0  0  0  0  0  0
    1.6412   -7.0065    4.3295 O   0  0  0  0  0  0  0  0  0  0  0  0
    3.3997   -6.3448    5.8422 C   0  0  0  0  0  0  0  0  0  0  0  0
    2.8586   -6.1110    7.1032 C   0  0  0  0  0  0  0  0  0  0  0  0
    3.8495   -5.6746    7.9950 C   0  0  0  0  0  0  0  0  0  0  0  0
    5.3495   -5.5960    7.1883 S   0  0  0  0  0  0  0  0  0  0  0  0
    4.7271   -6.1573    5.7236 C   0  0  0  0  0  0  0  0  0  0  0  0
    5.1977   -6.3340    4.3374 C   0  0  0  0  0  0  0  0  0  0  0  0
    6.4718   -6.1431    3.9170 C   0  0  0  0  0  0  0  0  0  0  0  0
    7.5086   -5.7689    4.8505 C   0  0  0  0  0  0  0  0  0  0  0  0
    8.3434   -5.4574    5.5905 N   0  0  0  0  0  0  0  0  0  0  0  0
    6.8639   -6.2553    2.5428 C   0  0  0  0  0  0  0  0  0  0  0  0
    7.2135   -6.3270    1.4365 N   0  0  0  0  0  0  0  0  0  0  0  0
   -2.0089    5.9778   -4.5923 H   0  0  0  0  0  0  0  0  0  0  0  0
    0.3316    9.4870   -0.9495 H   0  0  0  0  0  0  0  0  0  0  0  0
    0.5447    9.3955    1.4931 H   0  0  0  0  0  0  0  0  0  0  0  0
   -5.3928    4.1679   -4.4162 H   0  0  0  0  0  0  0  0  0  0  0  0
   -4.9921    2.8738   -5.6059 H   0  0  0  0  0  0  0  0  0  0  0  0
   -3.5856    4.4019   -6.9438 H   0  0  0  0  0  0  0  0  0  0  0  0
   -5.2415    5.0900   -6.6666 H   0  0  0  0  0  0  0  0  0  0  0  0
   -3.8911    5.7365   -5.7537 H   0  0  0  0  0  0  0  0  0  0  0  0
    0.9675   -8.8090   -0.0339 H   0  0  0  0  0  0  0  0  0  0  0  0
    2.3634   -8.9093    1.0757 H   0  0  0  0  0  0  0  0  0  0  0  0
    3.5955   -7.4333   -0.8178 H   0  0  0  0  0  0  0  0  0  0  0  0
    3.4406   -9.2112   -1.0045 H   0  0  0  0  0  0  0  0  0  0  0  0
    2.2901   -8.0826   -1.8691 H   0  0  0  0  0  0  0  0  0  0  0  0
   -0.6065    0.9122    0.3213 H   0  0  0  0  0  0  0  0  0  0  0  0
   -1.8818   -0.2748    0.8967 H   0  0  0  0  0  0  0  0  0  0  0  0
   -2.3891    2.5814    0.0584 H   0  0  0  0  0  0  0  0  0  0  0  0
   -3.6810    1.3369    0.1870 H   0  0  0  0  0  0  0  0  0  0  0  0
   -2.6286    1.7966    1.6042 H   0  0  0  0  0  0  0  0  0  0  0  0
    1.5880   -2.2564    0.0606 H   0  0  0  0  0  0  0  0  0  0  0  0
    0.6132   -0.8782   -0.2806 H   0  0  0  0  0  0  0  0  0  0  0  0
   -0.1956   -0.8741    2.1825 H   0  0  0  0  0  0  0  0  0  0  0  0
    1.5754   -0.5899    1.9724 H   0  0  0  0  0  0  0  0  0  0  0  0
    0.9277   -2.1915    2.5028 H   0  0  0  0  0  0  0  0  0  0  0  0
    4.5932   -6.7711    1.5531 H   0  0  0  0  0  0  0  0  0  0  0  0
    1.8124   -6.2593    7.3711 H   0  0  0  0  0  0  0  0  0  0  0  0
    3.6823   -5.4349    9.0385 H   0  0  0  0  0  0  0  0  0  0  0  0
  1  2  2  3
  2  3  1  0
  3  4  2  0
  3  5  1  0
  5  6  2  0
  6  7  1  0
  7  8  2  0
  8  9  1  0
  9 10  1  0
  9 11  2  0
 11 12  1  0
  6 13  1  0
 13 14  2  3
 14 15  1  0
 15 16  3  0
 14 17  1  0
 17 18  3  0
  1 19  1  0
 19 20  2  0
 20 21  1  0
 21 22  1  0
 20 23  1  0
 23 24  1  0
 24 25  1  0
 25 26  1  0
 26 27  1  0
 27 28  1  0
 28 29  2  0
 29 30  1  0
 30 31  1  0
 28 32  1  0
 32 33  1  0
 33 34  1  0
 34 35  1  0
 35 36  1  0
 36 37  1  0
 37 38  1  0
 36 39  2  0
 39 40  1  0
 40 41  1  0
 41 42  1  0
 42 43  1  0
 43 44  1  0
 44 45  1  0
 45 46  1  0
 46 47  1  0
 47 48  1  0
 48 49  1  0
 46 50  1  0
 50 51  1  0
 43 52  1  0
 52 53  1  0
 39 54  1  0
 54 55  2  3
 55 56  1  0
 56 57  2  0
 56 58  1  0
 58 59  1  0
 59 60  2  0
 60 61  1  0
 61 62  1  0
 62 63  1  0
 63 64  2  3
 64 65  1  0
 65 66  3  0
 64 67  1  0
 67 68  3  0
 13  2  1  0
 49 19  1  0
 63 55  1  0
 11  5  1  0
 48 23  2  0
 62 58  2  0
 47 25  2  0
 45 26  2  0
 31 27  2  0
 44 32  2  0
 42 33  2  0
 41 35  2  0
  1 69  1  0
  7 70  1  0
  8 71  1  0
 21 72  1  0
 21 73  1  0
 22 74  1  0
 22 75  1  0
 22 76  1  0
 37 77  1  0
 37 78  1  0
 38 79  1  0
 38 80  1  0
 38 81  1  0
 50 82  1  0
 50 83  1  0
 51 84  1  0
 51 85  1  0
 51 86  1  0
 52 87  1  0
 52 88  1  0
 53 89  1  0
 53 90  1  0
 53 91  1  0
 54 92  1  0
 59 93  1  0
 60 94  1  0
M  END

