
     RDKit          3D

124137  0  0  0  0  0  0  0  0999 V2000
   -8.0473    3.4227    0.6298 C   0  0  0  0  0  0  0  0  0  0  0  0
   -8.9663    2.7192    1.3189 C   0  0  0  0  0  0  0  0  0  0  0  0
   -8.6768    1.8678    2.4793 C   0  0  0  0  0  0  0  0  0  0  0  0
   -7.5342    1.4815    2.8507 O   0  0  0  0  0  0  0  0  0  0  0  0
   -9.9256    1.5814    3.1659 C   0  0  0  0  0  0  0  0  0  0  0  0
  -10.9729    2.1705    2.4675 C   0  0  0  0  0  0  0  0  0  0  0  0
  -12.2790    2.1085    2.9840 C   0  0  0  0  0  0  0  0  0  0  0  0
  -12.5069    1.4270    4.1898 C   0  0  0  0  0  0  0  0  0  0  0  0
  -11.4400    0.8338    4.8924 C   0  0  0  0  0  0  0  0  0  0  0  0
  -11.8180   -0.0340    6.5601 Br  0  0  0  0  0  0  0  0  0  0  0  0
  -10.1256    0.9239    4.3926 C   0  0  0  0  0  0  0  0  0  0  0  0
   -8.7680    0.2608    5.3058 Cl  0  0  0  0  0  0  0  0  0  0  0  0
  -10.4539    2.8395    1.2388 C   0  0  0  0  0  0  0  0  0  0  0  0
  -11.1810    3.2523    0.1631 C   0  0  0  0  0  0  0  0  0  0  0  0
  -12.6230    3.1944    0.1273 C   0  0  0  0  0  0  0  0  0  0  0  0
  -13.7789    3.1615    0.0922 N   0  0  0  0  0  0  0  0  0  0  0  0
  -10.5704    3.6743   -1.0709 C   0  0  0  0  0  0  0  0  0  0  0  0
  -10.1084    4.0288   -2.0688 N   0  0  0  0  0  0  0  0  0  0  0  0
   -6.6087    3.1526    0.7337 C   0  0  0  0  0  0  0  0  0  0  0  0
   -5.6688    3.9766    1.3579 C   0  0  0  0  0  0  0  0  0  0  0  0
   -4.3864    3.4508    1.2073 C   0  0  0  0  0  0  0  0  0  0  0  0
   -2.8375    4.0476    1.5559 S   0  0  0  0  0  0  0  0  0  0  0  0
   -2.0851    2.7340    0.7731 C   0  0  0  0  0  0  0  0  0  0  0  0
   -0.8206    2.6002    0.1027 C   0  0  0  0  0  0  0  0  0  0  0  0
    0.4606    2.9895    0.5162 C   0  0  0  0  0  0  0  0  0  0  0  0
    1.5490    2.5643   -0.2768 C   0  0  0  0  0  0  0  0  0  0  0  0
    3.0450    2.5211    0.0955 C   0  0  0  0  0  0  0  0  0  0  0  0
    3.7030    3.9015    0.2439 C   0  0  0  0  0  0  0  0  0  0  0  0
    2.9654    5.1075    0.1522 C   0  0  0  0  0  0  0  0  0  0  0  0
    3.5921    6.3439    0.3360 C   0  0  0  0  0  0  0  0  0  0  0  0
    4.9681    6.4142    0.5876 C   0  0  0  0  0  0  0  0  0  0  0  0
    5.6419    7.7476    0.7929 C   0  0  0  0  0  0  0  0  0  0  0  0
    5.6945    8.1173    2.2730 C   0  0  0  0  0  0  0  0  0  0  0  0
    5.7056    5.2287    0.6880 C   0  0  0  0  0  0  0  0  0  0  0  0
    5.0825    3.9903    0.5192 C   0  0  0  0  0  0  0  0  0  0  0  0
    3.2739    1.6100    1.3437 C   0  0  0  0  0  0  0  0  0  0  0  0
    2.7596    2.1770    2.6717 C   0  0  0  0  0  0  0  0  0  0  0  0
    3.5755    1.8184   -1.1507 C   0  0  0  0  0  0  0  0  0  0  0  0
    2.5720    1.5463   -2.0514 C   0  0  0  0  0  0  0  0  0  0  0  0
    1.3099    1.9169   -1.4917 C   0  0  0  0  0  0  0  0  0  0  0  0
    0.0426    1.4522   -1.8574 C   0  0  0  0  0  0  0  0  0  0  0  0
   -1.0144    1.7469   -0.9857 C   0  0  0  0  0  0  0  0  0  0  0  0
   -2.3956    1.0895   -0.9481 C   0  0  0  0  0  0  0  0  0  0  0  0
   -3.1161    1.2487   -2.3204 C   0  0  0  0  0  0  0  0  0  0  0  0
   -3.3241    2.7055   -2.7634 C   0  0  0  0  0  0  0  0  0  0  0  0
   -2.3283   -0.3817   -0.4960 C   0  0  0  0  0  0  0  0  0  0  0  0
   -3.5228   -1.1126   -0.3259 C   0  0  0  0  0  0  0  0  0  0  0  0
   -3.5011   -2.4346    0.1348 C   0  0  0  0  0  0  0  0  0  0  0  0
   -2.2850   -3.0747    0.4098 C   0  0  0  0  0  0  0  0  0  0  0  0
   -2.2560   -4.5131    0.8440 C   0  0  0  0  0  0  0  0  0  0  0  0
   -2.4835   -4.6367    2.3438 C   0  0  0  0  0  0  0  0  0  0  0  0
   -1.0892   -2.3535    0.2757 C   0  0  0  0  0  0  0  0  0  0  0  0
   -1.1109   -1.0250   -0.1567 C   0  0  0  0  0  0  0  0  0  0  0  0
   -3.0054    1.9150    0.1619 C   0  0  0  0  0  0  0  0  0  0  0  0
   -4.3078    2.3068    0.4649 C   0  0  0  0  0  0  0  0  0  0  0  0
   -5.8351    1.8434   -0.0441 S   0  0  0  0  0  0  0  0  0  0  0  0
    2.9870    0.3309   -3.1554 S   0  0  0  0  0  0  0  0  0  0  0  0
    4.5333    0.1923   -2.5030 C   0  0  0  0  0  0  0  0  0  0  0  0
    5.4832   -0.8060   -2.6518 C   0  0  0  0  0  0  0  0  0  0  0  0
    6.3962   -0.7902   -1.5942 C   0  0  0  0  0  0  0  0  0  0  0  0
    6.0251    0.4885   -0.5333 S   0  0  0  0  0  0  0  0  0  0  0  0
    4.6926    1.0148   -1.4175 C   0  0  0  0  0  0  0  0  0  0  0  0
    7.3592   -1.8715   -1.3076 C   0  0  0  0  0  0  0  0  0  0  0  0
    7.0083   -3.1744   -1.3075 C   0  0  0  0  0  0  0  0  0  0  0  0
    5.6463   -3.6963   -1.5094 C   0  0  0  0  0  0  0  0  0  0  0  0
    4.5676   -3.0980   -1.2381 O   0  0  0  0  0  0  0  0  0  0  0  0
    5.7450   -5.0582   -1.9778 C   0  0  0  0  0  0  0  0  0  0  0  0
    4.7428   -5.8418   -2.5459 C   0  0  0  0  0  0  0  0  0  0  0  0
    5.1012   -7.0653   -3.1383 C   0  0  0  0  0  0  0  0  0  0  0  0
    4.1303   -7.8566   -3.7658 C   0  0  0  0  0  0  0  0  0  0  0  0
    4.4974   -9.0510   -4.3940 C   0  0  0  0  0  0  0  0  0  0  0  0
    3.5507   -9.8038   -5.0112 F   0  0  0  0  0  0  0  0  0  0  0  0
    5.8340   -9.4612   -4.4045 C   0  0  0  0  0  0  0  0  0  0  0  0
    6.1868  -10.6149   -5.0233 F   0  0  0  0  0  0  0  0  0  0  0  0
    6.8134   -8.6794   -3.7817 C   0  0  0  0  0  0  0  0  0  0  0  0
    6.4627   -7.4796   -3.1446 C   0  0  0  0  0  0  0  0  0  0  0  0
    7.4531   -6.6655   -2.5499 C   0  0  0  0  0  0  0  0  0  0  0  0
    7.0693   -5.4548   -1.9456 C   0  0  0  0  0  0  0  0  0  0  0  0
    7.9068   -4.3611   -1.3779 C   0  0  0  0  0  0  0  0  0  0  0  0
    9.1401   -4.4961   -0.8269 C   0  0  0  0  0  0  0  0  0  0  0  0
    9.8153   -3.4112   -0.1705 C   0  0  0  0  0  0  0  0  0  0  0  0
   10.3888   -2.5498    0.3578 N   0  0  0  0  0  0  0  0  0  0  0  0
    9.7964   -5.7743   -0.7374 C   0  0  0  0  0  0  0  0  0  0  0  0
   10.3299   -6.8019   -0.6618 N   0  0  0  0  0  0  0  0  0  0  0  0
   -8.3370    4.2258   -0.0299 H   0  0  0  0  0  0  0  0  0  0  0  0
  -13.1108    2.5995    2.5190 H   0  0  0  0  0  0  0  0  0  0  0  0
  -13.5113    1.3756    4.5899 H   0  0  0  0  0  0  0  0  0  0  0  0
   -5.8886    4.9147    1.8457 H   0  0  0  0  0  0  0  0  0  0  0  0
    0.6070    3.5345    1.4396 H   0  0  0  0  0  0  0  0  0  0  0  0
    1.9143    5.1113   -0.0822 H   0  0  0  0  0  0  0  0  0  0  0  0
    3.0041    7.2493    0.2727 H   0  0  0  0  0  0  0  0  0  0  0  0
    6.6745    7.7202    0.3786 H   0  0  0  0  0  0  0  0  0  0  0  0
    5.0852    8.5465    0.2461 H   0  0  0  0  0  0  0  0  0  0  0  0
    6.2444    7.3444    2.8548 H   0  0  0  0  0  0  0  0  0  0  0  0
    4.6676    8.2211    2.6825 H   0  0  0  0  0  0  0  0  0  0  0  0
    6.2217    9.0878    2.3866 H   0  0  0  0  0  0  0  0  0  0  0  0
    6.7733    5.2644    0.8933 H   0  0  0  0  0  0  0  0  0  0  0  0
    5.6884    3.0992    0.6089 H   0  0  0  0  0  0  0  0  0  0  0  0
    2.8022    0.6147    1.1806 H   0  0  0  0  0  0  0  0  0  0  0  0
    4.3574    1.4167    1.4757 H   0  0  0  0  0  0  0  0  0  0  0  0
    2.9256    3.2736    2.7448 H   0  0  0  0  0  0  0  0  0  0  0  0
    1.6825    1.9502    2.7904 H   0  0  0  0  0  0  0  0  0  0  0  0
    3.2958    1.6911    3.5143 H   0  0  0  0  0  0  0  0  0  0  0  0
   -0.0864    0.7948   -2.7097 H   0  0  0  0  0  0  0  0  0  0  0  0
   -2.5165    0.7266   -3.0985 H   0  0  0  0  0  0  0  0  0  0  0  0
   -4.1069    0.7544   -2.3036 H   0  0  0  0  0  0  0  0  0  0  0  0
   -3.5577    2.7378   -3.8488 H   0  0  0  0  0  0  0  0  0  0  0  0
   -4.1886    3.1454   -2.2270 H   0  0  0  0  0  0  0  0  0  0  0  0
   -2.4269    3.3316   -2.5726 H   0  0  0  0  0  0  0  0  0  0  0  0
   -4.4822   -0.6613   -0.5249 H   0  0  0  0  0  0  0  0  0  0  0  0
   -4.4361   -2.9701    0.2635 H   0  0  0  0  0  0  0  0  0  0  0  0
   -1.2728   -4.9739    0.5837 H   0  0  0  0  0  0  0  0  0  0  0  0
   -3.0406   -5.0858    0.3048 H   0  0  0  0  0  0  0  0  0  0  0  0
   -1.7429   -4.0264    2.9045 H   0  0  0  0  0  0  0  0  0  0  0  0
   -2.3715   -5.6994    2.6479 H   0  0  0  0  0  0  0  0  0  0  0  0
   -3.5116   -4.2944    2.5978 H   0  0  0  0  0  0  0  0  0  0  0  0
   -0.1345   -2.8222    0.5019 H   0  0  0  0  0  0  0  0  0  0  0  0
   -0.1577   -0.5241   -0.2102 H   0  0  0  0  0  0  0  0  0  0  0  0
    5.4375   -1.5775   -3.4108 H   0  0  0  0  0  0  0  0  0  0  0  0
    8.3888   -1.5719   -1.2013 H   0  0  0  0  0  0  0  0  0  0  0  0
    3.7192   -5.4827   -2.5727 H   0  0  0  0  0  0  0  0  0  0  0  0
    3.0897   -7.5484   -3.7768 H   0  0  0  0  0  0  0  0  0  0  0  0
    7.8484   -9.0078   -3.8068 H   0  0  0  0  0  0  0  0  0  0  0  0
    8.4911   -6.9570   -2.6192 H   0  0  0  0  0  0  0  0  0  0  0  0
  1  2  2  3
  2  3  1  0
  3  4  2  0
  3  5  1  0
  5  6  2  0
  6  7  1  0
  7  8  2  0
  8  9  1  0
  9 10  1  0
  9 11  2  0
 11 12  1  0
  6 13  1  0
 13 14  2  3
 14 15  1  0
 15 16  3  0
 14 17  1  0
 17 18  3  0
  1 19  1  0
 19 20  2  0
 20 21  1  0
 21 22  1  0
 22 23  1  0
 23 24  1  0
 24 25  2  0
 25 26  1  0
 26 27  1  0
 27 28  1  0
 28 29  2  0
 29 30  1  0
 30 31  2  0
 31 32  1  0
 32 33  1  0
 31 34  1  0
 34 35  2  0
 27 36  1  0
 36 37  1  0
 27 38  1  0
 38 39  2  0
 39 40  1  0
 40 41  1  0
 41 42  2  0
 42 43  1  0
 43 44  1  0
 44 45  1  0
 43 46  1  0
 46 47  2  0
 47 48  1  0
 48 49  2  0
 49 50  1  0
 50 51  1  0
 49 52  1  0
 52 53  2  0
 43 54  1  0
 54 55  1  0
 55 56  1  0
 39 57  1  0
 57 58  1  0
 58 59  1  0
 59 60  2  0
 60 61  1  0
 61 62  1  0
 60 63  1  0
 63 64  2  3
 64 65  1  0
 65 66  2  0
 65 67  1  0
 67 68  2  0
 68 69  1  0
 69 70  2  0
 70 71  1  0
 71 72  1  0
 71 73  2  0
 73 74  1  0
 73 75  1  0
 75 76  2  0
 76 77  1  0
 77 78  2  0
 78 79  1  0
 79 80  2  3
 80 81  1  0
 81 82  3  0
 80 83  1  0
 83 84  3  0
 13  2  1  0
 56 19  1  0
 62 58  2  0
 79 64  1  0
 11  5  1  0
 55 21  2  0
 78 67  1  0
 54 23  2  0
 76 69  1  0
 42 24  1  0
 53 46  1  0
 40 26  2  0
 35 28  1  0
 62 38  1  0
  1 85  1  0
  7 86  1  0
  8 87  1  0
 20 88  1  0
 25 89  1  0
 29 90  1  0
 30 91  1  0
 32 92  1  0
 32 93  1  0
 33 94  1  0
 33 95  1  0
 33 96  1  0
 34 97  1  0
 35 98  1  0
 36 99  1  0
 36100  1  0
 37101  1  0
 37102  1  0
 37103  1  0
 41104  1  0
 44105  1  0
 44106  1  0
 45107  1  0
 45108  1  0
 45109  1  0
 47110  1  0
 48111  1  0
 50112  1  0
 50113  1  0
 51114  1  0
 51115  1  0
 51116  1  0
 52117  1  0
 53118  1  0
 59119  1  0
 63120  1  0
 68121  1  0
 70122  1  0
 75123  1  0
 77124  1  0
M  END

