
     RDKit          3D

 86 95  0  0  0  0  0  0  0  0999 V2000
   -4.5667    0.9371   -4.3531 C   0  0  0  0  0  0  0  0  0  0  0  0
   -5.0001    0.4901   -5.5505 C   0  0  0  0  0  0  0  0  0  0  0  0
   -6.1773    1.1114   -6.1691 C   0  0  0  0  0  0  0  0  0  0  0  0
   -6.8465    2.0603   -5.6747 O   0  0  0  0  0  0  0  0  0  0  0  0
   -6.4942    0.4232   -7.4000 C   0  0  0  0  0  0  0  0  0  0  0  0
   -7.5950    0.5984   -8.2490 C   0  0  0  0  0  0  0  0  0  0  0  0
   -8.7423    1.9063   -8.0254 Cl  0  0  0  0  0  0  0  0  0  0  0  0
   -7.7817   -0.3134   -9.2939 C   0  0  0  0  0  0  0  0  0  0  0  0
   -6.9057   -1.3947   -9.4498 C   0  0  0  0  0  0  0  0  0  0  0  0
   -7.2270   -2.6798  -10.8232 Br  0  0  0  0  0  0  0  0  0  0  0  0
   -5.8137   -1.5533   -8.5839 C   0  0  0  0  0  0  0  0  0  0  0  0
   -5.5778   -0.5954   -7.5862 C   0  0  0  0  0  0  0  0  0  0  0  0
   -4.5314   -0.5730   -6.5192 C   0  0  0  0  0  0  0  0  0  0  0  0
   -3.3591   -1.2627   -6.5835 C   0  0  0  0  0  0  0  0  0  0  0  0
   -2.4397   -1.4477   -5.5013 C   0  0  0  0  0  0  0  0  0  0  0  0
   -1.6646   -1.6533   -4.6657 N   0  0  0  0  0  0  0  0  0  0  0  0
   -2.9106   -1.8786   -7.8067 C   0  0  0  0  0  0  0  0  0  0  0  0
   -2.5385   -2.3706   -8.7861 N   0  0  0  0  0  0  0  0  0  0  0  0
   -3.4268    0.4855   -3.5718 C   0  0  0  0  0  0  0  0  0  0  0  0
   -3.5411   -0.6433   -2.2865 S   0  0  0  0  0  0  0  0  0  0  0  0
   -2.0114   -0.2485   -1.7269 C   0  0  0  0  0  0  0  0  0  0  0  0
   -1.0682   -0.7209   -0.8664 C   0  0  0  0  0  0  0  0  0  0  0  0
   -1.0218   -1.8296   -0.0283 C   0  0  0  0  0  0  0  0  0  0  0  0
   -1.9806   -2.6934    0.3393 N   0  0  0  0  0  0  0  0  0  0  0  0
   -1.3829   -3.5006    1.2172 N   0  0  0  0  0  0  0  0  0  0  0  0
   -2.0646   -4.5938    1.8998 C   0  0  0  0  0  0  0  0  0  0  0  0
   -1.6490   -5.9288    1.2944 C   0  0  0  0  0  0  0  0  0  0  0  0
   -0.0990   -3.2033    1.4184 N   0  0  0  0  0  0  0  0  0  0  0  0
    0.1319   -2.1516    0.6151 C   0  0  0  0  0  0  0  0  0  0  0  0
    1.2770   -1.3648    0.4629 C   0  0  0  0  0  0  0  0  0  0  0  0
    2.3980   -1.2748    1.2295 C   0  0  0  0  0  0  0  0  0  0  0  0
    2.8710   -1.9097    2.7033 S   0  0  0  0  0  0  0  0  0  0  0  0
    3.8877   -0.5842    3.0398 C   0  0  0  0  0  0  0  0  0  0  0  0
    3.7876    0.3820    2.0334 C   0  0  0  0  0  0  0  0  0  0  0  0
    2.9428   -0.0571    1.0077 C   0  0  0  0  0  0  0  0  0  0  0  0
    2.2581    0.6562    0.0727 N   0  0  0  0  0  0  0  0  0  0  0  0
    2.2315    2.1289    0.0609 C   0  0  0  0  0  0  0  0  0  0  0  0
    3.5255    2.7085   -0.5186 C   0  0  0  0  0  0  0  0  0  0  0  0
    1.2490   -0.1945   -0.3152 C   0  0  0  0  0  0  0  0  0  0  0  0
    0.0716    0.0782   -1.0750 C   0  0  0  0  0  0  0  0  0  0  0  0
   -0.1376    0.9440   -2.1183 N   0  0  0  0  0  0  0  0  0  0  0  0
   -1.4326    0.7215   -2.4618 C   0  0  0  0  0  0  0  0  0  0  0  0
   -2.2050    1.1759   -3.5254 C   0  0  0  0  0  0  0  0  0  0  0  0
    0.8644    1.4745   -3.0497 C   0  0  0  0  0  0  0  0  0  0  0  0
    1.2722    0.4103   -4.0659 C   0  0  0  0  0  0  0  0  0  0  0  0
    4.5446   -0.3607    4.3309 C   0  0  0  0  0  0  0  0  0  0  0  0
    3.9079    0.2008    5.3780 C   0  0  0  0  0  0  0  0  0  0  0  0
    2.4668    0.4765    5.4393 C   0  0  0  0  0  0  0  0  0  0  0  0
    1.6721    0.5103    4.4612 O   0  0  0  0  0  0  0  0  0  0  0  0
    2.1011    0.7225    6.8200 C   0  0  0  0  0  0  0  0  0  0  0  0
    0.8299    0.9380    7.3683 C   0  0  0  0  0  0  0  0  0  0  0  0
   -0.6239    0.9358    6.3810 Cl  0  0  0  0  0  0  0  0  0  0  0  0
    0.7228    1.1402    8.7487 C   0  0  0  0  0  0  0  0  0  0  0  0
    1.8669    1.1060    9.5590 C   0  0  0  0  0  0  0  0  0  0  0  0
    1.7076    1.3857   11.4400 Br  0  0  0  0  0  0  0  0  0  0  0  0
    3.1286    0.8639    8.9960 C   0  0  0  0  0  0  0  0  0  0  0  0
    3.2415    0.6737    7.6091 C   0  0  0  0  0  0  0  0  0  0  0  0
    4.4420    0.4246    6.7560 C   0  0  0  0  0  0  0  0  0  0  0  0
    5.7486    0.5560    7.1116 C   0  0  0  0  0  0  0  0  0  0  0  0
    6.8147    0.5845    6.1438 C   0  0  0  0  0  0  0  0  0  0  0  0
    7.6806    0.6169    5.3741 N   0  0  0  0  0  0  0  0  0  0  0  0
    6.1721    0.7400    8.4729 C   0  0  0  0  0  0  0  0  0  0  0  0
    6.5377    0.8808    9.5623 N   0  0  0  0  0  0  0  0  0  0  0  0
   -5.1090    1.7470   -3.8825 H   0  0  0  0  0  0  0  0  0  0  0  0
   -8.6268   -0.1989   -9.9596 H   0  0  0  0  0  0  0  0  0  0  0  0
   -5.2109   -2.4347   -8.6787 H   0  0  0  0  0  0  0  0  0  0  0  0
   -3.1641   -4.4758    1.8030 H   0  0  0  0  0  0  0  0  0  0  0  0
   -1.8091   -4.5761    2.9829 H   0  0  0  0  0  0  0  0  0  0  0  0
   -1.9075   -5.9521    0.2142 H   0  0  0  0  0  0  0  0  0  0  0  0
   -2.1812   -6.7548    1.8096 H   0  0  0  0  0  0  0  0  0  0  0  0
   -0.5561   -6.0794    1.4126 H   0  0  0  0  0  0  0  0  0  0  0  0
    4.2070    1.3749    2.1134 H   0  0  0  0  0  0  0  0  0  0  0  0
    2.1012    2.5025    1.1018 H   0  0  0  0  0  0  0  0  0  0  0  0
    1.3584    2.5164   -0.4979 H   0  0  0  0  0  0  0  0  0  0  0  0
    3.6782    2.3901   -1.5679 H   0  0  0  0  0  0  0  0  0  0  0  0
    3.4772    3.8164   -0.4815 H   0  0  0  0  0  0  0  0  0  0  0  0
    4.4082    2.3875    0.0614 H   0  0  0  0  0  0  0  0  0  0  0  0
   -1.9178    1.9562   -4.2135 H   0  0  0  0  0  0  0  0  0  0  0  0
    1.7679    1.7946   -2.5226 H   0  0  0  0  0  0  0  0  0  0  0  0
    0.4545    2.3599   -3.5854 H   0  0  0  0  0  0  0  0  0  0  0  0
    1.6946   -0.4768   -3.5454 H   0  0  0  0  0  0  0  0  0  0  0  0
    0.3986    0.0981   -4.6753 H   0  0  0  0  0  0  0  0  0  0  0  0
    2.0524    0.8223   -4.7413 H   0  0  0  0  0  0  0  0  0  0  0  0
    5.5626   -0.7030    4.4096 H   0  0  0  0  0  0  0  0  0  0  0  0
   -0.2487    1.3022    9.1999 H   0  0  0  0  0  0  0  0  0  0  0  0
    3.9737    0.8129    9.6549 H   0  0  0  0  0  0  0  0  0  0  0  0
  1  2  2  3
  2  3  1  0
  3  4  2  0
  3  5  1  0
  5  6  2  0
  6  7  1  0
  6  8  1  0
  8  9  2  0
  9 10  1  0
  9 11  1  0
 11 12  2  0
 12 13  1  0
 13 14  2  3
 14 15  1  0
 15 16  3  0
 14 17  1  0
 17 18  3  0
  1 19  1  0
 19 20  1  0
 20 21  1  0
 21 22  1  0
 22 23  1  0
 23 24  2  0
 24 25  1  0
 25 26  1  0
 26 27  1  0
 25 28  1  0
 28 29  2  0
 29 30  1  0
 30 31  1  0
 31 32  1  0
 32 33  1  0
 33 34  2  0
 34 35  1  0
 35 36  1  0
 36 37  1  0
 37 38  1  0
 36 39  1  0
 39 40  1  0
 40 41  1  0
 41 42  1  0
 42 43  1  0
 41 44  1  0
 44 45  1  0
 33 46  1  0
 46 47  2  3
 47 48  1  0
 48 49  2  0
 48 50  1  0
 50 51  2  0
 51 52  1  0
 51 53  1  0
 53 54  2  0
 54 55  1  0
 54 56  1  0
 56 57  2  0
 57 58  1  0
 58 59  2  3
 59 60  1  0
 60 61  3  0
 59 62  1  0
 62 63  3  0
 13  2  1  0
 43 19  2  0
 58 47  1  0
 12  5  1  0
 42 21  2  0
 57 50  1  0
 40 22  2  0
 29 23  1  0
 39 30  2  0
 35 31  2  0
  1 64  1  0
  8 65  1  0
 11 66  1  0
 26 67  1  0
 26 68  1  0
 27 69  1  0
 27 70  1  0
 27 71  1  0
 34 72  1  0
 37 73  1  0
 37 74  1  0
 38 75  1  0
 38 76  1  0
 38 77  1  0
 43 78  1  0
 44 79  1  0
 44 80  1  0
 45 81  1  0
 45 82  1  0
 45 83  1  0
 46 84  1  0
 53 85  1  0
 56 86  1  0
M  END

