
     RDKit          3D

110124  0  0  0  0  0  0  0  0999 V2000
   -3.0232    2.8001    6.8681 C   0  0  0  0  0  0  0  0  0  0  0  0
   -4.2291    3.1704    7.0081 C   0  0  0  0  0  0  0  0  0  0  0  0
   -5.1853    2.0134    7.3260 C   0  0  0  0  0  0  0  0  0  0  0  0
   -4.8720    0.9651    7.9784 O   0  0  0  0  0  0  0  0  0  0  0  0
   -6.4664    2.3555    6.7715 C   0  0  0  0  0  0  0  0  0  0  0  0
   -7.6817    1.6473    6.7324 C   0  0  0  0  0  0  0  0  0  0  0  0
   -7.7907    0.0596    7.5847 Cl  0  0  0  0  0  0  0  0  0  0  0  0
   -8.7567    2.1227    6.1144 C   0  0  0  0  0  0  0  0  0  0  0  0
   -8.7155    3.3782    5.4812 C   0  0  0  0  0  0  0  0  0  0  0  0
  -10.1876    4.1131    4.5334 Br  0  0  0  0  0  0  0  0  0  0  0  0
   -7.5270    4.1177    5.5072 C   0  0  0  0  0  0  0  0  0  0  0  0
   -6.3972    3.5806    6.1645 C   0  0  0  0  0  0  0  0  0  0  0  0
   -5.0363    4.1512    6.2862 C   0  0  0  0  0  0  0  0  0  0  0  0
   -4.6783    5.4237    6.1505 C   0  0  0  0  0  0  0  0  0  0  0  0
   -3.6371    6.1498    6.6422 C   0  0  0  0  0  0  0  0  0  0  0  0
   -2.6781    6.8035    7.0728 N   0  0  0  0  0  0  0  0  0  0  0  0
   -5.1422    5.9904    4.8586 C   0  0  0  0  0  0  0  0  0  0  0  0
   -5.5313    6.4626    3.7507 N   0  0  0  0  0  0  0  0  0  0  0  0
   -1.6689    2.4318    6.7044 C   0  0  0  0  0  0  0  0  0  0  0  0
   -0.4412    2.2081    7.0311 C   0  0  0  0  0  0  0  0  0  0  0  0
   -0.0056    2.6353    8.4659 C   0  0  0  0  0  0  0  0  0  0  0  0
   -0.6598    1.6029    9.3664 C   0  0  0  0  0  0  0  0  0  0  0  0
    0.3612    1.5978    6.0985 C   0  0  0  0  0  0  0  0  0  0  0  0
    2.1724    1.3959    6.1042 S   0  0  0  0  0  0  0  0  0  0  0  0
    2.2655    0.8209    4.4810 C   0  0  0  0  0  0  0  0  0  0  0  0
    3.1770    0.3750    3.5212 C   0  0  0  0  0  0  0  0  0  0  0  0
    4.4768    0.2878    3.5089 C   0  0  0  0  0  0  0  0  0  0  0  0
    5.3171   -0.1889    2.3579 C   0  0  0  0  0  0  0  0  0  0  0  0
    6.4386   -0.2024    2.4215 N   0  0  0  0  0  0  0  0  0  0  0  0
    6.9831    0.4310    4.1353 Se  0  0  0  0  0  2  0  0  0  0  0  0
    5.2967    0.6469    4.5410 N   0  0  0  0  0  0  0  0  0  0  0  0
    4.4530   -0.5428    1.2680 C   0  0  0  0  0  0  0  0  0  0  0  0
    4.7596   -1.0688    0.0541 C   0  0  0  0  0  0  0  0  0  0  0  0
    5.9971   -1.5614   -0.9628 S   0  0  0  0  0  0  0  0  0  0  0  0
    5.0625   -2.0965   -2.3010 C   0  0  0  0  0  0  0  0  0  0  0  0
    5.0363   -2.6678   -3.5696 C   0  0  0  0  0  0  0  0  0  0  0  0
    6.6246   -2.7918   -4.1411 C   0  0  0  0  0  0  0  0  0  0  0  0
    7.0561   -1.3765   -4.3059 C   0  0  0  0  0  0  0  0  0  0  0  0
    4.2790   -3.0125   -4.3631 C   0  0  0  0  0  0  0  0  0  0  0  0
    2.8439   -2.4833   -3.1629 S   0  0  0  0  0  0  0  0  0  0  0  0
    4.0491   -1.8621   -1.8465 C   0  0  0  0  0  0  0  0  0  0  0  0
    3.3107   -1.3349   -0.7241 C   0  0  0  0  0  0  0  0  0  0  0  0
    2.7075   -0.8890    0.2253 N   0  0  0  0  0  0  0  0  0  0  0  0
    3.0058   -0.4363    1.3168 C   0  0  0  0  0  0  0  0  0  0  0  0
    2.3239    0.0324    2.4478 C   0  0  0  0  0  0  0  0  0  0  0  0
    1.0810    0.2686    2.7865 N   0  0  0  0  0  0  0  0  0  0  0  0
    1.0206    0.7922    4.0696 C   0  0  0  0  0  0  0  0  0  0  0  0
    0.1038    1.2515    5.0169 C   0  0  0  0  0  0  0  0  0  0  0  0
   -1.6062    1.7071    4.9338 S   0  0  0  0  0  0  0  0  0  0  0  0
   -0.1774   -0.0568    2.1871 C   0  0  0  0  0  0  0  0  0  0  0  0
   -0.8029   -1.2383    2.9268 C   0  0  0  0  0  0  0  0  0  0  0  0
    1.1929   -0.6579   -0.2778 C   0  0  0  0  0  0  0  0  0  0  0  0
    0.5317   -1.9423   -0.2189 C   0  0  0  0  0  0  0  0  0  0  0  0
    3.4622   -3.5049   -5.5427 C   0  0  0  0  0  0  0  0  0  0  0  0
    2.2917   -2.8652   -5.7857 C   0  0  0  0  0  0  0  0  0  0  0  0
    1.7652   -1.7297   -5.0409 C   0  0  0  0  0  0  0  0  0  0  0  0
    2.4199   -0.8383   -4.5716 O   0  0  0  0  0  0  0  0  0  0  0  0
    0.2605   -1.9425   -4.9826 C   0  0  0  0  0  0  0  0  0  0  0  0
   -0.5574   -1.1912   -4.1598 C   0  0  0  0  0  0  0  0  0  0  0  0
   -1.9066   -1.7058   -4.0253 C   0  0  0  0  0  0  0  0  0  0  0  0
   -2.2116   -2.7559   -4.6578 C   0  0  0  0  0  0  0  0  0  0  0  0
   -1.4526   -3.5680   -5.5243 C   0  0  0  0  0  0  0  0  0  0  0  0
   -0.0747   -3.0723   -5.6615 C   0  0  0  0  0  0  0  0  0  0  0  0
    1.1322   -3.7084   -6.2154 C   0  0  0  0  0  0  0  0  0  0  0  0
    1.2477   -4.6759   -7.0421 C   0  0  0  0  0  0  0  0  0  0  0  0
    0.0257   -5.4790   -7.4044 C   0  0  0  0  0  0  0  0  0  0  0  0
   -0.9493   -6.1070   -7.6806 N   0  0  0  0  0  0  0  0  0  0  0  0
    2.3697   -5.1288   -7.7678 C   0  0  0  0  0  0  0  0  0  0  0  0
    3.3228   -5.5165   -8.3922 N   0  0  0  0  0  0  0  0  0  0  0  0
   -3.6221   -2.8986   -4.0566 C   0  0  0  0  0  0  0  0  0  0  0  0
   -4.7768   -2.4285   -4.8116 C   0  0  0  0  0  0  0  0  0  0  0  0
   -4.4848   -1.3754   -5.7767 C   0  0  0  0  0  0  0  0  0  0  0  0
   -4.1025   -0.2716   -5.1148 C   0  0  0  0  0  0  0  0  0  0  0  0
   -4.2190   -0.5768   -3.6778 C   0  0  0  0  0  0  0  0  0  0  0  0
   -5.4358   -1.5246   -3.6809 C   0  0  0  0  0  0  0  0  0  0  0  0
   -3.1534   -1.5933   -3.2975 C   0  0  0  0  0  0  0  0  0  0  0  0
   -2.6005    4.1340    6.9503 H   0  0  0  0  0  0  0  0  0  0  0  0
   -9.7132    1.6150    6.0688 H   0  0  0  0  0  0  0  0  0  0  0  0
   -7.4917    5.0792    5.0123 H   0  0  0  0  0  0  0  0  0  0  0  0
   -0.4458    3.6402    8.6899 H   0  0  0  0  0  0  0  0  0  0  0  0
    1.0430    2.6786    8.5514 H   0  0  0  0  0  0  0  0  0  0  0  0
   -1.5033    2.0048    9.9030 H   0  0  0  0  0  0  0  0  0  0  0  0
   -1.1270    0.8004    8.7048 H   0  0  0  0  0  0  0  0  0  0  0  0
    0.1078    1.0955    9.9753 H   0  0  0  0  0  0  0  0  0  0  0  0
    6.4817   -3.2253   -5.1344 H   0  0  0  0  0  0  0  0  0  0  0  0
    7.1578   -3.3055   -3.3731 H   0  0  0  0  0  0  0  0  0  0  0  0
    8.1584   -1.2806   -4.0981 H   0  0  0  0  0  0  0  0  0  0  0  0
    6.9125   -1.0854   -5.3358 H   0  0  0  0  0  0  0  0  0  0  0  0
    6.5504   -0.6452   -3.5784 H   0  0  0  0  0  0  0  0  0  0  0  0
   -0.2859   -0.2783    1.2027 H   0  0  0  0  0  0  0  0  0  0  0  0
   -0.8946    0.8222    2.4510 H   0  0  0  0  0  0  0  0  0  0  0  0
   -0.1771   -1.6271    3.7666 H   0  0  0  0  0  0  0  0  0  0  0  0
   -1.8283   -0.9126    3.3055 H   0  0  0  0  0  0  0  0  0  0  0  0
   -1.0270   -2.0440    2.2489 H   0  0  0  0  0  0  0  0  0  0  0  0
    0.9609    0.3258   -0.1608 H   0  0  0  0  0  0  0  0  0  0  0  0
    1.4618   -0.5917   -1.4139 H   0  0  0  0  0  0  0  0  0  0  0  0
    0.6702   -2.5446    0.7107 H   0  0  0  0  0  0  0  0  0  0  0  0
   -0.5461   -1.8835   -0.4583 H   0  0  0  0  0  0  0  0  0  0  0  0
    0.9320   -2.6269   -1.0433 H   0  0  0  0  0  0  0  0  0  0  0  0
    3.7917   -4.3005   -6.1210 H   0  0  0  0  0  0  0  0  0  0  0  0
   -0.2517   -0.3180   -3.6558 H   0  0  0  0  0  0  0  0  0  0  0  0
   -1.7307   -4.3838   -6.0267 H   0  0  0  0  0  0  0  0  0  0  0  0
   -3.6778   -3.7722   -3.4084 H   0  0  0  0  0  0  0  0  0  0  0  0
   -5.5236   -3.1660   -5.1390 H   0  0  0  0  0  0  0  0  0  0  0  0
   -4.5457   -1.4184   -6.8508 H   0  0  0  0  0  0  0  0  0  0  0  0
   -3.7679    0.6845   -5.4907 H   0  0  0  0  0  0  0  0  0  0  0  0
   -4.3242    0.2440   -3.0207 H   0  0  0  0  0  0  0  0  0  0  0  0
   -5.4834   -2.1514   -2.7672 H   0  0  0  0  0  0  0  0  0  0  0  0
   -6.3702   -1.0846   -4.0225 H   0  0  0  0  0  0  0  0  0  0  0  0
   -3.1018   -1.8545   -2.2069 H   0  0  0  0  0  0  0  0  0  0  0  0
  1  2  2  3
  2  3  1  0
  3  4  2  0
  3  5  1  0
  5  6  2  0
  6  7  1  0
  6  8  1  0
  8  9  2  0
  9 10  1  0
  9 11  1  0
 11 12  2  0
 12 13  1  0
 13 14  2  3
 14 15  1  0
 15 16  3  0
 14 17  1  0
 17 18  3  0
  1 19  1  0
 19 20  2  0
 20 21  1  0
 21 22  1  0
 20 23  1  0
 23 24  1  0
 24 25  1  0
 25 26  1  0
 26 27  1  0
 27 28  1  0
 28 29  2  0
 29 30  1  0
 30 31  1  0
 28 32  1  0
 32 33  1  0
 33 34  1  0
 34 35  1  0
 35 36  1  0
 36 37  1  0
 37 38  1  0
 36 39  2  0
 39 40  1  0
 40 41  1  0
 41 42  1  0
 42 43  1  0
 43 44  1  0
 44 45  1  0
 45 46  1  0
 46 47  1  0
 47 48  1  0
 48 49  1  0
 46 50  1  0
 50 51  1  0
 43 52  1  0
 52 53  1  0
 39 54  1  0
 54 55  2  3
 55 56  1  0
 56 57  2  0
 56 58  1  0
 58 59  2  0
 59 60  1  0
 60 61  2  0
 61 62  1  0
 62 63  2  0
 63 64  1  0
 64 65  2  3
 65 66  1  0
 66 67  3  0
 65 68  1  0
 68 69  3  0
 61 70  1  0
 70 71  1  0
 71 72  1  0
 72 73  2  0
 73 74  1  0
 74 75  1  0
 74 76  1  0
 13  2  1  0
 49 19  1  0
 64 55  1  0
 76 70  1  0
 12  5  1  0
 48 23  2  0
 63 58  1  0
 75 71  1  0
 47 25  2  0
 76 60  1  0
 45 26  2  0
 31 27  2  0
 44 32  2  0
 42 33  2  0
 41 35  2  0
  1 77  1  0
  8 78  1  0
 11 79  1  0
 21 80  1  0
 21 81  1  0
 22 82  1  0
 22 83  1  0
 22 84  1  0
 37 85  1  0
 37 86  1  0
 38 87  1  0
 38 88  1  0
 38 89  1  0
 50 90  1  0
 50 91  1  0
 51 92  1  0
 51 93  1  0
 51 94  1  0
 52 95  1  0
 52 96  1  0
 53 97  1  0
 53 98  1  0
 53 99  1  0
 54100  1  0
 59101  1  0
 62102  1  0
 70103  1  0
 71104  1  0
 72105  1  0
 73106  1  0
 74107  1  0
 75108  1  0
 75109  1  0
 76110  1  0
M  END

