
     RDKit          3D

 97108  0  0  0  0  0  0  0  0999 V2000
    4.7004    1.7422   -4.0402 C   0  0  0  0  0  0  0  0  0  0  0  0
    3.8936    2.8122   -4.3928 C   0  0  0  0  0  0  0  0  0  0  0  0
    2.5717    2.6826   -4.9283 C   0  0  0  0  0  0  0  0  0  0  0  0
    2.0416    1.7352   -5.4862 O   0  0  0  0  0  0  0  0  0  0  0  0
    1.8741    3.9876   -4.7179 C   0  0  0  0  0  0  0  0  0  0  0  0
    0.5639    4.3421   -4.9946 C   0  0  0  0  0  0  0  0  0  0  0  0
   -0.5501    3.2601   -5.8121 Cl  0  0  0  0  0  0  0  0  0  0  0  0
    0.1259    5.6246   -4.6285 C   0  0  0  0  0  0  0  0  0  0  0  0
    0.9132    6.5186   -4.0196 C   0  0  0  0  0  0  0  0  0  0  0  0
    0.3148    8.2310   -3.5001 Br  0  0  0  0  0  0  0  0  0  0  0  0
    2.2476    6.1303   -3.7448 C   0  0  0  0  0  0  0  0  0  0  0  0
    2.7330    4.8554   -4.0961 C   0  0  0  0  0  0  0  0  0  0  0  0
    4.0616    4.1799   -3.8567 C   0  0  0  0  0  0  0  0  0  0  0  0
    5.0861    4.7081   -3.3656 C   0  0  0  0  0  0  0  0  0  0  0  0
    5.0090    6.1033   -2.8534 C   0  0  0  0  0  0  0  0  0  0  0  0
    4.9367    7.2321   -2.4230 N   0  0  0  0  0  0  0  0  0  0  0  0
    6.4446    4.2042   -3.2537 C   0  0  0  0  0  0  0  0  0  0  0  0
    7.5620    3.8076   -3.1606 N   0  0  0  0  0  0  0  0  0  0  0  0
    3.9554    0.4817   -4.2260 C   0  0  0  0  0  0  0  0  0  0  0  0
    3.9627   -0.7576   -4.6353 C   0  0  0  0  0  0  0  0  0  0  0  0
    5.0984   -1.1913   -5.5395 C   0  0  0  0  0  0  0  0  0  0  0  0
    6.3573   -1.5050   -4.7641 C   0  0  0  0  0  0  0  0  0  0  0  0
    2.8986   -1.4390   -4.2130 C   0  0  0  0  0  0  0  0  0  0  0  0
    2.4844   -3.5845   -4.1622 Se  0  0  0  0  0  2  0  0  0  0  0  0
    0.9676   -3.2096   -3.0783 C   0  0  0  0  0  0  0  0  0  0  0  0
   -0.0490   -3.7722   -2.3051 C   0  0  0  0  0  0  0  0  0  0  0  0
   -0.2546   -5.0780   -1.9213 C   0  0  0  0  0  0  0  0  0  0  0  0
   -1.0931   -5.4102   -0.8991 C   0  0  0  0  0  0  0  0  0  0  0  0
   -1.2533   -6.6919   -0.6149 N   0  0  0  0  0  0  0  0  0  0  0  0
   -0.2557   -7.4777   -1.7324 S   0  0  0  0  0  0  0  0  0  0  0  0
    0.3091   -6.1182   -2.5165 N   0  0  0  0  0  0  0  0  0  0  0  0
   -1.7407   -4.3805   -0.2693 C   0  0  0  0  0  0  0  0  0  0  0  0
   -2.5032   -4.3470    0.9264 C   0  0  0  0  0  0  0  0  0  0  0  0
   -3.1579   -5.3553    2.4383 Se  0  0  0  0  0  2  0  0  0  0  0  0
   -3.7354   -3.6050    3.3574 C   0  0  0  0  0  0  0  0  0  0  0  0
   -4.2531   -3.2972    4.5382 C   0  0  0  0  0  0  0  0  0  0  0  0
   -4.5549   -4.1700    5.7179 C   0  0  0  0  0  0  0  0  0  0  0  0
   -3.5718   -3.9516    6.8292 C   0  0  0  0  0  0  0  0  0  0  0  0
   -4.3945   -2.0313    4.7780 C   0  0  0  0  0  0  0  0  0  0  0  0
   -3.7955   -1.3350    3.2555 S   0  0  0  0  0  0  0  0  0  0  0  0
   -3.3725   -2.9007    2.4561 C   0  0  0  0  0  0  0  0  0  0  0  0
   -2.7712   -3.0481    1.2310 C   0  0  0  0  0  0  0  0  0  0  0  0
   -2.2181   -2.2680    0.2125 N   0  0  0  0  0  0  0  0  0  0  0  0
   -1.6090   -3.0173   -0.6391 C   0  0  0  0  0  0  0  0  0  0  0  0
   -0.7143   -2.7368   -1.6898 C   0  0  0  0  0  0  0  0  0  0  0  0
   -0.1470   -1.5539   -2.0665 N   0  0  0  0  0  0  0  0  0  0  0  0
    0.9262   -1.8812   -2.9279 C   0  0  0  0  0  0  0  0  0  0  0  0
    1.9818   -1.1593   -3.5771 C   0  0  0  0  0  0  0  0  0  0  0  0
    2.4054    0.5250   -3.2976 S   0  0  0  0  0  0  0  0  0  0  0  0
   -0.5214   -0.2523   -1.8168 C   0  0  0  0  0  0  0  0  0  0  0  0
   -1.4840    0.3747   -2.8591 C   0  0  0  0  0  0  0  0  0  0  0  0
   -2.5491   -0.8858    0.2168 C   0  0  0  0  0  0  0  0  0  0  0  0
   -4.1437   -0.9758   -0.0759 C   0  0  0  0  0  0  0  0  0  0  0  0
   -4.7095   -0.9850    5.7527 C   0  0  0  0  0  0  0  0  0  0  0  0
   -3.5397   -0.1158    5.8127 C   0  0  0  0  0  0  0  0  0  0  0  0
   -2.4092   -0.3264    5.1442 C   0  0  0  0  0  0  0  0  0  0  0  0
   -1.8162   -1.5012    4.9494 O   0  0  0  0  0  0  0  0  0  0  0  0
   -1.8928    0.9263    4.6617 C   0  0  0  0  0  0  0  0  0  0  0  0
   -0.7454    1.1233    3.8144 C   0  0  0  0  0  0  0  0  0  0  0  0
   -0.4850    2.3924    3.3626 C   0  0  0  0  0  0  0  0  0  0  0  0
    0.8942    2.7052    2.3014 Cl  0  0  0  0  0  0  0  0  0  0  0  0
   -1.3313    3.3892    3.7575 C   0  0  0  0  0  0  0  0  0  0  0  0
   -1.1188    4.6823    3.3316 F   0  0  0  0  0  0  0  0  0  0  0  0
   -2.4557    3.1190    4.6093 C   0  0  0  0  0  0  0  0  0  0  0  0
   -2.6911    1.8687    5.0486 C   0  0  0  0  0  0  0  0  0  0  0  0
   -4.0581    1.2875    5.9868 C   0  0  0  0  0  0  0  0  0  0  0  0
   -4.5640    2.2661    6.2092 C   0  0  0  0  0  0  0  0  0  0  0  0
   -4.5880    3.6067    6.0496 C   0  0  0  0  0  0  0  0  0  0  0  0
   -4.6213    4.8724    5.8903 N   0  0  0  0  0  0  0  0  0  0  0  0
   -5.9006    1.9174    7.0820 C   0  0  0  0  0  0  0  0  0  0  0  0
   -6.8741    1.6596    7.7193 N   0  0  0  0  0  0  0  0  0  0  0  0
    5.6531    1.7766   -3.7378 H   0  0  0  0  0  0  0  0  0  0  0  0
   -0.9323    5.8879   -4.8853 H   0  0  0  0  0  0  0  0  0  0  0  0
    2.8422    6.8520   -3.2424 H   0  0  0  0  0  0  0  0  0  0  0  0
    4.8155   -2.0973   -6.1325 H   0  0  0  0  0  0  0  0  0  0  0  0
    5.3379   -0.3906   -6.2786 H   0  0  0  0  0  0  0  0  0  0  0  0
    6.8466   -0.6019   -4.4700 H   0  0  0  0  0  0  0  0  0  0  0  0
    6.0908   -2.2086   -3.9303 H   0  0  0  0  0  0  0  0  0  0  0  0
    7.0828   -2.0372   -5.4433 H   0  0  0  0  0  0  0  0  0  0  0  0
   -4.3697   -5.2293    5.3195 H   0  0  0  0  0  0  0  0  0  0  0  0
   -5.5994   -4.1877    6.0436 H   0  0  0  0  0  0  0  0  0  0  0  0
   -3.0214   -2.9510    6.7856 H   0  0  0  0  0  0  0  0  0  0  0  0
   -2.7962   -4.7232    6.8258 H   0  0  0  0  0  0  0  0  0  0  0  0
   -4.1384   -3.8237    7.8164 H   0  0  0  0  0  0  0  0  0  0  0  0
   -0.4892    0.2256   -0.8160 H   0  0  0  0  0  0  0  0  0  0  0  0
    0.3869    0.4519   -2.1066 H   0  0  0  0  0  0  0  0  0  0  0  0
   -2.0205   -0.4817   -3.3755 H   0  0  0  0  0  0  0  0  0  0  0  0
   -0.9754    0.8475   -3.7038 H   0  0  0  0  0  0  0  0  0  0  0  0
   -2.1585    1.0680   -2.3598 H   0  0  0  0  0  0  0  0  0  0  0  0
   -2.5656   -0.4534    1.2174 H   0  0  0  0  0  0  0  0  0  0  0  0
   -2.3490   -0.3065   -0.5719 H   0  0  0  0  0  0  0  0  0  0  0  0
   -4.6495   -0.0810    0.2448 H   0  0  0  0  0  0  0  0  0  0  0  0
   -4.4734   -1.8731    0.4829 H   0  0  0  0  0  0  0  0  0  0  0  0
   -4.2701   -1.1609   -1.1171 H   0  0  0  0  0  0  0  0  0  0  0  0
   -5.4939   -0.8014    6.3555 H   0  0  0  0  0  0  0  0  0  0  0  0
   -0.1314    0.2848    3.5671 H   0  0  0  0  0  0  0  0  0  0  0  0
   -2.9642    4.0242    4.7805 H   0  0  0  0  0  0  0  0  0  0  0  0
  1  2  2  3
  2  3  1  0
  3  4  2  0
  3  5  1  0
  5  6  2  0
  6  7  1  0
  6  8  1  0
  8  9  2  0
  9 10  1  0
  9 11  1  0
 11 12  2  0
 12 13  1  0
 13 14  2  3
 14 15  1  0
 15 16  3  0
 14 17  1  0
 17 18  3  0
  1 19  1  0
 19 20  2  0
 20 21  1  0
 21 22  1  0
 20 23  1  0
 23 24  1  0
 24 25  1  0
 25 26  1  0
 26 27  1  0
 27 28  1  0
 28 29  2  0
 29 30  1  0
 30 31  1  0
 28 32  1  0
 32 33  1  0
 33 34  1  0
 34 35  1  0
 35 36  1  0
 36 37  1  0
 37 38  1  0
 36 39  2  0
 39 40  1  0
 40 41  1  0
 41 42  1  0
 42 43  1  0
 43 44  1  0
 44 45  1  0
 45 46  1  0
 46 47  1  0
 47 48  1  0
 48 49  1  0
 46 50  1  0
 50 51  1  0
 43 52  1  0
 52 53  1  0
 39 54  1  0
 54 55  2  3
 55 56  1  0
 56 57  2  0
 56 58  1  0
 58 59  2  0
 59 60  1  0
 60 61  1  0
 60 62  2  0
 62 63  1  0
 62 64  1  0
 64 65  2  0
 65 66  1  0
 66 67  2  3
 67 68  1  0
 68 69  3  0
 67 70  1  0
 70 71  3  0
 13  2  1  0
 49 19  1  0
 66 55  1  0
 12  5  1  0
 48 23  2  0
 65 58  1  0
 47 25  2  0
 45 26  2  0
 31 27  2  0
 44 32  2  0
 42 33  2  0
 41 35  2  0
  1 72  1  0
  8 73  1  0
 11 74  1  0
 21 75  1  0
 21 76  1  0
 22 77  1  0
 22 78  1  0
 22 79  1  0
 37 80  1  0
 37 81  1  0
 38 82  1  0
 38 83  1  0
 38 84  1  0
 50 85  1  0
 50 86  1  0
 51 87  1  0
 51 88  1  0
 51 89  1  0
 52 90  1  0
 52 91  1  0
 53 92  1  0
 53 93  1  0
 53 94  1  0
 54 95  1  0
 59 96  1  0
 64 97  1  0
M  END

