
     RDKit          3D

112123  0  0  0  0  0  0  0  0999 V2000
    8.3479   -0.6651   -0.8676 C   0  0  0  0  0  0  0  0  0  0  0  0
    8.8750   -1.1822    0.2576 C   0  0  0  0  0  0  0  0  0  0  0  0
    8.1103   -1.8400    1.3243 C   0  0  0  0  0  0  0  0  0  0  0  0
    6.8601   -1.8041    1.4729 O   0  0  0  0  0  0  0  0  0  0  0  0
    9.0338   -2.5847    2.1597 C   0  0  0  0  0  0  0  0  0  0  0  0
    8.7538   -3.4486    3.2270 C   0  0  0  0  0  0  0  0  0  0  0  0
    7.1163   -3.7332    3.7917 Cl  0  0  0  0  0  0  0  0  0  0  0  0
    9.8214   -4.1166    3.8410 C   0  0  0  0  0  0  0  0  0  0  0  0
   11.1331   -3.9345    3.3769 C   0  0  0  0  0  0  0  0  0  0  0  0
   12.5714   -4.8774    4.2071 Br  0  0  0  0  0  0  0  0  0  0  0  0
   11.3929   -3.0753    2.2973 C   0  0  0  0  0  0  0  0  0  0  0  0
   10.3274   -2.3782    1.7035 C   0  0  0  0  0  0  0  0  0  0  0  0
   10.3180   -1.4192    0.5593 C   0  0  0  0  0  0  0  0  0  0  0  0
   11.3804   -0.7371    0.0535 C   0  0  0  0  0  0  0  0  0  0  0  0
   11.2242    0.3576   -0.8694 C   0  0  0  0  0  0  0  0  0  0  0  0
   11.1084    1.2412   -1.6079 N   0  0  0  0  0  0  0  0  0  0  0  0
   12.7331   -0.9641    0.4894 C   0  0  0  0  0  0  0  0  0  0  0  0
   13.8271   -1.1323    0.8294 N   0  0  0  0  0  0  0  0  0  0  0  0
    6.8995   -0.5289   -1.0660 C   0  0  0  0  0  0  0  0  0  0  0  0
    6.1740   -1.5770   -1.6805 C   0  0  0  0  0  0  0  0  0  0  0  0
    4.7758   -1.5112   -1.7918 C   0  0  0  0  0  0  0  0  0  0  0  0
    4.1438   -0.3720   -1.3051 C   0  0  0  0  0  0  0  0  0  0  0  0
    2.8255   -0.0199   -1.1702 C   0  0  0  0  0  0  0  0  0  0  0  0
    2.7793    1.1757   -0.5783 C   0  0  0  0  0  0  0  0  0  0  0  0
    4.0029    1.6745   -0.2925 N   0  0  0  0  0  0  0  0  0  0  0  0
    4.8438    0.6848   -0.7240 C   0  0  0  0  0  0  0  0  0  0  0  0
    6.2344    0.6205   -0.5891 C   0  0  0  0  0  0  0  0  0  0  0  0
    4.3400    2.8988    0.4337 C   0  0  0  0  0  0  0  0  0  0  0  0
    4.1377    2.6998    1.9309 C   0  0  0  0  0  0  0  0  0  0  0  0
    1.4595    1.5388   -0.4905 C   0  0  0  0  0  0  0  0  0  0  0  0
    0.7739    2.7004   -0.1322 C   0  0  0  0  0  0  0  0  0  0  0  0
   -0.5883    2.7652   -0.2481 C   0  0  0  0  0  0  0  0  0  0  0  0
   -0.9818    4.0061    0.0716 N   0  0  0  0  0  0  0  0  0  0  0  0
    0.1407    4.6519    0.3802 N   0  0  0  0  0  0  0  0  0  0  0  0
    0.1801    6.0729    0.7028 C   0  0  0  0  0  0  0  0  0  0  0  0
    0.2099    6.8982   -0.5779 C   0  0  0  0  0  0  0  0  0  0  0  0
    1.2321    3.8994    0.2538 N   0  0  0  0  0  0  0  0  0  0  0  0
   -1.3286    1.6578   -0.6885 C   0  0  0  0  0  0  0  0  0  0  0  0
   -0.6679    0.4569   -1.0281 C   0  0  0  0  0  0  0  0  0  0  0  0
    0.7560    0.4345   -1.0192 C   0  0  0  0  0  0  0  0  0  0  0  0
    1.6151   -0.5063   -1.5246 N   0  0  0  0  0  0  0  0  0  0  0  0
    1.3631   -1.4380   -2.6306 C   0  0  0  0  0  0  0  0  0  0  0  0
    1.9518   -0.9208   -3.9448 C   0  0  0  0  0  0  0  0  0  0  0  0
   -1.5465   -0.5975   -1.0772 N   0  0  0  0  0  0  0  0  0  0  0  0
   -1.2587   -1.9878   -0.6838 C   0  0  0  0  0  0  0  0  0  0  0  0
   -1.7171   -2.9934   -1.7478 C   0  0  0  0  0  0  0  0  0  0  0  0
   -2.7542    0.0048   -0.9054 C   0  0  0  0  0  0  0  0  0  0  0  0
   -2.6670    1.3328   -0.6626 C   0  0  0  0  0  0  0  0  0  0  0  0
   -3.7486    1.8151    0.0031 N   0  0  0  0  0  0  0  0  0  0  0  0
   -3.9523    3.1582    0.5533 C   0  0  0  0  0  0  0  0  0  0  0  0
   -4.1649    4.1674   -0.5697 C   0  0  0  0  0  0  0  0  0  0  0  0
   -4.5572    0.7246    0.1405 C   0  0  0  0  0  0  0  0  0  0  0  0
   -3.9623   -0.4168   -0.3822 C   0  0  0  0  0  0  0  0  0  0  0  0
   -4.5642   -1.6690   -0.2878 C   0  0  0  0  0  0  0  0  0  0  0  0
   -5.8106   -1.7567    0.3461 C   0  0  0  0  0  0  0  0  0  0  0  0
   -6.4151   -0.6126    0.9252 C   0  0  0  0  0  0  0  0  0  0  0  0
   -5.7932    0.6472    0.7964 C   0  0  0  0  0  0  0  0  0  0  0  0
   -7.7337   -0.6936    1.5921 C   0  0  0  0  0  0  0  0  0  0  0  0
   -8.1775   -1.7361    2.3209 C   0  0  0  0  0  0  0  0  0  0  0  0
   -9.6016   -2.0214    2.4904 C   0  0  0  0  0  0  0  0  0  0  0  0
  -10.5486   -1.2110    2.3012 O   0  0  0  0  0  0  0  0  0  0  0  0
   -9.7449   -3.4300    2.8048 C   0  0  0  0  0  0  0  0  0  0  0  0
  -10.9124   -4.1913    2.8832 C   0  0  0  0  0  0  0  0  0  0  0  0
  -12.1331   -3.6169    2.7436 F   0  0  0  0  0  0  0  0  0  0  0  0
  -10.7963   -5.5751    3.0797 C   0  0  0  0  0  0  0  0  0  0  0  0
   -9.5270   -6.1733    3.1705 C   0  0  0  0  0  0  0  0  0  0  0  0
   -8.3633   -5.3917    3.0849 C   0  0  0  0  0  0  0  0  0  0  0  0
   -8.4893   -4.0025    2.9248 C   0  0  0  0  0  0  0  0  0  0  0  0
   -7.4471   -2.9519    2.7849 C   0  0  0  0  0  0  0  0  0  0  0  0
   -6.2142   -2.9743    3.3483 C   0  0  0  0  0  0  0  0  0  0  0  0
   -5.6470   -4.1701    3.9139 C   0  0  0  0  0  0  0  0  0  0  0  0
   -5.1798   -5.1296    4.3647 N   0  0  0  0  0  0  0  0  0  0  0  0
   -5.4480   -1.7701    3.5488 C   0  0  0  0  0  0  0  0  0  0  0  0
   -4.8259   -0.8081    3.7172 N   0  0  0  0  0  0  0  0  0  0  0  0
    8.9731   -0.3862   -1.6991 H   0  0  0  0  0  0  0  0  0  0  0  0
    9.6312   -4.7890    4.6682 H   0  0  0  0  0  0  0  0  0  0  0  0
   12.4023   -2.9992    1.9363 H   0  0  0  0  0  0  0  0  0  0  0  0
    6.6926   -2.4586   -2.0354 H   0  0  0  0  0  0  0  0  0  0  0  0
    4.2167   -2.3315   -2.2180 H   0  0  0  0  0  0  0  0  0  0  0  0
    6.7888    1.4136   -0.1054 H   0  0  0  0  0  0  0  0  0  0  0  0
    3.7190    3.7396    0.0701 H   0  0  0  0  0  0  0  0  0  0  0  0
    5.3954    3.1856    0.2434 H   0  0  0  0  0  0  0  0  0  0  0  0
    4.4386    3.6177    2.4758 H   0  0  0  0  0  0  0  0  0  0  0  0
    4.7580    1.8504    2.2885 H   0  0  0  0  0  0  0  0  0  0  0  0
    3.0690    2.4864    2.1484 H   0  0  0  0  0  0  0  0  0  0  0  0
    1.0843    6.2965    1.3098 H   0  0  0  0  0  0  0  0  0  0  0  0
   -0.7171    6.3443    1.2991 H   0  0  0  0  0  0  0  0  0  0  0  0
    0.2241    7.9794   -0.3267 H   0  0  0  0  0  0  0  0  0  0  0  0
   -0.6927    6.6839   -1.1909 H   0  0  0  0  0  0  0  0  0  0  0  0
    1.1191    6.6529   -1.1673 H   0  0  0  0  0  0  0  0  0  0  0  0
    0.2795   -1.5319   -2.8064 H   0  0  0  0  0  0  0  0  0  0  0  0
    1.7829   -2.4357   -2.3858 H   0  0  0  0  0  0  0  0  0  0  0  0
    3.0546   -0.8216   -3.8813 H   0  0  0  0  0  0  0  0  0  0  0  0
    1.5146    0.0710   -4.1940 H   0  0  0  0  0  0  0  0  0  0  0  0
    1.7130   -1.6333   -4.7618 H   0  0  0  0  0  0  0  0  0  0  0  0
   -0.1783   -2.1316   -0.4756 H   0  0  0  0  0  0  0  0  0  0  0  0
   -1.7747   -2.2070    0.2779 H   0  0  0  0  0  0  0  0  0  0  0  0
   -2.4523   -2.5411   -2.4465 H   0  0  0  0  0  0  0  0  0  0  0  0
   -2.1900   -3.8704   -1.2550 H   0  0  0  0  0  0  0  0  0  0  0  0
   -0.8561   -3.3827   -2.3303 H   0  0  0  0  0  0  0  0  0  0  0  0
   -3.0915    3.4418    1.1889 H   0  0  0  0  0  0  0  0  0  0  0  0
   -4.8346    3.1885    1.2215 H   0  0  0  0  0  0  0  0  0  0  0  0
   -5.0827    3.9098   -1.1390 H   0  0  0  0  0  0  0  0  0  0  0  0
   -3.3013    4.1676   -1.2634 H   0  0  0  0  0  0  0  0  0  0  0  0
   -4.2815    5.1848   -0.1405 H   0  0  0  0  0  0  0  0  0  0  0  0
   -4.1205   -2.5529   -0.7124 H   0  0  0  0  0  0  0  0  0  0  0  0
   -6.3059   -2.7173    0.3749 H   0  0  0  0  0  0  0  0  0  0  0  0
   -6.2665    1.5244    1.2139 H   0  0  0  0  0  0  0  0  0  0  0  0
   -8.4267    0.1132    1.3795 H   0  0  0  0  0  0  0  0  0  0  0  0
  -11.6859   -6.1894    3.1345 H   0  0  0  0  0  0  0  0  0  0  0  0
   -9.4458   -7.2457    3.2912 H   0  0  0  0  0  0  0  0  0  0  0  0
   -7.4026   -5.8819    3.1017 H   0  0  0  0  0  0  0  0  0  0  0  0
  1  2  2  3
  2  3  1  0
  3  4  2  0
  3  5  1  0
  5  6  2  0
  6  7  1  0
  6  8  1  0
  8  9  2  0
  9 10  1  0
  9 11  1  0
 11 12  2  0
 12 13  1  0
 13 14  2  3
 14 15  1  0
 15 16  3  0
 14 17  1  0
 17 18  3  0
  1 19  1  0
 19 20  2  0
 20 21  1  0
 21 22  2  0
 22 23  1  0
 23 24  2  0
 24 25  1  0
 25 26  1  0
 26 27  2  0
 25 28  1  0
 28 29  1  0
 24 30  1  0
 30 31  1  0
 31 32  1  0
 32 33  2  0
 33 34  1  0
 34 35  1  0
 35 36  1  0
 34 37  1  0
 32 38  1  0
 38 39  2  0
 39 40  1  0
 40 41  1  0
 41 42  1  0
 42 43  1  0
 39 44  1  0
 44 45  1  0
 45 46  1  0
 44 47  1  0
 47 48  2  0
 48 49  1  0
 49 50  1  0
 50 51  1  0
 49 52  1  0
 52 53  2  0
 53 54  1  0
 54 55  2  0
 55 56  1  0
 56 57  2  0
 56 58  1  0
 58 59  2  3
 59 60  1  0
 60 61  2  0
 60 62  1  0
 62 63  2  0
 63 64  1  0
 63 65  1  0
 65 66  2  0
 66 67  1  0
 67 68  2  0
 68 69  1  0
 69 70  2  3
 70 71  1  0
 71 72  3  0
 70 73  1  0
 73 74  3  0
 13  2  1  0
 27 19  1  0
 40 30  2  0
 53 47  1  0
 69 59  1  0
 12  5  1  0
 26 22  1  0
 37 31  2  0
 48 38  1  0
 57 52  1  0
 68 62  1  0
 41 23  1  0
  1 75  1  0
  8 76  1  0
 11 77  1  0
 20 78  1  0
 21 79  1  0
 27 80  1  0
 28 81  1  0
 28 82  1  0
 29 83  1  0
 29 84  1  0
 29 85  1  0
 35 86  1  0
 35 87  1  0
 36 88  1  0
 36 89  1  0
 36 90  1  0
 42 91  1  0
 42 92  1  0
 43 93  1  0
 43 94  1  0
 43 95  1  0
 45 96  1  0
 45 97  1  0
 46 98  1  0
 46 99  1  0
 46100  1  0
 50101  1  0
 50102  1  0
 51103  1  0
 51104  1  0
 51105  1  0
 54106  1  0
 55107  1  0
 57108  1  0
 58109  1  0
 65110  1  0
 66111  1  0
 67112  1  0
M  END

