
     RDKit          3D

107120  0  0  0  0  0  0  0  0999 V2000
   -3.6957    3.8283    5.0852 C   0  0  0  0  0  0  0  0  0  0  0  0
   -2.7598    4.4859    5.7945 C   0  0  0  0  0  0  0  0  0  0  0  0
   -3.0208    5.0072    7.1342 C   0  0  0  0  0  0  0  0  0  0  0  0
   -3.9633    4.6565    7.8853 O   0  0  0  0  0  0  0  0  0  0  0  0
   -2.0601    6.0638    7.4039 C   0  0  0  0  0  0  0  0  0  0  0  0
   -1.9780    6.9322    8.4991 C   0  0  0  0  0  0  0  0  0  0  0  0
   -3.0523    6.7939    9.8794 Cl  0  0  0  0  0  0  0  0  0  0  0  0
   -1.0085    7.9481    8.4720 C   0  0  0  0  0  0  0  0  0  0  0  0
   -0.1744    8.1066    7.3524 C   0  0  0  0  0  0  0  0  0  0  0  0
    1.0700    9.5525    7.2998 Br  0  0  0  0  0  0  0  0  0  0  0  0
   -0.2671    7.2107    6.2697 C   0  0  0  0  0  0  0  0  0  0  0  0
   -1.1950    6.1666    6.3262 C   0  0  0  0  0  0  0  0  0  0  0  0
   -1.4681    5.0854    5.3468 C   0  0  0  0  0  0  0  0  0  0  0  0
   -0.5261    4.4773    4.5833 C   0  0  0  0  0  0  0  0  0  0  0  0
   -0.6893    3.1440    4.0657 C   0  0  0  0  0  0  0  0  0  0  0  0
   -0.7978    2.0723    3.6442 N   0  0  0  0  0  0  0  0  0  0  0  0
    0.7787    5.0391    4.3877 C   0  0  0  0  0  0  0  0  0  0  0  0
    1.8384    5.4767    4.2330 N   0  0  0  0  0  0  0  0  0  0  0  0
   -3.6704    3.6279    3.6223 C   0  0  0  0  0  0  0  0  0  0  0  0
   -3.0830    4.7730    2.4988 S   0  0  0  0  0  0  0  0  0  0  0  0
   -3.2885    3.7368    1.2101 C   0  0  0  0  0  0  0  0  0  0  0  0
   -2.9850    3.6709   -0.1175 C   0  0  0  0  0  0  0  0  0  0  0  0
   -2.4641    4.5971   -1.0232 C   0  0  0  0  0  0  0  0  0  0  0  0
   -2.2522    4.1820   -2.3750 C   0  0  0  0  0  0  0  0  0  0  0  0
   -1.6967    5.0913   -3.2138 N   0  0  0  0  0  0  0  0  0  0  0  0
   -1.5443    6.3717   -2.1798 S   0  0  0  0  0  0  0  0  0  0  0  0
   -2.1096    5.8639   -0.7050 N   0  0  0  0  0  0  0  0  0  0  0  0
   -2.5068    2.8443   -2.7229 C   0  0  0  0  0  0  0  0  0  0  0  0
   -1.9897    2.1132   -3.7589 C   0  0  0  0  0  0  0  0  0  0  0  0
   -0.8381    2.4442   -4.9582 S   0  0  0  0  0  0  0  0  0  0  0  0
   -0.3276    0.8242   -4.9818 C   0  0  0  0  0  0  0  0  0  0  0  0
    0.7889    0.2077   -5.5556 C   0  0  0  0  0  0  0  0  0  0  0  0
    1.6661    0.8799   -6.5837 C   0  0  0  0  0  0  0  0  0  0  0  0
    1.4045    0.3006   -7.9733 C   0  0  0  0  0  0  0  0  0  0  0  0
    1.0172   -1.0740   -4.9999 C   0  0  0  0  0  0  0  0  0  0  0  0
   -0.1681   -1.3548   -3.8021 S   0  0  0  0  0  0  0  0  0  0  0  0
   -0.9809    0.0884   -4.0312 C   0  0  0  0  0  0  0  0  0  0  0  0
   -1.9438    0.8158   -3.3389 C   0  0  0  0  0  0  0  0  0  0  0  0
   -2.4854    0.6450   -2.1035 N   0  0  0  0  0  0  0  0  0  0  0  0
   -2.9190    1.9025   -1.7649 C   0  0  0  0  0  0  0  0  0  0  0  0
   -3.3032    2.3662   -0.4881 C   0  0  0  0  0  0  0  0  0  0  0  0
   -3.9207    1.6916    0.5260 N   0  0  0  0  0  0  0  0  0  0  0  0
   -3.8359    2.5581    1.5783 C   0  0  0  0  0  0  0  0  0  0  0  0
   -4.1201    2.4637    2.9564 C   0  0  0  0  0  0  0  0  0  0  0  0
   -4.6724    1.2556    3.6782 C   0  0  0  0  0  0  0  0  0  0  0  0
   -3.5466    0.4049    4.2698 C   0  0  0  0  0  0  0  0  0  0  0  0
   -4.9381    0.6487    0.3285 C   0  0  0  0  0  0  0  0  0  0  0  0
   -6.3538    1.2357    0.4096 C   0  0  0  0  0  0  0  0  0  0  0  0
   -2.0905   -0.4274   -1.1724 C   0  0  0  0  0  0  0  0  0  0  0  0
   -0.7927   -0.0763   -0.4499 C   0  0  0  0  0  0  0  0  0  0  0  0
    2.2543   -1.8744   -5.2264 C   0  0  0  0  0  0  0  0  0  0  0  0
    2.5741   -3.0674   -4.6793 C   0  0  0  0  0  0  0  0  0  0  0  0
    1.7464   -3.9131   -3.8073 C   0  0  0  0  0  0  0  0  0  0  0  0
    0.5152   -4.1353   -3.9472 O   0  0  0  0  0  0  0  0  0  0  0  0
    2.6168   -4.6104   -2.8815 C   0  0  0  0  0  0  0  0  0  0  0  0
    2.2439   -5.3658   -1.7460 C   0  0  0  0  0  0  0  0  0  0  0  0
    3.3173   -5.7718   -0.9689 C   0  0  0  0  0  0  0  0  0  0  0  0
    4.6788   -5.4532   -1.2888 C   0  0  0  0  0  0  0  0  0  0  0  0
    5.0513   -4.7398   -2.4161 C   0  0  0  0  0  0  0  0  0  0  0  0
    3.9617   -4.3374   -3.2385 C   0  0  0  0  0  0  0  0  0  0  0  0
    3.9762   -3.5314   -4.4840 C   0  0  0  0  0  0  0  0  0  0  0  0
    4.9856   -3.4515   -5.3862 C   0  0  0  0  0  0  0  0  0  0  0  0
    4.7851   -2.9159   -6.7102 C   0  0  0  0  0  0  0  0  0  0  0  0
    4.6237   -2.4942   -7.7782 N   0  0  0  0  0  0  0  0  0  0  0  0
    6.2776   -4.0384   -5.1469 C   0  0  0  0  0  0  0  0  0  0  0  0
    7.3249   -4.5055   -4.9602 N   0  0  0  0  0  0  0  0  0  0  0  0
    5.1495   -6.1575   -0.0493 C   0  0  0  0  0  0  0  0  0  0  0  0
    5.8360   -7.5439   -0.2140 C   0  0  0  0  0  0  0  0  0  0  0  0
    5.2900   -8.2416   -1.4360 C   0  0  0  0  0  0  0  0  0  0  0  0
    4.0238   -8.5555   -1.1575 C   0  0  0  0  0  0  0  0  0  0  0  0
    3.7515   -8.0571    0.2454 C   0  0  0  0  0  0  0  0  0  0  0  0
    5.1090   -8.3322    0.8635 C   0  0  0  0  0  0  0  0  0  0  0  0
    3.7594   -6.4993    0.2669 C   0  0  0  0  0  0  0  0  0  0  0  0
   -4.5730    3.4667    5.6036 H   0  0  0  0  0  0  0  0  0  0  0  0
   -0.9280    8.6317    9.3100 H   0  0  0  0  0  0  0  0  0  0  0  0
    0.3429    7.3673    5.3945 H   0  0  0  0  0  0  0  0  0  0  0  0
    2.7406    0.7686   -6.3237 H   0  0  0  0  0  0  0  0  0  0  0  0
    1.4669    1.9716   -6.6107 H   0  0  0  0  0  0  0  0  0  0  0  0
    0.3650    0.5417   -8.2945 H   0  0  0  0  0  0  0  0  0  0  0  0
    1.5557   -0.8037   -7.9778 H   0  0  0  0  0  0  0  0  0  0  0  0
    2.1083    0.7596   -8.6996 H   0  0  0  0  0  0  0  0  0  0  0  0
   -5.3482    1.5834    4.4983 H   0  0  0  0  0  0  0  0  0  0  0  0
   -5.2911    0.6327    3.0169 H   0  0  0  0  0  0  0  0  0  0  0  0
   -2.9577    0.9957    5.0099 H   0  0  0  0  0  0  0  0  0  0  0  0
   -3.9883   -0.4717    4.7809 H   0  0  0  0  0  0  0  0  0  0  0  0
   -2.8654    0.0550    3.4677 H   0  0  0  0  0  0  0  0  0  0  0  0
   -4.8512    0.2161   -0.6914 H   0  0  0  0  0  0  0  0  0  0  0  0
   -4.7943   -0.1719    1.0684 H   0  0  0  0  0  0  0  0  0  0  0  0
   -7.0952    0.4143    0.2901 H   0  0  0  0  0  0  0  0  0  0  0  0
   -6.5134    1.9820   -0.3982 H   0  0  0  0  0  0  0  0  0  0  0  0
   -6.5354    1.7300    1.3847 H   0  0  0  0  0  0  0  0  0  0  0  0
   -2.8634   -0.6216   -0.4126 H   0  0  0  0  0  0  0  0  0  0  0  0
   -1.9618   -1.3808   -1.7200 H   0  0  0  0  0  0  0  0  0  0  0  0
   -0.4564   -0.9502    0.1524 H   0  0  0  0  0  0  0  0  0  0  0  0
   -0.0000    0.2018   -1.1794 H   0  0  0  0  0  0  0  0  0  0  0  0
   -0.9512    0.7854    0.2301 H   0  0  0  0  0  0  0  0  0  0  0  0
    3.0436   -1.3539   -5.7434 H   0  0  0  0  0  0  0  0  0  0  0  0
    1.2139   -5.5672   -1.4857 H   0  0  0  0  0  0  0  0  0  0  0  0
    6.0873   -4.5025   -2.6048 H   0  0  0  0  0  0  0  0  0  0  0  0
    5.6152   -5.4794    0.6999 H   0  0  0  0  0  0  0  0  0  0  0  0
    6.9452   -7.5261   -0.1391 H   0  0  0  0  0  0  0  0  0  0  0  0
    5.8395   -8.5334   -2.3238 H   0  0  0  0  0  0  0  0  0  0  0  0
    3.3583   -9.1297   -1.7989 H   0  0  0  0  0  0  0  0  0  0  0  0
    2.8913   -8.5364    0.7556 H   0  0  0  0  0  0  0  0  0  0  0  0
    5.3790   -9.4131    0.8890 H   0  0  0  0  0  0  0  0  0  0  0  0
    5.2417   -7.9038    1.8823 H   0  0  0  0  0  0  0  0  0  0  0  0
    3.3829   -6.0451    1.2089 H   0  0  0  0  0  0  0  0  0  0  0  0
  1  2  2  3
  2  3  1  0
  3  4  2  0
  3  5  1  0
  5  6  2  0
  6  7  1  0
  6  8  1  0
  8  9  2  0
  9 10  1  0
  9 11  1  0
 11 12  2  0
 12 13  1  0
 13 14  2  3
 14 15  1  0
 15 16  3  0
 14 17  1  0
 17 18  3  0
  1 19  1  0
 19 20  1  0
 20 21  1  0
 21 22  1  0
 22 23  1  0
 23 24  1  0
 24 25  2  0
 25 26  1  0
 26 27  1  0
 24 28  1  0
 28 29  1  0
 29 30  1  0
 30 31  1  0
 31 32  1  0
 32 33  1  0
 33 34  1  0
 32 35  2  0
 35 36  1  0
 36 37  1  0
 37 38  1  0
 38 39  1  0
 39 40  1  0
 40 41  1  0
 41 42  1  0
 42 43  1  0
 43 44  1  0
 44 45  1  0
 45 46  1  0
 42 47  1  0
 47 48  1  0
 39 49  1  0
 49 50  1  0
 35 51  1  0
 51 52  2  3
 52 53  1  0
 53 54  2  0
 53 55  1  0
 55 56  2  0
 56 57  1  0
 57 58  2  0
 58 59  1  0
 59 60  2  0
 60 61  1  0
 61 62  2  3
 62 63  1  0
 63 64  3  0
 62 65  1  0
 65 66  3  0
 58 67  1  0
 67 68  1  0
 68 69  1  0
 69 70  2  0
 70 71  1  0
 71 72  1  0
 71 73  1  0
 13  2  1  0
 44 19  2  0
 61 52  1  0
 73 67  1  0
 12  5  1  0
 43 21  2  0
 60 55  1  0
 72 68  1  0
 41 22  2  0
 73 57  1  0
 27 23  2  0
 40 28  2  0
 38 29  2  0
 37 31  2  0
  1 74  1  0
  8 75  1  0
 11 76  1  0
 33 77  1  0
 33 78  1  0
 34 79  1  0
 34 80  1  0
 34 81  1  0
 45 82  1  0
 45 83  1  0
 46 84  1  0
 46 85  1  0
 46 86  1  0
 47 87  1  0
 47 88  1  0
 48 89  1  0
 48 90  1  0
 48 91  1  0
 49 92  1  0
 49 93  1  0
 50 94  1  0
 50 95  1  0
 50 96  1  0
 51 97  1  0
 56 98  1  0
 59 99  1  0
 67100  1  0
 68101  1  0
 69102  1  0
 70103  1  0
 71104  1  0
 72105  1  0
 72106  1  0
 73107  1  0
M  END

