
     RDKit          3D

112123  0  0  0  0  0  0  0  0999 V2000
   -0.4086    9.2279   -3.1866 C   0  0  0  0  0  0  0  0  0  0  0  0
   -0.0714    9.9654   -4.2613 C   0  0  0  0  0  0  0  0  0  0  0  0
   -0.1885    9.5356   -5.6626 C   0  0  0  0  0  0  0  0  0  0  0  0
   -0.4642    8.3745   -6.0675 O   0  0  0  0  0  0  0  0  0  0  0  0
   -0.0983   10.7102   -6.5118 C   0  0  0  0  0  0  0  0  0  0  0  0
   -0.2358   10.8003   -7.9035 C   0  0  0  0  0  0  0  0  0  0  0  0
   -0.4862    9.3807   -8.9137 Cl  0  0  0  0  0  0  0  0  0  0  0  0
   -0.1910   12.0713   -8.4972 C   0  0  0  0  0  0  0  0  0  0  0  0
   -0.0392   13.2215   -7.7040 C   0  0  0  0  0  0  0  0  0  0  0  0
   -0.0320   14.9462   -8.5242 Br  0  0  0  0  0  0  0  0  0  0  0  0
    0.0820   13.1113   -6.3099 C   0  0  0  0  0  0  0  0  0  0  0  0
    0.0785   11.8359   -5.7188 C   0  0  0  0  0  0  0  0  0  0  0  0
    0.1860   11.4368   -4.2871 C   0  0  0  0  0  0  0  0  0  0  0  0
    0.6700   12.1879   -3.2616 C   0  0  0  0  0  0  0  0  0  0  0  0
    0.9976   11.6175   -1.9800 C   0  0  0  0  0  0  0  0  0  0  0  0
    1.2735   11.1664   -0.9504 N   0  0  0  0  0  0  0  0  0  0  0  0
    1.0216   13.5756   -3.4050 C   0  0  0  0  0  0  0  0  0  0  0  0
    1.3105   14.6914   -3.5047 N   0  0  0  0  0  0  0  0  0  0  0  0
   -0.4939    7.7598   -3.1870 C   0  0  0  0  0  0  0  0  0  0  0  0
   -1.5652    6.8758   -2.1869 S   0  0  0  0  0  0  0  0  0  0  0  0
   -0.8785    5.4095   -2.6104 C   0  0  0  0  0  0  0  0  0  0  0  0
   -0.8697    4.1059   -2.1895 C   0  0  0  0  0  0  0  0  0  0  0  0
    0.2267    3.5318   -2.8341 C   0  0  0  0  0  0  0  0  0  0  0  0
    0.8643    4.4382   -3.6251 N   0  0  0  0  0  0  0  0  0  0  0  0
    0.1662    5.5799   -3.4447 C   0  0  0  0  0  0  0  0  0  0  0  0
    0.4436    6.8982   -3.7842 C   0  0  0  0  0  0  0  0  0  0  0  0
    2.1518    4.2910   -4.2970 C   0  0  0  0  0  0  0  0  0  0  0  0
    0.6438    2.2338   -2.5229 C   0  0  0  0  0  0  0  0  0  0  0  0
   -0.1235    1.5325   -1.5796 C   0  0  0  0  0  0  0  0  0  0  0  0
    0.1236    0.2492   -0.9562 C   0  0  0  0  0  0  0  0  0  0  0  0
   -0.6938    0.0979    0.0601 C   0  0  0  0  0  0  0  0  0  0  0  0
   -1.6665    1.2472    0.2531 C   0  0  0  0  0  0  0  0  0  0  0  0
   -3.1192    0.7286    0.0524 C   0  0  0  0  0  0  0  0  0  0  0  0
   -4.2200    1.7786    0.2161 C   0  0  0  0  0  0  0  0  0  0  0  0
   -1.4034    2.0187    1.5824 C   0  0  0  0  0  0  0  0  0  0  0  0
   -1.7058    1.2532    2.8693 C   0  0  0  0  0  0  0  0  0  0  0  0
   -1.2078    2.1205   -0.9104 C   0  0  0  0  0  0  0  0  0  0  0  0
   -1.5924    3.4465   -1.1957 C   0  0  0  0  0  0  0  0  0  0  0  0
   -0.4505   -1.1923    0.6790 C   0  0  0  0  0  0  0  0  0  0  0  0
    0.6195   -1.7832   -0.0076 C   0  0  0  0  0  0  0  0  0  0  0  0
    1.0820   -0.9090   -1.1645 C   0  0  0  0  0  0  0  0  0  0  0  0
    0.7949   -1.6693   -2.4934 C   0  0  0  0  0  0  0  0  0  0  0  0
    1.2787   -0.9936   -3.7774 C   0  0  0  0  0  0  0  0  0  0  0  0
    2.5442   -0.4153   -0.9695 C   0  0  0  0  0  0  0  0  0  0  0  0
    3.6122   -1.5143   -0.9774 C   0  0  0  0  0  0  0  0  0  0  0  0
    1.0380   -3.0907    0.3030 C   0  0  0  0  0  0  0  0  0  0  0  0
    0.3692   -3.7274    1.3455 C   0  0  0  0  0  0  0  0  0  0  0  0
    0.5023   -4.9716    1.8918 C   0  0  0  0  0  0  0  0  0  0  0  0
    1.3957   -6.3708    1.6929 S   0  0  0  0  0  0  0  0  0  0  0  0
    0.5357   -7.1712    2.9379 C   0  0  0  0  0  0  0  0  0  0  0  0
   -0.4600   -6.3435    3.4852 C   0  0  0  0  0  0  0  0  0  0  0  0
   -0.4362   -5.1053    2.8513 C   0  0  0  0  0  0  0  0  0  0  0  0
   -1.2052   -3.9984    2.9630 N   0  0  0  0  0  0  0  0  0  0  0  0
   -2.3237   -3.7617    3.8704 C   0  0  0  0  0  0  0  0  0  0  0  0
   -0.6965   -3.1463    2.0305 C   0  0  0  0  0  0  0  0  0  0  0  0
   -1.1553   -1.8655    1.6964 C   0  0  0  0  0  0  0  0  0  0  0  0
    0.7534   -8.5754    3.2982 C   0  0  0  0  0  0  0  0  0  0  0  0
    1.5429   -8.9484    4.3192 C   0  0  0  0  0  0  0  0  0  0  0  0
    2.3572   -8.0642    5.1591 C   0  0  0  0  0  0  0  0  0  0  0  0
    2.2161   -6.8182    5.2752 O   0  0  0  0  0  0  0  0  0  0  0  0
    3.3955   -8.8679    5.7930 C   0  0  0  0  0  0  0  0  0  0  0  0
    4.5130   -8.4420    6.5206 C   0  0  0  0  0  0  0  0  0  0  0  0
    4.6772   -6.7567    7.0127 Cl  0  0  0  0  0  0  0  0  0  0  0  0
    5.5109   -9.3887    6.8272 C   0  0  0  0  0  0  0  0  0  0  0  0
    6.9284   -8.8951    7.7540 Cl  0  0  0  0  0  0  0  0  0  0  0  0
    5.4136  -10.7101    6.3294 C   0  0  0  0  0  0  0  0  0  0  0  0
    6.7357  -11.8460    6.5960 Cl  0  0  0  0  0  0  0  0  0  0  0  0
    4.2878  -11.1090    5.5778 C   0  0  0  0  0  0  0  0  0  0  0  0
    4.3341  -12.6273    4.6793 Cl  0  0  0  0  0  0  0  0  0  0  0  0
    3.2321  -10.1924    5.4095 C   0  0  0  0  0  0  0  0  0  0  0  0
    1.9640  -10.3346    4.6430 C   0  0  0  0  0  0  0  0  0  0  0  0
    1.1285  -11.4031    4.6837 C   0  0  0  0  0  0  0  0  0  0  0  0
   -0.1877  -11.3644    4.0963 C   0  0  0  0  0  0  0  0  0  0  0  0
   -1.2476  -11.3382    3.6318 N   0  0  0  0  0  0  0  0  0  0  0  0
    1.3952  -12.5480    5.5192 C   0  0  0  0  0  0  0  0  0  0  0  0
    1.5991  -13.4674    6.1933 N   0  0  0  0  0  0  0  0  0  0  0  0
   -0.6502    9.7165   -2.2565 H   0  0  0  0  0  0  0  0  0  0  0  0
   -0.3015   12.1698   -9.5699 H   0  0  0  0  0  0  0  0  0  0  0  0
    0.1549   14.0162   -5.7285 H   0  0  0  0  0  0  0  0  0  0  0  0
    1.2988    7.2196   -4.3621 H   0  0  0  0  0  0  0  0  0  0  0  0
    2.2411    3.2763   -4.7372 H   0  0  0  0  0  0  0  0  0  0  0  0
    2.9735    4.4529   -3.5665 H   0  0  0  0  0  0  0  0  0  0  0  0
    2.2426    5.0310   -5.1203 H   0  0  0  0  0  0  0  0  0  0  0  0
    1.5465    1.8280   -2.9429 H   0  0  0  0  0  0  0  0  0  0  0  0
   -3.2112    0.2837   -0.9650 H   0  0  0  0  0  0  0  0  0  0  0  0
   -3.3258   -0.0905    0.7708 H   0  0  0  0  0  0  0  0  0  0  0  0
   -5.2106    1.2783    0.1380 H   0  0  0  0  0  0  0  0  0  0  0  0
   -4.1670    2.2729    1.2095 H   0  0  0  0  0  0  0  0  0  0  0  0
   -4.1670    2.5357   -0.5911 H   0  0  0  0  0  0  0  0  0  0  0  0
   -0.3362    2.3346    1.6166 H   0  0  0  0  0  0  0  0  0  0  0  0
   -2.0032    2.9540    1.5908 H   0  0  0  0  0  0  0  0  0  0  0  0
   -2.7216    0.8060    2.8485 H   0  0  0  0  0  0  0  0  0  0  0  0
   -0.9350    0.4767    3.0474 H   0  0  0  0  0  0  0  0  0  0  0  0
   -1.6647    1.9609    3.7245 H   0  0  0  0  0  0  0  0  0  0  0  0
   -2.3572    3.9594   -0.6303 H   0  0  0  0  0  0  0  0  0  0  0  0
    1.2740   -2.6719   -2.4602 H   0  0  0  0  0  0  0  0  0  0  0  0
   -0.2993   -1.8481   -2.5883 H   0  0  0  0  0  0  0  0  0  0  0  0
    0.7600   -0.0279   -3.9421 H   0  0  0  0  0  0  0  0  0  0  0  0
    2.3800   -0.8409   -3.7566 H   0  0  0  0  0  0  0  0  0  0  0  0
    1.0501   -1.6502   -4.6408 H   0  0  0  0  0  0  0  0  0  0  0  0
    2.8001    0.3171   -1.7612 H   0  0  0  0  0  0  0  0  0  0  0  0
    2.6175    0.1310   -0.0004 H   0  0  0  0  0  0  0  0  0  0  0  0
    4.6142   -1.0468   -1.0642 H   0  0  0  0  0  0  0  0  0  0  0  0
    3.4828   -2.2049   -1.8375 H   0  0  0  0  0  0  0  0  0  0  0  0
    3.5892   -2.0884   -0.0260 H   0  0  0  0  0  0  0  0  0  0  0  0
    1.8167   -3.5952   -0.2492 H   0  0  0  0  0  0  0  0  0  0  0  0
   -1.1567   -6.6434    4.2575 H   0  0  0  0  0  0  0  0  0  0  0  0
   -3.2285   -3.4832    3.2888 H   0  0  0  0  0  0  0  0  0  0  0  0
   -2.5502   -4.6718    4.4644 H   0  0  0  0  0  0  0  0  0  0  0  0
   -2.0702   -2.9360    4.5664 H   0  0  0  0  0  0  0  0  0  0  0  0
   -2.0186   -1.4366    2.1850 H   0  0  0  0  0  0  0  0  0  0  0  0
    0.3929   -9.3160    2.6019 H   0  0  0  0  0  0  0  0  0  0  0  0
  1  2  2  3
  2  3  1  0
  3  4  2  0
  3  5  1  0
  5  6  2  0
  6  7  1  0
  6  8  1  0
  8  9  2  0
  9 10  1  0
  9 11  1  0
 11 12  2  0
 12 13  1  0
 13 14  2  3
 14 15  1  0
 15 16  3  0
 14 17  1  0
 17 18  3  0
  1 19  1  0
 19 20  1  0
 20 21  1  0
 21 22  1  0
 22 23  2  0
 23 24  1  0
 24 25  1  0
 25 26  1  0
 24 27  1  0
 23 28  1  0
 28 29  2  0
 29 30  1  0
 30 31  2  0
 31 32  1  0
 32 33  1  0
 33 34  1  0
 32 35  1  0
 35 36  1  0
 32 37  1  0
 37 38  2  0
 31 39  1  0
 39 40  2  0
 40 41  1  0
 41 42  1  0
 42 43  1  0
 41 44  1  0
 44 45  1  0
 40 46  1  0
 46 47  2  0
 47 48  1  0
 48 49  1  0
 49 50  1  0
 50 51  2  0
 51 52  1  0
 52 53  1  0
 53 54  1  0
 53 55  1  0
 55 56  2  0
 50 57  1  0
 57 58  2  3
 58 59  1  0
 59 60  2  0
 59 61  1  0
 61 62  2  0
 62 63  1  0
 62 64  1  0
 64 65  1  0
 64 66  2  0
 66 67  1  0
 66 68  1  0
 68 69  1  0
 68 70  2  0
 70 71  1  0
 71 72  2  3
 72 73  1  0
 73 74  3  0
 72 75  1  0
 75 76  3  0
 13  2  1  0
 26 19  2  0
 37 29  1  0
 56 39  1  0
 71 58  1  0
 12  5  1  0
 25 21  2  0
 41 30  1  0
 55 47  1  0
 70 61  1  0
 38 22  1  0
 52 48  2  0
  1 77  1  0
  8 78  1  0
 11 79  1  0
 26 80  1  0
 27 81  1  0
 27 82  1  0
 27 83  1  0
 28 84  1  0
 33 85  1  0
 33 86  1  0
 34 87  1  0
 34 88  1  0
 34 89  1  0
 35 90  1  0
 35 91  1  0
 36 92  1  0
 36 93  1  0
 36 94  1  0
 38 95  1  0
 42 96  1  0
 42 97  1  0
 43 98  1  0
 43 99  1  0
 43100  1  0
 44101  1  0
 44102  1  0
 45103  1  0
 45104  1  0
 45105  1  0
 46106  1  0
 51107  1  0
 54108  1  0
 54109  1  0
 54110  1  0
 56111  1  0
 57112  1  0
M  END

