
     RDKit          3D

 98109  0  0  0  0  0  0  0  0999 V2000
   -1.0189    6.8820    5.1155 C   0  0  0  0  0  0  0  0  0  0  0  0
   -0.0382    7.7349    4.7660 C   0  0  0  0  0  0  0  0  0  0  0  0
   -0.0807    9.1591    5.0925 C   0  0  0  0  0  0  0  0  0  0  0  0
   -0.8088    9.6899    5.9723 O   0  0  0  0  0  0  0  0  0  0  0  0
    0.7824    9.8656    4.1598 C   0  0  0  0  0  0  0  0  0  0  0  0
    0.9585   11.2443    3.9848 C   0  0  0  0  0  0  0  0  0  0  0  0
    0.1793   12.4242    5.0299 Cl  0  0  0  0  0  0  0  0  0  0  0  0
    1.7718   11.6821    2.9290 C   0  0  0  0  0  0  0  0  0  0  0  0
    2.3748   10.7541    2.0619 C   0  0  0  0  0  0  0  0  0  0  0  0
    3.4339   11.3709    0.5989 Br  0  0  0  0  0  0  0  0  0  0  0  0
    2.1851    9.3763    2.2535 C   0  0  0  0  0  0  0  0  0  0  0  0
    1.4014    8.9409    3.3313 C   0  0  0  0  0  0  0  0  0  0  0  0
    1.0519    7.5616    3.7634 C   0  0  0  0  0  0  0  0  0  0  0  0
    1.8346    6.4613    3.6205 C   0  0  0  0  0  0  0  0  0  0  0  0
    2.9735    6.4292    2.7430 C   0  0  0  0  0  0  0  0  0  0  0  0
    3.8939    6.3913    2.0407 N   0  0  0  0  0  0  0  0  0  0  0  0
    1.6774    5.3037    4.4623 C   0  0  0  0  0  0  0  0  0  0  0  0
    1.5616    4.3722    5.1377 N   0  0  0  0  0  0  0  0  0  0  0  0
   -1.3182    5.6195    4.4213 C   0  0  0  0  0  0  0  0  0  0  0  0
   -1.8951    4.2143    5.2162 S   0  0  0  0  0  0  0  0  0  0  0  0
   -1.9567    3.3567    3.7808 C   0  0  0  0  0  0  0  0  0  0  0  0
   -2.1768    2.1050    3.3125 C   0  0  0  0  0  0  0  0  0  0  0  0
   -2.4187    0.5921    4.0024 S   0  0  0  0  0  0  0  0  0  0  0  0
   -2.2282   -0.0998    2.4656 C   0  0  0  0  0  0  0  0  0  0  0  0
   -1.8413   -1.3421    2.0680 C   0  0  0  0  0  0  0  0  0  0  0  0
   -1.5026   -2.4436    2.8643 C   0  0  0  0  0  0  0  0  0  0  0  0
   -0.7312   -3.4912    2.2944 C   0  0  0  0  0  0  0  0  0  0  0  0
   -0.4045   -4.5298    3.1033 N   0  0  0  0  0  0  0  0  0  0  0  0
   -1.1041   -4.0161    4.5128 S   0  0  0  0  0  0  0  0  0  0  0  0
   -1.8131   -2.5580    4.1794 N   0  0  0  0  0  0  0  0  0  0  0  0
   -0.3805   -3.4031    0.9475 C   0  0  0  0  0  0  0  0  0  0  0  0
    0.1567   -4.3370    0.1213 C   0  0  0  0  0  0  0  0  0  0  0  0
    0.6866   -5.9137    0.2571 S   0  0  0  0  0  0  0  0  0  0  0  0
    0.7088   -6.1219   -1.4277 C   0  0  0  0  0  0  0  0  0  0  0  0
    0.2007   -4.9803   -2.0942 C   0  0  0  0  0  0  0  0  0  0  0  0
   -0.2198   -5.0391   -3.5439 C   0  0  0  0  0  0  0  0  0  0  0  0
   -1.5713   -5.7347   -3.6904 C   0  0  0  0  0  0  0  0  0  0  0  0
   -0.0500   -3.9457   -1.1550 C   0  0  0  0  0  0  0  0  0  0  0  0
   -0.6483   -2.7133   -1.2045 N   0  0  0  0  0  0  0  0  0  0  0  0
   -0.7960   -2.3521    0.1203 C   0  0  0  0  0  0  0  0  0  0  0  0
   -1.4402   -1.2229    0.7301 C   0  0  0  0  0  0  0  0  0  0  0  0
   -1.4465    0.1074    0.3585 N   0  0  0  0  0  0  0  0  0  0  0  0
   -1.9372    0.7798    1.4506 C   0  0  0  0  0  0  0  0  0  0  0  0
   -1.8864    2.1100    1.9619 C   0  0  0  0  0  0  0  0  0  0  0  0
   -1.4870    3.3724    1.5710 N   0  0  0  0  0  0  0  0  0  0  0  0
   -1.5526    4.0879    2.7275 C   0  0  0  0  0  0  0  0  0  0  0  0
   -1.2042    5.3997    3.0348 C   0  0  0  0  0  0  0  0  0  0  0  0
   -1.2528    4.0012    0.2690 C   0  0  0  0  0  0  0  0  0  0  0  0
   -2.5527    4.5807   -0.2852 C   0  0  0  0  0  0  0  0  0  0  0  0
   -0.6852    0.6965   -0.7374 C   0  0  0  0  0  0  0  0  0  0  0  0
   -1.6202    1.3656   -1.7554 C   0  0  0  0  0  0  0  0  0  0  0  0
   -1.3890   -2.1758   -2.3503 C   0  0  0  0  0  0  0  0  0  0  0  0
   -0.4538   -1.5902   -3.4200 C   0  0  0  0  0  0  0  0  0  0  0  0
    1.0820   -7.3984   -2.0544 C   0  0  0  0  0  0  0  0  0  0  0  0
    2.1569   -7.5375   -2.8538 C   0  0  0  0  0  0  0  0  0  0  0  0
    3.0353   -6.4496   -3.3042 C   0  0  0  0  0  0  0  0  0  0  0  0
    3.1074   -5.2893   -2.8168 O   0  0  0  0  0  0  0  0  0  0  0  0
    3.8087   -6.9261   -4.4281 C   0  0  0  0  0  0  0  0  0  0  0  0
    4.6733   -6.1987   -5.2473 C   0  0  0  0  0  0  0  0  0  0  0  0
    5.2471   -6.8454   -6.3496 C   0  0  0  0  0  0  0  0  0  0  0  0
    6.0836   -6.1661   -7.1720 F   0  0  0  0  0  0  0  0  0  0  0  0
    4.9324   -8.1891   -6.6224 C   0  0  0  0  0  0  0  0  0  0  0  0
    5.4623   -8.8008   -7.7090 F   0  0  0  0  0  0  0  0  0  0  0  0
    4.0593   -8.9010   -5.7853 C   0  0  0  0  0  0  0  0  0  0  0  0
    3.5150   -8.2581   -4.6621 C   0  0  0  0  0  0  0  0  0  0  0  0
    2.5653   -8.7521   -3.6242 C   0  0  0  0  0  0  0  0  0  0  0  0
    2.3280  -10.0476   -3.2938 C   0  0  0  0  0  0  0  0  0  0  0  0
    2.9090  -11.1453   -4.0185 C   0  0  0  0  0  0  0  0  0  0  0  0
    3.3728  -12.0404   -4.5865 N   0  0  0  0  0  0  0  0  0  0  0  0
    1.6190  -10.4244   -2.0983 C   0  0  0  0  0  0  0  0  0  0  0  0
    1.0569  -10.7401   -1.1369 N   0  0  0  0  0  0  0  0  0  0  0  0
   -1.7157    7.1790    5.8876 H   0  0  0  0  0  0  0  0  0  0  0  0
    1.9196   12.7425    2.7682 H   0  0  0  0  0  0  0  0  0  0  0  0
    2.6124    8.6824    1.5481 H   0  0  0  0  0  0  0  0  0  0  0  0
    0.5295   -5.6033   -4.1360 H   0  0  0  0  0  0  0  0  0  0  0  0
   -0.2626   -4.0496   -4.0079 H   0  0  0  0  0  0  0  0  0  0  0  0
   -2.3398   -5.2499   -3.0522 H   0  0  0  0  0  0  0  0  0  0  0  0
   -1.4871   -6.8018   -3.3953 H   0  0  0  0  0  0  0  0  0  0  0  0
   -1.9027   -5.6860   -4.7490 H   0  0  0  0  0  0  0  0  0  0  0  0
   -0.8704    6.1343    2.3151 H   0  0  0  0  0  0  0  0  0  0  0  0
   -0.7793    3.3317   -0.4427 H   0  0  0  0  0  0  0  0  0  0  0  0
   -0.5191    4.8279    0.3833 H   0  0  0  0  0  0  0  0  0  0  0  0
   -2.8881    5.4322    0.3462 H   0  0  0  0  0  0  0  0  0  0  0  0
   -2.3898    4.9459   -1.3205 H   0  0  0  0  0  0  0  0  0  0  0  0
   -3.3544    3.8126   -0.2938 H   0  0  0  0  0  0  0  0  0  0  0  0
   -0.0536   -0.0636   -1.2234 H   0  0  0  0  0  0  0  0  0  0  0  0
    0.0534    1.4061   -0.3186 H   0  0  0  0  0  0  0  0  0  0  0  0
   -2.1427    0.6441   -2.4018 H   0  0  0  0  0  0  0  0  0  0  0  0
   -2.4126    1.9362   -1.2391 H   0  0  0  0  0  0  0  0  0  0  0  0
   -1.0389    2.0444   -2.4128 H   0  0  0  0  0  0  0  0  0  0  0  0
   -2.0085   -2.9780   -2.7970 H   0  0  0  0  0  0  0  0  0  0  0  0
   -2.1292   -1.4358   -2.0077 H   0  0  0  0  0  0  0  0  0  0  0  0
    0.5676   -2.0153   -3.3360 H   0  0  0  0  0  0  0  0  0  0  0  0
   -0.3718   -0.4932   -3.3521 H   0  0  0  0  0  0  0  0  0  0  0  0
   -0.8539   -1.8116   -4.4301 H   0  0  0  0  0  0  0  0  0  0  0  0
    0.4279   -8.2293   -1.8526 H   0  0  0  0  0  0  0  0  0  0  0  0
    4.8854   -5.1550   -5.0491 H   0  0  0  0  0  0  0  0  0  0  0  0
    3.7978   -9.9108   -6.0499 H   0  0  0  0  0  0  0  0  0  0  0  0
  1  2  2  3
  2  3  1  0
  3  4  2  0
  3  5  1  0
  5  6  2  0
  6  7  1  0
  6  8  1  0
  8  9  2  0
  9 10  1  0
  9 11  1  0
 11 12  2  0
 12 13  1  0
 13 14  2  3
 14 15  1  0
 15 16  3  0
 14 17  1  0
 17 18  3  0
  1 19  1  0
 19 20  1  0
 20 21  1  0
 21 22  1  0
 22 23  1  0
 23 24  1  0
 24 25  1  0
 25 26  1  0
 26 27  1  0
 27 28  2  0
 28 29  1  0
 29 30  1  0
 27 31  1  0
 31 32  1  0
 32 33  1  0
 33 34  1  0
 34 35  2  0
 35 36  1  0
 36 37  1  0
 35 38  1  0
 38 39  1  0
 39 40  1  0
 40 41  1  0
 41 42  1  0
 42 43  1  0
 43 44  1  0
 44 45  1  0
 45 46  1  0
 46 47  1  0
 45 48  1  0
 48 49  1  0
 42 50  1  0
 50 51  1  0
 39 52  1  0
 52 53  1  0
 34 54  1  0
 54 55  2  3
 55 56  1  0
 56 57  2  0
 56 58  1  0
 58 59  2  0
 59 60  1  0
 60 61  1  0
 60 62  2  0
 62 63  1  0
 62 64  1  0
 64 65  2  0
 65 66  1  0
 66 67  2  3
 67 68  1  0
 68 69  3  0
 67 70  1  0
 70 71  3  0
 13  2  1  0
 47 19  2  0
 66 55  1  0
 12  5  1  0
 46 21  2  0
 65 58  1  0
 44 22  2  0
 43 24  2  0
 41 25  2  0
 30 26  2  0
 40 31  2  0
 38 32  2  0
  1 72  1  0
  8 73  1  0
 11 74  1  0
 36 75  1  0
 36 76  1  0
 37 77  1  0
 37 78  1  0
 37 79  1  0
 47 80  1  0
 48 81  1  0
 48 82  1  0
 49 83  1  0
 49 84  1  0
 49 85  1  0
 50 86  1  0
 50 87  1  0
 51 88  1  0
 51 89  1  0
 51 90  1  0
 52 91  1  0
 52 92  1  0
 53 93  1  0
 53 94  1  0
 53 95  1  0
 54 96  1  0
 59 97  1  0
 64 98  1  0
M  END

