
     RDKit          3D

 95106  0  0  0  0  0  0  0  0999 V2000
   -3.1544    1.9382    6.7890 C   0  0  0  0  0  0  0  0  0  0  0  0
   -2.9107    3.1160    7.3972 C   0  0  0  0  0  0  0  0  0  0  0  0
   -2.1444    4.2241    6.8182 C   0  0  0  0  0  0  0  0  0  0  0  0
   -1.3137    4.1347    5.8768 O   0  0  0  0  0  0  0  0  0  0  0  0
   -2.4189    5.4282    7.5755 C   0  0  0  0  0  0  0  0  0  0  0  0
   -2.0033    6.7408    7.3228 C   0  0  0  0  0  0  0  0  0  0  0  0
   -0.9504    7.1415    5.9754 Cl  0  0  0  0  0  0  0  0  0  0  0  0
   -2.4694    7.7602    8.1614 C   0  0  0  0  0  0  0  0  0  0  0  0
   -3.3401    7.4689    9.2180 C   0  0  0  0  0  0  0  0  0  0  0  0
   -3.9838    8.8685   10.3294 Br  0  0  0  0  0  0  0  0  0  0  0  0
   -3.7432    6.1460    9.4587 C   0  0  0  0  0  0  0  0  0  0  0  0
   -3.2578    5.1158    8.6337 C   0  0  0  0  0  0  0  0  0  0  0  0
   -3.5120    3.6408    8.6654 C   0  0  0  0  0  0  0  0  0  0  0  0
   -4.0140    2.9166    9.7032 C   0  0  0  0  0  0  0  0  0  0  0  0
   -4.0523    1.4803    9.6998 C   0  0  0  0  0  0  0  0  0  0  0  0
   -4.0845    0.3221    9.7201 N   0  0  0  0  0  0  0  0  0  0  0  0
   -4.4175    3.5226   10.9448 C   0  0  0  0  0  0  0  0  0  0  0  0
   -4.7377    4.0081   11.9468 N   0  0  0  0  0  0  0  0  0  0  0  0
   -2.7174    1.6409    5.4157 C   0  0  0  0  0  0  0  0  0  0  0  0
   -3.2085    2.5287    4.0324 S   0  0  0  0  0  0  0  0  0  0  0  0
   -2.3684    1.5282    3.0066 C   0  0  0  0  0  0  0  0  0  0  0  0
   -2.1976    1.2895    1.6899 C   0  0  0  0  0  0  0  0  0  0  0  0
   -2.7484    1.9176    0.2275 S   0  0  0  0  0  0  0  0  0  0  0  0
   -1.9866    0.6201   -0.5658 C   0  0  0  0  0  0  0  0  0  0  0  0
   -1.6832    0.2955   -1.8535 C   0  0  0  0  0  0  0  0  0  0  0  0
   -1.8619    1.0136   -3.0476 C   0  0  0  0  0  0  0  0  0  0  0  0
   -1.2069    0.5469   -4.2237 C   0  0  0  0  0  0  0  0  0  0  0  0
   -1.3561    1.2813   -5.3529 N   0  0  0  0  0  0  0  0  0  0  0  0
   -2.3057    2.5029   -4.7619 S   0  0  0  0  0  0  0  0  0  0  0  0
   -2.5525    2.1759   -3.1548 N   0  0  0  0  0  0  0  0  0  0  0  0
   -0.4801   -0.6440   -4.1518 C   0  0  0  0  0  0  0  0  0  0  0  0
    0.1580   -1.3674   -5.1013 C   0  0  0  0  0  0  0  0  0  0  0  0
    0.5654   -1.2292   -6.7010 S   0  0  0  0  0  0  0  0  0  0  0  0
    1.3901   -2.7241   -6.7198 C   0  0  0  0  0  0  0  0  0  0  0  0
    1.2900   -3.3510   -5.4550 C   0  0  0  0  0  0  0  0  0  0  0  0
    1.9389   -4.6677   -5.1147 C   0  0  0  0  0  0  0  0  0  0  0  0
    1.1036   -5.8506   -5.6116 C   0  0  0  0  0  0  0  0  0  0  0  0
    0.5686   -2.5286   -4.5621 C   0  0  0  0  0  0  0  0  0  0  0  0
    0.1859   -2.6406   -3.2567 N   0  0  0  0  0  0  0  0  0  0  0  0
   -0.3792   -1.4116   -2.9879 C   0  0  0  0  0  0  0  0  0  0  0  0
   -0.8825   -0.8572   -1.7774 C   0  0  0  0  0  0  0  0  0  0  0  0
   -0.5718   -1.1456   -0.4675 N   0  0  0  0  0  0  0  0  0  0  0  0
   -1.3154   -0.2483    0.2473 C   0  0  0  0  0  0  0  0  0  0  0  0
   -1.4450    0.1475    1.5875 C   0  0  0  0  0  0  0  0  0  0  0  0
   -1.1538   -0.3633    2.8211 N   0  0  0  0  0  0  0  0  0  0  0  0
   -1.7631    0.5180    3.6627 C   0  0  0  0  0  0  0  0  0  0  0  0
   -1.9460    0.5248    5.0444 C   0  0  0  0  0  0  0  0  0  0  0  0
   -0.5448   -1.6383    3.2105 C   0  0  0  0  0  0  0  0  0  0  0  0
   -1.4515   -2.8186    2.8557 C   0  0  0  0  0  0  0  0  0  0  0  0
    0.6597   -1.8041   -0.0121 C   0  0  0  0  0  0  0  0  0  0  0  0
    1.7236   -0.7817    0.3811 C   0  0  0  0  0  0  0  0  0  0  0  0
   -0.0854   -3.9346   -2.5847 C   0  0  0  0  0  0  0  0  0  0  0  0
   -1.4642   -4.0104   -1.9161 C   0  0  0  0  0  0  0  0  0  0  0  0
    2.1605   -3.2572   -7.8632 C   0  0  0  0  0  0  0  0  0  0  0  0
    3.3476   -2.7617   -8.2701 C   0  0  0  0  0  0  0  0  0  0  0  0
    4.4197   -3.6600   -8.7362 C   0  0  0  0  0  0  0  0  0  0  0  0
    4.2715   -4.7784   -9.2913 O   0  0  0  0  0  0  0  0  0  0  0  0
    5.6822   -3.0609   -8.3551 C   0  0  0  0  0  0  0  0  0  0  0  0
    7.0204   -3.3855   -8.5614 C   0  0  0  0  0  0  0  0  0  0  0  0
    7.8584   -2.3722   -8.0950 C   0  0  0  0  0  0  0  0  0  0  0  0
    6.9202   -1.0864   -7.4885 S   0  0  0  0  0  0  0  0  0  0  0  0
    5.4539   -1.8665   -7.7571 C   0  0  0  0  0  0  0  0  0  0  0  0
    4.0281   -1.5110   -7.8006 C   0  0  0  0  0  0  0  0  0  0  0  0
    3.5829   -0.2488   -7.9573 C   0  0  0  0  0  0  0  0  0  0  0  0
    4.3657    0.8768   -7.5221 C   0  0  0  0  0  0  0  0  0  0  0  0
    4.9947    1.7785   -7.1731 N   0  0  0  0  0  0  0  0  0  0  0  0
    2.4442    0.0388   -8.7929 C   0  0  0  0  0  0  0  0  0  0  0  0
    1.5405    0.2852   -9.4660 N   0  0  0  0  0  0  0  0  0  0  0  0
   -3.7627    1.1866    7.2525 H   0  0  0  0  0  0  0  0  0  0  0  0
   -2.1569    8.7827    7.9877 H   0  0  0  0  0  0  0  0  0  0  0  0
   -4.4332    5.9636   10.2553 H   0  0  0  0  0  0  0  0  0  0  0  0
    2.0820   -4.7361   -4.0166 H   0  0  0  0  0  0  0  0  0  0  0  0
    2.9495   -4.7144   -5.5796 H   0  0  0  0  0  0  0  0  0  0  0  0
    1.2684   -6.0016   -6.7001 H   0  0  0  0  0  0  0  0  0  0  0  0
    0.0221   -5.6863   -5.4440 H   0  0  0  0  0  0  0  0  0  0  0  0
    1.3989   -6.7840   -5.0835 H   0  0  0  0  0  0  0  0  0  0  0  0
   -1.5856   -0.2358    5.7235 H   0  0  0  0  0  0  0  0  0  0  0  0
   -0.3748   -1.6702    4.3127 H   0  0  0  0  0  0  0  0  0  0  0  0
    0.4736   -1.7378    2.7837 H   0  0  0  0  0  0  0  0  0  0  0  0
   -2.3746   -2.7951    3.4776 H   0  0  0  0  0  0  0  0  0  0  0  0
   -0.9132   -3.7716    3.0626 H   0  0  0  0  0  0  0  0  0  0  0  0
   -1.7399   -2.7891    1.7838 H   0  0  0  0  0  0  0  0  0  0  0  0
    1.1033   -2.3907   -0.8165 H   0  0  0  0  0  0  0  0  0  0  0  0
    0.4388   -2.5224    0.7949 H   0  0  0  0  0  0  0  0  0  0  0  0
    2.5787   -1.3171    0.8421 H   0  0  0  0  0  0  0  0  0  0  0  0
    1.3311   -0.0427    1.1193 H   0  0  0  0  0  0  0  0  0  0  0  0
    2.0746   -0.2449   -0.5305 H   0  0  0  0  0  0  0  0  0  0  0  0
   -0.1006   -4.7410   -3.3474 H   0  0  0  0  0  0  0  0  0  0  0  0
    0.7163   -4.2179   -1.8741 H   0  0  0  0  0  0  0  0  0  0  0  0
   -2.2502   -3.6318   -2.6060 H   0  0  0  0  0  0  0  0  0  0  0  0
   -1.6871   -5.0780   -1.6833 H   0  0  0  0  0  0  0  0  0  0  0  0
   -1.4923   -3.4442   -0.9587 H   0  0  0  0  0  0  0  0  0  0  0  0
    1.9115   -4.2676   -8.1658 H   0  0  0  0  0  0  0  0  0  0  0  0
    7.3581   -4.2893   -9.0527 H   0  0  0  0  0  0  0  0  0  0  0  0
    8.9355   -2.3784   -8.1673 H   0  0  0  0  0  0  0  0  0  0  0  0
  1  2  2  3
  2  3  1  0
  3  4  2  0
  3  5  1  0
  5  6  2  0
  6  7  1  0
  6  8  1  0
  8  9  2  0
  9 10  1  0
  9 11  1  0
 11 12  2  0
 12 13  1  0
 13 14  2  3
 14 15  1  0
 15 16  3  0
 14 17  1  0
 17 18  3  0
  1 19  1  0
 19 20  1  0
 20 21  1  0
 21 22  1  0
 22 23  1  0
 23 24  1  0
 24 25  1  0
 25 26  1  0
 26 27  1  0
 27 28  2  0
 28 29  1  0
 29 30  1  0
 27 31  1  0
 31 32  1  0
 32 33  1  0
 33 34  1  0
 34 35  2  0
 35 36  1  0
 36 37  1  0
 35 38  1  0
 38 39  1  0
 39 40  1  0
 40 41  1  0
 41 42  1  0
 42 43  1  0
 43 44  1  0
 44 45  1  0
 45 46  1  0
 46 47  1  0
 45 48  1  0
 48 49  1  0
 42 50  1  0
 50 51  1  0
 39 52  1  0
 52 53  1  0
 34 54  1  0
 54 55  2  3
 55 56  1  0
 56 57  2  0
 56 58  1  0
 58 59  1  0
 59 60  2  0
 60 61  1  0
 61 62  1  0
 62 63  1  0
 63 64  2  3
 64 65  1  0
 65 66  3  0
 64 67  1  0
 67 68  3  0
 13  2  1  0
 47 19  2  0
 63 55  1  0
 12  5  1  0
 46 21  2  0
 62 58  2  0
 44 22  2  0
 43 24  2  0
 41 25  2  0
 30 26  2  0
 40 31  2  0
 38 32  2  0
  1 69  1  0
  8 70  1  0
 11 71  1  0
 36 72  1  0
 36 73  1  0
 37 74  1  0
 37 75  1  0
 37 76  1  0
 47 77  1  0
 48 78  1  0
 48 79  1  0
 49 80  1  0
 49 81  1  0
 49 82  1  0
 50 83  1  0
 50 84  1  0
 51 85  1  0
 51 86  1  0
 51 87  1  0
 52 88  1  0
 52 89  1  0
 53 90  1  0
 53 91  1  0
 53 92  1  0
 54 93  1  0
 59 94  1  0
 60 95  1  0
M  END

