
     RDKit          3D

114129  0  0  0  0  0  0  0  0999 V2000
    9.7649    3.1755   -2.1437 C   0  0  0  0  0  0  0  0  0  0  0  0
   10.9402    2.6596   -1.7355 C   0  0  0  0  0  0  0  0  0  0  0  0
   11.1425    1.2960   -1.2304 C   0  0  0  0  0  0  0  0  0  0  0  0
   10.3079    0.3541   -1.2797 O   0  0  0  0  0  0  0  0  0  0  0  0
   12.4902    1.1878   -0.7082 C   0  0  0  0  0  0  0  0  0  0  0  0
   13.1006    0.0950   -0.0749 C   0  0  0  0  0  0  0  0  0  0  0  0
   12.2706   -1.4357    0.1646 Cl  0  0  0  0  0  0  0  0  0  0  0  0
   14.4195    0.2407    0.3790 C   0  0  0  0  0  0  0  0  0  0  0  0
   15.0953    1.4608    0.2191 C   0  0  0  0  0  0  0  0  0  0  0  0
   16.8829    1.6535    0.8767 Br  0  0  0  0  0  0  0  0  0  0  0  0
   14.4645    2.5426   -0.4152 C   0  0  0  0  0  0  0  0  0  0  0  0
   13.1562    2.3876   -0.9089 C   0  0  0  0  0  0  0  0  0  0  0  0
   12.2722    3.3492   -1.6383 C   0  0  0  0  0  0  0  0  0  0  0  0
   12.6525    4.5210   -2.2201 C   0  0  0  0  0  0  0  0  0  0  0  0
   11.7836    5.3093   -3.0558 C   0  0  0  0  0  0  0  0  0  0  0  0
   11.1021    5.9559   -3.7361 N   0  0  0  0  0  0  0  0  0  0  0  0
   13.9956    5.0364   -2.1445 C   0  0  0  0  0  0  0  0  0  0  0  0
   15.0686    5.4777   -2.1053 N   0  0  0  0  0  0  0  0  0  0  0  0
    8.4787    2.4636   -2.1042 C   0  0  0  0  0  0  0  0  0  0  0  0
    7.4222    2.3724   -3.4477 S   0  0  0  0  0  0  0  0  0  0  0  0
    6.2182    1.6621   -2.5291 C   0  0  0  0  0  0  0  0  0  0  0  0
    5.0166    1.0428   -2.6697 C   0  0  0  0  0  0  0  0  0  0  0  0
    3.9896    0.5147   -3.9120 S   0  0  0  0  0  0  0  0  0  0  0  0
    3.0949   -0.3593   -2.7498 C   0  0  0  0  0  0  0  0  0  0  0  0
    1.8346   -0.8690   -2.6783 C   0  0  0  0  0  0  0  0  0  0  0  0
    0.8458   -0.9536   -3.6647 C   0  0  0  0  0  0  0  0  0  0  0  0
   -0.4761   -1.3002   -3.2791 C   0  0  0  0  0  0  0  0  0  0  0  0
   -1.4233   -1.3211   -4.2518 N   0  0  0  0  0  0  0  0  0  0  0  0
   -0.4934   -0.8832   -5.5501 S   0  0  0  0  0  0  0  0  0  0  0  0
    1.0448   -0.6540   -4.9763 N   0  0  0  0  0  0  0  0  0  0  0  0
   -0.7221   -1.5894   -1.9360 C   0  0  0  0  0  0  0  0  0  0  0  0
   -1.8648   -1.9675   -1.3023 C   0  0  0  0  0  0  0  0  0  0  0  0
   -3.5096   -2.1655   -1.6499 S   0  0  0  0  0  0  0  0  0  0  0  0
   -3.8174   -2.5401   -0.0135 C   0  0  0  0  0  0  0  0  0  0  0  0
   -4.9918   -2.7730    0.6925 C   0  0  0  0  0  0  0  0  0  0  0  0
   -6.3553   -2.8158    0.0587 C   0  0  0  0  0  0  0  0  0  0  0  0
   -6.6947   -4.2263   -0.4015 C   0  0  0  0  0  0  0  0  0  0  0  0
   -4.7209   -2.9613    2.0600 C   0  0  0  0  0  0  0  0  0  0  0  0
   -3.0479   -2.8052    2.3623 S   0  0  0  0  0  0  0  0  0  0  0  0
   -2.6715   -2.5183    0.7467 C   0  0  0  0  0  0  0  0  0  0  0  0
   -1.5538   -2.1782   -0.0038 C   0  0  0  0  0  0  0  0  0  0  0  0
   -0.2408   -1.9676    0.2660 N   0  0  0  0  0  0  0  0  0  0  0  0
    0.2688   -1.5257   -0.9391 C   0  0  0  0  0  0  0  0  0  0  0  0
    1.5671   -1.0642   -1.3109 C   0  0  0  0  0  0  0  0  0  0  0  0
    2.5907   -0.5380   -0.5467 N   0  0  0  0  0  0  0  0  0  0  0  0
    3.5478   -0.2292   -1.4676 C   0  0  0  0  0  0  0  0  0  0  0  0
    4.6834    0.5772   -1.4258 C   0  0  0  0  0  0  0  0  0  0  0  0
    5.6646    0.8085   -0.5062 N   0  0  0  0  0  0  0  0  0  0  0  0
    6.5894    1.4945   -1.2352 C   0  0  0  0  0  0  0  0  0  0  0  0
    7.8840    1.9205   -0.9501 C   0  0  0  0  0  0  0  0  0  0  0  0
    5.9051    0.1100    0.7609 C   0  0  0  0  0  0  0  0  0  0  0  0
    6.0001    1.0949    1.9247 C   0  0  0  0  0  0  0  0  0  0  0  0
    2.4410    0.2122    0.7118 C   0  0  0  0  0  0  0  0  0  0  0  0
    1.2210    1.1405    0.6936 C   0  0  0  0  0  0  0  0  0  0  0  0
    0.4243   -2.3428    1.5217 C   0  0  0  0  0  0  0  0  0  0  0  0
    1.6377   -3.2379    1.2912 C   0  0  0  0  0  0  0  0  0  0  0  0
   -5.7513   -3.1953    3.0798 C   0  0  0  0  0  0  0  0  0  0  0  0
   -6.5595   -2.1977    3.4806 C   0  0  0  0  0  0  0  0  0  0  0  0
   -6.3684   -0.7894    3.1115 C   0  0  0  0  0  0  0  0  0  0  0  0
   -5.2596   -0.2130    2.9462 O   0  0  0  0  0  0  0  0  0  0  0  0
   -7.6622   -0.1803    2.8981 C   0  0  0  0  0  0  0  0  0  0  0  0
   -7.9159    1.0567    2.2665 C   0  0  0  0  0  0  0  0  0  0  0  0
   -9.2402    1.2421    1.9184 C   0  0  0  0  0  0  0  0  0  0  0  0
  -10.2642    0.2723    2.1704 C   0  0  0  0  0  0  0  0  0  0  0  0
  -10.0230   -0.9342    2.8126 C   0  0  0  0  0  0  0  0  0  0  0  0
   -8.6680   -1.1342    3.2027 C   0  0  0  0  0  0  0  0  0  0  0  0
   -8.0178   -2.3624    3.7399 C   0  0  0  0  0  0  0  0  0  0  0  0
   -8.6076   -3.3598    4.4436 C   0  0  0  0  0  0  0  0  0  0  0  0
  -10.0254   -3.3810    4.7105 C   0  0  0  0  0  0  0  0  0  0  0  0
  -11.1639   -3.4090    4.9290 N   0  0  0  0  0  0  0  0  0  0  0  0
   -7.8313   -4.3997    5.0717 C   0  0  0  0  0  0  0  0  0  0  0  0
   -7.2022   -5.2317    5.5727 N   0  0  0  0  0  0  0  0  0  0  0  0
  -11.2627    1.1053    1.4153 C   0  0  0  0  0  0  0  0  0  0  0  0
  -11.6618    0.6337   -0.0225 C   0  0  0  0  0  0  0  0  0  0  0  0
  -10.5044   -0.1025   -0.6708 C   0  0  0  0  0  0  0  0  0  0  0  0
   -9.5522    0.8035   -0.8925 C   0  0  0  0  0  0  0  0  0  0  0  0
  -10.0912    2.1276   -0.3894 C   0  0  0  0  0  0  0  0  0  0  0  0
  -11.5526    1.9503   -0.7700 C   0  0  0  0  0  0  0  0  0  0  0  0
  -10.2134    2.1021    1.1689 C   0  0  0  0  0  0  0  0  0  0  0  0
    9.6916    4.1762   -2.5199 H   0  0  0  0  0  0  0  0  0  0  0  0
   14.9169   -0.5894    0.8652 H   0  0  0  0  0  0  0  0  0  0  0  0
   15.0028    3.4696   -0.4758 H   0  0  0  0  0  0  0  0  0  0  0  0
   -6.3930   -2.1311   -0.8138 H   0  0  0  0  0  0  0  0  0  0  0  0
   -7.1257   -2.4692    0.7758 H   0  0  0  0  0  0  0  0  0  0  0  0
   -6.6358   -4.9396    0.4487 H   0  0  0  0  0  0  0  0  0  0  0  0
   -7.7273   -4.2540   -0.8074 H   0  0  0  0  0  0  0  0  0  0  0  0
   -5.9883   -4.5535   -1.1987 H   0  0  0  0  0  0  0  0  0  0  0  0
    8.3647    1.8596    0.0160 H   0  0  0  0  0  0  0  0  0  0  0  0
    5.1014   -0.6275    0.9609 H   0  0  0  0  0  0  0  0  0  0  0  0
    6.8523   -0.4655    0.6927 H   0  0  0  0  0  0  0  0  0  0  0  0
    5.1205    1.7684    1.9466 H   0  0  0  0  0  0  0  0  0  0  0  0
    6.0440    0.5366    2.8875 H   0  0  0  0  0  0  0  0  0  0  0  0
    6.9191    1.7153    1.8395 H   0  0  0  0  0  0  0  0  0  0  0  0
    2.4434   -0.4687    1.5791 H   0  0  0  0  0  0  0  0  0  0  0  0
    3.3074    0.8807    0.8625 H   0  0  0  0  0  0  0  0  0  0  0  0
    1.3116    1.8972    1.5005 H   0  0  0  0  0  0  0  0  0  0  0  0
    0.2801    0.5792    0.8613 H   0  0  0  0  0  0  0  0  0  0  0  0
    1.1570    1.6706   -0.2832 H   0  0  0  0  0  0  0  0  0  0  0  0
    0.6455   -1.4500    2.1270 H   0  0  0  0  0  0  0  0  0  0  0  0
   -0.2680   -2.9340    2.1503 H   0  0  0  0  0  0  0  0  0  0  0  0
    2.0544   -3.5554    2.2682 H   0  0  0  0  0  0  0  0  0  0  0  0
    2.4363   -2.7190    0.7332 H   0  0  0  0  0  0  0  0  0  0  0  0
    1.3399   -4.1506    0.7322 H   0  0  0  0  0  0  0  0  0  0  0  0
   -6.0610   -4.2240    3.1995 H   0  0  0  0  0  0  0  0  0  0  0  0
   -7.1329    1.7456    1.9772 H   0  0  0  0  0  0  0  0  0  0  0  0
  -10.7965   -1.6830    2.9028 H   0  0  0  0  0  0  0  0  0  0  0  0
  -12.1040    1.4798    2.0389 H   0  0  0  0  0  0  0  0  0  0  0  0
  -12.6428    0.1198   -0.0982 H   0  0  0  0  0  0  0  0  0  0  0  0
  -10.4609   -1.1479   -0.9609 H   0  0  0  0  0  0  0  0  0  0  0  0
   -8.6010    0.6226   -1.3863 H   0  0  0  0  0  0  0  0  0  0  0  0
   -9.5955    3.0276   -0.8092 H   0  0  0  0  0  0  0  0  0  0  0  0
  -12.2197    2.7555   -0.3716 H   0  0  0  0  0  0  0  0  0  0  0  0
  -11.7066    1.8462   -1.8718 H   0  0  0  0  0  0  0  0  0  0  0  0
  -10.4130    3.0859    1.6480 H   0  0  0  0  0  0  0  0  0  0  0  0
  1  2  2  3
  2  3  1  0
  3  4  2  0
  3  5  1  0
  5  6  2  0
  6  7  1  0
  6  8  1  0
  8  9  2  0
  9 10  1  0
  9 11  1  0
 11 12  2  0
 12 13  1  0
 13 14  2  3
 14 15  1  0
 15 16  3  0
 14 17  1  0
 17 18  3  0
  1 19  1  0
 19 20  1  0
 20 21  1  0
 21 22  1  0
 22 23  1  0
 23 24  1  0
 24 25  1  0
 25 26  1  0
 26 27  1  0
 27 28  2  0
 28 29  1  0
 29 30  1  0
 27 31  1  0
 31 32  1  0
 32 33  1  0
 33 34  1  0
 34 35  1  0
 35 36  1  0
 36 37  1  0
 35 38  2  0
 38 39  1  0
 39 40  1  0
 40 41  1  0
 41 42  1  0
 42 43  1  0
 43 44  1  0
 44 45  1  0
 45 46  1  0
 46 47  1  0
 47 48  1  0
 48 49  1  0
 49 50  1  0
 48 51  1  0
 51 52  1  0
 45 53  1  0
 53 54  1  0
 42 55  1  0
 55 56  1  0
 38 57  1  0
 57 58  2  3
 58 59  1  0
 59 60  2  0
 59 61  1  0
 61 62  2  0
 62 63  1  0
 63 64  2  0
 64 65  1  0
 65 66  2  0
 66 67  1  0
 67 68  2  3
 68 69  1  0
 69 70  3  0
 68 71  1  0
 71 72  3  0
 64 73  1  0
 73 74  1  0
 74 75  1  0
 75 76  2  0
 76 77  1  0
 77 78  1  0
 77 79  1  0
 13  2  1  0
 50 19  2  0
 67 58  1  0
 79 73  1  0
 12  5  1  0
 49 21  2  0
 66 61  1  0
 78 74  1  0
 47 22  2  0
 79 63  1  0
 46 24  2  0
 44 25  2  0
 30 26  2  0
 43 31  2  0
 41 32  2  0
 40 34  2  0
  1 80  1  0
  8 81  1  0
 11 82  1  0
 36 83  1  0
 36 84  1  0
 37 85  1  0
 37 86  1  0
 37 87  1  0
 50 88  1  0
 51 89  1  0
 51 90  1  0
 52 91  1  0
 52 92  1  0
 52 93  1  0
 53 94  1  0
 53 95  1  0
 54 96  1  0
 54 97  1  0
 54 98  1  0
 55 99  1  0
 55100  1  0
 56101  1  0
 56102  1  0
 56103  1  0
 57104  1  0
 62105  1  0
 65106  1  0
 73107  1  0
 74108  1  0
 75109  1  0
 76110  1  0
 77111  1  0
 78112  1  0
 78113  1  0
 79114  1  0
M  END

