
     RDKit          3D

101113  0  0  0  0  0  0  0  0999 V2000
    3.2137    7.9610   -4.0356 C   0  0  0  0  0  0  0  0  0  0  0  0
    3.2779    7.9346   -5.3824 C   0  0  0  0  0  0  0  0  0  0  0  0
    3.1193    6.7630   -6.2507 C   0  0  0  0  0  0  0  0  0  0  0  0
    3.3802    5.5704   -5.9456 O   0  0  0  0  0  0  0  0  0  0  0  0
    2.7434    7.2252   -7.5767 C   0  0  0  0  0  0  0  0  0  0  0  0
    2.3251    6.4804   -8.6865 C   0  0  0  0  0  0  0  0  0  0  0  0
    2.2548    4.7208   -8.6544 Cl  0  0  0  0  0  0  0  0  0  0  0  0
    1.9275    7.1738   -9.8450 C   0  0  0  0  0  0  0  0  0  0  0  0
    1.9188    8.5774   -9.8638 C   0  0  0  0  0  0  0  0  0  0  0  0
    1.3225    9.5004  -11.4243 Br  0  0  0  0  0  0  0  0  0  0  0  0
    2.3329    9.3052   -8.7331 C   0  0  0  0  0  0  0  0  0  0  0  0
    2.7762    8.6111   -7.5969 C   0  0  0  0  0  0  0  0  0  0  0  0
    3.2568    9.1229   -6.2849 C   0  0  0  0  0  0  0  0  0  0  0  0
    3.8156   10.3371   -6.0461 C   0  0  0  0  0  0  0  0  0  0  0  0
    4.5340   10.6279   -4.8336 C   0  0  0  0  0  0  0  0  0  0  0  0
    5.1183   10.8639   -3.8629 N   0  0  0  0  0  0  0  0  0  0  0  0
    3.8426   11.3829   -7.0334 C   0  0  0  0  0  0  0  0  0  0  0  0
    3.8687   12.2410   -7.8117 N   0  0  0  0  0  0  0  0  0  0  0  0
    2.9860    6.8010   -3.1568 C   0  0  0  0  0  0  0  0  0  0  0  0
    3.6390    6.7103   -1.5784 S   0  0  0  0  0  0  0  0  0  0  0  0
    2.7884    5.3143   -1.2278 C   0  0  0  0  0  0  0  0  0  0  0  0
    2.6979    4.3567   -0.2747 C   0  0  0  0  0  0  0  0  0  0  0  0
    3.5036    3.9772    1.1627 S   0  0  0  0  0  0  0  0  0  0  0  0
    2.6551    2.5043    1.1916 C   0  0  0  0  0  0  0  0  0  0  0  0
    2.6620    1.3797    1.9588 C   0  0  0  0  0  0  0  0  0  0  0  0
    3.5371    0.9881    2.9806 C   0  0  0  0  0  0  0  0  0  0  0  0
    3.4653   -0.3467    3.4680 C   0  0  0  0  0  0  0  0  0  0  0  0
    4.3387   -0.6971    4.4457 N   0  0  0  0  0  0  0  0  0  0  0  0
    5.1624    0.7317    4.6058 S   0  0  0  0  0  0  0  0  0  0  0  0
    4.4907    1.7885    3.5198 N   0  0  0  0  0  0  0  0  0  0  0  0
    2.4906   -1.1967    2.9417 C   0  0  0  0  0  0  0  0  0  0  0  0
    2.1153   -2.4467    3.3208 C   0  0  0  0  0  0  0  0  0  0  0  0
    2.5295   -3.6080    4.4881 S   0  0  0  0  0  0  0  0  0  0  0  0
    1.1592   -4.5381    4.0674 C   0  0  0  0  0  0  0  0  0  0  0  0
    0.6912   -5.7920    4.4711 C   0  0  0  0  0  0  0  0  0  0  0  0
    1.4051   -6.6606    5.4736 C   0  0  0  0  0  0  0  0  0  0  0  0
    2.5244   -7.4564    4.8070 C   0  0  0  0  0  0  0  0  0  0  0  0
   -0.4605   -6.1651    3.7448 C   0  0  0  0  0  0  0  0  0  0  0  0
   -0.8309   -4.9390    2.6108 S   0  0  0  0  0  0  0  0  0  0  0  0
    0.4196   -3.9323    3.0858 C   0  0  0  0  0  0  0  0  0  0  0  0
    0.9769   -2.7371    2.6553 C   0  0  0  0  0  0  0  0  0  0  0  0
    0.5363   -1.7197    1.8693 N   0  0  0  0  0  0  0  0  0  0  0  0
    1.5517   -0.7868    1.9727 C   0  0  0  0  0  0  0  0  0  0  0  0
    1.7086    0.5153    1.3924 C   0  0  0  0  0  0  0  0  0  0  0  0
    1.2107    1.0636    0.2281 N   0  0  0  0  0  0  0  0  0  0  0  0
    1.8226    2.2819    0.1301 C   0  0  0  0  0  0  0  0  0  0  0  0
    1.8689    3.3722   -0.7716 C   0  0  0  0  0  0  0  0  0  0  0  0
    1.4523    3.6868   -2.0469 N   0  0  0  0  0  0  0  0  0  0  0  0
    2.0332    4.9010   -2.2634 C   0  0  0  0  0  0  0  0  0  0  0  0
    2.1011    5.7235   -3.3894 C   0  0  0  0  0  0  0  0  0  0  0  0
    0.9702    2.8355   -3.1431 C   0  0  0  0  0  0  0  0  0  0  0  0
    2.1180    2.0188   -3.7325 C   0  0  0  0  0  0  0  0  0  0  0  0
    0.3848    0.4229   -0.7887 C   0  0  0  0  0  0  0  0  0  0  0  0
   -1.0197    1.0442   -0.8117 C   0  0  0  0  0  0  0  0  0  0  0  0
   -0.9054   -1.4631    1.6975 C   0  0  0  0  0  0  0  0  0  0  0  0
   -1.3944   -0.3789    2.6576 C   0  0  0  0  0  0  0  0  0  0  0  0
   -1.0479   -7.5209    3.7445 C   0  0  0  0  0  0  0  0  0  0  0  0
   -2.3245   -7.8139    3.4276 C   0  0  0  0  0  0  0  0  0  0  0  0
   -3.4631   -6.8888    3.5019 C   0  0  0  0  0  0  0  0  0  0  0  0
   -3.4193   -5.6656    3.7952 O   0  0  0  0  0  0  0  0  0  0  0  0
   -4.6827   -7.6526    3.3531 C   0  0  0  0  0  0  0  0  0  0  0  0
   -5.9956   -7.1794    3.3750 C   0  0  0  0  0  0  0  0  0  0  0  0
   -7.0422   -8.1003    3.2340 C   0  0  0  0  0  0  0  0  0  0  0  0
   -6.7616   -9.4697    3.0853 C   0  0  0  0  0  0  0  0  0  0  0  0
   -8.3473  -10.8476    2.8727 I   0  0  0  0  0  0  0  0  0  0  0  0
   -5.4335   -9.9283    3.0843 C   0  0  0  0  0  0  0  0  0  0  0  0
   -4.3847   -8.9975    3.2102 C   0  0  0  0  0  0  0  0  0  0  0  0
   -2.9007   -9.1774    3.1907 C   0  0  0  0  0  0  0  0  0  0  0  0
   -2.2169  -10.2977    2.8333 C   0  0  0  0  0  0  0  0  0  0  0  0
   -2.8545  -11.5678    2.6077 C   0  0  0  0  0  0  0  0  0  0  0  0
   -3.3385  -12.6036    2.4280 N   0  0  0  0  0  0  0  0  0  0  0  0
   -0.8036  -10.2822    2.5457 C   0  0  0  0  0  0  0  0  0  0  0  0
    0.3300  -10.2770    2.3003 N   0  0  0  0  0  0  0  0  0  0  0  0
    3.2714    8.9033   -3.5175 H   0  0  0  0  0  0  0  0  0  0  0  0
    1.6101    6.6185  -10.7195 H   0  0  0  0  0  0  0  0  0  0  0  0
    2.2708   10.3799   -8.7628 H   0  0  0  0  0  0  0  0  0  0  0  0
    1.8455   -6.0253    6.2767 H   0  0  0  0  0  0  0  0  0  0  0  0
    0.6866   -7.3577    5.9559 H   0  0  0  0  0  0  0  0  0  0  0  0
    3.3068   -6.7670    4.4264 H   0  0  0  0  0  0  0  0  0  0  0  0
    2.9946   -8.1370    5.5511 H   0  0  0  0  0  0  0  0  0  0  0  0
    2.1337   -8.0645    3.9630 H   0  0  0  0  0  0  0  0  0  0  0  0
    1.5135    5.5819   -4.2852 H   0  0  0  0  0  0  0  0  0  0  0  0
    0.5450    3.4677   -3.9522 H   0  0  0  0  0  0  0  0  0  0  0  0
    0.1320    2.2070   -2.8331 H   0  0  0  0  0  0  0  0  0  0  0  0
    2.6548    1.4660   -2.9344 H   0  0  0  0  0  0  0  0  0  0  0  0
    2.8386    2.7005   -4.2409 H   0  0  0  0  0  0  0  0  0  0  0  0
    1.7232    1.2965   -4.4826 H   0  0  0  0  0  0  0  0  0  0  0  0
    0.8775    0.5103   -1.7677 H   0  0  0  0  0  0  0  0  0  0  0  0
    0.3611   -0.6696   -0.6406 H   0  0  0  0  0  0  0  0  0  0  0  0
   -1.6008    0.6245   -1.6600 H   0  0  0  0  0  0  0  0  0  0  0  0
   -0.9603    2.1471   -0.9142 H   0  0  0  0  0  0  0  0  0  0  0  0
   -1.5649    0.8523    0.1273 H   0  0  0  0  0  0  0  0  0  0  0  0
   -1.1685   -1.2373    0.6591 H   0  0  0  0  0  0  0  0  0  0  0  0
   -1.4928   -2.3763    1.9124 H   0  0  0  0  0  0  0  0  0  0  0  0
   -0.9133    0.5952    2.4354 H   0  0  0  0  0  0  0  0  0  0  0  0
   -2.4933   -0.2655    2.5534 H   0  0  0  0  0  0  0  0  0  0  0  0
   -1.1605   -0.6663    3.7047 H   0  0  0  0  0  0  0  0  0  0  0  0
   -0.3691   -8.3187    3.9937 H   0  0  0  0  0  0  0  0  0  0  0  0
   -6.2084   -6.1251    3.4983 H   0  0  0  0  0  0  0  0  0  0  0  0
   -8.0663   -7.7554    3.2348 H   0  0  0  0  0  0  0  0  0  0  0  0
   -5.2588  -10.9831    2.9920 H   0  0  0  0  0  0  0  0  0  0  0  0
  1  2  2  3
  2  3  1  0
  3  4  2  0
  3  5  1  0
  5  6  2  0
  6  7  1  0
  6  8  1  0
  8  9  2  0
  9 10  1  0
  9 11  1  0
 11 12  2  0
 12 13  1  0
 13 14  2  3
 14 15  1  0
 15 16  3  0
 14 17  1  0
 17 18  3  0
  1 19  1  0
 19 20  1  0
 20 21  1  0
 21 22  1  0
 22 23  1  0
 23 24  1  0
 24 25  1  0
 25 26  1  0
 26 27  1  0
 27 28  2  0
 28 29  1  0
 29 30  1  0
 27 31  1  0
 31 32  1  0
 32 33  1  0
 33 34  1  0
 34 35  1  0
 35 36  1  0
 36 37  1  0
 35 38  2  0
 38 39  1  0
 39 40  1  0
 40 41  1  0
 41 42  1  0
 42 43  1  0
 43 44  1  0
 44 45  1  0
 45 46  1  0
 46 47  1  0
 47 48  1  0
 48 49  1  0
 49 50  1  0
 48 51  1  0
 51 52  1  0
 45 53  1  0
 53 54  1  0
 42 55  1  0
 55 56  1  0
 38 57  1  0
 57 58  2  3
 58 59  1  0
 59 60  2  0
 59 61  1  0
 61 62  2  0
 62 63  1  0
 63 64  2  0
 64 65  1  0
 64 66  1  0
 66 67  2  0
 67 68  1  0
 68 69  2  3
 69 70  1  0
 70 71  3  0
 69 72  1  0
 72 73  3  0
 13  2  1  0
 50 19  2  0
 68 58  1  0
 12  5  1  0
 49 21  2  0
 67 61  1  0
 47 22  2  0
 46 24  2  0
 44 25  2  0
 30 26  2  0
 43 31  2  0
 41 32  2  0
 40 34  2  0
  1 74  1  0
  8 75  1  0
 11 76  1  0
 36 77  1  0
 36 78  1  0
 37 79  1  0
 37 80  1  0
 37 81  1  0
 50 82  1  0
 51 83  1  0
 51 84  1  0
 52 85  1  0
 52 86  1  0
 52 87  1  0
 53 88  1  0
 53 89  1  0
 54 90  1  0
 54 91  1  0
 54 92  1  0
 55 93  1  0
 55 94  1  0
 56 95  1  0
 56 96  1  0
 56 97  1  0
 57 98  1  0
 62 99  1  0
 63100  1  0
 66101  1  0
M  END

