
     RDKit          3D

117127  0  0  0  0  0  0  0  0999 V2000
    3.3900   -5.0108    5.0308 C   0  0  0  0  0  0  0  0  0  0  0  0
    3.0669   -5.8559    4.0304 C   0  0  0  0  0  0  0  0  0  0  0  0
    2.3114   -5.4979    2.8223 C   0  0  0  0  0  0  0  0  0  0  0  0
    1.5596   -4.4964    2.6830 O   0  0  0  0  0  0  0  0  0  0  0  0
    2.5652   -6.5001    1.8053 C   0  0  0  0  0  0  0  0  0  0  0  0
    2.1746   -6.5064    0.4599 C   0  0  0  0  0  0  0  0  0  0  0  0
    1.1732   -5.2372   -0.2275 Cl  0  0  0  0  0  0  0  0  0  0  0  0
    2.6210   -7.5536   -0.3563 C   0  0  0  0  0  0  0  0  0  0  0  0
    3.4582   -8.5536    0.1652 C   0  0  0  0  0  0  0  0  0  0  0  0
    4.1007   -9.9442   -0.9781 Br  0  0  0  0  0  0  0  0  0  0  0  0
    3.8497   -8.5222    1.5132 C   0  0  0  0  0  0  0  0  0  0  0  0
    3.3694   -7.4940    2.3408 C   0  0  0  0  0  0  0  0  0  0  0  0
    3.6279   -7.2158    3.7838 C   0  0  0  0  0  0  0  0  0  0  0  0
    4.0576   -8.0974    4.7232 C   0  0  0  0  0  0  0  0  0  0  0  0
    4.4585   -9.4411    4.4011 C   0  0  0  0  0  0  0  0  0  0  0  0
    4.7815  -10.5270    4.1600 N   0  0  0  0  0  0  0  0  0  0  0  0
    4.0123   -7.7994    6.1315 C   0  0  0  0  0  0  0  0  0  0  0  0
    3.9748   -7.5748    7.2667 N   0  0  0  0  0  0  0  0  0  0  0  0
    2.9048   -3.6281    5.0631 C   0  0  0  0  0  0  0  0  0  0  0  0
    3.5137   -2.4067    4.0788 S   0  0  0  0  0  0  0  0  0  0  0  0
    2.1977   -1.3764    4.2654 C   0  0  0  0  0  0  0  0  0  0  0  0
    1.8640   -0.2094    3.4431 C   0  0  0  0  0  0  0  0  0  0  0  0
    0.6267    0.4164    3.7028 C   0  0  0  0  0  0  0  0  0  0  0  0
   -0.1907   -0.0638    4.7360 O   0  0  0  0  0  0  0  0  0  0  0  0
   -0.1647   -1.4360    5.1817 C   0  0  0  0  0  0  0  0  0  0  0  0
   -1.0279   -2.2930    4.2100 C   0  0  0  0  0  0  0  0  0  0  0  0
   -2.4683   -1.8194    4.0376 C   0  0  0  0  0  0  0  0  0  0  0  0
   -0.6655   -1.5235    6.6544 C   0  0  0  0  0  0  0  0  0  0  0  0
   -1.6538   -0.4220    7.0566 C   0  0  0  0  0  0  0  0  0  0  0  0
    1.2591   -1.9755    5.0968 C   0  0  0  0  0  0  0  0  0  0  0  0
    1.6554   -3.2488    5.5396 C   0  0  0  0  0  0  0  0  0  0  0  0
    0.1848    1.4712    2.8964 C   0  0  0  0  0  0  0  0  0  0  0  0
    0.9429    1.8060    1.7744 C   0  0  0  0  0  0  0  0  0  0  0  0
    0.5602    2.6111    0.6399 C   0  0  0  0  0  0  0  0  0  0  0  0
    1.4997    2.4389   -0.3649 C   0  0  0  0  0  0  0  0  0  0  0  0
    2.6208    1.5068    0.0780 C   0  0  0  0  0  0  0  0  0  0  0  0
    2.1268    1.1565    1.4733 C   0  0  0  0  0  0  0  0  0  0  0  0
    2.6394    0.1807    2.3363 C   0  0  0  0  0  0  0  0  0  0  0  0
    3.9936    2.2348    0.1378 C   0  0  0  0  0  0  0  0  0  0  0  0
    4.0274    3.4422    1.0830 C   0  0  0  0  0  0  0  0  0  0  0  0
    2.6449    0.2032   -0.7915 C   0  0  0  0  0  0  0  0  0  0  0  0
    3.5394    0.2368   -2.0372 C   0  0  0  0  0  0  0  0  0  0  0  0
    1.2460    2.9330   -1.6503 C   0  0  0  0  0  0  0  0  0  0  0  0
    0.0016    3.5379   -1.9101 C   0  0  0  0  0  0  0  0  0  0  0  0
   -0.4952    3.7255   -3.2767 C   0  0  0  0  0  0  0  0  0  0  0  0
   -1.7743    4.2140   -3.5177 C   0  0  0  0  0  0  0  0  0  0  0  0
   -2.5453    4.9056   -2.3956 C   0  0  0  0  0  0  0  0  0  0  0  0
   -2.1898    4.2895   -1.1435 O   0  0  0  0  0  0  0  0  0  0  0  0
   -0.9300    3.7348   -0.8671 C   0  0  0  0  0  0  0  0  0  0  0  0
   -0.6424    3.2820    0.4248 C   0  0  0  0  0  0  0  0  0  0  0  0
   -2.1071    6.3947   -2.3249 C   0  0  0  0  0  0  0  0  0  0  0  0
   -2.5982    7.2646   -3.4823 C   0  0  0  0  0  0  0  0  0  0  0  0
   -4.0791    4.7390   -2.5745 C   0  0  0  0  0  0  0  0  0  0  0  0
   -4.8961    5.2939   -1.4044 C   0  0  0  0  0  0  0  0  0  0  0  0
   -2.2533    3.8886   -4.8044 C   0  0  0  0  0  0  0  0  0  0  0  0
   -1.3559    3.1210   -5.5428 C   0  0  0  0  0  0  0  0  0  0  0  0
    0.0282    2.8668   -4.6232 S   0  0  0  0  0  0  0  0  0  0  0  0
   -1.7235    2.2781   -6.6862 C   0  0  0  0  0  0  0  0  0  0  0  0
   -2.0762    0.9833   -6.5315 C   0  0  0  0  0  0  0  0  0  0  0  0
   -2.1255    0.2670   -5.2484 C   0  0  0  0  0  0  0  0  0  0  0  0
   -2.2304    0.7897   -4.1080 O   0  0  0  0  0  0  0  0  0  0  0  0
   -2.1100   -1.1567   -5.5145 C   0  0  0  0  0  0  0  0  0  0  0  0
   -1.9877   -2.2184   -4.6064 C   0  0  0  0  0  0  0  0  0  0  0  0
   -1.9014   -1.9543   -2.8710 Cl  0  0  0  0  0  0  0  0  0  0  0  0
   -1.9041   -3.5217   -5.1158 C   0  0  0  0  0  0  0  0  0  0  0  0
   -1.9275   -3.7442   -6.5041 C   0  0  0  0  0  0  0  0  0  0  0  0
   -1.7708   -5.5254   -7.1748 Br  0  0  0  0  0  0  0  0  0  0  0  0
   -2.0303   -2.6648   -7.3962 C   0  0  0  0  0  0  0  0  0  0  0  0
   -2.1519   -1.3628   -6.8864 C   0  0  0  0  0  0  0  0  0  0  0  0
   -2.2502   -0.0528   -7.5952 C   0  0  0  0  0  0  0  0  0  0  0  0
   -2.6343    0.1518   -8.8821 C   0  0  0  0  0  0  0  0  0  0  0  0
   -2.9024    1.4656   -9.4076 C   0  0  0  0  0  0  0  0  0  0  0  0
   -3.1292    2.5159   -9.8412 N   0  0  0  0  0  0  0  0  0  0  0  0
   -2.9378   -0.9304   -9.7797 C   0  0  0  0  0  0  0  0  0  0  0  0
   -3.1932   -1.7924  -10.5107 N   0  0  0  0  0  0  0  0  0  0  0  0
    4.0975   -5.2899    5.7951 H   0  0  0  0  0  0  0  0  0  0  0  0
    2.3390   -7.5804   -1.4012 H   0  0  0  0  0  0  0  0  0  0  0  0
    4.5371   -9.2704    1.8665 H   0  0  0  0  0  0  0  0  0  0  0  0
   -0.5548   -2.2833    3.2022 H   0  0  0  0  0  0  0  0  0  0  0  0
   -1.0473   -3.3540    4.5479 H   0  0  0  0  0  0  0  0  0  0  0  0
   -3.0645   -2.0577    4.9434 H   0  0  0  0  0  0  0  0  0  0  0  0
   -2.9283   -2.3563    3.1788 H   0  0  0  0  0  0  0  0  0  0  0  0
   -2.5093   -0.7288    3.8256 H   0  0  0  0  0  0  0  0  0  0  0  0
    0.1999   -1.4363    7.3485 H   0  0  0  0  0  0  0  0  0  0  0  0
   -1.1319   -2.5158    6.8413 H   0  0  0  0  0  0  0  0  0  0  0  0
   -2.0020   -0.6039    8.0926 H   0  0  0  0  0  0  0  0  0  0  0  0
   -1.1618    0.5738    7.0225 H   0  0  0  0  0  0  0  0  0  0  0  0
   -2.5436   -0.4024    6.3970 H   0  0  0  0  0  0  0  0  0  0  0  0
    1.0002   -3.9201    6.0797 H   0  0  0  0  0  0  0  0  0  0  0  0
   -0.7763    1.9358    3.0823 H   0  0  0  0  0  0  0  0  0  0  0  0
    3.5613   -0.3287    2.0918 H   0  0  0  0  0  0  0  0  0  0  0  0
    4.7768    1.5149    0.4650 H   0  0  0  0  0  0  0  0  0  0  0  0
    4.2660    2.5958   -0.8780 H   0  0  0  0  0  0  0  0  0  0  0  0
    3.2624    4.1929    0.7878 H   0  0  0  0  0  0  0  0  0  0  0  0
    5.0278    3.9207    1.0304 H   0  0  0  0  0  0  0  0  0  0  0  0
    3.8500    3.1279    2.1334 H   0  0  0  0  0  0  0  0  0  0  0  0
    3.0031   -0.6556   -0.1856 H   0  0  0  0  0  0  0  0  0  0  0  0
    1.6094   -0.0553   -1.1065 H   0  0  0  0  0  0  0  0  0  0  0  0
    3.3905   -0.6955   -2.6204 H   0  0  0  0  0  0  0  0  0  0  0  0
    3.3003    1.0884   -2.6977 H   0  0  0  0  0  0  0  0  0  0  0  0
    4.6105    0.2908   -1.7436 H   0  0  0  0  0  0  0  0  0  0  0  0
    1.9496    2.7784   -2.4514 H   0  0  0  0  0  0  0  0  0  0  0  0
   -1.3791    3.3703    1.2129 H   0  0  0  0  0  0  0  0  0  0  0  0
   -0.9978    6.4463   -2.2949 H   0  0  0  0  0  0  0  0  0  0  0  0
   -2.4572    6.8395   -1.3707 H   0  0  0  0  0  0  0  0  0  0  0  0
   -2.0623    8.2376   -3.4644 H   0  0  0  0  0  0  0  0  0  0  0  0
   -3.6820    7.4749   -3.3733 H   0  0  0  0  0  0  0  0  0  0  0  0
   -2.4164    6.7776   -4.4606 H   0  0  0  0  0  0  0  0  0  0  0  0
   -4.3124    3.6556   -2.6664 H   0  0  0  0  0  0  0  0  0  0  0  0
   -4.4296    5.2278   -3.5079 H   0  0  0  0  0  0  0  0  0  0  0  0
   -4.7799    6.3942   -1.3255 H   0  0  0  0  0  0  0  0  0  0  0  0
   -5.9728    5.0728   -1.5691 H   0  0  0  0  0  0  0  0  0  0  0  0
   -4.5863    4.8199   -0.4473 H   0  0  0  0  0  0  0  0  0  0  0  0
   -3.2528    4.1022   -5.1497 H   0  0  0  0  0  0  0  0  0  0  0  0
   -1.5909    2.7146   -7.6624 H   0  0  0  0  0  0  0  0  0  0  0  0
   -1.8034   -4.3605   -4.4352 H   0  0  0  0  0  0  0  0  0  0  0  0
   -1.9863   -2.8662   -8.4538 H   0  0  0  0  0  0  0  0  0  0  0  0
  1  2  2  3
  2  3  1  0
  3  4  2  0
  3  5  1  0
  5  6  2  0
  6  7  1  0
  6  8  1  0
  8  9  2  0
  9 10  1  0
  9 11  1  0
 11 12  2  0
 12 13  1  0
 13 14  2  3
 14 15  1  0
 15 16  3  0
 14 17  1  0
 17 18  3  0
  1 19  1  0
 19 20  1  0
 20 21  1  0
 21 22  1  0
 22 23  2  0
 23 24  1  0
 24 25  1  0
 25 26  1  0
 26 27  1  0
 25 28  1  0
 28 29  1  0
 25 30  1  0
 30 31  1  0
 23 32  1  0
 32 33  2  0
 33 34  1  0
 34 35  2  0
 35 36  1  0
 36 37  1  0
 37 38  2  0
 36 39  1  0
 39 40  1  0
 36 41  1  0
 41 42  1  0
 35 43  1  0
 43 44  2  0
 44 45  1  0
 45 46  2  0
 46 47  1  0
 47 48  1  0
 48 49  1  0
 49 50  2  0
 47 51  1  0
 51 52  1  0
 47 53  1  0
 53 54  1  0
 46 55  1  0
 55 56  2  0
 56 57  1  0
 56 58  1  0
 58 59  2  3
 59 60  1  0
 60 61  2  0
 60 62  1  0
 62 63  2  0
 63 64  1  0
 63 65  1  0
 65 66  2  0
 66 67  1  0
 66 68  1  0
 68 69  2  0
 69 70  1  0
 70 71  2  3
 71 72  1  0
 72 73  3  0
 71 74  1  0
 74 75  3  0
 13  2  1  0
 31 19  2  0
 37 33  1  0
 49 44  1  0
 70 59  1  0
 12  5  1  0
 30 21  2  0
 50 34  1  0
 69 62  1  0
 38 22  1  0
 57 45  1  0
  1 76  1  0
  8 77  1  0
 11 78  1  0
 26 79  1  0
 26 80  1  0
 27 81  1  0
 27 82  1  0
 27 83  1  0
 28 84  1  0
 28 85  1  0
 29 86  1  0
 29 87  1  0
 29 88  1  0
 31 89  1  0
 32 90  1  0
 38 91  1  0
 39 92  1  0
 39 93  1  0
 40 94  1  0
 40 95  1  0
 40 96  1  0
 41 97  1  0
 41 98  1  0
 42 99  1  0
 42100  1  0
 42101  1  0
 43102  1  0
 50103  1  0
 51104  1  0
 51105  1  0
 52106  1  0
 52107  1  0
 52108  1  0
 53109  1  0
 53110  1  0
 54111  1  0
 54112  1  0
 54113  1  0
 55114  1  0
 58115  1  0
 65116  1  0
 68117  1  0
M  END

