
     RDKit          3D

 97108  0  0  0  0  0  0  0  0999 V2000
   -4.9446    6.2721    0.6484 C   0  0  0  0  0  0  0  0  0  0  0  0
   -4.1319    7.2824    0.2932 C   0  0  0  0  0  0  0  0  0  0  0  0
   -4.5580    8.3607   -0.5963 C   0  0  0  0  0  0  0  0  0  0  0  0
   -5.7521    8.6387   -0.8927 O   0  0  0  0  0  0  0  0  0  0  0  0
   -3.3733    8.9855   -1.1591 C   0  0  0  0  0  0  0  0  0  0  0  0
   -3.2747    9.9723   -2.1483 C   0  0  0  0  0  0  0  0  0  0  0  0
   -4.6941   10.7190   -2.8629 Cl  0  0  0  0  0  0  0  0  0  0  0  0
   -1.9946   10.3496   -2.5881 C   0  0  0  0  0  0  0  0  0  0  0  0
   -0.8488    9.7244   -2.0616 C   0  0  0  0  0  0  0  0  0  0  0  0
    0.8766   10.2089   -2.7094 Br  0  0  0  0  0  0  0  0  0  0  0  0
   -0.9710    8.7325   -1.0741 C   0  0  0  0  0  0  0  0  0  0  0  0
   -2.2490    8.3882   -0.6080 C   0  0  0  0  0  0  0  0  0  0  0  0
   -2.6534    7.4054    0.4312 C   0  0  0  0  0  0  0  0  0  0  0  0
   -1.9204    7.0560    1.5195 C   0  0  0  0  0  0  0  0  0  0  0  0
   -2.5289    6.5138    2.7109 C   0  0  0  0  0  0  0  0  0  0  0  0
   -3.0089    6.0846    3.6745 N   0  0  0  0  0  0  0  0  0  0  0  0
   -0.5179    7.3628    1.6411 C   0  0  0  0  0  0  0  0  0  0  0  0
    0.6095    7.6023    1.7590 N   0  0  0  0  0  0  0  0  0  0  0  0
   -4.4873    4.9460    1.0953 C   0  0  0  0  0  0  0  0  0  0  0  0
   -5.1319    4.1562    2.0666 C   0  0  0  0  0  0  0  0  0  0  0  0
   -6.3507    4.5629    2.8450 C   0  0  0  0  0  0  0  0  0  0  0  0
   -7.6194    4.1323    2.1200 C   0  0  0  0  0  0  0  0  0  0  0  0
   -4.4972    2.9222    2.1989 C   0  0  0  0  0  0  0  0  0  0  0  0
   -4.7333    1.5815    3.2285 S   0  0  0  0  0  0  0  0  0  0  0  0
   -3.4282    0.7726    2.5103 C   0  0  0  0  0  0  0  0  0  0  0  0
   -2.6438   -0.3191    2.7404 C   0  0  0  0  0  0  0  0  0  0  0  0
   -2.6492   -1.2803    3.7565 C   0  0  0  0  0  0  0  0  0  0  0  0
   -1.5802   -2.2254    3.8062 C   0  0  0  0  0  0  0  0  0  0  0  0
   -1.6303   -3.1572    4.7893 N   0  0  0  0  0  0  0  0  0  0  0  0
   -3.0231   -2.6855    5.5501 S   0  0  0  0  0  0  0  0  0  0  0  0
   -3.6050   -1.3780    4.7125 N   0  0  0  0  0  0  0  0  0  0  0  0
   -0.5840   -2.1730    2.8204 C   0  0  0  0  0  0  0  0  0  0  0  0
    0.3445   -3.1035    2.4468 C   0  0  0  0  0  0  0  0  0  0  0  0
    0.6478   -4.7255    2.8393 S   0  0  0  0  0  0  0  0  0  0  0  0
    1.3992   -4.9858    1.3339 C   0  0  0  0  0  0  0  0  0  0  0  0
    1.8860   -6.1307    0.7011 C   0  0  0  0  0  0  0  0  0  0  0  0
    1.9711   -7.4809    1.3598 C   0  0  0  0  0  0  0  0  0  0  0  0
    3.4053   -7.8038    1.7664 C   0  0  0  0  0  0  0  0  0  0  0  0
    2.2801   -5.8441   -0.6213 C   0  0  0  0  0  0  0  0  0  0  0  0
    1.9207   -4.2114   -0.9862 S   0  0  0  0  0  0  0  0  0  0  0  0
    1.3491   -3.8635    0.5492 C   0  0  0  0  0  0  0  0  0  0  0  0
    0.7484   -2.7829    1.1850 C   0  0  0  0  0  0  0  0  0  0  0  0
    0.1353   -1.6670    0.7088 N   0  0  0  0  0  0  0  0  0  0  0  0
   -0.6231   -1.2442    1.7710 C   0  0  0  0  0  0  0  0  0  0  0  0
   -1.6076   -0.2316    1.8007 C   0  0  0  0  0  0  0  0  0  0  0  0
   -1.6594    0.9503    1.1097 N   0  0  0  0  0  0  0  0  0  0  0  0
   -2.8222    1.5007    1.5406 C   0  0  0  0  0  0  0  0  0  0  0  0
   -3.4188    2.7389    1.3715 C   0  0  0  0  0  0  0  0  0  0  0  0
   -3.1755    4.0847    0.4073 S   0  0  0  0  0  0  0  0  0  0  0  0
   -0.5051    1.7230    0.6219 C   0  0  0  0  0  0  0  0  0  0  0  0
    0.0084    2.6834    1.6982 C   0  0  0  0  0  0  0  0  0  0  0  0
   -0.1778   -1.4524   -0.7138 C   0  0  0  0  0  0  0  0  0  0  0  0
   -1.3020   -2.3833   -1.1667 C   0  0  0  0  0  0  0  0  0  0  0  0
    2.7606   -6.8450   -1.5923 C   0  0  0  0  0  0  0  0  0  0  0  0
    3.5945   -6.6004   -2.6185 C   0  0  0  0  0  0  0  0  0  0  0  0
    3.6626   -7.4634   -3.7972 C   0  0  0  0  0  0  0  0  0  0  0  0
    3.2119   -8.6367   -3.8837 O   0  0  0  0  0  0  0  0  0  0  0  0
    4.2467   -6.7015   -4.8823 C   0  0  0  0  0  0  0  0  0  0  0  0
    4.3855   -7.0606   -6.2241 C   0  0  0  0  0  0  0  0  0  0  0  0
    4.0300   -8.2936   -6.6586 F   0  0  0  0  0  0  0  0  0  0  0  0
    4.9017   -6.1113   -7.1172 C   0  0  0  0  0  0  0  0  0  0  0  0
    5.2366   -4.8208   -6.6671 C   0  0  0  0  0  0  0  0  0  0  0  0
    5.0784   -4.4765   -5.3154 C   0  0  0  0  0  0  0  0  0  0  0  0
    4.6032   -5.4455   -4.4174 C   0  0  0  0  0  0  0  0  0  0  0  0
    4.3643   -5.3663   -2.9514 C   0  0  0  0  0  0  0  0  0  0  0  0
    5.0819   -4.6160   -2.0776 C   0  0  0  0  0  0  0  0  0  0  0  0
    5.1648   -4.9505   -0.6765 C   0  0  0  0  0  0  0  0  0  0  0  0
    5.2437   -5.2120    0.4472 N   0  0  0  0  0  0  0  0  0  0  0  0
    5.9550   -3.5529   -2.5077 C   0  0  0  0  0  0  0  0  0  0  0  0
    6.6623   -2.6993   -2.8434 N   0  0  0  0  0  0  0  0  0  0  0  0
   -6.0100    6.3843    0.4887 H   0  0  0  0  0  0  0  0  0  0  0  0
   -1.8902   11.1086   -3.3537 H   0  0  0  0  0  0  0  0  0  0  0  0
   -0.0812    8.2312   -0.7261 H   0  0  0  0  0  0  0  0  0  0  0  0
   -6.3255    4.0988    3.8525 H   0  0  0  0  0  0  0  0  0  0  0  0
   -6.3583    5.6632    2.9880 H   0  0  0  0  0  0  0  0  0  0  0  0
   -7.6391    3.0284    1.9919 H   0  0  0  0  0  0  0  0  0  0  0  0
   -7.6794    4.6200    1.1249 H   0  0  0  0  0  0  0  0  0  0  0  0
   -8.5065    4.4374    2.7139 H   0  0  0  0  0  0  0  0  0  0  0  0
    1.3310   -7.5055    2.2673 H   0  0  0  0  0  0  0  0  0  0  0  0
    1.5895   -8.2649    0.6734 H   0  0  0  0  0  0  0  0  0  0  0  0
    3.4275   -8.7709    2.3159 H   0  0  0  0  0  0  0  0  0  0  0  0
    3.8040   -7.0077    2.4306 H   0  0  0  0  0  0  0  0  0  0  0  0
    4.0522   -7.8918    0.8689 H   0  0  0  0  0  0  0  0  0  0  0  0
    0.3451    1.0564    0.3709 H   0  0  0  0  0  0  0  0  0  0  0  0
   -0.7890    2.2924   -0.2912 H   0  0  0  0  0  0  0  0  0  0  0  0
    0.9819    3.1134    1.3826 H   0  0  0  0  0  0  0  0  0  0  0  0
    0.1498    2.1414    2.6578 H   0  0  0  0  0  0  0  0  0  0  0  0
   -0.7040    3.5161    1.8517 H   0  0  0  0  0  0  0  0  0  0  0  0
    0.7264   -1.6265   -1.3313 H   0  0  0  0  0  0  0  0  0  0  0  0
   -0.5119   -0.4203   -0.9102 H   0  0  0  0  0  0  0  0  0  0  0  0
   -1.0187   -3.4463   -1.0131 H   0  0  0  0  0  0  0  0  0  0  0  0
   -2.2247   -2.1720   -0.5852 H   0  0  0  0  0  0  0  0  0  0  0  0
   -1.5113   -2.2230   -2.2458 H   0  0  0  0  0  0  0  0  0  0  0  0
    2.3095   -7.8272   -1.5320 H   0  0  0  0  0  0  0  0  0  0  0  0
    5.0219   -6.3641   -8.1617 H   0  0  0  0  0  0  0  0  0  0  0  0
    5.6071   -4.0869   -7.3721 H   0  0  0  0  0  0  0  0  0  0  0  0
    5.2992   -3.4680   -5.0058 H   0  0  0  0  0  0  0  0  0  0  0  0
  1  2  2  3
  2  3  1  0
  3  4  2  0
  3  5  1  0
  5  6  2  0
  6  7  1  0
  6  8  1  0
  8  9  2  0
  9 10  1  0
  9 11  1  0
 11 12  2  0
 12 13  1  0
 13 14  2  3
 14 15  1  0
 15 16  3  0
 14 17  1  0
 17 18  3  0
  1 19  1  0
 19 20  2  0
 20 21  1  0
 21 22  1  0
 20 23  1  0
 23 24  1  0
 24 25  1  0
 25 26  1  0
 26 27  1  0
 27 28  1  0
 28 29  2  0
 29 30  1  0
 30 31  1  0
 28 32  1  0
 32 33  1  0
 33 34  1  0
 34 35  1  0
 35 36  1  0
 36 37  1  0
 37 38  1  0
 36 39  2  0
 39 40  1  0
 40 41  1  0
 41 42  1  0
 42 43  1  0
 43 44  1  0
 44 45  1  0
 45 46  1  0
 46 47  1  0
 47 48  1  0
 48 49  1  0
 46 50  1  0
 50 51  1  0
 43 52  1  0
 52 53  1  0
 39 54  1  0
 54 55  2  3
 55 56  1  0
 56 57  2  0
 56 58  1  0
 58 59  2  0
 59 60  1  0
 59 61  1  0
 61 62  2  0
 62 63  1  0
 63 64  2  0
 64 65  1  0
 65 66  2  3
 66 67  1  0
 67 68  3  0
 66 69  1  0
 69 70  3  0
 13  2  1  0
 49 19  1  0
 65 55  1  0
 12  5  1  0
 48 23  2  0
 64 58  1  0
 47 25  2  0
 45 26  2  0
 31 27  2  0
 44 32  2  0
 42 33  2  0
 41 35  2  0
  1 71  1  0
  8 72  1  0
 11 73  1  0
 21 74  1  0
 21 75  1  0
 22 76  1  0
 22 77  1  0
 22 78  1  0
 37 79  1  0
 37 80  1  0
 38 81  1  0
 38 82  1  0
 38 83  1  0
 50 84  1  0
 50 85  1  0
 51 86  1  0
 51 87  1  0
 51 88  1  0
 52 89  1  0
 52 90  1  0
 53 91  1  0
 53 92  1  0
 53 93  1  0
 54 94  1  0
 61 95  1  0
 62 96  1  0
 63 97  1  0
M  END

