
     RDKit          3D

163179  0  0  0  0  0  0  0  0999 V2000
    6.5858   -3.6866    4.0689 C   0  0  0  0  0  0  0  0  0  0  0  0
    6.7473   -5.0299    4.2196 C   0  0  0  0  0  0  0  0  0  0  0  0
    5.7966   -6.0164    4.7849 C   0  0  0  0  0  0  0  0  0  0  0  0
    4.9131   -5.8040    5.6564 O   0  0  0  0  0  0  0  0  0  0  0  0
    6.2246   -7.3426    4.3997 C   0  0  0  0  0  0  0  0  0  0  0  0
    5.5658   -8.5687    4.5568 C   0  0  0  0  0  0  0  0  0  0  0  0
    3.9805   -8.6853    5.3093 Cl  0  0  0  0  0  0  0  0  0  0  0  0
    6.1897   -9.7225    4.0579 C   0  0  0  0  0  0  0  0  0  0  0  0
    7.4412   -9.6265    3.4105 C   0  0  0  0  0  0  0  0  0  0  0  0
    8.2819  -11.1899    2.7157 Br  0  0  0  0  0  0  0  0  0  0  0  0
    8.0823   -8.3852    3.2646 C   0  0  0  0  0  0  0  0  0  0  0  0
    7.4561   -7.2480    3.7923 C   0  0  0  0  0  0  0  0  0  0  0  0
    7.9109   -5.8418    3.7383 C   0  0  0  0  0  0  0  0  0  0  0  0
    9.2188   -5.4880    3.7871 C   0  0  0  0  0  0  0  0  0  0  0  0
    9.6673   -4.1358    3.6168 C   0  0  0  0  0  0  0  0  0  0  0  0
   10.0323   -3.0436    3.4701 N   0  0  0  0  0  0  0  0  0  0  0  0
   10.1568   -6.3823    4.4385 C   0  0  0  0  0  0  0  0  0  0  0  0
   10.8353   -7.0458    5.0828 N   0  0  0  0  0  0  0  0  0  0  0  0
    5.4124   -2.8495    4.4292 C   0  0  0  0  0  0  0  0  0  0  0  0
    3.8533   -3.3568    4.9047 S   0  0  0  0  0  0  0  0  0  0  0  0
    3.2024   -1.8294    4.9218 C   0  0  0  0  0  0  0  0  0  0  0  0
    1.9728   -1.3275    4.6717 C   0  0  0  0  0  0  0  0  0  0  0  0
    0.4600   -2.0314    4.3656 S   0  0  0  0  0  0  0  0  0  0  0  0
    0.0009   -0.6213    3.5375 C   0  0  0  0  0  0  0  0  0  0  0  0
   -1.0882   -0.2913    2.6600 C   0  0  0  0  0  0  0  0  0  0  0  0
   -2.2132   -1.0456    2.3082 C   0  0  0  0  0  0  0  0  0  0  0  0
   -2.8932   -0.6486    1.1450 C   0  0  0  0  0  0  0  0  0  0  0  0
   -4.0626   -1.3461    0.4703 C   0  0  0  0  0  0  0  0  0  0  0  0
   -5.2846   -1.2309    1.3710 C   0  0  0  0  0  0  0  0  0  0  0  0
   -5.9576    0.0086    1.5214 C   0  0  0  0  0  0  0  0  0  0  0  0
   -7.0785    0.1125    2.3470 C   0  0  0  0  0  0  0  0  0  0  0  0
   -7.5572   -1.0163    3.0397 C   0  0  0  0  0  0  0  0  0  0  0  0
   -8.7934   -0.9385    3.9021 C   0  0  0  0  0  0  0  0  0  0  0  0
  -10.0117   -0.4427    3.1165 C   0  0  0  0  0  0  0  0  0  0  0  0
   -6.8390   -2.2194    2.9611 C   0  0  0  0  0  0  0  0  0  0  0  0
   -5.7023   -2.3162    2.1657 C   0  0  0  0  0  0  0  0  0  0  0  0
   -3.7493   -2.7809    0.0068 C   0  0  0  0  0  0  0  0  0  0  0  0
   -2.4485   -3.3380    0.0749 C   0  0  0  0  0  0  0  0  0  0  0  0
   -2.2128   -4.6542   -0.3300 C   0  0  0  0  0  0  0  0  0  0  0  0
   -3.2597   -5.4358   -0.8371 C   0  0  0  0  0  0  0  0  0  0  0  0
   -2.9904   -6.8371   -1.3115 C   0  0  0  0  0  0  0  0  0  0  0  0
   -2.5051   -6.8222   -2.7558 C   0  0  0  0  0  0  0  0  0  0  0  0
   -4.5394   -4.8789   -0.9674 C   0  0  0  0  0  0  0  0  0  0  0  0
   -4.7787   -3.5662   -0.5496 C   0  0  0  0  0  0  0  0  0  0  0  0
   -4.1927   -0.4707   -0.7498 C   0  0  0  0  0  0  0  0  0  0  0  0
   -3.2580    0.5058   -0.7838 C   0  0  0  0  0  0  0  0  0  0  0  0
   -2.4434    0.4451    0.3999 C   0  0  0  0  0  0  0  0  0  0  0  0
   -1.3880    1.2661    0.8203 C   0  0  0  0  0  0  0  0  0  0  0  0
   -0.7277    0.8876    2.0068 C   0  0  0  0  0  0  0  0  0  0  0  0
    0.4721    1.5491    2.6809 C   0  0  0  0  0  0  0  0  0  0  0  0
   -0.0805    2.5416    3.7237 C   0  0  0  0  0  0  0  0  0  0  0  0
   -1.0918    3.4515    3.3538 C   0  0  0  0  0  0  0  0  0  0  0  0
   -1.7746    4.1990    4.3191 C   0  0  0  0  0  0  0  0  0  0  0  0
   -1.4231    4.0984    5.6702 C   0  0  0  0  0  0  0  0  0  0  0  0
   -2.2217    4.8458    6.7029 C   0  0  0  0  0  0  0  0  0  0  0  0
   -1.8127    6.3189    6.7487 C   0  0  0  0  0  0  0  0  0  0  0  0
   -0.3279    3.3014    6.0410 C   0  0  0  0  0  0  0  0  0  0  0  0
    0.3496    2.5476    5.0796 C   0  0  0  0  0  0  0  0  0  0  0  0
    1.4086    2.1889    1.6556 C   0  0  0  0  0  0  0  0  0  0  0  0
    1.8134    3.5378    1.7751 C   0  0  0  0  0  0  0  0  0  0  0  0
    2.5024    4.1753    0.7452 C   0  0  0  0  0  0  0  0  0  0  0  0
    2.8275    3.4794   -0.4266 C   0  0  0  0  0  0  0  0  0  0  0  0
    3.4862    4.1897   -1.5670 C   0  0  0  0  0  0  0  0  0  0  0  0
    2.4427    4.8690   -2.4463 C   0  0  0  0  0  0  0  0  0  0  0  0
    2.4518    2.1304   -0.5527 C   0  0  0  0  0  0  0  0  0  0  0  0
    1.7706    1.4840    0.4887 C   0  0  0  0  0  0  0  0  0  0  0  0
    1.0128    0.3072    3.3959 C   0  0  0  0  0  0  0  0  0  0  0  0
    2.1579   -0.1053    4.0717 C   0  0  0  0  0  0  0  0  0  0  0  0
    3.4865    0.1818    3.9262 N   0  0  0  0  0  0  0  0  0  0  0  0
    4.0984   -0.9193    4.4409 C   0  0  0  0  0  0  0  0  0  0  0  0
    5.3673   -1.4568    4.1676 C   0  0  0  0  0  0  0  0  0  0  0  0
    4.1013    1.0890    3.0181 C   0  0  0  0  0  0  0  0  0  0  0  0
    4.6602    0.7041    1.7808 C   0  0  0  0  0  0  0  0  0  0  0  0
    5.3579    1.7650    1.2285 C   0  0  0  0  0  0  0  0  0  0  0  0
    6.1985    1.9797   -0.1962 S   0  0  0  0  0  0  0  0  0  0  0  0
    6.5817    3.6117    0.1424 C   0  0  0  0  0  0  0  0  0  0  0  0
    7.3737    4.5384   -0.7428 C   0  0  0  0  0  0  0  0  0  0  0  0
    7.6554    3.9497   -2.1213 C   0  0  0  0  0  0  0  0  0  0  0  0
    6.0672    3.9724    1.4053 C   0  0  0  0  0  0  0  0  0  0  0  0
    5.3867    2.9047    1.9721 C   0  0  0  0  0  0  0  0  0  0  0  0
    4.5474    2.6867    3.4119 S   0  0  0  0  0  0  0  0  0  0  0  0
   -3.0892    1.1112   -2.3465 S   0  0  0  0  0  0  0  0  0  0  0  0
   -4.4281    0.2413   -2.9471 C   0  0  0  0  0  0  0  0  0  0  0  0
   -4.9039   -0.6142   -1.9398 C   0  0  0  0  0  0  0  0  0  0  0  0
   -5.0196    0.2132   -4.3072 C   0  0  0  0  0  0  0  0  0  0  0  0
   -4.4950    0.5807   -5.4959 C   0  0  0  0  0  0  0  0  0  0  0  0
   -4.8824   -0.1148   -6.7244 C   0  0  0  0  0  0  0  0  0  0  0  0
   -5.8692   -0.8859   -6.8680 O   0  0  0  0  0  0  0  0  0  0  0  0
   -3.9251    0.1989   -7.7556 C   0  0  0  0  0  0  0  0  0  0  0  0
   -3.9606   -0.1945   -9.0952 C   0  0  0  0  0  0  0  0  0  0  0  0
   -3.0335    0.3378   -9.9976 C   0  0  0  0  0  0  0  0  0  0  0  0
   -3.1264   -0.0897  -11.3230 O   0  0  0  0  0  0  0  0  0  0  0  0
   -2.0831   -0.0061  -12.3055 C   0  0  0  0  0  0  0  0  0  0  0  0
   -2.1005    1.3003   -9.5402 C   0  0  0  0  0  0  0  0  0  0  0  0
   -1.2563    1.9572  -10.4609 O   0  0  0  0  0  0  0  0  0  0  0  0
   -0.5165    3.1494  -10.1855 C   0  0  0  0  0  0  0  0  0  0  0  0
   -2.0640    1.6562   -8.1656 C   0  0  0  0  0  0  0  0  0  0  0  0
   -2.9843    1.0854   -7.2731 C   0  0  0  0  0  0  0  0  0  0  0  0
   -3.3240    1.4465   -5.8561 C   0  0  0  0  0  0  0  0  0  0  0  0
   -2.9992    2.6178   -5.2739 C   0  0  0  0  0  0  0  0  0  0  0  0
   -3.9039    3.2817   -4.3725 C   0  0  0  0  0  0  0  0  0  0  0  0
   -4.6167    3.8207   -3.6328 N   0  0  0  0  0  0  0  0  0  0  0  0
   -1.7636    3.3047   -5.5488 C   0  0  0  0  0  0  0  0  0  0  0  0
   -0.7618    3.8512   -5.7545 N   0  0  0  0  0  0  0  0  0  0  0  0
    7.3616   -3.1436    3.5581 H   0  0  0  0  0  0  0  0  0  0  0  0
    5.7003  -10.6776    4.1437 H   0  0  0  0  0  0  0  0  0  0  0  0
    9.0347   -8.3127    2.7521 H   0  0  0  0  0  0  0  0  0  0  0  0
   -2.4816   -1.9524    2.8290 H   0  0  0  0  0  0  0  0  0  0  0  0
   -5.6158    0.8972    1.0064 H   0  0  0  0  0  0  0  0  0  0  0  0
   -7.5794    1.0681    2.4384 H   0  0  0  0  0  0  0  0  0  0  0  0
   -8.5980   -0.2693    4.7639 H   0  0  0  0  0  0  0  0  0  0  0  0
   -9.0399   -1.9454    4.3094 H   0  0  0  0  0  0  0  0  0  0  0  0
  -10.9377   -0.6899    3.6767 H   0  0  0  0  0  0  0  0  0  0  0  0
  -10.0691   -0.9354    2.1229 H   0  0  0  0  0  0  0  0  0  0  0  0
   -9.9584    0.6569    2.9936 H   0  0  0  0  0  0  0  0  0  0  0  0
   -7.1525   -3.0948    3.5210 H   0  0  0  0  0  0  0  0  0  0  0  0
   -5.1658   -3.2576    2.1658 H   0  0  0  0  0  0  0  0  0  0  0  0
   -1.5966   -2.7793    0.4351 H   0  0  0  0  0  0  0  0  0  0  0  0
   -1.2061   -5.0508   -0.2526 H   0  0  0  0  0  0  0  0  0  0  0  0
   -2.2166   -7.3111   -0.6609 H   0  0  0  0  0  0  0  0  0  0  0  0
   -3.9134   -7.4443   -1.2335 H   0  0  0  0  0  0  0  0  0  0  0  0
   -3.2524   -6.3055   -3.4057 H   0  0  0  0  0  0  0  0  0  0  0  0
   -2.3846   -7.8614   -3.1244 H   0  0  0  0  0  0  0  0  0  0  0  0
   -1.5354   -6.2915   -2.8429 H   0  0  0  0  0  0  0  0  0  0  0  0
   -5.3512   -5.4639   -1.3701 H   0  0  0  0  0  0  0  0  0  0  0  0
   -5.7851   -3.1783   -0.6323 H   0  0  0  0  0  0  0  0  0  0  0  0
   -1.0861    2.1328    0.2424 H   0  0  0  0  0  0  0  0  0  0  0  0
   -1.4133    3.5466    2.3225 H   0  0  0  0  0  0  0  0  0  0  0  0
   -2.5885    4.8408    3.9959 H   0  0  0  0  0  0  0  0  0  0  0  0
   -3.3057    4.7747    6.4502 H   0  0  0  0  0  0  0  0  0  0  0  0
   -2.0804    4.3914    7.7059 H   0  0  0  0  0  0  0  0  0  0  0  0
   -0.8088    6.4301    7.2177 H   0  0  0  0  0  0  0  0  0  0  0  0
   -1.7973    6.7538    5.7229 H   0  0  0  0  0  0  0  0  0  0  0  0
   -2.5519    6.8799    7.3482 H   0  0  0  0  0  0  0  0  0  0  0  0
   -0.0143    3.2459    7.0779 H   0  0  0  0  0  0  0  0  0  0  0  0
    1.1702    1.9362    5.4093 H   0  0  0  0  0  0  0  0  0  0  0  0
    1.5917    4.1311    2.6553 H   0  0  0  0  0  0  0  0  0  0  0  0
    2.7727    5.2198    0.8650 H   0  0  0  0  0  0  0  0  0  0  0  0
    4.1935    4.9598   -1.1721 H   0  0  0  0  0  0  0  0  0  0  0  0
    4.0826    3.4705   -2.1721 H   0  0  0  0  0  0  0  0  0  0  0  0
    2.9463    5.3854   -3.2880 H   0  0  0  0  0  0  0  0  0  0  0  0
    1.7283    4.1195   -2.8420 H   0  0  0  0  0  0  0  0  0  0  0  0
    1.8770    5.6282   -1.8612 H   0  0  0  0  0  0  0  0  0  0  0  0
    2.6765    1.5779   -1.4586 H   0  0  0  0  0  0  0  0  0  0  0  0
    1.4790    0.4498    0.3612 H   0  0  0  0  0  0  0  0  0  0  0  0
    6.1657   -0.9029    3.6916 H   0  0  0  0  0  0  0  0  0  0  0  0
    4.5694   -0.2862    1.3359 H   0  0  0  0  0  0  0  0  0  0  0  0
    8.3408    4.7774   -0.2492 H   0  0  0  0  0  0  0  0  0  0  0  0
    6.8174    5.4898   -0.8686 H   0  0  0  0  0  0  0  0  0  0  0  0
    6.6987    3.7251   -2.6483 H   0  0  0  0  0  0  0  0  0  0  0  0
    8.2491    3.0184   -2.0268 H   0  0  0  0  0  0  0  0  0  0  0  0
    8.2391    4.6716   -2.7364 H   0  0  0  0  0  0  0  0  0  0  0  0
    6.1736    4.9498    1.8609 H   0  0  0  0  0  0  0  0  0  0  0  0
   -5.6742   -1.3638   -2.1055 H   0  0  0  0  0  0  0  0  0  0  0  0
   -5.9135   -0.3934   -4.3677 H   0  0  0  0  0  0  0  0  0  0  0  0
   -4.7240   -0.8898   -9.4318 H   0  0  0  0  0  0  0  0  0  0  0  0
   -1.1198   -0.3502  -11.8577 H   0  0  0  0  0  0  0  0  0  0  0  0
   -2.0006    1.0421  -12.6805 H   0  0  0  0  0  0  0  0  0  0  0  0
   -2.3205   -0.6491  -13.1837 H   0  0  0  0  0  0  0  0  0  0  0  0
    0.3319    2.9209   -9.5210 H   0  0  0  0  0  0  0  0  0  0  0  0
   -0.1251    3.5460  -11.1402 H   0  0  0  0  0  0  0  0  0  0  0  0
   -1.1873    3.9074   -9.7398 H   0  0  0  0  0  0  0  0  0  0  0  0
   -1.3538    2.3800   -7.8193 H   0  0  0  0  0  0  0  0  0  0  0  0
  1  2  2  3
  2  3  1  0
  3  4  2  0
  3  5  1  0
  5  6  2  0
  6  7  1  0
  6  8  1  0
  8  9  2  0
  9 10  1  0
  9 11  1  0
 11 12  2  0
 12 13  1  0
 13 14  2  3
 14 15  1  0
 15 16  3  0
 14 17  1  0
 17 18  3  0
  1 19  1  0
 19 20  1  0
 20 21  1  0
 21 22  1  0
 22 23  1  0
 23 24  1  0
 24 25  1  0
 25 26  2  0
 26 27  1  0
 27 28  1  0
 28 29  1  0
 29 30  2  0
 30 31  1  0
 31 32  2  0
 32 33  1  0
 33 34  1  0
 32 35  1  0
 35 36  2  0
 28 37  1  0
 37 38  2  0
 38 39  1  0
 39 40  2  0
 40 41  1  0
 41 42  1  0
 40 43  1  0
 43 44  2  0
 28 45  1  0
 45 46  2  0
 46 47  1  0
 47 48  1  0
 48 49  2  0
 49 50  1  0
 50 51  1  0
 51 52  2  0
 52 53  1  0
 53 54  2  0
 54 55  1  0
 55 56  1  0
 54 57  1  0
 57 58  2  0
 50 59  1  0
 59 60  2  0
 60 61  1  0
 61 62  2  0
 62 63  1  0
 63 64  1  0
 62 65  1  0
 65 66  2  0
 50 67  1  0
 67 68  1  0
 68 69  1  0
 69 70  1  0
 70 71  1  0
 69 72  1  0
 72 73  2  0
 73 74  1  0
 74 75  1  0
 75 76  1  0
 76 77  1  0
 77 78  1  0
 76 79  2  0
 79 80  1  0
 80 81  1  0
 46 82  1  0
 82 83  1  0
 83 84  2  0
 83 85  1  0
 85 86  2  3
 86 87  1  0
 87 88  2  0
 87 89  1  0
 89 90  2  0
 90 91  1  0
 91 92  1  0
 92 93  1  0
 91 94  2  0
 94 95  1  0
 95 96  1  0
 94 97  1  0
 97 98  2  0
 98 99  1  0
 99100  2  3
100101  1  0
101102  3  0
100103  1  0
103104  3  0
 13  2  1  0
 71 19  2  0
 81 72  1  0
 99 86  1  0
 12  5  1  0
 70 21  2  0
 80 74  2  0
 98 89  1  0
 68 22  2  0
 67 24  2  0
 49 25  1  0
 58 51  1  0
 66 59  1  0
 47 27  2  0
 36 29  1  0
 44 37  1  0
 84 45  1  0
  1105  1  0
  8106  1  0
 11107  1  0
 26108  1  0
 30109  1  0
 31110  1  0
 33111  1  0
 33112  1  0
 34113  1  0
 34114  1  0
 34115  1  0
 35116  1  0
 36117  1  0
 38118  1  0
 39119  1  0
 41120  1  0
 41121  1  0
 42122  1  0
 42123  1  0
 42124  1  0
 43125  1  0
 44126  1  0
 48127  1  0
 52128  1  0
 53129  1  0
 55130  1  0
 55131  1  0
 56132  1  0
 56133  1  0
 56134  1  0
 57135  1  0
 58136  1  0
 60137  1  0
 61138  1  0
 63139  1  0
 63140  1  0
 64141  1  0
 64142  1  0
 64143  1  0
 65144  1  0
 66145  1  0
 71146  1  0
 73147  1  0
 77148  1  0
 77149  1  0
 78150  1  0
 78151  1  0
 78152  1  0
 79153  1  0
 84154  1  0
 85155  1  0
 90156  1  0
 93157  1  0
 93158  1  0
 93159  1  0
 96160  1  0
 96161  1  0
 96162  1  0
 97163  1  0
M  END

