
     RDKit          3D

106117  0  0  0  0  0  0  0  0999 V2000
   -1.5587    5.3790    4.5484 C   0  0  0  0  0  0  0  0  0  0  0  0
   -0.7479    6.2051    5.2388 C   0  0  0  0  0  0  0  0  0  0  0  0
    0.6180    5.8882    5.6769 C   0  0  0  0  0  0  0  0  0  0  0  0
    1.3383    4.9541    5.2370 O   0  0  0  0  0  0  0  0  0  0  0  0
    1.0055    6.8333    6.7049 C   0  0  0  0  0  0  0  0  0  0  0  0
    2.1560    6.8394    7.5059 C   0  0  0  0  0  0  0  0  0  0  0  0
    3.4368    5.6529    7.3061 Cl  0  0  0  0  0  0  0  0  0  0  0  0
    2.2678    7.8191    8.5014 C   0  0  0  0  0  0  0  0  0  0  0  0
    1.2339    8.7505    8.7026 C   0  0  0  0  0  0  0  0  0  0  0  0
    1.3862   10.0479   10.0942 Br  0  0  0  0  0  0  0  0  0  0  0  0
    0.0848    8.7197    7.8965 C   0  0  0  0  0  0  0  0  0  0  0  0
   -0.0119    7.7617    6.8737 C   0  0  0  0  0  0  0  0  0  0  0  0
   -1.1103    7.4963    5.8973 C   0  0  0  0  0  0  0  0  0  0  0  0
   -2.0993    8.3524    5.5288 C   0  0  0  0  0  0  0  0  0  0  0  0
   -2.2787    9.6408    6.1453 C   0  0  0  0  0  0  0  0  0  0  0  0
   -2.4351   10.6820    6.6260 N   0  0  0  0  0  0  0  0  0  0  0  0
   -2.9465    8.1120    4.3899 C   0  0  0  0  0  0  0  0  0  0  0  0
   -3.6289    7.9270    3.4695 N   0  0  0  0  0  0  0  0  0  0  0  0
   -1.1145    4.0629    4.0734 C   0  0  0  0  0  0  0  0  0  0  0  0
   -0.9078    2.9282    4.8794 C   0  0  0  0  0  0  0  0  0  0  0  0
   -1.3025    2.8117    6.3254 C   0  0  0  0  0  0  0  0  0  0  0  0
   -2.7934    2.5151    6.4470 C   0  0  0  0  0  0  0  0  0  0  0  0
   -0.3577    1.8912    4.1304 C   0  0  0  0  0  0  0  0  0  0  0  0
   -0.1540    2.1864    2.8077 C   0  0  0  0  0  0  0  0  0  0  0  0
   -0.6354    3.7534    2.4668 S   0  0  0  0  0  0  0  0  0  0  0  0
    0.4155    1.1362    2.1061 C   0  0  0  0  0  0  0  0  0  0  0  0
    0.6222    0.0503    2.8934 C   0  0  0  0  0  0  0  0  0  0  0  0
    0.1035    0.2877    4.4929 S   0  0  0  0  0  0  0  0  0  0  0  0
    0.9383   -0.9914    2.0702 C   0  0  0  0  0  0  0  0  0  0  0  0
    0.9888   -2.3747    2.3050 C   0  0  0  0  0  0  0  0  0  0  0  0
    0.8867   -2.8973    3.5528 N   0  0  0  0  0  0  0  0  0  0  0  0
    0.9102   -4.2434    3.7568 C   0  0  0  0  0  0  0  0  0  0  0  0
    0.8041   -4.7623    5.1612 C   0  0  0  0  0  0  0  0  0  0  0  0
    1.0471   -5.1136    2.6457 C   0  0  0  0  0  0  0  0  0  0  0  0
    1.0756   -6.6043    2.8084 C   0  0  0  0  0  0  0  0  0  0  0  0
    1.1323   -4.5856    1.3921 N   0  0  0  0  0  0  0  0  0  0  0  0
    1.1010   -3.2439    1.1921 C   0  0  0  0  0  0  0  0  0  0  0  0
    1.1910   -2.6772   -0.0899 C   0  0  0  0  0  0  0  0  0  0  0  0
    1.3851   -3.2282   -1.3245 C   0  0  0  0  0  0  0  0  0  0  0  0
    1.5660   -4.7517   -2.0578 S   0  0  0  0  0  0  0  0  0  0  0  0
    1.8616   -4.0059   -3.5691 C   0  0  0  0  0  0  0  0  0  0  0  0
    2.0064   -4.4928   -4.8661 C   0  0  0  0  0  0  0  0  0  0  0  0
    1.9667   -5.9521   -5.2198 C   0  0  0  0  0  0  0  0  0  0  0  0
    0.5355   -6.4152   -5.4799 C   0  0  0  0  0  0  0  0  0  0  0  0
    2.0734   -3.4285   -5.7903 C   0  0  0  0  0  0  0  0  0  0  0  0
    1.9752   -1.9260   -4.9845 S   0  0  0  0  0  0  0  0  0  0  0  0
    1.8438   -2.6377   -3.4729 C   0  0  0  0  0  0  0  0  0  0  0  0
    1.5579   -2.2022   -2.1930 C   0  0  0  0  0  0  0  0  0  0  0  0
    1.5217   -0.9852   -1.6017 N   0  0  0  0  0  0  0  0  0  0  0  0
    2.3154    0.1703   -2.0493 C   0  0  0  0  0  0  0  0  0  0  0  0
    3.8061   -0.1717   -2.1036 C   0  0  0  0  0  0  0  0  0  0  0  0
    1.1988   -1.2938   -0.3083 C   0  0  0  0  0  0  0  0  0  0  0  0
    0.9691   -0.4385    0.7818 C   0  0  0  0  0  0  0  0  0  0  0  0
    0.5519    0.8685    0.7837 N   0  0  0  0  0  0  0  0  0  0  0  0
   -0.2536    1.5287   -0.2606 C   0  0  0  0  0  0  0  0  0  0  0  0
   -1.7194    1.1085   -0.1565 C   0  0  0  0  0  0  0  0  0  0  0  0
    2.0220   -3.5816   -7.2491 C   0  0  0  0  0  0  0  0  0  0  0  0
    0.8572   -3.6218   -7.9263 C   0  0  0  0  0  0  0  0  0  0  0  0
   -0.4626   -3.2969   -7.3640 C   0  0  0  0  0  0  0  0  0  0  0  0
   -0.7353   -3.0976   -6.1512 O   0  0  0  0  0  0  0  0  0  0  0  0
   -1.4147   -3.2214   -8.4465 C   0  0  0  0  0  0  0  0  0  0  0  0
   -2.7639   -2.8744   -8.3776 C   0  0  0  0  0  0  0  0  0  0  0  0
   -3.5055   -2.8358   -9.5634 C   0  0  0  0  0  0  0  0  0  0  0  0
   -4.8215   -2.5052   -9.5248 F   0  0  0  0  0  0  0  0  0  0  0  0
   -2.8844   -3.1230  -10.7916 C   0  0  0  0  0  0  0  0  0  0  0  0
   -3.6029   -3.0663  -11.9403 F   0  0  0  0  0  0  0  0  0  0  0  0
   -1.5190   -3.4607  -10.8387 C   0  0  0  0  0  0  0  0  0  0  0  0
   -0.7865   -3.5255   -9.6419 C   0  0  0  0  0  0  0  0  0  0  0  0
    0.6469   -3.8732   -9.3858 C   0  0  0  0  0  0  0  0  0  0  0  0
    1.5042   -4.4942  -10.2445 C   0  0  0  0  0  0  0  0  0  0  0  0
    2.7775   -5.0231   -9.8302 C   0  0  0  0  0  0  0  0  0  0  0  0
    3.8016   -5.4603   -9.5108 N   0  0  0  0  0  0  0  0  0  0  0  0
    1.1604   -4.7887  -11.6093 C   0  0  0  0  0  0  0  0  0  0  0  0
    0.8996   -5.0384  -12.7091 N   0  0  0  0  0  0  0  0  0  0  0  0
   -2.5907    5.6252    4.3739 H   0  0  0  0  0  0  0  0  0  0  0  0
    3.1480    7.8465    9.1359 H   0  0  0  0  0  0  0  0  0  0  0  0
   -0.7132    9.4079    8.1132 H   0  0  0  0  0  0  0  0  0  0  0  0
   -1.0659    3.7540    6.8631 H   0  0  0  0  0  0  0  0  0  0  0  0
   -0.7254    1.9951    6.8114 H   0  0  0  0  0  0  0  0  0  0  0  0
   -3.3872    3.3498    6.0098 H   0  0  0  0  0  0  0  0  0  0  0  0
   -3.0465    1.5689    5.9187 H   0  0  0  0  0  0  0  0  0  0  0  0
   -3.0666    2.4123    7.5176 H   0  0  0  0  0  0  0  0  0  0  0  0
   -0.0637   -5.4484    5.2534 H   0  0  0  0  0  0  0  0  0  0  0  0
    0.6664   -3.9262    5.8770 H   0  0  0  0  0  0  0  0  0  0  0  0
    1.7345   -5.3058    5.4306 H   0  0  0  0  0  0  0  0  0  0  0  0
    1.8710   -6.8966    3.5264 H   0  0  0  0  0  0  0  0  0  0  0  0
    0.0911   -6.9583    3.1776 H   0  0  0  0  0  0  0  0  0  0  0  0
    1.2897   -7.0999    1.8360 H   0  0  0  0  0  0  0  0  0  0  0  0
    2.3999   -6.5477   -4.3859 H   0  0  0  0  0  0  0  0  0  0  0  0
    2.5846   -6.1394   -6.1236 H   0  0  0  0  0  0  0  0  0  0  0  0
    0.5170   -7.5183   -5.5597 H   0  0  0  0  0  0  0  0  0  0  0  0
    0.1665   -5.9874   -6.4330 H   0  0  0  0  0  0  0  0  0  0  0  0
   -0.1371   -6.1057   -4.6527 H   0  0  0  0  0  0  0  0  0  0  0  0
    1.9693    0.4989   -3.0498 H   0  0  0  0  0  0  0  0  0  0  0  0
    2.2167    1.0169   -1.3418 H   0  0  0  0  0  0  0  0  0  0  0  0
    4.0127   -0.8881   -2.9248 H   0  0  0  0  0  0  0  0  0  0  0  0
    4.1299   -0.6255   -1.1432 H   0  0  0  0  0  0  0  0  0  0  0  0
    4.4021    0.7471   -2.2795 H   0  0  0  0  0  0  0  0  0  0  0  0
   -0.1726    2.6313   -0.1593 H   0  0  0  0  0  0  0  0  0  0  0  0
    0.0832    1.2614   -1.2752 H   0  0  0  0  0  0  0  0  0  0  0  0
   -2.1419    1.4000    0.8282 H   0  0  0  0  0  0  0  0  0  0  0  0
   -1.8102    0.0066   -0.2792 H   0  0  0  0  0  0  0  0  0  0  0  0
   -2.3091    1.6088   -0.9541 H   0  0  0  0  0  0  0  0  0  0  0  0
    2.9690   -3.6803   -7.7476 H   0  0  0  0  0  0  0  0  0  0  0  0
   -3.2275   -2.6430   -7.4287 H   0  0  0  0  0  0  0  0  0  0  0  0
   -1.0743   -3.6368  -11.8011 H   0  0  0  0  0  0  0  0  0  0  0  0
  1  2  2  3
  2  3  1  0
  3  4  2  0
  3  5  1  0
  5  6  2  0
  6  7  1  0
  6  8  1  0
  8  9  2  0
  9 10  1  0
  9 11  1  0
 11 12  2  0
 12 13  1  0
 13 14  2  3
 14 15  1  0
 15 16  3  0
 14 17  1  0
 17 18  3  0
  1 19  1  0
 19 20  2  0
 20 21  1  0
 21 22  1  0
 20 23  1  0
 23 24  2  0
 24 25  1  0
 24 26  1  0
 26 27  2  0
 27 28  1  0
 27 29  1  0
 29 30  2  0
 30 31  1  0
 31 32  2  0
 32 33  1  0
 32 34  1  0
 34 35  1  0
 34 36  2  0
 36 37  1  0
 37 38  2  0
 38 39  1  0
 39 40  1  0
 40 41  1  0
 41 42  1  0
 42 43  1  0
 43 44  1  0
 42 45  2  0
 45 46  1  0
 46 47  1  0
 47 48  1  0
 48 49  1  0
 49 50  1  0
 50 51  1  0
 49 52  1  0
 52 53  2  0
 53 54  1  0
 54 55  1  0
 55 56  1  0
 45 57  1  0
 57 58  2  3
 58 59  1  0
 59 60  2  0
 59 61  1  0
 61 62  2  0
 62 63  1  0
 63 64  1  0
 63 65  2  0
 65 66  1  0
 65 67  1  0
 67 68  2  0
 68 69  1  0
 69 70  2  3
 70 71  1  0
 71 72  3  0
 70 73  1  0
 73 74  3  0
 13  2  1  0
 25 19  1  0
 54 26  1  0
 69 58  1  0
 12  5  1  0
 28 23  1  0
 53 29  1  0
 68 61  1  0
 37 30  1  0
 52 38  1  0
 48 39  2  0
 47 41  2  0
  1 75  1  0
  8 76  1  0
 11 77  1  0
 21 78  1  0
 21 79  1  0
 22 80  1  0
 22 81  1  0
 22 82  1  0
 33 83  1  0
 33 84  1  0
 33 85  1  0
 35 86  1  0
 35 87  1  0
 35 88  1  0
 43 89  1  0
 43 90  1  0
 44 91  1  0
 44 92  1  0
 44 93  1  0
 50 94  1  0
 50 95  1  0
 51 96  1  0
 51 97  1  0
 51 98  1  0
 55 99  1  0
 55100  1  0
 56101  1  0
 56102  1  0
 56103  1  0
 57104  1  0
 62105  1  0
 67106  1  0
M  END

