
     RDKit          3D

112123  0  0  0  0  0  0  0  0999 V2000
    0.0068    4.1694    6.7794 C   0  0  0  0  0  0  0  0  0  0  0  0
    1.2993    4.1726    7.1528 C   0  0  0  0  0  0  0  0  0  0  0  0
    2.2846    3.1285    6.8422 C   0  0  0  0  0  0  0  0  0  0  0  0
    2.1860    2.2598    5.9356 O   0  0  0  0  0  0  0  0  0  0  0  0
    3.3686    3.2166    7.8123 C   0  0  0  0  0  0  0  0  0  0  0  0
    4.4572    2.3540    7.9963 C   0  0  0  0  0  0  0  0  0  0  0  0
    4.7596    0.9958    6.9293 Cl  0  0  0  0  0  0  0  0  0  0  0  0
    5.3123    2.5808    9.0832 C   0  0  0  0  0  0  0  0  0  0  0  0
    5.0693    3.6454    9.9688 C   0  0  0  0  0  0  0  0  0  0  0  0
    6.2123    3.9040   11.4773 Br  0  0  0  0  0  0  0  0  0  0  0  0
    3.9682    4.4979    9.7688 C   0  0  0  0  0  0  0  0  0  0  0  0
    3.1323    4.2903    8.6605 C   0  0  0  0  0  0  0  0  0  0  0  0
    1.9044    5.0160    8.2263 C   0  0  0  0  0  0  0  0  0  0  0  0
    1.5340    6.2780    8.5695 C   0  0  0  0  0  0  0  0  0  0  0  0
    2.2215    7.0435    9.5745 C   0  0  0  0  0  0  0  0  0  0  0  0
    2.7605    7.6802   10.3804 N   0  0  0  0  0  0  0  0  0  0  0  0
    0.4809    6.9805    7.8810 C   0  0  0  0  0  0  0  0  0  0  0  0
   -0.3648    7.5496    7.3325 N   0  0  0  0  0  0  0  0  0  0  0  0
   -0.5561    3.1801    5.8576 C   0  0  0  0  0  0  0  0  0  0  0  0
   -1.3806    2.1049    6.2391 C   0  0  0  0  0  0  0  0  0  0  0  0
   -1.7984    1.7872    7.6464 C   0  0  0  0  0  0  0  0  0  0  0  0
   -0.7152    0.9936    8.3712 C   0  0  0  0  0  0  0  0  0  0  0  0
   -1.6883    1.3123    5.1346 C   0  0  0  0  0  0  0  0  0  0  0  0
   -1.1805    1.7648    3.9401 C   0  0  0  0  0  0  0  0  0  0  0  0
   -0.2802    3.1619    4.1709 S   0  0  0  0  0  0  0  0  0  0  0  0
   -1.4600    0.9114    2.8875 C   0  0  0  0  0  0  0  0  0  0  0  0
   -2.1764   -0.1703    3.2811 C   0  0  0  0  0  0  0  0  0  0  0  0
   -2.5330   -0.1646    4.9437 S   0  0  0  0  0  0  0  0  0  0  0  0
   -2.4685   -0.8867    2.1571 C   0  0  0  0  0  0  0  0  0  0  0  0
   -3.2600   -2.0252    1.9629 C   0  0  0  0  0  0  0  0  0  0  0  0
   -3.8752   -2.6628    2.9926 N   0  0  0  0  0  0  0  0  0  0  0  0
   -4.6306   -3.7779    2.7853 C   0  0  0  0  0  0  0  0  0  0  0  0
   -5.2899   -4.4343    3.9606 C   0  0  0  0  0  0  0  0  0  0  0  0
   -4.7681   -4.2844    1.4724 C   0  0  0  0  0  0  0  0  0  0  0  0
   -5.6002   -5.4914    1.1739 C   0  0  0  0  0  0  0  0  0  0  0  0
   -4.1609   -3.6343    0.4385 N   0  0  0  0  0  0  0  0  0  0  0  0
   -3.4178   -2.5156    0.6481 C   0  0  0  0  0  0  0  0  0  0  0  0
   -2.7692   -1.8447   -0.4040 C   0  0  0  0  0  0  0  0  0  0  0  0
   -2.5352   -2.2436   -1.6889 C   0  0  0  0  0  0  0  0  0  0  0  0
   -2.6346   -3.7357   -2.4916 S   0  0  0  0  0  0  0  0  0  0  0  0
   -1.4205   -3.2659   -3.5898 C   0  0  0  0  0  0  0  0  0  0  0  0
   -0.7238   -3.9450   -4.5958 C   0  0  0  0  0  0  0  0  0  0  0  0
   -1.0000   -5.3715   -4.9856 C   0  0  0  0  0  0  0  0  0  0  0  0
   -0.2598   -6.3427   -4.0760 C   0  0  0  0  0  0  0  0  0  0  0  0
    0.2949   -3.1383   -5.1368 C   0  0  0  0  0  0  0  0  0  0  0  0
    0.3544   -1.6496   -4.2958 S   0  0  0  0  0  0  0  0  0  0  0  0
   -0.9449   -2.0130   -3.3011 C   0  0  0  0  0  0  0  0  0  0  0  0
   -1.5592   -1.4363   -2.1917 C   0  0  0  0  0  0  0  0  0  0  0  0
   -1.1291   -0.5130   -1.2925 N   0  0  0  0  0  0  0  0  0  0  0  0
    0.2369    0.0367   -1.2787 C   0  0  0  0  0  0  0  0  0  0  0  0
    0.3991    1.1781   -2.2923 C   0  0  0  0  0  0  0  0  0  0  0  0
   -1.9414   -0.7277   -0.2053 C   0  0  0  0  0  0  0  0  0  0  0  0
   -1.8586   -0.1887    1.1019 C   0  0  0  0  0  0  0  0  0  0  0  0
   -1.2908    0.9798    1.5447 N   0  0  0  0  0  0  0  0  0  0  0  0
   -1.1711    2.2429    0.8030 C   0  0  0  0  0  0  0  0  0  0  0  0
   -2.4360    3.0873    0.9547 C   0  0  0  0  0  0  0  0  0  0  0  0
    1.3045   -3.5769   -6.1139 C   0  0  0  0  0  0  0  0  0  0  0  0
    1.8426   -2.6805   -6.9465 C   0  0  0  0  0  0  0  0  0  0  0  0
    3.2764   -2.3815   -6.9773 C   0  0  0  0  0  0  0  0  0  0  0  0
    4.0865   -2.5746   -6.0246 O   0  0  0  0  0  0  0  0  0  0  0  0
    3.5829   -1.7119   -8.2221 C   0  0  0  0  0  0  0  0  0  0  0  0
    4.7692   -1.0708   -8.5855 C   0  0  0  0  0  0  0  0  0  0  0  0
    4.8182   -0.3712   -9.8031 C   0  0  0  0  0  0  0  0  0  0  0  0
    6.0044    0.3124  -10.1305 O   0  0  0  0  0  0  0  0  0  0  0  0
    6.0979    1.4250  -10.9832 C   0  0  0  0  0  0  0  0  0  0  0  0
    5.0659    2.0483  -11.3716 O   0  0  0  0  0  0  0  0  0  0  0  0
    7.4441    1.9479  -11.3592 C   0  0  0  0  0  0  0  0  0  0  0  0
    3.6898   -0.3956  -10.6596 C   0  0  0  0  0  0  0  0  0  0  0  0
    2.4969   -1.0157  -10.2566 C   0  0  0  0  0  0  0  0  0  0  0  0
    2.4494   -1.6778   -9.0202 C   0  0  0  0  0  0  0  0  0  0  0  0
    1.3042   -2.3044   -8.2982 C   0  0  0  0  0  0  0  0  0  0  0  0
    0.0767   -2.6001   -8.8129 C   0  0  0  0  0  0  0  0  0  0  0  0
   -1.0094   -3.0869   -8.0080 C   0  0  0  0  0  0  0  0  0  0  0  0
   -1.9117   -3.4635   -7.3913 N   0  0  0  0  0  0  0  0  0  0  0  0
   -0.2416   -2.4288  -10.2082 C   0  0  0  0  0  0  0  0  0  0  0  0
   -0.5225   -2.3060  -11.3271 N   0  0  0  0  0  0  0  0  0  0  0  0
   -0.6983    4.8124    7.2794 H   0  0  0  0  0  0  0  0  0  0  0  0
    6.1650    1.9323    9.2446 H   0  0  0  0  0  0  0  0  0  0  0  0
    3.7804    5.2735   10.4953 H   0  0  0  0  0  0  0  0  0  0  0  0
   -2.7373    1.1940    7.6310 H   0  0  0  0  0  0  0  0  0  0  0  0
   -2.0063    2.7276    8.1994 H   0  0  0  0  0  0  0  0  0  0  0  0
   -1.1020    0.6710    9.3609 H   0  0  0  0  0  0  0  0  0  0  0  0
   -0.4367    0.0894    7.7896 H   0  0  0  0  0  0  0  0  0  0  0  0
    0.1836    1.6257    8.5308 H   0  0  0  0  0  0  0  0  0  0  0  0
   -4.8865   -5.4590    4.0982 H   0  0  0  0  0  0  0  0  0  0  0  0
   -6.3869   -4.4888    3.7988 H   0  0  0  0  0  0  0  0  0  0  0  0
   -5.1032   -3.8606    4.8894 H   0  0  0  0  0  0  0  0  0  0  0  0
   -5.3279   -6.3262    1.8521 H   0  0  0  0  0  0  0  0  0  0  0  0
   -6.6763   -5.2484    1.2971 H   0  0  0  0  0  0  0  0  0  0  0  0
   -5.4280   -5.8317    0.1309 H   0  0  0  0  0  0  0  0  0  0  0  0
   -0.6835   -5.5518   -6.0380 H   0  0  0  0  0  0  0  0  0  0  0  0
   -2.0936   -5.5672   -4.9325 H   0  0  0  0  0  0  0  0  0  0  0  0
   -0.5160   -7.3840   -4.3643 H   0  0  0  0  0  0  0  0  0  0  0  0
    0.8397   -6.2048   -4.1810 H   0  0  0  0  0  0  0  0  0  0  0  0
   -0.5478   -6.1950   -3.0111 H   0  0  0  0  0  0  0  0  0  0  0  0
    0.9636   -0.7755   -1.5049 H   0  0  0  0  0  0  0  0  0  0  0  0
    0.5117    0.3885   -0.2670 H   0  0  0  0  0  0  0  0  0  0  0  0
   -0.5761    1.4667   -2.7403 H   0  0  0  0  0  0  0  0  0  0  0  0
    1.0847    0.8691   -3.1067 H   0  0  0  0  0  0  0  0  0  0  0  0
    0.8471    2.0646   -1.8001 H   0  0  0  0  0  0  0  0  0  0  0  0
   -0.2916    2.8089    1.1684 H   0  0  0  0  0  0  0  0  0  0  0  0
   -1.0499    2.0569   -0.2713 H   0  0  0  0  0  0  0  0  0  0  0  0
   -2.6251    3.3236    2.0199 H   0  0  0  0  0  0  0  0  0  0  0  0
   -3.3115    2.5308    0.5482 H   0  0  0  0  0  0  0  0  0  0  0  0
   -2.3193    4.0373    0.3915 H   0  0  0  0  0  0  0  0  0  0  0  0
    1.9394   -4.3654   -5.7471 H   0  0  0  0  0  0  0  0  0  0  0  0
    5.6282   -1.0888   -7.9278 H   0  0  0  0  0  0  0  0  0  0  0  0
    8.2132    1.1646  -11.2047 H   0  0  0  0  0  0  0  0  0  0  0  0
    7.4502    2.2544  -12.4269 H   0  0  0  0  0  0  0  0  0  0  0  0
    7.6861    2.8287  -10.7276 H   0  0  0  0  0  0  0  0  0  0  0  0
    3.7150    0.0679  -11.6368 H   0  0  0  0  0  0  0  0  0  0  0  0
    1.6414   -0.9374  -10.9069 H   0  0  0  0  0  0  0  0  0  0  0  0
  1  2  2  3
  2  3  1  0
  3  4  2  0
  3  5  1  0
  5  6  2  0
  6  7  1  0
  6  8  1  0
  8  9  2  0
  9 10  1  0
  9 11  1  0
 11 12  2  0
 12 13  1  0
 13 14  2  3
 14 15  1  0
 15 16  3  0
 14 17  1  0
 17 18  3  0
  1 19  1  0
 19 20  2  0
 20 21  1  0
 21 22  1  0
 20 23  1  0
 23 24  2  0
 24 25  1  0
 24 26  1  0
 26 27  2  0
 27 28  1  0
 27 29  1  0
 29 30  2  0
 30 31  1  0
 31 32  2  0
 32 33  1  0
 32 34  1  0
 34 35  1  0
 34 36  2  0
 36 37  1  0
 37 38  2  0
 38 39  1  0
 39 40  1  0
 40 41  1  0
 41 42  1  0
 42 43  1  0
 43 44  1  0
 42 45  2  0
 45 46  1  0
 46 47  1  0
 47 48  1  0
 48 49  1  0
 49 50  1  0
 50 51  1  0
 49 52  1  0
 52 53  2  0
 53 54  1  0
 54 55  1  0
 55 56  1  0
 45 57  1  0
 57 58  2  3
 58 59  1  0
 59 60  2  0
 59 61  1  0
 61 62  2  0
 62 63  1  0
 63 64  1  0
 64 65  1  0
 65 66  2  0
 65 67  1  0
 63 68  2  0
 68 69  1  0
 69 70  2  0
 70 71  1  0
 71 72  2  3
 72 73  1  0
 73 74  3  0
 72 75  1  0
 75 76  3  0
 13  2  1  0
 25 19  1  0
 54 26  1  0
 71 58  1  0
 12  5  1  0
 28 23  1  0
 53 29  1  0
 70 61  1  0
 37 30  1  0
 52 38  1  0
 48 39  2  0
 47 41  2  0
  1 77  1  0
  8 78  1  0
 11 79  1  0
 21 80  1  0
 21 81  1  0
 22 82  1  0
 22 83  1  0
 22 84  1  0
 33 85  1  0
 33 86  1  0
 33 87  1  0
 35 88  1  0
 35 89  1  0
 35 90  1  0
 43 91  1  0
 43 92  1  0
 44 93  1  0
 44 94  1  0
 44 95  1  0
 50 96  1  0
 50 97  1  0
 51 98  1  0
 51 99  1  0
 51100  1  0
 55101  1  0
 55102  1  0
 56103  1  0
 56104  1  0
 56105  1  0
 57106  1  0
 62107  1  0
 67108  1  0
 67109  1  0
 67110  1  0
 68111  1  0
 69112  1  0
M  END

