
     RDKit          3D

130146  0  0  0  0  0  0  0  0999 V2000
    5.7295    7.3080   -2.6155 C   0  0  0  0  0  0  0  0  0  0  0  0
    6.4859    6.6198   -3.4926 C   0  0  0  0  0  0  0  0  0  0  0  0
    6.7982    5.1865   -3.4006 C   0  0  0  0  0  0  0  0  0  0  0  0
    6.2904    4.3606   -2.5951 O   0  0  0  0  0  0  0  0  0  0  0  0
    7.8818    4.8913   -4.3170 C   0  0  0  0  0  0  0  0  0  0  0  0
    8.5561    3.6790   -4.5188 C   0  0  0  0  0  0  0  0  0  0  0  0
    8.0958    2.2038   -3.6807 Cl  0  0  0  0  0  0  0  0  0  0  0  0
    9.6318    3.6567   -5.4162 C   0  0  0  0  0  0  0  0  0  0  0  0
   10.0334    4.8315   -6.0714 C   0  0  0  0  0  0  0  0  0  0  0  0
   11.5219    4.7860   -7.2656 Br  0  0  0  0  0  0  0  0  0  0  0  0
    9.3532    6.0403   -5.8487 C   0  0  0  0  0  0  0  0  0  0  0  0
    8.2466    6.0526   -4.9823 C   0  0  0  0  0  0  0  0  0  0  0  0
    7.3458    7.1736   -4.5812 C   0  0  0  0  0  0  0  0  0  0  0  0
    7.1713    8.3533   -5.2349 C   0  0  0  0  0  0  0  0  0  0  0  0
    6.0937    9.2584   -4.9215 C   0  0  0  0  0  0  0  0  0  0  0  0
    5.2284    9.9892   -4.6811 N   0  0  0  0  0  0  0  0  0  0  0  0
    7.9531    8.7324   -6.3813 C   0  0  0  0  0  0  0  0  0  0  0  0
    8.5691    9.0504   -7.3080 N   0  0  0  0  0  0  0  0  0  0  0  0
    4.8895    6.6427   -1.6096 C   0  0  0  0  0  0  0  0  0  0  0  0
    5.1820    6.5535   -0.2361 C   0  0  0  0  0  0  0  0  0  0  0  0
    6.3752    7.1457    0.3888 C   0  0  0  0  0  0  0  0  0  0  0  0
    6.5609    8.5346    0.3807 C   0  0  0  0  0  0  0  0  0  0  0  0
    7.7469    9.0881    0.8681 C   0  0  0  0  0  0  0  0  0  0  0  0
    8.7622    8.2582    1.3481 C   0  0  0  0  0  0  0  0  0  0  0  0
    8.5876    6.8656    1.3654 C   0  0  0  0  0  0  0  0  0  0  0  0
    9.7179    5.9640    1.7829 C   0  0  0  0  0  0  0  0  0  0  0  0
   10.5883    5.6062    0.5820 C   0  0  0  0  0  0  0  0  0  0  0  0
    7.3876    6.3143    0.8889 C   0  0  0  0  0  0  0  0  0  0  0  0
    4.2904    5.6884    0.4021 C   0  0  0  0  0  0  0  0  0  0  0  0
    4.1066    5.1218    2.0093 S   0  0  0  0  0  0  0  0  0  0  0  0
    2.8118    4.1235    1.5383 C   0  0  0  0  0  0  0  0  0  0  0  0
    1.8481    3.3102    2.0787 C   0  0  0  0  0  0  0  0  0  0  0  0
    1.4931    2.9992    3.3973 C   0  0  0  0  0  0  0  0  0  0  0  0
    0.3162    2.2095    3.6216 C   0  0  0  0  0  0  0  0  0  0  0  0
    0.0084    1.9199    4.9092 N   0  0  0  0  0  0  0  0  0  0  0  0
    1.2459    2.7128    5.6754 S   0  0  0  0  0  0  0  0  0  0  0  0
    2.1777    3.4077    4.4924 N   0  0  0  0  0  0  0  0  0  0  0  0
   -0.4111    1.7469    2.5110 C   0  0  0  0  0  0  0  0  0  0  0  0
   -1.3748    0.7781    2.3949 C   0  0  0  0  0  0  0  0  0  0  0  0
   -2.1163   -0.3714    3.4064 S   0  0  0  0  0  0  0  0  0  0  0  0
   -2.5537   -1.3303    2.0604 C   0  0  0  0  0  0  0  0  0  0  0  0
   -3.1011   -2.6129    1.9368 C   0  0  0  0  0  0  0  0  0  0  0  0
   -3.5648   -3.3652    3.1042 C   0  0  0  0  0  0  0  0  0  0  0  0
   -2.7495   -4.3417    3.6888 C   0  0  0  0  0  0  0  0  0  0  0  0
   -3.1997   -5.0458    4.8098 C   0  0  0  0  0  0  0  0  0  0  0  0
   -4.4652   -4.7819    5.3436 C   0  0  0  0  0  0  0  0  0  0  0  0
   -5.2879   -3.8026    4.7659 C   0  0  0  0  0  0  0  0  0  0  0  0
   -6.6546   -3.5239    5.3326 C   0  0  0  0  0  0  0  0  0  0  0  0
   -6.6144   -2.3403    6.2937 C   0  0  0  0  0  0  0  0  0  0  0  0
   -4.8201   -3.0751    3.6598 C   0  0  0  0  0  0  0  0  0  0  0  0
   -3.0191   -3.0797    0.5991 C   0  0  0  0  0  0  0  0  0  0  0  0
   -2.2557   -1.8820   -0.3459 S   0  0  0  0  0  0  0  0  0  0  0  0
   -2.0694   -0.7930    0.9008 C   0  0  0  0  0  0  0  0  0  0  0  0
   -1.4161    0.4164    1.0832 C   0  0  0  0  0  0  0  0  0  0  0  0
   -0.5307    1.1023    0.3179 N   0  0  0  0  0  0  0  0  0  0  0  0
    0.0088    2.0009    1.1994 C   0  0  0  0  0  0  0  0  0  0  0  0
    1.0749    2.8929    0.9871 C   0  0  0  0  0  0  0  0  0  0  0  0
    1.4400    3.5310   -0.1648 N   0  0  0  0  0  0  0  0  0  0  0  0
    2.5341    4.2311    0.2151 C   0  0  0  0  0  0  0  0  0  0  0  0
    3.3492    5.1386   -0.4284 C   0  0  0  0  0  0  0  0  0  0  0  0
    3.5419    5.6736   -2.0019 S   0  0  0  0  0  0  0  0  0  0  0  0
    0.5635    3.9014   -1.2873 C   0  0  0  0  0  0  0  0  0  0  0  0
   -0.0658    5.2742   -1.0566 C   0  0  0  0  0  0  0  0  0  0  0  0
    0.1583    0.5230   -0.8470 C   0  0  0  0  0  0  0  0  0  0  0  0
    1.1516   -0.5573   -0.4099 C   0  0  0  0  0  0  0  0  0  0  0  0
   -3.3477   -4.4044    0.0132 C   0  0  0  0  0  0  0  0  0  0  0  0
   -4.6148   -4.8435   -0.1111 C   0  0  0  0  0  0  0  0  0  0  0  0
   -5.3019   -5.5599    0.9731 C   0  0  0  0  0  0  0  0  0  0  0  0
   -4.9451   -5.6002    2.1743 O   0  0  0  0  0  0  0  0  0  0  0  0
   -6.3140   -6.4299    0.4234 C   0  0  0  0  0  0  0  0  0  0  0  0
   -7.1935   -7.2668    1.1480 C   0  0  0  0  0  0  0  0  0  0  0  0
   -8.0549   -7.9961    0.3516 C   0  0  0  0  0  0  0  0  0  0  0  0
   -8.0543   -7.9119   -1.0767 C   0  0  0  0  0  0  0  0  0  0  0  0
   -7.1863   -7.1027   -1.7907 C   0  0  0  0  0  0  0  0  0  0  0  0
   -6.2744   -6.3556   -0.9872 C   0  0  0  0  0  0  0  0  0  0  0  0
   -5.2074   -5.3899   -1.3812 C   0  0  0  0  0  0  0  0  0  0  0  0
   -4.8838   -5.0071   -2.6454 C   0  0  0  0  0  0  0  0  0  0  0  0
   -5.3992   -5.6560   -3.8198 C   0  0  0  0  0  0  0  0  0  0  0  0
   -5.7944   -6.1653   -4.7823 N   0  0  0  0  0  0  0  0  0  0  0  0
   -3.9976   -3.9037   -2.9136 C   0  0  0  0  0  0  0  0  0  0  0  0
   -3.2889   -3.0204   -3.1515 N   0  0  0  0  0  0  0  0  0  0  0  0
   -9.1936   -8.8828   -1.1520 C   0  0  0  0  0  0  0  0  0  0  0  0
  -10.6104   -8.3194   -1.4770 C   0  0  0  0  0  0  0  0  0  0  0  0
  -10.7415   -6.9084   -0.9469 C   0  0  0  0  0  0  0  0  0  0  0  0
  -10.7408   -6.9981    0.3830 C   0  0  0  0  0  0  0  0  0  0  0  0
  -10.6059   -8.4665    0.7154 C   0  0  0  0  0  0  0  0  0  0  0  0
  -11.4257   -9.0449   -0.4241 C   0  0  0  0  0  0  0  0  0  0  0  0
   -9.1895   -8.9768    0.3112 C   0  0  0  0  0  0  0  0  0  0  0  0
    5.7605    8.3841   -2.5801 H   0  0  0  0  0  0  0  0  0  0  0  0
   10.1647    2.7317   -5.5927 H   0  0  0  0  0  0  0  0  0  0  0  0
    9.7201    6.9321   -6.3258 H   0  0  0  0  0  0  0  0  0  0  0  0
    5.7937    9.1877   -0.0166 H   0  0  0  0  0  0  0  0  0  0  0  0
    7.8896   10.1616    0.8527 H   0  0  0  0  0  0  0  0  0  0  0  0
    9.6898    8.6980    1.6913 H   0  0  0  0  0  0  0  0  0  0  0  0
    9.3149    5.0325    2.2366 H   0  0  0  0  0  0  0  0  0  0  0  0
   10.3444    6.4656    2.5523 H   0  0  0  0  0  0  0  0  0  0  0  0
    9.9812    5.0993   -0.1993 H   0  0  0  0  0  0  0  0  0  0  0  0
   11.0446    6.5217    0.1508 H   0  0  0  0  0  0  0  0  0  0  0  0
   11.4007    4.9200    0.9007 H   0  0  0  0  0  0  0  0  0  0  0  0
    7.2642    5.2365    0.8564 H   0  0  0  0  0  0  0  0  0  0  0  0
   -1.7699   -4.5587    3.2766 H   0  0  0  0  0  0  0  0  0  0  0  0
   -2.5717   -5.8041    5.2586 H   0  0  0  0  0  0  0  0  0  0  0  0
   -4.8018   -5.3429    6.2047 H   0  0  0  0  0  0  0  0  0  0  0  0
   -7.0394   -4.4170    5.8695 H   0  0  0  0  0  0  0  0  0  0  0  0
   -7.3702   -3.3035    4.5107 H   0  0  0  0  0  0  0  0  0  0  0  0
   -5.8728   -2.5239    7.1006 H   0  0  0  0  0  0  0  0  0  0  0  0
   -6.3443   -1.4111    5.7487 H   0  0  0  0  0  0  0  0  0  0  0  0
   -7.6158   -2.2023    6.7546 H   0  0  0  0  0  0  0  0  0  0  0  0
   -5.4425   -2.3092    3.2126 H   0  0  0  0  0  0  0  0  0  0  0  0
    1.1448    3.9073   -2.2326 H   0  0  0  0  0  0  0  0  0  0  0  0
   -0.2743    3.1855   -1.3962 H   0  0  0  0  0  0  0  0  0  0  0  0
   -0.6910    5.2545   -0.1398 H   0  0  0  0  0  0  0  0  0  0  0  0
   -0.7042    5.5392   -1.9230 H   0  0  0  0  0  0  0  0  0  0  0  0
    0.7128    6.0561   -0.9452 H   0  0  0  0  0  0  0  0  0  0  0  0
    0.7379    1.2802   -1.4004 H   0  0  0  0  0  0  0  0  0  0  0  0
   -0.5835    0.0970   -1.5537 H   0  0  0  0  0  0  0  0  0  0  0  0
    0.6244   -1.4198    0.0468 H   0  0  0  0  0  0  0  0  0  0  0  0
    1.7262   -0.9177   -1.2873 H   0  0  0  0  0  0  0  0  0  0  0  0
    1.8631   -0.1399    0.3327 H   0  0  0  0  0  0  0  0  0  0  0  0
   -2.6874   -4.6356   -0.8125 H   0  0  0  0  0  0  0  0  0  0  0  0
   -7.2089   -7.3212    2.2287 H   0  0  0  0  0  0  0  0  0  0  0  0
   -7.2498   -7.0614   -2.8619 H   0  0  0  0  0  0  0  0  0  0  0  0
   -8.9397   -9.8392   -1.6602 H   0  0  0  0  0  0  0  0  0  0  0  0
  -10.9476   -8.4598   -2.5248 H   0  0  0  0  0  0  0  0  0  0  0  0
  -10.8806   -5.9982   -1.5214 H   0  0  0  0  0  0  0  0  0  0  0  0
  -10.8828   -6.1779    1.0748 H   0  0  0  0  0  0  0  0  0  0  0  0
  -10.9366   -8.7519    1.7353 H   0  0  0  0  0  0  0  0  0  0  0  0
  -12.4977   -8.7341   -0.3998 H   0  0  0  0  0  0  0  0  0  0  0  0
  -11.3644  -10.1570   -0.4970 H   0  0  0  0  0  0  0  0  0  0  0  0
   -8.9264   -9.9873    0.6950 H   0  0  0  0  0  0  0  0  0  0  0  0
  1  2  2  3
  2  3  1  0
  3  4  2  0
  3  5  1  0
  5  6  2  0
  6  7  1  0
  6  8  1  0
  8  9  2  0
  9 10  1  0
  9 11  1  0
 11 12  2  0
 12 13  1  0
 13 14  2  3
 14 15  1  0
 15 16  3  0
 14 17  1  0
 17 18  3  0
  1 19  1  0
 19 20  2  0
 20 21  1  0
 21 22  2  0
 22 23  1  0
 23 24  2  0
 24 25  1  0
 25 26  1  0
 26 27  1  0
 25 28  2  0
 20 29  1  0
 29 30  1  0
 30 31  1  0
 31 32  1  0
 32 33  1  0
 33 34  1  0
 34 35  2  0
 35 36  1  0
 36 37  1  0
 34 38  1  0
 38 39  1  0
 39 40  1  0
 40 41  1  0
 41 42  1  0
 42 43  1  0
 43 44  2  0
 44 45  1  0
 45 46  2  0
 46 47  1  0
 47 48  1  0
 48 49  1  0
 47 50  2  0
 42 51  2  0
 51 52  1  0
 52 53  1  0
 53 54  1  0
 54 55  1  0
 55 56  1  0
 56 57  1  0
 57 58  1  0
 58 59  1  0
 59 60  1  0
 60 61  1  0
 58 62  1  0
 62 63  1  0
 55 64  1  0
 64 65  1  0
 51 66  1  0
 66 67  2  3
 67 68  1  0
 68 69  2  0
 68 70  1  0
 70 71  2  0
 71 72  1  0
 72 73  2  0
 73 74  1  0
 74 75  2  0
 75 76  1  0
 76 77  2  3
 77 78  1  0
 78 79  3  0
 77 80  1  0
 80 81  3  0
 73 82  1  0
 82 83  1  0
 83 84  1  0
 84 85  2  0
 85 86  1  0
 86 87  1  0
 86 88  1  0
 13  2  1  0
 61 19  1  0
 76 67  1  0
 88 82  1  0
 12  5  1  0
 28 21  1  0
 60 29  2  0
 75 70  1  0
 87 83  1  0
 59 31  2  0
 88 72  1  0
 57 32  2  0
 37 33  2  0
 56 38  2  0
 54 39  2  0
 53 41  2  0
 50 43  1  0
  1 89  1  0
  8 90  1  0
 11 91  1  0
 22 92  1  0
 23 93  1  0
 24 94  1  0
 26 95  1  0
 26 96  1  0
 27 97  1  0
 27 98  1  0
 27 99  1  0
 28100  1  0
 44101  1  0
 45102  1  0
 46103  1  0
 48104  1  0
 48105  1  0
 49106  1  0
 49107  1  0
 49108  1  0
 50109  1  0
 62110  1  0
 62111  1  0
 63112  1  0
 63113  1  0
 63114  1  0
 64115  1  0
 64116  1  0
 65117  1  0
 65118  1  0
 65119  1  0
 66120  1  0
 71121  1  0
 74122  1  0
 82123  1  0
 83124  1  0
 84125  1  0
 85126  1  0
 86127  1  0
 87128  1  0
 87129  1  0
 88130  1  0
M  END

