
     RDKit          3D

113128  0  0  0  0  0  0  0  0999 V2000
    4.9847    6.7945   -6.9039 C   0  0  0  0  0  0  0  0  0  0  0  0
    4.3198    7.3342   -7.9504 C   0  0  0  0  0  0  0  0  0  0  0  0
    2.9181    7.1178   -8.3269 C   0  0  0  0  0  0  0  0  0  0  0  0
    2.2790    6.0426   -8.2043 O   0  0  0  0  0  0  0  0  0  0  0  0
    2.4722    8.2548   -9.1122 C   0  0  0  0  0  0  0  0  0  0  0  0
    1.1751    8.6052   -9.5088 C   0  0  0  0  0  0  0  0  0  0  0  0
   -0.2193    7.6222   -9.0784 Cl  0  0  0  0  0  0  0  0  0  0  0  0
    0.9866    9.8122  -10.1972 C   0  0  0  0  0  0  0  0  0  0  0  0
    2.0861   10.6437  -10.4733 C   0  0  0  0  0  0  0  0  0  0  0  0
    1.8151   12.2985  -11.3845 Br  0  0  0  0  0  0  0  0  0  0  0  0
    3.3796   10.2786  -10.0697 C   0  0  0  0  0  0  0  0  0  0  0  0
    3.5654    9.0560   -9.3989 C   0  0  0  0  0  0  0  0  0  0  0  0
    4.7960    8.4642   -8.8088 C   0  0  0  0  0  0  0  0  0  0  0  0
    6.0776    8.7021   -9.2048 C   0  0  0  0  0  0  0  0  0  0  0  0
    6.3996    9.6541  -10.2345 C   0  0  0  0  0  0  0  0  0  0  0  0
    6.6687   10.4007  -11.0764 N   0  0  0  0  0  0  0  0  0  0  0  0
    7.1824    7.8865   -8.7710 C   0  0  0  0  0  0  0  0  0  0  0  0
    8.0759    7.2346   -8.4285 N   0  0  0  0  0  0  0  0  0  0  0  0
    4.4596    5.8145   -5.9229 C   0  0  0  0  0  0  0  0  0  0  0  0
    2.8442    5.5734   -5.4467 S   0  0  0  0  0  0  0  0  0  0  0  0
    3.1846    4.4043   -4.2961 C   0  0  0  0  0  0  0  0  0  0  0  0
    2.3110    3.6683   -3.4804 C   0  0  0  0  0  0  0  0  0  0  0  0
    0.6196    3.7770   -3.4384 S   0  0  0  0  0  0  0  0  0  0  0  0
    0.5307    2.5722   -2.2727 C   0  0  0  0  0  0  0  0  0  0  0  0
   -0.4185    2.1380   -1.4103 C   0  0  0  0  0  0  0  0  0  0  0  0
   -1.7348    2.5693   -1.2492 C   0  0  0  0  0  0  0  0  0  0  0  0
   -2.4697    2.1139   -0.1287 C   0  0  0  0  0  0  0  0  0  0  0  0
   -3.7484    2.5521   -0.0071 N   0  0  0  0  0  0  0  0  0  0  0  0
   -3.8380    3.5211   -1.3445 S   0  0  0  0  0  0  0  0  0  0  0  0
   -2.3650    3.4258   -2.0924 N   0  0  0  0  0  0  0  0  0  0  0  0
   -1.8604    1.2087    0.7478 C   0  0  0  0  0  0  0  0  0  0  0  0
   -2.4406    0.4080    1.6788 C   0  0  0  0  0  0  0  0  0  0  0  0
   -4.0318    0.0879    2.1236 S   0  0  0  0  0  0  0  0  0  0  0  0
   -3.5989   -1.4021    2.8025 C   0  0  0  0  0  0  0  0  0  0  0  0
   -4.4600   -2.3491    3.3857 C   0  0  0  0  0  0  0  0  0  0  0  0
   -3.9720   -3.5587    3.8673 C   0  0  0  0  0  0  0  0  0  0  0  0
   -2.6154   -3.8327    3.7087 C   0  0  0  0  0  0  0  0  0  0  0  0
   -1.9494   -4.9596    4.0041 N   0  0  0  0  0  0  0  0  0  0  0  0
   -0.7104   -4.7302    3.5786 N   0  0  0  0  0  0  0  0  0  0  0  0
    0.3718   -5.7008    3.6978 C   0  0  0  0  0  0  0  0  0  0  0  0
    1.1914   -5.4222    4.9520 C   0  0  0  0  0  0  0  0  0  0  0  0
   -0.5573   -3.5244    3.0312 N   0  0  0  0  0  0  0  0  0  0  0  0
   -1.7610   -2.9399    3.0994 C   0  0  0  0  0  0  0  0  0  0  0  0
   -2.2121   -1.6785    2.6398 C   0  0  0  0  0  0  0  0  0  0  0  0
   -1.5724   -0.5929    1.9806 C   0  0  0  0  0  0  0  0  0  0  0  0
   -0.3858   -0.4259    1.3156 N   0  0  0  0  0  0  0  0  0  0  0  0
   -0.5531    0.7247    0.5681 C   0  0  0  0  0  0  0  0  0  0  0  0
    0.2324    1.2827   -0.5060 C   0  0  0  0  0  0  0  0  0  0  0  0
    1.5982    1.3018   -0.7521 N   0  0  0  0  0  0  0  0  0  0  0  0
    1.7334    2.0913   -1.8648 C   0  0  0  0  0  0  0  0  0  0  0  0
    2.8082    2.7260   -2.5424 C   0  0  0  0  0  0  0  0  0  0  0  0
    4.2158    2.5911   -2.4691 C   0  0  0  0  0  0  0  0  0  0  0  0
    5.0535    3.3116   -3.2926 C   0  0  0  0  0  0  0  0  0  0  0  0
    4.5609    4.2209   -4.2255 C   0  0  0  0  0  0  0  0  0  0  0  0
    5.2833    5.0118   -5.1249 C   0  0  0  0  0  0  0  0  0  0  0  0
    6.3257    2.9787   -3.0327 N   0  0  0  0  0  0  0  0  0  0  0  0
    6.2354    2.0640   -2.0676 N   0  0  0  0  0  0  0  0  0  0  0  0
    7.3896    1.4303   -1.4481 C   0  0  0  0  0  0  0  0  0  0  0  0
    7.8630    2.2515   -0.2570 C   0  0  0  0  0  0  0  0  0  0  0  0
    4.9835    1.8073   -1.7033 N   0  0  0  0  0  0  0  0  0  0  0  0
    2.6691    1.0702    0.2280 C   0  0  0  0  0  0  0  0  0  0  0  0
    3.5711   -0.1151   -0.1573 C   0  0  0  0  0  0  0  0  0  0  0  0
    0.6067   -1.4761    1.1122 C   0  0  0  0  0  0  0  0  0  0  0  0
    1.5135   -1.6266    2.3456 C   0  0  0  0  0  0  0  0  0  0  0  0
   -4.9478   -4.3900    4.4257 C   0  0  0  0  0  0  0  0  0  0  0  0
   -6.2386   -3.8558    4.3108 C   0  0  0  0  0  0  0  0  0  0  0  0
   -6.1284   -2.3147    3.5973 S   0  0  0  0  0  0  0  0  0  0  0  0
   -7.5106   -4.3952    4.8502 C   0  0  0  0  0  0  0  0  0  0  0  0
   -7.7116   -5.6218    5.3646 C   0  0  0  0  0  0  0  0  0  0  0  0
   -8.7481   -5.8867    6.3640 C   0  0  0  0  0  0  0  0  0  0  0  0
   -9.8160   -5.2279    6.5195 O   0  0  0  0  0  0  0  0  0  0  0  0
   -8.3212   -7.0115    7.1748 C   0  0  0  0  0  0  0  0  0  0  0  0
   -8.8595   -7.4776    8.3743 C   0  0  0  0  0  0  0  0  0  0  0  0
   -8.1647   -8.4801    9.0707 C   0  0  0  0  0  0  0  0  0  0  0  0
   -6.9310   -8.9680    8.5812 C   0  0  0  0  0  0  0  0  0  0  0  0
   -5.8516  -10.3997    9.6972 I   0  0  0  0  0  0  0  0  0  0  0  0
   -6.4045   -8.4749    7.3720 C   0  0  0  0  0  0  0  0  0  0  0  0
   -7.1312   -7.5055    6.6633 C   0  0  0  0  0  0  0  0  0  0  0  0
   -6.7998   -6.7972    5.4046 C   0  0  0  0  0  0  0  0  0  0  0  0
   -6.2342   -7.3773    4.3192 C   0  0  0  0  0  0  0  0  0  0  0  0
   -5.6286   -8.6859    4.3804 C   0  0  0  0  0  0  0  0  0  0  0  0
   -5.1655   -9.7467    4.4137 N   0  0  0  0  0  0  0  0  0  0  0  0
   -6.3863   -6.8175    2.9974 C   0  0  0  0  0  0  0  0  0  0  0  0
   -6.5067   -6.3968    1.9187 N   0  0  0  0  0  0  0  0  0  0  0  0
    5.9958    7.1186   -6.7102 H   0  0  0  0  0  0  0  0  0  0  0  0
   -0.0132   10.1223  -10.4856 H   0  0  0  0  0  0  0  0  0  0  0  0
    4.1978   10.9579  -10.2629 H   0  0  0  0  0  0  0  0  0  0  0  0
   -0.0517   -6.7291    3.7506 H   0  0  0  0  0  0  0  0  0  0  0  0
    1.0303   -5.6390    2.8038 H   0  0  0  0  0  0  0  0  0  0  0  0
    0.5512   -5.5138    5.8551 H   0  0  0  0  0  0  0  0  0  0  0  0
    1.6205   -4.3985    4.9043 H   0  0  0  0  0  0  0  0  0  0  0  0
    2.0222   -6.1602    5.0244 H   0  0  0  0  0  0  0  0  0  0  0  0
    6.3635    5.0012   -5.1981 H   0  0  0  0  0  0  0  0  0  0  0  0
    8.2132    1.3427   -2.1928 H   0  0  0  0  0  0  0  0  0  0  0  0
    7.1197    0.4102   -1.1068 H   0  0  0  0  0  0  0  0  0  0  0  0
    7.0388    2.3589    0.4790 H   0  0  0  0  0  0  0  0  0  0  0  0
    8.1919    3.2597   -0.5891 H   0  0  0  0  0  0  0  0  0  0  0  0
    8.7187    1.7353    0.2357 H   0  0  0  0  0  0  0  0  0  0  0  0
    2.2399    0.9491    1.2356 H   0  0  0  0  0  0  0  0  0  0  0  0
    3.2867    1.9863    0.3031 H   0  0  0  0  0  0  0  0  0  0  0  0
    4.6057    0.0878    0.1791 H   0  0  0  0  0  0  0  0  0  0  0  0
    3.2900   -1.0613    0.3367 H   0  0  0  0  0  0  0  0  0  0  0  0
    3.5565   -0.2887   -1.2565 H   0  0  0  0  0  0  0  0  0  0  0  0
    0.0882   -2.4331    0.9079 H   0  0  0  0  0  0  0  0  0  0  0  0
    1.1771   -1.2826    0.1900 H   0  0  0  0  0  0  0  0  0  0  0  0
    0.9334   -1.5445    3.2849 H   0  0  0  0  0  0  0  0  0  0  0  0
    2.0344   -2.6041    2.3103 H   0  0  0  0  0  0  0  0  0  0  0  0
    2.2821   -0.8380    2.4061 H   0  0  0  0  0  0  0  0  0  0  0  0
   -4.6995   -5.3229    4.9066 H   0  0  0  0  0  0  0  0  0  0  0  0
   -8.3176   -3.6774    4.9367 H   0  0  0  0  0  0  0  0  0  0  0  0
   -9.7858   -7.0726    8.7644 H   0  0  0  0  0  0  0  0  0  0  0  0
   -8.5600   -8.8582   10.0047 H   0  0  0  0  0  0  0  0  0  0  0  0
   -5.4391   -8.8125    7.0242 H   0  0  0  0  0  0  0  0  0  0  0  0
  1  2  2  3
  2  3  1  0
  3  4  2  0
  3  5  1  0
  5  6  2  0
  6  7  1  0
  6  8  1  0
  8  9  2  0
  9 10  1  0
  9 11  1  0
 11 12  2  0
 12 13  1  0
 13 14  2  3
 14 15  1  0
 15 16  3  0
 14 17  1  0
 17 18  3  0
  1 19  1  0
 19 20  1  0
 20 21  1  0
 21 22  1  0
 22 23  1  0
 23 24  1  0
 24 25  1  0
 25 26  1  0
 26 27  1  0
 27 28  2  0
 28 29  1  0
 29 30  1  0
 27 31  1  0
 31 32  1  0
 32 33  1  0
 33 34  1  0
 34 35  1  0
 35 36  2  0
 36 37  1  0
 37 38  2  0
 38 39  1  0
 39 40  1  0
 40 41  1  0
 39 42  1  0
 42 43  2  0
 43 44  1  0
 44 45  1  0
 45 46  1  0
 46 47  1  0
 47 48  1  0
 48 49  1  0
 49 50  1  0
 50 51  1  0
 51 52  1  0
 52 53  1  0
 53 54  1  0
 54 55  1  0
 53 56  2  0
 56 57  1  0
 57 58  1  0
 58 59  1  0
 57 60  1  0
 49 61  1  0
 61 62  1  0
 46 63  1  0
 63 64  1  0
 36 65  1  0
 65 66  2  0
 66 67  1  0
 66 68  1  0
 68 69  2  3
 69 70  1  0
 70 71  2  0
 70 72  1  0
 72 73  2  0
 73 74  1  0
 74 75  2  0
 75 76  1  0
 75 77  1  0
 77 78  2  0
 78 79  1  0
 79 80  2  3
 80 81  1  0
 81 82  3  0
 80 83  1  0
 83 84  3  0
 13  2  1  0
 55 19  2  0
 79 69  1  0
 12  5  1  0
 54 21  2  0
 78 72  1  0
 51 22  2  0
 60 52  2  0
 50 24  2  0
 48 25  2  0
 30 26  2  0
 47 31  2  0
 45 32  2  0
 44 34  2  0
 67 35  1  0
 43 37  1  0
  1 85  1  0
  8 86  1  0
 11 87  1  0
 40 88  1  0
 40 89  1  0
 41 90  1  0
 41 91  1  0
 41 92  1  0
 55 93  1  0
 58 94  1  0
 58 95  1  0
 59 96  1  0
 59 97  1  0
 59 98  1  0
 61 99  1  0
 61100  1  0
 62101  1  0
 62102  1  0
 62103  1  0
 63104  1  0
 63105  1  0
 64106  1  0
 64107  1  0
 64108  1  0
 65109  1  0
 68110  1  0
 73111  1  0
 74112  1  0
 77113  1  0
M  END

