
     RDKit          3D

 86 95  0  0  0  0  0  0  0  0999 V2000
   -5.5220   -2.5149   -2.0268 C   0  0  0  0  0  0  0  0  0  0  0  0
   -5.5997   -1.7777   -3.1523 C   0  0  0  0  0  0  0  0  0  0  0  0
   -6.8067   -1.7183   -3.9767 C   0  0  0  0  0  0  0  0  0  0  0  0
   -7.7693   -2.5305   -3.9412 O   0  0  0  0  0  0  0  0  0  0  0  0
   -6.7424   -0.5125   -4.7816 C   0  0  0  0  0  0  0  0  0  0  0  0
   -7.7152    0.0179   -5.6322 C   0  0  0  0  0  0  0  0  0  0  0  0
   -7.4602    1.2483   -6.2569 C   0  0  0  0  0  0  0  0  0  0  0  0
   -8.6610    1.9448   -7.3375 Cl  0  0  0  0  0  0  0  0  0  0  0  0
   -6.2539    1.9316   -5.9987 C   0  0  0  0  0  0  0  0  0  0  0  0
   -6.0174    3.1350   -6.5768 F   0  0  0  0  0  0  0  0  0  0  0  0
   -5.2859    1.3786   -5.1415 C   0  0  0  0  0  0  0  0  0  0  0  0
   -5.5387    0.1328   -4.5477 C   0  0  0  0  0  0  0  0  0  0  0  0
   -4.6981   -0.6924   -3.6386 C   0  0  0  0  0  0  0  0  0  0  0  0
   -3.3413   -0.7187   -3.6216 C   0  0  0  0  0  0  0  0  0  0  0  0
   -2.5407    0.3204   -4.2108 C   0  0  0  0  0  0  0  0  0  0  0  0
   -1.8838    1.1490   -4.6816 N   0  0  0  0  0  0  0  0  0  0  0  0
   -2.6117   -1.8723   -3.1567 C   0  0  0  0  0  0  0  0  0  0  0  0
   -2.0217   -2.8000   -2.7911 N   0  0  0  0  0  0  0  0  0  0  0  0
   -4.6043   -2.2438   -0.9038 C   0  0  0  0  0  0  0  0  0  0  0  0
   -3.8783   -3.4667    0.0371 S   0  0  0  0  0  0  0  0  0  0  0  0
   -3.0678   -2.3653    1.0063 C   0  0  0  0  0  0  0  0  0  0  0  0
   -1.9042   -2.3639    1.7189 C   0  0  0  0  0  0  0  0  0  0  0  0
   -0.9501   -3.3768    1.8805 C   0  0  0  0  0  0  0  0  0  0  0  0
   -1.0244   -4.6838    1.5922 N   0  0  0  0  0  0  0  0  0  0  0  0
    0.2196   -5.1365    1.7574 N   0  0  0  0  0  0  0  0  0  0  0  0
    0.6092   -6.5161    1.4890 C   0  0  0  0  0  0  0  0  0  0  0  0
    0.8338   -6.7170   -0.0050 C   0  0  0  0  0  0  0  0  0  0  0  0
    1.0914   -4.1812    2.0809 N   0  0  0  0  0  0  0  0  0  0  0  0
    0.3491   -3.0682    2.1654 C   0  0  0  0  0  0  0  0  0  0  0  0
    0.7287   -1.7449    2.3672 C   0  0  0  0  0  0  0  0  0  0  0  0
    1.9212   -1.1236    2.5946 C   0  0  0  0  0  0  0  0  0  0  0  0
    3.5624   -1.4554    2.6459 S   0  0  0  0  0  0  0  0  0  0  0  0
    3.9458    0.2000    2.8807 C   0  0  0  0  0  0  0  0  0  0  0  0
    2.7865    0.9929    2.9190 C   0  0  0  0  0  0  0  0  0  0  0  0
    1.6673    0.1929    2.7342 C   0  0  0  0  0  0  0  0  0  0  0  0
    0.3495    0.4908    2.6125 N   0  0  0  0  0  0  0  0  0  0  0  0
   -0.3124    1.6356    3.2501 C   0  0  0  0  0  0  0  0  0  0  0  0
   -0.0741    1.6365    4.7603 C   0  0  0  0  0  0  0  0  0  0  0  0
   -0.2175   -0.7121    2.2991 C   0  0  0  0  0  0  0  0  0  0  0  0
   -1.5306   -1.0087    1.8349 C   0  0  0  0  0  0  0  0  0  0  0  0
   -2.3645   -0.2174    1.0808 N   0  0  0  0  0  0  0  0  0  0  0  0
   -3.3015   -1.0896    0.6168 C   0  0  0  0  0  0  0  0  0  0  0  0
   -4.1742   -0.9776   -0.4699 C   0  0  0  0  0  0  0  0  0  0  0  0
   -1.9949    1.0110    0.3577 C   0  0  0  0  0  0  0  0  0  0  0  0
   -0.9628    0.7220   -0.7264 C   0  0  0  0  0  0  0  0  0  0  0  0
    5.3062    0.7425    2.8053 C   0  0  0  0  0  0  0  0  0  0  0  0
    5.9138    0.9928    1.6283 C   0  0  0  0  0  0  0  0  0  0  0  0
    5.2690    0.9300    0.3082 C   0  0  0  0  0  0  0  0  0  0  0  0
    4.1532    0.4095    0.0404 O   0  0  0  0  0  0  0  0  0  0  0  0
    6.1095    1.6214   -0.6442 C   0  0  0  0  0  0  0  0  0  0  0  0
    5.8388    1.9033   -1.9833 C   0  0  0  0  0  0  0  0  0  0  0  0
    6.7626    2.6699   -2.7057 C   0  0  0  0  0  0  0  0  0  0  0  0
    6.5239    2.9621   -4.0084 F   0  0  0  0  0  0  0  0  0  0  0  0
    7.9200    3.1602   -2.0743 C   0  0  0  0  0  0  0  0  0  0  0  0
    8.7945    3.9300   -2.7698 F   0  0  0  0  0  0  0  0  0  0  0  0
    8.1663    2.8760   -0.7201 C   0  0  0  0  0  0  0  0  0  0  0  0
    7.2555    2.0731   -0.0117 C   0  0  0  0  0  0  0  0  0  0  0  0
    7.2544    1.6219    1.4118 C   0  0  0  0  0  0  0  0  0  0  0  0
    8.3187    1.5821    2.2564 C   0  0  0  0  0  0  0  0  0  0  0  0
    9.6104    2.1119    1.9059 C   0  0  0  0  0  0  0  0  0  0  0  0
   10.6597    2.5281    1.6430 N   0  0  0  0  0  0  0  0  0  0  0  0
    8.2778    0.8854    3.5165 C   0  0  0  0  0  0  0  0  0  0  0  0
    8.2582    0.3250    4.5298 N   0  0  0  0  0  0  0  0  0  0  0  0
   -6.2519   -3.3026   -1.8714 H   0  0  0  0  0  0  0  0  0  0  0  0
   -8.6499   -0.5024   -5.7979 H   0  0  0  0  0  0  0  0  0  0  0  0
   -4.3852    1.9393   -4.9385 H   0  0  0  0  0  0  0  0  0  0  0  0
    1.5454   -6.7561    2.0377 H   0  0  0  0  0  0  0  0  0  0  0  0
   -0.1876   -7.2051    1.8396 H   0  0  0  0  0  0  0  0  0  0  0  0
    1.1293   -7.7698   -0.2000 H   0  0  0  0  0  0  0  0  0  0  0  0
   -0.0981   -6.4962   -0.5708 H   0  0  0  0  0  0  0  0  0  0  0  0
    1.6440   -6.0447   -0.3621 H   0  0  0  0  0  0  0  0  0  0  0  0
    2.7706    2.0721    2.9866 H   0  0  0  0  0  0  0  0  0  0  0  0
    0.0657    2.5829    2.8071 H   0  0  0  0  0  0  0  0  0  0  0  0
   -1.4108    1.5748    3.1169 H   0  0  0  0  0  0  0  0  0  0  0  0
   -0.6307    2.4767    5.2240 H   0  0  0  0  0  0  0  0  0  0  0  0
    1.0021    1.7612    4.9955 H   0  0  0  0  0  0  0  0  0  0  0  0
   -0.4319    0.6815    5.1959 H   0  0  0  0  0  0  0  0  0  0  0  0
   -4.4371   -0.0461   -0.9517 H   0  0  0  0  0  0  0  0  0  0  0  0
   -1.6034    1.7911    1.0230 H   0  0  0  0  0  0  0  0  0  0  0  0
   -2.8951    1.4576   -0.1123 H   0  0  0  0  0  0  0  0  0  0  0  0
   -0.8546    1.6062   -1.3858 H   0  0  0  0  0  0  0  0  0  0  0  0
   -1.2802   -0.1399   -1.3403 H   0  0  0  0  0  0  0  0  0  0  0  0
    0.0233    0.4922   -0.2666 H   0  0  0  0  0  0  0  0  0  0  0  0
    5.7648    1.0248    3.7397 H   0  0  0  0  0  0  0  0  0  0  0  0
    4.9320    1.5477   -2.4554 H   0  0  0  0  0  0  0  0  0  0  0  0
    9.0364    3.3070   -0.2563 H   0  0  0  0  0  0  0  0  0  0  0  0
  1  2  2  3
  2  3  1  0
  3  4  2  0
  3  5  1  0
  5  6  2  0
  6  7  1  0
  7  8  1  0
  7  9  2  0
  9 10  1  0
  9 11  1  0
 11 12  2  0
 12 13  1  0
 13 14  2  3
 14 15  1  0
 15 16  3  0
 14 17  1  0
 17 18  3  0
  1 19  1  0
 19 20  1  0
 20 21  1  0
 21 22  1  0
 22 23  1  0
 23 24  2  0
 24 25  1  0
 25 26  1  0
 26 27  1  0
 25 28  1  0
 28 29  2  0
 29 30  1  0
 30 31  1  0
 31 32  1  0
 32 33  1  0
 33 34  2  0
 34 35  1  0
 35 36  1  0
 36 37  1  0
 37 38  1  0
 36 39  1  0
 39 40  1  0
 40 41  1  0
 41 42  1  0
 42 43  1  0
 41 44  1  0
 44 45  1  0
 33 46  1  0
 46 47  2  3
 47 48  1  0
 48 49  2  0
 48 50  1  0
 50 51  2  0
 51 52  1  0
 52 53  1  0
 52 54  2  0
 54 55  1  0
 54 56  1  0
 56 57  2  0
 57 58  1  0
 58 59  2  3
 59 60  1  0
 60 61  3  0
 59 62  1  0
 62 63  3  0
 13  2  1  0
 43 19  2  0
 58 47  1  0
 12  5  1  0
 42 21  2  0
 57 50  1  0
 40 22  2  0
 29 23  1  0
 39 30  2  0
 35 31  2  0
  1 64  1  0
  6 65  1  0
 11 66  1  0
 26 67  1  0
 26 68  1  0
 27 69  1  0
 27 70  1  0
 27 71  1  0
 34 72  1  0
 37 73  1  0
 37 74  1  0
 38 75  1  0
 38 76  1  0
 38 77  1  0
 43 78  1  0
 44 79  1  0
 44 80  1  0
 45 81  1  0
 45 82  1  0
 45 83  1  0
 46 84  1  0
 51 85  1  0
 56 86  1  0
M  END

