
     RDKit          3D

 88 99  0  0  0  0  0  0  0  0999 V2000
    5.1035    6.3235    1.8614 C   0  0  0  0  0  0  0  0  0  0  0  0
    4.0927    7.0112    1.4324 C   0  0  0  0  0  0  0  0  0  0  0  0
    4.1245    8.4991    1.3459 C   0  0  0  0  0  0  0  0  0  0  0  0
    5.1053    9.2100    1.7455 O   0  0  0  0  0  0  0  0  0  0  0  0
    2.9070    8.9984    0.7619 C   0  0  0  0  0  0  0  0  0  0  0  0
    2.5391   10.3412    0.4805 C   0  0  0  0  0  0  0  0  0  0  0  0
    1.3304   10.5241   -0.0975 C   0  0  0  0  0  0  0  0  0  0  0  0
    0.9061   12.2613   -0.4328 Cl  0  0  0  0  0  0  0  0  0  0  0  0
    0.4849    9.5737   -0.4217 C   0  0  0  0  0  0  0  0  0  0  0  0
   -0.7201    9.7969   -1.0125 F   0  0  0  0  0  0  0  0  0  0  0  0
    0.8796    8.2451   -0.1326 C   0  0  0  0  0  0  0  0  0  0  0  0
    2.0844    7.9570    0.4592 C   0  0  0  0  0  0  0  0  0  0  0  0
    2.7825    6.6545    0.8796 C   0  0  0  0  0  0  0  0  0  0  0  0
    2.0768    5.6072    0.8908 C   0  0  0  0  0  0  0  0  0  0  0  0
    0.7903    5.3761    0.2610 C   0  0  0  0  0  0  0  0  0  0  0  0
   -0.1783    5.2135   -0.2095 N   0  0  0  0  0  0  0  0  0  0  0  0
    2.2778    4.4330    1.8823 C   0  0  0  0  0  0  0  0  0  0  0  0
    2.4062    3.6285    2.5402 N   0  0  0  0  0  0  0  0  0  0  0  0
    5.2372    4.9010    1.9880 C   0  0  0  0  0  0  0  0  0  0  0  0
    5.4039    3.9628    2.8934 C   0  0  0  0  0  0  0  0  0  0  0  0
    5.2982    2.6312    2.5751 C   0  0  0  0  0  0  0  0  0  0  0  0
    5.1774    1.1283    3.5572 S   0  0  0  0  0  0  0  0  0  0  0  0
    4.7229    0.0533    2.2522 C   0  0  0  0  0  0  0  0  0  0  0  0
    4.1273   -1.1841    2.0700 C   0  0  0  0  0  0  0  0  0  0  0  0
    3.8812   -2.2601    2.9397 C   0  0  0  0  0  0  0  0  0  0  0  0
    3.0943   -3.3387    2.3781 C   0  0  0  0  0  0  0  0  0  0  0  0
    2.8843   -4.2927    3.2809 N   0  0  0  0  0  0  0  0  0  0  0  0
    3.6335   -3.8538    4.6790 S   0  0  0  0  0  0  0  0  0  0  0  0
    4.2361   -2.3859    4.1503 N   0  0  0  0  0  0  0  0  0  0  0  0
    2.6335   -3.2221    1.0814 C   0  0  0  0  0  0  0  0  0  0  0  0
    1.5243   -3.9224    0.5166 C   0  0  0  0  0  0  0  0  0  0  0  0
    1.1588   -3.2581   -0.5587 C   0  0  0  0  0  0  0  0  0  0  0  0
    1.9991   -2.1954   -0.7490 N   0  0  0  0  0  0  0  0  0  0  0  0
    1.7991   -1.2659   -1.8465 C   0  0  0  0  0  0  0  0  0  0  0  0
    2.4244   -1.7612   -3.1001 C   0  0  0  0  0  0  0  0  0  0  0  0
    2.9110   -2.1395    0.2681 C   0  0  0  0  0  0  0  0  0  0  0  0
    3.6963   -1.0737    0.7332 C   0  0  0  0  0  0  0  0  0  0  0  0
    4.0645    0.1170    0.2062 N   0  0  0  0  0  0  0  0  0  0  0  0
    4.7322    0.8328    1.2929 C   0  0  0  0  0  0  0  0  0  0  0  0
    5.0238    2.1633    1.3675 C   0  0  0  0  0  0  0  0  0  0  0  0
    4.8793    3.7717    0.3496 Se  0  0  0  0  0  2  0  0  0  0  0  0
    4.0497    0.5813   -1.1093 C   0  0  0  0  0  0  0  0  0  0  0  0
    3.1332    1.6411   -1.6097 C   0  0  0  0  0  0  0  0  0  0  0  0
   -0.0047   -3.7120   -1.1202 C   0  0  0  0  0  0  0  0  0  0  0  0
   -0.6773   -4.7352   -0.6304 C   0  0  0  0  0  0  0  0  0  0  0  0
    0.3724   -5.1395    0.7229 S   0  0  0  0  0  0  0  0  0  0  0  0
   -1.9166   -5.0383   -1.0821 C   0  0  0  0  0  0  0  0  0  0  0  0
   -2.6036   -4.4473   -1.9661 C   0  0  0  0  0  0  0  0  0  0  0  0
   -1.3080   -3.0487   -2.4263 Se  0  0  0  0  0  2  0  0  0  0  0  0
   -3.9598   -4.6129   -2.4616 C   0  0  0  0  0  0  0  0  0  0  0  0
   -4.9272   -3.7398   -2.0181 C   0  0  0  0  0  0  0  0  0  0  0  0
   -4.9836   -2.4489   -1.0654 S   0  0  0  0  0  0  0  0  0  0  0  0
   -6.7460   -2.2695   -0.8284 C   0  0  0  0  0  0  0  0  0  0  0  0
   -7.2246   -1.2630   -0.2025 C   0  0  0  0  0  0  0  0  0  0  0  0
   -8.6618   -1.0636    0.0517 C   0  0  0  0  0  0  0  0  0  0  0  0
   -9.7516   -0.9213    0.2370 N   0  0  0  0  0  0  0  0  0  0  0  0
   -6.4158   -0.1418    0.2289 C   0  0  0  0  0  0  0  0  0  0  0  0
   -5.7648    0.7794    0.5683 N   0  0  0  0  0  0  0  0  0  0  0  0
   -7.1003   -3.3072   -1.5710 N   0  0  0  0  0  0  0  0  0  0  0  0
   -8.5661   -3.5786   -1.5549 C   0  0  0  0  0  0  0  0  0  0  0  0
   -9.1703   -3.5613   -2.8460 C   0  0  0  0  0  0  0  0  0  0  0  0
  -10.5622   -3.9151   -2.7427 C   0  0  0  0  0  0  0  0  0  0  0  0
  -11.2225   -4.2015   -1.7235 C   0  0  0  0  0  0  0  0  0  0  0  0
  -10.6228   -4.2320   -0.3910 C   0  0  0  0  0  0  0  0  0  0  0  0
   -9.2461   -3.8863   -0.4760 C   0  0  0  0  0  0  0  0  0  0  0  0
   -6.3065   -4.1209   -2.2226 C   0  0  0  0  0  0  0  0  0  0  0  0
   -6.6281   -5.0776   -2.9338 O   0  0  0  0  0  0  0  0  0  0  0  0
    5.9935    6.9087    2.1946 H   0  0  0  0  0  0  0  0  0  0  0  0
    3.2329   11.0781    0.7654 H   0  0  0  0  0  0  0  0  0  0  0  0
    0.1744    7.5082   -0.3891 H   0  0  0  0  0  0  0  0  0  0  0  0
    5.6613    4.2867    3.9582 H   0  0  0  0  0  0  0  0  0  0  0  0
    0.6305   -1.3634   -2.1485 H   0  0  0  0  0  0  0  0  0  0  0  0
    1.8759   -0.2855   -1.5844 H   0  0  0  0  0  0  0  0  0  0  0  0
    2.9502   -0.9097   -3.7073 H   0  0  0  0  0  0  0  0  0  0  0  0
    1.7666   -2.2066   -3.8543 H   0  0  0  0  0  0  0  0  0  0  0  0
    3.2533   -2.5198   -2.9679 H   0  0  0  0  0  0  0  0  0  0  0  0
    4.1495   -0.2316   -1.8984 H   0  0  0  0  0  0  0  0  0  0  0  0
    5.1048    1.1061   -1.2888 H   0  0  0  0  0  0  0  0  0  0  0  0
    3.7128    2.6020   -1.9600 H   0  0  0  0  0  0  0  0  0  0  0  0
    2.6020    1.4210   -2.5706 H   0  0  0  0  0  0  0  0  0  0  0  0
    2.3095    1.9405   -0.8514 H   0  0  0  0  0  0  0  0  0  0  0  0
   -2.4281   -5.9686   -0.5914 H   0  0  0  0  0  0  0  0  0  0  0  0
   -4.2068   -5.3764   -3.1693 H   0  0  0  0  0  0  0  0  0  0  0  0
   -8.6740   -3.3421   -3.6996 H   0  0  0  0  0  0  0  0  0  0  0  0
  -11.0349   -3.8842   -3.7612 H   0  0  0  0  0  0  0  0  0  0  0  0
  -12.3382   -4.4636   -1.6710 H   0  0  0  0  0  0  0  0  0  0  0  0
  -11.1810   -4.4547    0.4123 H   0  0  0  0  0  0  0  0  0  0  0  0
   -8.7837   -3.8847    0.5439 H   0  0  0  0  0  0  0  0  0  0  0  0
  1  2  2  3
  2  3  1  0
  3  4  2  0
  3  5  1  0
  5  6  2  0
  6  7  1  0
  7  8  1  0
  7  9  2  0
  9 10  1  0
  9 11  1  0
 11 12  2  0
 12 13  1  0
 13 14  2  3
 14 15  1  0
 15 16  3  0
 14 17  1  0
 17 18  3  0
  1 19  1  0
 19 20  2  0
 20 21  1  0
 21 22  1  0
 22 23  1  0
 23 24  1  0
 24 25  1  0
 25 26  1  0
 26 27  2  0
 27 28  1  0
 28 29  1  0
 26 30  1  0
 30 31  1  0
 31 32  2  0
 32 33  1  0
 33 34  1  0
 34 35  1  0
 33 36  1  0
 36 37  1  0
 37 38  1  0
 38 39  1  0
 39 40  1  0
 40 41  1  0
 38 42  1  0
 42 43  1  0
 32 44  1  0
 44 45  2  0
 45 46  1  0
 45 47  1  0
 47 48  2  0
 48 49  1  0
 48 50  1  0
 50 51  2  3
 51 52  1  0
 52 53  1  0
 53 54  2  3
 54 55  1  0
 55 56  3  0
 54 57  1  0
 57 58  3  0
 53 59  1  0
 59 60  1  0
 60 61  2  0
 61 62  1  0
 62 63  2  0
 63 64  1  0
 64 65  2  0
 59 66  1  0
 66 67  2  0
 13  2  1  0
 41 19  1  0
 49 44  1  0
 66 51  1  0
 12  5  1  0
 40 21  2  0
 65 60  1  0
 39 23  2  0
 37 24  2  0
 29 25  2  0
 36 30  2  0
 46 31  1  0
  1 68  1  0
  6 69  1  0
 11 70  1  0
 20 71  1  0
 34 72  1  0
 34 73  1  0
 35 74  1  0
 35 75  1  0
 35 76  1  0
 42 77  1  0
 42 78  1  0
 43 79  1  0
 43 80  1  0
 43 81  1  0
 47 82  1  0
 50 83  1  0
 61 84  1  0
 62 85  1  0
 63 86  1  0
 64 87  1  0
 65 88  1  0
M  END

