
     RDKit          3D

 97109  0  0  0  0  0  0  0  0999 V2000
    4.3746   -1.2030    6.5310 C   0  0  0  0  0  0  0  0  0  0  0  0
    3.5556   -1.0059    7.5840 C   0  0  0  0  0  0  0  0  0  0  0  0
    2.1212   -1.3335    7.6358 C   0  0  0  0  0  0  0  0  0  0  0  0
    1.5031   -2.1426    6.8901 O   0  0  0  0  0  0  0  0  0  0  0  0
    1.5310   -0.6148    8.7398 C   0  0  0  0  0  0  0  0  0  0  0  0
    0.1829   -0.5153    9.0815 C   0  0  0  0  0  0  0  0  0  0  0  0
   -0.1804    0.3414   10.1338 C   0  0  0  0  0  0  0  0  0  0  0  0
   -1.8727    0.5057   10.5737 Cl  0  0  0  0  0  0  0  0  0  0  0  0
    0.8080    1.0818   10.8102 C   0  0  0  0  0  0  0  0  0  0  0  0
    0.4558    1.9555   11.7841 F   0  0  0  0  0  0  0  0  0  0  0  0
    2.1605    0.9606   10.4540 C   0  0  0  0  0  0  0  0  0  0  0  0
    2.5185    0.0666    9.4324 C   0  0  0  0  0  0  0  0  0  0  0  0
    3.8509   -0.2402    8.8362 C   0  0  0  0  0  0  0  0  0  0  0  0
    5.0591   -0.0522    9.4256 C   0  0  0  0  0  0  0  0  0  0  0  0
    6.2821   -0.5650    8.8654 C   0  0  0  0  0  0  0  0  0  0  0  0
    7.2736   -0.9769    8.4300 N   0  0  0  0  0  0  0  0  0  0  0  0
    5.1963    0.5262   10.7397 C   0  0  0  0  0  0  0  0  0  0  0  0
    5.3219    0.9792   11.7980 N   0  0  0  0  0  0  0  0  0  0  0  0
    3.9219   -1.7081    5.2205 C   0  0  0  0  0  0  0  0  0  0  0  0
    4.6537   -2.5849    4.3930 C   0  0  0  0  0  0  0  0  0  0  0  0
    5.9787   -3.1997    4.7499 C   0  0  0  0  0  0  0  0  0  0  0  0
    7.1350   -2.3002    4.3248 C   0  0  0  0  0  0  0  0  0  0  0  0
    4.0400   -2.7216    3.1462 C   0  0  0  0  0  0  0  0  0  0  0  0
    2.8999   -1.9803    2.9838 C   0  0  0  0  0  0  0  0  0  0  0  0
    2.5951   -1.0781    4.3559 S   0  0  0  0  0  0  0  0  0  0  0  0
    2.3806   -2.0569    1.6996 C   0  0  0  0  0  0  0  0  0  0  0  0
    3.1396   -2.8430    0.8966 C   0  0  0  0  0  0  0  0  0  0  0  0
    4.5109   -3.4650    1.6833 S   0  0  0  0  0  0  0  0  0  0  0  0
    2.7829   -2.5620   -0.3921 C   0  0  0  0  0  0  0  0  0  0  0  0
    3.4570   -2.8121   -1.5962 C   0  0  0  0  0  0  0  0  0  0  0  0
    4.5279   -3.6374   -1.7200 N   0  0  0  0  0  0  0  0  0  0  0  0
    4.8340   -3.4649   -3.3383 S   0  0  0  0  0  0  0  0  0  0  0  0
    3.7131   -2.3881   -3.9166 N   0  0  0  0  0  0  0  0  0  0  0  0
    3.0301   -2.1320   -2.7745 C   0  0  0  0  0  0  0  0  0  0  0  0
    1.9374   -1.2641   -2.6906 C   0  0  0  0  0  0  0  0  0  0  0  0
    1.2491   -0.5790   -3.6468 C   0  0  0  0  0  0  0  0  0  0  0  0
    1.2921   -0.3391   -5.3279 S   0  0  0  0  0  0  0  0  0  0  0  0
   -0.1834    0.5143   -5.2491 C   0  0  0  0  0  0  0  0  0  0  0  0
   -0.9118    1.2241   -6.1982 C   0  0  0  0  0  0  0  0  0  0  0  0
   -2.0300    1.8378   -5.6181 C   0  0  0  0  0  0  0  0  0  0  0  0
   -2.0459    1.5312   -3.9383 S   0  0  0  0  0  0  0  0  0  0  0  0
   -0.6770    0.5693   -3.9709 C   0  0  0  0  0  0  0  0  0  0  0  0
    0.1574   -0.0430   -3.0480 C   0  0  0  0  0  0  0  0  0  0  0  0
    0.0695   -0.3483   -1.7262 N   0  0  0  0  0  0  0  0  0  0  0  0
   -1.2068   -0.5569   -1.0236 C   0  0  0  0  0  0  0  0  0  0  0  0
   -1.8663    0.7634   -0.6097 C   0  0  0  0  0  0  0  0  0  0  0  0
    1.2309   -1.0510   -1.4972 C   0  0  0  0  0  0  0  0  0  0  0  0
    1.7209   -1.6438   -0.3011 C   0  0  0  0  0  0  0  0  0  0  0  0
    1.5169   -1.2730    1.0075 N   0  0  0  0  0  0  0  0  0  0  0  0
    1.0217    0.0192    1.5019 C   0  0  0  0  0  0  0  0  0  0  0  0
    2.0764    1.1086    1.3184 C   0  0  0  0  0  0  0  0  0  0  0  0
   -2.8505    2.8546   -6.2931 C   0  0  0  0  0  0  0  0  0  0  0  0
   -4.1729    3.0358   -6.0886 C   0  0  0  0  0  0  0  0  0  0  0  0
   -5.0375    2.1627   -5.2850 C   0  0  0  0  0  0  0  0  0  0  0  0
   -4.8008    0.9688   -4.9520 O   0  0  0  0  0  0  0  0  0  0  0  0
   -6.2755    2.8594   -5.0248 C   0  0  0  0  0  0  0  0  0  0  0  0
   -7.3279    2.4598   -4.2010 C   0  0  0  0  0  0  0  0  0  0  0  0
   -8.4092    3.3359   -4.0135 C   0  0  0  0  0  0  0  0  0  0  0  0
   -9.4887    2.9744   -3.1962 C   0  0  0  0  0  0  0  0  0  0  0  0
  -10.5561    3.8555   -3.0142 C   0  0  0  0  0  0  0  0  0  0  0  0
  -10.5541    5.1062   -3.6402 C   0  0  0  0  0  0  0  0  0  0  0  0
  -11.5986    5.9553   -3.4661 F   0  0  0  0  0  0  0  0  0  0  0  0
   -9.4830    5.4883   -4.4510 C   0  0  0  0  0  0  0  0  0  0  0  0
   -8.4052    4.6096   -4.6469 C   0  0  0  0  0  0  0  0  0  0  0  0
   -7.3270    4.9829   -5.4735 C   0  0  0  0  0  0  0  0  0  0  0  0
   -6.2723    4.0752   -5.6833 C   0  0  0  0  0  0  0  0  0  0  0  0
   -5.0193    4.2101   -6.4853 C   0  0  0  0  0  0  0  0  0  0  0  0
   -4.7709    5.1312   -7.4573 C   0  0  0  0  0  0  0  0  0  0  0  0
   -5.7457    6.1110   -7.8605 C   0  0  0  0  0  0  0  0  0  0  0  0
   -6.5176    6.9059   -8.1989 N   0  0  0  0  0  0  0  0  0  0  0  0
   -3.5789    5.1240   -8.2675 C   0  0  0  0  0  0  0  0  0  0  0  0
   -2.6280    5.1332   -8.9299 N   0  0  0  0  0  0  0  0  0  0  0  0
    5.4041   -0.8958    6.5756 H   0  0  0  0  0  0  0  0  0  0  0  0
   -0.5654   -1.0585    8.5250 H   0  0  0  0  0  0  0  0  0  0  0  0
    2.8877    1.5847   10.9559 H   0  0  0  0  0  0  0  0  0  0  0  0
    6.0322   -3.3759    5.8466 H   0  0  0  0  0  0  0  0  0  0  0  0
    6.0848   -4.1866    4.2535 H   0  0  0  0  0  0  0  0  0  0  0  0
    7.1648   -2.2095    3.2200 H   0  0  0  0  0  0  0  0  0  0  0  0
    7.0269   -1.2874    4.7666 H   0  0  0  0  0  0  0  0  0  0  0  0
    8.0953   -2.7377    4.6749 H   0  0  0  0  0  0  0  0  0  0  0  0
   -0.6223    1.3295   -7.2346 H   0  0  0  0  0  0  0  0  0  0  0  0
   -1.0596   -1.1990   -0.1300 H   0  0  0  0  0  0  0  0  0  0  0  0
   -1.9084   -1.1235   -1.6804 H   0  0  0  0  0  0  0  0  0  0  0  0
   -2.3950    0.6217    0.3561 H   0  0  0  0  0  0  0  0  0  0  0  0
   -2.6368    1.0657   -1.3396 H   0  0  0  0  0  0  0  0  0  0  0  0
   -1.1273    1.5808   -0.4925 H   0  0  0  0  0  0  0  0  0  0  0  0
    0.7481   -0.0644    2.5725 H   0  0  0  0  0  0  0  0  0  0  0  0
    0.1156    0.3259    0.9789 H   0  0  0  0  0  0  0  0  0  0  0  0
    2.3321    1.2141    0.2423 H   0  0  0  0  0  0  0  0  0  0  0  0
    2.9951    0.8621    1.8896 H   0  0  0  0  0  0  0  0  0  0  0  0
    1.6760    2.0789    1.6880 H   0  0  0  0  0  0  0  0  0  0  0  0
   -2.2926    3.5220   -6.9196 H   0  0  0  0  0  0  0  0  0  0  0  0
   -7.2932    1.4997   -3.7012 H   0  0  0  0  0  0  0  0  0  0  0  0
   -9.5047    2.0170   -2.6889 H   0  0  0  0  0  0  0  0  0  0  0  0
  -11.3898    3.5748   -2.3854 H   0  0  0  0  0  0  0  0  0  0  0  0
   -9.4892    6.4674   -4.9227 H   0  0  0  0  0  0  0  0  0  0  0  0
   -7.3123    5.9684   -5.9027 H   0  0  0  0  0  0  0  0  0  0  0  0
  1  2  2  3
  2  3  1  0
  3  4  2  0
  3  5  1  0
  5  6  2  0
  6  7  1  0
  7  8  1  0
  7  9  2  0
  9 10  1  0
  9 11  1  0
 11 12  2  0
 12 13  1  0
 13 14  2  3
 14 15  1  0
 15 16  3  0
 14 17  1  0
 17 18  3  0
  1 19  1  0
 19 20  2  0
 20 21  1  0
 21 22  1  0
 20 23  1  0
 23 24  2  0
 24 25  1  0
 24 26  1  0
 26 27  2  0
 27 28  1  0
 27 29  1  0
 29 30  1  0
 30 31  2  0
 31 32  1  0
 32 33  1  0
 33 34  2  0
 34 35  1  0
 35 36  1  0
 36 37  1  0
 37 38  1  0
 38 39  1  0
 39 40  2  0
 40 41  1  0
 41 42  1  0
 42 43  1  0
 43 44  1  0
 44 45  1  0
 45 46  1  0
 44 47  1  0
 47 48  1  0
 48 49  1  0
 49 50  1  0
 50 51  1  0
 40 52  1  0
 52 53  2  3
 53 54  1  0
 54 55  2  0
 54 56  1  0
 56 57  2  0
 57 58  1  0
 58 59  2  0
 59 60  1  0
 60 61  2  0
 61 62  1  0
 61 63  1  0
 63 64  2  0
 64 65  1  0
 65 66  2  0
 66 67  1  0
 67 68  2  3
 68 69  1  0
 69 70  3  0
 68 71  1  0
 71 72  3  0
 13  2  1  0
 25 19  1  0
 49 26  1  0
 67 53  1  0
 12  5  1  0
 28 23  1  0
 48 29  2  0
 66 56  1  0
 34 30  1  0
 47 35  2  0
 64 58  1  0
 43 36  2  0
 42 38  2  0
  1 73  1  0
  6 74  1  0
 11 75  1  0
 21 76  1  0
 21 77  1  0
 22 78  1  0
 22 79  1  0
 22 80  1  0
 39 81  1  0
 45 82  1  0
 45 83  1  0
 46 84  1  0
 46 85  1  0
 46 86  1  0
 50 87  1  0
 50 88  1  0
 51 89  1  0
 51 90  1  0
 51 91  1  0
 52 92  1  0
 57 93  1  0
 59 94  1  0
 60 95  1  0
 63 96  1  0
 65 97  1  0
M  END

