
     RDKit          3D

100111  0  0  0  0  0  0  0  0999 V2000
   -0.9819   -1.3946   -7.7199 C   0  0  0  0  0  0  0  0  0  0  0  0
   -0.1589   -2.3681   -7.2719 C   0  0  0  0  0  0  0  0  0  0  0  0
   -0.0389   -2.6879   -5.8271 C   0  0  0  0  0  0  0  0  0  0  0  0
   -0.7806   -2.3802   -4.8741 O   0  0  0  0  0  0  0  0  0  0  0  0
    1.1761   -3.5148   -5.6251 C   0  0  0  0  0  0  0  0  0  0  0  0
    1.7265   -4.0758   -4.4592 C   0  0  0  0  0  0  0  0  0  0  0  0
    2.8699   -4.8246   -4.5621 C   0  0  0  0  0  0  0  0  0  0  0  0
    3.5713   -5.5578   -3.0980 Cl  0  0  0  0  0  0  0  0  0  0  0  0
    3.4967   -5.0399   -5.7543 C   0  0  0  0  0  0  0  0  0  0  0  0
    4.6068   -5.7573   -5.8076 F   0  0  0  0  0  0  0  0  0  0  0  0
    2.9093   -4.4523   -6.9200 C   0  0  0  0  0  0  0  0  0  0  0  0
    1.7639   -3.7014   -6.8522 C   0  0  0  0  0  0  0  0  0  0  0  0
    0.9339   -3.0057   -7.8702 C   0  0  0  0  0  0  0  0  0  0  0  0
    1.0637   -3.2538   -9.2131 C   0  0  0  0  0  0  0  0  0  0  0  0
    2.1782   -3.8893   -9.7734 C   0  0  0  0  0  0  0  0  0  0  0  0
    3.1228   -4.4274  -10.2480 N   0  0  0  0  0  0  0  0  0  0  0  0
   -0.0361   -2.8675  -10.0847 C   0  0  0  0  0  0  0  0  0  0  0  0
   -0.9723   -2.5170  -10.8281 N   0  0  0  0  0  0  0  0  0  0  0  0
   -1.6994   -0.6779   -6.6556 C   0  0  0  0  0  0  0  0  0  0  0  0
   -2.9483   -0.3155   -6.3510 C   0  0  0  0  0  0  0  0  0  0  0  0
   -4.0531   -0.6436   -7.3594 C   0  0  0  0  0  0  0  0  0  0  0  0
   -3.9268    0.3921   -8.4621 C   0  0  0  0  0  0  0  0  0  0  0  0
   -3.1441    0.3326   -5.1602 C   0  0  0  0  0  0  0  0  0  0  0  0
   -4.4734    0.9000   -4.2233 S   0  0  0  0  0  0  0  0  0  0  0  0
   -3.6229    1.4181   -2.8283 C   0  0  0  0  0  0  0  0  0  0  0  0
   -3.7279    1.8783   -1.5234 C   0  0  0  0  0  0  0  0  0  0  0  0
   -4.8699    2.1394   -0.7409 C   0  0  0  0  0  0  0  0  0  0  0  0
   -4.7319    2.3903    0.5538 C   0  0  0  0  0  0  0  0  0  0  0  0
   -5.7606    2.6518    1.3569 N   0  0  0  0  0  0  0  0  0  0  0  0
   -7.2634    2.4672   -0.2108 Se  0  0  0  0  0  2  0  0  0  0  0  0
   -6.1135    2.1506   -1.2616 N   0  0  0  0  0  0  0  0  0  0  0  0
   -3.4055    2.3839    1.0589 C   0  0  0  0  0  0  0  0  0  0  0  0
   -2.9827    2.4618    2.3763 C   0  0  0  0  0  0  0  0  0  0  0  0
   -3.4528    2.5079    4.0292 S   0  0  0  0  0  0  0  0  0  0  0  0
   -1.8862    2.2919    4.7589 C   0  0  0  0  0  0  0  0  0  0  0  0
   -1.3688    2.1017    6.0218 C   0  0  0  0  0  0  0  0  0  0  0  0
   -2.2416    2.2234    7.2661 C   0  0  0  0  0  0  0  0  0  0  0  0
   -2.5261    3.7219    7.4712 C   0  0  0  0  0  0  0  0  0  0  0  0
   -0.0777    1.8380    6.1326 C   0  0  0  0  0  0  0  0  0  0  0  0
    0.4124    1.8789    4.4526 S   0  0  0  0  0  0  0  0  0  0  0  0
   -1.1135    2.2091    3.7095 C   0  0  0  0  0  0  0  0  0  0  0  0
   -1.6544    2.2916    2.4313 C   0  0  0  0  0  0  0  0  0  0  0  0
   -1.1930    2.1096    1.1236 N   0  0  0  0  0  0  0  0  0  0  0  0
   -2.2703    2.1589    0.3346 C   0  0  0  0  0  0  0  0  0  0  0  0
   -2.4328    1.8805   -1.0419 C   0  0  0  0  0  0  0  0  0  0  0  0
   -1.6126    1.4620   -1.9724 N   0  0  0  0  0  0  0  0  0  0  0  0
   -2.3419    1.1487   -3.1349 C   0  0  0  0  0  0  0  0  0  0  0  0
   -2.1325    0.5815   -4.3673 C   0  0  0  0  0  0  0  0  0  0  0  0
   -0.8233   -0.0747   -5.2468 S   0  0  0  0  0  0  0  0  0  0  0  0
   -0.1787    1.2695   -1.9821 C   0  0  0  0  0  0  0  0  0  0  0  0
    0.2739   -0.1349   -1.6625 C   0  0  0  0  0  0  0  0  0  0  0  0
    0.1806    2.0235    0.8019 C   0  0  0  0  0  0  0  0  0  0  0  0
    0.8437    3.3838    0.4900 C   0  0  0  0  0  0  0  0  0  0  0  0
    0.9067    1.5097    7.1483 C   0  0  0  0  0  0  0  0  0  0  0  0
    1.7618    0.4326    6.9764 C   0  0  0  0  0  0  0  0  0  0  0  0
    2.7647    0.0039    7.8132 C   0  0  0  0  0  0  0  0  0  0  0  0
    3.0594    0.4461    8.9932 O   0  0  0  0  0  0  0  0  0  0  0  0
    3.4653   -1.0629    7.1446 C   0  0  0  0  0  0  0  0  0  0  0  0
    4.5335   -1.8617    7.5837 C   0  0  0  0  0  0  0  0  0  0  0  0
    4.9981   -2.8725    6.7758 C   0  0  0  0  0  0  0  0  0  0  0  0
    6.1116   -3.7623    7.2285 C   0  0  0  0  0  0  0  0  0  0  0  0
    4.4469   -3.1095    5.5611 C   0  0  0  0  0  0  0  0  0  0  0  0
    3.3610   -2.2806    5.1331 C   0  0  0  0  0  0  0  0  0  0  0  0
    2.9094   -1.2858    5.9444 C   0  0  0  0  0  0  0  0  0  0  0  0
    1.6354   -0.2757    5.6857 C   0  0  0  0  0  0  0  0  0  0  0  0
    0.9484   -0.7979    4.8511 C   0  0  0  0  0  0  0  0  0  0  0  0
   -0.5244   -0.9990    4.8610 C   0  0  0  0  0  0  0  0  0  0  0  0
   -1.6721   -1.1596    4.8656 N   0  0  0  0  0  0  0  0  0  0  0  0
    1.4010   -1.1412    3.4902 C   0  0  0  0  0  0  0  0  0  0  0  0
    1.7629   -1.4179    2.3465 N   0  0  0  0  0  0  0  0  0  0  0  0
   -1.1002   -1.1343   -8.7015 H   0  0  0  0  0  0  0  0  0  0  0  0
    1.2309   -3.9108   -3.5205 H   0  0  0  0  0  0  0  0  0  0  0  0
    3.4533   -4.6599   -7.7951 H   0  0  0  0  0  0  0  0  0  0  0  0
   -5.0432   -0.4991   -6.8963 H   0  0  0  0  0  0  0  0  0  0  0  0
   -3.9797   -1.6713   -7.7123 H   0  0  0  0  0  0  0  0  0  0  0  0
   -4.8908    0.5157   -9.0024 H   0  0  0  0  0  0  0  0  0  0  0  0
   -3.6646    1.3791   -8.0684 H   0  0  0  0  0  0  0  0  0  0  0  0
   -3.1915    0.0732   -9.2298 H   0  0  0  0  0  0  0  0  0  0  0  0
   -1.7446    1.8294    8.1295 H   0  0  0  0  0  0  0  0  0  0  0  0
   -3.2258    1.7566    7.1255 H   0  0  0  0  0  0  0  0  0  0  0  0
   -3.5131    3.8242    7.9624 H   0  0  0  0  0  0  0  0  0  0  0  0
   -2.5035    4.2511    6.5004 H   0  0  0  0  0  0  0  0  0  0  0  0
   -1.7670    4.1234    8.1529 H   0  0  0  0  0  0  0  0  0  0  0  0
    0.4487    2.0959   -1.6940 H   0  0  0  0  0  0  0  0  0  0  0  0
    0.1489    1.3077   -3.1134 H   0  0  0  0  0  0  0  0  0  0  0  0
   -0.3045   -0.6235   -0.8402 H   0  0  0  0  0  0  0  0  0  0  0  0
    0.1427   -0.8297   -2.5467 H   0  0  0  0  0  0  0  0  0  0  0  0
    1.3711   -0.1150   -1.4918 H   0  0  0  0  0  0  0  0  0  0  0  0
    0.6006    1.2719    0.2365 H   0  0  0  0  0  0  0  0  0  0  0  0
    0.7112    1.8165    1.8719 H   0  0  0  0  0  0  0  0  0  0  0  0
    1.7817    3.1591   -0.0112 H   0  0  0  0  0  0  0  0  0  0  0  0
    0.2096    3.9500   -0.2250 H   0  0  0  0  0  0  0  0  0  0  0  0
    0.9419    3.9897    1.3971 H   0  0  0  0  0  0  0  0  0  0  0  0
    1.0137    2.0578    8.0302 H   0  0  0  0  0  0  0  0  0  0  0  0
    4.9764   -1.6935    8.5270 H   0  0  0  0  0  0  0  0  0  0  0  0
    6.9903   -3.1662    7.5059 H   0  0  0  0  0  0  0  0  0  0  0  0
    6.3924   -4.4814    6.4420 H   0  0  0  0  0  0  0  0  0  0  0  0
    5.7730   -4.3968    8.0958 H   0  0  0  0  0  0  0  0  0  0  0  0
    4.7599   -3.8906    4.9019 H   0  0  0  0  0  0  0  0  0  0  0  0
    2.9784   -2.5535    4.1752 H   0  0  0  0  0  0  0  0  0  0  0  0
  1  2  2  3
  2  3  1  0
  3  4  2  0
  3  5  1  0
  5  6  2  0
  6  7  1  0
  7  8  1  0
  7  9  2  0
  9 10  1  0
  9 11  1  0
 11 12  2  0
 12 13  1  0
 13 14  2  3
 14 15  1  0
 15 16  3  0
 14 17  1  0
 17 18  3  0
  1 19  1  0
 19 20  2  0
 20 21  1  0
 21 22  1  0
 20 23  1  0
 23 24  1  0
 24 25  1  0
 25 26  1  0
 26 27  1  0
 27 28  1  0
 28 29  2  0
 29 30  1  0
 30 31  1  0
 28 32  1  0
 32 33  1  0
 33 34  1  0
 34 35  1  0
 35 36  1  0
 36 37  1  0
 37 38  1  0
 36 39  2  0
 39 40  1  0
 40 41  1  0
 41 42  1  0
 42 43  1  0
 43 44  1  0
 44 45  1  0
 45 46  1  0
 46 47  1  0
 47 48  1  0
 48 49  1  0
 46 50  1  0
 50 51  1  0
 43 52  1  0
 52 53  1  0
 39 54  1  0
 54 55  2  3
 55 56  1  0
 56 57  2  0
 56 58  1  0
 58 59  2  0
 59 60  1  0
 60 61  1  0
 60 62  2  0
 62 63  1  0
 63 64  2  0
 64 65  1  0
 65 66  2  3
 66 67  1  0
 67 68  3  0
 66 69  1  0
 69 70  3  0
 13  2  1  0
 49 19  1  0
 65 55  1  0
 12  5  1  0
 48 23  2  0
 64 58  1  0
 47 25  2  0
 45 26  2  0
 31 27  2  0
 44 32  2  0
 42 33  2  0
 41 35  2  0
  1 71  1  0
  6 72  1  0
 11 73  1  0
 21 74  1  0
 21 75  1  0
 22 76  1  0
 22 77  1  0
 22 78  1  0
 37 79  1  0
 37 80  1  0
 38 81  1  0
 38 82  1  0
 38 83  1  0
 50 84  1  0
 50 85  1  0
 51 86  1  0
 51 87  1  0
 51 88  1  0
 52 89  1  0
 52 90  1  0
 53 91  1  0
 53 92  1  0
 53 93  1  0
 54 94  1  0
 59 95  1  0
 61 96  1  0
 61 97  1  0
 61 98  1  0
 62 99  1  0
 63100  1  0
M  END

