
     RDKit          3D

 97108  0  0  0  0  0  0  0  0999 V2000
    4.0525   -5.1353   -3.5867 C   0  0  0  0  0  0  0  0  0  0  0  0
    5.1752   -5.4388   -2.9944 C   0  0  0  0  0  0  0  0  0  0  0  0
    6.4522   -5.5633   -3.6498 C   0  0  0  0  0  0  0  0  0  0  0  0
    6.6432   -5.2871   -4.8907 O   0  0  0  0  0  0  0  0  0  0  0  0
    7.4046   -6.0206   -2.7016 C   0  0  0  0  0  0  0  0  0  0  0  0
    8.7833   -6.2011   -2.9030 C   0  0  0  0  0  0  0  0  0  0  0  0
    9.5804   -6.5551   -1.8493 C   0  0  0  0  0  0  0  0  0  0  0  0
   11.3327   -6.7625   -2.0563 Cl  0  0  0  0  0  0  0  0  0  0  0  0
    9.0271   -6.7380   -0.6121 C   0  0  0  0  0  0  0  0  0  0  0  0
    9.7712   -7.0768    0.4518 F   0  0  0  0  0  0  0  0  0  0  0  0
    7.6242   -6.5445   -0.4506 C   0  0  0  0  0  0  0  0  0  0  0  0
    6.8334   -6.1903   -1.5006 C   0  0  0  0  0  0  0  0  0  0  0  0
    5.3124   -5.8348   -1.5210 C   0  0  0  0  0  0  0  0  0  0  0  0
    4.7652   -5.5129   -0.4782 C   0  0  0  0  0  0  0  0  0  0  0  0
    3.8083   -4.7124    0.1847 C   0  0  0  0  0  0  0  0  0  0  0  0
    3.0635   -4.0696    0.7214 N   0  0  0  0  0  0  0  0  0  0  0  0
    5.0684   -6.7306    0.5707 C   0  0  0  0  0  0  0  0  0  0  0  0
    5.2637   -7.5762    1.2975 N   0  0  0  0  0  0  0  0  0  0  0  0
    2.7439   -5.0159   -2.9455 C   0  0  0  0  0  0  0  0  0  0  0  0
    1.9886   -5.7723   -2.1262 C   0  0  0  0  0  0  0  0  0  0  0  0
    2.2742   -7.2657   -1.9529 C   0  0  0  0  0  0  0  0  0  0  0  0
    1.6545   -7.9892   -3.1508 C   0  0  0  0  0  0  0  0  0  0  0  0
    0.8397   -5.2430   -1.5830 C   0  0  0  0  0  0  0  0  0  0  0  0
   -0.3635   -5.6218   -0.3714 S   0  0  0  0  0  0  0  0  0  0  0  0
   -1.2127   -4.1394   -0.3665 C   0  0  0  0  0  0  0  0  0  0  0  0
   -2.2251   -3.4020    0.2629 C   0  0  0  0  0  0  0  0  0  0  0  0
   -2.9485   -3.7245    1.4035 C   0  0  0  0  0  0  0  0  0  0  0  0
   -3.6602   -2.7680    2.0090 C   0  0  0  0  0  0  0  0  0  0  0  0
   -4.4098   -2.9383    3.0888 N   0  0  0  0  0  0  0  0  0  0  0  0
   -3.9252   -5.1072    3.2551 Se  0  0  0  0  0  2  0  0  0  0  0  0
   -2.9907   -4.9554    1.9243 N   0  0  0  0  0  0  0  0  0  0  0  0
   -3.6336   -1.4693    1.4137 C   0  0  0  0  0  0  0  0  0  0  0  0
   -4.1609   -0.2617    1.8639 C   0  0  0  0  0  0  0  0  0  0  0  0
   -4.9428    0.5625    3.1418 S   0  0  0  0  0  0  0  0  0  0  0  0
   -4.7801    2.1950    2.5429 C   0  0  0  0  0  0  0  0  0  0  0  0
   -5.0233    3.4823    2.9012 C   0  0  0  0  0  0  0  0  0  0  0  0
   -5.8976    3.6904    4.2193 C   0  0  0  0  0  0  0  0  0  0  0  0
   -5.0892    3.3151    5.4202 C   0  0  0  0  0  0  0  0  0  0  0  0
   -4.7410    4.5334    2.2792 C   0  0  0  0  0  0  0  0  0  0  0  0
   -3.9329    3.6048    0.8448 S   0  0  0  0  0  0  0  0  0  0  0  0
   -4.1495    2.0032    1.4029 C   0  0  0  0  0  0  0  0  0  0  0  0
   -3.8079    0.7139    1.0160 C   0  0  0  0  0  0  0  0  0  0  0  0
   -3.0436    0.1066   -0.0080 N   0  0  0  0  0  0  0  0  0  0  0  0
   -2.9442   -1.1660    0.2703 C   0  0  0  0  0  0  0  0  0  0  0  0
   -2.1661   -2.1804   -0.3529 C   0  0  0  0  0  0  0  0  0  0  0  0
   -1.2070   -2.1550   -1.2799 N   0  0  0  0  0  0  0  0  0  0  0  0
   -0.5714   -3.4031   -1.2933 C   0  0  0  0  0  0  0  0  0  0  0  0
    0.5153   -4.0178   -1.9124 C   0  0  0  0  0  0  0  0  0  0  0  0
    1.8214   -3.5516   -2.9931 S   0  0  0  0  0  0  0  0  0  0  0  0
   -0.7859   -1.1490   -2.2004 C   0  0  0  0  0  0  0  0  0  0  0  0
   -1.6197   -1.2742   -3.4633 C   0  0  0  0  0  0  0  0  0  0  0  0
   -2.7400    0.8545   -1.1859 C   0  0  0  0  0  0  0  0  0  0  0  0
   -3.9726    0.6164   -2.1415 C   0  0  0  0  0  0  0  0  0  0  0  0
   -4.6013    5.9186    1.9201 C   0  0  0  0  0  0  0  0  0  0  0  0
   -3.5983    6.6775    1.6588 C   0  0  0  0  0  0  0  0  0  0  0  0
   -3.7870    8.0932    1.2713 C   0  0  0  0  0  0  0  0  0  0  0  0
   -4.8614    8.7616    1.2226 O   0  0  0  0  0  0  0  0  0  0  0  0
   -2.4962    8.6447    0.9379 C   0  0  0  0  0  0  0  0  0  0  0  0
   -1.5156    7.6979    1.0941 C   0  0  0  0  0  0  0  0  0  0  0  0
   -0.2071    8.0130    0.7985 C   0  0  0  0  0  0  0  0  0  0  0  0
    0.1757    9.2913    0.3297 C   0  0  0  0  0  0  0  0  0  0  0  0
    1.4805    9.5716    0.0456 F   0  0  0  0  0  0  0  0  0  0  0  0
   -0.8311   10.2160    0.1865 C   0  0  0  0  0  0  0  0  0  0  0  0
   -0.4937   11.4543   -0.2684 F   0  0  0  0  0  0  0  0  0  0  0  0
   -2.1286    9.9193    0.4770 C   0  0  0  0  0  0  0  0  0  0  0  0
   -3.1007   10.8574    0.3170 F   0  0  0  0  0  0  0  0  0  0  0  0
   -2.1603    6.4249    1.5650 C   0  0  0  0  0  0  0  0  0  0  0  0
   -1.4558    5.4994    2.0655 C   0  0  0  0  0  0  0  0  0  0  0  0
   -0.0201    5.2924    1.8924 C   0  0  0  0  0  0  0  0  0  0  0  0
    1.0672    5.1262    1.7442 N   0  0  0  0  0  0  0  0  0  0  0  0
   -1.9005    4.6188    3.1595 C   0  0  0  0  0  0  0  0  0  0  0  0
   -2.2357    3.9400    4.0259 N   0  0  0  0  0  0  0  0  0  0  0  0
    4.0579   -4.9651   -4.6639 H   0  0  0  0  0  0  0  0  0  0  0  0
    9.2047   -6.0375   -3.8694 H   0  0  0  0  0  0  0  0  0  0  0  0
    7.3435   -6.6615    0.5550 H   0  0  0  0  0  0  0  0  0  0  0  0
    3.3265   -7.5022   -1.9450 H   0  0  0  0  0  0  0  0  0  0  0  0
    1.7828   -7.6715   -1.0533 H   0  0  0  0  0  0  0  0  0  0  0  0
    1.5324   -7.2456   -3.9532 H   0  0  0  0  0  0  0  0  0  0  0  0
    0.6331   -8.3217   -2.8658 H   0  0  0  0  0  0  0  0  0  0  0  0
    2.2425   -8.8264   -3.5155 H   0  0  0  0  0  0  0  0  0  0  0  0
   -6.7452    3.0360    4.1107 H   0  0  0  0  0  0  0  0  0  0  0  0
   -6.2135    4.7215    4.2849 H   0  0  0  0  0  0  0  0  0  0  0  0
   -5.7537    2.7858    6.1942 H   0  0  0  0  0  0  0  0  0  0  0  0
   -4.3253    2.5498    5.1595 H   0  0  0  0  0  0  0  0  0  0  0  0
   -4.5834    4.1714    5.9048 H   0  0  0  0  0  0  0  0  0  0  0  0
   -0.4642   -0.1931   -1.8440 H   0  0  0  0  0  0  0  0  0  0  0  0
    0.2487   -1.4660   -2.6497 H   0  0  0  0  0  0  0  0  0  0  0  0
   -1.6627   -0.3545   -4.0658 H   0  0  0  0  0  0  0  0  0  0  0  0
   -2.6386   -1.6254   -3.1470 H   0  0  0  0  0  0  0  0  0  0  0  0
   -1.2437   -2.0997   -4.1145 H   0  0  0  0  0  0  0  0  0  0  0  0
   -1.9123    0.8520   -1.7398 H   0  0  0  0  0  0  0  0  0  0  0  0
   -2.8596    1.9945   -0.9422 H   0  0  0  0  0  0  0  0  0  0  0  0
   -3.6709    0.6302   -3.1741 H   0  0  0  0  0  0  0  0  0  0  0  0
   -4.3411   -0.3875   -1.8712 H   0  0  0  0  0  0  0  0  0  0  0  0
   -4.7731    1.3165   -1.8544 H   0  0  0  0  0  0  0  0  0  0  0  0
   -5.6324    6.4002    1.8817 H   0  0  0  0  0  0  0  0  0  0  0  0
    0.6117    7.3518    0.8797 H   0  0  0  0  0  0  0  0  0  0  0  0
  1  2  2  3
  2  3  1  0
  3  4  2  0
  3  5  1  0
  5  6  2  0
  6  7  1  0
  7  8  1  0
  7  9  2  0
  9 10  1  0
  9 11  1  0
 11 12  2  0
 12 13  1  0
 13 14  2  3
 14 15  1  0
 15 16  3  0
 14 17  1  0
 17 18  3  0
  1 19  1  0
 19 20  2  0
 20 21  1  0
 21 22  1  0
 20 23  1  0
 23 24  1  0
 24 25  1  0
 25 26  1  0
 26 27  1  0
 27 28  1  0
 28 29  2  0
 29 30  1  0
 30 31  1  0
 28 32  1  0
 32 33  1  0
 33 34  1  0
 34 35  1  0
 35 36  1  0
 36 37  1  0
 37 38  1  0
 36 39  2  0
 39 40  1  0
 40 41  1  0
 41 42  1  0
 42 43  1  0
 43 44  1  0
 44 45  1  0
 45 46  1  0
 46 47  1  0
 47 48  1  0
 48 49  1  0
 46 50  1  0
 50 51  1  0
 43 52  1  0
 52 53  1  0
 39 54  1  0
 54 55  2  3
 55 56  1  0
 56 57  2  0
 56 58  1  0
 58 59  2  0
 59 60  1  0
 60 61  2  0
 61 62  1  0
 61 63  1  0
 63 64  1  0
 63 65  2  0
 65 66  1  0
 59 67  1  0
 67 68  2  3
 68 69  1  0
 69 70  3  0
 68 71  1  0
 71 72  3  0
 13  2  1  0
 49 19  1  0
 67 55  1  0
 12  5  1  0
 48 23  2  0
 65 58  1  0
 47 25  2  0
 45 26  2  0
 31 27  2  0
 44 32  2  0
 42 33  2  0
 41 35  2  0
  1 73  1  0
  6 74  1  0
 11 75  1  0
 21 76  1  0
 21 77  1  0
 22 78  1  0
 22 79  1  0
 22 80  1  0
 37 81  1  0
 37 82  1  0
 38 83  1  0
 38 84  1  0
 38 85  1  0
 50 86  1  0
 50 87  1  0
 51 88  1  0
 51 89  1  0
 51 90  1  0
 52 91  1  0
 52 92  1  0
 53 93  1  0
 53 94  1  0
 53 95  1  0
 54 96  1  0
 60 97  1  0
M  END

