
     RDKit          3D

101112  0  0  0  0  0  0  0  0999 V2000
   -3.1461    5.8562   -1.1836 C   0  0  0  0  0  0  0  0  0  0  0  0
   -4.3245    5.4694   -0.7551 C   0  0  0  0  0  0  0  0  0  0  0  0
   -4.6419    4.5415    0.2919 C   0  0  0  0  0  0  0  0  0  0  0  0
   -3.8689    4.0583    1.1477 O   0  0  0  0  0  0  0  0  0  0  0  0
   -6.0891    4.2191    0.2233 C   0  0  0  0  0  0  0  0  0  0  0  0
   -6.7685    3.3315    1.0299 C   0  0  0  0  0  0  0  0  0  0  0  0
   -8.1078    3.1168    0.7981 C   0  0  0  0  0  0  0  0  0  0  0  0
   -9.0240    1.9853    1.7758 Cl  0  0  0  0  0  0  0  0  0  0  0  0
   -8.6821    3.8041   -0.2266 C   0  0  0  0  0  0  0  0  0  0  0  0
  -10.0053    3.5931   -0.4687 F   0  0  0  0  0  0  0  0  0  0  0  0
   -7.9848    4.7005   -1.0433 C   0  0  0  0  0  0  0  0  0  0  0  0
   -6.6355    4.9256   -0.8122 C   0  0  0  0  0  0  0  0  0  0  0  0
   -5.5923    5.7461   -1.4905 C   0  0  0  0  0  0  0  0  0  0  0  0
   -5.7922    6.4406   -2.5552 C   0  0  0  0  0  0  0  0  0  0  0  0
   -4.7637    7.1369   -3.3263 C   0  0  0  0  0  0  0  0  0  0  0  0
   -3.9338    7.6830   -3.9386 N   0  0  0  0  0  0  0  0  0  0  0  0
   -7.1083    6.6551   -3.1196 C   0  0  0  0  0  0  0  0  0  0  0  0
   -8.2077    6.8528   -3.6039 N   0  0  0  0  0  0  0  0  0  0  0  0
   -1.8694    5.3487   -0.6482 C   0  0  0  0  0  0  0  0  0  0  0  0
   -0.5841    5.6585   -0.9265 C   0  0  0  0  0  0  0  0  0  0  0  0
   -0.2356    6.8482   -1.8227 C   0  0  0  0  0  0  0  0  0  0  0  0
   -0.5036    6.4027   -3.2776 C   0  0  0  0  0  0  0  0  0  0  0  0
    0.3791    4.8127   -0.3903 C   0  0  0  0  0  0  0  0  0  0  0  0
    2.1164    4.5702   -0.5039 S   0  0  0  0  0  0  0  0  0  0  0  0
    2.2330    3.1387    0.4026 C   0  0  0  0  0  0  0  0  0  0  0  0
    3.0631    2.0847    0.7927 C   0  0  0  0  0  0  0  0  0  0  0  0
    4.3981    1.7887    0.4235 C   0  0  0  0  0  0  0  0  0  0  0  0
    4.9410    0.6202    0.6432 C   0  0  0  0  0  0  0  0  0  0  0  0
    6.1601    0.2331    0.3417 N   0  0  0  0  0  0  0  0  0  0  0  0
    6.6365    2.3501   -0.5910 Se  0  0  0  0  0  2  0  0  0  0  0  0
    5.1611    2.7048   -0.1810 N   0  0  0  0  0  0  0  0  0  0  0  0
    4.0843   -0.3210    1.2877 C   0  0  0  0  0  0  0  0  0  0  0  0
    4.2598   -1.6995    1.4276 C   0  0  0  0  0  0  0  0  0  0  0  0
    5.2767   -3.0360    1.0184 S   0  0  0  0  0  0  0  0  0  0  0  0
    4.1680   -4.3083    1.4566 C   0  0  0  0  0  0  0  0  0  0  0  0
    4.0907   -5.6676    1.2479 C   0  0  0  0  0  0  0  0  0  0  0  0
    5.2254   -6.5326    0.7261 C   0  0  0  0  0  0  0  0  0  0  0  0
    6.2959   -6.7156    1.7524 C   0  0  0  0  0  0  0  0  0  0  0  0
    2.8769   -6.2136    1.5125 C   0  0  0  0  0  0  0  0  0  0  0  0
    1.9556   -4.8895    2.0379 S   0  0  0  0  0  0  0  0  0  0  0  0
    3.1432   -3.6335    1.8818 C   0  0  0  0  0  0  0  0  0  0  0  0
    3.1465   -2.2632    1.8887 C   0  0  0  0  0  0  0  0  0  0  0  0
    2.2509   -1.2085    2.0707 N   0  0  0  0  0  0  0  0  0  0  0  0
    2.8016   -0.0715    1.6893 C   0  0  0  0  0  0  0  0  0  0  0  0
    2.2404    1.1995    1.4249 C   0  0  0  0  0  0  0  0  0  0  0  0
    0.9753    1.6573    1.4430 N   0  0  0  0  0  0  0  0  0  0  0  0
    0.9716    2.8665    0.7906 C   0  0  0  0  0  0  0  0  0  0  0  0
    0.0311    3.7978    0.3354 C   0  0  0  0  0  0  0  0  0  0  0  0
   -1.7047    3.9704    0.3155 S   0  0  0  0  0  0  0  0  0  0  0  0
   -0.2412    1.1070    1.9727 C   0  0  0  0  0  0  0  0  0  0  0  0
   -0.4081    1.5076    3.3942 C   0  0  0  0  0  0  0  0  0  0  0  0
    1.0429   -1.3896    2.8523 C   0  0  0  0  0  0  0  0  0  0  0  0
    1.3594   -1.1427    4.3358 C   0  0  0  0  0  0  0  0  0  0  0  0
    2.3241   -7.5489    1.1248 C   0  0  0  0  0  0  0  0  0  0  0  0
    1.3522   -7.3919    0.0758 C   0  0  0  0  0  0  0  0  0  0  0  0
    0.7153   -8.4784   -0.4502 C   0  0  0  0  0  0  0  0  0  0  0  0
    0.7235   -9.7193   -0.1540 O   0  0  0  0  0  0  0  0  0  0  0  0
   -0.0863   -7.9459   -1.5373 C   0  0  0  0  0  0  0  0  0  0  0  0
   -0.9001   -8.5929   -2.4842 C   0  0  0  0  0  0  0  0  0  0  0  0
   -1.4899   -7.8496   -3.4711 C   0  0  0  0  0  0  0  0  0  0  0  0
   -1.3291   -6.5109   -3.5841 C   0  0  0  0  0  0  0  0  0  0  0  0
   -0.4922   -5.8763   -2.5998 C   0  0  0  0  0  0  0  0  0  0  0  0
   -0.3574   -4.5204   -2.7745 O   0  0  0  0  0  0  0  0  0  0  0  0
   -0.9567   -3.7313   -3.7325 C   0  0  0  0  0  0  0  0  0  0  0  0
    0.0666   -6.6467   -1.6413 C   0  0  0  0  0  0  0  0  0  0  0  0
    1.2003   -6.0909   -0.3910 C   0  0  0  0  0  0  0  0  0  0  0  0
    1.0434   -4.9024   -0.8176 C   0  0  0  0  0  0  0  0  0  0  0  0
    1.9014   -3.8851   -1.2122 C   0  0  0  0  0  0  0  0  0  0  0  0
    2.6361   -3.0214   -1.5279 N   0  0  0  0  0  0  0  0  0  0  0  0
   -0.3308   -4.2398   -0.4523 C   0  0  0  0  0  0  0  0  0  0  0  0
   -1.3371   -3.7362   -0.1767 N   0  0  0  0  0  0  0  0  0  0  0  0
   -3.0293    6.5831   -1.9320 H   0  0  0  0  0  0  0  0  0  0  0  0
   -6.3046    2.7986    1.8352 H   0  0  0  0  0  0  0  0  0  0  0  0
   -8.5098    5.1871   -1.8178 H   0  0  0  0  0  0  0  0  0  0  0  0
    0.8357    7.0549   -1.7693 H   0  0  0  0  0  0  0  0  0  0  0  0
   -0.9119    7.6704   -1.6127 H   0  0  0  0  0  0  0  0  0  0  0  0
   -0.6567    5.2761   -3.2810 H   0  0  0  0  0  0  0  0  0  0  0  0
    0.3689    6.5774   -3.9405 H   0  0  0  0  0  0  0  0  0  0  0  0
   -1.3978    6.8381   -3.7136 H   0  0  0  0  0  0  0  0  0  0  0  0
    4.8201   -7.5163    0.5019 H   0  0  0  0  0  0  0  0  0  0  0  0
    5.6737   -6.0379   -0.1721 H   0  0  0  0  0  0  0  0  0  0  0  0
    6.5481   -7.7832    1.9131 H   0  0  0  0  0  0  0  0  0  0  0  0
    5.8912   -6.3698    2.7207 H   0  0  0  0  0  0  0  0  0  0  0  0
    7.1827   -6.0725    1.5596 H   0  0  0  0  0  0  0  0  0  0  0  0
   -1.1349    1.7249    1.4908 H   0  0  0  0  0  0  0  0  0  0  0  0
   -0.5879    0.1700    1.5736 H   0  0  0  0  0  0  0  0  0  0  0  0
   -1.0231    0.8202    3.9958 H   0  0  0  0  0  0  0  0  0  0  0  0
   -0.8822    2.5355    3.5348 H   0  0  0  0  0  0  0  0  0  0  0  0
    0.6174    1.6663    3.8630 H   0  0  0  0  0  0  0  0  0  0  0  0
    0.0797   -1.2240    2.5267 H   0  0  0  0  0  0  0  0  0  0  0  0
    0.9408   -2.5760    2.9205 H   0  0  0  0  0  0  0  0  0  0  0  0
    1.3899   -2.1058    4.9399 H   0  0  0  0  0  0  0  0  0  0  0  0
    2.4430   -0.8282    4.3528 H   0  0  0  0  0  0  0  0  0  0  0  0
    0.7091   -0.4970    4.8710 H   0  0  0  0  0  0  0  0  0  0  0  0
    2.5365   -8.4354    1.4583 H   0  0  0  0  0  0  0  0  0  0  0  0
   -1.0457   -9.6378   -2.4226 H   0  0  0  0  0  0  0  0  0  0  0  0
   -2.1357   -8.3325   -4.2258 H   0  0  0  0  0  0  0  0  0  0  0  0
   -1.7423   -5.8619   -4.3286 H   0  0  0  0  0  0  0  0  0  0  0  0
   -2.0664   -3.8756   -3.7250 H   0  0  0  0  0  0  0  0  0  0  0  0
   -0.6242   -3.8673   -4.7650 H   0  0  0  0  0  0  0  0  0  0  0  0
   -0.7487   -2.6466   -3.4854 H   0  0  0  0  0  0  0  0  0  0  0  0
  1  2  2  3
  2  3  1  0
  3  4  2  0
  3  5  1  0
  5  6  2  0
  6  7  1  0
  7  8  1  0
  7  9  2  0
  9 10  1  0
  9 11  1  0
 11 12  2  0
 12 13  1  0
 13 14  2  3
 14 15  1  0
 15 16  3  0
 14 17  1  0
 17 18  3  0
  1 19  1  0
 19 20  2  0
 20 21  1  0
 21 22  1  0
 20 23  1  0
 23 24  1  0
 24 25  1  0
 25 26  1  0
 26 27  1  0
 27 28  1  0
 28 29  2  0
 29 30  1  0
 30 31  1  0
 28 32  1  0
 32 33  1  0
 33 34  1  0
 34 35  1  0
 35 36  1  0
 36 37  1  0
 37 38  1  0
 36 39  2  0
 39 40  1  0
 40 41  1  0
 41 42  1  0
 42 43  1  0
 43 44  1  0
 44 45  1  0
 45 46  1  0
 46 47  1  0
 47 48  1  0
 48 49  1  0
 46 50  1  0
 50 51  1  0
 43 52  1  0
 52 53  1  0
 39 54  1  0
 54 55  2  3
 55 56  1  0
 56 57  2  0
 56 58  1  0
 58 59  2  0
 59 60  1  0
 60 61  2  0
 61 62  1  0
 62 63  1  0
 63 64  1  0
 62 65  2  0
 65 66  1  0
 66 67  2  3
 67 68  1  0
 68 69  3  0
 67 70  1  0
 70 71  3  0
 13  2  1  0
 49 19  1  0
 66 55  1  0
 12  5  1  0
 48 23  2  0
 65 58  1  0
 47 25  2  0
 45 26  2  0
 31 27  2  0
 44 32  2  0
 42 33  2  0
 41 35  2  0
  1 72  1  0
  6 73  1  0
 11 74  1  0
 21 75  1  0
 21 76  1  0
 22 77  1  0
 22 78  1  0
 22 79  1  0
 37 80  1  0
 37 81  1  0
 38 82  1  0
 38 83  1  0
 38 84  1  0
 50 85  1  0
 50 86  1  0
 51 87  1  0
 51 88  1  0
 51 89  1  0
 52 90  1  0
 52 91  1  0
 53 92  1  0
 53 93  1  0
 53 94  1  0
 54 95  1  0
 59 96  1  0
 60 97  1  0
 61 98  1  0
 64 99  1  0
 64100  1  0
 64101  1  0
M  END

