
     RDKit          3D

103114  0  0  0  0  0  0  0  0999 V2000
   -4.6467    2.5027   -5.8447 C   0  0  0  0  0  0  0  0  0  0  0  0
   -4.8128    3.6298   -5.0948 C   0  0  0  0  0  0  0  0  0  0  0  0
   -3.7651    4.2462   -4.3188 C   0  0  0  0  0  0  0  0  0  0  0  0
   -2.5275    4.1090   -4.2615 O   0  0  0  0  0  0  0  0  0  0  0  0
   -4.4274    5.3065   -3.4499 C   0  0  0  0  0  0  0  0  0  0  0  0
   -3.9377    6.0235   -2.3794 C   0  0  0  0  0  0  0  0  0  0  0  0
   -4.7303    6.7161   -1.5445 C   0  0  0  0  0  0  0  0  0  0  0  0
   -4.1085    7.5553   -0.0935 Cl  0  0  0  0  0  0  0  0  0  0  0  0
   -6.0618    6.7042   -1.7958 C   0  0  0  0  0  0  0  0  0  0  0  0
   -6.8767    7.3511   -0.9126 F   0  0  0  0  0  0  0  0  0  0  0  0
   -6.6200    5.9749   -2.9068 C   0  0  0  0  0  0  0  0  0  0  0  0
   -5.7509    5.2738   -3.7078 C   0  0  0  0  0  0  0  0  0  0  0  0
   -6.0356    4.1946   -4.7735 C   0  0  0  0  0  0  0  0  0  0  0  0
   -7.3519    3.7571   -4.7170 C   0  0  0  0  0  0  0  0  0  0  0  0
   -7.5073    2.3349   -5.0747 C   0  0  0  0  0  0  0  0  0  0  0  0
   -7.6450    1.0922   -5.3984 N   0  0  0  0  0  0  0  0  0  0  0  0
   -8.4652    4.4762   -4.5360 C   0  0  0  0  0  0  0  0  0  0  0  0
   -9.5250    5.1515   -4.3518 N   0  0  0  0  0  0  0  0  0  0  0  0
   -3.3787    1.8011   -5.8508 C   0  0  0  0  0  0  0  0  0  0  0  0
   -3.0118    0.6767   -6.5033 C   0  0  0  0  0  0  0  0  0  0  0  0
   -3.7528    0.2595   -7.7499 C   0  0  0  0  0  0  0  0  0  0  0  0
   -3.3161    1.1905   -8.8791 C   0  0  0  0  0  0  0  0  0  0  0  0
   -1.9464   -0.0058   -6.0277 C   0  0  0  0  0  0  0  0  0  0  0  0
   -1.2289   -1.5917   -6.2311 S   0  0  0  0  0  0  0  0  0  0  0  0
   -0.1204   -1.5185   -4.9379 C   0  0  0  0  0  0  0  0  0  0  0  0
    0.7974   -2.2827   -4.1635 C   0  0  0  0  0  0  0  0  0  0  0  0
    1.0287   -3.6109   -4.2507 C   0  0  0  0  0  0  0  0  0  0  0  0
    1.7144   -4.2335   -3.2323 C   0  0  0  0  0  0  0  0  0  0  0  0
    1.9502   -5.4755   -3.2957 N   0  0  0  0  0  0  0  0  0  0  0  0
    1.4215   -6.2487   -4.6165 Se  0  0  0  0  0  2  0  0  0  0  0  0
    0.6654   -4.3759   -5.3127 N   0  0  0  0  0  0  0  0  0  0  0  0
    2.1423   -3.3758   -2.1697 C   0  0  0  0  0  0  0  0  0  0  0  0
    2.7361   -3.7240   -0.9883 C   0  0  0  0  0  0  0  0  0  0  0  0
    3.2226   -4.9901    0.0004 S   0  0  0  0  0  0  0  0  0  0  0  0
    3.6476   -4.0740    1.4472 C   0  0  0  0  0  0  0  0  0  0  0  0
    4.1046   -4.1021    2.6706 C   0  0  0  0  0  0  0  0  0  0  0  0
    4.0716   -5.7135    3.2411 C   0  0  0  0  0  0  0  0  0  0  0  0
    2.6791   -5.9026    3.5138 C   0  0  0  0  0  0  0  0  0  0  0  0
    4.4084   -3.4199    3.6536 C   0  0  0  0  0  0  0  0  0  0  0  0
    3.7818   -1.8833    2.4064 S   0  0  0  0  0  0  0  0  0  0  0  0
    3.3838   -2.8599    1.0643 C   0  0  0  0  0  0  0  0  0  0  0  0
    2.9000   -2.5941   -0.2304 C   0  0  0  0  0  0  0  0  0  0  0  0
    2.4108   -1.5735   -0.9819 N   0  0  0  0  0  0  0  0  0  0  0  0
    1.9228   -1.9990   -2.1251 C   0  0  0  0  0  0  0  0  0  0  0  0
    1.1717   -1.4181   -3.1596 C   0  0  0  0  0  0  0  0  0  0  0  0
    0.5495   -0.2388   -3.2690 N   0  0  0  0  0  0  0  0  0  0  0  0
   -0.2846   -0.3347   -4.3998 C   0  0  0  0  0  0  0  0  0  0  0  0
   -1.2958    0.4540   -4.9909 C   0  0  0  0  0  0  0  0  0  0  0  0
   -2.1962    1.9322   -4.6108 S   0  0  0  0  0  0  0  0  0  0  0  0
    0.6348    0.9600   -2.5025 C   0  0  0  0  0  0  0  0  0  0  0  0
    1.7284    1.8911   -2.9754 C   0  0  0  0  0  0  0  0  0  0  0  0
    2.5738   -0.2015   -0.5820 C   0  0  0  0  0  0  0  0  0  0  0  0
    3.9706    0.2223   -1.1826 C   0  0  0  0  0  0  0  0  0  0  0  0
    4.7542   -2.5565    4.7693 C   0  0  0  0  0  0  0  0  0  0  0  0
    3.6575   -2.0655    5.4975 C   0  0  0  0  0  0  0  0  0  0  0  0
    2.1455   -2.2025    5.4187 S   0  0  0  0  0  0  0  0  0  0  0  0
    1.2569   -1.6373    6.6123 C   0  0  0  0  0  0  0  0  0  0  0  0
    0.5279   -1.1340    7.6715 C   0  0  0  0  0  0  0  0  0  0  0  0
   -0.9016   -1.4677    7.1281 C   0  0  0  0  0  0  0  0  0  0  0  0
   -2.1286   -1.7773    6.6587 N   0  0  0  0  0  0  0  0  0  0  0  0
    0.3575   -0.6552    8.7941 C   0  0  0  0  0  0  0  0  0  0  0  0
    0.1591   -0.1233   10.1002 N   0  0  0  0  0  0  0  0  0  0  0  0
    2.5913   -1.1923    7.2318 N   0  0  0  0  0  0  0  0  0  0  0  0
    2.5239   -0.1339    8.2706 C   0  0  0  0  0  0  0  0  0  0  0  0
    2.1591    1.1723    7.6889 C   0  0  0  0  0  0  0  0  0  0  0  0
    1.9956    1.6080    6.4892 C   0  0  0  0  0  0  0  0  0  0  0  0
    1.6589    2.7896    5.8729 C   0  0  0  0  0  0  0  0  0  0  0  0
    1.4367    3.8422    6.8908 C   0  0  0  0  0  0  0  0  0  0  0  0
    1.5927    3.4500    8.1416 C   0  0  0  0  0  0  0  0  0  0  0  0
    1.9262    2.2778    8.7456 C   0  0  0  0  0  0  0  0  0  0  0  0
    3.8136   -1.3726    6.7635 C   0  0  0  0  0  0  0  0  0  0  0  0
    4.9380   -1.1279    7.1042 O   0  0  0  0  0  0  0  0  0  0  0  0
   -5.4716    2.1184   -6.4228 H   0  0  0  0  0  0  0  0  0  0  0  0
   -2.8729    6.0511   -2.1705 H   0  0  0  0  0  0  0  0  0  0  0  0
   -7.6625    6.0618   -2.9910 H   0  0  0  0  0  0  0  0  0  0  0  0
   -3.5630   -0.7339   -8.0919 H   0  0  0  0  0  0  0  0  0  0  0  0
   -4.8540    0.3452   -7.5339 H   0  0  0  0  0  0  0  0  0  0  0  0
   -4.1941    1.6518   -9.3402 H   0  0  0  0  0  0  0  0  0  0  0  0
   -2.8106    0.6482   -9.6890 H   0  0  0  0  0  0  0  0  0  0  0  0
   -2.6307    1.9258   -8.5054 H   0  0  0  0  0  0  0  0  0  0  0  0
    4.7406   -5.7125    4.0519 H   0  0  0  0  0  0  0  0  0  0  0  0
    4.4428   -6.2494    2.4184 H   0  0  0  0  0  0  0  0  0  0  0  0
    2.3111   -6.9155    3.2699 H   0  0  0  0  0  0  0  0  0  0  0  0
    2.0624   -5.2799    2.7509 H   0  0  0  0  0  0  0  0  0  0  0  0
    2.2677   -5.7113    4.5207 H   0  0  0  0  0  0  0  0  0  0  0  0
    0.3965    0.9570   -1.4481 H   0  0  0  0  0  0  0  0  0  0  0  0
   -0.2983    1.6148   -2.7769 H   0  0  0  0  0  0  0  0  0  0  0  0
    2.6133    1.3781   -3.3236 H   0  0  0  0  0  0  0  0  0  0  0  0
    1.9509    2.5621   -2.1987 H   0  0  0  0  0  0  0  0  0  0  0  0
    1.3818    2.4835   -3.8895 H   0  0  0  0  0  0  0  0  0  0  0  0
    1.9317    0.5369   -0.6941 H   0  0  0  0  0  0  0  0  0  0  0  0
    2.8802   -0.2692    0.5929 H   0  0  0  0  0  0  0  0  0  0  0  0
    4.1417    1.2564   -1.1557 H   0  0  0  0  0  0  0  0  0  0  0  0
    4.7347   -0.4596   -0.6399 H   0  0  0  0  0  0  0  0  0  0  0  0
    3.9432   -0.2016   -2.2094 H   0  0  0  0  0  0  0  0  0  0  0  0
    5.7044   -2.2984    5.0261 H   0  0  0  0  0  0  0  0  0  0  0  0
    2.3205   -0.3348    9.2694 H   0  0  0  0  0  0  0  0  0  0  0  0
    3.7414    0.1885    8.4293 H   0  0  0  0  0  0  0  0  0  0  0  0
    2.1869    0.7455    5.6531 H   0  0  0  0  0  0  0  0  0  0  0  0
    1.5476    3.0312    4.9023 H   0  0  0  0  0  0  0  0  0  0  0  0
    1.1236    4.7934    6.5041 H   0  0  0  0  0  0  0  0  0  0  0  0
    1.3705    4.2677    8.9655 H   0  0  0  0  0  0  0  0  0  0  0  0
    2.0476    2.0374    9.7103 H   0  0  0  0  0  0  0  0  0  0  0  0
  1  2  2  3
  2  3  1  0
  3  4  2  0
  3  5  1  0
  5  6  2  0
  6  7  1  0
  7  8  1  0
  7  9  2  0
  9 10  1  0
  9 11  1  0
 11 12  2  0
 12 13  1  0
 13 14  2  3
 14 15  1  0
 15 16  3  0
 14 17  1  0
 17 18  3  0
  1 19  1  0
 19 20  2  0
 20 21  1  0
 21 22  1  0
 20 23  1  0
 23 24  1  0
 24 25  1  0
 25 26  1  0
 26 27  1  0
 27 28  1  0
 28 29  2  0
 29 30  1  0
 30 31  1  0
 28 32  1  0
 32 33  1  0
 33 34  1  0
 34 35  1  0
 35 36  1  0
 36 37  1  0
 37 38  1  0
 36 39  2  0
 39 40  1  0
 40 41  1  0
 41 42  1  0
 42 43  1  0
 43 44  1  0
 44 45  1  0
 45 46  1  0
 46 47  1  0
 47 48  1  0
 48 49  1  0
 46 50  1  0
 50 51  1  0
 43 52  1  0
 52 53  1  0
 39 54  1  0
 54 55  2  3
 55 56  1  0
 56 57  1  0
 57 58  2  3
 58 59  1  0
 59 60  3  0
 58 61  1  0
 61 62  3  0
 57 63  1  0
 63 64  1  0
 64 65  1  0
 65 66  2  0
 66 67  1  0
 67 68  2  0
 68 69  1  0
 69 70  2  0
 63 71  1  0
 71 72  2  0
 13  2  1  0
 49 19  1  0
 71 55  1  0
 12  5  1  0
 48 23  2  0
 70 65  1  0
 47 25  2  0
 45 26  2  0
 31 27  2  0
 44 32  2  0
 42 33  2  0
 41 35  2  0
  1 73  1  0
  6 74  1  0
 11 75  1  0
 21 76  1  0
 21 77  1  0
 22 78  1  0
 22 79  1  0
 22 80  1  0
 37 81  1  0
 37 82  1  0
 38 83  1  0
 38 84  1  0
 38 85  1  0
 50 86  1  0
 50 87  1  0
 51 88  1  0
 51 89  1  0
 51 90  1  0
 52 91  1  0
 52 92  1  0
 53 93  1  0
 53 94  1  0
 53 95  1  0
 54 96  1  0
 64 97  1  0
 64 98  1  0
 66 99  1  0
 67100  1  0
 68101  1  0
 69102  1  0
 70103  1  0
M  END

