
     RDKit          3D

123137  0  0  0  0  0  0  0  0999 V2000
   -6.1278    3.3815    1.0611 C   0  0  0  0  0  0  0  0  0  0  0  0
   -6.4800    2.8098   -0.1080 C   0  0  0  0  0  0  0  0  0  0  0  0
   -5.5577    2.4783   -1.2032 C   0  0  0  0  0  0  0  0  0  0  0  0
   -4.3026    2.3890   -1.1269 O   0  0  0  0  0  0  0  0  0  0  0  0
   -6.3323    2.2389   -2.3977 C   0  0  0  0  0  0  0  0  0  0  0  0
   -5.8637    1.9954   -3.6885 C   0  0  0  0  0  0  0  0  0  0  0  0
   -6.7969    1.8648   -4.7260 C   0  0  0  0  0  0  0  0  0  0  0  0
   -6.2380    1.5544   -6.3610 Cl  0  0  0  0  0  0  0  0  0  0  0  0
   -8.1728    2.0017   -4.4571 C   0  0  0  0  0  0  0  0  0  0  0  0
   -9.0754    1.9073   -5.4651 F   0  0  0  0  0  0  0  0  0  0  0  0
   -8.6211    2.2513   -3.1482 C   0  0  0  0  0  0  0  0  0  0  0  0
   -7.6813    2.3417   -2.1059 C   0  0  0  0  0  0  0  0  0  0  0  0
   -7.8604    2.5914   -0.6436 C   0  0  0  0  0  0  0  0  0  0  0  0
   -9.0080    2.4518    0.0708 C   0  0  0  0  0  0  0  0  0  0  0  0
   -9.0387    2.4929    1.5099 C   0  0  0  0  0  0  0  0  0  0  0  0
   -9.0772    2.5188    2.6680 N   0  0  0  0  0  0  0  0  0  0  0  0
  -10.2690    2.1245   -0.5428 C   0  0  0  0  0  0  0  0  0  0  0  0
  -11.2895    1.8591   -1.0201 N   0  0  0  0  0  0  0  0  0  0  0  0
   -4.7407    3.7600    1.3676 C   0  0  0  0  0  0  0  0  0  0  0  0
   -4.0003    4.7498    0.6927 C   0  0  0  0  0  0  0  0  0  0  0  0
   -4.5678    5.6667   -0.3234 C   0  0  0  0  0  0  0  0  0  0  0  0
   -3.9531    5.8332   -1.5753 C   0  0  0  0  0  0  0  0  0  0  0  0
   -4.5089    6.6935   -2.5286 C   0  0  0  0  0  0  0  0  0  0  0  0
   -5.6969    7.3869   -2.2506 C   0  0  0  0  0  0  0  0  0  0  0  0
   -6.2830    8.3360   -3.2613 C   0  0  0  0  0  0  0  0  0  0  0  0
   -5.7925    9.7597   -3.0202 C   0  0  0  0  0  0  0  0  0  0  0  0
   -6.3109    7.2218   -1.0005 C   0  0  0  0  0  0  0  0  0  0  0  0
   -5.7538    6.3651   -0.0467 C   0  0  0  0  0  0  0  0  0  0  0  0
   -2.6507    4.6865    1.0551 C   0  0  0  0  0  0  0  0  0  0  0  0
   -1.2433    5.3529    0.3579 S   0  0  0  0  0  0  0  0  0  0  0  0
   -0.2706    4.3527    1.3143 C   0  0  0  0  0  0  0  0  0  0  0  0
    0.9950    3.8645    1.2583 C   0  0  0  0  0  0  0  0  0  0  0  0
    2.1036    4.2514    0.5044 C   0  0  0  0  0  0  0  0  0  0  0  0
    3.2890    3.4685    0.5881 C   0  0  0  0  0  0  0  0  0  0  0  0
    4.3346    3.8566   -0.1816 N   0  0  0  0  0  0  0  0  0  0  0  0
    3.6723    5.1909   -0.9029 S   0  0  0  0  0  0  0  0  0  0  0  0
    2.1279    5.3243   -0.3233 N   0  0  0  0  0  0  0  0  0  0  0  0
    3.2813    2.3164    1.3857 C   0  0  0  0  0  0  0  0  0  0  0  0
    4.1306    1.2499    1.3752 C   0  0  0  0  0  0  0  0  0  0  0  0
    5.3473    0.7246    0.3159 S   0  0  0  0  0  0  0  0  0  0  0  0
    5.0977   -0.8987    0.7616 C   0  0  0  0  0  0  0  0  0  0  0  0
    5.6137   -2.1120    0.2942 C   0  0  0  0  0  0  0  0  0  0  0  0
    6.6221   -2.2108   -0.7871 C   0  0  0  0  0  0  0  0  0  0  0  0
    7.7351   -1.3543   -0.8064 C   0  0  0  0  0  0  0  0  0  0  0  0
    8.6248   -1.3724   -1.8855 C   0  0  0  0  0  0  0  0  0  0  0  0
    8.4299   -2.2637   -2.9501 C   0  0  0  0  0  0  0  0  0  0  0  0
    9.3438   -2.2323   -4.1459 C   0  0  0  0  0  0  0  0  0  0  0  0
    8.7952   -1.2884   -5.2155 C   0  0  0  0  0  0  0  0  0  0  0  0
    7.3263   -3.1310   -2.9259 C   0  0  0  0  0  0  0  0  0  0  0  0
    6.4301   -3.1038   -1.8538 C   0  0  0  0  0  0  0  0  0  0  0  0
    4.9530   -3.2085    0.8925 C   0  0  0  0  0  0  0  0  0  0  0  0
    3.7583   -2.6241    1.9670 S   0  0  0  0  0  0  0  0  0  0  0  0
    4.0640   -1.0077    1.6546 C   0  0  0  0  0  0  0  0  0  0  0  0
    3.4922    0.2174    1.9910 C   0  0  0  0  0  0  0  0  0  0  0  0
    2.2388    0.5511    2.4010 N   0  0  0  0  0  0  0  0  0  0  0  0
    2.1354    1.8851    2.0791 C   0  0  0  0  0  0  0  0  0  0  0  0
    0.9891    2.7250    2.0734 C   0  0  0  0  0  0  0  0  0  0  0  0
   -0.2210    2.5553    2.6977 N   0  0  0  0  0  0  0  0  0  0  0  0
   -0.9732    3.5475    2.1500 C   0  0  0  0  0  0  0  0  0  0  0  0
   -2.3429    3.7232    1.9913 C   0  0  0  0  0  0  0  0  0  0  0  0
   -3.7191    2.8403    2.3698 S   0  0  0  0  0  0  0  0  0  0  0  0
   -0.3317    2.1978    4.1228 C   0  0  0  0  0  0  0  0  0  0  0  0
   -1.5661    1.3506    4.4211 C   0  0  0  0  0  0  0  0  0  0  0  0
    1.1436   -0.4237    2.5091 C   0  0  0  0  0  0  0  0  0  0  0  0
    0.5418   -0.7178    1.1386 C   0  0  0  0  0  0  0  0  0  0  0  0
    5.4290   -4.6066    0.7932 C   0  0  0  0  0  0  0  0  0  0  0  0
    4.6962   -5.7271    0.9551 C   0  0  0  0  0  0  0  0  0  0  0  0
    3.2735   -5.8261    1.3051 C   0  0  0  0  0  0  0  0  0  0  0  0
    2.3735   -4.9873    1.0386 O   0  0  0  0  0  0  0  0  0  0  0  0
    3.0415   -7.1349    1.8851 C   0  0  0  0  0  0  0  0  0  0  0  0
    1.8835   -7.6150    2.4966 C   0  0  0  0  0  0  0  0  0  0  0  0
    1.9099   -8.8996    3.0684 C   0  0  0  0  0  0  0  0  0  0  0  0
    0.7703   -9.4248    3.6964 C   0  0  0  0  0  0  0  0  0  0  0  0
    0.8094  -10.6966    4.2766 C   0  0  0  0  0  0  0  0  0  0  0  0
   -0.2996  -11.1976    4.8757 F   0  0  0  0  0  0  0  0  0  0  0  0
    1.9859  -11.4528    4.2385 C   0  0  0  0  0  0  0  0  0  0  0  0
    2.0171  -12.6878    4.7987 F   0  0  0  0  0  0  0  0  0  0  0  0
    3.1318  -10.9414    3.6229 C   0  0  0  0  0  0  0  0  0  0  0  0
    3.1075   -9.6688    3.0303 C   0  0  0  0  0  0  0  0  0  0  0  0
    4.2591   -9.1517    2.4052 C   0  0  0  0  0  0  0  0  0  0  0  0
    4.2003   -7.8854    1.8051 C   0  0  0  0  0  0  0  0  0  0  0  0
    5.2457   -7.1100    1.0833 C   0  0  0  0  0  0  0  0  0  0  0  0
    6.3292   -7.6173    0.4400 C   0  0  0  0  0  0  0  0  0  0  0  0
    6.7023   -9.0055    0.5281 C   0  0  0  0  0  0  0  0  0  0  0  0
    7.0121  -10.1196    0.5900 N   0  0  0  0  0  0  0  0  0  0  0  0
    7.1008   -6.8428   -0.4978 C   0  0  0  0  0  0  0  0  0  0  0  0
    7.7220   -6.2275   -1.2556 N   0  0  0  0  0  0  0  0  0  0  0  0
   -6.8616    3.6856    1.7834 H   0  0  0  0  0  0  0  0  0  0  0  0
   -4.8013    1.9206   -3.8851 H   0  0  0  0  0  0  0  0  0  0  0  0
   -9.6753    2.3971   -2.9878 H   0  0  0  0  0  0  0  0  0  0  0  0
   -3.0577    5.2832   -1.8282 H   0  0  0  0  0  0  0  0  0  0  0  0
   -4.0153    6.8146   -3.4850 H   0  0  0  0  0  0  0  0  0  0  0  0
   -6.0075    8.0221   -4.2912 H   0  0  0  0  0  0  0  0  0  0  0  0
   -7.3922    8.3159   -3.1966 H   0  0  0  0  0  0  0  0  0  0  0  0
   -4.6964    9.8216   -3.1867 H   0  0  0  0  0  0  0  0  0  0  0  0
   -6.3004   10.4530   -3.7215 H   0  0  0  0  0  0  0  0  0  0  0  0
   -6.0196   10.0763   -1.9788 H   0  0  0  0  0  0  0  0  0  0  0  0
   -7.2198    7.7599   -0.7614 H   0  0  0  0  0  0  0  0  0  0  0  0
   -6.2431    6.2586    0.9128 H   0  0  0  0  0  0  0  0  0  0  0  0
    7.9083   -0.6591    0.0043 H   0  0  0  0  0  0  0  0  0  0  0  0
    9.4596   -0.6825   -1.8941 H   0  0  0  0  0  0  0  0  0  0  0  0
   10.3586   -1.8947   -3.8439 H   0  0  0  0  0  0  0  0  0  0  0  0
    9.4453   -3.2537   -4.5723 H   0  0  0  0  0  0  0  0  0  0  0  0
    7.8045   -1.6415   -5.5714 H   0  0  0  0  0  0  0  0  0  0  0  0
    9.4913   -1.2619   -6.0797 H   0  0  0  0  0  0  0  0  0  0  0  0
    8.6914   -0.2601   -4.8074 H   0  0  0  0  0  0  0  0  0  0  0  0
    7.1482   -3.8115   -3.7500 H   0  0  0  0  0  0  0  0  0  0  0  0
    5.5661   -3.7564   -1.8796 H   0  0  0  0  0  0  0  0  0  0  0  0
   -0.3672    3.1251    4.7338 H   0  0  0  0  0  0  0  0  0  0  0  0
    0.5798    1.6622    4.4610 H   0  0  0  0  0  0  0  0  0  0  0  0
   -1.3670    0.6899    5.2912 H   0  0  0  0  0  0  0  0  0  0  0  0
   -1.8349    0.7209    3.5444 H   0  0  0  0  0  0  0  0  0  0  0  0
   -2.4200    2.0057    4.6849 H   0  0  0  0  0  0  0  0  0  0  0  0
    0.3481   -0.0741    3.1706 H   0  0  0  0  0  0  0  0  0  0  0  0
    1.5104   -1.3641    2.9650 H   0  0  0  0  0  0  0  0  0  0  0  0
    0.1074    0.2065    0.7027 H   0  0  0  0  0  0  0  0  0  0  0  0
   -0.2645   -1.4764    1.2380 H   0  0  0  0  0  0  0  0  0  0  0  0
    1.3205   -1.1151    0.4505 H   0  0  0  0  0  0  0  0  0  0  0  0
    6.4903   -4.7007    0.6393 H   0  0  0  0  0  0  0  0  0  0  0  0
    0.9937   -6.9975    2.5413 H   0  0  0  0  0  0  0  0  0  0  0  0
   -0.1489   -8.8512    3.7385 H   0  0  0  0  0  0  0  0  0  0  0  0
    4.0348  -11.5411    3.6049 H   0  0  0  0  0  0  0  0  0  0  0  0
    5.1735   -9.7224    2.4279 H   0  0  0  0  0  0  0  0  0  0  0  0
  1  2  2  3
  2  3  1  0
  3  4  2  0
  3  5  1  0
  5  6  2  0
  6  7  1  0
  7  8  1  0
  7  9  2  0
  9 10  1  0
  9 11  1  0
 11 12  2  0
 12 13  1  0
 13 14  2  3
 14 15  1  0
 15 16  3  0
 14 17  1  0
 17 18  3  0
  1 19  1  0
 19 20  2  0
 20 21  1  0
 21 22  2  0
 22 23  1  0
 23 24  2  0
 24 25  1  0
 25 26  1  0
 24 27  1  0
 27 28  2  0
 20 29  1  0
 29 30  1  0
 30 31  1  0
 31 32  1  0
 32 33  1  0
 33 34  1  0
 34 35  2  0
 35 36  1  0
 36 37  1  0
 34 38  1  0
 38 39  1  0
 39 40  1  0
 40 41  1  0
 41 42  1  0
 42 43  1  0
 43 44  2  0
 44 45  1  0
 45 46  2  0
 46 47  1  0
 47 48  1  0
 46 49  1  0
 49 50  2  0
 42 51  2  0
 51 52  1  0
 52 53  1  0
 53 54  1  0
 54 55  1  0
 55 56  1  0
 56 57  1  0
 57 58  1  0
 58 59  1  0
 59 60  1  0
 60 61  1  0
 58 62  1  0
 62 63  1  0
 55 64  1  0
 64 65  1  0
 51 66  1  0
 66 67  2  3
 67 68  1  0
 68 69  2  0
 68 70  1  0
 70 71  2  0
 71 72  1  0
 72 73  2  0
 73 74  1  0
 74 75  1  0
 74 76  2  0
 76 77  1  0
 76 78  1  0
 78 79  2  0
 79 80  1  0
 80 81  2  0
 81 82  1  0
 82 83  2  3
 83 84  1  0
 84 85  3  0
 83 86  1  0
 86 87  3  0
 13  2  1  0
 61 19  1  0
 82 67  1  0
 12  5  1  0
 28 21  1  0
 60 29  2  0
 81 70  1  0
 59 31  2  0
 79 72  1  0
 57 32  2  0
 37 33  2  0
 56 38  2  0
 54 39  2  0
 53 41  2  0
 50 43  1  0
  1 88  1  0
  6 89  1  0
 11 90  1  0
 22 91  1  0
 23 92  1  0
 25 93  1  0
 25 94  1  0
 26 95  1  0
 26 96  1  0
 26 97  1  0
 27 98  1  0
 28 99  1  0
 44100  1  0
 45101  1  0
 47102  1  0
 47103  1  0
 48104  1  0
 48105  1  0
 48106  1  0
 49107  1  0
 50108  1  0
 62109  1  0
 62110  1  0
 63111  1  0
 63112  1  0
 63113  1  0
 64114  1  0
 64115  1  0
 65116  1  0
 65117  1  0
 65118  1  0
 66119  1  0
 71120  1  0
 73121  1  0
 78122  1  0
 80123  1  0
M  END

