
     RDKit          3D

 98108  0  0  0  0  0  0  0  0999 V2000
    3.5737   -5.5797   -2.2741 C   0  0  0  0  0  0  0  0  0  0  0  0
    2.3928   -6.0309   -2.7471 C   0  0  0  0  0  0  0  0  0  0  0  0
    1.0701   -5.4527   -2.4610 C   0  0  0  0  0  0  0  0  0  0  0  0
    0.8161   -4.5184   -1.6572 O   0  0  0  0  0  0  0  0  0  0  0  0
    0.1157   -6.0057   -3.3951 C   0  0  0  0  0  0  0  0  0  0  0  0
   -1.2352   -5.6799   -3.5316 C   0  0  0  0  0  0  0  0  0  0  0  0
   -1.9678   -6.2848   -4.5629 C   0  0  0  0  0  0  0  0  0  0  0  0
   -3.6701   -5.9119   -4.7544 Cl  0  0  0  0  0  0  0  0  0  0  0  0
   -1.3355   -7.1737   -5.4502 C   0  0  0  0  0  0  0  0  0  0  0  0
   -2.0369   -7.7363   -6.4657 F   0  0  0  0  0  0  0  0  0  0  0  0
    0.0278   -7.4787   -5.2983 C   0  0  0  0  0  0  0  0  0  0  0  0
    0.7505   -6.8938   -4.2443 C   0  0  0  0  0  0  0  0  0  0  0  0
    2.1851   -7.0295   -3.8481 C   0  0  0  0  0  0  0  0  0  0  0  0
    3.0611   -7.9866   -4.2567 C   0  0  0  0  0  0  0  0  0  0  0  0
    2.7428   -8.9640   -5.2592 C   0  0  0  0  0  0  0  0  0  0  0  0
    2.5010   -9.7629   -6.0621 N   0  0  0  0  0  0  0  0  0  0  0  0
    4.3424   -8.1776   -3.6334 C   0  0  0  0  0  0  0  0  0  0  0  0
    5.3762   -8.3391   -3.1391 N   0  0  0  0  0  0  0  0  0  0  0  0
    3.7088   -4.6643   -1.1301 C   0  0  0  0  0  0  0  0  0  0  0  0
    4.4964   -3.5070   -1.1318 C   0  0  0  0  0  0  0  0  0  0  0  0
    4.3756   -2.8319    0.0786 C   0  0  0  0  0  0  0  0  0  0  0  0
    4.7560   -1.2485    0.5386 S   0  0  0  0  0  0  0  0  0  0  0  0
    3.9013   -1.4116    2.0004 C   0  0  0  0  0  0  0  0  0  0  0  0
    3.2055   -0.4515    2.8177 C   0  0  0  0  0  0  0  0  0  0  0  0
    2.1596   -1.1163    3.4649 C   0  0  0  0  0  0  0  0  0  0  0  0
    2.1153   -2.5937    3.0815 C   0  0  0  0  0  0  0  0  0  0  0  0
    2.4703   -3.5198    4.2735 C   0  0  0  0  0  0  0  0  0  0  0  0
    1.5090   -3.4456    5.4616 C   0  0  0  0  0  0  0  0  0  0  0  0
    0.7615   -2.9775    2.4112 C   0  0  0  0  0  0  0  0  0  0  0  0
    0.4098   -2.1441    1.1684 C   0  0  0  0  0  0  0  0  0  0  0  0
    3.2680   -2.6249    2.0963 C   0  0  0  0  0  0  0  0  0  0  0  0
    3.5715   -3.4348    1.0077 C   0  0  0  0  0  0  0  0  0  0  0  0
    2.9295   -4.8486    0.3786 S   0  0  0  0  0  0  0  0  0  0  0  0
    1.1435   -0.3831    4.0962 C   0  0  0  0  0  0  0  0  0  0  0  0
    1.2220    1.0120    4.0386 C   0  0  0  0  0  0  0  0  0  0  0  0
    0.1621    1.9506    4.2840 C   0  0  0  0  0  0  0  0  0  0  0  0
    0.4804    3.1535    3.6872 C   0  0  0  0  0  0  0  0  0  0  0  0
    1.9248    3.1678    3.1789 C   0  0  0  0  0  0  0  0  0  0  0  0
    2.2387    1.6777    3.3498 C   0  0  0  0  0  0  0  0  0  0  0  0
    3.2762    0.9415    2.7475 C   0  0  0  0  0  0  0  0  0  0  0  0
    2.0344    3.5929    1.6764 C   0  0  0  0  0  0  0  0  0  0  0  0
    2.2148    5.0948    1.4220 C   0  0  0  0  0  0  0  0  0  0  0  0
    2.7995    4.0064    4.1563 C   0  0  0  0  0  0  0  0  0  0  0  0
    4.3085    3.8511    3.9410 C   0  0  0  0  0  0  0  0  0  0  0  0
   -0.6886    3.8278    3.3027 C   0  0  0  0  0  0  0  0  0  0  0  0
   -1.8497    3.1603    3.6031 C   0  0  0  0  0  0  0  0  0  0  0  0
   -1.5117    1.6697    4.3089 S   0  0  0  0  0  0  0  0  0  0  0  0
   -2.9964    3.6100    2.9532 C   0  0  0  0  0  0  0  0  0  0  0  0
   -2.7004    4.6795    2.1054 C   0  0  0  0  0  0  0  0  0  0  0  0
   -1.0386    5.0216    2.1769 S   0  0  0  0  0  0  0  0  0  0  0  0
   -3.5880    5.1832    1.0525 C   0  0  0  0  0  0  0  0  0  0  0  0
   -3.8861    4.4642   -0.0480 C   0  0  0  0  0  0  0  0  0  0  0  0
   -3.2566    3.1942   -0.4345 C   0  0  0  0  0  0  0  0  0  0  0  0
   -2.6025    2.4173    0.3134 O   0  0  0  0  0  0  0  0  0  0  0  0
   -3.4672    2.9931   -1.8490 C   0  0  0  0  0  0  0  0  0  0  0  0
   -2.9385    1.9883   -2.6586 C   0  0  0  0  0  0  0  0  0  0  0  0
   -3.1778    2.0491   -4.0372 C   0  0  0  0  0  0  0  0  0  0  0  0
   -2.4803    0.6839   -5.1747 Br  0  0  0  0  0  0  0  0  0  0  0  0
   -3.9087    3.1217   -4.5796 C   0  0  0  0  0  0  0  0  0  0  0  0
   -4.4264    4.1277   -3.7468 C   0  0  0  0  0  0  0  0  0  0  0  0
   -4.2203    4.0363   -2.3593 C   0  0  0  0  0  0  0  0  0  0  0  0
   -4.6232    4.9496   -1.2535 C   0  0  0  0  0  0  0  0  0  0  0  0
   -5.6214    5.8675   -1.2768 C   0  0  0  0  0  0  0  0  0  0  0  0
   -6.1151    6.4829   -0.0708 C   0  0  0  0  0  0  0  0  0  0  0  0
   -6.5221    6.9844    0.8886 N   0  0  0  0  0  0  0  0  0  0  0  0
   -6.3419    6.2017   -2.4811 C   0  0  0  0  0  0  0  0  0  0  0  0
   -6.9273    6.4821   -3.4384 N   0  0  0  0  0  0  0  0  0  0  0  0
    4.4919   -5.8326   -2.7818 H   0  0  0  0  0  0  0  0  0  0  0  0
   -1.7005   -4.9792   -2.8537 H   0  0  0  0  0  0  0  0  0  0  0  0
    0.4830   -8.1400   -6.0137 H   0  0  0  0  0  0  0  0  0  0  0  0
    5.0422   -3.1390   -1.9897 H   0  0  0  0  0  0  0  0  0  0  0  0
    3.4888   -3.2720    4.6467 H   0  0  0  0  0  0  0  0  0  0  0  0
    2.5036   -4.5718    3.9171 H   0  0  0  0  0  0  0  0  0  0  0  0
    0.4722   -3.7028    5.1655 H   0  0  0  0  0  0  0  0  0  0  0  0
    1.5353   -2.4364    5.9199 H   0  0  0  0  0  0  0  0  0  0  0  0
    1.8329   -4.1702    6.2371 H   0  0  0  0  0  0  0  0  0  0  0  0
   -0.0691   -2.8563    3.1382 H   0  0  0  0  0  0  0  0  0  0  0  0
    0.7815   -4.0507    2.1265 H   0  0  0  0  0  0  0  0  0  0  0  0
    0.3650   -1.0626    1.4196 H   0  0  0  0  0  0  0  0  0  0  0  0
   -0.5902   -2.4543    0.7933 H   0  0  0  0  0  0  0  0  0  0  0  0
    1.1515   -2.2953    0.3586 H   0  0  0  0  0  0  0  0  0  0  0  0
    0.2733   -0.8729    4.5179 H   0  0  0  0  0  0  0  0  0  0  0  0
    4.0477    1.4170    2.1598 H   0  0  0  0  0  0  0  0  0  0  0  0
    1.1400    3.2387    1.1212 H   0  0  0  0  0  0  0  0  0  0  0  0
    2.9006    3.0979    1.1941 H   0  0  0  0  0  0  0  0  0  0  0  0
    1.9804    5.3145    0.3592 H   0  0  0  0  0  0  0  0  0  0  0  0
    3.2626    5.4032    1.6057 H   0  0  0  0  0  0  0  0  0  0  0  0
    1.5627    5.7115    2.0655 H   0  0  0  0  0  0  0  0  0  0  0  0
    2.5286    5.0806    4.0868 H   0  0  0  0  0  0  0  0  0  0  0  0
    2.5820    3.7051    5.2055 H   0  0  0  0  0  0  0  0  0  0  0  0
    4.8434    4.6167    4.5434 H   0  0  0  0  0  0  0  0  0  0  0  0
    4.6461    2.8478    4.2832 H   0  0  0  0  0  0  0  0  0  0  0  0
    4.5865    3.9876    2.8755 H   0  0  0  0  0  0  0  0  0  0  0  0
   -3.9489    3.0974    2.9824 H   0  0  0  0  0  0  0  0  0  0  0  0
   -3.8805    6.2196    1.1288 H   0  0  0  0  0  0  0  0  0  0  0  0
   -2.3449    1.1921   -2.2250 H   0  0  0  0  0  0  0  0  0  0  0  0
   -4.0569    3.1769   -5.6486 H   0  0  0  0  0  0  0  0  0  0  0  0
   -4.9306    4.9572   -4.2077 H   0  0  0  0  0  0  0  0  0  0  0  0
  1  2  2  3
  2  3  1  0
  3  4  2  0
  3  5  1  0
  5  6  2  0
  6  7  1  0
  7  8  1  0
  7  9  2  0
  9 10  1  0
  9 11  1  0
 11 12  2  0
 12 13  1  0
 13 14  2  3
 14 15  1  0
 15 16  3  0
 14 17  1  0
 17 18  3  0
  1 19  1  0
 19 20  2  0
 20 21  1  0
 21 22  1  0
 22 23  1  0
 23 24  1  0
 24 25  2  0
 25 26  1  0
 26 27  1  0
 27 28  1  0
 26 29  1  0
 29 30  1  0
 26 31  1  0
 31 32  1  0
 32 33  1  0
 25 34  1  0
 34 35  2  0
 35 36  1  0
 36 37  2  0
 37 38  1  0
 38 39  1  0
 39 40  2  0
 38 41  1  0
 41 42  1  0
 38 43  1  0
 43 44  1  0
 37 45  1  0
 45 46  2  0
 46 47  1  0
 46 48  1  0
 48 49  2  0
 49 50  1  0
 49 51  1  0
 51 52  2  3
 52 53  1  0
 53 54  2  0
 53 55  1  0
 55 56  2  0
 56 57  1  0
 57 58  1  0
 57 59  2  0
 59 60  1  0
 60 61  2  0
 61 62  1  0
 62 63  2  3
 63 64  1  0
 64 65  3  0
 63 66  1  0
 66 67  3  0
 13  2  1  0
 33 19  1  0
 39 35  1  0
 50 45  1  0
 62 52  1  0
 12  5  1  0
 32 21  2  0
 47 36  1  0
 61 55  1  0
 31 23  2  0
 40 24  1  0
  1 68  1  0
  6 69  1  0
 11 70  1  0
 20 71  1  0
 27 72  1  0
 27 73  1  0
 28 74  1  0
 28 75  1  0
 28 76  1  0
 29 77  1  0
 29 78  1  0
 30 79  1  0
 30 80  1  0
 30 81  1  0
 34 82  1  0
 40 83  1  0
 41 84  1  0
 41 85  1  0
 42 86  1  0
 42 87  1  0
 42 88  1  0
 43 89  1  0
 43 90  1  0
 44 91  1  0
 44 92  1  0
 44 93  1  0
 48 94  1  0
 51 95  1  0
 56 96  1  0
 59 97  1  0
 60 98  1  0
M  END

