
     RDKit          3D

 97108  0  0  0  0  0  0  0  0999 V2000
   -6.9694    1.0510    2.7693 C   0  0  0  0  0  0  0  0  0  0  0  0
   -7.1789   -0.2686    2.3582 C   0  0  0  0  0  0  0  0  0  0  0  0
   -6.3968   -1.1902    1.9278 C   0  0  0  0  0  0  0  0  0  0  0  0
   -5.0790   -1.3070    2.0338 O   0  0  0  0  0  0  0  0  0  0  0  0
   -7.1337   -2.2092    1.2582 C   0  0  0  0  0  0  0  0  0  0  0  0
   -6.6536   -3.3992    0.6709 C   0  0  0  0  0  0  0  0  0  0  0  0
   -7.5942   -4.2480    0.1109 C   0  0  0  0  0  0  0  0  0  0  0  0
   -6.9665   -5.7207   -0.5977 Cl  0  0  0  0  0  0  0  0  0  0  0  0
   -8.8547   -3.9184    0.1509 C   0  0  0  0  0  0  0  0  0  0  0  0
   -9.8154   -4.7090   -0.3932 F   0  0  0  0  0  0  0  0  0  0  0  0
   -9.3632   -2.6966    0.7511 C   0  0  0  0  0  0  0  0  0  0  0  0
   -8.3810   -1.9128    1.2776 C   0  0  0  0  0  0  0  0  0  0  0  0
   -8.7453   -0.3521    2.1288 C   0  0  0  0  0  0  0  0  0  0  0  0
   -9.7773   -0.4161    1.9584 C   0  0  0  0  0  0  0  0  0  0  0  0
  -10.7678    0.0578    3.0580 C   0  0  0  0  0  0  0  0  0  0  0  0
  -11.5691    0.4580    3.9314 N   0  0  0  0  0  0  0  0  0  0  0  0
  -10.6727   -0.4877    0.6907 C   0  0  0  0  0  0  0  0  0  0  0  0
  -11.3180   -0.5538   -0.2483 N   0  0  0  0  0  0  0  0  0  0  0  0
   -5.6754    1.6644    2.7458 C   0  0  0  0  0  0  0  0  0  0  0  0
   -5.2075    2.7987    3.3463 C   0  0  0  0  0  0  0  0  0  0  0  0
   -6.1019    3.6436    4.2059 C   0  0  0  0  0  0  0  0  0  0  0  0
   -7.0347    4.5124    3.4145 C   0  0  0  0  0  0  0  0  0  0  0  0
   -3.9119    3.0939    3.0408 C   0  0  0  0  0  0  0  0  0  0  0  0
   -2.7691    4.3570    3.6032 S   0  0  0  0  0  0  0  0  0  0  0  0
   -1.4062    3.8090    2.6945 C   0  0  0  0  0  0  0  0  0  0  0  0
   -0.0563    3.9902    2.4238 C   0  0  0  0  0  0  0  0  0  0  0  0
    0.8536    4.8131    3.1252 C   0  0  0  0  0  0  0  0  0  0  0  0
    2.1620    4.6364    2.9675 C   0  0  0  0  0  0  0  0  0  0  0  0
    3.0451    5.4277    3.5463 N   0  0  0  0  0  0  0  0  0  0  0  0
    1.9384    6.6452    4.4733 Se  0  0  0  0  0  2  0  0  0  0  0  0
    0.4592    5.8558    3.9075 N   0  0  0  0  0  0  0  0  0  0  0  0
    2.5945    3.6375    2.0738 C   0  0  0  0  0  0  0  0  0  0  0  0
    3.8163    3.1042    1.7056 C   0  0  0  0  0  0  0  0  0  0  0  0
    5.5269    3.0389    2.0868 S   0  0  0  0  0  0  0  0  0  0  0  0
    5.9275    1.6642    1.0447 C   0  0  0  0  0  0  0  0  0  0  0  0
    7.0882    0.9293    0.8518 C   0  0  0  0  0  0  0  0  0  0  0  0
    8.3955    1.0738    1.4847 C   0  0  0  0  0  0  0  0  0  0  0  0
    9.3413    2.1063    1.0479 C   0  0  0  0  0  0  0  0  0  0  0  0
    6.8020   -0.1990   -0.0552 C   0  0  0  0  0  0  0  0  0  0  0  0
    5.2055    0.0621   -0.3634 S   0  0  0  0  0  0  0  0  0  0  0  0
    4.8266    1.4272    0.5459 C   0  0  0  0  0  0  0  0  0  0  0  0
    3.6548    2.1016    0.8117 C   0  0  0  0  0  0  0  0  0  0  0  0
    2.3260    2.0334    0.6395 N   0  0  0  0  0  0  0  0  0  0  0  0
    1.6386    2.8584    1.3427 C   0  0  0  0  0  0  0  0  0  0  0  0
    0.2663    3.0355    1.5608 C   0  0  0  0  0  0  0  0  0  0  0  0
   -0.7873    2.2479    1.2687 N   0  0  0  0  0  0  0  0  0  0  0  0
   -1.8873    2.7532    2.0352 C   0  0  0  0  0  0  0  0  0  0  0  0
   -3.1955    2.4049    2.2528 C   0  0  0  0  0  0  0  0  0  0  0  0
   -4.3454    1.1231    1.8231 S   0  0  0  0  0  0  0  0  0  0  0  0
   -0.9591    1.1127    0.4408 C   0  0  0  0  0  0  0  0  0  0  0  0
   -0.7155   -0.2228    1.1207 C   0  0  0  0  0  0  0  0  0  0  0  0
    1.7827    1.2794   -0.5166 C   0  0  0  0  0  0  0  0  0  0  0  0
    1.4589    2.2925   -1.6216 C   0  0  0  0  0  0  0  0  0  0  0  0
    7.7765   -1.1470   -0.5481 C   0  0  0  0  0  0  0  0  0  0  0  0
    7.8150   -1.8358   -1.6370 C   0  0  0  0  0  0  0  0  0  0  0  0
    8.2646   -2.6873   -2.5936 C   0  0  0  0  0  0  0  0  0  0  0  0
    9.6774   -2.8044   -2.5252 O   0  0  0  0  0  0  0  0  0  0  0  0
    7.5695   -3.3810   -3.5244 C   0  0  0  0  0  0  0  0  0  0  0  0
    7.9307   -4.2410   -4.5728 C   0  0  0  0  0  0  0  0  0  0  0  0
    9.5155   -4.6942   -4.9376 Cl  0  0  0  0  0  0  0  0  0  0  0  0
    6.8106   -4.7468   -5.3968 C   0  0  0  0  0  0  0  0  0  0  0  0
    5.6405   -4.3693   -5.0815 C   0  0  0  0  0  0  0  0  0  0  0  0
    5.2171   -3.5268   -4.0622 C   0  0  0  0  0  0  0  0  0  0  0  0
    6.2652   -3.0229   -3.2620 C   0  0  0  0  0  0  0  0  0  0  0  0
    6.2191   -2.0775   -2.0991 C   0  0  0  0  0  0  0  0  0  0  0  0
    5.2216   -2.1172   -1.3810 C   0  0  0  0  0  0  0  0  0  0  0  0
    3.7658   -2.2694   -1.7302 C   0  0  0  0  0  0  0  0  0  0  0  0
    2.7764   -2.3726   -1.9828 N   0  0  0  0  0  0  0  0  0  0  0  0
    5.3161   -2.5200    0.1133 C   0  0  0  0  0  0  0  0  0  0  0  0
    5.3928   -2.8071    1.2474 N   0  0  0  0  0  0  0  0  0  0  0  0
   -7.7848    1.6291    3.1632 H   0  0  0  0  0  0  0  0  0  0  0  0
   -5.6210   -3.6430    0.6711 H   0  0  0  0  0  0  0  0  0  0  0  0
  -10.3992   -2.6221    0.7334 H   0  0  0  0  0  0  0  0  0  0  0  0
   -5.5187    4.3146    4.8700 H   0  0  0  0  0  0  0  0  0  0  0  0
   -6.7333    3.0106    4.8656 H   0  0  0  0  0  0  0  0  0  0  0  0
   -6.4736    5.0055    2.5617 H   0  0  0  0  0  0  0  0  0  0  0  0
   -7.4403    5.3197    4.1049 H   0  0  0  0  0  0  0  0  0  0  0  0
   -7.9309    3.9833    3.0689 H   0  0  0  0  0  0  0  0  0  0  0  0
    8.9343    0.0863    1.4651 H   0  0  0  0  0  0  0  0  0  0  0  0
    8.2244    1.1782    2.6336 H   0  0  0  0  0  0  0  0  0  0  0  0
    9.4485    2.9375    1.7872 H   0  0  0  0  0  0  0  0  0  0  0  0
    9.1961    2.5758    0.0730 H   0  0  0  0  0  0  0  0  0  0  0  0
   10.3891    1.6749    0.9966 H   0  0  0  0  0  0  0  0  0  0  0  0
   -0.7657    1.1811   -0.6320 H   0  0  0  0  0  0  0  0  0  0  0  0
   -2.1203    0.9713    0.2601 H   0  0  0  0  0  0  0  0  0  0  0  0
   -1.3228   -0.3470    2.0364 H   0  0  0  0  0  0  0  0  0  0  0  0
    0.3258   -0.3107    1.4487 H   0  0  0  0  0  0  0  0  0  0  0  0
   -1.0362   -1.0659    0.4491 H   0  0  0  0  0  0  0  0  0  0  0  0
    1.1891    0.4920   -0.4273 H   0  0  0  0  0  0  0  0  0  0  0  0
    2.7586    0.8179   -1.0436 H   0  0  0  0  0  0  0  0  0  0  0  0
    0.8729    1.7848   -2.4101 H   0  0  0  0  0  0  0  0  0  0  0  0
    2.3634    2.7577   -2.0094 H   0  0  0  0  0  0  0  0  0  0  0  0
    0.7578    3.0494   -1.1946 H   0  0  0  0  0  0  0  0  0  0  0  0
    8.6245   -1.3217    0.1551 H   0  0  0  0  0  0  0  0  0  0  0  0
    7.1207   -5.4116   -6.2094 H   0  0  0  0  0  0  0  0  0  0  0  0
    4.7720   -4.7780   -5.7254 H   0  0  0  0  0  0  0  0  0  0  0  0
    4.2021   -3.3044   -3.9338 H   0  0  0  0  0  0  0  0  0  0  0  0
  1  2  2  3
  2  3  1  0
  3  4  2  0
  3  5  1  0
  5  6  2  0
  6  7  1  0
  7  8  1  0
  7  9  2  0
  9 10  1  0
  9 11  1  0
 11 12  2  0
 12 13  1  0
 13 14  2  3
 14 15  1  0
 15 16  3  0
 14 17  1  0
 17 18  3  0
  1 19  1  0
 19 20  2  0
 20 21  1  0
 21 22  1  0
 20 23  1  0
 23 24  1  0
 24 25  1  0
 25 26  1  0
 26 27  1  0
 27 28  1  0
 28 29  2  0
 29 30  1  0
 30 31  1  0
 28 32  1  0
 32 33  1  0
 33 34  1  0
 34 35  1  0
 35 36  1  0
 36 37  1  0
 37 38  1  0
 36 39  2  0
 39 40  1  0
 40 41  1  0
 41 42  1  0
 42 43  1  0
 43 44  1  0
 44 45  1  0
 45 46  1  0
 46 47  1  0
 47 48  1  0
 48 49  1  0
 46 50  1  0
 50 51  1  0
 43 52  1  0
 52 53  1  0
 39 54  1  0
 54 55  2  3
 55 56  1  0
 56 57  2  0
 56 58  1  0
 58 59  2  0
 59 60  1  0
 59 61  1  0
 61 62  2  0
 62 63  1  0
 63 64  2  0
 64 65  1  0
 65 66  2  3
 66 67  1  0
 67 68  3  0
 66 69  1  0
 69 70  3  0
 13  2  1  0
 49 19  1  0
 65 55  1  0
 12  5  1  0
 48 23  2  0
 64 58  1  0
 47 25  2  0
 45 26  2  0
 31 27  2  0
 44 32  2  0
 42 33  2  0
 41 35  2  0
  1 71  1  0
  6 72  1  0
 11 73  1  0
 21 74  1  0
 21 75  1  0
 22 76  1  0
 22 77  1  0
 22 78  1  0
 37 79  1  0
 37 80  1  0
 38 81  1  0
 38 82  1  0
 38 83  1  0
 50 84  1  0
 50 85  1  0
 51 86  1  0
 51 87  1  0
 51 88  1  0
 52 89  1  0
 52 90  1  0
 53 91  1  0
 53 92  1  0
 53 93  1  0
 54 94  1  0
 61 95  1  0
 62 96  1  0
 63 97  1  0
M  END

