
     RDKit          3D

134146  0  0  0  0  0  0  0  0999 V2000
   -1.3072    1.4351    6.1745 C   0  0  0  0  0  0  0  0  0  0  0  0
   -0.8337    1.2017    7.4139 C   0  0  0  0  0  0  0  0  0  0  0  0
   -0.4124   -0.1035    7.9387 C   0  0  0  0  0  0  0  0  0  0  0  0
   -0.4750   -1.2097    7.3381 O   0  0  0  0  0  0  0  0  0  0  0  0
   -0.1217    0.0366    9.3461 C   0  0  0  0  0  0  0  0  0  0  0  0
    0.3237   -0.9474   10.2277 C   0  0  0  0  0  0  0  0  0  0  0  0
    0.5101   -0.6056   11.5756 C   0  0  0  0  0  0  0  0  0  0  0  0
    1.0951   -1.8181   12.7022 Cl  0  0  0  0  0  0  0  0  0  0  0  0
    0.2140    0.6947   12.0190 C   0  0  0  0  0  0  0  0  0  0  0  0
    0.3775    1.0221   13.3260 F   0  0  0  0  0  0  0  0  0  0  0  0
   -0.2456    1.6654   11.1145 C   0  0  0  0  0  0  0  0  0  0  0  0
   -0.3948    1.3280    9.7560 C   0  0  0  0  0  0  0  0  0  0  0  0
   -0.8009    2.1550    8.5763 C   0  0  0  0  0  0  0  0  0  0  0  0
   -0.9262    3.5111    8.5392 C   0  0  0  0  0  0  0  0  0  0  0  0
   -1.0979    4.2484    7.3137 C   0  0  0  0  0  0  0  0  0  0  0  0
   -1.2350    4.8602    6.3394 N   0  0  0  0  0  0  0  0  0  0  0  0
   -0.8120    4.3407    9.7088 C   0  0  0  0  0  0  0  0  0  0  0  0
   -0.7315    5.0290   10.6364 N   0  0  0  0  0  0  0  0  0  0  0  0
   -1.1168    0.5629    4.9983 C   0  0  0  0  0  0  0  0  0  0  0  0
   -0.0142   -0.2487    4.7141 C   0  0  0  0  0  0  0  0  0  0  0  0
   -0.0477   -0.7605    3.4158 C   0  0  0  0  0  0  0  0  0  0  0  0
    0.9413   -1.5776    2.8618 O   0  0  0  0  0  0  0  0  0  0  0  0
    1.0600   -1.8187    1.4439 C   0  0  0  0  0  0  0  0  0  0  0  0
    1.4712   -3.2911    1.3079 C   0  0  0  0  0  0  0  0  0  0  0  0
    0.4923   -4.3002    1.4205 C   0  0  0  0  0  0  0  0  0  0  0  0
    0.8373   -5.6493    1.3088 C   0  0  0  0  0  0  0  0  0  0  0  0
    2.1708   -6.0230    1.1065 C   0  0  0  0  0  0  0  0  0  0  0  0
    2.5433   -7.4781    0.9828 C   0  0  0  0  0  0  0  0  0  0  0  0
    2.8232   -8.0832    2.3517 C   0  0  0  0  0  0  0  0  0  0  0  0
    3.1659   -5.0384    1.0948 C   0  0  0  0  0  0  0  0  0  0  0  0
    2.8212   -3.6874    1.2167 C   0  0  0  0  0  0  0  0  0  0  0  0
    2.0784   -0.8262    0.8451 C   0  0  0  0  0  0  0  0  0  0  0  0
    2.6389   -1.0473   -0.4343 C   0  0  0  0  0  0  0  0  0  0  0  0
    3.3878   -0.0555   -1.0725 C   0  0  0  0  0  0  0  0  0  0  0  0
    3.5735    1.1948   -0.4612 C   0  0  0  0  0  0  0  0  0  0  0  0
    4.3727    2.2659   -1.1527 C   0  0  0  0  0  0  0  0  0  0  0  0
    5.8583    2.1059   -0.8502 C   0  0  0  0  0  0  0  0  0  0  0  0
    3.0626    1.4123    0.8213 C   0  0  0  0  0  0  0  0  0  0  0  0
    2.3128    0.4235    1.4638 C   0  0  0  0  0  0  0  0  0  0  0  0
   -0.2646   -1.5402    0.6968 C   0  0  0  0  0  0  0  0  0  0  0  0
   -1.2556   -0.7082    1.2628 C   0  0  0  0  0  0  0  0  0  0  0  0
   -1.1218   -0.3451    2.6714 C   0  0  0  0  0  0  0  0  0  0  0  0
   -2.0713    0.6768    3.6069 S   0  0  0  0  0  0  0  0  0  0  0  0
   -2.2816   -0.1797    0.4659 C   0  0  0  0  0  0  0  0  0  0  0  0
   -2.3289   -0.4539   -0.9135 C   0  0  0  0  0  0  0  0  0  0  0  0
   -1.3945   -1.3676   -1.4534 C   0  0  0  0  0  0  0  0  0  0  0  0
   -0.3995   -1.9260   -0.6502 C   0  0  0  0  0  0  0  0  0  0  0  0
   -1.4563   -1.6456   -2.8923 C   0  0  0  0  0  0  0  0  0  0  0  0
   -0.2901   -2.2833   -3.9141 S   0  0  0  0  0  0  0  0  0  0  0  0
   -1.1741   -2.0601   -5.3463 C   0  0  0  0  0  0  0  0  0  0  0  0
   -2.3814   -1.4362   -5.0181 C   0  0  0  0  0  0  0  0  0  0  0  0
   -2.4996   -1.1802   -3.6495 C   0  0  0  0  0  0  0  0  0  0  0  0
   -3.4934   -0.4019   -3.0512 O   0  0  0  0  0  0  0  0  0  0  0  0
   -3.1675    0.4024   -1.8950 C   0  0  0  0  0  0  0  0  0  0  0  0
   -4.4710    0.8726   -1.2459 C   0  0  0  0  0  0  0  0  0  0  0  0
   -5.5697   -0.0034   -1.1655 C   0  0  0  0  0  0  0  0  0  0  0  0
   -6.7633    0.3974   -0.5550 C   0  0  0  0  0  0  0  0  0  0  0  0
   -6.8697    1.6716    0.0208 C   0  0  0  0  0  0  0  0  0  0  0  0
   -8.1747    2.1400    0.6133 C   0  0  0  0  0  0  0  0  0  0  0  0
   -8.9431    2.9947   -0.3914 C   0  0  0  0  0  0  0  0  0  0  0  0
   -5.7687    2.5381   -0.0235 C   0  0  0  0  0  0  0  0  0  0  0  0
   -4.5788    2.1418   -0.6388 C   0  0  0  0  0  0  0  0  0  0  0  0
   -2.3341    1.5869   -2.4229 C   0  0  0  0  0  0  0  0  0  0  0  0
   -1.1409    2.0287   -1.8067 C   0  0  0  0  0  0  0  0  0  0  0  0
   -0.3272    2.9824   -2.4273 C   0  0  0  0  0  0  0  0  0  0  0  0
   -0.6906    3.5255   -3.6664 C   0  0  0  0  0  0  0  0  0  0  0  0
    0.2319    4.4778   -4.3853 C   0  0  0  0  0  0  0  0  0  0  0  0
   -0.1671    5.9249   -4.1283 C   0  0  0  0  0  0  0  0  0  0  0  0
   -1.9230    3.1747   -4.2308 C   0  0  0  0  0  0  0  0  0  0  0  0
   -2.7384    2.2243   -3.6120 C   0  0  0  0  0  0  0  0  0  0  0  0
   -0.6358   -2.1033   -6.7241 C   0  0  0  0  0  0  0  0  0  0  0  0
    0.5180   -2.6870   -7.1065 C   0  0  0  0  0  0  0  0  0  0  0  0
    1.1721   -3.8370   -6.4614 C   0  0  0  0  0  0  0  0  0  0  0  0
    0.7592   -4.4715   -5.4548 O   0  0  0  0  0  0  0  0  0  0  0  0
    2.2734   -4.2669   -7.2932 C   0  0  0  0  0  0  0  0  0  0  0  0
    3.1624   -5.3184   -7.0613 C   0  0  0  0  0  0  0  0  0  0  0  0
    4.1385   -5.5944   -8.0296 C   0  0  0  0  0  0  0  0  0  0  0  0
    5.0316   -6.5958   -7.8270 F   0  0  0  0  0  0  0  0  0  0  0  0
    4.1883   -4.8402   -9.2130 C   0  0  0  0  0  0  0  0  0  0  0  0
    3.2839   -3.7888   -9.4273 C   0  0  0  0  0  0  0  0  0  0  0  0
    2.3274   -3.4930   -8.4391 C   0  0  0  0  0  0  0  0  0  0  0  0
    1.2864   -2.4229   -8.3710 C   0  0  0  0  0  0  0  0  0  0  0  0
    1.2263   -1.3018   -9.1410 C   0  0  0  0  0  0  0  0  0  0  0  0
    0.3859   -0.1776   -8.8170 C   0  0  0  0  0  0  0  0  0  0  0  0
   -0.2815    0.7331   -8.5620 N   0  0  0  0  0  0  0  0  0  0  0  0
    2.0919   -1.0779  -10.2676 C   0  0  0  0  0  0  0  0  0  0  0  0
    2.7807   -0.8724  -11.1769 N   0  0  0  0  0  0  0  0  0  0  0  0
   -1.8631    2.3359    5.9707 H   0  0  0  0  0  0  0  0  0  0  0  0
    0.5375   -1.9487    9.8758 H   0  0  0  0  0  0  0  0  0  0  0  0
   -0.4898    2.6358   11.5030 H   0  0  0  0  0  0  0  0  0  0  0  0
    0.8230   -0.4005    5.3849 H   0  0  0  0  0  0  0  0  0  0  0  0
   -0.5422   -4.0431    1.5946 H   0  0  0  0  0  0  0  0  0  0  0  0
    0.0644   -6.4018    1.3890 H   0  0  0  0  0  0  0  0  0  0  0  0
    1.7194   -8.0433    0.4927 H   0  0  0  0  0  0  0  0  0  0  0  0
    3.4465   -7.5883    0.3421 H   0  0  0  0  0  0  0  0  0  0  0  0
    3.1443   -9.1394    2.2337 H   0  0  0  0  0  0  0  0  0  0  0  0
    3.6328   -7.5180    2.8640 H   0  0  0  0  0  0  0  0  0  0  0  0
    1.9053   -8.0600    2.9770 H   0  0  0  0  0  0  0  0  0  0  0  0
    4.2095   -5.3132    0.9974 H   0  0  0  0  0  0  0  0  0  0  0  0
    3.6203   -2.9578    1.2348 H   0  0  0  0  0  0  0  0  0  0  0  0
    2.4870   -1.9829   -0.9537 H   0  0  0  0  0  0  0  0  0  0  0  0
    3.7907   -0.2473   -2.0573 H   0  0  0  0  0  0  0  0  0  0  0  0
    4.2092    2.2162   -2.2502 H   0  0  0  0  0  0  0  0  0  0  0  0
    4.0349    3.2714   -0.8152 H   0  0  0  0  0  0  0  0  0  0  0  0
    6.4263    2.9256   -1.3430 H   0  0  0  0  0  0  0  0  0  0  0  0
    6.0384    2.1511    0.2438 H   0  0  0  0  0  0  0  0  0  0  0  0
    6.2267    1.1364   -1.2458 H   0  0  0  0  0  0  0  0  0  0  0  0
    3.2095    2.3639    1.3166 H   0  0  0  0  0  0  0  0  0  0  0  0
    1.9065    0.6597    2.4304 H   0  0  0  0  0  0  0  0  0  0  0  0
   -2.9767    0.5242    0.9014 H   0  0  0  0  0  0  0  0  0  0  0  0
    0.3226   -2.5977   -1.0987 H   0  0  0  0  0  0  0  0  0  0  0  0
   -3.0871   -1.0646   -5.7481 H   0  0  0  0  0  0  0  0  0  0  0  0
   -5.5045   -1.0028   -1.5786 H   0  0  0  0  0  0  0  0  0  0  0  0
   -7.6029   -0.2880   -0.5321 H   0  0  0  0  0  0  0  0  0  0  0  0
   -8.8069    1.2720    0.9069 H   0  0  0  0  0  0  0  0  0  0  0  0
   -7.9795    2.7390    1.5299 H   0  0  0  0  0  0  0  0  0  0  0  0
   -9.9252    3.2868    0.0343 H   0  0  0  0  0  0  0  0  0  0  0  0
   -9.1177    2.4240   -1.3270 H   0  0  0  0  0  0  0  0  0  0  0  0
   -8.3726    3.9166   -0.6315 H   0  0  0  0  0  0  0  0  0  0  0  0
   -5.8384    3.5256    0.4157 H   0  0  0  0  0  0  0  0  0  0  0  0
   -3.7445    2.8300   -0.6274 H   0  0  0  0  0  0  0  0  0  0  0  0
   -0.7975    1.6156   -0.8699 H   0  0  0  0  0  0  0  0  0  0  0  0
    0.6019    3.2763   -1.9549 H   0  0  0  0  0  0  0  0  0  0  0  0
    1.2821    4.3253   -4.0546 H   0  0  0  0  0  0  0  0  0  0  0  0
    0.2028    4.2718   -5.4762 H   0  0  0  0  0  0  0  0  0  0  0  0
   -0.0089    6.1779   -3.0583 H   0  0  0  0  0  0  0  0  0  0  0  0
   -1.2335    6.0957   -4.3923 H   0  0  0  0  0  0  0  0  0  0  0  0
    0.4655    6.5986   -4.7513 H   0  0  0  0  0  0  0  0  0  0  0  0
   -2.2377    3.6116   -5.1702 H   0  0  0  0  0  0  0  0  0  0  0  0
   -3.6681    1.9450   -4.0901 H   0  0  0  0  0  0  0  0  0  0  0  0
   -1.1919   -1.5301   -7.4454 H   0  0  0  0  0  0  0  0  0  0  0  0
    3.1057   -5.9053   -6.1561 H   0  0  0  0  0  0  0  0  0  0  0  0
    4.9459   -5.0559   -9.9594 H   0  0  0  0  0  0  0  0  0  0  0  0
    3.3478   -3.2465  -10.3545 H   0  0  0  0  0  0  0  0  0  0  0  0
  1  2  2  3
  2  3  1  0
  3  4  2  0
  3  5  1  0
  5  6  2  0
  6  7  1  0
  7  8  1  0
  7  9  2  0
  9 10  1  0
  9 11  1  0
 11 12  2  0
 12 13  1  0
 13 14  2  3
 14 15  1  0
 15 16  3  0
 14 17  1  0
 17 18  3  0
  1 19  1  0
 19 20  2  0
 20 21  1  0
 21 22  1  0
 22 23  1  0
 23 24  1  0
 24 25  2  0
 25 26  1  0
 26 27  2  0
 27 28  1  0
 28 29  1  0
 27 30  1  0
 30 31  2  0
 23 32  1  0
 32 33  2  0
 33 34  1  0
 34 35  2  0
 35 36  1  0
 36 37  1  0
 35 38  1  0
 38 39  2  0
 23 40  1  0
 40 41  2  0
 41 42  1  0
 42 43  1  0
 41 44  1  0
 44 45  2  0
 45 46  1  0
 46 47  2  0
 46 48  1  0
 48 49  1  0
 49 50  1  0
 50 51  2  0
 51 52  1  0
 52 53  1  0
 53 54  1  0
 54 55  1  0
 55 56  2  0
 56 57  1  0
 57 58  2  0
 58 59  1  0
 59 60  1  0
 58 61  1  0
 61 62  2  0
 54 63  1  0
 63 64  2  0
 64 65  1  0
 65 66  2  0
 66 67  1  0
 67 68  1  0
 66 69  1  0
 69 70  2  0
 50 71  1  0
 71 72  2  3
 72 73  1  0
 73 74  2  0
 73 75  1  0
 75 76  2  0
 76 77  1  0
 77 78  1  0
 77 79  2  0
 79 80  1  0
 80 81  2  0
 81 82  1  0
 82 83  2  3
 83 84  1  0
 84 85  3  0
 83 86  1  0
 86 87  3  0
 13  2  1  0
 43 19  1  0
 54 45  1  0
 62 55  1  0
 70 63  1  0
 82 72  1  0
 12  5  1  0
 42 21  2  0
 52 48  2  0
 81 75  1  0
 31 24  1  0
 39 32  1  0
 47 40  1  0
  1 88  1  0
  6 89  1  0
 11 90  1  0
 20 91  1  0
 25 92  1  0
 26 93  1  0
 28 94  1  0
 28 95  1  0
 29 96  1  0
 29 97  1  0
 29 98  1  0
 30 99  1  0
 31100  1  0
 33101  1  0
 34102  1  0
 36103  1  0
 36104  1  0
 37105  1  0
 37106  1  0
 37107  1  0
 38108  1  0
 39109  1  0
 44110  1  0
 47111  1  0
 51112  1  0
 56113  1  0
 57114  1  0
 59115  1  0
 59116  1  0
 60117  1  0
 60118  1  0
 60119  1  0
 61120  1  0
 62121  1  0
 64122  1  0
 65123  1  0
 67124  1  0
 67125  1  0
 68126  1  0
 68127  1  0
 68128  1  0
 69129  1  0
 70130  1  0
 71131  1  0
 76132  1  0
 79133  1  0
 80134  1  0
M  END

