
     RDKit          3D

 97108  0  0  0  0  0  0  0  0999 V2000
    8.1986   -0.6339    2.3838 C   0  0  0  0  0  0  0  0  0  0  0  0
    7.7417    0.4169    3.1447 C   0  0  0  0  0  0  0  0  0  0  0  0
    6.5727    1.2303    2.8014 C   0  0  0  0  0  0  0  0  0  0  0  0
    5.9898    1.3913    1.7011 O   0  0  0  0  0  0  0  0  0  0  0  0
    6.0918    1.9309    3.9944 C   0  0  0  0  0  0  0  0  0  0  0  0
    5.0215    2.8112    4.1732 C   0  0  0  0  0  0  0  0  0  0  0  0
    4.7563    3.3669    5.4033 C   0  0  0  0  0  0  0  0  0  0  0  0
    3.4572    4.4836    5.6548 Cl  0  0  0  0  0  0  0  0  0  0  0  0
    5.5865    3.0234    6.4764 C   0  0  0  0  0  0  0  0  0  0  0  0
    5.3043    3.5687    7.6933 F   0  0  0  0  0  0  0  0  0  0  0  0
    6.6299    2.1566    6.2573 C   0  0  0  0  0  0  0  0  0  0  0  0
    6.9304    1.5846    5.0575 C   0  0  0  0  0  0  0  0  0  0  0  0
    7.9735    0.6552    4.5655 C   0  0  0  0  0  0  0  0  0  0  0  0
    9.0820    0.2699    5.1237 C   0  0  0  0  0  0  0  0  0  0  0  0
   10.1565   -0.3513    4.6522 C   0  0  0  0  0  0  0  0  0  0  0  0
   11.1925   -0.9250    4.2056 N   0  0  0  0  0  0  0  0  0  0  0  0
    9.1031    0.4719    6.6976 C   0  0  0  0  0  0  0  0  0  0  0  0
    9.1340    0.6093    7.7321 N   0  0  0  0  0  0  0  0  0  0  0  0
    7.4007   -0.9059    1.2285 C   0  0  0  0  0  0  0  0  0  0  0  0
    7.5075   -1.2013   -0.1547 C   0  0  0  0  0  0  0  0  0  0  0  0
    8.7942   -1.4085   -0.7391 C   0  0  0  0  0  0  0  0  0  0  0  0
    9.4105   -2.7788   -0.3625 C   0  0  0  0  0  0  0  0  0  0  0  0
    6.1164   -1.1263   -0.3275 C   0  0  0  0  0  0  0  0  0  0  0  0
    5.7797   -2.0282   -2.2208 S   0  0  0  0  0  0  0  0  0  0  0  0
    4.0940   -1.7906   -2.1156 C   0  0  0  0  0  0  0  0  0  0  0  0
    2.8464   -1.9120   -2.6536 C   0  0  0  0  0  0  0  0  0  0  0  0
    2.4284   -2.4242   -3.9094 C   0  0  0  0  0  0  0  0  0  0  0  0
    1.1677   -2.3871   -4.2669 C   0  0  0  0  0  0  0  0  0  0  0  0
    0.7585   -2.8396   -5.4412 N   0  0  0  0  0  0  0  0  0  0  0  0
    2.5894   -3.4491   -6.1836 Se  0  0  0  0  0  2  0  0  0  0  0  0
    3.3280   -2.9422   -4.7704 N   0  0  0  0  0  0  0  0  0  0  0  0
    0.2414   -1.8365   -3.3521 C   0  0  0  0  0  0  0  0  0  0  0  0
   -1.1173   -1.6980   -3.4231 C   0  0  0  0  0  0  0  0  0  0  0  0
   -2.5338   -1.9350   -4.3386 S   0  0  0  0  0  0  0  0  0  0  0  0
   -3.6660   -1.1514   -2.8624 C   0  0  0  0  0  0  0  0  0  0  0  0
   -5.0833   -1.2749   -3.3239 C   0  0  0  0  0  0  0  0  0  0  0  0
   -5.8580   -1.4393   -4.4640 C   0  0  0  0  0  0  0  0  0  0  0  0
   -5.8231   -2.7298   -5.2396 C   0  0  0  0  0  0  0  0  0  0  0  0
   -5.6171   -0.9189   -2.0401 C   0  0  0  0  0  0  0  0  0  0  0  0
   -4.2142   -0.6139   -0.9906 S   0  0  0  0  0  0  0  0  0  0  0  0
   -2.9539   -1.0229   -2.3885 C   0  0  0  0  0  0  0  0  0  0  0  0
   -1.5763   -1.1158   -2.2333 C   0  0  0  0  0  0  0  0  0  0  0  0
   -0.4818   -0.9278   -1.4804 N   0  0  0  0  0  0  0  0  0  0  0  0
    0.6174   -1.3280   -2.1018 C   0  0  0  0  0  0  0  0  0  0  0  0
    1.9639   -1.3615   -1.7564 C   0  0  0  0  0  0  0  0  0  0  0  0
    2.6050   -0.8898   -0.6837 N   0  0  0  0  0  0  0  0  0  0  0  0
    3.9517   -1.1604   -0.8833 C   0  0  0  0  0  0  0  0  0  0  0  0
    5.1561   -1.0711   -0.4303 C   0  0  0  0  0  0  0  0  0  0  0  0
    5.6157   -0.7266    1.5127 S   0  0  0  0  0  0  0  0  0  0  0  0
    2.1703   -0.0982    0.4414 C   0  0  0  0  0  0  0  0  0  0  0  0
    2.1709    1.3864    0.0605 C   0  0  0  0  0  0  0  0  0  0  0  0
   -0.6158   -0.5226   -0.0806 C   0  0  0  0  0  0  0  0  0  0  0  0
   -0.6330   -1.8154    0.7306 C   0  0  0  0  0  0  0  0  0  0  0  0
   -6.9639   -0.9931   -1.4708 C   0  0  0  0  0  0  0  0  0  0  0  0
   -7.6531    0.0336   -1.0859 C   0  0  0  0  0  0  0  0  0  0  0  0
   -7.4897    1.4057   -1.0653 C   0  0  0  0  0  0  0  0  0  0  0  0
   -6.5420    2.0416   -1.7221 O   0  0  0  0  0  0  0  0  0  0  0  0
   -8.4317    2.1055   -0.2853 C   0  0  0  0  0  0  0  0  0  0  0  0
   -8.5333    3.4812   -0.0123 C   0  0  0  0  0  0  0  0  0  0  0  0
   -9.5472    3.9351    0.8400 C   0  0  0  0  0  0  0  0  0  0  0  0
   -9.6208    5.8022    1.1842 Br  0  0  0  0  0  0  0  0  0  0  0  0
  -10.3923    3.0392    1.3849 C   0  0  0  0  0  0  0  0  0  0  0  0
  -10.2921    1.6892    1.1247 C   0  0  0  0  0  0  0  0  0  0  0  0
   -9.2809    1.1807    0.2576 C   0  0  0  0  0  0  0  0  0  0  0  0
   -8.9091   -0.1677   -0.1611 C   0  0  0  0  0  0  0  0  0  0  0  0
   -9.3780   -1.2671    0.2760 C   0  0  0  0  0  0  0  0  0  0  0  0
   -8.8744   -2.5621    0.0545 C   0  0  0  0  0  0  0  0  0  0  0  0
   -8.4184   -3.7075   -0.1471 N   0  0  0  0  0  0  0  0  0  0  0  0
  -10.6781   -1.2738    1.0231 C   0  0  0  0  0  0  0  0  0  0  0  0
  -11.6965   -1.2645    1.6043 N   0  0  0  0  0  0  0  0  0  0  0  0
    9.0307   -1.1499    2.6579 H   0  0  0  0  0  0  0  0  0  0  0  0
    4.3854    3.0518    3.3268 H   0  0  0  0  0  0  0  0  0  0  0  0
    7.2357    1.9190    7.0992 H   0  0  0  0  0  0  0  0  0  0  0  0
    9.5171   -0.6091   -0.4228 H   0  0  0  0  0  0  0  0  0  0  0  0
    8.7803   -1.4220   -1.8598 H   0  0  0  0  0  0  0  0  0  0  0  0
   10.3962   -2.8287   -0.8766 H   0  0  0  0  0  0  0  0  0  0  0  0
    9.5044   -2.8070    0.7296 H   0  0  0  0  0  0  0  0  0  0  0  0
    8.7432   -3.5561   -0.7291 H   0  0  0  0  0  0  0  0  0  0  0  0
   -6.9656   -1.3732   -4.1356 H   0  0  0  0  0  0  0  0  0  0  0  0
   -5.7613   -0.6052   -5.2589 H   0  0  0  0  0  0  0  0  0  0  0  0
   -6.1301   -2.5015   -6.3398 H   0  0  0  0  0  0  0  0  0  0  0  0
   -6.4954   -3.5067   -4.8942 H   0  0  0  0  0  0  0  0  0  0  0  0
   -4.7725   -3.0986   -5.3887 H   0  0  0  0  0  0  0  0  0  0  0  0
    3.1277   -0.0580    1.1616 H   0  0  0  0  0  0  0  0  0  0  0  0
    1.5386   -0.4764    1.1925 H   0  0  0  0  0  0  0  0  0  0  0  0
    1.7091    2.0228    0.8130 H   0  0  0  0  0  0  0  0  0  0  0  0
    3.2231    1.7753   -0.0893 H   0  0  0  0  0  0  0  0  0  0  0  0
    1.7385    1.4952   -0.9761 H   0  0  0  0  0  0  0  0  0  0  0  0
   -0.1772    0.2877    0.3072 H   0  0  0  0  0  0  0  0  0  0  0  0
   -1.7698   -0.2239    0.0381 H   0  0  0  0  0  0  0  0  0  0  0  0
   -1.5386   -2.3928    0.4468 H   0  0  0  0  0  0  0  0  0  0  0  0
    0.2602   -2.4739    0.5167 H   0  0  0  0  0  0  0  0  0  0  0  0
   -0.6360   -1.6349    1.8261 H   0  0  0  0  0  0  0  0  0  0  0  0
   -7.3412   -1.9803   -1.4324 H   0  0  0  0  0  0  0  0  0  0  0  0
   -7.8759    4.1938   -0.4418 H   0  0  0  0  0  0  0  0  0  0  0  0
  -11.1981    3.3848    2.0792 H   0  0  0  0  0  0  0  0  0  0  0  0
  -10.9867    1.0590    1.5994 H   0  0  0  0  0  0  0  0  0  0  0  0
  1  2  2  3
  2  3  1  0
  3  4  2  0
  3  5  1  0
  5  6  2  0
  6  7  1  0
  7  8  1  0
  7  9  2  0
  9 10  1  0
  9 11  1  0
 11 12  2  0
 12 13  1  0
 13 14  2  3
 14 15  1  0
 15 16  3  0
 14 17  1  0
 17 18  3  0
  1 19  1  0
 19 20  2  0
 20 21  1  0
 21 22  1  0
 20 23  1  0
 23 24  1  0
 24 25  1  0
 25 26  1  0
 26 27  1  0
 27 28  1  0
 28 29  2  0
 29 30  1  0
 30 31  1  0
 28 32  1  0
 32 33  1  0
 33 34  1  0
 34 35  1  0
 35 36  1  0
 36 37  1  0
 37 38  1  0
 36 39  2  0
 39 40  1  0
 40 41  1  0
 41 42  1  0
 42 43  1  0
 43 44  1  0
 44 45  1  0
 45 46  1  0
 46 47  1  0
 47 48  1  0
 48 49  1  0
 46 50  1  0
 50 51  1  0
 43 52  1  0
 52 53  1  0
 39 54  1  0
 54 55  2  3
 55 56  1  0
 56 57  2  0
 56 58  1  0
 58 59  2  0
 59 60  1  0
 60 61  1  0
 60 62  2  0
 62 63  1  0
 63 64  2  0
 64 65  1  0
 65 66  2  3
 66 67  1  0
 67 68  3  0
 66 69  1  0
 69 70  3  0
 13  2  1  0
 49 19  1  0
 65 55  1  0
 12  5  1  0
 48 23  2  0
 64 58  1  0
 47 25  2  0
 45 26  2  0
 31 27  2  0
 44 32  2  0
 42 33  2  0
 41 35  2  0
  1 71  1  0
  6 72  1  0
 11 73  1  0
 21 74  1  0
 21 75  1  0
 22 76  1  0
 22 77  1  0
 22 78  1  0
 37 79  1  0
 37 80  1  0
 38 81  1  0
 38 82  1  0
 38 83  1  0
 50 84  1  0
 50 85  1  0
 51 86  1  0
 51 87  1  0
 51 88  1  0
 52 89  1  0
 52 90  1  0
 53 91  1  0
 53 92  1  0
 53 93  1  0
 54 94  1  0
 59 95  1  0
 62 96  1  0
 63 97  1  0
M  END

