
     RDKit          3D

 94105  0  0  0  0  0  0  0  0999 V2000
   -3.1265    1.0997   -7.1322 C   0  0  0  0  0  0  0  0  0  0  0  0
   -1.9881    0.7052   -7.5642 C   0  0  0  0  0  0  0  0  0  0  0  0
   -1.2688    1.3833   -8.6279 C   0  0  0  0  0  0  0  0  0  0  0  0
   -1.6871    2.2364   -9.4290 O   0  0  0  0  0  0  0  0  0  0  0  0
    0.0959    0.8882   -8.6140 C   0  0  0  0  0  0  0  0  0  0  0  0
    1.1826    1.2456   -9.4092 C   0  0  0  0  0  0  0  0  0  0  0  0
    2.4185    0.7074   -9.2564 C   0  0  0  0  0  0  0  0  0  0  0  0
    3.7582    1.2029  -10.2720 Cl  0  0  0  0  0  0  0  0  0  0  0  0
    2.6015   -0.2383   -8.2655 C   0  0  0  0  0  0  0  0  0  0  0  0
    3.8320   -0.8083   -8.0733 F   0  0  0  0  0  0  0  0  0  0  0  0
    1.5194   -0.6084   -7.4578 C   0  0  0  0  0  0  0  0  0  0  0  0
    0.2661   -0.0576   -7.6173 C   0  0  0  0  0  0  0  0  0  0  0  0
   -1.0481   -0.2280   -6.9108 C   0  0  0  0  0  0  0  0  0  0  0  0
   -1.2545   -1.2215   -6.1589 C   0  0  0  0  0  0  0  0  0  0  0  0
   -0.1662   -2.0291   -5.5421 C   0  0  0  0  0  0  0  0  0  0  0  0
    0.6474   -2.6571   -5.0733 N   0  0  0  0  0  0  0  0  0  0  0  0
   -2.5229   -1.8892   -5.9137 C   0  0  0  0  0  0  0  0  0  0  0  0
   -3.5204   -2.4115   -5.7018 N   0  0  0  0  0  0  0  0  0  0  0  0
   -4.0452    0.6561   -6.1179 C   0  0  0  0  0  0  0  0  0  0  0  0
   -4.8111    0.5985   -5.1158 C   0  0  0  0  0  0  0  0  0  0  0  0
   -6.2959    0.5555   -5.7535 C   0  0  0  0  0  0  0  0  0  0  0  0
   -6.5366   -0.8043   -6.2732 C   0  0  0  0  0  0  0  0  0  0  0  0
   -4.7472    0.6750   -3.7933 C   0  0  0  0  0  0  0  0  0  0  0  0
   -5.7102    0.5024   -2.3366 S   0  0  0  0  0  0  0  0  0  0  0  0
   -4.4815    0.6895   -1.1880 C   0  0  0  0  0  0  0  0  0  0  0  0
   -4.1552    0.6138    0.1599 C   0  0  0  0  0  0  0  0  0  0  0  0
   -4.9566    0.2536    1.2642 C   0  0  0  0  0  0  0  0  0  0  0  0
   -4.3965    0.0389    2.4403 C   0  0  0  0  0  0  0  0  0  0  0  0
   -5.0999   -0.2840    3.5177 N   0  0  0  0  0  0  0  0  0  0  0  0
   -6.9732   -0.2688    2.6081 Se  0  0  0  0  0  2  0  0  0  0  0  0
   -6.2883    0.1422    1.1523 N   0  0  0  0  0  0  0  0  0  0  0  0
   -2.9881    0.2017    2.5087 C   0  0  0  0  0  0  0  0  0  0  0  0
   -2.1240   -0.0641    3.5526 C   0  0  0  0  0  0  0  0  0  0  0  0
   -1.9784   -0.6678    5.1295 S   0  0  0  0  0  0  0  0  0  0  0  0
   -0.2338   -0.6543    5.2626 C   0  0  0  0  0  0  0  0  0  0  0  0
    0.6999   -1.0266    6.1736 C   0  0  0  0  0  0  0  0  0  0  0  0
    0.3330   -1.6238    7.5151 C   0  0  0  0  0  0  0  0  0  0  0  0
   -0.0001   -3.0649    7.2310 C   0  0  0  0  0  0  0  0  0  0  0  0
    2.0033   -0.8728    5.8109 C   0  0  0  0  0  0  0  0  0  0  0  0
    1.8619   -0.2275    4.2596 S   0  0  0  0  0  0  0  0  0  0  0  0
    0.1197   -0.1798    4.1056 C   0  0  0  0  0  0  0  0  0  0  0  0
   -0.8455    0.1468    3.1625 C   0  0  0  0  0  0  0  0  0  0  0  0
   -0.9077    0.5616    1.8264 N   0  0  0  0  0  0  0  0  0  0  0  0
   -2.1816    0.5730    1.4564 C   0  0  0  0  0  0  0  0  0  0  0  0
   -2.7883    0.7842    0.2082 C   0  0  0  0  0  0  0  0  0  0  0  0
   -2.2921    0.9541   -1.0293 N   0  0  0  0  0  0  0  0  0  0  0  0
   -3.3713    0.8886   -1.8979 C   0  0  0  0  0  0  0  0  0  0  0  0
   -3.5545    0.8780   -3.3085 C   0  0  0  0  0  0  0  0  0  0  0  0
   -2.6054    0.9647   -4.6857 S   0  0  0  0  0  0  0  0  0  0  0  0
   -0.9477    1.0780   -1.5281 C   0  0  0  0  0  0  0  0  0  0  0  0
   -0.3967   -0.2754   -1.9610 C   0  0  0  0  0  0  0  0  0  0  0  0
    0.2649    1.0102    1.1582 C   0  0  0  0  0  0  0  0  0  0  0  0
    0.4720    2.5257    1.3952 C   0  0  0  0  0  0  0  0  0  0  0  0
    3.1562   -1.2685    6.6064 C   0  0  0  0  0  0  0  0  0  0  0  0
    4.3377   -1.6413    6.1426 C   0  0  0  0  0  0  0  0  0  0  0  0
    4.6725   -1.7049    4.7230 C   0  0  0  0  0  0  0  0  0  0  0  0
    4.0185   -1.4746    3.6761 O   0  0  0  0  0  0  0  0  0  0  0  0
    6.0842   -2.1371    4.6391 C   0  0  0  0  0  0  0  0  0  0  0  0
    7.3628   -2.4867    3.5685 S   0  0  0  0  0  0  0  0  0  0  0  0
    8.5679   -2.8849    4.7011 C   0  0  0  0  0  0  0  0  0  0  0  0
    7.9174   -2.7318    5.9089 C   0  0  0  0  0  0  0  0  0  0  0  0
    6.6220   -2.3361    5.8791 C   0  0  0  0  0  0  0  0  0  0  0  0
    5.5360   -2.0312    6.8667 C   0  0  0  0  0  0  0  0  0  0  0  0
    5.5940   -2.2256    8.1975 C   0  0  0  0  0  0  0  0  0  0  0  0
    6.9189   -2.6073    8.7702 C   0  0  0  0  0  0  0  0  0  0  0  0
    7.9884   -2.9005    9.2305 N   0  0  0  0  0  0  0  0  0  0  0  0
    4.6197   -2.2172    9.0348 C   0  0  0  0  0  0  0  0  0  0  0  0
    3.5959   -2.2028    9.9228 N   0  0  0  0  0  0  0  0  0  0  0  0
   -3.5389    2.0204   -7.6698 H   0  0  0  0  0  0  0  0  0  0  0  0
    1.0503    1.9835  -10.1912 H   0  0  0  0  0  0  0  0  0  0  0  0
    1.7711   -1.3299   -6.7174 H   0  0  0  0  0  0  0  0  0  0  0  0
   -6.9749    0.9160   -4.9913 H   0  0  0  0  0  0  0  0  0  0  0  0
   -6.3096    1.2900   -6.5565 H   0  0  0  0  0  0  0  0  0  0  0  0
   -7.6462   -1.0682   -6.2070 H   0  0  0  0  0  0  0  0  0  0  0  0
   -6.2228   -0.9077   -7.3496 H   0  0  0  0  0  0  0  0  0  0  0  0
   -6.0454   -1.6014   -5.7079 H   0  0  0  0  0  0  0  0  0  0  0  0
    1.0948   -1.4516    8.2591 H   0  0  0  0  0  0  0  0  0  0  0  0
   -0.6084   -1.1455    7.8882 H   0  0  0  0  0  0  0  0  0  0  0  0
    0.8591   -3.7122    7.3139 H   0  0  0  0  0  0  0  0  0  0  0  0
   -0.8748   -3.3698    7.8523 H   0  0  0  0  0  0  0  0  0  0  0  0
   -0.3484   -3.1249    6.1641 H   0  0  0  0  0  0  0  0  0  0  0  0
   -0.2891    1.8278   -1.1528 H   0  0  0  0  0  0  0  0  0  0  0  0
   -1.0701    1.5609   -2.5903 H   0  0  0  0  0  0  0  0  0  0  0  0
   -0.1485   -0.9568   -1.1491 H   0  0  0  0  0  0  0  0  0  0  0  0
    0.3704   -0.1289   -2.7271 H   0  0  0  0  0  0  0  0  0  0  0  0
   -1.2150   -0.8291   -2.5302 H   0  0  0  0  0  0  0  0  0  0  0  0
    1.1647    0.6181    1.8494 H   0  0  0  0  0  0  0  0  0  0  0  0
    0.5762    0.7186    0.2281 H   0  0  0  0  0  0  0  0  0  0  0  0
    0.4123    3.1342    0.4922 H   0  0  0  0  0  0  0  0  0  0  0  0
    1.4306    2.6997    1.9532 H   0  0  0  0  0  0  0  0  0  0  0  0
   -0.3383    2.8757    2.1132 H   0  0  0  0  0  0  0  0  0  0  0  0
    3.0276   -1.2448    7.6963 H   0  0  0  0  0  0  0  0  0  0  0  0
    9.6100   -3.2110    4.5454 H   0  0  0  0  0  0  0  0  0  0  0  0
    8.5339   -2.9660    6.8137 H   0  0  0  0  0  0  0  0  0  0  0  0
  1  2  2  3
  2  3  1  0
  3  4  2  0
  3  5  1  0
  5  6  2  0
  6  7  1  0
  7  8  1  0
  7  9  2  0
  9 10  1  0
  9 11  1  0
 11 12  2  0
 12 13  1  0
 13 14  2  3
 14 15  1  0
 15 16  3  0
 14 17  1  0
 17 18  3  0
  1 19  1  0
 19 20  2  0
 20 21  1  0
 21 22  1  0
 20 23  1  0
 23 24  1  0
 24 25  1  0
 25 26  1  0
 26 27  1  0
 27 28  1  0
 28 29  2  0
 29 30  1  0
 30 31  1  0
 28 32  1  0
 32 33  1  0
 33 34  1  0
 34 35  1  0
 35 36  1  0
 36 37  1  0
 37 38  1  0
 36 39  2  0
 39 40  1  0
 40 41  1  0
 41 42  1  0
 42 43  1  0
 43 44  1  0
 44 45  1  0
 45 46  1  0
 46 47  1  0
 47 48  1  0
 48 49  1  0
 46 50  1  0
 50 51  1  0
 43 52  1  0
 52 53  1  0
 39 54  1  0
 54 55  2  3
 55 56  1  0
 56 57  2  0
 56 58  1  0
 58 59  1  0
 59 60  1  0
 60 61  2  0
 61 62  1  0
 62 63  1  0
 63 64  2  3
 64 65  1  0
 65 66  3  0
 64 67  1  0
 67 68  3  0
 13  2  1  0
 49 19  1  0
 63 55  1  0
 12  5  1  0
 48 23  2  0
 62 58  2  0
 47 25  2  0
 45 26  2  0
 31 27  2  0
 44 32  2  0
 42 33  2  0
 41 35  2  0
  1 69  1  0
  6 70  1  0
 11 71  1  0
 21 72  1  0
 21 73  1  0
 22 74  1  0
 22 75  1  0
 22 76  1  0
 37 77  1  0
 37 78  1  0
 38 79  1  0
 38 80  1  0
 38 81  1  0
 50 82  1  0
 50 83  1  0
 51 84  1  0
 51 85  1  0
 51 86  1  0
 52 87  1  0
 52 88  1  0
 53 89  1  0
 53 90  1  0
 53 91  1  0
 54 92  1  0
 60 93  1  0
 61 94  1  0
M  END

