
     RDKit          3D

110124  0  0  0  0  0  0  0  0999 V2000
    0.4549    1.5946    7.3195 C   0  0  0  0  0  0  0  0  0  0  0  0
   -0.8058    2.1119    6.9527 C   0  0  0  0  0  0  0  0  0  0  0  0
   -1.2950    3.3037    7.7968 C   0  0  0  0  0  0  0  0  0  0  0  0
   -0.8090    3.7783    8.7566 O   0  0  0  0  0  0  0  0  0  0  0  0
   -2.5316    3.7259    7.0888 C   0  0  0  0  0  0  0  0  0  0  0  0
   -3.4593    4.7166    7.2513 C   0  0  0  0  0  0  0  0  0  0  0  0
   -4.5777    5.0699    6.5558 C   0  0  0  0  0  0  0  0  0  0  0  0
   -5.7555    6.2648    6.7112 Cl  0  0  0  0  0  0  0  0  0  0  0  0
   -4.8045    4.1168    5.3005 C   0  0  0  0  0  0  0  0  0  0  0  0
   -5.8223    4.3911    4.5916 F   0  0  0  0  0  0  0  0  0  0  0  0
   -3.8492    3.3160    5.3670 C   0  0  0  0  0  0  0  0  0  0  0  0
   -2.7420    2.8305    5.9267 C   0  0  0  0  0  0  0  0  0  0  0  0
   -1.6085    1.8711    5.9740 C   0  0  0  0  0  0  0  0  0  0  0  0
   -2.1179    0.6815    5.3178 C   0  0  0  0  0  0  0  0  0  0  0  0
   -1.8974   -0.5370    5.6497 C   0  0  0  0  0  0  0  0  0  0  0  0
   -1.6452   -1.8015    5.9918 N   0  0  0  0  0  0  0  0  0  0  0  0
   -2.4549    1.1066    3.9761 C   0  0  0  0  0  0  0  0  0  0  0  0
   -2.7693    1.5262    2.6962 N   0  0  0  0  0  0  0  0  0  0  0  0
    0.9350    0.5121    6.4430 C   0  0  0  0  0  0  0  0  0  0  0  0
    1.7622   -0.5879    6.6308 C   0  0  0  0  0  0  0  0  0  0  0  0
    2.4408   -0.8587    7.9294 C   0  0  0  0  0  0  0  0  0  0  0  0
    3.6714    0.0705    8.0780 C   0  0  0  0  0  0  0  0  0  0  0  0
    1.9761   -1.3334    5.4925 C   0  0  0  0  0  0  0  0  0  0  0  0
    3.0343   -2.9019    5.0184 Se  0  0  0  0  0  2  0  0  0  0  0  0
    2.4210   -2.7879    3.1567 C   0  0  0  0  0  0  0  0  0  0  0  0
    2.5375   -3.3896    1.9213 C   0  0  0  0  0  0  0  0  0  0  0  0
    3.2110   -4.3541    1.3101 C   0  0  0  0  0  0  0  0  0  0  0  0
    3.1823   -4.6225    0.0163 C   0  0  0  0  0  0  0  0  0  0  0  0
    3.9177   -5.6168   -0.4412 N   0  0  0  0  0  0  0  0  0  0  0  0
    4.6821   -6.2384    0.9081 S   0  0  0  0  0  0  0  0  0  0  0  0
    4.0617   -5.2032    2.0589 N   0  0  0  0  0  0  0  0  0  0  0  0
    2.3159   -3.7960   -0.7831 C   0  0  0  0  0  0  0  0  0  0  0  0
    2.1158   -3.7700   -2.1382 C   0  0  0  0  0  0  0  0  0  0  0  0
    2.6724   -4.4493   -3.7695 Se  0  0  0  0  0  2  0  0  0  0  0  0
    1.4586   -3.1080   -4.7874 C   0  0  0  0  0  0  0  0  0  0  0  0
    1.1616   -2.7624   -6.0302 C   0  0  0  0  0  0  0  0  0  0  0  0
    1.7630   -3.3988   -7.2792 C   0  0  0  0  0  0  0  0  0  0  0  0
    1.0920   -4.7582   -7.5446 C   0  0  0  0  0  0  0  0  0  0  0  0
    0.3099   -1.7633   -6.2558 C   0  0  0  0  0  0  0  0  0  0  0  0
   -0.0493   -1.3153   -4.5968 S   0  0  0  0  0  0  0  0  0  0  0  0
    0.9567   -2.4899   -3.7530 C   0  0  0  0  0  0  0  0  0  0  0  0
    1.2241   -2.7751   -2.4617 C   0  0  0  0  0  0  0  0  0  0  0  0
    0.8791   -2.1728   -1.2273 N   0  0  0  0  0  0  0  0  0  0  0  0
    1.5572   -2.7946   -0.2610 C   0  0  0  0  0  0  0  0  0  0  0  0
    1.6442   -2.5391    1.1036 C   0  0  0  0  0  0  0  0  0  0  0  0
    1.1944   -1.6474    1.8769 N   0  0  0  0  0  0  0  0  0  0  0  0
    1.5853   -1.6831    3.1377 C   0  0  0  0  0  0  0  0  0  0  0  0
    1.4639   -1.0499    4.3679 C   0  0  0  0  0  0  0  0  0  0  0  0
    0.5918    0.4007    4.8180 S   0  0  0  0  0  0  0  0  0  0  0  0
    0.1742   -0.6192    1.5155 C   0  0  0  0  0  0  0  0  0  0  0  0
   -1.1655   -1.1376    1.8558 C   0  0  0  0  0  0  0  0  0  0  0  0
   -0.2469   -1.2689   -1.2095 C   0  0  0  0  0  0  0  0  0  0  0  0
   -0.0580    0.1079   -1.7603 C   0  0  0  0  0  0  0  0  0  0  0  0
   -0.5488   -0.9191   -7.1697 C   0  0  0  0  0  0  0  0  0  0  0  0
   -0.5930    0.3916   -6.6850 C   0  0  0  0  0  0  0  0  0  0  0  0
    0.0727    1.0200   -5.6012 C   0  0  0  0  0  0  0  0  0  0  0  0
    1.2979    0.6915   -5.2732 O   0  0  0  0  0  0  0  0  0  0  0  0
   -0.7118    2.0287   -4.9297 C   0  0  0  0  0  0  0  0  0  0  0  0
   -0.4555    2.7374   -3.7635 C   0  0  0  0  0  0  0  0  0  0  0  0
   -1.3990    3.5320   -3.2242 C   0  0  0  0  0  0  0  0  0  0  0  0
   -2.6418    3.6781   -3.8342 C   0  0  0  0  0  0  0  0  0  0  0  0
   -2.8573    2.9389   -5.0174 C   0  0  0  0  0  0  0  0  0  0  0  0
   -1.9175    2.1138   -5.5737 C   0  0  0  0  0  0  0  0  0  0  0  0
   -1.9125    1.1123   -6.6847 C   0  0  0  0  0  0  0  0  0  0  0  0
   -3.0310    0.6526   -7.2789 C   0  0  0  0  0  0  0  0  0  0  0  0
   -4.2361    1.4368   -7.2203 C   0  0  0  0  0  0  0  0  0  0  0  0
   -5.2857    2.1427   -7.1694 N   0  0  0  0  0  0  0  0  0  0  0  0
   -3.1807   -0.6343   -7.5847 C   0  0  0  0  0  0  0  0  0  0  0  0
   -3.3194   -2.0003   -7.8943 N   0  0  0  0  0  0  0  0  0  0  0  0
   -3.0458    4.6963   -2.8472 C   0  0  0  0  0  0  0  0  0  0  0  0
   -2.4825    6.1083   -3.2203 C   0  0  0  0  0  0  0  0  0  0  0  0
   -1.0618    5.8994   -3.7012 C   0  0  0  0  0  0  0  0  0  0  0  0
   -0.2989    5.9106   -2.6006 C   0  0  0  0  0  0  0  0  0  0  0  0
   -1.1799    5.4167   -1.5182 C   0  0  0  0  0  0  0  0  0  0  0  0
   -2.2519    6.5210   -1.7503 C   0  0  0  0  0  0  0  0  0  0  0  0
   -1.8925    4.2158   -1.9637 C   0  0  0  0  0  0  0  0  0  0  0  0
    0.8945    1.9520    8.1307 H   0  0  0  0  0  0  0  0  0  0  0  0
   -3.2957    5.4168    8.1195 H   0  0  0  0  0  0  0  0  0  0  0  0
   -4.0946    2.5164    4.4311 H   0  0  0  0  0  0  0  0  0  0  0  0
    2.7434   -1.9457    8.0692 H   0  0  0  0  0  0  0  0  0  0  0  0
    1.7531   -0.6409    8.7855 H   0  0  0  0  0  0  0  0  0  0  0  0
    3.5976    0.4970    9.0888 H   0  0  0  0  0  0  0  0  0  0  0  0
    4.6024   -0.4401    7.8755 H   0  0  0  0  0  0  0  0  0  0  0  0
    3.5565    0.9626    7.4179 H   0  0  0  0  0  0  0  0  0  0  0  0
    1.5146   -2.8060   -8.1441 H   0  0  0  0  0  0  0  0  0  0  0  0
    2.8043   -3.5249   -7.1747 H   0  0  0  0  0  0  0  0  0  0  0  0
    1.7717   -5.5630   -7.1472 H   0  0  0  0  0  0  0  0  0  0  0  0
    0.0982   -4.8313   -7.1309 H   0  0  0  0  0  0  0  0  0  0  0  0
    1.0022   -4.9579   -8.6630 H   0  0  0  0  0  0  0  0  0  0  0  0
    0.4470   -0.0147    0.7461 H   0  0  0  0  0  0  0  0  0  0  0  0
    0.2850    0.1650    2.3466 H   0  0  0  0  0  0  0  0  0  0  0  0
   -1.2800   -2.2460    1.5373 H   0  0  0  0  0  0  0  0  0  0  0  0
   -1.3332   -1.1639    2.9824 H   0  0  0  0  0  0  0  0  0  0  0  0
   -2.0255   -0.6711    1.4184 H   0  0  0  0  0  0  0  0  0  0  0  0
   -1.0388   -1.4313   -0.5078 H   0  0  0  0  0  0  0  0  0  0  0  0
   -0.9824   -1.7098   -2.0898 H   0  0  0  0  0  0  0  0  0  0  0  0
    0.8983    0.2603   -2.3389 H   0  0  0  0  0  0  0  0  0  0  0  0
   -0.1927    0.9534   -1.0506 H   0  0  0  0  0  0  0  0  0  0  0  0
   -0.8668    0.4009   -2.5116 H   0  0  0  0  0  0  0  0  0  0  0  0
   -0.9315   -1.2132   -8.0196 H   0  0  0  0  0  0  0  0  0  0  0  0
    0.5303    2.6470   -3.3003 H   0  0  0  0  0  0  0  0  0  0  0  0
   -3.7920    3.0676   -5.4378 H   0  0  0  0  0  0  0  0  0  0  0  0
   -3.9985    4.6236   -2.3928 H   0  0  0  0  0  0  0  0  0  0  0  0
   -3.1460    6.7297   -3.7739 H   0  0  0  0  0  0  0  0  0  0  0  0
   -0.7539    5.7870   -4.6943 H   0  0  0  0  0  0  0  0  0  0  0  0
    0.7547    6.1454   -2.5726 H   0  0  0  0  0  0  0  0  0  0  0  0
   -0.7841    5.4822   -0.4827 H   0  0  0  0  0  0  0  0  0  0  0  0
   -1.7900    7.5335   -1.6717 H   0  0  0  0  0  0  0  0  0  0  0  0
   -3.1463    6.3669   -1.1058 H   0  0  0  0  0  0  0  0  0  0  0  0
   -2.2537    3.4945   -1.1728 H   0  0  0  0  0  0  0  0  0  0  0  0
  1  2  2  3
  2  3  1  0
  3  4  2  0
  3  5  1  0
  5  6  2  0
  6  7  1  0
  7  8  1  0
  7  9  2  0
  9 10  1  0
  9 11  1  0
 11 12  2  0
 12 13  1  0
 13 14  2  3
 14 15  1  0
 15 16  3  0
 14 17  1  0
 17 18  3  0
  1 19  1  0
 19 20  2  0
 20 21  1  0
 21 22  1  0
 20 23  1  0
 23 24  1  0
 24 25  1  0
 25 26  1  0
 26 27  1  0
 27 28  1  0
 28 29  2  0
 29 30  1  0
 30 31  1  0
 28 32  1  0
 32 33  1  0
 33 34  1  0
 34 35  1  0
 35 36  1  0
 36 37  1  0
 37 38  1  0
 36 39  2  0
 39 40  1  0
 40 41  1  0
 41 42  1  0
 42 43  1  0
 43 44  1  0
 44 45  1  0
 45 46  1  0
 46 47  1  0
 47 48  1  0
 48 49  1  0
 46 50  1  0
 50 51  1  0
 43 52  1  0
 52 53  1  0
 39 54  1  0
 54 55  2  3
 55 56  1  0
 56 57  2  0
 56 58  1  0
 58 59  2  0
 59 60  1  0
 60 61  2  0
 61 62  1  0
 62 63  2  0
 63 64  1  0
 64 65  2  3
 65 66  1  0
 66 67  3  0
 65 68  1  0
 68 69  3  0
 61 70  1  0
 70 71  1  0
 71 72  1  0
 72 73  2  0
 73 74  1  0
 74 75  1  0
 74 76  1  0
 13  2  1  0
 49 19  1  0
 64 55  1  0
 76 70  1  0
 12  5  1  0
 48 23  2  0
 63 58  1  0
 75 71  1  0
 47 25  2  0
 76 60  1  0
 45 26  2  0
 31 27  2  0
 44 32  2  0
 42 33  2  0
 41 35  2  0
  1 77  1  0
  6 78  1  0
 11 79  1  0
 21 80  1  0
 21 81  1  0
 22 82  1  0
 22 83  1  0
 22 84  1  0
 37 85  1  0
 37 86  1  0
 38 87  1  0
 38 88  1  0
 38 89  1  0
 50 90  1  0
 50 91  1  0
 51 92  1  0
 51 93  1  0
 51 94  1  0
 52 95  1  0
 52 96  1  0
 53 97  1  0
 53 98  1  0
 53 99  1  0
 54100  1  0
 59101  1  0
 62102  1  0
 70103  1  0
 71104  1  0
 72105  1  0
 73106  1  0
 74107  1  0
 75108  1  0
 75109  1  0
 76110  1  0
M  END

