
     RDKit          3D

 94105  0  0  0  0  0  0  0  0999 V2000
    5.2361   -5.0641   -2.4625 C   0  0  0  0  0  0  0  0  0  0  0  0
    5.8624   -3.7434   -3.0725 C   0  0  0  0  0  0  0  0  0  0  0  0
    6.0948   -2.7453   -2.1430 C   0  0  0  0  0  0  0  0  0  0  0  0
    6.2900   -2.7327   -0.8539 O   0  0  0  0  0  0  0  0  0  0  0  0
    6.0838   -1.4768   -2.7774 C   0  0  0  0  0  0  0  0  0  0  0  0
    6.1953   -0.1467   -2.7080 C   0  0  0  0  0  0  0  0  0  0  0  0
    6.2023    0.8507   -3.4073 C   0  0  0  0  0  0  0  0  0  0  0  0
    6.3139    2.5769   -3.1707 Cl  0  0  0  0  0  0  0  0  0  0  0  0
    6.0232    0.5742   -4.9857 C   0  0  0  0  0  0  0  0  0  0  0  0
    6.0203    1.4964   -5.7558 F   0  0  0  0  0  0  0  0  0  0  0  0
    5.8797   -0.8588   -5.0098 C   0  0  0  0  0  0  0  0  0  0  0  0
    5.8640   -1.7994   -4.2301 C   0  0  0  0  0  0  0  0  0  0  0  0
    5.7156   -3.5535   -4.2476 C   0  0  0  0  0  0  0  0  0  0  0  0
    5.6844   -3.5295   -5.6355 C   0  0  0  0  0  0  0  0  0  0  0  0
    6.2973   -4.3302   -6.6129 C   0  0  0  0  0  0  0  0  0  0  0  0
    6.7602   -4.9360   -7.3707 N   0  0  0  0  0  0  0  0  0  0  0  0
    4.5355   -2.8453   -6.0672 C   0  0  0  0  0  0  0  0  0  0  0  0
    3.4260   -2.1572   -6.4904 N   0  0  0  0  0  0  0  0  0  0  0  0
    5.0430   -4.8108   -1.1614 C   0  0  0  0  0  0  0  0  0  0  0  0
    4.9239   -4.6043    0.2552 C   0  0  0  0  0  0  0  0  0  0  0  0
    6.0397   -5.4221    0.8855 C   0  0  0  0  0  0  0  0  0  0  0  0
    5.6588   -6.8520    1.0555 C   0  0  0  0  0  0  0  0  0  0  0  0
    4.0058   -3.8819    0.2463 C   0  0  0  0  0  0  0  0  0  0  0  0
    4.4225   -2.6522    2.0924 S   0  0  0  0  0  0  0  0  0  0  0  0
    2.8664   -1.8586    1.9752 C   0  0  0  0  0  0  0  0  0  0  0  0
    2.0847   -0.8873    2.5313 C   0  0  0  0  0  0  0  0  0  0  0  0
    2.4441    0.0660    3.4583 C   0  0  0  0  0  0  0  0  0  0  0  0
    1.7163    1.1804    3.7343 C   0  0  0  0  0  0  0  0  0  0  0  0
    1.9925    2.0382    4.6105 N   0  0  0  0  0  0  0  0  0  0  0  0
    3.6476    1.2157    5.3889 Se  0  0  0  0  0  2  0  0  0  0  0  0
    3.5570   -0.0801    4.2971 N   0  0  0  0  0  0  0  0  0  0  0  0
    0.4705    1.2462    2.9820 C   0  0  0  0  0  0  0  0  0  0  0  0
   -0.5485    2.1417    2.9725 C   0  0  0  0  0  0  0  0  0  0  0  0
   -1.0265    3.6376    3.5836 S   0  0  0  0  0  0  0  0  0  0  0  0
   -2.5492    3.7900    2.7689 C   0  0  0  0  0  0  0  0  0  0  0  0
   -3.6548    4.4948    2.6016 C   0  0  0  0  0  0  0  0  0  0  0  0
   -3.4663    6.0508    3.2289 C   0  0  0  0  0  0  0  0  0  0  0  0
   -2.7048    6.7518    2.1276 C   0  0  0  0  0  0  0  0  0  0  0  0
   -4.6795    4.4013    2.0181 C   0  0  0  0  0  0  0  0  0  0  0  0
   -4.1732    2.7125    1.2670 S   0  0  0  0  0  0  0  0  0  0  0  0
   -2.4679    2.7680    2.2031 C   0  0  0  0  0  0  0  0  0  0  0  0
   -1.7167    1.6175    1.9307 C   0  0  0  0  0  0  0  0  0  0  0  0
   -0.9788    0.5802    1.7025 N   0  0  0  0  0  0  0  0  0  0  0  0
    0.1296    0.2323    2.0963 C   0  0  0  0  0  0  0  0  0  0  0  0
    0.9366   -0.8683    1.7813 C   0  0  0  0  0  0  0  0  0  0  0  0
    1.0560   -1.7810    0.7895 N   0  0  0  0  0  0  0  0  0  0  0  0
    2.2375   -2.4393    0.8548 C   0  0  0  0  0  0  0  0  0  0  0  0
    3.2280   -3.2167    0.5535 C   0  0  0  0  0  0  0  0  0  0  0  0
    3.3828   -3.6065   -1.5012 S   0  0  0  0  0  0  0  0  0  0  0  0
    0.1585   -1.9936   -0.3397 C   0  0  0  0  0  0  0  0  0  0  0  0
   -0.7079   -3.1912   -0.2517 C   0  0  0  0  0  0  0  0  0  0  0  0
   -1.9924   -0.5513    1.1858 C   0  0  0  0  0  0  0  0  0  0  0  0
   -2.8972   -0.7349    2.5210 C   0  0  0  0  0  0  0  0  0  0  0  0
   -6.0204    4.7818    1.4869 C   0  0  0  0  0  0  0  0  0  0  0  0
   -6.9999    3.9601    1.7980 C   0  0  0  0  0  0  0  0  0  0  0  0
   -6.9575    2.7479    2.6090 C   0  0  0  0  0  0  0  0  0  0  0  0
   -5.9268    2.1860    3.0861 O   0  0  0  0  0  0  0  0  0  0  0  0
   -8.2923    2.2871    2.7798 C   0  0  0  0  0  0  0  0  0  0  0  0
   -9.1817    1.2470    3.4070 C   0  0  0  0  0  0  0  0  0  0  0  0
  -10.2627    1.1947    3.3538 C   0  0  0  0  0  0  0  0  0  0  0  0
  -11.5529    0.0479    4.1132 Cl  0  0  0  0  0  0  0  0  0  0  0  0
  -10.8075    2.5697    2.3546 S   0  0  0  0  0  0  0  0  0  0  0  0
   -9.1844    3.1550    2.0759 C   0  0  0  0  0  0  0  0  0  0  0  0
   -8.4510    4.2077    1.4456 C   0  0  0  0  0  0  0  0  0  0  0  0
   -8.8423    4.9654    0.3902 C   0  0  0  0  0  0  0  0  0  0  0  0
   -7.8604    5.5058   -0.4609 C   0  0  0  0  0  0  0  0  0  0  0  0
   -6.9403    5.9881   -1.2548 N   0  0  0  0  0  0  0  0  0  0  0  0
  -10.2107    5.0979    0.1614 C   0  0  0  0  0  0  0  0  0  0  0  0
  -11.4067    5.2057   -0.0445 N   0  0  0  0  0  0  0  0  0  0  0  0
    5.1803   -5.7523   -3.1626 H   0  0  0  0  0  0  0  0  0  0  0  0
    6.3280    0.1501   -1.5247 H   0  0  0  0  0  0  0  0  0  0  0  0
    5.8154   -1.0634   -6.1910 H   0  0  0  0  0  0  0  0  0  0  0  0
    6.9695   -5.4386    0.1757 H   0  0  0  0  0  0  0  0  0  0  0  0
    6.4388   -4.9558    1.7764 H   0  0  0  0  0  0  0  0  0  0  0  0
    4.8794   -7.1311    0.2978 H   0  0  0  0  0  0  0  0  0  0  0  0
    5.2920   -7.0470    2.0909 H   0  0  0  0  0  0  0  0  0  0  0  0
    6.5262   -7.5691    0.9151 H   0  0  0  0  0  0  0  0  0  0  0  0
   -4.4428    6.4211    3.3171 H   0  0  0  0  0  0  0  0  0  0  0  0
   -2.8995    5.9331    4.1297 H   0  0  0  0  0  0  0  0  0  0  0  0
   -2.4402    5.9498    1.3685 H   0  0  0  0  0  0  0  0  0  0  0  0
   -3.3607    7.4950    1.6685 H   0  0  0  0  0  0  0  0  0  0  0  0
   -1.7152    7.1259    2.4764 H   0  0  0  0  0  0  0  0  0  0  0  0
   -0.3088   -1.0610   -0.7744 H   0  0  0  0  0  0  0  0  0  0  0  0
    0.8614   -2.2451   -1.2701 H   0  0  0  0  0  0  0  0  0  0  0  0
   -1.7097   -2.9079   -0.7090 H   0  0  0  0  0  0  0  0  0  0  0  0
   -0.7703   -3.5843    0.7685 H   0  0  0  0  0  0  0  0  0  0  0  0
   -0.3576   -4.0619   -0.8899 H   0  0  0  0  0  0  0  0  0  0  0  0
   -1.4684   -1.4423    1.2854 H   0  0  0  0  0  0  0  0  0  0  0  0
   -2.5297   -0.1313    0.4662 H   0  0  0  0  0  0  0  0  0  0  0  0
   -3.6307    0.1010    2.5209 H   0  0  0  0  0  0  0  0  0  0  0  0
   -2.2182   -0.5409    3.3698 H   0  0  0  0  0  0  0  0  0  0  0  0
   -3.2766   -1.7170    2.5451 H   0  0  0  0  0  0  0  0  0  0  0  0
   -6.0507    5.6990    0.9772 H   0  0  0  0  0  0  0  0  0  0  0  0
   -8.4306    0.4919    4.0063 H   0  0  0  0  0  0  0  0  0  0  0  0
  1  2  2  3
  2  3  1  0
  3  4  2  0
  3  5  1  0
  5  6  2  0
  6  7  1  0
  7  8  1  0
  7  9  2  0
  9 10  1  0
  9 11  1  0
 11 12  2  0
 12 13  1  0
 13 14  2  3
 14 15  1  0
 15 16  3  0
 14 17  1  0
 17 18  3  0
  1 19  1  0
 19 20  2  0
 20 21  1  0
 21 22  1  0
 20 23  1  0
 23 24  1  0
 24 25  1  0
 25 26  1  0
 26 27  1  0
 27 28  1  0
 28 29  2  0
 29 30  1  0
 30 31  1  0
 28 32  1  0
 32 33  1  0
 33 34  1  0
 34 35  1  0
 35 36  1  0
 36 37  1  0
 37 38  1  0
 36 39  2  0
 39 40  1  0
 40 41  1  0
 41 42  1  0
 42 43  1  0
 43 44  1  0
 44 45  1  0
 45 46  1  0
 46 47  1  0
 47 48  1  0
 48 49  1  0
 46 50  1  0
 50 51  1  0
 43 52  1  0
 52 53  1  0
 39 54  1  0
 54 55  2  3
 55 56  1  0
 56 57  2  0
 56 58  1  0
 58 59  1  0
 59 60  2  0
 60 61  1  0
 60 62  1  0
 62 63  1  0
 63 64  1  0
 64 65  2  3
 65 66  1  0
 66 67  3  0
 65 68  1  0
 68 69  3  0
 13  2  1  0
 49 19  1  0
 64 55  1  0
 12  5  1  0
 48 23  2  0
 63 58  2  0
 47 25  2  0
 45 26  2  0
 31 27  2  0
 44 32  2  0
 42 33  2  0
 41 35  2  0
  1 70  1  0
  6 71  1  0
 11 72  1  0
 21 73  1  0
 21 74  1  0
 22 75  1  0
 22 76  1  0
 22 77  1  0
 37 78  1  0
 37 79  1  0
 38 80  1  0
 38 81  1  0
 38 82  1  0
 50 83  1  0
 50 84  1  0
 51 85  1  0
 51 86  1  0
 51 87  1  0
 52 88  1  0
 52 89  1  0
 53 90  1  0
 53 91  1  0
 53 92  1  0
 54 93  1  0
 59 94  1  0
M  END

