
     RDKit          3D

138152  0  0  0  0  0  0  0  0999 V2000
   -1.7489   -3.8990   -7.4716 C   0  0  0  0  0  0  0  0  0  0  0  0
   -1.4550   -3.6129   -8.7600 C   0  0  0  0  0  0  0  0  0  0  0  0
   -1.3298   -2.2665   -9.3492 C   0  0  0  0  0  0  0  0  0  0  0  0
   -1.7627   -1.1891   -8.8558 O   0  0  0  0  0  0  0  0  0  0  0  0
   -0.7433   -2.3932  -10.6679 C   0  0  0  0  0  0  0  0  0  0  0  0
   -0.3445   -1.3733  -11.5395 C   0  0  0  0  0  0  0  0  0  0  0  0
    0.2908   -1.7320  -12.7374 C   0  0  0  0  0  0  0  0  0  0  0  0
    0.7324   -0.4889  -13.8863 Cl  0  0  0  0  0  0  0  0  0  0  0  0
    0.5914   -3.0863  -13.0013 C   0  0  0  0  0  0  0  0  0  0  0  0
    1.2707   -3.4275  -14.1252 F   0  0  0  0  0  0  0  0  0  0  0  0
    0.2069   -4.0854  -12.0903 C   0  0  0  0  0  0  0  0  0  0  0  0
   -0.5294   -3.7287  -10.9457 C   0  0  0  0  0  0  0  0  0  0  0  0
   -1.0870   -4.5737   -9.8513 C   0  0  0  0  0  0  0  0  0  0  0  0
   -1.4451   -5.8838   -9.9698 C   0  0  0  0  0  0  0  0  0  0  0  0
   -1.2702   -6.6187  -11.2012 C   0  0  0  0  0  0  0  0  0  0  0  0
   -1.1470   -7.1887  -12.1999 N   0  0  0  0  0  0  0  0  0  0  0  0
   -2.1638   -6.5966   -8.9477 C   0  0  0  0  0  0  0  0  0  0  0  0
   -2.7685   -7.1881   -8.1560 N   0  0  0  0  0  0  0  0  0  0  0  0
   -1.8471   -2.8787   -6.4047 C   0  0  0  0  0  0  0  0  0  0  0  0
   -0.7064   -1.6401   -6.1477 S   0  0  0  0  0  0  0  0  0  0  0  0
   -1.5154   -1.0710   -4.7962 C   0  0  0  0  0  0  0  0  0  0  0  0
   -1.2772   -0.1245   -3.7644 C   0  0  0  0  0  0  0  0  0  0  0  0
   -2.2608   -0.2433   -2.8053 C   0  0  0  0  0  0  0  0  0  0  0  0
   -3.0870   -1.5293   -3.0544 C   0  0  0  0  0  0  0  0  0  0  0  0
   -2.5814   -1.8429   -4.4655 C   0  0  0  0  0  0  0  0  0  0  0  0
   -2.7766   -2.9099   -5.3505 C   0  0  0  0  0  0  0  0  0  0  0  0
   -4.5998   -1.2924   -2.9615 C   0  0  0  0  0  0  0  0  0  0  0  0
   -5.4178   -1.1627   -4.1055 C   0  0  0  0  0  0  0  0  0  0  0  0
   -6.8180   -1.1561   -3.9922 C   0  0  0  0  0  0  0  0  0  0  0  0
   -7.4361   -1.2376   -2.7340 C   0  0  0  0  0  0  0  0  0  0  0  0
   -8.9346   -1.3309   -2.6151 C   0  0  0  0  0  0  0  0  0  0  0  0
   -9.6528   -0.1178   -3.2144 C   0  0  0  0  0  0  0  0  0  0  0  0
   -6.6276   -1.3143   -1.5892 C   0  0  0  0  0  0  0  0  0  0  0  0
   -5.2303   -1.3484   -1.7023 C   0  0  0  0  0  0  0  0  0  0  0  0
   -2.6484   -2.7326   -2.1824 C   0  0  0  0  0  0  0  0  0  0  0  0
   -3.3877   -3.9361   -2.2375 C   0  0  0  0  0  0  0  0  0  0  0  0
   -2.9563   -5.0810   -1.5651 C   0  0  0  0  0  0  0  0  0  0  0  0
   -1.7740   -5.0567   -0.8206 C   0  0  0  0  0  0  0  0  0  0  0  0
   -1.2874   -6.2946   -0.1076 C   0  0  0  0  0  0  0  0  0  0  0  0
   -0.1326   -6.9348   -0.8760 C   0  0  0  0  0  0  0  0  0  0  0  0
   -1.0181   -3.8727   -0.7644 C   0  0  0  0  0  0  0  0  0  0  0  0
   -1.4423   -2.7327   -1.4490 C   0  0  0  0  0  0  0  0  0  0  0  0
   -1.9402    0.5060   -1.6560 C   0  0  0  0  0  0  0  0  0  0  0  0
   -2.7693    0.8379   -0.5690 C   0  0  0  0  0  0  0  0  0  0  0  0
   -2.2145    1.6482    0.4385 C   0  0  0  0  0  0  0  0  0  0  0  0
   -2.9954    2.3310    1.7938 S   0  0  0  0  0  0  0  0  0  0  0  0
   -1.5896    3.0876    2.3318 C   0  0  0  0  0  0  0  0  0  0  0  0
   -1.1097    3.6294    3.5747 C   0  0  0  0  0  0  0  0  0  0  0  0
    0.2500    3.5831    3.5797 C   0  0  0  0  0  0  0  0  0  0  0  0
    0.8070    2.8700    2.3552 C   0  0  0  0  0  0  0  0  0  0  0  0
    1.8390    3.6935    1.5770 C   0  0  0  0  0  0  0  0  0  0  0  0
    2.8425    3.0644    0.8144 C   0  0  0  0  0  0  0  0  0  0  0  0
    3.7574    3.8158    0.0727 C   0  0  0  0  0  0  0  0  0  0  0  0
    3.6825    5.2145    0.0611 C   0  0  0  0  0  0  0  0  0  0  0  0
    4.6500    6.0153   -0.7645 C   0  0  0  0  0  0  0  0  0  0  0  0
    4.1757    6.1091   -2.2151 C   0  0  0  0  0  0  0  0  0  0  0  0
    2.6523    5.8503    0.7692 C   0  0  0  0  0  0  0  0  0  0  0  0
    1.7384    5.0961    1.5171 C   0  0  0  0  0  0  0  0  0  0  0  0
    1.3230    1.5182    2.8885 C   0  0  0  0  0  0  0  0  0  0  0  0
    0.4462    0.4226    3.0642 C   0  0  0  0  0  0  0  0  0  0  0  0
    0.8157   -0.6798    3.8376 C   0  0  0  0  0  0  0  0  0  0  0  0
    2.0751   -0.7267    4.4541 C   0  0  0  0  0  0  0  0  0  0  0  0
    2.4148   -1.8631    5.3766 C   0  0  0  0  0  0  0  0  0  0  0  0
    2.6175   -3.1673    4.6157 C   0  0  0  0  0  0  0  0  0  0  0  0
    2.9650    0.3373    4.2639 C   0  0  0  0  0  0  0  0  0  0  0  0
    2.5899    1.4508    3.5060 C   0  0  0  0  0  0  0  0  0  0  0  0
   -0.4985    2.7471    1.5667 C   0  0  0  0  0  0  0  0  0  0  0  0
   -0.8483    1.9988    0.4364 C   0  0  0  0  0  0  0  0  0  0  0  0
   -0.0314    1.6871   -0.6536 C   0  0  0  0  0  0  0  0  0  0  0  0
   -0.6204    0.9997   -1.7159 C   0  0  0  0  0  0  0  0  0  0  0  0
    0.1042    0.6478   -3.2051 S   0  0  0  0  0  0  0  0  0  0  0  0
    0.8217    3.9839    4.7876 C   0  0  0  0  0  0  0  0  0  0  0  0
   -0.1638    4.3663    5.7108 C   0  0  0  0  0  0  0  0  0  0  0  0
   -1.7178    4.1846    5.0275 S   0  0  0  0  0  0  0  0  0  0  0  0
    0.0977    4.9860    7.0219 C   0  0  0  0  0  0  0  0  0  0  0  0
    1.0613    4.5873    7.8769 C   0  0  0  0  0  0  0  0  0  0  0  0
    1.6246    3.2344    7.9513 C   0  0  0  0  0  0  0  0  0  0  0  0
    1.4182    2.2853    7.1408 O   0  0  0  0  0  0  0  0  0  0  0  0
    2.3492    3.1093    9.2095 C   0  0  0  0  0  0  0  0  0  0  0  0
    3.0470    2.0025    9.6957 C   0  0  0  0  0  0  0  0  0  0  0  0
    3.7342    2.1271   10.9117 C   0  0  0  0  0  0  0  0  0  0  0  0
    4.4439    1.0785   11.4005 F   0  0  0  0  0  0  0  0  0  0  0  0
    3.7066    3.3426   11.6163 C   0  0  0  0  0  0  0  0  0  0  0  0
    4.4303    3.4756   12.7638 F   0  0  0  0  0  0  0  0  0  0  0  0
    2.9749    4.4338   11.1232 C   0  0  0  0  0  0  0  0  0  0  0  0
    2.2720    4.3010    9.9117 C   0  0  0  0  0  0  0  0  0  0  0  0
    1.5041    5.3024    9.1123 C   0  0  0  0  0  0  0  0  0  0  0  0
    1.3958    6.6356    9.3462 C   0  0  0  0  0  0  0  0  0  0  0  0
    1.0411    7.5547    8.2951 C   0  0  0  0  0  0  0  0  0  0  0  0
    0.7949    8.2815    7.4283 N   0  0  0  0  0  0  0  0  0  0  0  0
    1.7390    7.2472   10.5972 C   0  0  0  0  0  0  0  0  0  0  0  0
    2.0198    7.7470   11.6044 N   0  0  0  0  0  0  0  0  0  0  0  0
   -1.8612   -4.9130   -7.1350 H   0  0  0  0  0  0  0  0  0  0  0  0
   -0.5156   -0.3360  -11.2818 H   0  0  0  0  0  0  0  0  0  0  0  0
    0.4995   -5.1056  -12.2830 H   0  0  0  0  0  0  0  0  0  0  0  0
   -3.5063   -3.6918   -5.2070 H   0  0  0  0  0  0  0  0  0  0  0  0
   -4.9987   -1.1268   -5.1025 H   0  0  0  0  0  0  0  0  0  0  0  0
   -7.4162   -1.1118   -4.8914 H   0  0  0  0  0  0  0  0  0  0  0  0
   -9.2379   -1.4163   -1.5497 H   0  0  0  0  0  0  0  0  0  0  0  0
   -9.2835   -2.2553   -3.1276 H   0  0  0  0  0  0  0  0  0  0  0  0
   -9.2831    0.8285   -2.7580 H   0  0  0  0  0  0  0  0  0  0  0  0
  -10.7431   -0.2043   -3.0169 H   0  0  0  0  0  0  0  0  0  0  0  0
   -9.5066   -0.0805   -4.3185 H   0  0  0  0  0  0  0  0  0  0  0  0
   -7.0731   -1.3874   -0.6021 H   0  0  0  0  0  0  0  0  0  0  0  0
   -4.6518   -1.4906   -0.7971 H   0  0  0  0  0  0  0  0  0  0  0  0
   -4.2866   -3.9995   -2.8404 H   0  0  0  0  0  0  0  0  0  0  0  0
   -3.5524   -5.9820   -1.6354 H   0  0  0  0  0  0  0  0  0  0  0  0
   -0.9436   -6.0348    0.9132 H   0  0  0  0  0  0  0  0  0  0  0  0
   -2.1102   -7.0330    0.0021 H   0  0  0  0  0  0  0  0  0  0  0  0
    0.7438   -6.2501   -0.8967 H   0  0  0  0  0  0  0  0  0  0  0  0
    0.1684   -7.8820   -0.3743 H   0  0  0  0  0  0  0  0  0  0  0  0
   -0.4346   -7.1784   -1.9232 H   0  0  0  0  0  0  0  0  0  0  0  0
   -0.0995   -3.8391   -0.1891 H   0  0  0  0  0  0  0  0  0  0  0  0
   -0.7998   -1.8657   -1.3985 H   0  0  0  0  0  0  0  0  0  0  0  0
   -3.8114    0.5713   -0.5390 H   0  0  0  0  0  0  0  0  0  0  0  0
    2.9285    1.9832    0.7867 H   0  0  0  0  0  0  0  0  0  0  0  0
    4.5253    3.3014   -0.4945 H   0  0  0  0  0  0  0  0  0  0  0  0
    5.6562    5.5349   -0.7481 H   0  0  0  0  0  0  0  0  0  0  0  0
    4.7616    7.0412   -0.3486 H   0  0  0  0  0  0  0  0  0  0  0  0
    3.1797    6.5954   -2.2600 H   0  0  0  0  0  0  0  0  0  0  0  0
    4.1056    5.1006   -2.6622 H   0  0  0  0  0  0  0  0  0  0  0  0
    4.8886    6.7146   -2.8018 H   0  0  0  0  0  0  0  0  0  0  0  0
    2.5517    6.9300    0.7517 H   0  0  0  0  0  0  0  0  0  0  0  0
    0.9523    5.6176    2.0452 H   0  0  0  0  0  0  0  0  0  0  0  0
   -0.5450    0.4189    2.6474 H   0  0  0  0  0  0  0  0  0  0  0  0
    0.1011   -1.4797    3.9903 H   0  0  0  0  0  0  0  0  0  0  0  0
    1.5928   -1.9942    6.1165 H   0  0  0  0  0  0  0  0  0  0  0  0
    3.3433   -1.6362    5.9547 H   0  0  0  0  0  0  0  0  0  0  0  0
    3.4738   -3.0739    3.9149 H   0  0  0  0  0  0  0  0  0  0  0  0
    1.6986   -3.4354    4.0485 H   0  0  0  0  0  0  0  0  0  0  0  0
    2.8443   -3.9843    5.3342 H   0  0  0  0  0  0  0  0  0  0  0  0
    3.9384    0.3335    4.7411 H   0  0  0  0  0  0  0  0  0  0  0  0
    3.2858    2.2864    3.4489 H   0  0  0  0  0  0  0  0  0  0  0  0
    0.9861    2.0261   -0.7298 H   0  0  0  0  0  0  0  0  0  0  0  0
    1.8869    3.9779    4.9879 H   0  0  0  0  0  0  0  0  0  0  0  0
   -0.5209    5.8359    7.2725 H   0  0  0  0  0  0  0  0  0  0  0  0
    3.0870    1.0826    9.1299 H   0  0  0  0  0  0  0  0  0  0  0  0
    3.0267    5.3562   11.6790 H   0  0  0  0  0  0  0  0  0  0  0  0
  1  2  2  3
  2  3  1  0
  3  4  2  0
  3  5  1  0
  5  6  2  0
  6  7  1  0
  7  8  1  0
  7  9  2  0
  9 10  1  0
  9 11  1  0
 11 12  2  0
 12 13  1  0
 13 14  2  3
 14 15  1  0
 15 16  3  0
 14 17  1  0
 17 18  3  0
  1 19  1  0
 19 20  1  0
 20 21  1  0
 21 22  1  0
 22 23  2  0
 23 24  1  0
 24 25  1  0
 25 26  1  0
 24 27  1  0
 27 28  2  0
 28 29  1  0
 29 30  2  0
 30 31  1  0
 31 32  1  0
 30 33  1  0
 33 34  2  0
 24 35  1  0
 35 36  2  0
 36 37  1  0
 37 38  2  0
 38 39  1  0
 39 40  1  0
 38 41  1  0
 41 42  2  0
 23 43  1  0
 43 44  2  0
 44 45  1  0
 45 46  1  0
 46 47  1  0
 47 48  1  0
 48 49  2  0
 49 50  1  0
 50 51  1  0
 51 52  2  0
 52 53  1  0
 53 54  2  0
 54 55  1  0
 55 56  1  0
 54 57  1  0
 57 58  2  0
 50 59  1  0
 59 60  2  0
 60 61  1  0
 61 62  2  0
 62 63  1  0
 63 64  1  0
 62 65  1  0
 65 66  2  0
 50 67  1  0
 67 68  1  0
 68 69  1  0
 69 70  2  0
 70 71  1  0
 49 72  1  0
 72 73  2  0
 73 74  1  0
 73 75  1  0
 75 76  2  3
 76 77  1  0
 77 78  2  0
 77 79  1  0
 79 80  2  0
 80 81  1  0
 81 82  1  0
 81 83  2  0
 83 84  1  0
 83 85  1  0
 85 86  2  0
 86 87  1  0
 87 88  2  3
 88 89  1  0
 89 90  3  0
 88 91  1  0
 91 92  3  0
 13  2  1  0
 26 19  2  0
 34 27  1  0
 42 35  1  0
 70 43  1  0
 87 76  1  0
 12  5  1  0
 25 21  2  0
 68 45  2  0
 86 79  1  0
 71 22  1  0
 67 47  2  0
 74 48  1  0
 58 51  1  0
 66 59  1  0
  1 93  1  0
  6 94  1  0
 11 95  1  0
 26 96  1  0
 28 97  1  0
 29 98  1  0
 31 99  1  0
 31100  1  0
 32101  1  0
 32102  1  0
 32103  1  0
 33104  1  0
 34105  1  0
 36106  1  0
 37107  1  0
 39108  1  0
 39109  1  0
 40110  1  0
 40111  1  0
 40112  1  0
 41113  1  0
 42114  1  0
 44115  1  0
 52116  1  0
 53117  1  0
 55118  1  0
 55119  1  0
 56120  1  0
 56121  1  0
 56122  1  0
 57123  1  0
 58124  1  0
 60125  1  0
 61126  1  0
 63127  1  0
 63128  1  0
 64129  1  0
 64130  1  0
 64131  1  0
 65132  1  0
 66133  1  0
 69134  1  0
 72135  1  0
 75136  1  0
 80137  1  0
 85138  1  0
M  END

