
     RDKit          3D

 88 99  0  0  0  0  0  0  0  0999 V2000
   -0.6544    2.8998    5.7948 C   0  0  0  0  0  0  0  0  0  0  0  0
   -1.4685    2.6607    6.8402 C   0  0  0  0  0  0  0  0  0  0  0  0
   -1.5530    3.5704    7.9834 C   0  0  0  0  0  0  0  0  0  0  0  0
   -1.1737    4.7722    8.0058 O   0  0  0  0  0  0  0  0  0  0  0  0
   -2.0453    2.8226    9.1215 C   0  0  0  0  0  0  0  0  0  0  0  0
   -2.1455    3.2353   10.4501 C   0  0  0  0  0  0  0  0  0  0  0  0
   -2.5435    2.2966   11.4130 C   0  0  0  0  0  0  0  0  0  0  0  0
   -2.6798    2.7831   13.0941 Cl  0  0  0  0  0  0  0  0  0  0  0  0
   -2.8033    0.9640   11.0350 C   0  0  0  0  0  0  0  0  0  0  0  0
   -3.1415    0.0446   11.9739 F   0  0  0  0  0  0  0  0  0  0  0  0
   -2.6901    0.5692    9.6910 C   0  0  0  0  0  0  0  0  0  0  0  0
   -2.3346    1.5261    8.7285 C   0  0  0  0  0  0  0  0  0  0  0  0
   -2.1427    1.3937    7.2582 C   0  0  0  0  0  0  0  0  0  0  0  0
   -2.7758    0.5045    6.4523 C   0  0  0  0  0  0  0  0  0  0  0  0
   -3.5079   -0.6208    6.9715 C   0  0  0  0  0  0  0  0  0  0  0  0
   -4.1020   -1.5283    7.3751 N   0  0  0  0  0  0  0  0  0  0  0  0
   -2.9262    0.7206    5.0380 C   0  0  0  0  0  0  0  0  0  0  0  0
   -3.0651    0.8780    3.9014 N   0  0  0  0  0  0  0  0  0  0  0  0
   -0.1762    1.8887    4.8381 C   0  0  0  0  0  0  0  0  0  0  0  0
    0.4964    0.6801    5.1340 C   0  0  0  0  0  0  0  0  0  0  0  0
    1.0119    0.2724    6.4881 C   0  0  0  0  0  0  0  0  0  0  0  0
    2.3820    0.8889    6.7486 C   0  0  0  0  0  0  0  0  0  0  0  0
    0.8540    0.0209    3.9559 C   0  0  0  0  0  0  0  0  0  0  0  0
    0.5147    0.6783    2.8026 C   0  0  0  0  0  0  0  0  0  0  0  0
   -0.2230    2.1389    3.1508 S   0  0  0  0  0  0  0  0  0  0  0  0
    0.9364    0.0149    1.6644 C   0  0  0  0  0  0  0  0  0  0  0  0
    1.6136   -1.1225    1.9591 C   0  0  0  0  0  0  0  0  0  0  0  0
    1.7630   -1.3883    3.6296 S   0  0  0  0  0  0  0  0  0  0  0  0
    2.1928   -1.5527    0.8001 C   0  0  0  0  0  0  0  0  0  0  0  0
    3.1662   -2.5251    0.5471 C   0  0  0  0  0  0  0  0  0  0  0  0
    3.6527   -3.3809    1.4794 N   0  0  0  0  0  0  0  0  0  0  0  0
    4.7149   -4.2398    0.5405 S   0  0  0  0  0  0  0  0  0  0  0  0
    4.6162   -3.6078   -0.9878 N   0  0  0  0  0  0  0  0  0  0  0  0
    3.6931   -2.6374   -0.7750 C   0  0  0  0  0  0  0  0  0  0  0  0
    3.2020   -1.7819   -1.7719 C   0  0  0  0  0  0  0  0  0  0  0  0
    3.3198   -1.8388   -3.1318 C   0  0  0  0  0  0  0  0  0  0  0  0
    3.9601   -2.9264   -4.2711 S   0  0  0  0  0  0  0  0  0  0  0  0
    2.9626   -2.2748   -5.4854 C   0  0  0  0  0  0  0  0  0  0  0  0
    2.7540   -2.6139   -6.8180 C   0  0  0  0  0  0  0  0  0  0  0  0
    1.6914   -1.8764   -7.3565 C   0  0  0  0  0  0  0  0  0  0  0  0
    1.0601   -0.8031   -6.1839 S   0  0  0  0  0  0  0  0  0  0  0  0
    2.1326   -1.2997   -4.9939 C   0  0  0  0  0  0  0  0  0  0  0  0
    2.3524   -1.0340   -3.6482 C   0  0  0  0  0  0  0  0  0  0  0  0
    1.6121   -0.4125   -2.6919 N   0  0  0  0  0  0  0  0  0  0  0  0
    0.2174    0.0153   -2.8909 C   0  0  0  0  0  0  0  0  0  0  0  0
    0.1315    1.3040   -3.7196 C   0  0  0  0  0  0  0  0  0  0  0  0
    2.1934   -0.8362   -1.5211 C   0  0  0  0  0  0  0  0  0  0  0  0
    1.7548   -0.6574   -0.1876 C   0  0  0  0  0  0  0  0  0  0  0  0
    1.0474    0.3773    0.3637 N   0  0  0  0  0  0  0  0  0  0  0  0
    1.0398    1.7708   -0.0979 C   0  0  0  0  0  0  0  0  0  0  0  0
    2.2627    2.5279    0.4201 C   0  0  0  0  0  0  0  0  0  0  0  0
    1.3117   -1.8944   -8.7767 C   0  0  0  0  0  0  0  0  0  0  0  0
    0.0422   -1.9022   -9.2231 C   0  0  0  0  0  0  0  0  0  0  0  0
   -1.1495   -2.2904   -8.4352 C   0  0  0  0  0  0  0  0  0  0  0  0
   -1.2028   -2.5178   -7.1989 O   0  0  0  0  0  0  0  0  0  0  0  0
   -2.2273   -2.5233   -9.3699 C   0  0  0  0  0  0  0  0  0  0  0  0
   -1.7992   -2.2948  -10.6556 C   0  0  0  0  0  0  0  0  0  0  0  0
   -2.7597   -2.5383  -11.6338 C   0  0  0  0  0  0  0  0  0  0  0  0
   -4.1481   -3.0599  -10.8109 S   0  0  0  0  0  0  0  0  0  0  0  0
   -3.5282   -2.9701   -9.2424 C   0  0  0  0  0  0  0  0  0  0  0  0
   -4.3726   -3.3884   -7.7671 Cl  0  0  0  0  0  0  0  0  0  0  0  0
   -0.3913   -1.8388  -10.6604 C   0  0  0  0  0  0  0  0  0  0  0  0
    0.2735   -1.2943  -11.7080 C   0  0  0  0  0  0  0  0  0  0  0  0
   -0.2883   -1.2613  -13.0334 C   0  0  0  0  0  0  0  0  0  0  0  0
   -0.7291   -1.2288  -14.1035 N   0  0  0  0  0  0  0  0  0  0  0  0
    1.5262   -0.6017  -11.5434 C   0  0  0  0  0  0  0  0  0  0  0  0
    2.5295   -0.0371  -11.4099 N   0  0  0  0  0  0  0  0  0  0  0  0
   -0.2637    3.9018    5.6622 H   0  0  0  0  0  0  0  0  0  0  0  0
   -1.9079    4.2546   10.7296 H   0  0  0  0  0  0  0  0  0  0  0  0
   -2.8413   -0.4683    9.4379 H   0  0  0  0  0  0  0  0  0  0  0  0
    0.3233    0.5862    7.2937 H   0  0  0  0  0  0  0  0  0  0  0  0
    1.0938   -0.8337    6.5386 H   0  0  0  0  0  0  0  0  0  0  0  0
    3.1119    0.5459    5.9836 H   0  0  0  0  0  0  0  0  0  0  0  0
    2.3139    1.9976    6.7264 H   0  0  0  0  0  0  0  0  0  0  0  0
    2.7480    0.5764    7.7504 H   0  0  0  0  0  0  0  0  0  0  0  0
    3.3271   -3.3583   -7.3561 H   0  0  0  0  0  0  0  0  0  0  0  0
   -0.3327   -0.7953   -3.4174 H   0  0  0  0  0  0  0  0  0  0  0  0
   -0.3082    0.1518   -1.9243 H   0  0  0  0  0  0  0  0  0  0  0  0
    1.0661    1.4812   -4.2953 H   0  0  0  0  0  0  0  0  0  0  0  0
   -0.7166    1.2342   -4.4344 H   0  0  0  0  0  0  0  0  0  0  0  0
   -0.0563    2.1853   -3.0724 H   0  0  0  0  0  0  0  0  0  0  0  0
    0.1096    2.2735    0.2385 H   0  0  0  0  0  0  0  0  0  0  0  0
    1.0811    1.8209   -1.1944 H   0  0  0  0  0  0  0  0  0  0  0  0
    2.3476    2.4416    1.5221 H   0  0  0  0  0  0  0  0  0  0  0  0
    3.1863    2.1153   -0.0475 H   0  0  0  0  0  0  0  0  0  0  0  0
    2.1777    3.5987    0.1570 H   0  0  0  0  0  0  0  0  0  0  0  0
    2.1282   -1.9429   -9.4829 H   0  0  0  0  0  0  0  0  0  0  0  0
   -2.6569   -2.4430  -12.7044 H   0  0  0  0  0  0  0  0  0  0  0  0
  1  2  2  3
  2  3  1  0
  3  4  2  0
  3  5  1  0
  5  6  2  0
  6  7  1  0
  7  8  1  0
  7  9  2  0
  9 10  1  0
  9 11  1  0
 11 12  2  0
 12 13  1  0
 13 14  2  3
 14 15  1  0
 15 16  3  0
 14 17  1  0
 17 18  3  0
  1 19  1  0
 19 20  2  0
 20 21  1  0
 21 22  1  0
 20 23  1  0
 23 24  2  0
 24 25  1  0
 24 26  1  0
 26 27  2  0
 27 28  1  0
 27 29  1  0
 29 30  1  0
 30 31  2  0
 31 32  1  0
 32 33  1  0
 33 34  2  0
 34 35  1  0
 35 36  1  0
 36 37  1  0
 37 38  1  0
 38 39  1  0
 39 40  2  0
 40 41  1  0
 41 42  1  0
 42 43  1  0
 43 44  1  0
 44 45  1  0
 45 46  1  0
 44 47  1  0
 47 48  1  0
 48 49  1  0
 49 50  1  0
 50 51  1  0
 40 52  1  0
 52 53  2  3
 53 54  1  0
 54 55  2  0
 54 56  1  0
 56 57  1  0
 57 58  2  0
 58 59  1  0
 59 60  1  0
 60 61  1  0
 57 62  1  0
 62 63  2  3
 63 64  1  0
 64 65  3  0
 63 66  1  0
 66 67  3  0
 13  2  1  0
 25 19  1  0
 49 26  1  0
 62 53  1  0
 12  5  1  0
 28 23  1  0
 48 29  2  0
 60 56  2  0
 34 30  1  0
 47 35  2  0
 43 36  2  0
 42 38  2  0
  1 68  1  0
  6 69  1  0
 11 70  1  0
 21 71  1  0
 21 72  1  0
 22 73  1  0
 22 74  1  0
 22 75  1  0
 39 76  1  0
 45 77  1  0
 45 78  1  0
 46 79  1  0
 46 80  1  0
 46 81  1  0
 50 82  1  0
 50 83  1  0
 51 84  1  0
 51 85  1  0
 51 86  1  0
 52 87  1  0
 58 88  1  0
M  END

