
     RDKit          3D

 98112  0  0  0  0  0  0  0  0999 V2000
   -6.0157   -3.6002    5.7615 C   0  0  0  0  0  0  0  0  0  0  0  0
   -5.9710   -2.8276    6.8306 C   0  0  0  0  0  0  0  0  0  0  0  0
   -4.9423   -1.9811    7.2911 C   0  0  0  0  0  0  0  0  0  0  0  0
   -3.6451   -2.1388    7.0832 O   0  0  0  0  0  0  0  0  0  0  0  0
   -5.4648   -0.8468    8.0391 C   0  0  0  0  0  0  0  0  0  0  0  0
   -4.8022    0.2088    8.5848 C   0  0  0  0  0  0  0  0  0  0  0  0
   -5.4935    1.2360    9.2177 C   0  0  0  0  0  0  0  0  0  0  0  0
   -4.7562    2.6275    9.9240 Cl  0  0  0  0  0  0  0  0  0  0  0  0
   -6.8553    1.1212    9.2544 C   0  0  0  0  0  0  0  0  0  0  0  0
   -7.5914    2.1456    9.8524 F   0  0  0  0  0  0  0  0  0  0  0  0
   -7.5334    0.0704    8.7042 C   0  0  0  0  0  0  0  0  0  0  0  0
   -6.8722   -0.9613    8.0677 C   0  0  0  0  0  0  0  0  0  0  0  0
   -7.2660   -2.1766    7.3522 C   0  0  0  0  0  0  0  0  0  0  0  0
   -8.4452   -2.6919    7.3351 C   0  0  0  0  0  0  0  0  0  0  0  0
   -9.6303   -2.0419    7.7991 C   0  0  0  0  0  0  0  0  0  0  0  0
  -10.5630   -1.5139    8.1527 N   0  0  0  0  0  0  0  0  0  0  0  0
   -8.6362   -4.0706    7.0006 C   0  0  0  0  0  0  0  0  0  0  0  0
   -8.7928   -5.2536    6.6990 N   0  0  0  0  0  0  0  0  0  0  0  0
   -4.9847   -3.7396    4.7832 C   0  0  0  0  0  0  0  0  0  0  0  0
   -4.5008   -4.5261    3.8375 C   0  0  0  0  0  0  0  0  0  0  0  0
   -3.6981   -4.1360    2.8259 C   0  0  0  0  0  0  0  0  0  0  0  0
   -3.2490   -4.9357    1.2525 S   0  0  0  0  0  0  0  0  0  0  0  0
   -2.5362   -3.5497    0.5346 C   0  0  0  0  0  0  0  0  0  0  0  0
   -2.0109   -2.9613   -0.6410 C   0  0  0  0  0  0  0  0  0  0  0  0
   -1.7652   -3.4906   -1.9026 C   0  0  0  0  0  0  0  0  0  0  0  0
   -1.3221   -2.6521   -2.9063 C   0  0  0  0  0  0  0  0  0  0  0  0
   -1.1151   -3.2234   -4.0977 N   0  0  0  0  0  0  0  0  0  0  0  0
   -1.5135   -4.8305   -3.8686 S   0  0  0  0  0  0  0  0  0  0  0  0
   -1.9366   -4.7724   -2.2570 N   0  0  0  0  0  0  0  0  0  0  0  0
   -1.1468   -1.3098   -2.5837 C   0  0  0  0  0  0  0  0  0  0  0  0
   -0.8113   -0.2530   -3.3664 C   0  0  0  0  0  0  0  0  0  0  0  0
   -0.8233    0.9509   -2.7016 C   0  0  0  0  0  0  0  0  0  0  0  0
   -1.2005    0.5945   -1.4002 N   0  0  0  0  0  0  0  0  0  0  0  0
   -1.6228    1.5812   -0.4698 C   0  0  0  0  0  0  0  0  0  0  0  0
   -3.1650    1.6515   -0.3976 C   0  0  0  0  0  0  0  0  0  0  0  0
   -1.3788   -0.7320   -1.3443 C   0  0  0  0  0  0  0  0  0  0  0  0
   -1.8023   -1.6446   -0.3587 C   0  0  0  0  0  0  0  0  0  0  0  0
   -2.1559   -1.4233    0.9037 N   0  0  0  0  0  0  0  0  0  0  0  0
   -2.6364   -2.5643    1.4928 C   0  0  0  0  0  0  0  0  0  0  0  0
   -3.2273   -2.9914    2.5679 C   0  0  0  0  0  0  0  0  0  0  0  0
   -4.1016   -1.9940    4.1995 Se  0  0  0  0  0  2  0  0  0  0  0  0
   -1.6447   -0.3396    1.7897 C   0  0  0  0  0  0  0  0  0  0  0  0
   -0.7065   -1.0731    2.8546 C   0  0  0  0  0  0  0  0  0  0  0  0
   -0.4042    1.9165   -3.4382 C   0  0  0  0  0  0  0  0  0  0  0  0
    0.0012    1.9287   -4.6366 C   0  0  0  0  0  0  0  0  0  0  0  0
   -0.2202    0.1781   -4.9553 S   0  0  0  0  0  0  0  0  0  0  0  0
    0.5884    2.9178   -5.3314 C   0  0  0  0  0  0  0  0  0  0  0  0
    0.8633    4.1450   -4.7620 C   0  0  0  0  0  0  0  0  0  0  0  0
    0.1856    3.9569   -3.0371 Se  0  0  0  0  0  2  0  0  0  0  0  0
    1.8243    5.1497   -5.2842 C   0  0  0  0  0  0  0  0  0  0  0  0
    3.0738    4.7931   -4.8294 C   0  0  0  0  0  0  0  0  0  0  0  0
    3.3002    3.6349   -3.9462 C   0  0  0  0  0  0  0  0  0  0  0  0
    2.4760    2.9834   -3.2628 O   0  0  0  0  0  0  0  0  0  0  0  0
    4.7327    3.2778   -3.9153 C   0  0  0  0  0  0  0  0  0  0  0  0
    5.4108    2.3080   -3.2100 C   0  0  0  0  0  0  0  0  0  0  0  0
    6.7568    2.2016   -3.3069 C   0  0  0  0  0  0  0  0  0  0  0  0
    7.4640    3.0490   -4.1250 C   0  0  0  0  0  0  0  0  0  0  0  0
    6.7388    4.0468   -4.8426 C   0  0  0  0  0  0  0  0  0  0  0  0
    5.3981    4.1731   -4.7463 C   0  0  0  0  0  0  0  0  0  0  0  0
    4.3731    5.1302   -5.3181 C   0  0  0  0  0  0  0  0  0  0  0  0
    4.8239    6.2418   -5.9297 C   0  0  0  0  0  0  0  0  0  0  0  0
    6.0577    6.4476   -6.3793 C   0  0  0  0  0  0  0  0  0  0  0  0
    7.2373    6.6470   -6.8288 N   0  0  0  0  0  0  0  0  0  0  0  0
    3.9425    7.3109   -6.1357 C   0  0  0  0  0  0  0  0  0  0  0  0
    3.1089    8.3275   -6.3151 N   0  0  0  0  0  0  0  0  0  0  0  0
    8.7818    2.3878   -3.9776 C   0  0  0  0  0  0  0  0  0  0  0  0
    9.0155    1.2882   -5.0381 C   0  0  0  0  0  0  0  0  0  0  0  0
    7.7212    0.7745   -5.4163 C   0  0  0  0  0  0  0  0  0  0  0  0
    7.3140   -0.1005   -4.4106 C   0  0  0  0  0  0  0  0  0  0  0  0
    8.2332    0.1835   -3.2473 C   0  0  0  0  0  0  0  0  0  0  0  0
    9.5245    0.2043   -4.0444 C   0  0  0  0  0  0  0  0  0  0  0  0
    8.0658    1.6083   -2.8840 C   0  0  0  0  0  0  0  0  0  0  0  0
   -6.8908   -4.1832    5.5806 H   0  0  0  0  0  0  0  0  0  0  0  0
   -3.6924    0.2967    8.5706 H   0  0  0  0  0  0  0  0  0  0  0  0
   -8.6063    0.0746    8.7863 H   0  0  0  0  0  0  0  0  0  0  0  0
   -4.8007   -5.6456    3.9952 H   0  0  0  0  0  0  0  0  0  0  0  0
   -1.2173    1.7916    0.4960 H   0  0  0  0  0  0  0  0  0  0  0  0
   -1.4274    2.6424   -1.0163 H   0  0  0  0  0  0  0  0  0  0  0  0
   -3.5721    2.3311   -1.1580 H   0  0  0  0  0  0  0  0  0  0  0  0
   -3.5740    0.5999   -0.4067 H   0  0  0  0  0  0  0  0  0  0  0  0
   -3.4158    2.0414    0.6420 H   0  0  0  0  0  0  0  0  0  0  0  0
   -0.8091    0.1310    1.2315 H   0  0  0  0  0  0  0  0  0  0  0  0
   -2.2969    0.2677    2.2887 H   0  0  0  0  0  0  0  0  0  0  0  0
   -0.2734   -1.8850    2.2414 H   0  0  0  0  0  0  0  0  0  0  0  0
   -1.2714   -1.5398    3.6103 H   0  0  0  0  0  0  0  0  0  0  0  0
    0.0353   -0.3339    3.1793 H   0  0  0  0  0  0  0  0  0  0  0  0
    0.9221    2.8579   -6.4379 H   0  0  0  0  0  0  0  0  0  0  0  0
    1.6323    5.9864   -5.8715 H   0  0  0  0  0  0  0  0  0  0  0  0
    4.9229    1.6213   -2.5672 H   0  0  0  0  0  0  0  0  0  0  0  0
    7.3321    4.6830   -5.4929 H   0  0  0  0  0  0  0  0  0  0  0  0
    9.6116    3.0081   -3.6708 H   0  0  0  0  0  0  0  0  0  0  0  0
    9.7777    1.5185   -5.7599 H   0  0  0  0  0  0  0  0  0  0  0  0
    7.1074    1.0302   -6.3098 H   0  0  0  0  0  0  0  0  0  0  0  0
    6.5406   -0.7735   -4.4563 H   0  0  0  0  0  0  0  0  0  0  0  0
    8.1776   -0.5572   -2.4833 H   0  0  0  0  0  0  0  0  0  0  0  0
    9.7201   -0.7704   -4.5467 H   0  0  0  0  0  0  0  0  0  0  0  0
   10.3688    0.5997   -3.4596 H   0  0  0  0  0  0  0  0  0  0  0  0
    8.2832    1.9122   -1.8270 H   0  0  0  0  0  0  0  0  0  0  0  0
  1  2  2  3
  2  3  1  0
  3  4  2  0
  3  5  1  0
  5  6  2  0
  6  7  1  0
  7  8  1  0
  7  9  2  0
  9 10  1  0
  9 11  1  0
 11 12  2  0
 12 13  1  0
 13 14  2  3
 14 15  1  0
 15 16  3  0
 14 17  1  0
 17 18  3  0
  1 19  1  0
 19 20  2  0
 20 21  1  0
 21 22  1  0
 22 23  1  0
 23 24  1  0
 24 25  1  0
 25 26  1  0
 26 27  2  0
 27 28  1  0
 28 29  1  0
 26 30  1  0
 30 31  1  0
 31 32  2  0
 32 33  1  0
 33 34  1  0
 34 35  1  0
 33 36  1  0
 36 37  1  0
 37 38  1  0
 38 39  1  0
 39 40  1  0
 40 41  1  0
 38 42  1  0
 42 43  1  0
 32 44  1  0
 44 45  2  0
 45 46  1  0
 45 47  1  0
 47 48  2  0
 48 49  1  0
 48 50  1  0
 50 51  2  3
 51 52  1  0
 52 53  2  0
 52 54  1  0
 54 55  2  0
 55 56  1  0
 56 57  2  0
 57 58  1  0
 58 59  2  0
 59 60  1  0
 60 61  2  3
 61 62  1  0
 62 63  3  0
 61 64  1  0
 64 65  3  0
 57 66  1  0
 66 67  1  0
 67 68  1  0
 68 69  2  0
 69 70  1  0
 70 71  1  0
 70 72  1  0
 13  2  1  0
 41 19  1  0
 49 44  1  0
 60 51  1  0
 72 66  1  0
 12  5  1  0
 40 21  2  0
 59 54  1  0
 71 67  1  0
 39 23  2  0
 72 56  1  0
 37 24  2  0
 29 25  2  0
 36 30  2  0
 46 31  1  0
  1 73  1  0
  6 74  1  0
 11 75  1  0
 20 76  1  0
 34 77  1  0
 34 78  1  0
 35 79  1  0
 35 80  1  0
 35 81  1  0
 42 82  1  0
 42 83  1  0
 43 84  1  0
 43 85  1  0
 43 86  1  0
 47 87  1  0
 50 88  1  0
 55 89  1  0
 58 90  1  0
 66 91  1  0
 67 92  1  0
 68 93  1  0
 69 94  1  0
 70 95  1  0
 71 96  1  0
 71 97  1  0
 72 98  1  0
M  END

