
     RDKit          3D

 98109  0  0  0  0  0  0  0  0999 V2000
   -7.0383    4.2026   -2.5296 C   0  0  0  0  0  0  0  0  0  0  0  0
   -6.4675    5.3754   -2.9347 C   0  0  0  0  0  0  0  0  0  0  0  0
   -5.0430    5.6283   -3.0819 C   0  0  0  0  0  0  0  0  0  0  0  0
   -4.0835    4.9155   -2.6767 O   0  0  0  0  0  0  0  0  0  0  0  0
   -4.7663    6.8713   -3.7809 C   0  0  0  0  0  0  0  0  0  0  0  0
   -3.5560    7.4553   -4.1654 C   0  0  0  0  0  0  0  0  0  0  0  0
   -3.5409    8.6197   -4.8694 C   0  0  0  0  0  0  0  0  0  0  0  0
   -2.0102    9.3397   -5.4039 Cl  0  0  0  0  0  0  0  0  0  0  0  0
   -4.7442    9.1811   -5.1717 C   0  0  0  0  0  0  0  0  0  0  0  0
   -4.7523   10.3484   -5.9012 F   0  0  0  0  0  0  0  0  0  0  0  0
   -5.9673    8.6064   -4.7887 C   0  0  0  0  0  0  0  0  0  0  0  0
   -5.9969    7.4110   -4.0672 C   0  0  0  0  0  0  0  0  0  0  0  0
   -7.0850    6.5401   -3.5746 C   0  0  0  0  0  0  0  0  0  0  0  0
   -8.3813    6.7494   -3.7389 C   0  0  0  0  0  0  0  0  0  0  0  0
   -8.7768    7.9523   -4.3772 C   0  0  0  0  0  0  0  0  0  0  0  0
   -9.1094    9.0181   -4.9247 N   0  0  0  0  0  0  0  0  0  0  0  0
   -9.3187    5.8564   -3.2577 C   0  0  0  0  0  0  0  0  0  0  0  0
  -10.1705    5.0465   -2.8093 N   0  0  0  0  0  0  0  0  0  0  0  0
   -5.9394    3.1707   -2.3013 C   0  0  0  0  0  0  0  0  0  0  0  0
   -5.2526    2.7258   -3.4212 C   0  0  0  0  0  0  0  0  0  0  0  0
   -5.8355    2.9548   -4.8137 C   0  0  0  0  0  0  0  0  0  0  0  0
   -6.9540    1.9187   -4.9886 C   0  0  0  0  0  0  0  0  0  0  0  0
   -4.1339    1.9803   -3.2111 C   0  0  0  0  0  0  0  0  0  0  0  0
   -2.8253    1.3912   -4.2082 S   0  0  0  0  0  0  0  0  0  0  0  0
   -1.8694    0.8011   -2.9419 C   0  0  0  0  0  0  0  0  0  0  0  0
   -0.6657    0.1826   -2.6940 C   0  0  0  0  0  0  0  0  0  0  0  0
    0.3462   -0.1154   -3.5843 C   0  0  0  0  0  0  0  0  0  0  0  0
    1.4998   -0.5996   -3.0801 C   0  0  0  0  0  0  0  0  0  0  0  0
    2.5371   -0.9158   -3.8184 N   0  0  0  0  0  0  0  0  0  0  0  0
    1.5867   -0.3656   -5.7492 Se  0  0  0  0  0  2  0  0  0  0  0  0
    0.2772    0.0433   -4.9042 N   0  0  0  0  0  0  0  0  0  0  0  0
    1.5027   -0.7610   -1.6873 C   0  0  0  0  0  0  0  0  0  0  0  0
    2.4677   -1.3850   -0.9402 C   0  0  0  0  0  0  0  0  0  0  0  0
    3.9771   -2.1231   -1.0614 S   0  0  0  0  0  0  0  0  0  0  0  0
    4.1083   -2.6201    0.6087 C   0  0  0  0  0  0  0  0  0  0  0  0
    4.9852   -3.4108    1.2869 C   0  0  0  0  0  0  0  0  0  0  0  0
    6.2748   -3.8244    0.5956 C   0  0  0  0  0  0  0  0  0  0  0  0
    7.2267   -2.6407    0.6943 C   0  0  0  0  0  0  0  0  0  0  0  0
    4.6618   -3.7528    2.5959 C   0  0  0  0  0  0  0  0  0  0  0  0
    3.1797   -2.9243    2.7697 S   0  0  0  0  0  0  0  0  0  0  0  0
    3.0172   -2.1957    1.1711 C   0  0  0  0  0  0  0  0  0  0  0  0
    2.1075   -1.5235    0.3793 C   0  0  0  0  0  0  0  0  0  0  0  0
    0.8399   -0.9158    0.4246 N   0  0  0  0  0  0  0  0  0  0  0  0
    0.5207   -0.4880   -0.7926 C   0  0  0  0  0  0  0  0  0  0  0  0
   -0.6462    0.0406   -1.3285 C   0  0  0  0  0  0  0  0  0  0  0  0
   -1.7367    0.5453   -0.7890 N   0  0  0  0  0  0  0  0  0  0  0  0
   -2.5622    1.0574   -1.8036 C   0  0  0  0  0  0  0  0  0  0  0  0
   -3.7721    1.6979   -1.9845 C   0  0  0  0  0  0  0  0  0  0  0  0
   -5.0631    2.5251   -1.0641 S   0  0  0  0  0  0  0  0  0  0  0  0
   -2.1615    0.6604    0.5677 C   0  0  0  0  0  0  0  0  0  0  0  0
   -3.1247   -0.4617    0.8975 C   0  0  0  0  0  0  0  0  0  0  0  0
    0.1231   -0.9127    1.6432 C   0  0  0  0  0  0  0  0  0  0  0  0
    0.6891    0.2262    2.4864 C   0  0  0  0  0  0  0  0  0  0  0  0
    5.3653   -4.7159    3.3858 C   0  0  0  0  0  0  0  0  0  0  0  0
    6.2497   -5.5131    3.8783 C   0  0  0  0  0  0  0  0  0  0  0  0
    7.6689   -5.6151    3.3378 C   0  0  0  0  0  0  0  0  0  0  0  0
    8.2910   -4.6810    2.7401 O   0  0  0  0  0  0  0  0  0  0  0  0
    8.2335   -6.9130    3.6122 C   0  0  0  0  0  0  0  0  0  0  0  0
    9.4210   -7.4982    3.2608 C   0  0  0  0  0  0  0  0  0  0  0  0
   10.4018   -6.7685    2.5587 O   0  0  0  0  0  0  0  0  0  0  0  0
    9.7366   -8.8145    3.5671 C   0  0  0  0  0  0  0  0  0  0  0  0
    8.7760   -9.5532    4.2651 C   0  0  0  0  0  0  0  0  0  0  0  0
    7.5888   -8.9324    4.6045 C   0  0  0  0  0  0  0  0  0  0  0  0
    7.2725   -7.6486    4.3127 C   0  0  0  0  0  0  0  0  0  0  0  0
    6.0623   -6.7508    4.4767 C   0  0  0  0  0  0  0  0  0  0  0  0
    5.3114   -7.1009    5.5957 C   0  0  0  0  0  0  0  0  0  0  0  0
    4.6232   -5.9407    6.2074 C   0  0  0  0  0  0  0  0  0  0  0  0
    4.1067   -5.0708    6.6873 N   0  0  0  0  0  0  0  0  0  0  0  0
    5.1127   -8.3730    6.1113 C   0  0  0  0  0  0  0  0  0  0  0  0
    4.9523   -9.3492    6.5077 N   0  0  0  0  0  0  0  0  0  0  0  0
   -7.9807    3.9791   -2.3771 H   0  0  0  0  0  0  0  0  0  0  0  0
   -2.6164    6.9720   -3.9012 H   0  0  0  0  0  0  0  0  0  0  0  0
   -6.8301    9.1140   -5.0720 H   0  0  0  0  0  0  0  0  0  0  0  0
   -5.1252    2.7999   -5.6090 H   0  0  0  0  0  0  0  0  0  0  0  0
   -6.2502    3.9643   -4.9207 H   0  0  0  0  0  0  0  0  0  0  0  0
   -6.4880    0.9275   -5.2007 H   0  0  0  0  0  0  0  0  0  0  0  0
   -7.5902    1.8432   -4.1016 H   0  0  0  0  0  0  0  0  0  0  0  0
   -7.5047    2.1858   -5.8963 H   0  0  0  0  0  0  0  0  0  0  0  0
    6.6649   -4.7778    0.8920 H   0  0  0  0  0  0  0  0  0  0  0  0
    6.1137   -3.9586   -0.5174 H   0  0  0  0  0  0  0  0  0  0  0  0
    6.7585   -1.7862    0.1484 H   0  0  0  0  0  0  0  0  0  0  0  0
    7.1953   -2.3527    1.7778 H   0  0  0  0  0  0  0  0  0  0  0  0
    8.2569   -2.8658    0.4061 H   0  0  0  0  0  0  0  0  0  0  0  0
   -2.9065    1.5810    0.6394 H   0  0  0  0  0  0  0  0  0  0  0  0
   -1.4597    1.0146    1.2731 H   0  0  0  0  0  0  0  0  0  0  0  0
   -4.1143   -0.2655    0.3748 H   0  0  0  0  0  0  0  0  0  0  0  0
   -3.4172   -0.5182    1.9441 H   0  0  0  0  0  0  0  0  0  0  0  0
   -2.8355   -1.4567    0.4492 H   0  0  0  0  0  0  0  0  0  0  0  0
    0.5016   -1.8530    2.2938 H   0  0  0  0  0  0  0  0  0  0  0  0
   -0.8893   -1.1387    1.7403 H   0  0  0  0  0  0  0  0  0  0  0  0
   -0.0575    0.8449    2.9684 H   0  0  0  0  0  0  0  0  0  0  0  0
    1.3452   -0.1867    3.3115 H   0  0  0  0  0  0  0  0  0  0  0  0
    1.3702    0.8547    1.8630 H   0  0  0  0  0  0  0  0  0  0  0  0
    5.4968   -5.5208    2.1782 H   0  0  0  0  0  0  0  0  0  0  0  0
   10.2008   -5.8232    2.3233 H   0  0  0  0  0  0  0  0  0  0  0  0
   10.6424   -9.3232    3.3078 H   0  0  0  0  0  0  0  0  0  0  0  0
    9.0014  -10.5966    4.5326 H   0  0  0  0  0  0  0  0  0  0  0  0
    6.9039   -9.5813    5.0991 H   0  0  0  0  0  0  0  0  0  0  0  0
  1  2  2  3
  2  3  1  0
  3  4  2  0
  3  5  1  0
  5  6  2  0
  6  7  1  0
  7  8  1  0
  7  9  2  0
  9 10  1  0
  9 11  1  0
 11 12  2  0
 12 13  1  0
 13 14  2  3
 14 15  1  0
 15 16  3  0
 14 17  1  0
 17 18  3  0
  1 19  1  0
 19 20  2  0
 20 21  1  0
 21 22  1  0
 20 23  1  0
 23 24  1  0
 24 25  1  0
 25 26  1  0
 26 27  1  0
 27 28  1  0
 28 29  2  0
 29 30  1  0
 30 31  1  0
 28 32  1  0
 32 33  1  0
 33 34  1  0
 34 35  1  0
 35 36  1  0
 36 37  1  0
 37 38  1  0
 36 39  2  0
 39 40  1  0
 40 41  1  0
 41 42  1  0
 42 43  1  0
 43 44  1  0
 44 45  1  0
 45 46  1  0
 46 47  1  0
 47 48  1  0
 48 49  1  0
 46 50  1  0
 50 51  1  0
 43 52  1  0
 52 53  1  0
 39 54  1  0
 54 55  2  3
 55 56  1  0
 56 57  2  0
 56 58  1  0
 58 59  2  0
 59 60  1  0
 59 61  1  0
 61 62  2  0
 62 63  1  0
 63 64  2  0
 64 65  1  0
 65 66  2  3
 66 67  1  0
 67 68  3  0
 66 69  1  0
 69 70  3  0
 13  2  1  0
 49 19  1  0
 65 55  1  0
 12  5  1  0
 48 23  2  0
 64 58  1  0
 47 25  2  0
 45 26  2  0
 31 27  2  0
 44 32  2  0
 42 33  2  0
 41 35  2  0
  1 71  1  0
  6 72  1  0
 11 73  1  0
 21 74  1  0
 21 75  1  0
 22 76  1  0
 22 77  1  0
 22 78  1  0
 37 79  1  0
 37 80  1  0
 38 81  1  0
 38 82  1  0
 38 83  1  0
 50 84  1  0
 50 85  1  0
 51 86  1  0
 51 87  1  0
 51 88  1  0
 52 89  1  0
 52 90  1  0
 53 91  1  0
 53 92  1  0
 53 93  1  0
 54 94  1  0
 60 95  1  0
 61 96  1  0
 62 97  1  0
 63 98  1  0
M  END

