
     RDKit          3D

 85 95  0  0  0  0  0  0  0  0999 V2000
   -1.7962    1.9577   -6.1885 C   0  0  0  0  0  0  0  0  0  0  0  0
   -2.9054    2.5120   -6.2863 C   0  0  0  0  0  0  0  0  0  0  0  0
   -3.0447    3.3228   -7.9073 C   0  0  0  0  0  0  0  0  0  0  0  0
   -2.1072    2.8955   -8.2986 O   0  0  0  0  0  0  0  0  0  0  0  0
   -4.2412    3.9293   -7.5459 C   0  0  0  0  0  0  0  0  0  0  0  0
   -4.8534    4.8742   -8.5271 C   0  0  0  0  0  0  0  0  0  0  0  0
   -5.9406    5.5536   -8.2684 C   0  0  0  0  0  0  0  0  0  0  0  0
   -6.6586    6.7245   -9.3715 Cl  0  0  0  0  0  0  0  0  0  0  0  0
   -6.5875    5.4170   -7.0550 C   0  0  0  0  0  0  0  0  0  0  0  0
   -7.7219    6.1527   -6.8205 F   0  0  0  0  0  0  0  0  0  0  0  0
   -6.0292    4.5501   -6.1630 C   0  0  0  0  0  0  0  0  0  0  0  0
   -4.8647    3.8148   -6.4135 C   0  0  0  0  0  0  0  0  0  0  0  0
   -4.0260    2.9044   -5.5978 C   0  0  0  0  0  0  0  0  0  0  0  0
   -4.4418    2.5823   -4.4008 C   0  0  0  0  0  0  0  0  0  0  0  0
   -5.5855    3.0394   -3.7755 C   0  0  0  0  0  0  0  0  0  0  0  0
   -6.6868    3.4820   -3.1989 N   0  0  0  0  0  0  0  0  0  0  0  0
   -4.0258    1.4366   -3.6040 C   0  0  0  0  0  0  0  0  0  0  0  0
   -3.6812    0.4727   -2.9358 N   0  0  0  0  0  0  0  0  0  0  0  0
   -1.0826    1.2026   -5.1685 C   0  0  0  0  0  0  0  0  0  0  0  0
   -0.0751    0.2668   -5.4280 C   0  0  0  0  0  0  0  0  0  0  0  0
    0.2418   -0.1328   -6.8532 C   0  0  0  0  0  0  0  0  0  0  0  0
   -0.8568   -1.0368   -7.4019 C   0  0  0  0  0  0  0  0  0  0  0  0
    0.5541   -0.2431   -4.3718 C   0  0  0  0  0  0  0  0  0  0  0  0
    1.8849   -1.3357   -4.0302 S   0  0  0  0  0  0  0  0  0  0  0  0
    1.9122   -1.2402   -2.3550 C   0  0  0  0  0  0  0  0  0  0  0  0
    2.4783   -1.7174   -1.1920 C   0  0  0  0  0  0  0  0  0  0  0  0
    3.6042   -2.6097   -0.9937 C   0  0  0  0  0  0  0  0  0  0  0  0
    3.8814   -2.8134    0.2948 C   0  0  0  0  0  0  0  0  0  0  0  0
    4.9972   -3.5959    0.5020 N   0  0  0  0  0  0  0  0  0  0  0  0
    5.7102   -4.0968   -0.9328 Se  0  0  0  0  0  2  0  0  0  0  0  0
    4.2351   -3.0488   -2.0016 N   0  0  0  0  0  0  0  0  0  0  0  0
    3.1617   -2.2635    1.3593 C   0  0  0  0  0  0  0  0  0  0  0  0
    3.2416   -2.5826    2.6919 C   0  0  0  0  0  0  0  0  0  0  0  0
    4.0170   -3.3934    3.9076 S   0  0  0  0  0  0  0  0  0  0  0  0
    3.0396   -2.9640    5.2670 C   0  0  0  0  0  0  0  0  0  0  0  0
    2.9000   -3.1723    6.6196 C   0  0  0  0  0  0  0  0  0  0  0  0
    3.9130   -4.1772    7.2767 C   0  0  0  0  0  0  0  0  0  0  0  0
    3.4843   -5.5644    6.8879 C   0  0  0  0  0  0  0  0  0  0  0  0
    1.9691   -2.6587    7.3131 C   0  0  0  0  0  0  0  0  0  0  0  0
    1.1080   -1.7637    6.0574 S   0  0  0  0  0  0  0  0  0  0  0  0
    2.1608   -2.2075    4.6899 C   0  0  0  0  0  0  0  0  0  0  0  0
    2.1460   -1.9240    3.3430 C   0  0  0  0  0  0  0  0  0  0  0  0
    1.4635   -1.2263    2.3790 N   0  0  0  0  0  0  0  0  0  0  0  0
    2.1118   -1.4457    1.1790 C   0  0  0  0  0  0  0  0  0  0  0  0
    1.7853   -1.1512   -0.1500 C   0  0  0  0  0  0  0  0  0  0  0  0
    0.8873   -0.3539   -0.6614 N   0  0  0  0  0  0  0  0  0  0  0  0
    0.8761   -0.3498   -2.0209 C   0  0  0  0  0  0  0  0  0  0  0  0
    0.2309    0.1153   -3.1337 C   0  0  0  0  0  0  0  0  0  0  0  0
   -1.0425    1.2532   -3.4903 S   0  0  0  0  0  0  0  0  0  0  0  0
    0.2386    0.7849    0.0313 C   0  0  0  0  0  0  0  0  0  0  0  0
    0.9653    2.0450   -0.6105 C   0  0  0  0  0  0  0  0  0  0  0  0
    0.1700   -0.6189    2.6381 C   0  0  0  0  0  0  0  0  0  0  0  0
   -1.0116   -1.4430    2.1323 C   0  0  0  0  0  0  0  0  0  0  0  0
    1.5156   -2.5608    8.7106 C   0  0  0  0  0  0  0  0  0  0  0  0
    1.9326   -2.7034    9.8980 C   0  0  0  0  0  0  0  0  0  0  0  0
    1.2555   -2.5238   11.0270 C   0  0  0  0  0  0  0  0  0  0  0  0
   -0.0869   -2.1034   10.7684 C   0  0  0  0  0  0  0  0  0  0  0  0
   -1.1087   -1.8217   11.7637 C   0  0  0  0  0  0  0  0  0  0  0  0
   -1.9230   -1.5823   12.5582 N   0  0  0  0  0  0  0  0  0  0  0  0
   -0.1488   -2.0533    9.0778 S   0  0  0  0  0  0  0  0  0  0  0  0
   -1.1462    1.8325   -7.1315 H   0  0  0  0  0  0  0  0  0  0  0  0
   -4.3211    4.9578   -9.4471 H   0  0  0  0  0  0  0  0  0  0  0  0
   -6.5491    4.4722   -5.2384 H   0  0  0  0  0  0  0  0  0  0  0  0
    1.1582   -0.7361   -6.9040 H   0  0  0  0  0  0  0  0  0  0  0  0
    0.3301    0.7160   -7.5113 H   0  0  0  0  0  0  0  0  0  0  0  0
   -1.3936   -1.4063   -6.5063 H   0  0  0  0  0  0  0  0  0  0  0  0
   -0.3937   -1.9039   -7.8879 H   0  0  0  0  0  0  0  0  0  0  0  0
   -1.5780   -0.4825   -8.0309 H   0  0  0  0  0  0  0  0  0  0  0  0
    3.8777   -4.0949    8.3383 H   0  0  0  0  0  0  0  0  0  0  0  0
    4.8839   -3.9291    6.7865 H   0  0  0  0  0  0  0  0  0  0  0  0
    3.3402   -6.2278    7.7222 H   0  0  0  0  0  0  0  0  0  0  0  0
    2.4559   -5.5540    6.3528 H   0  0  0  0  0  0  0  0  0  0  0  0
    4.1972   -5.9700    6.0996 H   0  0  0  0  0  0  0  0  0  0  0  0
   -0.7931    0.9158   -0.1438 H   0  0  0  0  0  0  0  0  0  0  0  0
    0.6761    0.8835    1.0041 H   0  0  0  0  0  0  0  0  0  0  0  0
    1.1959    2.7533    0.2236 H   0  0  0  0  0  0  0  0  0  0  0  0
    1.9631    1.6775   -1.0069 H   0  0  0  0  0  0  0  0  0  0  0  0
    0.3798    2.4900   -1.3964 H   0  0  0  0  0  0  0  0  0  0  0  0
    0.0844    0.4407    2.6973 H   0  0  0  0  0  0  0  0  0  0  0  0
    0.0016   -0.8102    3.7979 H   0  0  0  0  0  0  0  0  0  0  0  0
   -1.7672   -0.8073    1.5867 H   0  0  0  0  0  0  0  0  0  0  0  0
   -1.5868   -1.9162    2.9606 H   0  0  0  0  0  0  0  0  0  0  0  0
   -0.6795   -2.2587    1.4915 H   0  0  0  0  0  0  0  0  0  0  0  0
    3.0596   -3.0351   10.0703 H   0  0  0  0  0  0  0  0  0  0  0  0
    1.5396   -2.6477   12.0597 H   0  0  0  0  0  0  0  0  0  0  0  0
  1  2  2  3
  2  3  1  0
  3  4  2  0
  3  5  1  0
  5  6  2  0
  6  7  1  0
  7  8  1  0
  7  9  2  0
  9 10  1  0
  9 11  1  0
 11 12  2  0
 12 13  1  0
 13 14  2  3
 14 15  1  0
 15 16  3  0
 14 17  1  0
 17 18  3  0
  1 19  1  0
 19 20  2  0
 20 21  1  0
 21 22  1  0
 20 23  1  0
 23 24  1  0
 24 25  1  0
 25 26  1  0
 26 27  1  0
 27 28  1  0
 28 29  2  0
 29 30  1  0
 30 31  1  0
 28 32  1  0
 32 33  1  0
 33 34  1  0
 34 35  1  0
 35 36  1  0
 36 37  1  0
 37 38  1  0
 36 39  2  0
 39 40  1  0
 40 41  1  0
 41 42  1  0
 42 43  1  0
 43 44  1  0
 44 45  1  0
 45 46  1  0
 46 47  1  0
 47 48  1  0
 48 49  1  0
 46 50  1  0
 50 51  1  0
 43 52  1  0
 52 53  1  0
 39 54  1  0
 54 55  2  0
 55 56  1  0
 56 57  2  0
 57 58  1  0
 58 59  3  0
 57 60  1  0
 13  2  1  0
 49 19  1  0
 60 54  1  0
 12  5  1  0
 48 23  2  0
 47 25  2  0
 45 26  2  0
 31 27  2  0
 44 32  2  0
 42 33  2  0
 41 35  2  0
  1 61  1  0
  6 62  1  0
 11 63  1  0
 21 64  1  0
 21 65  1  0
 22 66  1  0
 22 67  1  0
 22 68  1  0
 37 69  1  0
 37 70  1  0
 38 71  1  0
 38 72  1  0
 38 73  1  0
 50 74  1  0
 50 75  1  0
 51 76  1  0
 51 77  1  0
 51 78  1  0
 52 79  1  0
 52 80  1  0
 53 81  1  0
 53 82  1  0
 53 83  1  0
 55 84  1  0
 56 85  1  0
M  END

