
     RDKit          3D

 97109  0  0  0  0  0  0  0  0999 V2000
   -1.7745    3.6164   -6.2052 C   0  0  0  0  0  0  0  0  0  0  0  0
   -0.7126    3.1034   -6.8502 C   0  0  0  0  0  0  0  0  0  0  0  0
   -0.1845    1.7401   -6.6707 C   0  0  0  0  0  0  0  0  0  0  0  0
   -0.4574    0.9408   -5.7353 O   0  0  0  0  0  0  0  0  0  0  0  0
    0.6807    1.4398   -7.7915 C   0  0  0  0  0  0  0  0  0  0  0  0
    1.3058    0.2306   -8.0930 C   0  0  0  0  0  0  0  0  0  0  0  0
    2.0294    0.1296   -9.2901 C   0  0  0  0  0  0  0  0  0  0  0  0
    2.8366   -1.3695   -9.6972 Cl  0  0  0  0  0  0  0  0  0  0  0  0
    2.1044    1.2322  -10.1669 C   0  0  0  0  0  0  0  0  0  0  0  0
    2.7800    1.1393  -11.3412 F   0  0  0  0  0  0  0  0  0  0  0  0
    1.4601    2.4401   -9.8441 C   0  0  0  0  0  0  0  0  0  0  0  0
    0.7646    2.5413   -8.6268 C   0  0  0  0  0  0  0  0  0  0  0  0
   -0.0152    3.6739   -8.0421 C   0  0  0  0  0  0  0  0  0  0  0  0
    0.1132    4.9913   -8.3497 C   0  0  0  0  0  0  0  0  0  0  0  0
   -0.4900    6.0292   -7.5541 C   0  0  0  0  0  0  0  0  0  0  0  0
   -0.9683    6.8710   -6.9197 N   0  0  0  0  0  0  0  0  0  0  0  0
    0.9645    5.4584   -9.4112 C   0  0  0  0  0  0  0  0  0  0  0  0
    1.6629    5.8381  -10.2557 N   0  0  0  0  0  0  0  0  0  0  0  0
   -2.3807    2.9588   -5.0416 C   0  0  0  0  0  0  0  0  0  0  0  0
   -3.5477    2.1756   -5.0610 C   0  0  0  0  0  0  0  0  0  0  0  0
   -4.4424    1.9956   -6.2547 C   0  0  0  0  0  0  0  0  0  0  0  0
   -5.4868    3.1054   -6.3056 C   0  0  0  0  0  0  0  0  0  0  0  0
   -3.7604    1.5775   -3.8159 C   0  0  0  0  0  0  0  0  0  0  0  0
   -2.8287    1.8927   -2.8542 C   0  0  0  0  0  0  0  0  0  0  0  0
   -1.6561    2.9026   -3.4981 S   0  0  0  0  0  0  0  0  0  0  0  0
   -2.9971    1.1578   -1.6914 C   0  0  0  0  0  0  0  0  0  0  0  0
   -4.0467    0.3066   -1.7821 C   0  0  0  0  0  0  0  0  0  0  0  0
   -4.8605    0.3917   -3.2703 S   0  0  0  0  0  0  0  0  0  0  0  0
   -4.1330   -0.3467   -0.5908 C   0  0  0  0  0  0  0  0  0  0  0  0
   -5.0632   -1.2677   -0.0974 C   0  0  0  0  0  0  0  0  0  0  0  0
   -6.1197   -1.7410   -0.8054 N   0  0  0  0  0  0  0  0  0  0  0  0
   -6.7640   -2.7732    0.3218 S   0  0  0  0  0  0  0  0  0  0  0  0
   -5.7986   -2.6727    1.6651 N   0  0  0  0  0  0  0  0  0  0  0  0
   -4.8960   -1.7593    1.2308 C   0  0  0  0  0  0  0  0  0  0  0  0
   -3.8038   -1.3145    1.9853 C   0  0  0  0  0  0  0  0  0  0  0  0
   -3.2615   -1.8246    3.1307 C   0  0  0  0  0  0  0  0  0  0  0  0
   -3.4753   -3.2300    4.0633 S   0  0  0  0  0  0  0  0  0  0  0  0
   -1.8883   -3.1055    4.6649 C   0  0  0  0  0  0  0  0  0  0  0  0
   -1.1284   -3.9007    5.5182 C   0  0  0  0  0  0  0  0  0  0  0  0
    0.1891   -3.4243    5.6091 C   0  0  0  0  0  0  0  0  0  0  0  0
    0.3515   -2.0063    4.6666 S   0  0  0  0  0  0  0  0  0  0  0  0
   -1.2272   -2.0421    4.1182 C   0  0  0  0  0  0  0  0  0  0  0  0
   -2.0115   -1.3063    3.2427 C   0  0  0  0  0  0  0  0  0  0  0  0
   -1.6912   -0.4726    2.2205 N   0  0  0  0  0  0  0  0  0  0  0  0
   -0.3106   -0.2701    1.7620 C   0  0  0  0  0  0  0  0  0  0  0  0
    0.1577   -1.4368    0.8926 C   0  0  0  0  0  0  0  0  0  0  0  0
   -2.8400   -0.4283    1.4658 C   0  0  0  0  0  0  0  0  0  0  0  0
   -3.0564    0.1307    0.1753 C   0  0  0  0  0  0  0  0  0  0  0  0
   -2.3822    1.1335   -0.4799 N   0  0  0  0  0  0  0  0  0  0  0  0
   -1.8205    2.3362    0.1566 C   0  0  0  0  0  0  0  0  0  0  0  0
   -0.4296    2.6826   -0.3814 C   0  0  0  0  0  0  0  0  0  0  0  0
    1.1829   -3.9441    6.5703 C   0  0  0  0  0  0  0  0  0  0  0  0
    2.5250   -3.9143    6.4084 C   0  0  0  0  0  0  0  0  0  0  0  0
    3.2574   -3.4406    5.2277 C   0  0  0  0  0  0  0  0  0  0  0  0
    2.8338   -3.4213    4.0410 O   0  0  0  0  0  0  0  0  0  0  0  0
    4.6146   -3.1337    5.6244 C   0  0  0  0  0  0  0  0  0  0  0  0
    5.6298   -2.5753    4.8499 C   0  0  0  0  0  0  0  0  0  0  0  0
    6.8709   -2.3212    5.4547 C   0  0  0  0  0  0  0  0  0  0  0  0
    7.9263   -1.7736    4.7090 C   0  0  0  0  0  0  0  0  0  0  0  0
    9.1576   -1.5158    5.3195 C   0  0  0  0  0  0  0  0  0  0  0  0
   10.1750   -0.9963    4.5887 F   0  0  0  0  0  0  0  0  0  0  0  0
    9.3447   -1.7926    6.6777 C   0  0  0  0  0  0  0  0  0  0  0  0
   10.5425   -1.5375    7.2650 F   0  0  0  0  0  0  0  0  0  0  0  0
    8.2980   -2.3342    7.4345 C   0  0  0  0  0  0  0  0  0  0  0  0
    7.0594   -2.6134    6.8357 C   0  0  0  0  0  0  0  0  0  0  0  0
    6.0089   -3.1764    7.5900 C   0  0  0  0  0  0  0  0  0  0  0  0
    4.7902   -3.4653    6.9571 C   0  0  0  0  0  0  0  0  0  0  0  0
    3.5486   -4.1039    7.4826 C   0  0  0  0  0  0  0  0  0  0  0  0
    3.4480   -4.9094    8.5737 C   0  0  0  0  0  0  0  0  0  0  0  0
    2.3208   -5.7791    8.7772 C   0  0  0  0  0  0  0  0  0  0  0  0
    1.4222   -6.4898    8.9387 N   0  0  0  0  0  0  0  0  0  0  0  0
    4.5166   -5.0711    9.5212 C   0  0  0  0  0  0  0  0  0  0  0  0
    5.3723   -5.2165   10.2884 N   0  0  0  0  0  0  0  0  0  0  0  0
   -2.2538    4.5121   -6.5650 H   0  0  0  0  0  0  0  0  0  0  0  0
    1.2095   -0.6176   -7.4304 H   0  0  0  0  0  0  0  0  0  0  0  0
    1.4845    3.2458  -10.5619 H   0  0  0  0  0  0  0  0  0  0  0  0
   -4.9577    1.0132   -6.2004 H   0  0  0  0  0  0  0  0  0  0  0  0
   -3.8429    2.0062   -7.1903 H   0  0  0  0  0  0  0  0  0  0  0  0
   -6.0970    3.0962   -5.3799 H   0  0  0  0  0  0  0  0  0  0  0  0
   -4.9889    4.0927   -6.4001 H   0  0  0  0  0  0  0  0  0  0  0  0
   -6.1570    2.9583   -7.1778 H   0  0  0  0  0  0  0  0  0  0  0  0
   -1.5021   -4.7687    6.0471 H   0  0  0  0  0  0  0  0  0  0  0  0
   -0.2059    0.6508    1.1833 H   0  0  0  0  0  0  0  0  0  0  0  0
    0.3673   -0.1487    2.6352 H   0  0  0  0  0  0  0  0  0  0  0  0
   -0.4712   -1.5007   -0.0240 H   0  0  0  0  0  0  0  0  0  0  0  0
    0.0839   -2.3965    1.4514 H   0  0  0  0  0  0  0  0  0  0  0  0
    1.2140   -1.2676    0.5944 H   0  0  0  0  0  0  0  0  0  0  0  0
   -2.5041    3.1972   -0.0057 H   0  0  0  0  0  0  0  0  0  0  0  0
   -1.7745    2.2050    1.2584 H   0  0  0  0  0  0  0  0  0  0  0  0
    0.0331    1.8056   -0.8925 H   0  0  0  0  0  0  0  0  0  0  0  0
   -0.4894    3.5340   -1.0900 H   0  0  0  0  0  0  0  0  0  0  0  0
    0.2289    3.0000    0.4568 H   0  0  0  0  0  0  0  0  0  0  0  0
    0.7640   -4.2682    7.5108 H   0  0  0  0  0  0  0  0  0  0  0  0
    5.4547   -2.3412    3.8047 H   0  0  0  0  0  0  0  0  0  0  0  0
    7.8014   -1.5428    3.6562 H   0  0  0  0  0  0  0  0  0  0  0  0
    8.4618   -2.5379    8.4848 H   0  0  0  0  0  0  0  0  0  0  0  0
    6.1543   -3.3517    8.6426 H   0  0  0  0  0  0  0  0  0  0  0  0
  1  2  2  3
  2  3  1  0
  3  4  2  0
  3  5  1  0
  5  6  2  0
  6  7  1  0
  7  8  1  0
  7  9  2  0
  9 10  1  0
  9 11  1  0
 11 12  2  0
 12 13  1  0
 13 14  2  3
 14 15  1  0
 15 16  3  0
 14 17  1  0
 17 18  3  0
  1 19  1  0
 19 20  2  0
 20 21  1  0
 21 22  1  0
 20 23  1  0
 23 24  2  0
 24 25  1  0
 24 26  1  0
 26 27  2  0
 27 28  1  0
 27 29  1  0
 29 30  1  0
 30 31  2  0
 31 32  1  0
 32 33  1  0
 33 34  2  0
 34 35  1  0
 35 36  1  0
 36 37  1  0
 37 38  1  0
 38 39  1  0
 39 40  2  0
 40 41  1  0
 41 42  1  0
 42 43  1  0
 43 44  1  0
 44 45  1  0
 45 46  1  0
 44 47  1  0
 47 48  1  0
 48 49  1  0
 49 50  1  0
 50 51  1  0
 40 52  1  0
 52 53  2  3
 53 54  1  0
 54 55  2  0
 54 56  1  0
 56 57  2  0
 57 58  1  0
 58 59  2  0
 59 60  1  0
 60 61  1  0
 60 62  2  0
 62 63  1  0
 62 64  1  0
 64 65  2  0
 65 66  1  0
 66 67  2  0
 67 68  1  0
 68 69  2  3
 69 70  1  0
 70 71  3  0
 69 72  1  0
 72 73  3  0
 13  2  1  0
 25 19  1  0
 49 26  1  0
 68 53  1  0
 12  5  1  0
 28 23  1  0
 48 29  2  0
 67 56  1  0
 34 30  1  0
 47 35  2  0
 65 58  1  0
 43 36  2  0
 42 38  2  0
  1 74  1  0
  6 75  1  0
 11 76  1  0
 21 77  1  0
 21 78  1  0
 22 79  1  0
 22 80  1  0
 22 81  1  0
 39 82  1  0
 45 83  1  0
 45 84  1  0
 46 85  1  0
 46 86  1  0
 46 87  1  0
 50 88  1  0
 50 89  1  0
 51 90  1  0
 51 91  1  0
 51 92  1  0
 52 93  1  0
 57 94  1  0
 59 95  1  0
 64 96  1  0
 66 97  1  0
M  END

