
     RDKit          3D

 97108  0  0  0  0  0  0  0  0999 V2000
   -4.0681    3.7344   -5.8657 C   0  0  0  0  0  0  0  0  0  0  0  0
   -3.5807    4.5080   -6.5258 C   0  0  0  0  0  0  0  0  0  0  0  0
   -3.3191    4.3780   -7.9933 C   0  0  0  0  0  0  0  0  0  0  0  0
   -3.7477    3.4304   -8.7299 O   0  0  0  0  0  0  0  0  0  0  0  0
   -2.5310    5.4719   -8.4315 C   0  0  0  0  0  0  0  0  0  0  0  0
   -1.9399    5.6247   -9.6862 C   0  0  0  0  0  0  0  0  0  0  0  0
   -1.0313    6.6341   -9.9289 C   0  0  0  0  0  0  0  0  0  0  0  0
   -0.3201    6.7475  -11.5212 Cl  0  0  0  0  0  0  0  0  0  0  0  0
   -0.7165    7.4835   -8.9322 C   0  0  0  0  0  0  0  0  0  0  0  0
    0.2035    8.4413   -9.1323 F   0  0  0  0  0  0  0  0  0  0  0  0
   -1.3143    7.3180   -7.6781 C   0  0  0  0  0  0  0  0  0  0  0  0
   -2.2492    6.3140   -7.3986 C   0  0  0  0  0  0  0  0  0  0  0  0
   -2.8754    5.8623   -6.1059 C   0  0  0  0  0  0  0  0  0  0  0  0
   -2.6757    6.3758   -5.0309 C   0  0  0  0  0  0  0  0  0  0  0  0
   -2.7806    6.3458   -3.6705 C   0  0  0  0  0  0  0  0  0  0  0  0
   -2.8537    6.3183   -2.5681 N   0  0  0  0  0  0  0  0  0  0  0  0
   -2.3956    7.9934   -5.4673 C   0  0  0  0  0  0  0  0  0  0  0  0
   -2.2279    8.9944   -5.7254 N   0  0  0  0  0  0  0  0  0  0  0  0
   -4.6430    2.9929   -4.7053 C   0  0  0  0  0  0  0  0  0  0  0  0
   -4.8892    2.3648   -3.8875 C   0  0  0  0  0  0  0  0  0  0  0  0
   -6.5617    3.3788   -3.8126 C   0  0  0  0  0  0  0  0  0  0  0  0
   -6.0882    4.2974   -2.7736 C   0  0  0  0  0  0  0  0  0  0  0  0
   -5.2754    1.6269   -2.8624 C   0  0  0  0  0  0  0  0  0  0  0  0
   -5.9721    0.9202   -1.5115 S   0  0  0  0  0  0  0  0  0  0  0  0
   -4.8525   -0.1985   -0.9278 C   0  0  0  0  0  0  0  0  0  0  0  0
   -4.4217   -0.9791    0.1229 C   0  0  0  0  0  0  0  0  0  0  0  0
   -4.9519   -1.2414    1.3737 C   0  0  0  0  0  0  0  0  0  0  0  0
   -4.3170   -1.7226    2.3491 C   0  0  0  0  0  0  0  0  0  0  0  0
   -4.9743   -2.4162    3.3996 N   0  0  0  0  0  0  0  0  0  0  0  0
   -6.5589   -2.2780    2.8591 S   0  0  0  0  0  0  0  0  0  0  0  0
   -6.3576   -1.4358    1.4557 N   0  0  0  0  0  0  0  0  0  0  0  0
   -2.9635   -2.0423    2.1553 C   0  0  0  0  0  0  0  0  0  0  0  0
   -1.9580   -2.5232    2.9899 C   0  0  0  0  0  0  0  0  0  0  0  0
   -1.4716   -3.0205    4.5449 S   0  0  0  0  0  0  0  0  0  0  0  0
    0.2582   -3.3553    4.2091 C   0  0  0  0  0  0  0  0  0  0  0  0
    1.3715   -3.7589    4.9097 C   0  0  0  0  0  0  0  0  0  0  0  0
    1.2081   -4.0062    6.4477 C   0  0  0  0  0  0  0  0  0  0  0  0
    1.0594   -2.6236    7.1009 C   0  0  0  0  0  0  0  0  0  0  0  0
    2.5499   -3.8935    4.4495 C   0  0  0  0  0  0  0  0  0  0  0  0
    2.0956   -3.3412    2.5377 Se  0  0  0  0  0  2  0  0  0  0  0  0
    0.2572   -3.0562    2.9806 C   0  0  0  0  0  0  0  0  0  0  0  0
   -0.8367   -2.6240    2.2631 C   0  0  0  0  0  0  0  0  0  0  0  0
   -1.1198   -2.2222    0.9580 N   0  0  0  0  0  0  0  0  0  0  0  0
   -2.3544   -1.8493    0.8727 C   0  0  0  0  0  0  0  0  0  0  0  0
   -3.1368   -1.2918   -0.1715 C   0  0  0  0  0  0  0  0  0  0  0  0
   -2.7362   -0.7821   -1.3398 N   0  0  0  0  0  0  0  0  0  0  0  0
   -3.8677   -0.0478   -1.8331 C   0  0  0  0  0  0  0  0  0  0  0  0
   -4.0314    0.8137   -2.7952 C   0  0  0  0  0  0  0  0  0  0  0  0
   -2.9639    1.5527   -4.2782 Se  0  0  0  0  0  2  0  0  0  0  0  0
   -1.5387   -0.7844   -2.0829 C   0  0  0  0  0  0  0  0  0  0  0  0
   -0.6071    0.3866   -1.8519 C   0  0  0  0  0  0  0  0  0  0  0  0
   -0.2331   -2.6566   -0.1473 C   0  0  0  0  0  0  0  0  0  0  0  0
    1.0522   -2.0317   -0.3577 C   0  0  0  0  0  0  0  0  0  0  0  0
    3.9373   -4.2306    4.4595 C   0  0  0  0  0  0  0  0  0  0  0  0
    4.9127   -3.5804    4.1310 C   0  0  0  0  0  0  0  0  0  0  0  0
    5.1748   -2.2904    3.6322 C   0  0  0  0  0  0  0  0  0  0  0  0
    4.3095   -1.3330    3.6752 O   0  0  0  0  0  0  0  0  0  0  0  0
    6.4921   -2.1040    3.0583 C   0  0  0  0  0  0  0  0  0  0  0  0
    7.0088   -0.9553    2.4583 C   0  0  0  0  0  0  0  0  0  0  0  0
    8.3024   -0.9981    1.9039 C   0  0  0  0  0  0  0  0  0  0  0  0
    8.7242    0.1318    1.3435 F   0  0  0  0  0  0  0  0  0  0  0  0
    8.9682   -2.1657    1.9970 C   0  0  0  0  0  0  0  0  0  0  0  0
   10.2217   -2.2399    1.4396 F   0  0  0  0  0  0  0  0  0  0  0  0
    8.4417   -3.2925    2.6012 C   0  0  0  0  0  0  0  0  0  0  0  0
    7.1529   -3.2693    3.1590 C   0  0  0  0  0  0  0  0  0  0  0  0
    6.3464   -4.2595    3.7879 C   0  0  0  0  0  0  0  0  0  0  0  0
    6.6072   -5.4097    4.2407 C   0  0  0  0  0  0  0  0  0  0  0  0
    6.0070   -6.4357    5.0950 C   0  0  0  0  0  0  0  0  0  0  0  0
    5.5592   -7.1779    5.7081 N   0  0  0  0  0  0  0  0  0  0  0  0
    7.8331   -6.0576    3.6407 C   0  0  0  0  0  0  0  0  0  0  0  0
    8.8020   -6.5724    3.1527 N   0  0  0  0  0  0  0  0  0  0  0  0
   -4.4906    2.7782   -6.6835 H   0  0  0  0  0  0  0  0  0  0  0  0
   -2.2058    4.9256  -10.4795 H   0  0  0  0  0  0  0  0  0  0  0  0
   -0.8848    7.9583   -6.9517 H   0  0  0  0  0  0  0  0  0  0  0  0
   -7.1070    2.5490   -3.6589 H   0  0  0  0  0  0  0  0  0  0  0  0
   -6.4156    3.7982   -4.7869 H   0  0  0  0  0  0  0  0  0  0  0  0
   -6.8490    4.5163   -1.9724 H   0  0  0  0  0  0  0  0  0  0  0  0
   -5.6237    5.2099   -3.1281 H   0  0  0  0  0  0  0  0  0  0  0  0
   -5.2706    3.8083   -2.1621 H   0  0  0  0  0  0  0  0  0  0  0  0
    2.0768   -4.4594    6.8441 H   0  0  0  0  0  0  0  0  0  0  0  0
    0.2526   -4.5343    6.5980 H   0  0  0  0  0  0  0  0  0  0  0  0
    0.1629   -2.1691    6.5805 H   0  0  0  0  0  0  0  0  0  0  0  0
    0.8480   -2.7058    8.1582 H   0  0  0  0  0  0  0  0  0  0  0  0
    1.9216   -1.9980    6.9314 H   0  0  0  0  0  0  0  0  0  0  0  0
   -1.8633   -0.6863   -3.2019 H   0  0  0  0  0  0  0  0  0  0  0  0
   -0.9517   -1.7043   -2.2145 H   0  0  0  0  0  0  0  0  0  0  0  0
   -0.1997    0.4072   -0.7944 H   0  0  0  0  0  0  0  0  0  0  0  0
    0.2853    0.1623   -2.5312 H   0  0  0  0  0  0  0  0  0  0  0  0
   -1.0457    1.3628   -2.0566 H   0  0  0  0  0  0  0  0  0  0  0  0
   -0.8325   -3.1186   -0.9738 H   0  0  0  0  0  0  0  0  0  0  0  0
    0.0950   -3.7398    0.2825 H   0  0  0  0  0  0  0  0  0  0  0  0
    1.3267   -1.3099    0.4090 H   0  0  0  0  0  0  0  0  0  0  0  0
    1.9115   -2.8057   -0.4230 H   0  0  0  0  0  0  0  0  0  0  0  0
    1.2000   -1.5259   -1.3732 H   0  0  0  0  0  0  0  0  0  0  0  0
    4.1114   -5.2962    4.8098 H   0  0  0  0  0  0  0  0  0  0  0  0
    6.4721   -0.0272    2.4266 H   0  0  0  0  0  0  0  0  0  0  0  0
    9.0035   -4.1511    2.6190 H   0  0  0  0  0  0  0  0  0  0  0  0
  1  2  2  3
  2  3  1  0
  3  4  2  0
  3  5  1  0
  5  6  2  0
  6  7  1  0
  7  8  1  0
  7  9  2  0
  9 10  1  0
  9 11  1  0
 11 12  2  0
 12 13  1  0
 13 14  2  3
 14 15  1  0
 15 16  3  0
 14 17  1  0
 17 18  3  0
  1 19  1  0
 19 20  2  0
 20 21  1  0
 21 22  1  0
 20 23  1  0
 23 24  1  0
 24 25  1  0
 25 26  1  0
 26 27  1  0
 27 28  1  0
 28 29  2  0
 29 30  1  0
 30 31  1  0
 28 32  1  0
 32 33  1  0
 33 34  1  0
 34 35  1  0
 35 36  1  0
 36 37  1  0
 37 38  1  0
 36 39  2  0
 39 40  1  0
 40 41  1  0
 41 42  1  0
 42 43  1  0
 43 44  1  0
 44 45  1  0
 45 46  1  0
 46 47  1  0
 47 48  1  0
 48 49  1  0
 46 50  1  0
 50 51  1  0
 43 52  1  0
 52 53  1  0
 39 54  1  0
 54 55  2  3
 55 56  1  0
 56 57  2  0
 56 58  1  0
 58 59  2  0
 59 60  1  0
 60 61  1  0
 60 62  2  0
 62 63  1  0
 62 64  1  0
 64 65  2  0
 65 66  1  0
 66 67  2  3
 67 68  1  0
 68 69  3  0
 67 70  1  0
 70 71  3  0
 13  2  1  0
 49 19  1  0
 66 55  1  0
 12  5  1  0
 48 23  2  0
 65 58  1  0
 47 25  2  0
 45 26  2  0
 31 27  2  0
 44 32  2  0
 42 33  2  0
 41 35  2  0
  1 72  1  0
  6 73  1  0
 11 74  1  0
 21 75  1  0
 21 76  1  0
 22 77  1  0
 22 78  1  0
 22 79  1  0
 37 80  1  0
 37 81  1  0
 38 82  1  0
 38 83  1  0
 38 84  1  0
 50 85  1  0
 50 86  1  0
 51 87  1  0
 51 88  1  0
 51 89  1  0
 52 90  1  0
 52 91  1  0
 53 92  1  0
 53 93  1  0
 53 94  1  0
 54 95  1  0
 59 96  1  0
 64 97  1  0
M  END

