
     RDKit          3D

 95106  0  0  0  0  0  0  0  0999 V2000
   -3.1453   -4.1238    6.4899 C   0  0  0  0  0  0  0  0  0  0  0  0
   -3.6295   -3.8725    7.7240 C   0  0  0  0  0  0  0  0  0  0  0  0
   -3.7056   -2.5761    8.4115 C   0  0  0  0  0  0  0  0  0  0  0  0
   -3.8219   -1.4419    7.8774 O   0  0  0  0  0  0  0  0  0  0  0  0
   -3.7925   -2.8252    9.8337 C   0  0  0  0  0  0  0  0  0  0  0  0
   -3.7080   -1.9040   10.8776 C   0  0  0  0  0  0  0  0  0  0  0  0
   -3.7252   -2.3825   12.1960 C   0  0  0  0  0  0  0  0  0  0  0  0
   -3.6037   -1.2542   13.5339 Cl  0  0  0  0  0  0  0  0  0  0  0  0
   -3.8106   -3.7686   12.4450 C   0  0  0  0  0  0  0  0  0  0  0  0
   -3.7994   -4.2355   13.7192 F   0  0  0  0  0  0  0  0  0  0  0  0
   -3.8929   -4.6770   11.3770 C   0  0  0  0  0  0  0  0  0  0  0  0
   -3.9079   -4.1844   10.0607 C   0  0  0  0  0  0  0  0  0  0  0  0
   -3.9667   -4.9003    8.7568 C   0  0  0  0  0  0  0  0  0  0  0  0
   -4.5006   -6.1296    8.5346 C   0  0  0  0  0  0  0  0  0  0  0  0
   -4.8007   -6.6077    7.2115 C   0  0  0  0  0  0  0  0  0  0  0  0
   -5.0506   -7.0011    6.1528 N   0  0  0  0  0  0  0  0  0  0  0  0
   -4.9620   -6.9774    9.6052 C   0  0  0  0  0  0  0  0  0  0  0  0
   -5.3416   -7.6654   10.4552 N   0  0  0  0  0  0  0  0  0  0  0  0
   -2.6454   -3.1335    5.5129 C   0  0  0  0  0  0  0  0  0  0  0  0
   -1.7895   -1.6813    5.8499 S   0  0  0  0  0  0  0  0  0  0  0  0
   -1.5316   -1.3590    4.2322 C   0  0  0  0  0  0  0  0  0  0  0  0
   -0.8544   -0.5024    3.4195 C   0  0  0  0  0  0  0  0  0  0  0  0
    0.1524    0.8602    3.5449 S   0  0  0  0  0  0  0  0  0  0  0  0
    0.4434    0.7535    1.8697 C   0  0  0  0  0  0  0  0  0  0  0  0
    1.0032    1.5352    0.9014 C   0  0  0  0  0  0  0  0  0  0  0  0
    1.5816    2.8097    0.9489 C   0  0  0  0  0  0  0  0  0  0  0  0
    1.9069    3.4583   -0.2810 C   0  0  0  0  0  0  0  0  0  0  0  0
    2.4717    4.6879   -0.1967 N   0  0  0  0  0  0  0  0  0  0  0  0
    2.4945    4.8714    1.4497 S   0  0  0  0  0  0  0  0  0  0  0  0
    1.8420    3.4902    2.0922 N   0  0  0  0  0  0  0  0  0  0  0  0
    1.6697    2.7769   -1.4822 C   0  0  0  0  0  0  0  0  0  0  0  0
    2.0675    3.0330   -2.7574 C   0  0  0  0  0  0  0  0  0  0  0  0
    2.8720    4.2371   -3.5818 S   0  0  0  0  0  0  0  0  0  0  0  0
    3.0204    3.2892   -4.9969 C   0  0  0  0  0  0  0  0  0  0  0  0
    2.4250    2.0158   -4.8022 C   0  0  0  0  0  0  0  0  0  0  0  0
    2.3101    0.9957   -5.9068 C   0  0  0  0  0  0  0  0  0  0  0  0
    0.9948    1.1529   -6.6655 C   0  0  0  0  0  0  0  0  0  0  0  0
    1.8827    1.9175   -3.4998 C   0  0  0  0  0  0  0  0  0  0  0  0
    1.3261    0.9095   -2.7590 N   0  0  0  0  0  0  0  0  0  0  0  0
    1.1403    1.4844   -1.5216 C   0  0  0  0  0  0  0  0  0  0  0  0
    0.7054    0.8949   -0.3072 C   0  0  0  0  0  0  0  0  0  0  0  0
   -0.1435   -0.1643   -0.1143 N   0  0  0  0  0  0  0  0  0  0  0  0
   -0.2094   -0.2717    1.2424 C   0  0  0  0  0  0  0  0  0  0  0  0
   -0.9755   -1.0102    2.1499 C   0  0  0  0  0  0  0  0  0  0  0  0
   -1.6716   -2.1874    2.1318 N   0  0  0  0  0  0  0  0  0  0  0  0
   -2.0073   -2.3492    3.4417 C   0  0  0  0  0  0  0  0  0  0  0  0
   -2.6405   -3.3825    4.1285 C   0  0  0  0  0  0  0  0  0  0  0  0
   -1.7975   -3.1972    1.0771 C   0  0  0  0  0  0  0  0  0  0  0  0
   -0.4341   -3.7536    0.6838 C   0  0  0  0  0  0  0  0  0  0  0  0
   -1.2091   -0.5363   -1.0564 C   0  0  0  0  0  0  0  0  0  0  0  0
   -2.5762   -0.0095   -0.6119 C   0  0  0  0  0  0  0  0  0  0  0  0
    1.4676   -0.5350   -3.0132 C   0  0  0  0  0  0  0  0  0  0  0  0
    0.3925   -1.0830   -3.9641 C   0  0  0  0  0  0  0  0  0  0  0  0
    3.4610    3.8071   -6.3120 C   0  0  0  0  0  0  0  0  0  0  0  0
    4.4721    4.6697   -6.5328 C   0  0  0  0  0  0  0  0  0  0  0  0
    5.3773    5.2611   -5.5200 C   0  0  0  0  0  0  0  0  0  0  0  0
    5.6286    4.8149   -4.3700 O   0  0  0  0  0  0  0  0  0  0  0  0
    6.0621    6.3687   -6.1458 C   0  0  0  0  0  0  0  0  0  0  0  0
    7.0286    7.2787   -5.7338 C   0  0  0  0  0  0  0  0  0  0  0  0
    7.4161    8.0932   -6.7998 C   0  0  0  0  0  0  0  0  0  0  0  0
    8.6295    9.3528   -6.7116 Cl  0  0  0  0  0  0  0  0  0  0  0  0
    6.5881    7.6492   -8.2187 S   0  0  0  0  0  0  0  0  0  0  0  0
    5.7036    6.4442   -7.4497 C   0  0  0  0  0  0  0  0  0  0  0  0
    4.7759    5.3696   -7.8307 C   0  0  0  0  0  0  0  0  0  0  0  0
    4.4237    5.0461   -9.0959 C   0  0  0  0  0  0  0  0  0  0  0  0
    3.7323    3.8273   -9.4270 C   0  0  0  0  0  0  0  0  0  0  0  0
    3.1857    2.8445   -9.7028 N   0  0  0  0  0  0  0  0  0  0  0  0
    4.8099    5.8707  -10.2115 C   0  0  0  0  0  0  0  0  0  0  0  0
    5.1135    6.5315  -11.1115 N   0  0  0  0  0  0  0  0  0  0  0  0
   -3.0606   -5.1481    6.1620 H   0  0  0  0  0  0  0  0  0  0  0  0
   -3.6038   -0.8455   10.6781 H   0  0  0  0  0  0  0  0  0  0  0  0
   -3.9052   -5.7335   11.5884 H   0  0  0  0  0  0  0  0  0  0  0  0
    2.4185   -0.0283   -5.5171 H   0  0  0  0  0  0  0  0  0  0  0  0
    3.1485    1.1175   -6.6252 H   0  0  0  0  0  0  0  0  0  0  0  0
    0.1296    1.0792   -5.9799 H   0  0  0  0  0  0  0  0  0  0  0  0
    0.9520    2.1365   -7.1765 H   0  0  0  0  0  0  0  0  0  0  0  0
    0.9127    0.3558   -7.4310 H   0  0  0  0  0  0  0  0  0  0  0  0
   -3.0489   -4.2700    3.6665 H   0  0  0  0  0  0  0  0  0  0  0  0
   -2.4286   -4.0396    1.4295 H   0  0  0  0  0  0  0  0  0  0  0  0
   -2.3241   -2.7807    0.2035 H   0  0  0  0  0  0  0  0  0  0  0  0
    0.0573   -4.2091    1.5679 H   0  0  0  0  0  0  0  0  0  0  0  0
    0.2157   -2.9515    0.2804 H   0  0  0  0  0  0  0  0  0  0  0  0
   -0.5631   -4.5312   -0.0966 H   0  0  0  0  0  0  0  0  0  0  0  0
   -1.2133   -1.6267   -1.2322 H   0  0  0  0  0  0  0  0  0  0  0  0
   -1.0292   -0.0602   -2.0334 H   0  0  0  0  0  0  0  0  0  0  0  0
   -3.3311   -0.2054   -1.4052 H   0  0  0  0  0  0  0  0  0  0  0  0
   -2.5150    1.0866   -0.4418 H   0  0  0  0  0  0  0  0  0  0  0  0
   -2.9192   -0.4986    0.3199 H   0  0  0  0  0  0  0  0  0  0  0  0
    2.4863   -0.7478   -3.4025 H   0  0  0  0  0  0  0  0  0  0  0  0
    1.4128   -1.0938   -2.0577 H   0  0  0  0  0  0  0  0  0  0  0  0
   -0.3402   -0.3010   -4.2542 H   0  0  0  0  0  0  0  0  0  0  0  0
    0.8527   -1.5037   -4.8796 H   0  0  0  0  0  0  0  0  0  0  0  0
   -0.1610   -1.9128   -3.4752 H   0  0  0  0  0  0  0  0  0  0  0  0
    2.8514    3.5007   -7.1386 H   0  0  0  0  0  0  0  0  0  0  0  0
    7.4369    7.3333   -4.7329 H   0  0  0  0  0  0  0  0  0  0  0  0
  1  2  2  3
  2  3  1  0
  3  4  2  0
  3  5  1  0
  5  6  2  0
  6  7  1  0
  7  8  1  0
  7  9  2  0
  9 10  1  0
  9 11  1  0
 11 12  2  0
 12 13  1  0
 13 14  2  3
 14 15  1  0
 15 16  3  0
 14 17  1  0
 17 18  3  0
  1 19  1  0
 19 20  1  0
 20 21  1  0
 21 22  1  0
 22 23  1  0
 23 24  1  0
 24 25  1  0
 25 26  1  0
 26 27  1  0
 27 28  2  0
 28 29  1  0
 29 30  1  0
 27 31  1  0
 31 32  1  0
 32 33  1  0
 33 34  1  0
 34 35  2  0
 35 36  1  0
 36 37  1  0
 35 38  1  0
 38 39  1  0
 39 40  1  0
 40 41  1  0
 41 42  1  0
 42 43  1  0
 43 44  1  0
 44 45  1  0
 45 46  1  0
 46 47  1  0
 45 48  1  0
 48 49  1  0
 42 50  1  0
 50 51  1  0
 39 52  1  0
 52 53  1  0
 34 54  1  0
 54 55  2  3
 55 56  1  0
 56 57  2  0
 56 58  1  0
 58 59  1  0
 59 60  2  0
 60 61  1  0
 60 62  1  0
 62 63  1  0
 63 64  1  0
 64 65  2  3
 65 66  1  0
 66 67  3  0
 65 68  1  0
 68 69  3  0
 13  2  1  0
 47 19  2  0
 64 55  1  0
 12  5  1  0
 46 21  2  0
 63 58  2  0
 44 22  2  0
 43 24  2  0
 41 25  2  0
 30 26  2  0
 40 31  2  0
 38 32  2  0
  1 70  1  0
  6 71  1  0
 11 72  1  0
 36 73  1  0
 36 74  1  0
 37 75  1  0
 37 76  1  0
 37 77  1  0
 47 78  1  0
 48 79  1  0
 48 80  1  0
 49 81  1  0
 49 82  1  0
 49 83  1  0
 50 84  1  0
 50 85  1  0
 51 86  1  0
 51 87  1  0
 51 88  1  0
 52 89  1  0
 52 90  1  0
 53 91  1  0
 53 92  1  0
 53 93  1  0
 54 94  1  0
 59 95  1  0
M  END

