
     RDKit          3D

173191  0  0  0  0  0  0  0  0999 V2000
    0.2538    6.1957    8.7871 C   0  0  0  0  0  0  0  0  0  0  0  0
   -0.7962    6.8424    9.3577 C   0  0  0  0  0  0  0  0  0  0  0  0
   -2.1612    6.9238    8.8276 C   0  0  0  0  0  0  0  0  0  0  0  0
   -2.6290    6.2672    7.8571 O   0  0  0  0  0  0  0  0  0  0  0  0
   -2.8642    7.9924    9.5081 C   0  0  0  0  0  0  0  0  0  0  0  0
   -4.1429    8.4883    9.2411 C   0  0  0  0  0  0  0  0  0  0  0  0
   -4.5639    9.6413    9.9200 C   0  0  0  0  0  0  0  0  0  0  0  0
   -6.1540   10.3196    9.6049 Cl  0  0  0  0  0  0  0  0  0  0  0  0
   -3.6851   10.3002   10.8003 C   0  0  0  0  0  0  0  0  0  0  0  0
   -4.0502   11.4697   11.3765 F   0  0  0  0  0  0  0  0  0  0  0  0
   -2.4005    9.7888   11.0483 C   0  0  0  0  0  0  0  0  0  0  0  0
   -2.0159    8.5923   10.4282 C   0  0  0  0  0  0  0  0  0  0  0  0
   -0.7237    7.8422   10.4685 C   0  0  0  0  0  0  0  0  0  0  0  0
    0.2339    7.9428   11.4222 C   0  0  0  0  0  0  0  0  0  0  0  0
    1.2862    6.9639   11.5691 C   0  0  0  0  0  0  0  0  0  0  0  0
    2.1282    6.1817   11.7086 N   0  0  0  0  0  0  0  0  0  0  0  0
    0.2184    8.9607   12.4429 C   0  0  0  0  0  0  0  0  0  0  0  0
    0.2380    9.7762   13.2713 N   0  0  0  0  0  0  0  0  0  0  0  0
    0.1719    5.3007    7.6172 C   0  0  0  0  0  0  0  0  0  0  0  0
    1.0939    5.3417    6.5595 C   0  0  0  0  0  0  0  0  0  0  0  0
    0.8403    4.3422    5.6221 C   0  0  0  0  0  0  0  0  0  0  0  0
    1.5917    3.8115    4.4013 C   0  0  0  0  0  0  0  0  0  0  0  0
    1.7672    4.7628    3.2090 C   0  0  0  0  0  0  0  0  0  0  0  0
    0.9072    5.8565    2.9935 C   0  0  0  0  0  0  0  0  0  0  0  0
    1.0162    6.6328    1.8328 C   0  0  0  0  0  0  0  0  0  0  0  0
    1.9479    6.2958    0.8365 C   0  0  0  0  0  0  0  0  0  0  0  0
    2.0967    7.1316   -0.4114 C   0  0  0  0  0  0  0  0  0  0  0  0
    3.4309    7.8803   -0.4297 C   0  0  0  0  0  0  0  0  0  0  0  0
    2.7728    5.1802    1.0216 C   0  0  0  0  0  0  0  0  0  0  0  0
    2.6676    4.4113    2.1789 C   0  0  0  0  0  0  0  0  0  0  0  0
    2.9176    3.2046    4.9150 C   0  0  0  0  0  0  0  0  0  0  0  0
    2.9461    1.9397    5.5544 C   0  0  0  0  0  0  0  0  0  0  0  0
    4.1158    1.4433    6.1314 C   0  0  0  0  0  0  0  0  0  0  0  0
    5.3043    2.1851    6.0941 C   0  0  0  0  0  0  0  0  0  0  0  0
    6.5244    1.6857    6.8102 C   0  0  0  0  0  0  0  0  0  0  0  0
    7.1791    0.5210    6.0675 C   0  0  0  0  0  0  0  0  0  0  0  0
    5.3009    3.4332    5.4427 C   0  0  0  0  0  0  0  0  0  0  0  0
    4.1202    3.9536    4.8935 C   0  0  0  0  0  0  0  0  0  0  0  0
    0.5961    2.7324    4.0190 C   0  0  0  0  0  0  0  0  0  0  0  0
   -0.2744    2.4439    5.0271 C   0  0  0  0  0  0  0  0  0  0  0  0
   -0.1572    3.4865    6.0010 C   0  0  0  0  0  0  0  0  0  0  0  0
   -0.8603    3.9475    7.4489 S   0  0  0  0  0  0  0  0  0  0  0  0
   -1.0386    0.9430    4.7985 S   0  0  0  0  0  0  0  0  0  0  0  0
   -0.2356    0.6992    3.3004 C   0  0  0  0  0  0  0  0  0  0  0  0
    0.5361    1.8108    2.9986 C   0  0  0  0  0  0  0  0  0  0  0  0
    0.4328    2.1384    1.3509 S   0  0  0  0  0  0  0  0  0  0  0  0
   -0.4476    0.7386    1.0054 C   0  0  0  0  0  0  0  0  0  0  0  0
   -0.9232    0.3306   -0.2407 C   0  0  0  0  0  0  0  0  0  0  0  0
   -1.1059    1.3128   -1.3225 C   0  0  0  0  0  0  0  0  0  0  0  0
   -2.2975    1.9744   -1.5953 C   0  0  0  0  0  0  0  0  0  0  0  0
   -2.2399    2.7809   -2.7366 C   0  0  0  0  0  0  0  0  0  0  0  0
   -0.9994    2.7454   -3.3674 C   0  0  0  0  0  0  0  0  0  0  0  0
   -0.6875    3.3880   -4.6825 C   0  0  0  0  0  0  0  0  0  0  0  0
   -1.3445    2.6102   -5.8309 C   0  0  0  0  0  0  0  0  0  0  0  0
    0.0211    1.7170   -2.5057 S   0  0  0  0  0  0  0  0  0  0  0  0
   -1.3720   -0.9982   -0.3374 C   0  0  0  0  0  0  0  0  0  0  0  0
   -1.3826   -1.8403    0.7901 C   0  0  0  0  0  0  0  0  0  0  0  0
   -1.1138   -1.3546    2.0867 C   0  0  0  0  0  0  0  0  0  0  0  0
   -1.0024   -2.2857    3.2231 C   0  0  0  0  0  0  0  0  0  0  0  0
   -0.0238   -3.2601    3.3608 C   0  0  0  0  0  0  0  0  0  0  0  0
   -0.0894   -3.9449    4.5800 C   0  0  0  0  0  0  0  0  0  0  0  0
   -1.1186   -3.5024    5.3964 C   0  0  0  0  0  0  0  0  0  0  0  0
   -1.3328   -3.9234    6.8165 C   0  0  0  0  0  0  0  0  0  0  0  0
   -0.6001   -2.9763    7.7682 C   0  0  0  0  0  0  0  0  0  0  0  0
   -1.9449   -2.2615    4.6133 S   0  0  0  0  0  0  0  0  0  0  0  0
   -0.6729   -0.0119    2.1729 C   0  0  0  0  0  0  0  0  0  0  0  0
   -1.6132   -3.4631    0.3011 S   0  0  0  0  0  0  0  0  0  0  0  0
   -1.7384   -3.0682   -1.3292 C   0  0  0  0  0  0  0  0  0  0  0  0
   -1.8056   -3.7683   -2.5309 C   0  0  0  0  0  0  0  0  0  0  0  0
   -1.8498   -2.8936   -3.5802 C   0  0  0  0  0  0  0  0  0  0  0  0
   -1.6687   -1.2760   -3.1409 S   0  0  0  0  0  0  0  0  0  0  0  0
   -1.6409   -1.7089   -1.5022 C   0  0  0  0  0  0  0  0  0  0  0  0
   -1.7344   -3.6193   -4.7908 C   0  0  0  0  0  0  0  0  0  0  0  0
   -1.3481   -3.2387   -6.3624 S   0  0  0  0  0  0  0  0  0  0  0  0
   -1.0380   -4.8614   -6.7606 C   0  0  0  0  0  0  0  0  0  0  0  0
   -1.2274   -5.6890   -5.6424 C   0  0  0  0  0  0  0  0  0  0  0  0
   -1.5833   -4.9419   -4.5107 C   0  0  0  0  0  0  0  0  0  0  0  0
   -1.5987   -5.2138   -3.0022 C   0  0  0  0  0  0  0  0  0  0  0  0
   -2.7834   -6.1263   -2.6713 C   0  0  0  0  0  0  0  0  0  0  0  0
   -4.0891   -5.6029   -2.5195 C   0  0  0  0  0  0  0  0  0  0  0  0
   -5.1686   -6.4424   -2.2400 C   0  0  0  0  0  0  0  0  0  0  0  0
   -4.9821   -7.8283   -2.1022 C   0  0  0  0  0  0  0  0  0  0  0  0
   -6.1382   -8.7234   -1.7499 C   0  0  0  0  0  0  0  0  0  0  0  0
   -6.6110   -8.4927   -0.3101 C   0  0  0  0  0  0  0  0  0  0  0  0
   -3.6963   -8.3645   -2.3021 C   0  0  0  0  0  0  0  0  0  0  0  0
   -2.6221   -7.5297   -2.6189 C   0  0  0  0  0  0  0  0  0  0  0  0
   -0.2470   -5.7296   -2.4629 C   0  0  0  0  0  0  0  0  0  0  0  0
   -0.1589   -6.2322   -1.1442 C   0  0  0  0  0  0  0  0  0  0  0  0
    1.0478   -6.7224   -0.6366 C   0  0  0  0  0  0  0  0  0  0  0  0
    2.2082   -6.7144   -1.4228 C   0  0  0  0  0  0  0  0  0  0  0  0
    3.4963   -7.3023   -0.9043 C   0  0  0  0  0  0  0  0  0  0  0  0
    3.6157   -8.7766   -1.2904 C   0  0  0  0  0  0  0  0  0  0  0  0
    2.1472   -6.1826   -2.7191 C   0  0  0  0  0  0  0  0  0  0  0  0
    0.9461   -5.6747   -3.2237 C   0  0  0  0  0  0  0  0  0  0  0  0
   -0.6837   -5.2966   -8.1190 C   0  0  0  0  0  0  0  0  0  0  0  0
    0.2410   -4.6647   -8.8710 C   0  0  0  0  0  0  0  0  0  0  0  0
    1.1683   -3.6341   -8.3873 C   0  0  0  0  0  0  0  0  0  0  0  0
    1.5519   -3.4766   -7.1966 O   0  0  0  0  0  0  0  0  0  0  0  0
    1.6504   -2.8724   -9.5164 C   0  0  0  0  0  0  0  0  0  0  0  0
    2.4165   -1.7087   -9.5082 C   0  0  0  0  0  0  0  0  0  0  0  0
    2.6900   -1.0699  -10.7278 C   0  0  0  0  0  0  0  0  0  0  0  0
    3.4689    0.2108  -10.7340 C   0  0  0  0  0  0  0  0  0  0  0  0
    2.1489   -1.5946  -11.9230 C   0  0  0  0  0  0  0  0  0  0  0  0
    2.3471   -0.9513  -13.1048 F   0  0  0  0  0  0  0  0  0  0  0  0
    1.3658   -2.7629  -11.9064 C   0  0  0  0  0  0  0  0  0  0  0  0
    1.1414   -3.4192  -10.6847 C   0  0  0  0  0  0  0  0  0  0  0  0
    0.3363   -4.6352  -10.3656 C   0  0  0  0  0  0  0  0  0  0  0  0
   -0.0975   -5.5805  -11.2408 C   0  0  0  0  0  0  0  0  0  0  0  0
   -0.6760   -6.8257  -10.8022 C   0  0  0  0  0  0  0  0  0  0  0  0
   -1.1371   -7.8338  -10.4680 N   0  0  0  0  0  0  0  0  0  0  0  0
    0.0979   -5.4772  -12.6617 C   0  0  0  0  0  0  0  0  0  0  0  0
    0.2506   -5.4217  -13.8070 N   0  0  0  0  0  0  0  0  0  0  0  0
    1.2659    6.3996    9.1320 H   0  0  0  0  0  0  0  0  0  0  0  0
   -4.7853    8.0086    8.5070 H   0  0  0  0  0  0  0  0  0  0  0  0
   -1.7278   10.3742   11.6418 H   0  0  0  0  0  0  0  0  0  0  0  0
    1.9488    5.9949    6.5232 H   0  0  0  0  0  0  0  0  0  0  0  0
    0.1362    6.0965    3.7107 H   0  0  0  0  0  0  0  0  0  0  0  0
    0.3725    7.4894    1.7080 H   0  0  0  0  0  0  0  0  0  0  0  0
    2.0453    6.4733   -1.3030 H   0  0  0  0  0  0  0  0  0  0  0  0
    1.2648    7.8595   -0.4970 H   0  0  0  0  0  0  0  0  0  0  0  0
    3.5167    8.5477    0.4526 H   0  0  0  0  0  0  0  0  0  0  0  0
    4.2779    7.1589   -0.4207 H   0  0  0  0  0  0  0  0  0  0  0  0
    3.5078    8.4939   -1.3583 H   0  0  0  0  0  0  0  0  0  0  0  0
    3.4757    4.8835    0.2534 H   0  0  0  0  0  0  0  0  0  0  0  0
    3.2991    3.5314    2.2625 H   0  0  0  0  0  0  0  0  0  0  0  0
    2.0503    1.3409    5.6588 H   0  0  0  0  0  0  0  0  0  0  0  0
    4.0789    0.4973    6.6551 H   0  0  0  0  0  0  0  0  0  0  0  0
    7.2698    2.5031    6.9250 H   0  0  0  0  0  0  0  0  0  0  0  0
    6.2403    1.3490    7.8327 H   0  0  0  0  0  0  0  0  0  0  0  0
    8.0527    0.1577    6.6462 H   0  0  0  0  0  0  0  0  0  0  0  0
    6.4617   -0.3192    5.9507 H   0  0  0  0  0  0  0  0  0  0  0  0
    7.5321    0.8570    5.0654 H   0  0  0  0  0  0  0  0  0  0  0  0
    6.2086    4.0233    5.3779 H   0  0  0  0  0  0  0  0  0  0  0  0
    4.1445    4.9467    4.4518 H   0  0  0  0  0  0  0  0  0  0  0  0
   -3.1948    1.8541   -1.0051 H   0  0  0  0  0  0  0  0  0  0  0  0
   -3.0866    3.3599   -3.0951 H   0  0  0  0  0  0  0  0  0  0  0  0
    0.4071    3.4239   -4.8586 H   0  0  0  0  0  0  0  0  0  0  0  0
   -1.0725    4.4311   -4.6895 H   0  0  0  0  0  0  0  0  0  0  0  0
   -0.9977    1.5517   -5.8225 H   0  0  0  0  0  0  0  0  0  0  0  0
   -1.0617    3.0725   -6.7983 H   0  0  0  0  0  0  0  0  0  0  0  0
   -2.4550    2.6440   -5.7446 H   0  0  0  0  0  0  0  0  0  0  0  0
    0.7344   -3.4556    2.6132 H   0  0  0  0  0  0  0  0  0  0  0  0
    0.6193   -4.7101    4.8700 H   0  0  0  0  0  0  0  0  0  0  0  0
   -0.9552   -4.9555    6.9714 H   0  0  0  0  0  0  0  0  0  0  0  0
   -2.4171   -3.9086    7.0493 H   0  0  0  0  0  0  0  0  0  0  0  0
    0.4937   -2.9615    7.5534 H   0  0  0  0  0  0  0  0  0  0  0  0
   -1.0017   -1.9430    7.6700 H   0  0  0  0  0  0  0  0  0  0  0  0
   -0.7357   -3.3121    8.8223 H   0  0  0  0  0  0  0  0  0  0  0  0
   -1.0360   -6.7517   -5.6336 H   0  0  0  0  0  0  0  0  0  0  0  0
   -4.2781   -4.5415   -2.6022 H   0  0  0  0  0  0  0  0  0  0  0  0
   -6.1544   -6.0100   -2.1154 H   0  0  0  0  0  0  0  0  0  0  0  0
   -6.9929   -8.5293   -2.4370 H   0  0  0  0  0  0  0  0  0  0  0  0
   -5.8602   -9.7955   -1.8640 H   0  0  0  0  0  0  0  0  0  0  0  0
   -6.9969   -7.4570   -0.1927 H   0  0  0  0  0  0  0  0  0  0  0  0
   -7.4309   -9.1991   -0.0664 H   0  0  0  0  0  0  0  0  0  0  0  0
   -5.7712   -8.6478    0.4084 H   0  0  0  0  0  0  0  0  0  0  0  0
   -3.5326   -9.4301   -2.2266 H   0  0  0  0  0  0  0  0  0  0  0  0
   -1.6579   -7.9768   -2.7999 H   0  0  0  0  0  0  0  0  0  0  0  0
   -1.0312   -6.2638   -0.5095 H   0  0  0  0  0  0  0  0  0  0  0  0
    1.0788   -7.1280    0.3708 H   0  0  0  0  0  0  0  0  0  0  0  0
    4.3678   -6.7499   -1.3195 H   0  0  0  0  0  0  0  0  0  0  0  0
    3.5407   -7.2157    0.2033 H   0  0  0  0  0  0  0  0  0  0  0  0
    2.7906   -9.3652   -0.8362 H   0  0  0  0  0  0  0  0  0  0  0  0
    3.5806   -8.8919   -2.3974 H   0  0  0  0  0  0  0  0  0  0  0  0
    4.5774   -9.1860   -0.9197 H   0  0  0  0  0  0  0  0  0  0  0  0
    3.0311   -6.1662   -3.3461 H   0  0  0  0  0  0  0  0  0  0  0  0
    0.9646   -5.2415   -4.2117 H   0  0  0  0  0  0  0  0  0  0  0  0
   -1.3407   -6.0366   -8.5349 H   0  0  0  0  0  0  0  0  0  0  0  0
    2.7853   -1.3087   -8.5719 H   0  0  0  0  0  0  0  0  0  0  0  0
    4.2246    0.2128   -9.9215 H   0  0  0  0  0  0  0  0  0  0  0  0
    4.0097    0.3522  -11.6970 H   0  0  0  0  0  0  0  0  0  0  0  0
    2.7772    1.0695  -10.5792 H   0  0  0  0  0  0  0  0  0  0  0  0
    0.9255   -3.0956  -12.8288 H   0  0  0  0  0  0  0  0  0  0  0  0
  1  2  2  3
  2  3  1  0
  3  4  2  0
  3  5  1  0
  5  6  2  0
  6  7  1  0
  7  8  1  0
  7  9  2  0
  9 10  1  0
  9 11  1  0
 11 12  2  0
 12 13  1  0
 13 14  2  3
 14 15  1  0
 15 16  3  0
 14 17  1  0
 17 18  3  0
  1 19  1  0
 19 20  2  0
 20 21  1  0
 21 22  1  0
 22 23  1  0
 23 24  2  0
 24 25  1  0
 25 26  2  0
 26 27  1  0
 27 28  1  0
 26 29  1  0
 29 30  2  0
 22 31  1  0
 31 32  2  0
 32 33  1  0
 33 34  2  0
 34 35  1  0
 35 36  1  0
 34 37  1  0
 37 38  2  0
 22 39  1  0
 39 40  2  0
 40 41  1  0
 41 42  1  0
 40 43  1  0
 43 44  1  0
 44 45  2  0
 45 46  1  0
 46 47  1  0
 47 48  2  0
 48 49  1  0
 49 50  2  0
 50 51  1  0
 51 52  2  0
 52 53  1  0
 53 54  1  0
 52 55  1  0
 48 56  1  0
 56 57  2  0
 57 58  1  0
 58 59  1  0
 59 60  2  0
 60 61  1  0
 61 62  2  0
 62 63  1  0
 63 64  1  0
 62 65  1  0
 58 66  2  0
 57 67  1  0
 67 68  1  0
 68 69  1  0
 69 70  2  0
 70 71  1  0
 71 72  1  0
 70 73  1  0
 73 74  1  0
 74 75  1  0
 75 76  2  0
 76 77  1  0
 77 78  1  0
 78 79  1  0
 79 80  2  0
 80 81  1  0
 81 82  2  0
 82 83  1  0
 83 84  1  0
 82 85  1  0
 85 86  2  0
 78 87  1  0
 87 88  2  0
 88 89  1  0
 89 90  2  0
 90 91  1  0
 91 92  1  0
 90 93  1  0
 93 94  2  0
 75 95  1  0
 95 96  2  3
 96 97  1  0
 97 98  2  0
 97 99  1  0
 99100  2  0
100101  1  0
101102  1  0
101103  2  0
103104  1  0
103105  1  0
105106  2  0
106107  1  0
107108  2  3
108109  1  0
109110  3  0
108111  1  0
111112  3  0
 13  2  1  0
 42 19  1  0
 66 44  1  0
 72 68  2  0
 77 73  2  0
 86 79  1  0
 94 87  1  0
107 96  1  0
 12  5  1  0
 41 21  2  0
 66 47  1  0
 78 69  1  0
106 99  1  0
 30 23  1  0
 38 31  1  0
 45 39  1  0
 55 49  1  0
 72 56  1  0
 65 59  1  0
  1113  1  0
  6114  1  0
 11115  1  0
 20116  1  0
 24117  1  0
 25118  1  0
 27119  1  0
 27120  1  0
 28121  1  0
 28122  1  0
 28123  1  0
 29124  1  0
 30125  1  0
 32126  1  0
 33127  1  0
 35128  1  0
 35129  1  0
 36130  1  0
 36131  1  0
 36132  1  0
 37133  1  0
 38134  1  0
 50135  1  0
 51136  1  0
 53137  1  0
 53138  1  0
 54139  1  0
 54140  1  0
 54141  1  0
 60142  1  0
 61143  1  0
 63144  1  0
 63145  1  0
 64146  1  0
 64147  1  0
 64148  1  0
 76149  1  0
 80150  1  0
 81151  1  0
 83152  1  0
 83153  1  0
 84154  1  0
 84155  1  0
 84156  1  0
 85157  1  0
 86158  1  0
 88159  1  0
 89160  1  0
 91161  1  0
 91162  1  0
 92163  1  0
 92164  1  0
 92165  1  0
 93166  1  0
 94167  1  0
 95168  1  0
100169  1  0
102170  1  0
102171  1  0
102172  1  0
105173  1  0
M  END

