
     RDKit          3D

 97108  0  0  0  0  0  0  0  0999 V2000
    3.3520   -0.6453   -6.2059 C   0  0  0  0  0  0  0  0  0  0  0  0
    4.2997   -1.5375   -6.3653 C   0  0  0  0  0  0  0  0  0  0  0  0
    5.2938   -1.9386   -5.4053 C   0  0  0  0  0  0  0  0  0  0  0  0
    5.3819   -1.3366   -4.2445 O   0  0  0  0  0  0  0  0  0  0  0  0
    6.0918   -2.9635   -5.8169 C   0  0  0  0  0  0  0  0  0  0  0  0
    7.1257   -3.7533   -5.2525 C   0  0  0  0  0  0  0  0  0  0  0  0
    7.6976   -4.7731   -5.8398 C   0  0  0  0  0  0  0  0  0  0  0  0
    8.9825   -5.7428   -5.0813 Cl  0  0  0  0  0  0  0  0  0  0  0  0
    7.3275   -5.1923   -7.1323 C   0  0  0  0  0  0  0  0  0  0  0  0
    7.8818   -6.2049   -7.7660 F   0  0  0  0  0  0  0  0  0  0  0  0
    6.2957   -4.3954   -7.7011 C   0  0  0  0  0  0  0  0  0  0  0  0
    5.6793   -3.3571   -7.1576 C   0  0  0  0  0  0  0  0  0  0  0  0
    4.5550   -2.4573   -7.5179 C   0  0  0  0  0  0  0  0  0  0  0  0
    3.7893   -2.4543   -8.6053 C   0  0  0  0  0  0  0  0  0  0  0  0
    4.1629   -3.4136   -9.6416 C   0  0  0  0  0  0  0  0  0  0  0  0
    4.4732   -4.2097  -10.4847 N   0  0  0  0  0  0  0  0  0  0  0  0
    2.7141   -1.6914   -8.7415 C   0  0  0  0  0  0  0  0  0  0  0  0
    1.6599   -0.9294   -8.8964 N   0  0  0  0  0  0  0  0  0  0  0  0
    3.2183    0.0648   -4.9131 C   0  0  0  0  0  0  0  0  0  0  0  0
    3.0811    1.3505   -4.6254 C   0  0  0  0  0  0  0  0  0  0  0  0
    2.9348    2.3202   -5.8287 C   0  0  0  0  0  0  0  0  0  0  0  0
    1.4181    2.2905   -6.1875 C   0  0  0  0  0  0  0  0  0  0  0  0
    2.8725    1.7689   -3.3250 C   0  0  0  0  0  0  0  0  0  0  0  0
    2.6196    3.3155   -2.5145 S   0  0  0  0  0  0  0  0  0  0  0  0
    2.3889    2.7506   -0.9360 C   0  0  0  0  0  0  0  0  0  0  0  0
    1.9717    3.0923    0.3556 C   0  0  0  0  0  0  0  0  0  0  0  0
    1.5334    4.3047    0.8526 C   0  0  0  0  0  0  0  0  0  0  0  0
    0.9282    4.3207    2.0581 C   0  0  0  0  0  0  0  0  0  0  0  0
    0.5181    5.5272    2.4842 N   0  0  0  0  0  0  0  0  0  0  0  0
    0.9261    6.6180    1.2873 S   0  0  0  0  0  0  0  0  0  0  0  0
    1.6308    5.5150    0.2471 N   0  0  0  0  0  0  0  0  0  0  0  0
    0.7806    3.1474    2.7488 C   0  0  0  0  0  0  0  0  0  0  0  0
    0.0113    2.8056    3.8742 C   0  0  0  0  0  0  0  0  0  0  0  0
   -1.2188    3.4116    4.9267 S   0  0  0  0  0  0  0  0  0  0  0  0
   -1.7359    1.7978    5.5978 C   0  0  0  0  0  0  0  0  0  0  0  0
   -2.8786    1.4597    6.2520 C   0  0  0  0  0  0  0  0  0  0  0  0
   -3.7883    2.3348    7.0732 C   0  0  0  0  0  0  0  0  0  0  0  0
   -3.3271    2.6012    8.4718 C   0  0  0  0  0  0  0  0  0  0  0  0
   -3.2343    0.0768    6.2130 C   0  0  0  0  0  0  0  0  0  0  0  0
   -1.9304   -0.7039    5.2846 Se  0  0  0  0  0  2  0  0  0  0  0  0
   -0.9061    1.1035    4.9513 C   0  0  0  0  0  0  0  0  0  0  0  0
    0.0072    1.4880    4.0768 C   0  0  0  0  0  0  0  0  0  0  0  0
    0.8046    0.9503    3.0692 N   0  0  0  0  0  0  0  0  0  0  0  0
    1.2418    1.9235    2.2700 C   0  0  0  0  0  0  0  0  0  0  0  0
    1.8756    1.8681    0.9911 C   0  0  0  0  0  0  0  0  0  0  0  0
    2.1935    0.8510    0.1932 N   0  0  0  0  0  0  0  0  0  0  0  0
    2.5225    1.4142   -1.0383 C   0  0  0  0  0  0  0  0  0  0  0  0
    2.7801    0.9482   -2.3199 C   0  0  0  0  0  0  0  0  0  0  0  0
    3.0326   -0.7291   -3.2015 Se  0  0  0  0  0  2  0  0  0  0  0  0
    2.1421   -0.5767    0.2869 C   0  0  0  0  0  0  0  0  0  0  0  0
    0.8020   -1.1409   -0.2021 C   0  0  0  0  0  0  0  0  0  0  0  0
    1.2810   -0.3987    3.1091 C   0  0  0  0  0  0  0  0  0  0  0  0
    2.7538   -0.4579    3.4712 C   0  0  0  0  0  0  0  0  0  0  0  0
   -4.7545   -0.3199    6.3018 C   0  0  0  0  0  0  0  0  0  0  0  0
   -4.8830   -0.8491    4.9441 C   0  0  0  0  0  0  0  0  0  0  0  0
   -4.7672   -1.2283    3.8477 C   0  0  0  0  0  0  0  0  0  0  0  0
   -3.4499   -1.7513    3.4632 O   0  0  0  0  0  0  0  0  0  0  0  0
   -5.6094   -1.3183    2.7463 C   0  0  0  0  0  0  0  0  0  0  0  0
   -5.7493   -1.6903    1.4683 C   0  0  0  0  0  0  0  0  0  0  0  0
   -6.8107   -1.6490    0.6388 C   0  0  0  0  0  0  0  0  0  0  0  0
   -6.8329   -2.0717   -0.6237 F   0  0  0  0  0  0  0  0  0  0  0  0
   -7.9974   -1.1049    1.2426 C   0  0  0  0  0  0  0  0  0  0  0  0
   -7.9098   -0.6967    2.5367 C   0  0  0  0  0  0  0  0  0  0  0  0
   -6.8642   -0.7378    3.3676 C   0  0  0  0  0  0  0  0  0  0  0  0
   -6.4897   -0.4310    4.7515 C   0  0  0  0  0  0  0  0  0  0  0  0
   -7.3277   -0.2639    5.6752 C   0  0  0  0  0  0  0  0  0  0  0  0
   -8.7791    0.1868    5.3064 C   0  0  0  0  0  0  0  0  0  0  0  0
   -9.9340    0.5349    5.0308 N   0  0  0  0  0  0  0  0  0  0  0  0
   -7.3190   -0.6291    7.0154 C   0  0  0  0  0  0  0  0  0  0  0  0
   -7.3296   -0.9811    8.2728 N   0  0  0  0  0  0  0  0  0  0  0  0
    2.6512   -0.3289   -6.8995 H   0  0  0  0  0  0  0  0  0  0  0  0
    7.4473   -3.4594   -4.2241 H   0  0  0  0  0  0  0  0  0  0  0  0
    6.0072   -4.6980   -8.7406 H   0  0  0  0  0  0  0  0  0  0  0  0
    3.1607    3.3216   -5.5161 H   0  0  0  0  0  0  0  0  0  0  0  0
    3.4372    1.9050   -6.6636 H   0  0  0  0  0  0  0  0  0  0  0  0
    1.3488    2.7699   -7.1696 H   0  0  0  0  0  0  0  0  0  0  0  0
    0.8704    2.9189   -5.4291 H   0  0  0  0  0  0  0  0  0  0  0  0
    1.0391    1.2717   -6.2667 H   0  0  0  0  0  0  0  0  0  0  0  0
   -4.8193    1.9126    7.1649 H   0  0  0  0  0  0  0  0  0  0  0  0
   -3.9691    3.3194    6.5047 H   0  0  0  0  0  0  0  0  0  0  0  0
   -4.0347    3.3703    8.9013 H   0  0  0  0  0  0  0  0  0  0  0  0
   -3.4253    1.6490    9.0463 H   0  0  0  0  0  0  0  0  0  0  0  0
   -2.2952    2.9216    8.4590 H   0  0  0  0  0  0  0  0  0  0  0  0
    2.4428   -1.1791    1.1084 H   0  0  0  0  0  0  0  0  0  0  0  0
    2.9087   -0.9478   -0.5460 H   0  0  0  0  0  0  0  0  0  0  0  0
    0.0809   -1.0349    0.6096 H   0  0  0  0  0  0  0  0  0  0  0  0
    0.4360   -0.4342   -0.9911 H   0  0  0  0  0  0  0  0  0  0  0  0
    0.8822   -2.1736   -0.4927 H   0  0  0  0  0  0  0  0  0  0  0  0
    0.8586   -0.8169    4.1276 H   0  0  0  0  0  0  0  0  0  0  0  0
    0.8349   -1.1505    2.4996 H   0  0  0  0  0  0  0  0  0  0  0  0
    3.0022   -0.4923    4.5115 H   0  0  0  0  0  0  0  0  0  0  0  0
    3.2345    0.4059    2.8905 H   0  0  0  0  0  0  0  0  0  0  0  0
    3.2820   -1.3297    3.0158 H   0  0  0  0  0  0  0  0  0  0  0  0
   -5.2323   -0.2045    7.0547 H   0  0  0  0  0  0  0  0  0  0  0  0
   -4.7890   -2.1145    1.0219 H   0  0  0  0  0  0  0  0  0  0  0  0
   -8.8391   -1.0617    0.6009 H   0  0  0  0  0  0  0  0  0  0  0  0
   -8.8902   -0.2608    2.9260 H   0  0  0  0  0  0  0  0  0  0  0  0
  1  2  2  3
  2  3  1  0
  3  4  2  0
  3  5  1  0
  5  6  2  0
  6  7  1  0
  7  8  1  0
  7  9  2  0
  9 10  1  0
  9 11  1  0
 11 12  2  0
 12 13  1  0
 13 14  2  3
 14 15  1  0
 15 16  3  0
 14 17  1  0
 17 18  3  0
  1 19  1  0
 19 20  2  0
 20 21  1  0
 21 22  1  0
 20 23  1  0
 23 24  1  0
 24 25  1  0
 25 26  1  0
 26 27  1  0
 27 28  1  0
 28 29  2  0
 29 30  1  0
 30 31  1  0
 28 32  1  0
 32 33  1  0
 33 34  1  0
 34 35  1  0
 35 36  1  0
 36 37  1  0
 37 38  1  0
 36 39  2  0
 39 40  1  0
 40 41  1  0
 41 42  1  0
 42 43  1  0
 43 44  1  0
 44 45  1  0
 45 46  1  0
 46 47  1  0
 47 48  1  0
 48 49  1  0
 46 50  1  0
 50 51  1  0
 43 52  1  0
 52 53  1  0
 39 54  1  0
 54 55  2  3
 55 56  1  0
 56 57  2  0
 56 58  1  0
 58 59  2  0
 59 60  1  0
 60 61  1  0
 60 62  2  0
 62 63  1  0
 63 64  2  0
 64 65  1  0
 65 66  2  3
 66 67  1  0
 67 68  3  0
 66 69  1  0
 69 70  3  0
 13  2  1  0
 49 19  1  0
 65 55  1  0
 12  5  1  0
 48 23  2  0
 64 58  1  0
 47 25  2  0
 45 26  2  0
 31 27  2  0
 44 32  2  0
 42 33  2  0
 41 35  2  0
  1 71  1  0
  6 72  1  0
 11 73  1  0
 21 74  1  0
 21 75  1  0
 22 76  1  0
 22 77  1  0
 22 78  1  0
 37 79  1  0
 37 80  1  0
 38 81  1  0
 38 82  1  0
 38 83  1  0
 50 84  1  0
 50 85  1  0
 51 86  1  0
 51 87  1  0
 51 88  1  0
 52 89  1  0
 52 90  1  0
 53 91  1  0
 53 92  1  0
 53 93  1  0
 54 94  1  0
 59 95  1  0
 62 96  1  0
 63 97  1  0
M  END

