
     RDKit          3D

100112  0  0  0  0  0  0  0  0999 V2000
    7.4699   -2.6810    0.7632 C   0  0  0  0  0  0  0  0  0  0  0  0
    7.0978   -3.7210    1.5341 C   0  0  0  0  0  0  0  0  0  0  0  0
    5.8356   -3.8177    2.2809 C   0  0  0  0  0  0  0  0  0  0  0  0
    4.8272   -3.0749    2.1590 O   0  0  0  0  0  0  0  0  0  0  0  0
    5.9818   -4.8485    3.2845 C   0  0  0  0  0  0  0  0  0  0  0  0
    5.0571   -5.2329    4.2551 C   0  0  0  0  0  0  0  0  0  0  0  0
    5.4212   -6.2277    5.1691 C   0  0  0  0  0  0  0  0  0  0  0  0
    4.2792   -6.7358    6.4026 Cl  0  0  0  0  0  0  0  0  0  0  0  0
    6.7055   -6.8024    5.1104 C   0  0  0  0  0  0  0  0  0  0  0  0
    7.0633   -7.7596    6.0007 F   0  0  0  0  0  0  0  0  0  0  0  0
    7.6240   -6.3914    4.1312 C   0  0  0  0  0  0  0  0  0  0  0  0
    7.2412   -5.4164    3.1985 C   0  0  0  0  0  0  0  0  0  0  0  0
    7.9789   -4.8149    2.0486 C   0  0  0  0  0  0  0  0  0  0  0  0
    9.1026   -5.2916    1.4543 C   0  0  0  0  0  0  0  0  0  0  0  0
    9.5652   -4.8037    0.1801 C   0  0  0  0  0  0  0  0  0  0  0  0
    9.9423   -4.4203   -0.8462 N   0  0  0  0  0  0  0  0  0  0  0  0
    9.8586   -6.3945    1.9873 C   0  0  0  0  0  0  0  0  0  0  0  0
   10.4781   -7.2809    2.4041 N   0  0  0  0  0  0  0  0  0  0  0  0
    6.5502   -1.6132    0.3458 C   0  0  0  0  0  0  0  0  0  0  0  0
    6.6611   -0.2611    0.7079 C   0  0  0  0  0  0  0  0  0  0  0  0
    7.7341    0.3017    1.5962 C   0  0  0  0  0  0  0  0  0  0  0  0
    8.9420    0.7233    0.7713 C   0  0  0  0  0  0  0  0  0  0  0  0
    5.6127    0.4855    0.1674 C   0  0  0  0  0  0  0  0  0  0  0  0
    5.0365    2.0487    0.5017 S   0  0  0  0  0  0  0  0  0  0  0  0
    3.6502    1.7787   -0.4399 C   0  0  0  0  0  0  0  0  0  0  0  0
    2.3633    2.2350   -0.3848 C   0  0  0  0  0  0  0  0  0  0  0  0
    1.8039    3.2249    0.4359 C   0  0  0  0  0  0  0  0  0  0  0  0
    0.3905    3.2497    0.6180 C   0  0  0  0  0  0  0  0  0  0  0  0
   -0.1082    4.2053    1.4401 N   0  0  0  0  0  0  0  0  0  0  0  0
    1.3008    4.9465    1.8989 S   0  0  0  0  0  0  0  0  0  0  0  0
    2.5259    4.1460    1.1227 N   0  0  0  0  0  0  0  0  0  0  0  0
   -0.3871    2.3074   -0.0589 C   0  0  0  0  0  0  0  0  0  0  0  0
   -1.7389    2.1740   -0.1854 C   0  0  0  0  0  0  0  0  0  0  0  0
   -3.1407    3.0092    0.2896 S   0  0  0  0  0  0  0  0  0  0  0  0
   -4.0555    2.0973   -0.8202 C   0  0  0  0  0  0  0  0  0  0  0  0
   -5.3768    2.0840   -1.2129 C   0  0  0  0  0  0  0  0  0  0  0  0
   -6.7657    2.9059   -0.7668 S   0  0  0  0  0  0  0  0  0  0  0  0
   -7.7347    2.0882   -1.9158 C   0  0  0  0  0  0  0  0  0  0  0  0
   -6.9514    1.1975   -2.6742 C   0  0  0  0  0  0  0  0  0  0  0  0
   -7.4497    0.3823   -3.8345 C   0  0  0  0  0  0  0  0  0  0  0  0
   -7.2820    1.1466   -5.1433 C   0  0  0  0  0  0  0  0  0  0  0  0
   -5.6269    1.2162   -2.2396 C   0  0  0  0  0  0  0  0  0  0  0  0
   -4.2068    0.4100   -2.7294 S   0  0  0  0  0  0  0  0  0  0  0  0
   -3.2844    1.2215   -1.5536 C   0  0  0  0  0  0  0  0  0  0  0  0
   -1.9559    1.2594   -1.1655 C   0  0  0  0  0  0  0  0  0  0  0  0
   -0.8073    0.7763   -1.7024 N   0  0  0  0  0  0  0  0  0  0  0  0
    0.1674    1.3681   -0.9402 C   0  0  0  0  0  0  0  0  0  0  0  0
    1.5793    1.2542   -1.0189 C   0  0  0  0  0  0  0  0  0  0  0  0
    2.3455    0.1610   -1.3424 N   0  0  0  0  0  0  0  0  0  0  0  0
    3.6027    0.5217   -0.9682 C   0  0  0  0  0  0  0  0  0  0  0  0
    4.7221   -0.2241   -0.6012 C   0  0  0  0  0  0  0  0  0  0  0  0
    5.1686   -1.8435   -0.6239 S   0  0  0  0  0  0  0  0  0  0  0  0
    1.9015   -1.2247   -1.5419 C   0  0  0  0  0  0  0  0  0  0  0  0
    2.4363   -1.7910   -2.8613 C   0  0  0  0  0  0  0  0  0  0  0  0
   -0.6787    0.3551   -3.1021 C   0  0  0  0  0  0  0  0  0  0  0  0
   -0.8978    1.5343   -4.0499 C   0  0  0  0  0  0  0  0  0  0  0  0
   -9.1592    2.3699   -2.1467 C   0  0  0  0  0  0  0  0  0  0  0  0
  -10.1154    2.1382   -1.2273 C   0  0  0  0  0  0  0  0  0  0  0  0
   -9.8925    1.6278    0.1332 C   0  0  0  0  0  0  0  0  0  0  0  0
   -8.8477    1.0718    0.5676 O   0  0  0  0  0  0  0  0  0  0  0  0
  -11.1011    1.8349    0.8982 C   0  0  0  0  0  0  0  0  0  0  0  0
  -11.3101    1.5966    2.2567 C   0  0  0  0  0  0  0  0  0  0  0  0
  -12.5457    1.9519    2.8151 C   0  0  0  0  0  0  0  0  0  0  0  0
  -12.8486    1.6528    4.5192 Cl  0  0  0  0  0  0  0  0  0  0  0  0
  -13.5314    2.5620    2.0165 C   0  0  0  0  0  0  0  0  0  0  0  0
  -14.7116    2.9456    2.5677 F   0  0  0  0  0  0  0  0  0  0  0  0
  -13.2978    2.7917    0.6501 C   0  0  0  0  0  0  0  0  0  0  0  0
  -12.0759    2.3906    0.0868 C   0  0  0  0  0  0  0  0  0  0  0  0
  -11.5662    2.4980   -1.3116 C   0  0  0  0  0  0  0  0  0  0  0  0
  -12.3116    2.6445   -2.4383 C   0  0  0  0  0  0  0  0  0  0  0  0
  -13.7377    2.8445   -2.4026 C   0  0  0  0  0  0  0  0  0  0  0  0
  -14.8836    3.0063   -2.3915 N   0  0  0  0  0  0  0  0  0  0  0  0
  -11.7656    2.4573   -3.7565 C   0  0  0  0  0  0  0  0  0  0  0  0
  -11.3397    2.3037   -4.8207 N   0  0  0  0  0  0  0  0  0  0  0  0
    8.5059   -2.5385    0.5140 H   0  0  0  0  0  0  0  0  0  0  0  0
    4.0786   -4.7704    4.3004 H   0  0  0  0  0  0  0  0  0  0  0  0
    8.6061   -6.8313    4.1371 H   0  0  0  0  0  0  0  0  0  0  0  0
    8.0441   -0.4602    2.3441 H   0  0  0  0  0  0  0  0  0  0  0  0
    7.3451    1.1761    2.1559 H   0  0  0  0  0  0  0  0  0  0  0  0
    8.6525    1.5004    0.0308 H   0  0  0  0  0  0  0  0  0  0  0  0
    9.7208    1.1378    1.4444 H   0  0  0  0  0  0  0  0  0  0  0  0
    9.3673   -0.1516    0.2386 H   0  0  0  0  0  0  0  0  0  0  0  0
   -8.5220    0.1342   -3.6887 H   0  0  0  0  0  0  0  0  0  0  0  0
   -6.8875   -0.5746   -3.8918 H   0  0  0  0  0  0  0  0  0  0  0  0
   -7.8413    2.1059   -5.1115 H   0  0  0  0  0  0  0  0  0  0  0  0
   -6.2064    1.3525   -5.3359 H   0  0  0  0  0  0  0  0  0  0  0  0
   -7.6764    0.5346   -5.9818 H   0  0  0  0  0  0  0  0  0  0  0  0
    0.7975   -1.3005   -1.5215 H   0  0  0  0  0  0  0  0  0  0  0  0
    2.2560   -1.8578   -0.6992 H   0  0  0  0  0  0  0  0  0  0  0  0
    1.9940   -2.7926   -3.0408 H   0  0  0  0  0  0  0  0  0  0  0  0
    3.5368   -1.8927   -2.8308 H   0  0  0  0  0  0  0  0  0  0  0  0
    2.1934   -1.1322   -3.7174 H   0  0  0  0  0  0  0  0  0  0  0  0
   -1.4058   -0.4555   -3.3223 H   0  0  0  0  0  0  0  0  0  0  0  0
    0.3312   -0.0203   -3.3073 H   0  0  0  0  0  0  0  0  0  0  0  0
   -1.9371    1.9074   -3.9835 H   0  0  0  0  0  0  0  0  0  0  0  0
   -0.7113    1.2129   -5.0947 H   0  0  0  0  0  0  0  0  0  0  0  0
   -0.1967    2.3575   -3.8005 H   0  0  0  0  0  0  0  0  0  0  0  0
   -9.3946    2.8194   -3.0961 H   0  0  0  0  0  0  0  0  0  0  0  0
  -10.5333    1.1517    2.8667 H   0  0  0  0  0  0  0  0  0  0  0  0
  -14.0515    3.2993    0.0765 H   0  0  0  0  0  0  0  0  0  0  0  0
  1  2  2  3
  2  3  1  0
  3  4  2  0
  3  5  1  0
  5  6  2  0
  6  7  1  0
  7  8  1  0
  7  9  2  0
  9 10  1  0
  9 11  1  0
 11 12  2  0
 12 13  1  0
 13 14  2  3
 14 15  1  0
 15 16  3  0
 14 17  1  0
 17 18  3  0
  1 19  1  0
 19 20  2  0
 20 21  1  0
 21 22  1  0
 20 23  1  0
 23 24  1  0
 24 25  1  0
 25 26  1  0
 26 27  1  0
 27 28  1  0
 28 29  2  0
 29 30  1  0
 30 31  1  0
 28 32  1  0
 32 33  1  0
 33 34  1  0
 34 35  1  0
 35 36  1  0
 36 37  1  0
 37 38  1  0
 38 39  2  0
 39 40  1  0
 40 41  1  0
 39 42  1  0
 42 43  1  0
 43 44  1  0
 44 45  1  0
 45 46  1  0
 46 47  1  0
 47 48  1  0
 48 49  1  0
 49 50  1  0
 50 51  1  0
 51 52  1  0
 49 53  1  0
 53 54  1  0
 46 55  1  0
 55 56  1  0
 38 57  1  0
 57 58  2  3
 58 59  1  0
 59 60  2  0
 59 61  1  0
 61 62  2  0
 62 63  1  0
 63 64  1  0
 63 65  2  0
 65 66  1  0
 65 67  1  0
 67 68  2  0
 68 69  1  0
 69 70  2  3
 70 71  1  0
 71 72  3  0
 70 73  1  0
 73 74  3  0
 13  2  1  0
 52 19  1  0
 69 58  1  0
 12  5  1  0
 51 23  2  0
 68 61  1  0
 50 25  2  0
 48 26  2  0
 31 27  2  0
 47 32  2  0
 45 33  2  0
 44 35  2  0
 42 36  2  0
  1 75  1  0
  6 76  1  0
 11 77  1  0
 21 78  1  0
 21 79  1  0
 22 80  1  0
 22 81  1  0
 22 82  1  0
 40 83  1  0
 40 84  1  0
 41 85  1  0
 41 86  1  0
 41 87  1  0
 53 88  1  0
 53 89  1  0
 54 90  1  0
 54 91  1  0
 54 92  1  0
 55 93  1  0
 55 94  1  0
 56 95  1  0
 56 96  1  0
 56 97  1  0
 57 98  1  0
 62 99  1  0
 67100  1  0
M  END

