
     RDKit          3D

 97108  0  0  0  0  0  0  0  0999 V2000
    7.2165    0.8110    3.1524 C   0  0  0  0  0  0  0  0  0  0  0  0
    6.5903    1.1598    4.2964 C   0  0  0  0  0  0  0  0  0  0  0  0
    7.0796    0.8294    5.6228 C   0  0  0  0  0  0  0  0  0  0  0  0
    8.1750    0.2474    5.9102 O   0  0  0  0  0  0  0  0  0  0  0  0
    6.1164    1.2770    6.6186 C   0  0  0  0  0  0  0  0  0  0  0  0
    6.1437    1.1440    8.0019 C   0  0  0  0  0  0  0  0  0  0  0  0
    5.0792    1.6140    8.7892 C   0  0  0  0  0  0  0  0  0  0  0  0
    5.1165    1.4701   10.5299 Cl  0  0  0  0  0  0  0  0  0  0  0  0
    4.0465    2.2051    8.1345 C   0  0  0  0  0  0  0  0  0  0  0  0
    3.0343    2.6810    8.8906 F   0  0  0  0  0  0  0  0  0  0  0  0
    4.0149    2.3449    6.7434 C   0  0  0  0  0  0  0  0  0  0  0  0
    5.0459    1.8837    5.9743 C   0  0  0  0  0  0  0  0  0  0  0  0
    5.3061    1.8502    4.4947 C   0  0  0  0  0  0  0  0  0  0  0  0
    4.7923    2.7506    3.7005 C   0  0  0  0  0  0  0  0  0  0  0  0
    3.3803    3.3780    3.9893 C   0  0  0  0  0  0  0  0  0  0  0  0
    2.4760    3.7611    4.1767 N   0  0  0  0  0  0  0  0  0  0  0  0
    5.4264    3.5112    2.7888 C   0  0  0  0  0  0  0  0  0  0  0  0
    6.0728    4.2937    1.8824 N   0  0  0  0  0  0  0  0  0  0  0  0
    6.6380    1.1181    1.8991 C   0  0  0  0  0  0  0  0  0  0  0  0
    6.6457    1.6068    0.6923 C   0  0  0  0  0  0  0  0  0  0  0  0
    7.9976    2.3066    0.3260 C   0  0  0  0  0  0  0  0  0  0  0  0
    9.0273    1.2250    0.0847 C   0  0  0  0  0  0  0  0  0  0  0  0
    5.6431    1.5533   -0.2138 C   0  0  0  0  0  0  0  0  0  0  0  0
    5.2940    2.2690   -1.8196 S   0  0  0  0  0  0  0  0  0  0  0  0
    3.7167    1.7306   -2.0078 C   0  0  0  0  0  0  0  0  0  0  0  0
    2.5498    1.7560   -2.7934 C   0  0  0  0  0  0  0  0  0  0  0  0
    2.2964    2.4183   -3.9787 C   0  0  0  0  0  0  0  0  0  0  0  0
    1.0398    2.3350   -4.4659 C   0  0  0  0  0  0  0  0  0  0  0  0
    0.8153    2.9711   -5.6183 N   0  0  0  0  0  0  0  0  0  0  0  0
    2.2937    3.6607   -6.0136 S   0  0  0  0  0  0  0  0  0  0  0  0
    3.1745    3.1225   -4.6913 N   0  0  0  0  0  0  0  0  0  0  0  0
    0.0685    1.6016   -3.7672 C   0  0  0  0  0  0  0  0  0  0  0  0
   -1.2676    1.3821   -4.0051 C   0  0  0  0  0  0  0  0  0  0  0  0
   -2.6339    1.7134   -5.0441 S   0  0  0  0  0  0  0  0  0  0  0  0
   -3.8621    0.7975   -4.0880 C   0  0  0  0  0  0  0  0  0  0  0  0
   -5.1733    0.5330   -4.2680 C   0  0  0  0  0  0  0  0  0  0  0  0
   -6.0076    1.2229   -5.4014 C   0  0  0  0  0  0  0  0  0  0  0  0
   -6.3270    2.6160   -5.0038 C   0  0  0  0  0  0  0  0  0  0  0  0
   -5.8709   -0.2463   -3.4708 C   0  0  0  0  0  0  0  0  0  0  0  0
   -4.4118   -0.7515   -2.1383 Se  0  0  0  0  0  2  0  0  0  0  0  0
   -3.0836    0.4140   -3.1988 C   0  0  0  0  0  0  0  0  0  0  0  0
   -1.8075    0.6183   -3.0201 C   0  0  0  0  0  0  0  0  0  0  0  0
   -0.7716    0.3486   -2.1196 N   0  0  0  0  0  0  0  0  0  0  0  0
    0.3313    0.9274   -2.5675 C   0  0  0  0  0  0  0  0  0  0  0  0
    1.6364    1.0305   -2.0884 C   0  0  0  0  0  0  0  0  0  0  0  0
    2.1858    0.5847   -0.9589 N   0  0  0  0  0  0  0  0  0  0  0  0
    3.4858    1.0312   -0.8865 C   0  0  0  0  0  0  0  0  0  0  0  0
    4.5192    0.9786    0.0106 C   0  0  0  0  0  0  0  0  0  0  0  0
    4.7236    0.3122    1.8429 Se  0  0  0  0  0  2  0  0  0  0  0  0
    1.6567   -0.3219    0.0146 C   0  0  0  0  0  0  0  0  0  0  0  0
    1.9978   -1.7334   -0.3804 C   0  0  0  0  0  0  0  0  0  0  0  0
   -1.0568   -0.4137   -0.9353 C   0  0  0  0  0  0  0  0  0  0  0  0
   -1.5910    0.4694    0.1890 C   0  0  0  0  0  0  0  0  0  0  0  0
   -7.0983   -0.8206   -2.9642 C   0  0  0  0  0  0  0  0  0  0  0  0
   -7.0444   -2.2181   -2.7803 C   0  0  0  0  0  0  0  0  0  0  0  0
   -8.0738   -3.0078   -2.2218 C   0  0  0  0  0  0  0  0  0  0  0  0
   -9.2585   -2.6152   -1.9702 O   0  0  0  0  0  0  0  0  0  0  0  0
   -7.5153   -4.3541   -2.0139 C   0  0  0  0  0  0  0  0  0  0  0  0
   -8.1987   -5.4227   -1.4357 C   0  0  0  0  0  0  0  0  0  0  0  0
   -7.4597   -6.6068   -1.2932 C   0  0  0  0  0  0  0  0  0  0  0  0
   -6.1834   -6.6827   -1.6920 C   0  0  0  0  0  0  0  0  0  0  0  0
   -5.4925   -7.8461   -1.5407 F   0  0  0  0  0  0  0  0  0  0  0  0
   -5.5362   -5.5577   -2.2807 C   0  0  0  0  0  0  0  0  0  0  0  0
   -6.2360   -4.4097   -2.4247 C   0  0  0  0  0  0  0  0  0  0  0  0
   -5.8194   -3.0171   -2.9843 C   0  0  0  0  0  0  0  0  0  0  0  0
   -5.0150   -3.0940   -4.0129 C   0  0  0  0  0  0  0  0  0  0  0  0
   -5.3079   -2.3019   -5.2527 C   0  0  0  0  0  0  0  0  0  0  0  0
   -5.4931   -1.7485   -6.1078 N   0  0  0  0  0  0  0  0  0  0  0  0
   -3.8021   -3.8296   -3.9544 C   0  0  0  0  0  0  0  0  0  0  0  0
   -2.8103   -4.4473   -3.8987 N   0  0  0  0  0  0  0  0  0  0  0  0
    8.1359    0.3152    3.2030 H   0  0  0  0  0  0  0  0  0  0  0  0
    6.9710    0.6804    8.4570 H   0  0  0  0  0  0  0  0  0  0  0  0
    3.1464    2.8131    6.3592 H   0  0  0  0  0  0  0  0  0  0  0  0
    8.3628    2.8930    1.1935 H   0  0  0  0  0  0  0  0  0  0  0  0
    7.9125    2.9594   -0.4936 H   0  0  0  0  0  0  0  0  0  0  0  0
    9.2455    0.6039    0.9977 H   0  0  0  0  0  0  0  0  0  0  0  0
   10.0365    1.6299   -0.1823 H   0  0  0  0  0  0  0  0  0  0  0  0
    8.7829    0.5321   -0.7166 H   0  0  0  0  0  0  0  0  0  0  0  0
   -6.8868    0.6432   -5.6286 H   0  0  0  0  0  0  0  0  0  0  0  0
   -5.3679    1.2450   -6.3243 H   0  0  0  0  0  0  0  0  0  0  0  0
   -5.6688    3.4045   -5.4723 H   0  0  0  0  0  0  0  0  0  0  0  0
   -6.1527    2.7456   -3.8870 H   0  0  0  0  0  0  0  0  0  0  0  0
   -7.4019    2.8717   -5.1653 H   0  0  0  0  0  0  0  0  0  0  0  0
    0.7993   -0.1408    0.5305 H   0  0  0  0  0  0  0  0  0  0  0  0
    2.4336   -0.2674    0.9717 H   0  0  0  0  0  0  0  0  0  0  0  0
    3.1063   -1.8433   -0.5934 H   0  0  0  0  0  0  0  0  0  0  0  0
    1.7378   -2.4302    0.3995 H   0  0  0  0  0  0  0  0  0  0  0  0
    1.4510   -2.0001   -1.3206 H   0  0  0  0  0  0  0  0  0  0  0  0
   -2.0556   -1.0032   -1.1512 H   0  0  0  0  0  0  0  0  0  0  0  0
   -0.5078   -1.3005   -0.6811 H   0  0  0  0  0  0  0  0  0  0  0  0
   -2.6493    0.8541   -0.1019 H   0  0  0  0  0  0  0  0  0  0  0  0
   -1.7828   -0.1005    1.1284 H   0  0  0  0  0  0  0  0  0  0  0  0
   -1.0277    1.3884    0.3088 H   0  0  0  0  0  0  0  0  0  0  0  0
   -8.0145   -0.3738   -2.6900 H   0  0  0  0  0  0  0  0  0  0  0  0
   -9.1885   -5.3708   -1.1208 H   0  0  0  0  0  0  0  0  0  0  0  0
   -7.9427   -7.4836   -0.8278 H   0  0  0  0  0  0  0  0  0  0  0  0
   -4.5094   -5.6968   -2.5686 H   0  0  0  0  0  0  0  0  0  0  0  0
  1  2  2  3
  2  3  1  0
  3  4  2  0
  3  5  1  0
  5  6  2  0
  6  7  1  0
  7  8  1  0
  7  9  2  0
  9 10  1  0
  9 11  1  0
 11 12  2  0
 12 13  1  0
 13 14  2  3
 14 15  1  0
 15 16  3  0
 14 17  1  0
 17 18  3  0
  1 19  1  0
 19 20  2  0
 20 21  1  0
 21 22  1  0
 20 23  1  0
 23 24  1  0
 24 25  1  0
 25 26  1  0
 26 27  1  0
 27 28  1  0
 28 29  2  0
 29 30  1  0
 30 31  1  0
 28 32  1  0
 32 33  1  0
 33 34  1  0
 34 35  1  0
 35 36  1  0
 36 37  1  0
 37 38  1  0
 36 39  2  0
 39 40  1  0
 40 41  1  0
 41 42  1  0
 42 43  1  0
 43 44  1  0
 44 45  1  0
 45 46  1  0
 46 47  1  0
 47 48  1  0
 48 49  1  0
 46 50  1  0
 50 51  1  0
 43 52  1  0
 52 53  1  0
 39 54  1  0
 54 55  2  3
 55 56  1  0
 56 57  2  0
 56 58  1  0
 58 59  2  0
 59 60  1  0
 60 61  2  0
 61 62  1  0
 61 63  1  0
 63 64  2  0
 64 65  1  0
 65 66  2  3
 66 67  1  0
 67 68  3  0
 66 69  1  0
 69 70  3  0
 13  2  1  0
 49 19  1  0
 65 55  1  0
 12  5  1  0
 48 23  2  0
 64 58  1  0
 47 25  2  0
 45 26  2  0
 31 27  2  0
 44 32  2  0
 42 33  2  0
 41 35  2  0
  1 71  1  0
  6 72  1  0
 11 73  1  0
 21 74  1  0
 21 75  1  0
 22 76  1  0
 22 77  1  0
 22 78  1  0
 37 79  1  0
 37 80  1  0
 38 81  1  0
 38 82  1  0
 38 83  1  0
 50 84  1  0
 50 85  1  0
 51 86  1  0
 51 87  1  0
 51 88  1  0
 52 89  1  0
 52 90  1  0
 53 91  1  0
 53 92  1  0
 53 93  1  0
 54 94  1  0
 59 95  1  0
 60 96  1  0
 63 97  1  0
M  END

