
     RDKit          3D

170188  0  0  0  0  0  0  0  0999 V2000
   -2.9938    2.2028   -8.0068 C   0  0  0  0  0  0  0  0  0  0  0  0
   -4.2310    1.7047   -8.1891 C   0  0  0  0  0  0  0  0  0  0  0  0
   -4.8941    0.7062   -7.3424 C   0  0  0  0  0  0  0  0  0  0  0  0
   -4.5943    0.4137   -6.1546 O   0  0  0  0  0  0  0  0  0  0  0  0
   -6.0156    0.1625   -8.0734 C   0  0  0  0  0  0  0  0  0  0  0  0
   -6.8429   -0.9002   -7.7121 C   0  0  0  0  0  0  0  0  0  0  0  0
   -7.8141   -1.3300   -8.6243 C   0  0  0  0  0  0  0  0  0  0  0  0
   -8.8680   -2.6704   -8.2007 Cl  0  0  0  0  0  0  0  0  0  0  0  0
   -7.9286   -0.7064   -9.8830 C   0  0  0  0  0  0  0  0  0  0  0  0
   -8.8417   -1.1491  -10.7830 F   0  0  0  0  0  0  0  0  0  0  0  0
   -7.0823    0.3630  -10.2249 C   0  0  0  0  0  0  0  0  0  0  0  0
   -6.1382    0.8144   -9.2886 C   0  0  0  0  0  0  0  0  0  0  0  0
   -5.1163    1.8988   -9.3814 C   0  0  0  0  0  0  0  0  0  0  0  0
   -5.1266    2.9520  -10.2415 C   0  0  0  0  0  0  0  0  0  0  0  0
   -4.2455    4.0828  -10.0991 C   0  0  0  0  0  0  0  0  0  0  0  0
   -3.5449    5.0000   -9.9945 N   0  0  0  0  0  0  0  0  0  0  0  0
   -6.1105    3.0912  -11.2813 C   0  0  0  0  0  0  0  0  0  0  0  0
   -6.8968    3.2183  -12.1201 N   0  0  0  0  0  0  0  0  0  0  0  0
   -2.0710    1.7696   -6.9472 C   0  0  0  0  0  0  0  0  0  0  0  0
   -1.2442    2.6452   -6.2355 C   0  0  0  0  0  0  0  0  0  0  0  0
   -0.3144    1.9473   -5.4641 C   0  0  0  0  0  0  0  0  0  0  0  0
    0.7379    2.3574   -4.4424 C   0  0  0  0  0  0  0  0  0  0  0  0
    1.7680    3.2725   -5.1180 C   0  0  0  0  0  0  0  0  0  0  0  0
    3.0861    2.8578   -5.3954 C   0  0  0  0  0  0  0  0  0  0  0  0
    3.9904    3.7272   -6.0177 C   0  0  0  0  0  0  0  0  0  0  0  0
    3.5989    5.0281   -6.3723 C   0  0  0  0  0  0  0  0  0  0  0  0
    4.5663    5.9691   -7.0422 C   0  0  0  0  0  0  0  0  0  0  0  0
    4.1637    6.2320   -8.4944 C   0  0  0  0  0  0  0  0  0  0  0  0
    2.2946    5.4513   -6.0818 C   0  0  0  0  0  0  0  0  0  0  0  0
    1.3903    4.5829   -5.4703 C   0  0  0  0  0  0  0  0  0  0  0  0
    0.0981    2.9697   -3.1851 C   0  0  0  0  0  0  0  0  0  0  0  0
   -1.1373    2.4856   -2.6983 C   0  0  0  0  0  0  0  0  0  0  0  0
   -1.6679    2.9569   -1.4970 C   0  0  0  0  0  0  0  0  0  0  0  0
   -0.9759    3.9080   -0.7401 C   0  0  0  0  0  0  0  0  0  0  0  0
   -1.5718    4.4387    0.5352 C   0  0  0  0  0  0  0  0  0  0  0  0
   -2.4451    5.6570    0.2562 C   0  0  0  0  0  0  0  0  0  0  0  0
    0.2575    4.3869   -1.2000 C   0  0  0  0  0  0  0  0  0  0  0  0
    0.7980    3.9104   -2.3975 C   0  0  0  0  0  0  0  0  0  0  0  0
    1.2589    0.9596   -4.1005 C   0  0  0  0  0  0  0  0  0  0  0  0
    0.5531   -0.0367   -4.7426 C   0  0  0  0  0  0  0  0  0  0  0  0
   -0.4138    0.5999   -5.5835 C   0  0  0  0  0  0  0  0  0  0  0  0
   -1.6309    0.1484   -6.6364 S   0  0  0  0  0  0  0  0  0  0  0  0
    0.4920   -1.4600   -3.8280 S   0  0  0  0  0  0  0  0  0  0  0  0
    1.5449   -0.8347   -2.6506 C   0  0  0  0  0  0  0  0  0  0  0  0
    1.8601    0.4704   -2.9460 C   0  0  0  0  0  0  0  0  0  0  0  0
    2.6599    1.2011   -1.6647 S   0  0  0  0  0  0  0  0  0  0  0  0
    2.6076   -0.2024   -0.6994 C   0  0  0  0  0  0  0  0  0  0  0  0
    3.0373   -0.3178    0.6298 C   0  0  0  0  0  0  0  0  0  0  0  0
    3.6836    0.8141    1.3042 C   0  0  0  0  0  0  0  0  0  0  0  0
    5.0486    0.9630    1.5021 C   0  0  0  0  0  0  0  0  0  0  0  0
    5.3749    2.1456    2.1787 C   0  0  0  0  0  0  0  0  0  0  0  0
    4.2648    2.9165    2.5018 C   0  0  0  0  0  0  0  0  0  0  0  0
    4.2863    4.2243    3.2319 C   0  0  0  0  0  0  0  0  0  0  0  0
    3.9107    5.3732    2.3026 C   0  0  0  0  0  0  0  0  0  0  0  0
    2.8752    2.1424    1.9480 S   0  0  0  0  0  0  0  0  0  0  0  0
    2.7172   -1.5113    1.3031 C   0  0  0  0  0  0  0  0  0  0  0  0
    1.9691   -2.5224    0.6632 C   0  0  0  0  0  0  0  0  0  0  0  0
    1.5981   -2.4402   -0.6918 C   0  0  0  0  0  0  0  0  0  0  0  0
    0.9153   -3.5637   -1.3574 C   0  0  0  0  0  0  0  0  0  0  0  0
    1.4291   -4.2876   -2.4288 C   0  0  0  0  0  0  0  0  0  0  0  0
    0.6421   -5.3921   -2.7782 C   0  0  0  0  0  0  0  0  0  0  0  0
   -0.4972   -5.5271   -1.9920 C   0  0  0  0  0  0  0  0  0  0  0  0
   -1.4643   -6.6691   -2.0419 C   0  0  0  0  0  0  0  0  0  0  0  0
   -1.1179   -7.7127   -0.9838 C   0  0  0  0  0  0  0  0  0  0  0  0
   -0.5105   -4.2999   -0.8433 S   0  0  0  0  0  0  0  0  0  0  0  0
    1.9310   -1.2454   -1.3686 C   0  0  0  0  0  0  0  0  0  0  0  0
    1.4916   -3.6998    1.7971 S   0  0  0  0  0  0  0  0  0  0  0  0
    2.2739   -2.9484    3.0822 C   0  0  0  0  0  0  0  0  0  0  0  0
    2.1605   -3.0570    4.4690 C   0  0  0  0  0  0  0  0  0  0  0  0
    2.8824   -2.0579    5.0993 C   0  0  0  0  0  0  0  0  0  0  0  0
    3.4558   -0.9203    3.9828 S   0  0  0  0  0  0  0  0  0  0  0  0
    2.9114   -1.8126    2.6563 C   0  0  0  0  0  0  0  0  0  0  0  0
    2.2798   -1.8128    6.3771 C   0  0  0  0  0  0  0  0  0  0  0  0
    2.1768   -0.4230    7.3015 S   0  0  0  0  0  0  0  0  0  0  0  0
    0.6612   -0.8314    7.9463 C   0  0  0  0  0  0  0  0  0  0  0  0
    0.2165   -2.0371    7.4010 C   0  0  0  0  0  0  0  0  0  0  0  0
    1.1432   -2.5622    6.4931 C   0  0  0  0  0  0  0  0  0  0  0  0
    0.9468   -3.4907    5.3001 C   0  0  0  0  0  0  0  0  0  0  0  0
    1.0179   -4.9416    5.7879 C   0  0  0  0  0  0  0  0  0  0  0  0
    2.0061   -5.8418    5.3365 C   0  0  0  0  0  0  0  0  0  0  0  0
    2.0681   -7.1435    5.8438 C   0  0  0  0  0  0  0  0  0  0  0  0
    1.1445   -7.5788    6.8048 C   0  0  0  0  0  0  0  0  0  0  0  0
    1.2198   -8.9761    7.3519 C   0  0  0  0  0  0  0  0  0  0  0  0
    0.5733   -9.9703    6.3913 C   0  0  0  0  0  0  0  0  0  0  0  0
    0.1339   -6.7043    7.2274 C   0  0  0  0  0  0  0  0  0  0  0  0
    0.0726   -5.4030    6.7261 C   0  0  0  0  0  0  0  0  0  0  0  0
   -0.3484   -3.1536    4.5391 C   0  0  0  0  0  0  0  0  0  0  0  0
   -1.1355   -4.1547    3.9323 C   0  0  0  0  0  0  0  0  0  0  0  0
   -2.2484   -3.8160    3.1555 C   0  0  0  0  0  0  0  0  0  0  0  0
   -2.5972   -2.4714    2.9605 C   0  0  0  0  0  0  0  0  0  0  0  0
   -3.7683   -2.1037    2.0929 C   0  0  0  0  0  0  0  0  0  0  0  0
   -3.3172   -1.8046    0.6646 C   0  0  0  0  0  0  0  0  0  0  0  0
   -1.8003   -1.4699    3.5250 C   0  0  0  0  0  0  0  0  0  0  0  0
   -0.6839   -1.8039    4.2912 C   0  0  0  0  0  0  0  0  0  0  0  0
   -0.1155   -0.0023    8.8797 C   0  0  0  0  0  0  0  0  0  0  0  0
   -0.3909    1.3005    8.6724 C   0  0  0  0  0  0  0  0  0  0  0  0
    0.0051    2.1014    7.5066 C   0  0  0  0  0  0  0  0  0  0  0  0
    0.2575    1.6617    6.3546 O   0  0  0  0  0  0  0  0  0  0  0  0
   -0.0385    3.5028    7.8787 C   0  0  0  0  0  0  0  0  0  0  0  0
    0.3849    4.6248    7.1511 C   0  0  0  0  0  0  0  0  0  0  0  0
    0.9813    4.4931    5.5056 Cl  0  0  0  0  0  0  0  0  0  0  0  0
    0.3390    5.8787    7.7787 C   0  0  0  0  0  0  0  0  0  0  0  0
   -0.1005    5.9910    9.1078 C   0  0  0  0  0  0  0  0  0  0  0  0
   -0.5335    4.8578    9.8142 C   0  0  0  0  0  0  0  0  0  0  0  0
   -0.5243    3.6119    9.1726 C   0  0  0  0  0  0  0  0  0  0  0  0
   -0.9125    2.2664    9.6808 C   0  0  0  0  0  0  0  0  0  0  0  0
   -1.7891    1.9978   10.6816 C   0  0  0  0  0  0  0  0  0  0  0  0
   -2.3419    3.0298   11.5210 C   0  0  0  0  0  0  0  0  0  0  0  0
   -2.7948    3.8493   12.2012 N   0  0  0  0  0  0  0  0  0  0  0  0
   -2.3490    0.6836   10.8794 C   0  0  0  0  0  0  0  0  0  0  0  0
   -2.8159   -0.3639   11.0414 N   0  0  0  0  0  0  0  0  0  0  0  0
   -2.5741    2.9010   -8.7087 H   0  0  0  0  0  0  0  0  0  0  0  0
   -6.7229   -1.3926   -6.7544 H   0  0  0  0  0  0  0  0  0  0  0  0
   -7.1599    0.7805  -11.2124 H   0  0  0  0  0  0  0  0  0  0  0  0
   -1.3184    3.7213   -6.2816 H   0  0  0  0  0  0  0  0  0  0  0  0
    3.4266    1.8616   -5.1452 H   0  0  0  0  0  0  0  0  0  0  0  0
    4.9980    3.3851   -6.2204 H   0  0  0  0  0  0  0  0  0  0  0  0
    4.5803    6.9315   -6.4896 H   0  0  0  0  0  0  0  0  0  0  0  0
    5.5974    5.5551   -7.0252 H   0  0  0  0  0  0  0  0  0  0  0  0
    4.9048    6.9149   -8.9644 H   0  0  0  0  0  0  0  0  0  0  0  0
    3.1663    6.7200   -8.5364 H   0  0  0  0  0  0  0  0  0  0  0  0
    4.1376    5.2784   -9.0637 H   0  0  0  0  0  0  0  0  0  0  0  0
    1.9751    6.4561   -6.3283 H   0  0  0  0  0  0  0  0  0  0  0  0
    0.3940    4.9447   -5.2505 H   0  0  0  0  0  0  0  0  0  0  0  0
   -1.6861    1.7217   -3.2342 H   0  0  0  0  0  0  0  0  0  0  0  0
   -2.6203    2.5702   -1.1536 H   0  0  0  0  0  0  0  0  0  0  0  0
   -2.1875    3.6522    1.0241 H   0  0  0  0  0  0  0  0  0  0  0  0
   -0.7664    4.7190    1.2495 H   0  0  0  0  0  0  0  0  0  0  0  0
   -3.2328    5.4092   -0.4881 H   0  0  0  0  0  0  0  0  0  0  0  0
   -2.9387    5.9853    1.1977 H   0  0  0  0  0  0  0  0  0  0  0  0
   -1.8236    6.4961   -0.1303 H   0  0  0  0  0  0  0  0  0  0  0  0
    0.8124    5.1185   -0.6247 H   0  0  0  0  0  0  0  0  0  0  0  0
    1.7771    4.2618   -2.6911 H   0  0  0  0  0  0  0  0  0  0  0  0
    5.7856    0.2395    1.1779 H   0  0  0  0  0  0  0  0  0  0  0  0
    6.3916    2.4268    2.4215 H   0  0  0  0  0  0  0  0  0  0  0  0
    5.3028    4.4058    3.6480 H   0  0  0  0  0  0  0  0  0  0  0  0
    3.5714    4.1778    4.0796 H   0  0  0  0  0  0  0  0  0  0  0  0
    2.8764    5.2413    1.9213 H   0  0  0  0  0  0  0  0  0  0  0  0
    4.6142    5.4174    1.4446 H   0  0  0  0  0  0  0  0  0  0  0  0
    3.9673    6.3306    2.8597 H   0  0  0  0  0  0  0  0  0  0  0  0
    2.3636   -4.0443   -2.9178 H   0  0  0  0  0  0  0  0  0  0  0  0
    0.9068   -6.0775   -3.5716 H   0  0  0  0  0  0  0  0  0  0  0  0
   -1.4373   -7.1456   -3.0475 H   0  0  0  0  0  0  0  0  0  0  0  0
   -2.4918   -6.2881   -1.8586 H   0  0  0  0  0  0  0  0  0  0  0  0
   -0.0810   -8.0865   -1.1271 H   0  0  0  0  0  0  0  0  0  0  0  0
   -1.8188   -8.5716   -1.0625 H   0  0  0  0  0  0  0  0  0  0  0  0
   -1.2067   -7.2742    0.0331 H   0  0  0  0  0  0  0  0  0  0  0  0
   -0.7796   -2.4288    7.5531 H   0  0  0  0  0  0  0  0  0  0  0  0
    2.7432   -5.5488    4.6025 H   0  0  0  0  0  0  0  0  0  0  0  0
    2.8434   -7.8141    5.4917 H   0  0  0  0  0  0  0  0  0  0  0  0
    2.2813   -9.2622    7.5152 H   0  0  0  0  0  0  0  0  0  0  0  0
    0.7065   -9.0390    8.3367 H   0  0  0  0  0  0  0  0  0  0  0  0
   -0.4944   -9.7114    6.2297 H   0  0  0  0  0  0  0  0  0  0  0  0
    1.1080   -9.9621    5.4157 H   0  0  0  0  0  0  0  0  0  0  0  0
    0.6339  -10.9945    6.8174 H   0  0  0  0  0  0  0  0  0  0  0  0
   -0.5978   -7.0261    7.9555 H   0  0  0  0  0  0  0  0  0  0  0  0
   -0.7141   -4.7525    7.0772 H   0  0  0  0  0  0  0  0  0  0  0  0
   -0.8763   -5.2014    4.0235 H   0  0  0  0  0  0  0  0  0  0  0  0
   -2.8310   -4.6053    2.6961 H   0  0  0  0  0  0  0  0  0  0  0  0
   -4.2798   -1.2063    2.5086 H   0  0  0  0  0  0  0  0  0  0  0  0
   -4.5146   -2.9292    2.0756 H   0  0  0  0  0  0  0  0  0  0  0  0
   -4.1887   -1.4754    0.0589 H   0  0  0  0  0  0  0  0  0  0  0  0
   -2.5532   -0.9977    0.6570 H   0  0  0  0  0  0  0  0  0  0  0  0
   -2.8898   -2.7174    0.1989 H   0  0  0  0  0  0  0  0  0  0  0  0
   -2.0275   -0.4254    3.3502 H   0  0  0  0  0  0  0  0  0  0  0  0
   -0.0688   -0.9983    4.6703 H   0  0  0  0  0  0  0  0  0  0  0  0
   -0.3839   -0.4803    9.8071 H   0  0  0  0  0  0  0  0  0  0  0  0
    0.6687    6.7633    7.2492 H   0  0  0  0  0  0  0  0  0  0  0  0
   -0.0971    6.9589    9.5939 H   0  0  0  0  0  0  0  0  0  0  0  0
   -0.8263    4.9690   10.8462 H   0  0  0  0  0  0  0  0  0  0  0  0
  1  2  2  3
  2  3  1  0
  3  4  2  0
  3  5  1  0
  5  6  2  0
  6  7  1  0
  7  8  1  0
  7  9  2  0
  9 10  1  0
  9 11  1  0
 11 12  2  0
 12 13  1  0
 13 14  2  3
 14 15  1  0
 15 16  3  0
 14 17  1  0
 17 18  3  0
  1 19  1  0
 19 20  2  0
 20 21  1  0
 21 22  1  0
 22 23  1  0
 23 24  2  0
 24 25  1  0
 25 26  2  0
 26 27  1  0
 27 28  1  0
 26 29  1  0
 29 30  2  0
 22 31  1  0
 31 32  2  0
 32 33  1  0
 33 34  2  0
 34 35  1  0
 35 36  1  0
 34 37  1  0
 37 38  2  0
 22 39  1  0
 39 40  2  0
 40 41  1  0
 41 42  1  0
 40 43  1  0
 43 44  1  0
 44 45  2  0
 45 46  1  0
 46 47  1  0
 47 48  2  0
 48 49  1  0
 49 50  2  0
 50 51  1  0
 51 52  2  0
 52 53  1  0
 53 54  1  0
 52 55  1  0
 48 56  1  0
 56 57  2  0
 57 58  1  0
 58 59  1  0
 59 60  2  0
 60 61  1  0
 61 62  2  0
 62 63  1  0
 63 64  1  0
 62 65  1  0
 58 66  2  0
 57 67  1  0
 67 68  1  0
 68 69  1  0
 69 70  2  0
 70 71  1  0
 71 72  1  0
 70 73  1  0
 73 74  1  0
 74 75  1  0
 75 76  2  0
 76 77  1  0
 77 78  1  0
 78 79  1  0
 79 80  2  0
 80 81  1  0
 81 82  2  0
 82 83  1  0
 83 84  1  0
 82 85  1  0
 85 86  2  0
 78 87  1  0
 87 88  2  0
 88 89  1  0
 89 90  2  0
 90 91  1  0
 91 92  1  0
 90 93  1  0
 93 94  2  0
 75 95  1  0
 95 96  2  3
 96 97  1  0
 97 98  2  0
 97 99  1  0
 99100  2  0
100101  1  0
100102  1  0
102103  2  0
103104  1  0
104105  2  0
105106  1  0
106107  2  3
107108  1  0
108109  3  0
107110  1  0
110111  3  0
 13  2  1  0
 42 19  1  0
 66 44  1  0
 72 68  2  0
 77 73  2  0
 86 79  1  0
 94 87  1  0
106 96  1  0
 12  5  1  0
 41 21  2  0
 66 47  1  0
 78 69  1  0
105 99  1  0
 30 23  1  0
 38 31  1  0
 45 39  1  0
 55 49  1  0
 72 56  1  0
 65 59  1  0
  1112  1  0
  6113  1  0
 11114  1  0
 20115  1  0
 24116  1  0
 25117  1  0
 27118  1  0
 27119  1  0
 28120  1  0
 28121  1  0
 28122  1  0
 29123  1  0
 30124  1  0
 32125  1  0
 33126  1  0
 35127  1  0
 35128  1  0
 36129  1  0
 36130  1  0
 36131  1  0
 37132  1  0
 38133  1  0
 50134  1  0
 51135  1  0
 53136  1  0
 53137  1  0
 54138  1  0
 54139  1  0
 54140  1  0
 60141  1  0
 61142  1  0
 63143  1  0
 63144  1  0
 64145  1  0
 64146  1  0
 64147  1  0
 76148  1  0
 80149  1  0
 81150  1  0
 83151  1  0
 83152  1  0
 84153  1  0
 84154  1  0
 84155  1  0
 85156  1  0
 86157  1  0
 88158  1  0
 89159  1  0
 91160  1  0
 91161  1  0
 92162  1  0
 92163  1  0
 92164  1  0
 93165  1  0
 94166  1  0
 95167  1  0
102168  1  0
103169  1  0
104170  1  0
M  END

