
     RDKit          3D

103115  0  0  0  0  0  0  0  0999 V2000
    1.5106    8.9851    0.1344 C   0  0  0  0  0  0  0  0  0  0  0  0
    2.0391    8.7880    1.3838 C   0  0  0  0  0  0  0  0  0  0  0  0
    1.7462    7.9051    2.3245 C   0  0  0  0  0  0  0  0  0  0  0  0
    0.7678    7.0522    2.5168 O   0  0  0  0  0  0  0  0  0  0  0  0
    2.7877    7.9223    3.3974 C   0  0  0  0  0  0  0  0  0  0  0  0
    2.9528    7.2505    4.5307 C   0  0  0  0  0  0  0  0  0  0  0  0
    4.0061    7.4055    5.4350 C   0  0  0  0  0  0  0  0  0  0  0  0
    4.1237    6.4453    6.8632 Cl  0  0  0  0  0  0  0  0  0  0  0  0
    4.9747    8.3673    5.1049 C   0  0  0  0  0  0  0  0  0  0  0  0
    6.0067    8.5579    5.9414 F   0  0  0  0  0  0  0  0  0  0  0  0
    4.7952    9.0739    3.9131 C   0  0  0  0  0  0  0  0  0  0  0  0
    3.7494    8.8932    3.0510 C   0  0  0  0  0  0  0  0  0  0  0  0
    3.3319    9.5033    1.7434 C   0  0  0  0  0  0  0  0  0  0  0  0
    3.9814   10.3601    1.1305 C   0  0  0  0  0  0  0  0  0  0  0  0
    3.5998   10.9522   -0.1422 C   0  0  0  0  0  0  0  0  0  0  0  0
    3.2685   11.4575   -1.2241 N   0  0  0  0  0  0  0  0  0  0  0  0
    5.3998   10.6984    1.3856 C   0  0  0  0  0  0  0  0  0  0  0  0
    6.5894   10.9814    1.5855 N   0  0  0  0  0  0  0  0  0  0  0  0
    0.4656    8.0936   -0.3367 C   0  0  0  0  0  0  0  0  0  0  0  0
   -0.6211    7.8801   -0.9436 C   0  0  0  0  0  0  0  0  0  0  0  0
   -1.2871    9.2523   -1.4633 C   0  0  0  0  0  0  0  0  0  0  0  0
   -0.5982    9.6777   -2.7229 C   0  0  0  0  0  0  0  0  0  0  0  0
   -1.2144    6.7404   -1.2654 C   0  0  0  0  0  0  0  0  0  0  0  0
   -2.6504    6.0828   -2.1115 S   0  0  0  0  0  0  0  0  0  0  0  0
   -2.3473    4.4393   -1.9797 C   0  0  0  0  0  0  0  0  0  0  0  0
   -2.7873    3.1298   -2.2864 C   0  0  0  0  0  0  0  0  0  0  0  0
   -3.7973    2.6281   -3.1149 C   0  0  0  0  0  0  0  0  0  0  0  0
   -3.8458    1.3090   -3.4318 C   0  0  0  0  0  0  0  0  0  0  0  0
   -4.8324    0.9195   -4.2040 N   0  0  0  0  0  0  0  0  0  0  0  0
   -5.7294    2.3005   -4.5109 S   0  0  0  0  0  0  0  0  0  0  0  0
   -4.7945    3.3794   -3.6264 N   0  0  0  0  0  0  0  0  0  0  0  0
   -2.8903    0.4842   -2.8473 C   0  0  0  0  0  0  0  0  0  0  0  0
   -2.7300   -0.8870   -2.8597 C   0  0  0  0  0  0  0  0  0  0  0  0
   -3.2483   -2.3471   -3.5932 S   0  0  0  0  0  0  0  0  0  0  0  0
   -2.1764   -3.4954   -2.8180 C   0  0  0  0  0  0  0  0  0  0  0  0
   -1.6151   -4.5590   -2.5135 C   0  0  0  0  0  0  0  0  0  0  0  0
   -2.4756   -5.5126   -3.9575 C   0  0  0  0  0  0  0  0  0  0  0  0
   -3.8119   -5.4201   -3.4744 C   0  0  0  0  0  0  0  0  0  0  0  0
   -1.0942   -5.5729   -2.2367 C   0  0  0  0  0  0  0  0  0  0  0  0
   -0.1533   -3.8115   -1.0470 Se  0  0  0  0  0  2  0  0  0  0  0  0
   -1.4390   -2.5773   -1.9769 C   0  0  0  0  0  0  0  0  0  0  0  0
   -1.7585   -1.3150   -2.0461 C   0  0  0  0  0  0  0  0  0  0  0  0
   -1.3020   -0.0980   -1.5027 N   0  0  0  0  0  0  0  0  0  0  0  0
   -1.9347    0.9516   -1.9929 C   0  0  0  0  0  0  0  0  0  0  0  0
   -1.8205    2.3196   -1.7251 C   0  0  0  0  0  0  0  0  0  0  0  0
   -0.8567    3.0337   -1.1561 N   0  0  0  0  0  0  0  0  0  0  0  0
   -1.2008    4.3728   -1.3172 C   0  0  0  0  0  0  0  0  0  0  0  0
   -0.6278    5.5556   -0.9480 C   0  0  0  0  0  0  0  0  0  0  0  0
    0.9787    6.1273   -0.0509 Se  0  0  0  0  0  2  0  0  0  0  0  0
    0.5361    2.7157   -0.8494 C   0  0  0  0  0  0  0  0  0  0  0  0
    1.3942    3.3725   -2.0444 C   0  0  0  0  0  0  0  0  0  0  0  0
   -0.4318   -0.1550   -0.3274 C   0  0  0  0  0  0  0  0  0  0  0  0
   -1.4215   -0.8147    0.7723 C   0  0  0  0  0  0  0  0  0  0  0  0
   -0.3020   -6.6259   -1.6663 C   0  0  0  0  0  0  0  0  0  0  0  0
   -0.6772   -7.0379   -0.3221 C   0  0  0  0  0  0  0  0  0  0  0  0
    0.6415   -8.3094   -0.0242 C   0  0  0  0  0  0  0  0  0  0  0  0
    1.4059   -8.5534   -0.7644 O   0  0  0  0  0  0  0  0  0  0  0  0
    0.1931   -8.7078    1.4067 C   0  0  0  0  0  0  0  0  0  0  0  0
    0.7992   -9.6262    2.2079 C   0  0  0  0  0  0  0  0  0  0  0  0
    0.2911   -9.8482    3.4609 C   0  0  0  0  0  0  0  0  0  0  0  0
    0.7911  -10.7505    4.3800 C   0  0  0  0  0  0  0  0  0  0  0  0
    0.3951  -11.0991    5.6437 C   0  0  0  0  0  0  0  0  0  0  0  0
   -0.9201  -10.2137    6.0176 C   0  0  0  0  0  0  0  0  0  0  0  0
   -1.2792  -10.5889    7.2754 F   0  0  0  0  0  0  0  0  0  0  0  0
   -1.0535   -9.6411    5.1574 C   0  0  0  0  0  0  0  0  0  0  0  0
   -0.9342   -9.0522    3.8804 C   0  0  0  0  0  0  0  0  0  0  0  0
   -1.3712   -8.2491    3.0329 C   0  0  0  0  0  0  0  0  0  0  0  0
   -1.0450   -7.9148    1.8559 C   0  0  0  0  0  0  0  0  0  0  0  0
   -0.8631   -7.3236    0.4894 C   0  0  0  0  0  0  0  0  0  0  0  0
   -2.6080   -7.3892    0.3206 C   0  0  0  0  0  0  0  0  0  0  0  0
   -3.4643   -7.7291    1.2814 C   0  0  0  0  0  0  0  0  0  0  0  0
   -4.1167   -7.9695    2.0090 N   0  0  0  0  0  0  0  0  0  0  0  0
   -2.8608   -7.6945   -1.0404 C   0  0  0  0  0  0  0  0  0  0  0  0
   -3.0532   -7.9463   -2.1034 N   0  0  0  0  0  0  0  0  0  0  0  0
    1.8313    9.7673   -0.4544 H   0  0  0  0  0  0  0  0  0  0  0  0
    2.1977    6.4777    4.8285 H   0  0  0  0  0  0  0  0  0  0  0  0
    5.5526    9.7999    3.7052 H   0  0  0  0  0  0  0  0  0  0  0  0
   -1.1524    9.9971   -0.7027 H   0  0  0  0  0  0  0  0  0  0  0  0
   -2.3416    9.0657   -1.6543 H   0  0  0  0  0  0  0  0  0  0  0  0
   -0.0738   10.6524   -2.5812 H   0  0  0  0  0  0  0  0  0  0  0  0
    0.1432    8.9488   -3.0990 H   0  0  0  0  0  0  0  0  0  0  0  0
   -1.3359    9.9014   -3.5592 H   0  0  0  0  0  0  0  0  0  0  0  0
   -1.9184   -6.3749   -3.8466 H   0  0  0  0  0  0  0  0  0  0  0  0
   -2.1134   -4.8596   -4.6774 H   0  0  0  0  0  0  0  0  0  0  0  0
   -4.4077   -6.3756   -3.6234 H   0  0  0  0  0  0  0  0  0  0  0  0
   -4.4447   -4.5592   -3.8601 H   0  0  0  0  0  0  0  0  0  0  0  0
   -3.8695   -5.2592   -2.3416 H   0  0  0  0  0  0  0  0  0  0  0  0
    0.9012    1.7226   -0.9695 H   0  0  0  0  0  0  0  0  0  0  0  0
    0.9138    3.2892    0.0063 H   0  0  0  0  0  0  0  0  0  0  0  0
    0.8267    4.1969   -2.4693 H   0  0  0  0  0  0  0  0  0  0  0  0
    1.5270    2.6038   -2.8387 H   0  0  0  0  0  0  0  0  0  0  0  0
    2.3954    3.5946   -1.6497 H   0  0  0  0  0  0  0  0  0  0  0  0
   -0.3155    0.7892    0.1785 H   0  0  0  0  0  0  0  0  0  0  0  0
    0.3762   -0.8653   -0.4050 H   0  0  0  0  0  0  0  0  0  0  0  0
   -1.8514   -0.0364    1.3837 H   0  0  0  0  0  0  0  0  0  0  0  0
   -2.1428   -1.4013    0.1884 H   0  0  0  0  0  0  0  0  0  0  0  0
   -0.8153   -1.5003    1.3702 H   0  0  0  0  0  0  0  0  0  0  0  0
    0.4508   -7.0535   -2.1556 H   0  0  0  0  0  0  0  0  0  0  0  0
    1.6653  -10.1683    1.8812 H   0  0  0  0  0  0  0  0  0  0  0  0
    1.7136  -11.2902    4.0055 H   0  0  0  0  0  0  0  0  0  0  0  0
    0.6824  -11.7159    6.3511 H   0  0  0  0  0  0  0  0  0  0  0  0
   -2.1288   -8.8336    5.4297 H   0  0  0  0  0  0  0  0  0  0  0  0
   -2.2523   -7.5558    3.4312 H   0  0  0  0  0  0  0  0  0  0  0  0
  1  2  2  3
  2  3  1  0
  3  4  2  0
  3  5  1  0
  5  6  2  0
  6  7  1  0
  7  8  1  0
  7  9  2  0
  9 10  1  0
  9 11  1  0
 11 12  2  0
 12 13  1  0
 13 14  2  3
 14 15  1  0
 15 16  3  0
 14 17  1  0
 17 18  3  0
  1 19  1  0
 19 20  2  0
 20 21  1  0
 21 22  1  0
 20 23  1  0
 23 24  1  0
 24 25  1  0
 25 26  1  0
 26 27  1  0
 27 28  1  0
 28 29  2  0
 29 30  1  0
 30 31  1  0
 28 32  1  0
 32 33  1  0
 33 34  1  0
 34 35  1  0
 35 36  1  0
 36 37  1  0
 37 38  1  0
 36 39  2  0
 39 40  1  0
 40 41  1  0
 41 42  1  0
 42 43  1  0
 43 44  1  0
 44 45  1  0
 45 46  1  0
 46 47  1  0
 47 48  1  0
 48 49  1  0
 46 50  1  0
 50 51  1  0
 43 52  1  0
 52 53  1  0
 39 54  1  0
 54 55  2  3
 55 56  1  0
 56 57  2  0
 56 58  1  0
 58 59  2  0
 59 60  1  0
 60 61  2  0
 61 62  1  0
 62 63  2  0
 63 64  1  0
 63 65  1  0
 65 66  2  0
 66 67  1  0
 67 68  2  0
 68 69  1  0
 69 70  2  3
 70 71  1  0
 71 72  3  0
 70 73  1  0
 73 74  3  0
 13  2  1  0
 49 19  1  0
 69 55  1  0
 12  5  1  0
 48 23  2  0
 68 58  1  0
 47 25  2  0
 66 60  1  0
 45 26  2  0
 31 27  2  0
 44 32  2  0
 42 33  2  0
 41 35  2  0
  1 75  1  0
  6 76  1  0
 11 77  1  0
 21 78  1  0
 21 79  1  0
 22 80  1  0
 22 81  1  0
 22 82  1  0
 37 83  1  0
 37 84  1  0
 38 85  1  0
 38 86  1  0
 38 87  1  0
 50 88  1  0
 50 89  1  0
 51 90  1  0
 51 91  1  0
 51 92  1  0
 52 93  1  0
 52 94  1  0
 53 95  1  0
 53 96  1  0
 53 97  1  0
 54 98  1  0
 59 99  1  0
 61100  1  0
 62101  1  0
 65102  1  0
 67103  1  0
M  END

