
     RDKit          3D

101113  0  0  0  0  0  0  0  0999 V2000
   -8.0574    3.0766   -2.4110 C   0  0  0  0  0  0  0  0  0  0  0  0
   -8.8213    1.9631   -2.4289 C   0  0  0  0  0  0  0  0  0  0  0  0
   -8.3118    0.5829   -2.4250 C   0  0  0  0  0  0  0  0  0  0  0  0
   -7.1335    0.2147   -2.1829 O   0  0  0  0  0  0  0  0  0  0  0  0
   -9.3686   -0.2970   -2.8713 C   0  0  0  0  0  0  0  0  0  0  0  0
   -9.2908   -1.6676   -3.1268 C   0  0  0  0  0  0  0  0  0  0  0  0
  -10.4229   -2.3186   -3.6374 C   0  0  0  0  0  0  0  0  0  0  0  0
  -10.3595   -4.0467   -3.9513 Cl  0  0  0  0  0  0  0  0  0  0  0  0
  -11.6008   -1.5923   -3.8892 C   0  0  0  0  0  0  0  0  0  0  0  0
  -12.6917   -2.2126   -4.4112 F   0  0  0  0  0  0  0  0  0  0  0  0
  -11.6497   -0.2076   -3.6464 C   0  0  0  0  0  0  0  0  0  0  0  0
  -10.5180    0.4382   -3.1226 C   0  0  0  0  0  0  0  0  0  0  0  0
  -10.2731    1.8723   -2.7830 C   0  0  0  0  0  0  0  0  0  0  0  0
  -11.2023    2.8577   -2.6515 C   0  0  0  0  0  0  0  0  0  0  0  0
  -10.8866    4.1403   -2.0773 C   0  0  0  0  0  0  0  0  0  0  0  0
  -10.6486    5.1715   -1.6130 N   0  0  0  0  0  0  0  0  0  0  0  0
  -12.5956    2.6707   -2.9638 C   0  0  0  0  0  0  0  0  0  0  0  0
  -13.7192    2.5363   -3.2060 N   0  0  0  0  0  0  0  0  0  0  0  0
   -6.6272    3.0785   -2.0693 C   0  0  0  0  0  0  0  0  0  0  0  0
   -5.4126    3.7325   -3.0813 S   0  0  0  0  0  0  0  0  0  0  0  0
   -4.2015    3.2188   -2.0469 C   0  0  0  0  0  0  0  0  0  0  0  0
   -2.8522    3.2085   -1.9221 C   0  0  0  0  0  0  0  0  0  0  0  0
   -1.5072    3.8231   -2.7460 S   0  0  0  0  0  0  0  0  0  0  0  0
   -0.5142    3.0904   -1.5797 C   0  0  0  0  0  0  0  0  0  0  0  0
    0.8211    2.9794   -1.3455 C   0  0  0  0  0  0  0  0  0  0  0  0
    1.9040    3.6767   -1.8874 C   0  0  0  0  0  0  0  0  0  0  0  0
    3.1895    3.4914   -1.3060 C   0  0  0  0  0  0  0  0  0  0  0  0
    4.2155    4.1940   -1.8483 N   0  0  0  0  0  0  0  0  0  0  0  0
    3.3950    5.0301   -3.0196 S   0  0  0  0  0  0  0  0  0  0  0  0
    1.8096    4.5655   -2.9063 N   0  0  0  0  0  0  0  0  0  0  0  0
    3.3310    2.5698   -0.2612 C   0  0  0  0  0  0  0  0  0  0  0  0
    4.4605    2.0069    0.2562 C   0  0  0  0  0  0  0  0  0  0  0  0
    6.1102    2.0183   -0.1582 S   0  0  0  0  0  0  0  0  0  0  0  0
    6.3368    0.4969    0.5697 C   0  0  0  0  0  0  0  0  0  0  0  0
    7.4214   -0.3823    0.6304 C   0  0  0  0  0  0  0  0  0  0  0  0
    8.8093   -0.0321    0.1711 C   0  0  0  0  0  0  0  0  0  0  0  0
    9.6018    0.6152    1.2999 C   0  0  0  0  0  0  0  0  0  0  0  0
    7.0389   -1.6117    1.2034 C   0  0  0  0  0  0  0  0  0  0  0  0
    5.3820   -1.5632    1.6171 S   0  0  0  0  0  0  0  0  0  0  0  0
    5.1572   -0.0002    1.0580 C   0  0  0  0  0  0  0  0  0  0  0  0
    4.0798    0.8719    0.9004 C   0  0  0  0  0  0  0  0  0  0  0  0
    2.7361    0.6588    0.8405 N   0  0  0  0  0  0  0  0  0  0  0  0
    2.2597    1.7723    0.1867 C   0  0  0  0  0  0  0  0  0  0  0  0
    0.9474    2.0704   -0.2880 C   0  0  0  0  0  0  0  0  0  0  0  0
   -0.2971    1.7131    0.1930 N   0  0  0  0  0  0  0  0  0  0  0  0
   -1.1716    2.3917   -0.6086 C   0  0  0  0  0  0  0  0  0  0  0  0
   -2.5669    2.5175   -0.7663 C   0  0  0  0  0  0  0  0  0  0  0  0
   -3.7142    2.1710   -0.0954 N   0  0  0  0  0  0  0  0  0  0  0  0
   -4.6858    2.6008   -0.9497 C   0  0  0  0  0  0  0  0  0  0  0  0
   -6.0719    2.5264   -0.9003 C   0  0  0  0  0  0  0  0  0  0  0  0
   -3.9543    1.9704    1.3394 C   0  0  0  0  0  0  0  0  0  0  0  0
   -3.7621    3.2727    2.1038 C   0  0  0  0  0  0  0  0  0  0  0  0
   -0.6136    1.0151    1.4377 C   0  0  0  0  0  0  0  0  0  0  0  0
   -1.3726   -0.2969    1.1740 C   0  0  0  0  0  0  0  0  0  0  0  0
    2.1709   -0.6940    0.7676 C   0  0  0  0  0  0  0  0  0  0  0  0
    2.0362   -1.3337    2.1557 C   0  0  0  0  0  0  0  0  0  0  0  0
    7.9724   -2.6955    1.5629 C   0  0  0  0  0  0  0  0  0  0  0  0
    7.8012   -3.9977    1.2633 C   0  0  0  0  0  0  0  0  0  0  0  0
    6.6534   -4.5737    0.5491 C   0  0  0  0  0  0  0  0  0  0  0  0
    5.8278   -3.9534   -0.1749 O   0  0  0  0  0  0  0  0  0  0  0  0
    6.6786   -6.0067    0.7349 C   0  0  0  0  0  0  0  0  0  0  0  0
    5.7281   -6.9428    0.3227 C   0  0  0  0  0  0  0  0  0  0  0  0
    5.9238   -8.2871    0.6655 C   0  0  0  0  0  0  0  0  0  0  0  0
    5.0087   -9.2199    0.3003 F   0  0  0  0  0  0  0  0  0  0  0  0
    7.0523   -8.6638    1.4064 C   0  0  0  0  0  0  0  0  0  0  0  0
    7.9945   -7.7069    1.8103 C   0  0  0  0  0  0  0  0  0  0  0  0
    7.8054   -6.3650    1.4525 C   0  0  0  0  0  0  0  0  0  0  0  0
    8.6271   -5.1532    1.7325 C   0  0  0  0  0  0  0  0  0  0  0  0
    9.9197   -5.1255    2.1603 C   0  0  0  0  0  0  0  0  0  0  0  0
   10.7262   -3.9335    2.1320 C   0  0  0  0  0  0  0  0  0  0  0  0
   11.3865   -2.9798    2.1081 N   0  0  0  0  0  0  0  0  0  0  0  0
   10.6372   -6.3095    2.5596 C   0  0  0  0  0  0  0  0  0  0  0  0
   11.2295   -7.2477    2.8923 N   0  0  0  0  0  0  0  0  0  0  0  0
   -8.4577    4.0142   -2.7526 H   0  0  0  0  0  0  0  0  0  0  0  0
   -8.3707   -2.2097   -2.9500 H   0  0  0  0  0  0  0  0  0  0  0  0
  -12.5507    0.3264   -3.8959 H   0  0  0  0  0  0  0  0  0  0  0  0
    9.3365   -0.9413   -0.1777 H   0  0  0  0  0  0  0  0  0  0  0  0
    8.7561    0.6708   -0.6869 H   0  0  0  0  0  0  0  0  0  0  0  0
   10.6145    0.8816    0.9293 H   0  0  0  0  0  0  0  0  0  0  0  0
    9.0911    1.5393    1.6437 H   0  0  0  0  0  0  0  0  0  0  0  0
    9.7092   -0.0848    2.1560 H   0  0  0  0  0  0  0  0  0  0  0  0
   -6.6389    2.0554   -0.1117 H   0  0  0  0  0  0  0  0  0  0  0  0
   -4.9920    1.6167    1.5012 H   0  0  0  0  0  0  0  0  0  0  0  0
   -3.3255    1.1900    1.7639 H   0  0  0  0  0  0  0  0  0  0  0  0
   -3.9207    3.0914    3.1889 H   0  0  0  0  0  0  0  0  0  0  0  0
   -2.7324    3.6606    1.9644 H   0  0  0  0  0  0  0  0  0  0  0  0
   -4.4924    4.0322    1.7496 H   0  0  0  0  0  0  0  0  0  0  0  0
    0.3045    0.8248    2.0203 H   0  0  0  0  0  0  0  0  0  0  0  0
   -1.2122    1.6924    2.0804 H   0  0  0  0  0  0  0  0  0  0  0  0
   -0.7225   -1.1199    0.8349 H   0  0  0  0  0  0  0  0  0  0  0  0
   -2.1541   -0.1644    0.3980 H   0  0  0  0  0  0  0  0  0  0  0  0
   -1.8499   -0.6421    2.1109 H   0  0  0  0  0  0  0  0  0  0  0  0
    1.2261   -0.6924    0.2022 H   0  0  0  0  0  0  0  0  0  0  0  0
    2.8479   -1.3284    0.1565 H   0  0  0  0  0  0  0  0  0  0  0  0
    2.7694   -0.9059    2.8702 H   0  0  0  0  0  0  0  0  0  0  0  0
    2.2224   -2.4255    2.0800 H   0  0  0  0  0  0  0  0  0  0  0  0
    1.0228   -1.1926    2.5791 H   0  0  0  0  0  0  0  0  0  0  0  0
    8.8153   -2.3778    2.1438 H   0  0  0  0  0  0  0  0  0  0  0  0
    4.8531   -6.6359   -0.2366 H   0  0  0  0  0  0  0  0  0  0  0  0
    7.1984   -9.7029    1.6778 H   0  0  0  0  0  0  0  0  0  0  0  0
    8.8248   -8.0307    2.4122 H   0  0  0  0  0  0  0  0  0  0  0  0
  1  2  2  3
  2  3  1  0
  3  4  2  0
  3  5  1  0
  5  6  2  0
  6  7  1  0
  7  8  1  0
  7  9  2  0
  9 10  1  0
  9 11  1  0
 11 12  2  0
 12 13  1  0
 13 14  2  3
 14 15  1  0
 15 16  3  0
 14 17  1  0
 17 18  3  0
  1 19  1  0
 19 20  1  0
 20 21  1  0
 21 22  1  0
 22 23  1  0
 23 24  1  0
 24 25  1  0
 25 26  1  0
 26 27  1  0
 27 28  2  0
 28 29  1  0
 29 30  1  0
 27 31  1  0
 31 32  1  0
 32 33  1  0
 33 34  1  0
 34 35  1  0
 35 36  1  0
 36 37  1  0
 35 38  2  0
 38 39  1  0
 39 40  1  0
 40 41  1  0
 41 42  1  0
 42 43  1  0
 43 44  1  0
 44 45  1  0
 45 46  1  0
 46 47  1  0
 47 48  1  0
 48 49  1  0
 49 50  1  0
 48 51  1  0
 51 52  1  0
 45 53  1  0
 53 54  1  0
 42 55  1  0
 55 56  1  0
 38 57  1  0
 57 58  2  3
 58 59  1  0
 59 60  2  0
 59 61  1  0
 61 62  2  0
 62 63  1  0
 63 64  1  0
 63 65  2  0
 65 66  1  0
 66 67  2  0
 67 68  1  0
 68 69  2  3
 69 70  1  0
 70 71  3  0
 69 72  1  0
 72 73  3  0
 13  2  1  0
 50 19  2  0
 68 58  1  0
 12  5  1  0
 49 21  2  0
 67 61  1  0
 47 22  2  0
 46 24  2  0
 44 25  2  0
 30 26  2  0
 43 31  2  0
 41 32  2  0
 40 34  2  0
  1 74  1  0
  6 75  1  0
 11 76  1  0
 36 77  1  0
 36 78  1  0
 37 79  1  0
 37 80  1  0
 37 81  1  0
 50 82  1  0
 51 83  1  0
 51 84  1  0
 52 85  1  0
 52 86  1  0
 52 87  1  0
 53 88  1  0
 53 89  1  0
 54 90  1  0
 54 91  1  0
 54 92  1  0
 55 93  1  0
 55 94  1  0
 56 95  1  0
 56 96  1  0
 56 97  1  0
 57 98  1  0
 62 99  1  0
 65100  1  0
 66101  1  0
M  END

