
     RDKit          3D

115125  0  0  0  0  0  0  0  0999 V2000
    4.5765    5.9299    4.2700 C   0  0  0  0  0  0  0  0  0  0  0  0
    3.6583    6.8828    4.0284 C   0  0  0  0  0  0  0  0  0  0  0  0
    3.5038    8.0819    4.8481 C   0  0  0  0  0  0  0  0  0  0  0  0
    4.3579    8.5560    5.6460 O   0  0  0  0  0  0  0  0  0  0  0  0
    2.1654    8.6027    4.6339 C   0  0  0  0  0  0  0  0  0  0  0  0
    1.5845    9.7475    5.1843 C   0  0  0  0  0  0  0  0  0  0  0  0
    0.2858   10.0995    4.7782 C   0  0  0  0  0  0  0  0  0  0  0  0
   -0.4592   11.5571    5.4195 Cl  0  0  0  0  0  0  0  0  0  0  0  0
   -0.4095    9.2902    3.8581 C   0  0  0  0  0  0  0  0  0  0  0  0
   -1.6665    9.6285    3.4687 F   0  0  0  0  0  0  0  0  0  0  0  0
    0.1918    8.1371    3.3215 C   0  0  0  0  0  0  0  0  0  0  0  0
    1.5039    7.8126    3.7056 C   0  0  0  0  0  0  0  0  0  0  0  0
    2.4431    6.7953    3.1664 C   0  0  0  0  0  0  0  0  0  0  0  0
    2.4186    6.2830    1.9117 C   0  0  0  0  0  0  0  0  0  0  0  0
    3.6347    5.9011    1.2404 C   0  0  0  0  0  0  0  0  0  0  0  0
    4.6284    5.6087    0.7301 N   0  0  0  0  0  0  0  0  0  0  0  0
    1.2020    6.1495    1.1528 C   0  0  0  0  0  0  0  0  0  0  0  0
    0.2241    6.0213    0.5432 N   0  0  0  0  0  0  0  0  0  0  0  0
    4.3875    4.5216    3.8891 C   0  0  0  0  0  0  0  0  0  0  0  0
    2.9823    3.6240    4.2076 S   0  0  0  0  0  0  0  0  0  0  0  0
    3.5410    2.2708    3.3951 C   0  0  0  0  0  0  0  0  0  0  0  0
    2.8799    1.1701    2.7604 C   0  0  0  0  0  0  0  0  0  0  0  0
    3.7100    0.7189    1.7372 C   0  0  0  0  0  0  0  0  0  0  0  0
    5.0234    1.5035    1.6904 C   0  0  0  0  0  0  0  0  0  0  0  0
    4.7471    2.5045    2.8060 C   0  0  0  0  0  0  0  0  0  0  0  0
    5.2802    3.7629    3.1200 C   0  0  0  0  0  0  0  0  0  0  0  0
    5.1422    2.1968    0.2975 C   0  0  0  0  0  0  0  0  0  0  0  0
    6.5214    2.7701   -0.0399 C   0  0  0  0  0  0  0  0  0  0  0  0
    6.2350    0.5904    2.0178 C   0  0  0  0  0  0  0  0  0  0  0  0
    6.1080   -0.1850    3.3341 C   0  0  0  0  0  0  0  0  0  0  0  0
    3.2392   -0.2347    0.8196 C   0  0  0  0  0  0  0  0  0  0  0  0
    1.9206   -0.6891    0.9820 C   0  0  0  0  0  0  0  0  0  0  0  0
    1.1121   -1.4638    0.0684 C   0  0  0  0  0  0  0  0  0  0  0  0
   -0.1740   -1.5731    0.6005 C   0  0  0  0  0  0  0  0  0  0  0  0
   -0.2972   -0.8347    1.9288 C   0  0  0  0  0  0  0  0  0  0  0  0
   -0.5995   -1.8657    3.0532 C   0  0  0  0  0  0  0  0  0  0  0  0
   -0.6855   -1.2829    4.4671 C   0  0  0  0  0  0  0  0  0  0  0  0
   -1.2956    0.3596    1.8321 C   0  0  0  0  0  0  0  0  0  0  0  0
   -2.7744   -0.0044    1.6659 C   0  0  0  0  0  0  0  0  0  0  0  0
    1.1168   -0.2834    2.0486 C   0  0  0  0  0  0  0  0  0  0  0  0
    1.5813    0.6932    2.9477 C   0  0  0  0  0  0  0  0  0  0  0  0
   -1.1726   -2.2739   -0.0974 C   0  0  0  0  0  0  0  0  0  0  0  0
   -0.8480   -2.7389   -1.3746 C   0  0  0  0  0  0  0  0  0  0  0  0
   -1.6947   -3.2839   -2.3956 C   0  0  0  0  0  0  0  0  0  0  0  0
   -1.0065   -3.4220   -3.5547 C   0  0  0  0  0  0  0  0  0  0  0  0
    0.4383   -2.9869   -3.4207 C   0  0  0  0  0  0  0  0  0  0  0  0
    0.4194   -2.5678   -1.9450 C   0  0  0  0  0  0  0  0  0  0  0  0
    1.4337   -1.9193   -1.2188 C   0  0  0  0  0  0  0  0  0  0  0  0
    1.3586   -4.2157   -3.6699 C   0  0  0  0  0  0  0  0  0  0  0  0
    2.8508   -3.9645   -3.4657 C   0  0  0  0  0  0  0  0  0  0  0  0
    0.7398   -1.7418   -4.3036 C   0  0  0  0  0  0  0  0  0  0  0  0
    0.7059   -1.9876   -5.8158 C   0  0  0  0  0  0  0  0  0  0  0  0
   -1.7391   -4.0319   -4.5707 C   0  0  0  0  0  0  0  0  0  0  0  0
   -3.0326   -4.3484   -4.1406 C   0  0  0  0  0  0  0  0  0  0  0  0
   -3.2639   -3.8635   -2.5211 S   0  0  0  0  0  0  0  0  0  0  0  0
   -4.0630   -4.9184   -5.0142 C   0  0  0  0  0  0  0  0  0  0  0  0
   -4.5691   -6.1584   -4.8602 C   0  0  0  0  0  0  0  0  0  0  0  0
   -4.3051   -7.0581   -3.7319 C   0  0  0  0  0  0  0  0  0  0  0  0
   -3.4025   -6.9305   -2.8639 O   0  0  0  0  0  0  0  0  0  0  0  0
   -5.2483   -8.1533   -3.7910 C   0  0  0  0  0  0  0  0  0  0  0  0
   -5.4143   -9.2008   -2.8826 C   0  0  0  0  0  0  0  0  0  0  0  0
   -4.6244   -9.3099   -1.7845 F   0  0  0  0  0  0  0  0  0  0  0  0
   -6.4294  -10.1348   -3.1172 C   0  0  0  0  0  0  0  0  0  0  0  0
   -7.2695   -9.9964   -4.2341 C   0  0  0  0  0  0  0  0  0  0  0  0
   -7.0942   -8.9307   -5.1301 C   0  0  0  0  0  0  0  0  0  0  0  0
   -6.0516   -8.0128   -4.9096 C   0  0  0  0  0  0  0  0  0  0  0  0
   -5.6106   -6.8263   -5.6994 C   0  0  0  0  0  0  0  0  0  0  0  0
   -5.9108   -6.5633   -6.9981 C   0  0  0  0  0  0  0  0  0  0  0  0
   -5.2072   -5.5764   -7.7715 C   0  0  0  0  0  0  0  0  0  0  0  0
   -4.6440   -4.7907   -8.4050 N   0  0  0  0  0  0  0  0  0  0  0  0
   -6.8647   -7.3359   -7.7489 C   0  0  0  0  0  0  0  0  0  0  0  0
   -7.6262   -7.9466   -8.3713 N   0  0  0  0  0  0  0  0  0  0  0  0
    5.4229    6.1548    4.9083 H   0  0  0  0  0  0  0  0  0  0  0  0
    2.1344   10.3671    5.8866 H   0  0  0  0  0  0  0  0  0  0  0  0
   -0.3706    7.5300    2.6282 H   0  0  0  0  0  0  0  0  0  0  0  0
    6.2085    4.1560    2.7338 H   0  0  0  0  0  0  0  0  0  0  0  0
    4.3803    3.0048    0.2215 H   0  0  0  0  0  0  0  0  0  0  0  0
    4.9010    1.4710   -0.5058 H   0  0  0  0  0  0  0  0  0  0  0  0
    7.2466    1.9516   -0.2397 H   0  0  0  0  0  0  0  0  0  0  0  0
    6.9124    3.4161    0.7661 H   0  0  0  0  0  0  0  0  0  0  0  0
    6.4374    3.3791   -0.9641 H   0  0  0  0  0  0  0  0  0  0  0  0
    7.1568    1.2114    2.0858 H   0  0  0  0  0  0  0  0  0  0  0  0
    6.3729   -0.1367    1.1904 H   0  0  0  0  0  0  0  0  0  0  0  0
    5.2146   -0.8388    3.3290 H   0  0  0  0  0  0  0  0  0  0  0  0
    6.0396    0.5114    4.1918 H   0  0  0  0  0  0  0  0  0  0  0  0
    7.0062   -0.8243    3.4724 H   0  0  0  0  0  0  0  0  0  0  0  0
    3.8487   -0.5566   -0.0150 H   0  0  0  0  0  0  0  0  0  0  0  0
   -1.5529   -2.3876    2.8359 H   0  0  0  0  0  0  0  0  0  0  0  0
    0.1932   -2.6494    3.0556 H   0  0  0  0  0  0  0  0  0  0  0  0
   -0.9967   -2.0831    5.1684 H   0  0  0  0  0  0  0  0  0  0  0  0
   -1.4336   -0.4705    4.5254 H   0  0  0  0  0  0  0  0  0  0  0  0
    0.3064   -0.9132    4.7962 H   0  0  0  0  0  0  0  0  0  0  0  0
   -1.0053    1.0095    0.9739 H   0  0  0  0  0  0  0  0  0  0  0  0
   -1.2112    0.9875    2.7426 H   0  0  0  0  0  0  0  0  0  0  0  0
   -3.3895    0.9015    1.8414 H   0  0  0  0  0  0  0  0  0  0  0  0
   -2.9894   -0.3441    0.6335 H   0  0  0  0  0  0  0  0  0  0  0  0
   -3.0974   -0.7750    2.3943 H   0  0  0  0  0  0  0  0  0  0  0  0
    0.9496    1.1039    3.7213 H   0  0  0  0  0  0  0  0  0  0  0  0
   -2.1637   -2.4122    0.3073 H   0  0  0  0  0  0  0  0  0  0  0  0
    2.4022   -1.7134   -1.6526 H   0  0  0  0  0  0  0  0  0  0  0  0
    1.2058   -4.5943   -4.7038 H   0  0  0  0  0  0  0  0  0  0  0  0
    1.0615   -5.0424   -2.9838 H   0  0  0  0  0  0  0  0  0  0  0  0
    3.2054   -3.0876   -4.0439 H   0  0  0  0  0  0  0  0  0  0  0  0
    3.4240   -4.8516   -3.8134 H   0  0  0  0  0  0  0  0  0  0  0  0
    3.0801   -3.8268   -2.3891 H   0  0  0  0  0  0  0  0  0  0  0  0
    1.7379   -1.3359   -4.0460 H   0  0  0  0  0  0  0  0  0  0  0  0
    0.0019   -0.9420   -4.0677 H   0  0  0  0  0  0  0  0  0  0  0  0
    1.0175   -1.0574   -6.3361 H   0  0  0  0  0  0  0  0  0  0  0  0
   -0.3216   -2.2315   -6.1487 H   0  0  0  0  0  0  0  0  0  0  0  0
    1.4018   -2.7958   -6.1116 H   0  0  0  0  0  0  0  0  0  0  0  0
   -1.3503   -4.2626   -5.5529 H   0  0  0  0  0  0  0  0  0  0  0  0
   -4.3856   -4.2805   -5.8185 H   0  0  0  0  0  0  0  0  0  0  0  0
   -6.5737  -10.9598   -2.4334 H   0  0  0  0  0  0  0  0  0  0  0  0
   -8.0680  -10.7070   -4.3943 H   0  0  0  0  0  0  0  0  0  0  0  0
   -7.7891   -8.8282   -5.9428 H   0  0  0  0  0  0  0  0  0  0  0  0
  1  2  2  3
  2  3  1  0
  3  4  2  0
  3  5  1  0
  5  6  2  0
  6  7  1  0
  7  8  1  0
  7  9  2  0
  9 10  1  0
  9 11  1  0
 11 12  2  0
 12 13  1  0
 13 14  2  3
 14 15  1  0
 15 16  3  0
 14 17  1  0
 17 18  3  0
  1 19  1  0
 19 20  1  0
 20 21  1  0
 21 22  1  0
 22 23  2  0
 23 24  1  0
 24 25  1  0
 25 26  1  0
 24 27  1  0
 27 28  1  0
 24 29  1  0
 29 30  1  0
 23 31  1  0
 31 32  2  0
 32 33  1  0
 33 34  2  0
 34 35  1  0
 35 36  1  0
 36 37  1  0
 35 38  1  0
 38 39  1  0
 35 40  1  0
 40 41  2  0
 34 42  1  0
 42 43  2  0
 43 44  1  0
 44 45  2  0
 45 46  1  0
 46 47  1  0
 47 48  2  0
 46 49  1  0
 49 50  1  0
 46 51  1  0
 51 52  1  0
 45 53  1  0
 53 54  2  0
 54 55  1  0
 54 56  1  0
 56 57  2  3
 57 58  1  0
 58 59  2  0
 58 60  1  0
 60 61  2  0
 61 62  1  0
 61 63  1  0
 63 64  2  0
 64 65  1  0
 65 66  2  0
 66 67  1  0
 67 68  2  3
 68 69  1  0
 69 70  3  0
 68 71  1  0
 71 72  3  0
 13  2  1  0
 26 19  2  0
 40 32  1  0
 47 43  1  0
 67 57  1  0
 12  5  1  0
 25 21  2  0
 48 33  1  0
 66 60  1  0
 41 22  1  0
 55 44  1  0
  1 73  1  0
  6 74  1  0
 11 75  1  0
 26 76  1  0
 27 77  1  0
 27 78  1  0
 28 79  1  0
 28 80  1  0
 28 81  1  0
 29 82  1  0
 29 83  1  0
 30 84  1  0
 30 85  1  0
 30 86  1  0
 31 87  1  0
 36 88  1  0
 36 89  1  0
 37 90  1  0
 37 91  1  0
 37 92  1  0
 38 93  1  0
 38 94  1  0
 39 95  1  0
 39 96  1  0
 39 97  1  0
 41 98  1  0
 42 99  1  0
 48100  1  0
 49101  1  0
 49102  1  0
 50103  1  0
 50104  1  0
 50105  1  0
 51106  1  0
 51107  1  0
 52108  1  0
 52109  1  0
 52110  1  0
 53111  1  0
 56112  1  0
 63113  1  0
 64114  1  0
 65115  1  0
M  END

