
     RDKit          3D

 97108  0  0  0  0  0  0  0  0999 V2000
   -6.2265   -1.8455   -5.4945 C   0  0  0  0  0  0  0  0  0  0  0  0
   -6.7423   -2.8817   -4.6375 C   0  0  0  0  0  0  0  0  0  0  0  0
   -6.4237   -3.0917   -3.3420 C   0  0  0  0  0  0  0  0  0  0  0  0
   -5.3683   -2.6660   -2.7287 O   0  0  0  0  0  0  0  0  0  0  0  0
   -7.4443   -3.8808   -2.7443 C   0  0  0  0  0  0  0  0  0  0  0  0
   -7.5424   -4.3269   -1.4483 C   0  0  0  0  0  0  0  0  0  0  0  0
   -8.6541   -5.0931   -1.1161 C   0  0  0  0  0  0  0  0  0  0  0  0
   -8.8264   -5.6765    0.5095 Cl  0  0  0  0  0  0  0  0  0  0  0  0
   -9.5904   -5.3643   -2.0706 C   0  0  0  0  0  0  0  0  0  0  0  0
  -10.7041   -6.0965   -1.7620 F   0  0  0  0  0  0  0  0  0  0  0  0
   -9.4467   -4.8758   -3.3976 C   0  0  0  0  0  0  0  0  0  0  0  0
   -8.3348   -4.1379   -3.6281 C   0  0  0  0  0  0  0  0  0  0  0  0
   -7.9992   -3.4416   -5.2697 C   0  0  0  0  0  0  0  0  0  0  0  0
   -9.1118   -3.6431   -5.5519 C   0  0  0  0  0  0  0  0  0  0  0  0
   -9.4088   -4.7077   -6.5696 C   0  0  0  0  0  0  0  0  0  0  0  0
   -9.6394   -5.5122   -7.3348 N   0  0  0  0  0  0  0  0  0  0  0  0
  -10.3132   -2.8939   -5.1273 C   0  0  0  0  0  0  0  0  0  0  0  0
  -11.2846   -2.2979   -4.7879 N   0  0  0  0  0  0  0  0  0  0  0  0
   -5.3311   -0.9808   -4.7533 C   0  0  0  0  0  0  0  0  0  0  0  0
   -5.7406    0.0360   -3.9199 C   0  0  0  0  0  0  0  0  0  0  0  0
   -7.2553    0.2877   -3.9572 C   0  0  0  0  0  0  0  0  0  0  0  0
   -7.6473    0.8799   -5.3101 C   0  0  0  0  0  0  0  0  0  0  0  0
   -4.8573    0.7494   -3.2021 C   0  0  0  0  0  0  0  0  0  0  0  0
   -4.9867    1.9668   -1.9144 S   0  0  0  0  0  0  0  0  0  0  0  0
   -3.3139    2.0703   -1.5439 C   0  0  0  0  0  0  0  0  0  0  0  0
   -2.4150    2.6407   -0.6480 C   0  0  0  0  0  0  0  0  0  0  0  0
   -2.6164    3.3802    0.4897 C   0  0  0  0  0  0  0  0  0  0  0  0
   -1.5904    3.5594    1.3727 C   0  0  0  0  0  0  0  0  0  0  0  0
   -1.8332    4.2970    2.4556 N   0  0  0  0  0  0  0  0  0  0  0  0
   -3.4555    4.7633    2.2928 S   0  0  0  0  0  0  0  0  0  0  0  0
   -3.7580    3.9866    0.8322 N   0  0  0  0  0  0  0  0  0  0  0  0
   -0.3723    2.9702    1.0400 C   0  0  0  0  0  0  0  0  0  0  0  0
    0.7362    2.7558    1.8820 C   0  0  0  0  0  0  0  0  0  0  0  0
    1.3699    2.9059    3.4411 S   0  0  0  0  0  0  0  0  0  0  0  0
    2.7985    1.8532    3.2503 C   0  0  0  0  0  0  0  0  0  0  0  0
    3.7528    1.3654    4.0929 C   0  0  0  0  0  0  0  0  0  0  0  0
    3.7700    1.7687    5.6138 C   0  0  0  0  0  0  0  0  0  0  0  0
    4.2630    3.1731    5.8041 C   0  0  0  0  0  0  0  0  0  0  0  0
    4.6304    0.4970    3.7582 C   0  0  0  0  0  0  0  0  0  0  0  0
    4.0635    0.2612    1.7964 Se  0  0  0  0  0  2  0  0  0  0  0  0
    2.6443    1.5079    2.0096 C   0  0  0  0  0  0  0  0  0  0  0  0
    1.6031    1.9294    1.2447 C   0  0  0  0  0  0  0  0  0  0  0  0
    1.0433    1.6448   -0.0015 N   0  0  0  0  0  0  0  0  0  0  0  0
   -0.1308    2.2480   -0.1130 C   0  0  0  0  0  0  0  0  0  0  0  0
   -1.1904    2.0685   -1.0187 C   0  0  0  0  0  0  0  0  0  0  0  0
   -1.3661    1.2506   -2.0600 N   0  0  0  0  0  0  0  0  0  0  0  0
   -2.7015    1.2022   -2.4144 C   0  0  0  0  0  0  0  0  0  0  0  0
   -3.5739    0.5586   -3.2302 C   0  0  0  0  0  0  0  0  0  0  0  0
   -3.4661   -0.9620   -4.5453 Se  0  0  0  0  0  2  0  0  0  0  0  0
   -0.4326    0.7111   -3.0243 C   0  0  0  0  0  0  0  0  0  0  0  0
   -0.7284    1.6212   -4.3422 C   0  0  0  0  0  0  0  0  0  0  0  0
    1.7742    0.9063   -0.9765 C   0  0  0  0  0  0  0  0  0  0  0  0
    2.4944    2.0897   -1.7842 C   0  0  0  0  0  0  0  0  0  0  0  0
    5.6029   -0.5099    4.1649 C   0  0  0  0  0  0  0  0  0  0  0  0
    6.8700   -0.4657    3.8934 C   0  0  0  0  0  0  0  0  0  0  0  0
    7.5425    0.5954    3.1552 C   0  0  0  0  0  0  0  0  0  0  0  0
    7.1699    1.6988    2.8547 O   0  0  0  0  0  0  0  0  0  0  0  0
    8.9371    0.0356    2.7729 C   0  0  0  0  0  0  0  0  0  0  0  0
    8.9764   -1.1976    3.2687 C   0  0  0  0  0  0  0  0  0  0  0  0
   10.2018   -1.9452    2.9643 C   0  0  0  0  0  0  0  0  0  0  0  0
   11.0873   -1.2630    2.2346 C   0  0  0  0  0  0  0  0  0  0  0  0
   12.3219   -1.9999    1.8884 F   0  0  0  0  0  0  0  0  0  0  0  0
   11.1021   -0.0360    1.7154 C   0  0  0  0  0  0  0  0  0  0  0  0
   12.0131    0.5689    0.9786 F   0  0  0  0  0  0  0  0  0  0  0  0
    9.8439    0.6979    2.0430 C   0  0  0  0  0  0  0  0  0  0  0  0
    9.7848    1.9253    1.5713 F   0  0  0  0  0  0  0  0  0  0  0  0
    7.7815   -1.6269    3.9770 C   0  0  0  0  0  0  0  0  0  0  0  0
    7.5107   -2.7791    4.5359 C   0  0  0  0  0  0  0  0  0  0  0  0
    8.4937   -3.8512    4.5562 C   0  0  0  0  0  0  0  0  0  0  0  0
    9.3737   -4.7779    4.5755 N   0  0  0  0  0  0  0  0  0  0  0  0
    6.3252   -3.1373    5.1956 C   0  0  0  0  0  0  0  0  0  0  0  0
    5.2786   -3.4621    5.7700 N   0  0  0  0  0  0  0  0  0  0  0  0
   -6.5138   -1.8524   -6.4731 H   0  0  0  0  0  0  0  0  0  0  0  0
   -6.7996   -4.1367   -0.7281 H   0  0  0  0  0  0  0  0  0  0  0  0
  -10.2506   -5.1691   -4.0381 H   0  0  0  0  0  0  0  0  0  0  0  0
   -7.5653    1.0159   -3.2067 H   0  0  0  0  0  0  0  0  0  0  0  0
   -7.7800   -0.6623   -3.7379 H   0  0  0  0  0  0  0  0  0  0  0  0
   -8.6402    0.5533   -5.6145 H   0  0  0  0  0  0  0  0  0  0  0  0
   -6.8737    0.5607   -6.1063 H   0  0  0  0  0  0  0  0  0  0  0  0
   -7.6024    1.9694   -5.2914 H   0  0  0  0  0  0  0  0  0  0  0  0
    4.2953    1.0176    6.1903 H   0  0  0  0  0  0  0  0  0  0  0  0
    2.7200    1.6912    5.9325 H   0  0  0  0  0  0  0  0  0  0  0  0
    4.6307    3.6773    4.8871 H   0  0  0  0  0  0  0  0  0  0  0  0
    4.9851    3.2143    6.6842 H   0  0  0  0  0  0  0  0  0  0  0  0
    3.4132    3.8500    6.1772 H   0  0  0  0  0  0  0  0  0  0  0  0
    0.5387    1.0711   -2.9614 H   0  0  0  0  0  0  0  0  0  0  0  0
   -0.7271   -0.2302   -3.4403 H   0  0  0  0  0  0  0  0  0  0  0  0
   -1.6577    1.2890   -4.7319 H   0  0  0  0  0  0  0  0  0  0  0  0
   -0.6887    2.6599   -3.9482 H   0  0  0  0  0  0  0  0  0  0  0  0
    0.0902    1.4898   -5.0422 H   0  0  0  0  0  0  0  0  0  0  0  0
    1.4543    0.2223   -1.6206 H   0  0  0  0  0  0  0  0  0  0  0  0
    2.7798    0.4794   -0.4877 H   0  0  0  0  0  0  0  0  0  0  0  0
    3.3649    2.4537   -1.1515 H   0  0  0  0  0  0  0  0  0  0  0  0
    2.7791    1.7583   -2.7905 H   0  0  0  0  0  0  0  0  0  0  0  0
    1.8015    2.9305   -1.9083 H   0  0  0  0  0  0  0  0  0  0  0  0
    5.1695   -1.3235    4.6938 H   0  0  0  0  0  0  0  0  0  0  0  0
   10.2796   -2.9082    3.3055 H   0  0  0  0  0  0  0  0  0  0  0  0
  1  2  2  3
  2  3  1  0
  3  4  2  0
  3  5  1  0
  5  6  2  0
  6  7  1  0
  7  8  1  0
  7  9  2  0
  9 10  1  0
  9 11  1  0
 11 12  2  0
 12 13  1  0
 13 14  2  3
 14 15  1  0
 15 16  3  0
 14 17  1  0
 17 18  3  0
  1 19  1  0
 19 20  2  0
 20 21  1  0
 21 22  1  0
 20 23  1  0
 23 24  1  0
 24 25  1  0
 25 26  1  0
 26 27  1  0
 27 28  1  0
 28 29  2  0
 29 30  1  0
 30 31  1  0
 28 32  1  0
 32 33  1  0
 33 34  1  0
 34 35  1  0
 35 36  1  0
 36 37  1  0
 37 38  1  0
 36 39  2  0
 39 40  1  0
 40 41  1  0
 41 42  1  0
 42 43  1  0
 43 44  1  0
 44 45  1  0
 45 46  1  0
 46 47  1  0
 47 48  1  0
 48 49  1  0
 46 50  1  0
 50 51  1  0
 43 52  1  0
 52 53  1  0
 39 54  1  0
 54 55  2  3
 55 56  1  0
 56 57  2  0
 56 58  1  0
 58 59  2  0
 59 60  1  0
 60 61  2  0
 61 62  1  0
 61 63  1  0
 63 64  1  0
 63 65  2  0
 65 66  1  0
 59 67  1  0
 67 68  2  3
 68 69  1  0
 69 70  3  0
 68 71  1  0
 71 72  3  0
 13  2  1  0
 49 19  1  0
 67 55  1  0
 12  5  1  0
 48 23  2  0
 65 58  1  0
 47 25  2  0
 45 26  2  0
 31 27  2  0
 44 32  2  0
 42 33  2  0
 41 35  2  0
  1 73  1  0
  6 74  1  0
 11 75  1  0
 21 76  1  0
 21 77  1  0
 22 78  1  0
 22 79  1  0
 22 80  1  0
 37 81  1  0
 37 82  1  0
 38 83  1  0
 38 84  1  0
 38 85  1  0
 50 86  1  0
 50 87  1  0
 51 88  1  0
 51 89  1  0
 51 90  1  0
 52 91  1  0
 52 92  1  0
 53 93  1  0
 53 94  1  0
 53 95  1  0
 54 96  1  0
 60 97  1  0
M  END

