
     RDKit          3D

 97108  0  0  0  0  0  0  0  0999 V2000
   -4.1060    6.4763   -3.2697 C   0  0  0  0  0  0  0  0  0  0  0  0
   -4.7532    5.5635   -2.2563 C   0  0  0  0  0  0  0  0  0  0  0  0
   -4.0208    4.9547   -1.2489 C   0  0  0  0  0  0  0  0  0  0  0  0
   -2.8330    5.1544   -0.7414 O   0  0  0  0  0  0  0  0  0  0  0  0
   -4.7905    3.8540   -0.6503 C   0  0  0  0  0  0  0  0  0  0  0  0
   -4.4607    3.0366    0.4222 C   0  0  0  0  0  0  0  0  0  0  0  0
   -5.5133    2.1259    0.8051 C   0  0  0  0  0  0  0  0  0  0  0  0
   -5.1860    1.0639    2.1763 Cl  0  0  0  0  0  0  0  0  0  0  0  0
   -6.5997    2.1530    0.1608 C   0  0  0  0  0  0  0  0  0  0  0  0
   -7.6901    1.3051    0.5266 F   0  0  0  0  0  0  0  0  0  0  0  0
   -6.9616    2.9893   -0.9563 C   0  0  0  0  0  0  0  0  0  0  0  0
   -5.9113    3.8566   -1.3117 C   0  0  0  0  0  0  0  0  0  0  0  0
   -5.8885    5.0603   -2.4519 C   0  0  0  0  0  0  0  0  0  0  0  0
   -7.2007    4.9547   -2.9700 C   0  0  0  0  0  0  0  0  0  0  0  0
   -7.5762    6.0856   -3.7369 C   0  0  0  0  0  0  0  0  0  0  0  0
   -7.8927    7.0714   -4.3946 N   0  0  0  0  0  0  0  0  0  0  0  0
   -7.8373    3.7393   -3.2998 C   0  0  0  0  0  0  0  0  0  0  0  0
   -8.3218    2.7927   -3.5404 N   0  0  0  0  0  0  0  0  0  0  0  0
   -2.7129    6.3984   -2.8740 C   0  0  0  0  0  0  0  0  0  0  0  0
   -1.6505    6.6394   -2.3365 C   0  0  0  0  0  0  0  0  0  0  0  0
   -1.8149    8.1033   -1.5574 C   0  0  0  0  0  0  0  0  0  0  0  0
   -1.7280    9.0824   -2.5983 C   0  0  0  0  0  0  0  0  0  0  0  0
   -0.4682    6.1065   -2.1054 C   0  0  0  0  0  0  0  0  0  0  0  0
    1.0214    6.2020   -1.1975 S   0  0  0  0  0  0  0  0  0  0  0  0
    1.6462    4.6428   -1.5323 C   0  0  0  0  0  0  0  0  0  0  0  0
    2.5959    3.7047   -1.0008 C   0  0  0  0  0  0  0  0  0  0  0  0
    3.4935    3.9306   -0.0029 C   0  0  0  0  0  0  0  0  0  0  0  0
    4.0725    2.8597    0.6430 C   0  0  0  0  0  0  0  0  0  0  0  0
    4.9171    3.0613    1.5157 N   0  0  0  0  0  0  0  0  0  0  0  0
    5.1553    4.7031    1.6756 S   0  0  0  0  0  0  0  0  0  0  0  0
    4.0064    5.1191    0.4647 N   0  0  0  0  0  0  0  0  0  0  0  0
    3.6353    1.6154    0.1381 C   0  0  0  0  0  0  0  0  0  0  0  0
    3.8020    0.3707    0.7892 C   0  0  0  0  0  0  0  0  0  0  0  0
    4.4000   -0.3646    2.1392 S   0  0  0  0  0  0  0  0  0  0  0  0
    3.6881   -1.9600    1.9162 C   0  0  0  0  0  0  0  0  0  0  0  0
    3.5498   -3.1055    2.3101 C   0  0  0  0  0  0  0  0  0  0  0  0
    4.2413   -3.0273    4.0372 C   0  0  0  0  0  0  0  0  0  0  0  0
    5.6642   -3.0283    3.7121 C   0  0  0  0  0  0  0  0  0  0  0  0
    3.2662   -4.2456    2.4520 C   0  0  0  0  0  0  0  0  0  0  0  0
    2.2844   -3.5875    0.4778 Se  0  0  0  0  0  2  0  0  0  0  0  0
    3.0744   -1.7525    0.8261 C   0  0  0  0  0  0  0  0  0  0  0  0
    3.0162   -0.5835    0.0837 C   0  0  0  0  0  0  0  0  0  0  0  0
    2.4566    0.0962   -0.9037 N   0  0  0  0  0  0  0  0  0  0  0  0
    2.7355    1.3639   -0.9361 C   0  0  0  0  0  0  0  0  0  0  0  0
    2.1752    2.5142   -1.5694 C   0  0  0  0  0  0  0  0  0  0  0  0
    1.1414    2.7132   -2.3542 N   0  0  0  0  0  0  0  0  0  0  0  0
    0.7693    4.0598   -2.3460 C   0  0  0  0  0  0  0  0  0  0  0  0
   -0.3423    4.8226   -2.6529 C   0  0  0  0  0  0  0  0  0  0  0  0
   -2.0444    4.4986   -3.5157 Se  0  0  0  0  0  2  0  0  0  0  0  0
    0.3600    1.7936   -3.1212 C   0  0  0  0  0  0  0  0  0  0  0  0
    0.9126    1.4704   -4.4577 C   0  0  0  0  0  0  0  0  0  0  0  0
    1.7600   -0.6490   -1.9623 C   0  0  0  0  0  0  0  0  0  0  0  0
    2.8627   -1.0151   -2.9545 C   0  0  0  0  0  0  0  0  0  0  0  0
    2.9427   -5.5920    2.6395 C   0  0  0  0  0  0  0  0  0  0  0  0
    2.8689   -6.6252    1.9265 C   0  0  0  0  0  0  0  0  0  0  0  0
    3.1162   -6.9151    0.5350 C   0  0  0  0  0  0  0  0  0  0  0  0
    3.4389   -6.0076   -0.3408 O   0  0  0  0  0  0  0  0  0  0  0  0
    2.9752   -8.2628    0.2068 C   0  0  0  0  0  0  0  0  0  0  0  0
    3.1298   -9.0379   -1.0244 C   0  0  0  0  0  0  0  0  0  0  0  0
    2.9598  -10.3075   -1.0022 C   0  0  0  0  0  0  0  0  0  0  0  0
    3.1571  -11.2560   -2.5560 Cl  0  0  0  0  0  0  0  0  0  0  0  0
    2.6136  -11.0603    0.0819 C   0  0  0  0  0  0  0  0  0  0  0  0
    2.4505  -10.3668    1.2789 C   0  0  0  0  0  0  0  0  0  0  0  0
    2.6232   -8.9758    1.3413 C   0  0  0  0  0  0  0  0  0  0  0  0
    2.5255   -8.0615    2.4728 C   0  0  0  0  0  0  0  0  0  0  0  0
    2.1476   -8.2352    3.7015 C   0  0  0  0  0  0  0  0  0  0  0  0
    1.8453   -9.7243    4.0498 C   0  0  0  0  0  0  0  0  0  0  0  0
    1.6268  -10.8363    4.3262 N   0  0  0  0  0  0  0  0  0  0  0  0
    1.9090   -7.4456    4.7574 C   0  0  0  0  0  0  0  0  0  0  0  0
    1.6990   -6.7062    5.7266 N   0  0  0  0  0  0  0  0  0  0  0  0
   -4.6459    6.8835   -3.9109 H   0  0  0  0  0  0  0  0  0  0  0  0
   -3.5716    3.0235    0.9254 H   0  0  0  0  0  0  0  0  0  0  0  0
   -7.9038    2.9067   -1.2897 H   0  0  0  0  0  0  0  0  0  0  0  0
   -2.8486    8.0304   -1.1487 H   0  0  0  0  0  0  0  0  0  0  0  0
   -1.0899    8.1583   -0.8181 H   0  0  0  0  0  0  0  0  0  0  0  0
   -0.8763    9.0395   -3.2947 H   0  0  0  0  0  0  0  0  0  0  0  0
   -1.4873   10.1011   -2.0612 H   0  0  0  0  0  0  0  0  0  0  0  0
   -2.6788    9.3487   -3.1569 H   0  0  0  0  0  0  0  0  0  0  0  0
    3.7717   -2.1809    4.3563 H   0  0  0  0  0  0  0  0  0  0  0  0
    3.8401   -3.9193    4.3962 H   0  0  0  0  0  0  0  0  0  0  0  0
    6.1982   -2.1359    4.1217 H   0  0  0  0  0  0  0  0  0  0  0  0
    6.1916   -3.8730    4.2295 H   0  0  0  0  0  0  0  0  0  0  0  0
    5.9412   -3.0750    2.6240 H   0  0  0  0  0  0  0  0  0  0  0  0
   -0.6435    2.3277   -3.4396 H   0  0  0  0  0  0  0  0  0  0  0  0
    0.0111    0.9713   -2.5605 H   0  0  0  0  0  0  0  0  0  0  0  0
    0.1952    1.7221   -5.3171 H   0  0  0  0  0  0  0  0  0  0  0  0
    1.0132    0.3656   -4.6506 H   0  0  0  0  0  0  0  0  0  0  0  0
    1.9201    1.8787   -4.6569 H   0  0  0  0  0  0  0  0  0  0  0  0
    0.9359   -0.3949   -2.4565 H   0  0  0  0  0  0  0  0  0  0  0  0
    1.5396   -1.7131   -1.4357 H   0  0  0  0  0  0  0  0  0  0  0  0
    3.6140   -1.6934   -2.4858 H   0  0  0  0  0  0  0  0  0  0  0  0
    3.4888   -0.1153   -3.2704 H   0  0  0  0  0  0  0  0  0  0  0  0
    2.4208   -1.3510   -3.8966 H   0  0  0  0  0  0  0  0  0  0  0  0
    2.6972   -5.7683    3.7516 H   0  0  0  0  0  0  0  0  0  0  0  0
    3.3571   -8.4016   -1.8457 H   0  0  0  0  0  0  0  0  0  0  0  0
    2.5136  -12.1423   -0.0364 H   0  0  0  0  0  0  0  0  0  0  0  0
    2.2194  -10.9348    2.1103 H   0  0  0  0  0  0  0  0  0  0  0  0
  1  2  2  3
  2  3  1  0
  3  4  2  0
  3  5  1  0
  5  6  2  0
  6  7  1  0
  7  8  1  0
  7  9  2  0
  9 10  1  0
  9 11  1  0
 11 12  2  0
 12 13  1  0
 13 14  2  3
 14 15  1  0
 15 16  3  0
 14 17  1  0
 17 18  3  0
  1 19  1  0
 19 20  2  0
 20 21  1  0
 21 22  1  0
 20 23  1  0
 23 24  1  0
 24 25  1  0
 25 26  1  0
 26 27  1  0
 27 28  1  0
 28 29  2  0
 29 30  1  0
 30 31  1  0
 28 32  1  0
 32 33  1  0
 33 34  1  0
 34 35  1  0
 35 36  1  0
 36 37  1  0
 37 38  1  0
 36 39  2  0
 39 40  1  0
 40 41  1  0
 41 42  1  0
 42 43  1  0
 43 44  1  0
 44 45  1  0
 45 46  1  0
 46 47  1  0
 47 48  1  0
 48 49  1  0
 46 50  1  0
 50 51  1  0
 43 52  1  0
 52 53  1  0
 39 54  1  0
 54 55  2  3
 55 56  1  0
 56 57  2  0
 56 58  1  0
 58 59  2  0
 59 60  1  0
 60 61  1  0
 60 62  2  0
 62 63  1  0
 63 64  2  0
 64 65  1  0
 65 66  2  3
 66 67  1  0
 67 68  3  0
 66 69  1  0
 69 70  3  0
 13  2  1  0
 49 19  1  0
 65 55  1  0
 12  5  1  0
 48 23  2  0
 64 58  1  0
 47 25  2  0
 45 26  2  0
 31 27  2  0
 44 32  2  0
 42 33  2  0
 41 35  2  0
  1 71  1  0
  6 72  1  0
 11 73  1  0
 21 74  1  0
 21 75  1  0
 22 76  1  0
 22 77  1  0
 22 78  1  0
 37 79  1  0
 37 80  1  0
 38 81  1  0
 38 82  1  0
 38 83  1  0
 50 84  1  0
 50 85  1  0
 51 86  1  0
 51 87  1  0
 51 88  1  0
 52 89  1  0
 52 90  1  0
 53 91  1  0
 53 92  1  0
 53 93  1  0
 54 94  1  0
 59 95  1  0
 62 96  1  0
 63 97  1  0
M  END

