
     RDKit          3D

 97108  0  0  0  0  0  0  0  0999 V2000
    1.9097   -0.0209   -7.0310 C   0  0  0  0  0  0  0  0  0  0  0  0
    3.1384    0.2528   -7.5206 C   0  0  0  0  0  0  0  0  0  0  0  0
    4.0568    1.2598   -7.3916 C   0  0  0  0  0  0  0  0  0  0  0  0
    3.8724    2.4088   -6.9166 O   0  0  0  0  0  0  0  0  0  0  0  0
    5.3523    0.7694   -7.9213 C   0  0  0  0  0  0  0  0  0  0  0  0
    6.5318    1.4700   -7.9472 C   0  0  0  0  0  0  0  0  0  0  0  0
    7.6907    0.8874   -8.4411 C   0  0  0  0  0  0  0  0  0  0  0  0
    9.2078    1.7616   -8.4475 Cl  0  0  0  0  0  0  0  0  0  0  0  0
    7.5515   -0.3909   -8.8859 C   0  0  0  0  0  0  0  0  0  0  0  0
    8.7115   -0.9776   -9.3588 F   0  0  0  0  0  0  0  0  0  0  0  0
    6.3515   -1.1053   -8.8672 C   0  0  0  0  0  0  0  0  0  0  0  0
    5.2043   -0.4703   -8.3412 C   0  0  0  0  0  0  0  0  0  0  0  0
    3.7516   -1.0375   -8.1569 C   0  0  0  0  0  0  0  0  0  0  0  0
    3.5040   -2.0851   -8.5264 C   0  0  0  0  0  0  0  0  0  0  0  0
    2.1933   -2.7788   -8.5695 C   0  0  0  0  0  0  0  0  0  0  0  0
    1.0894   -3.3531   -8.6012 N   0  0  0  0  0  0  0  0  0  0  0  0
    4.4201   -3.1391   -8.9596 C   0  0  0  0  0  0  0  0  0  0  0  0
    5.2080   -4.0396   -9.3166 N   0  0  0  0  0  0  0  0  0  0  0  0
    1.1114    0.7123   -6.1104 C   0  0  0  0  0  0  0  0  0  0  0  0
    0.5811    1.8911   -5.8066 C   0  0  0  0  0  0  0  0  0  0  0  0
    0.6270    2.9718   -6.9732 C   0  0  0  0  0  0  0  0  0  0  0  0
   -0.4975    2.6022   -7.8741 C   0  0  0  0  0  0  0  0  0  0  0  0
   -0.0912    2.1272   -4.6526 C   0  0  0  0  0  0  0  0  0  0  0  0
   -0.6763    3.6447   -3.8486 S   0  0  0  0  0  0  0  0  0  0  0  0
   -1.1607    2.9800   -2.3421 C   0  0  0  0  0  0  0  0  0  0  0  0
   -1.6315    3.2050   -1.0544 C   0  0  0  0  0  0  0  0  0  0  0  0
   -2.0120    4.3171   -0.3521 C   0  0  0  0  0  0  0  0  0  0  0  0
   -2.3747    4.2585    0.9659 C   0  0  0  0  0  0  0  0  0  0  0  0
   -2.7032    5.3950    1.5411 N   0  0  0  0  0  0  0  0  0  0  0  0
   -2.5457    6.5563    0.3197 S   0  0  0  0  0  0  0  0  0  0  0  0
   -2.0561    5.5890   -0.8980 N   0  0  0  0  0  0  0  0  0  0  0  0
   -2.3251    2.9733    1.5843 C   0  0  0  0  0  0  0  0  0  0  0  0
   -2.4568    2.6299    2.9181 C   0  0  0  0  0  0  0  0  0  0  0  0
   -2.8120    3.1632    4.4705 S   0  0  0  0  0  0  0  0  0  0  0  0
   -2.5575    1.6365    5.3363 C   0  0  0  0  0  0  0  0  0  0  0  0
   -2.5678    1.1847    6.6080 C   0  0  0  0  0  0  0  0  0  0  0  0
   -2.7950    2.2135    7.7856 C   0  0  0  0  0  0  0  0  0  0  0  0
   -1.3769    2.7951    7.9184 C   0  0  0  0  0  0  0  0  0  0  0  0
   -2.2974    0.0321    7.0569 C   0  0  0  0  0  0  0  0  0  0  0  0
   -1.8702   -0.7534    5.2081 Se  0  0  0  0  0  2  0  0  0  0  0  0
   -2.2176    0.8405    4.3210 C   0  0  0  0  0  0  0  0  0  0  0  0
   -2.1648    1.3483    3.0458 C   0  0  0  0  0  0  0  0  0  0  0  0
   -1.8416    0.8077    1.8220 N   0  0  0  0  0  0  0  0  0  0  0  0
   -1.9580    1.8400    0.9409 C   0  0  0  0  0  0  0  0  0  0  0  0
   -1.6245    1.9425   -0.4408 C   0  0  0  0  0  0  0  0  0  0  0  0
   -1.2039    1.0536   -1.3247 N   0  0  0  0  0  0  0  0  0  0  0  0
   -0.8699    1.6325   -2.5240 C   0  0  0  0  0  0  0  0  0  0  0  0
   -0.3544    1.3688   -3.6958 C   0  0  0  0  0  0  0  0  0  0  0  0
    0.5764   -0.3263   -4.5184 Se  0  0  0  0  0  2  0  0  0  0  0  0
   -1.5833   -0.3812   -1.3088 C   0  0  0  0  0  0  0  0  0  0  0  0
   -2.5525   -0.6690   -2.5049 C   0  0  0  0  0  0  0  0  0  0  0  0
   -1.2704   -0.5099    1.6019 C   0  0  0  0  0  0  0  0  0  0  0  0
    0.2509   -0.4883    1.4145 C   0  0  0  0  0  0  0  0  0  0  0  0
   -2.0708   -0.9648    8.0676 C   0  0  0  0  0  0  0  0  0  0  0  0
   -2.6226   -2.2492    7.6882 C   0  0  0  0  0  0  0  0  0  0  0  0
   -3.3560   -2.4760    6.5477 C   0  0  0  0  0  0  0  0  0  0  0  0
   -4.3552   -1.7817    6.0864 O   0  0  0  0  0  0  0  0  0  0  0  0
   -2.8665   -3.6528    5.8941 C   0  0  0  0  0  0  0  0  0  0  0  0
   -3.2599   -4.2471    4.7277 C   0  0  0  0  0  0  0  0  0  0  0  0
   -2.6770   -5.3936    4.2321 C   0  0  0  0  0  0  0  0  0  0  0  0
   -1.6727   -5.9158    4.9734 C   0  0  0  0  0  0  0  0  0  0  0  0
   -0.8316   -7.4801    4.3053 Br  0  0  0  0  0  0  0  0  0  0  0  0
   -1.2462   -5.3083    6.1828 C   0  0  0  0  0  0  0  0  0  0  0  0
   -1.8437   -4.1776    6.6243 C   0  0  0  0  0  0  0  0  0  0  0  0
   -1.5762   -3.2591    7.9442 C   0  0  0  0  0  0  0  0  0  0  0  0
   -0.9791   -3.9242    8.8184 C   0  0  0  0  0  0  0  0  0  0  0  0
    0.1498   -4.7566    8.3608 C   0  0  0  0  0  0  0  0  0  0  0  0
    1.0611   -5.4209    7.9875 N   0  0  0  0  0  0  0  0  0  0  0  0
   -1.2810   -4.1193   10.1797 C   0  0  0  0  0  0  0  0  0  0  0  0
   -1.5190   -4.2644   11.3097 N   0  0  0  0  0  0  0  0  0  0  0  0
    1.3719   -0.9161   -7.3900 H   0  0  0  0  0  0  0  0  0  0  0  0
    6.6060    2.4810   -7.6320 H   0  0  0  0  0  0  0  0  0  0  0  0
    6.4023   -2.0542   -9.2727 H   0  0  0  0  0  0  0  0  0  0  0  0
    1.5283    2.7720   -7.5486 H   0  0  0  0  0  0  0  0  0  0  0  0
    0.6635    3.9164   -6.5343 H   0  0  0  0  0  0  0  0  0  0  0  0
   -1.4462    3.1000   -7.5573 H   0  0  0  0  0  0  0  0  0  0  0  0
   -0.6707    1.5079   -7.8945 H   0  0  0  0  0  0  0  0  0  0  0  0
   -0.3696    2.9369   -8.9171 H   0  0  0  0  0  0  0  0  0  0  0  0
   -3.1076    1.7228    8.6701 H   0  0  0  0  0  0  0  0  0  0  0  0
   -3.5048    3.0117    7.4318 H   0  0  0  0  0  0  0  0  0  0  0  0
   -0.8740    2.8571    6.9158 H   0  0  0  0  0  0  0  0  0  0  0  0
   -0.8478    2.0725    8.5977 H   0  0  0  0  0  0  0  0  0  0  0  0
   -1.4506    3.7786    8.4322 H   0  0  0  0  0  0  0  0  0  0  0  0
   -2.3393   -0.4791   -0.5074 H   0  0  0  0  0  0  0  0  0  0  0  0
   -0.7937   -1.0113   -1.3703 H   0  0  0  0  0  0  0  0  0  0  0  0
   -3.0547    0.2772   -2.7966 H   0  0  0  0  0  0  0  0  0  0  0  0
   -3.3567   -1.3791   -2.1631 H   0  0  0  0  0  0  0  0  0  0  0  0
   -2.0437   -1.1576   -3.3266 H   0  0  0  0  0  0  0  0  0  0  0  0
   -1.7348   -1.2532    1.0929 H   0  0  0  0  0  0  0  0  0  0  0  0
   -1.2775   -1.0352    2.6874 H   0  0  0  0  0  0  0  0  0  0  0  0
    0.7971   -0.9816    2.2107 H   0  0  0  0  0  0  0  0  0  0  0  0
    0.6041   -1.0364    0.4678 H   0  0  0  0  0  0  0  0  0  0  0  0
    0.6040    0.5653    1.1952 H   0  0  0  0  0  0  0  0  0  0  0  0
   -1.6549   -0.9213    9.0043 H   0  0  0  0  0  0  0  0  0  0  0  0
   -4.0511   -3.8076    4.1478 H   0  0  0  0  0  0  0  0  0  0  0  0
   -3.0040   -5.8630    3.3103 H   0  0  0  0  0  0  0  0  0  0  0  0
   -0.4778   -5.8587    6.6250 H   0  0  0  0  0  0  0  0  0  0  0  0
  1  2  2  3
  2  3  1  0
  3  4  2  0
  3  5  1  0
  5  6  2  0
  6  7  1  0
  7  8  1  0
  7  9  2  0
  9 10  1  0
  9 11  1  0
 11 12  2  0
 12 13  1  0
 13 14  2  3
 14 15  1  0
 15 16  3  0
 14 17  1  0
 17 18  3  0
  1 19  1  0
 19 20  2  0
 20 21  1  0
 21 22  1  0
 20 23  1  0
 23 24  1  0
 24 25  1  0
 25 26  1  0
 26 27  1  0
 27 28  1  0
 28 29  2  0
 29 30  1  0
 30 31  1  0
 28 32  1  0
 32 33  1  0
 33 34  1  0
 34 35  1  0
 35 36  1  0
 36 37  1  0
 37 38  1  0
 36 39  2  0
 39 40  1  0
 40 41  1  0
 41 42  1  0
 42 43  1  0
 43 44  1  0
 44 45  1  0
 45 46  1  0
 46 47  1  0
 47 48  1  0
 48 49  1  0
 46 50  1  0
 50 51  1  0
 43 52  1  0
 52 53  1  0
 39 54  1  0
 54 55  2  3
 55 56  1  0
 56 57  2  0
 56 58  1  0
 58 59  2  0
 59 60  1  0
 60 61  2  0
 61 62  1  0
 61 63  1  0
 63 64  2  0
 64 65  1  0
 65 66  2  3
 66 67  1  0
 67 68  3  0
 66 69  1  0
 69 70  3  0
 13  2  1  0
 49 19  1  0
 65 55  1  0
 12  5  1  0
 48 23  2  0
 64 58  1  0
 47 25  2  0
 45 26  2  0
 31 27  2  0
 44 32  2  0
 42 33  2  0
 41 35  2  0
  1 71  1  0
  6 72  1  0
 11 73  1  0
 21 74  1  0
 21 75  1  0
 22 76  1  0
 22 77  1  0
 22 78  1  0
 37 79  1  0
 37 80  1  0
 38 81  1  0
 38 82  1  0
 38 83  1  0
 50 84  1  0
 50 85  1  0
 51 86  1  0
 51 87  1  0
 51 88  1  0
 52 89  1  0
 52 90  1  0
 53 91  1  0
 53 92  1  0
 53 93  1  0
 54 94  1  0
 59 95  1  0
 60 96  1  0
 63 97  1  0
M  END

