
     RDKit          3D

 64 71  0  0  0  0  0  0  0  0999 V2000
   -3.8106   -1.6511   -0.0135 C   0  0  0  0  0  0  0  0  0  0  0  0
   -3.6181   -2.4065    1.0861 C   0  0  0  0  0  0  0  0  0  0  0  0
   -2.3444   -3.0112    1.5077 C   0  0  0  0  0  0  0  0  0  0  0  0
   -1.1997   -2.7532    1.0505 O   0  0  0  0  0  0  0  0  0  0  0  0
   -2.6320   -4.0617    2.4617 C   0  0  0  0  0  0  0  0  0  0  0  0
   -1.7427   -4.9689    3.0389 C   0  0  0  0  0  0  0  0  0  0  0  0
   -2.2601   -5.9932    3.8454 C   0  0  0  0  0  0  0  0  0  0  0  0
   -1.1681   -7.1488    4.5877 Cl  0  0  0  0  0  0  0  0  0  0  0  0
   -3.6511   -6.1134    4.0254 C   0  0  0  0  0  0  0  0  0  0  0  0
   -4.1561   -7.1345    4.7618 F   0  0  0  0  0  0  0  0  0  0  0  0
   -4.5275   -5.1936    3.4265 C   0  0  0  0  0  0  0  0  0  0  0  0
   -3.9972   -4.1367    2.6705 C   0  0  0  0  0  0  0  0  0  0  0  0
   -4.6812   -3.0465    1.9206 C   0  0  0  0  0  0  0  0  0  0  0  0
   -5.9330   -2.5698    2.1484 C   0  0  0  0  0  0  0  0  0  0  0  0
   -6.4167   -1.3538    1.5457 C   0  0  0  0  0  0  0  0  0  0  0  0
   -6.8136   -0.3763    1.0688 N   0  0  0  0  0  0  0  0  0  0  0  0
   -6.8118   -3.1523    3.1284 C   0  0  0  0  0  0  0  0  0  0  0  0
   -7.5199   -3.6123    3.9224 N   0  0  0  0  0  0  0  0  0  0  0  0
   -2.7220   -1.0809   -0.8211 C   0  0  0  0  0  0  0  0  0  0  0  0
   -2.5954   -1.2439   -2.1993 C   0  0  0  0  0  0  0  0  0  0  0  0
   -1.4845   -0.5721   -2.7223 C   0  0  0  0  0  0  0  0  0  0  0  0
   -0.9644   -0.7256   -4.1347 C   0  0  0  0  0  0  0  0  0  0  0  0
   -0.2619   -2.0091   -4.2364 N   0  0  0  0  0  0  0  0  0  0  0  0
    0.6762   -2.2265   -5.1070 C   0  0  0  0  0  0  0  0  0  0  0  0
    1.1403   -1.1378   -5.9753 C   0  0  0  0  0  0  0  0  0  0  0  0
    0.7777    0.0852   -5.7324 N   0  0  0  0  0  0  0  0  0  0  0  0
   -0.0185    0.4562   -4.5560 C   0  0  0  0  0  0  0  0  0  0  0  0
    0.8886    0.8944   -3.4196 C   0  0  0  0  0  0  0  0  0  0  0  0
    0.4717    0.8007   -2.1024 C   0  0  0  0  0  0  0  0  0  0  0  0
   -0.7628    0.1121   -1.7583 C   0  0  0  0  0  0  0  0  0  0  0  0
   -1.4819   -0.0788   -0.2521 S   0  0  0  0  0  0  0  0  0  0  0  0
    1.6029    1.5093   -1.0859 S   0  0  0  0  0  0  0  0  0  0  0  0
    2.6702    1.9330   -2.3332 C   0  0  0  0  0  0  0  0  0  0  0  0
    2.1115    1.5665   -3.5562 C   0  0  0  0  0  0  0  0  0  0  0  0
    3.9129    2.7126   -2.1956 C   0  0  0  0  0  0  0  0  0  0  0  0
    4.7093    2.7211   -1.1115 C   0  0  0  0  0  0  0  0  0  0  0  0
    5.5942    3.8410   -0.7962 C   0  0  0  0  0  0  0  0  0  0  0  0
    5.9509    4.7506   -1.5911 O   0  0  0  0  0  0  0  0  0  0  0  0
    5.9071    3.7837    0.6172 C   0  0  0  0  0  0  0  0  0  0  0  0
    6.5965    4.7167    1.3917 C   0  0  0  0  0  0  0  0  0  0  0  0
    6.6895    4.4985    2.7734 C   0  0  0  0  0  0  0  0  0  0  0  0
    7.3504    5.3892    3.5536 F   0  0  0  0  0  0  0  0  0  0  0  0
    6.0780    3.3717    3.3553 C   0  0  0  0  0  0  0  0  0  0  0  0
    6.1473    3.1832    4.6969 F   0  0  0  0  0  0  0  0  0  0  0  0
    5.3845    2.4459    2.5566 C   0  0  0  0  0  0  0  0  0  0  0  0
    5.3267    2.6544    1.1707 C   0  0  0  0  0  0  0  0  0  0  0  0
    4.6815    1.8494    0.0991 C   0  0  0  0  0  0  0  0  0  0  0  0
    4.5472    0.4990    0.1009 C   0  0  0  0  0  0  0  0  0  0  0  0
    4.3949   -0.2495   -1.1223 C   0  0  0  0  0  0  0  0  0  0  0  0
    4.2758   -0.8570   -2.1012 N   0  0  0  0  0  0  0  0  0  0  0  0
    4.7131   -0.2922    1.2927 C   0  0  0  0  0  0  0  0  0  0  0  0
    4.8455   -0.9390    2.2437 N   0  0  0  0  0  0  0  0  0  0  0  0
   -4.8094   -1.5186   -0.4054 H   0  0  0  0  0  0  0  0  0  0  0  0
   -0.6788   -4.8929    2.8545 H   0  0  0  0  0  0  0  0  0  0  0  0
   -5.5873   -5.3503    3.5235 H   0  0  0  0  0  0  0  0  0  0  0  0
   -3.2587   -1.8595   -2.7943 H   0  0  0  0  0  0  0  0  0  0  0  0
   -1.8273   -0.7440   -4.8360 H   0  0  0  0  0  0  0  0  0  0  0  0
    1.1260   -3.2076   -5.1798 H   0  0  0  0  0  0  0  0  0  0  0  0
    1.7711   -1.3540   -6.8273 H   0  0  0  0  0  0  0  0  0  0  0  0
   -0.6486    1.3311   -4.8267 H   0  0  0  0  0  0  0  0  0  0  0  0
    2.5741    1.7830   -4.5114 H   0  0  0  0  0  0  0  0  0  0  0  0
    4.1252    3.4139   -2.9930 H   0  0  0  0  0  0  0  0  0  0  0  0
    7.0362    5.5978    0.9408 H   0  0  0  0  0  0  0  0  0  0  0  0
    4.8847    1.6159    3.0284 H   0  0  0  0  0  0  0  0  0  0  0  0
  1  2  2  3
  2  3  1  0
  3  4  2  0
  3  5  1  0
  5  6  2  0
  6  7  1  0
  7  8  1  0
  7  9  2  0
  9 10  1  0
  9 11  1  0
 11 12  2  0
 12 13  1  0
 13 14  2  3
 14 15  1  0
 15 16  3  0
 14 17  1  0
 17 18  3  0
  1 19  1  0
 19 20  2  0
 20 21  1  0
 21 22  1  0
 22 23  1  0
 23 24  2  0
 24 25  1  0
 25 26  2  0
 26 27  1  0
 27 28  1  0
 28 29  2  0
 29 30  1  0
 30 31  1  0
 29 32  1  0
 32 33  1  0
 33 34  2  0
 33 35  1  0
 35 36  2  3
 36 37  1  0
 37 38  2  0
 37 39  1  0
 39 40  2  0
 40 41  1  0
 41 42  1  0
 41 43  2  0
 43 44  1  0
 43 45  1  0
 45 46  2  0
 46 47  1  0
 47 48  2  3
 48 49  1  0
 49 50  3  0
 48 51  1  0
 51 52  3  0
 13  2  1  0
 31 19  1  0
 47 36  1  0
 12  5  1  0
 30 21  2  0
 46 39  1  0
 27 22  1  0
 34 28  1  0
  1 53  1  0
  6 54  1  0
 11 55  1  0
 20 56  1  0
 22 57  1  0
 24 58  1  0
 25 59  1  0
 27 60  1  0
 34 61  1  0
 35 62  1  0
 40 63  1  0
 45 64  1  0
M  END

