
     RDKit          3D

102113  0  0  0  0  0  0  0  0999 V2000
   -4.6558   -5.0475    3.5457 C   0  0  0  0  0  0  0  0  0  0  0  0
   -4.9013   -4.5782    4.7850 C   0  0  0  0  0  0  0  0  0  0  0  0
   -3.9521   -3.8143    5.6043 C   0  0  0  0  0  0  0  0  0  0  0  0
   -2.7048   -3.7359    5.4285 O   0  0  0  0  0  0  0  0  0  0  0  0
   -4.6726   -3.2144    6.7014 C   0  0  0  0  0  0  0  0  0  0  0  0
   -4.1966   -2.3023    7.6453 C   0  0  0  0  0  0  0  0  0  0  0  0
   -5.1008   -1.7575    8.5689 C   0  0  0  0  0  0  0  0  0  0  0  0
   -4.5335   -0.5983    9.7633 Cl  0  0  0  0  0  0  0  0  0  0  0  0
   -6.4604   -2.1221    8.5236 C   0  0  0  0  0  0  0  0  0  0  0  0
   -7.3443   -1.5705    9.3950 F   0  0  0  0  0  0  0  0  0  0  0  0
   -6.9185   -3.0370    7.5566 C   0  0  0  0  0  0  0  0  0  0  0  0
   -5.9963   -3.6142    6.6646 C   0  0  0  0  0  0  0  0  0  0  0  0
   -6.2020   -4.5699    5.5338 C   0  0  0  0  0  0  0  0  0  0  0  0
   -7.2736   -5.3947    5.3584 C   0  0  0  0  0  0  0  0  0  0  0  0
   -7.3278   -6.4047    4.3322 C   0  0  0  0  0  0  0  0  0  0  0  0
   -7.3956   -7.2214    3.5076 N   0  0  0  0  0  0  0  0  0  0  0  0
   -8.4047   -5.3933    6.2484 C   0  0  0  0  0  0  0  0  0  0  0  0
   -9.3233   -5.4007    6.9576 N   0  0  0  0  0  0  0  0  0  0  0  0
   -3.3935   -4.7953    2.8353 C   0  0  0  0  0  0  0  0  0  0  0  0
   -2.4980   -5.7844    2.4067 C   0  0  0  0  0  0  0  0  0  0  0  0
   -2.7159   -7.1470    2.6348 O   0  0  0  0  0  0  0  0  0  0  0  0
   -1.6800   -8.0821    2.9431 C   0  0  0  0  0  0  0  0  0  0  0  0
   -1.9776   -8.7219    4.2960 C   0  0  0  0  0  0  0  0  0  0  0  0
   -1.3959   -5.2180    1.7538 C   0  0  0  0  0  0  0  0  0  0  0  0
   -0.0520   -5.8424    0.8955 S   0  0  0  0  0  0  0  0  0  0  0  0
    0.4748   -4.2752    0.5058 C   0  0  0  0  0  0  0  0  0  0  0  0
    1.3318   -3.6658   -0.3734 C   0  0  0  0  0  0  0  0  0  0  0  0
    2.2170   -4.1827   -1.3310 C   0  0  0  0  0  0  0  0  0  0  0  0
    2.8277   -3.2823   -2.2562 C   0  0  0  0  0  0  0  0  0  0  0  0
    3.6755   -3.8176   -3.1674 N   0  0  0  0  0  0  0  0  0  0  0  0
    3.5708   -5.4160   -2.7414 S   0  0  0  0  0  0  0  0  0  0  0  0
    2.5217   -5.4989   -1.4611 N   0  0  0  0  0  0  0  0  0  0  0  0
    2.5482   -1.9146   -2.1474 C   0  0  0  0  0  0  0  0  0  0  0  0
    3.0867   -0.8187   -2.7637 C   0  0  0  0  0  0  0  0  0  0  0  0
    4.2029   -0.4180   -3.9810 S   0  0  0  0  0  0  0  0  0  0  0  0
    4.0478    1.2509   -3.6231 C   0  0  0  0  0  0  0  0  0  0  0  0
    4.5176    2.4433   -4.2001 C   0  0  0  0  0  0  0  0  0  0  0  0
    5.3453    2.5611   -5.3334 O   0  0  0  0  0  0  0  0  0  0  0  0
    5.7332    1.4689   -6.1635 C   0  0  0  0  0  0  0  0  0  0  0  0
    6.6525    1.9717   -7.2666 C   0  0  0  0  0  0  0  0  0  0  0  0
    4.0100    3.5625   -3.5208 C   0  0  0  0  0  0  0  0  0  0  0  0
    2.9837    3.0734   -2.2548 S   0  0  0  0  0  0  0  0  0  0  0  0
    3.1908    1.4449   -2.5675 C   0  0  0  0  0  0  0  0  0  0  0  0
    2.6248    0.2709   -2.1045 C   0  0  0  0  0  0  0  0  0  0  0  0
    1.7854   -0.0343   -1.0842 N   0  0  0  0  0  0  0  0  0  0  0  0
    1.6926   -1.3999   -1.1605 C   0  0  0  0  0  0  0  0  0  0  0  0
    0.9969   -2.3041   -0.3258 C   0  0  0  0  0  0  0  0  0  0  0  0
   -0.1261   -2.0943    0.4294 N   0  0  0  0  0  0  0  0  0  0  0  0
   -0.3656   -3.3162    0.9722 C   0  0  0  0  0  0  0  0  0  0  0  0
   -1.4382   -3.8485    1.6687 C   0  0  0  0  0  0  0  0  0  0  0  0
   -2.8313   -3.2478    2.3848 S   0  0  0  0  0  0  0  0  0  0  0  0
   -1.1666   -1.0871    0.1768 C   0  0  0  0  0  0  0  0  0  0  0  0
   -2.2275   -1.6195   -0.7863 C   0  0  0  0  0  0  0  0  0  0  0  0
    1.6023    0.8055    0.1137 C   0  0  0  0  0  0  0  0  0  0  0  0
    0.6674    1.9922   -0.1526 C   0  0  0  0  0  0  0  0  0  0  0  0
    4.0464    4.9490   -4.0039 C   0  0  0  0  0  0  0  0  0  0  0  0
    2.9998    5.4799   -4.6674 C   0  0  0  0  0  0  0  0  0  0  0  0
    1.8019    4.7370   -5.0860 C   0  0  0  0  0  0  0  0  0  0  0  0
    1.7180    3.4880   -5.2593 O   0  0  0  0  0  0  0  0  0  0  0  0
    0.7337    5.6773   -5.3244 C   0  0  0  0  0  0  0  0  0  0  0  0
   -0.6101    5.4022   -5.5797 C   0  0  0  0  0  0  0  0  0  0  0  0
   -1.5123    6.4711   -5.6185 C   0  0  0  0  0  0  0  0  0  0  0  0
   -1.0721    7.7889   -5.3615 C   0  0  0  0  0  0  0  0  0  0  0  0
   -2.0594    8.9246   -5.3572 C   0  0  0  0  0  0  0  0  0  0  0  0
    0.2986    8.0410   -5.1314 C   0  0  0  0  0  0  0  0  0  0  0  0
    1.2067    6.9654   -5.1500 C   0  0  0  0  0  0  0  0  0  0  0  0
    2.6748    6.9276   -4.8660 C   0  0  0  0  0  0  0  0  0  0  0  0
    3.5477    7.9579   -4.9960 C   0  0  0  0  0  0  0  0  0  0  0  0
    3.1257    9.2634   -5.4360 C   0  0  0  0  0  0  0  0  0  0  0  0
    2.7905   10.3129   -5.7913 N   0  0  0  0  0  0  0  0  0  0  0  0
    4.9692    7.7900   -4.8439 C   0  0  0  0  0  0  0  0  0  0  0  0
    6.1170    7.6742   -4.7251 N   0  0  0  0  0  0  0  0  0  0  0  0
   -5.4066   -5.5742    2.9832 H   0  0  0  0  0  0  0  0  0  0  0  0
   -3.1569   -2.0014    7.6474 H   0  0  0  0  0  0  0  0  0  0  0  0
   -7.9747   -3.2421    7.5091 H   0  0  0  0  0  0  0  0  0  0  0  0
   -0.6899   -7.5891    2.9992 H   0  0  0  0  0  0  0  0  0  0  0  0
   -1.6550   -8.8756    2.1592 H   0  0  0  0  0  0  0  0  0  0  0  0
   -1.1885   -9.4631    4.5415 H   0  0  0  0  0  0  0  0  0  0  0  0
   -2.0008   -7.9405    5.0847 H   0  0  0  0  0  0  0  0  0  0  0  0
   -2.9650   -9.2334    4.2691 H   0  0  0  0  0  0  0  0  0  0  0  0
    4.8300    1.0082   -6.6176 H   0  0  0  0  0  0  0  0  0  0  0  0
    6.2837    0.7150   -5.5554 H   0  0  0  0  0  0  0  0  0  0  0  0
    7.5575    2.4478   -6.8244 H   0  0  0  0  0  0  0  0  0  0  0  0
    6.1203    2.7247   -7.8893 H   0  0  0  0  0  0  0  0  0  0  0  0
    6.9625    1.1177   -7.9098 H   0  0  0  0  0  0  0  0  0  0  0  0
   -1.6344   -0.7778    1.1324 H   0  0  0  0  0  0  0  0  0  0  0  0
   -0.7446   -0.2027   -0.3125 H   0  0  0  0  0  0  0  0  0  0  0  0
   -1.7550   -1.9815   -1.7240 H   0  0  0  0  0  0  0  0  0  0  0  0
   -2.7992   -2.4449   -0.3277 H   0  0  0  0  0  0  0  0  0  0  0  0
   -2.9408   -0.8057   -1.0401 H   0  0  0  0  0  0  0  0  0  0  0  0
    2.5961    1.1877    0.4396 H   0  0  0  0  0  0  0  0  0  0  0  0
    1.2212    0.2044    0.9661 H   0  0  0  0  0  0  0  0  0  0  0  0
    0.3764    2.0476   -1.2210 H   0  0  0  0  0  0  0  0  0  0  0  0
    1.1650    2.9370    0.1380 H   0  0  0  0  0  0  0  0  0  0  0  0
   -0.2547    1.9080    0.4591 H   0  0  0  0  0  0  0  0  0  0  0  0
    4.8267    5.5748   -3.6048 H   0  0  0  0  0  0  0  0  0  0  0  0
   -0.9564    4.3864   -5.7170 H   0  0  0  0  0  0  0  0  0  0  0  0
   -2.5605    6.2703   -5.8122 H   0  0  0  0  0  0  0  0  0  0  0  0
   -2.1242    9.3596   -6.3759 H   0  0  0  0  0  0  0  0  0  0  0  0
   -1.7426    9.7153   -4.6428 H   0  0  0  0  0  0  0  0  0  0  0  0
   -3.0683    8.5734   -5.0512 H   0  0  0  0  0  0  0  0  0  0  0  0
    0.6193    9.0442   -4.8871 H   0  0  0  0  0  0  0  0  0  0  0  0
  1  2  2  3
  2  3  1  0
  3  4  2  0
  3  5  1  0
  5  6  2  0
  6  7  1  0
  7  8  1  0
  7  9  2  0
  9 10  1  0
  9 11  1  0
 11 12  2  0
 12 13  1  0
 13 14  2  3
 14 15  1  0
 15 16  3  0
 14 17  1  0
 17 18  3  0
  1 19  1  0
 19 20  2  0
 20 21  1  0
 21 22  1  0
 22 23  1  0
 20 24  1  0
 24 25  1  0
 25 26  1  0
 26 27  1  0
 27 28  1  0
 28 29  1  0
 29 30  2  0
 30 31  1  0
 31 32  1  0
 29 33  1  0
 33 34  1  0
 34 35  1  0
 35 36  1  0
 36 37  1  0
 37 38  1  0
 38 39  1  0
 39 40  1  0
 37 41  2  0
 41 42  1  0
 42 43  1  0
 43 44  1  0
 44 45  1  0
 45 46  1  0
 46 47  1  0
 47 48  1  0
 48 49  1  0
 49 50  1  0
 50 51  1  0
 48 52  1  0
 52 53  1  0
 45 54  1  0
 54 55  1  0
 41 56  1  0
 56 57  2  3
 57 58  1  0
 58 59  2  0
 58 60  1  0
 60 61  2  0
 61 62  1  0
 62 63  2  0
 63 64  1  0
 63 65  1  0
 65 66  2  0
 66 67  1  0
 67 68  2  3
 68 69  1  0
 69 70  3  0
 68 71  1  0
 71 72  3  0
 13  2  1  0
 51 19  1  0
 67 57  1  0
 12  5  1  0
 50 24  2  0
 66 60  1  0
 49 26  2  0
 47 27  2  0
 32 28  2  0
 46 33  2  0
 44 34  2  0
 43 36  2  0
  1 73  1  0
  6 74  1  0
 11 75  1  0
 22 76  1  0
 22 77  1  0
 23 78  1  0
 23 79  1  0
 23 80  1  0
 39 81  1  0
 39 82  1  0
 40 83  1  0
 40 84  1  0
 40 85  1  0
 52 86  1  0
 52 87  1  0
 53 88  1  0
 53 89  1  0
 53 90  1  0
 54 91  1  0
 54 92  1  0
 55 93  1  0
 55 94  1  0
 55 95  1  0
 56 96  1  0
 61 97  1  0
 62 98  1  0
 64 99  1  0
 64100  1  0
 64101  1  0
 65102  1  0
M  END

