
     RDKit          3D

 99110  0  0  0  0  0  0  0  0999 V2000
    4.0073   -0.2999    4.7243 C   0  0  0  0  0  0  0  0  0  0  0  0
    3.8848    0.6403    5.6798 C   0  0  0  0  0  0  0  0  0  0  0  0
    2.7581    0.7821    6.6093 C   0  0  0  0  0  0  0  0  0  0  0  0
    1.6426    0.2000    6.5351 O   0  0  0  0  0  0  0  0  0  0  0  0
    3.1815    1.6136    7.7144 C   0  0  0  0  0  0  0  0  0  0  0  0
    2.4563    1.9531    8.8594 C   0  0  0  0  0  0  0  0  0  0  0  0
    3.0874    2.7194    9.8495 C   0  0  0  0  0  0  0  0  0  0  0  0
    2.2012    3.1565   11.3002 Cl  0  0  0  0  0  0  0  0  0  0  0  0
    4.4312    3.1073    9.6876 C   0  0  0  0  0  0  0  0  0  0  0  0
    5.0497    3.8270   10.6558 F   0  0  0  0  0  0  0  0  0  0  0  0
    5.1430    2.7496    8.5308 C   0  0  0  0  0  0  0  0  0  0  0  0
    4.4915    2.0122    7.5275 C   0  0  0  0  0  0  0  0  0  0  0  0
    4.9821    1.5076    6.2149 C   0  0  0  0  0  0  0  0  0  0  0  0
    6.0913    1.9177    5.5438 C   0  0  0  0  0  0  0  0  0  0  0  0
    7.0668    2.8109    6.1135 C   0  0  0  0  0  0  0  0  0  0  0  0
    7.8611    3.5259    6.5547 N   0  0  0  0  0  0  0  0  0  0  0  0
    6.3088    1.5933    4.1583 C   0  0  0  0  0  0  0  0  0  0  0  0
    6.4905    1.3422    3.0432 N   0  0  0  0  0  0  0  0  0  0  0  0
    2.8995   -1.1176    4.1970 C   0  0  0  0  0  0  0  0  0  0  0  0
    3.0492   -2.4446    3.7743 C   0  0  0  0  0  0  0  0  0  0  0  0
    4.2549   -3.1468    3.9401 O   0  0  0  0  0  0  0  0  0  0  0  0
    4.7407   -4.1531    3.0526 C   0  0  0  0  0  0  0  0  0  0  0  0
    4.9707   -3.5776    1.6581 C   0  0  0  0  0  0  0  0  0  0  0  0
    1.8859   -2.9198    3.1528 C   0  0  0  0  0  0  0  0  0  0  0  0
    1.4565   -4.3752    2.3815 S   0  0  0  0  0  0  0  0  0  0  0  0
   -0.0525   -3.7500    1.9386 C   0  0  0  0  0  0  0  0  0  0  0  0
   -0.9291   -3.9953    0.9250 C   0  0  0  0  0  0  0  0  0  0  0  0
   -0.8805   -4.9954   -0.0532 C   0  0  0  0  0  0  0  0  0  0  0  0
   -1.6401   -4.8297   -1.2430 C   0  0  0  0  0  0  0  0  0  0  0  0
   -1.5083   -5.7825   -2.1994 N   0  0  0  0  0  0  0  0  0  0  0  0
   -0.4174   -6.7761   -1.4495 S   0  0  0  0  0  0  0  0  0  0  0  0
   -0.0753   -6.0855    0.0139 N   0  0  0  0  0  0  0  0  0  0  0  0
   -2.4521   -3.7032   -1.3630 C   0  0  0  0  0  0  0  0  0  0  0  0
   -3.2261   -3.2676   -2.3964 C   0  0  0  0  0  0  0  0  0  0  0  0
   -3.3925   -3.5537   -4.0617 S   0  0  0  0  0  0  0  0  0  0  0  0
   -4.2650   -2.0968   -4.2402 C   0  0  0  0  0  0  0  0  0  0  0  0
   -4.5739   -1.3433   -5.3668 C   0  0  0  0  0  0  0  0  0  0  0  0
   -4.4298   -1.8860   -6.6561 O   0  0  0  0  0  0  0  0  0  0  0  0
   -4.5314   -1.1927   -7.8998 C   0  0  0  0  0  0  0  0  0  0  0  0
   -3.2113   -0.5124   -8.2488 C   0  0  0  0  0  0  0  0  0  0  0  0
   -4.9752   -0.0351   -4.9948 C   0  0  0  0  0  0  0  0  0  0  0  0
   -4.9268    0.1260   -3.2929 S   0  0  0  0  0  0  0  0  0  0  0  0
   -4.4080   -1.4432   -3.0432 C   0  0  0  0  0  0  0  0  0  0  0  0
   -3.7961   -2.1121   -1.9979 C   0  0  0  0  0  0  0  0  0  0  0  0
   -3.4606   -1.7500   -0.7364 N   0  0  0  0  0  0  0  0  0  0  0  0
   -2.5492   -2.7154   -0.3634 C   0  0  0  0  0  0  0  0  0  0  0  0
   -1.6791   -2.8132    0.7669 C   0  0  0  0  0  0  0  0  0  0  0  0
   -1.1881   -1.8287    1.6008 N   0  0  0  0  0  0  0  0  0  0  0  0
   -0.2200   -2.4573    2.3159 C   0  0  0  0  0  0  0  0  0  0  0  0
    0.8867   -1.9852    3.0186 C   0  0  0  0  0  0  0  0  0  0  0  0
    1.3876   -0.5187    3.6647 S   0  0  0  0  0  0  0  0  0  0  0  0
   -1.2343   -0.3728    1.4171 C   0  0  0  0  0  0  0  0  0  0  0  0
   -0.4259    0.0493    0.1918 C   0  0  0  0  0  0  0  0  0  0  0  0
   -4.3274   -0.8805    0.0773 C   0  0  0  0  0  0  0  0  0  0  0  0
   -4.6796   -1.4998    1.4323 C   0  0  0  0  0  0  0  0  0  0  0  0
   -5.1748    1.1209   -5.8808 C   0  0  0  0  0  0  0  0  0  0  0  0
   -4.2386    2.0831   -6.0322 C   0  0  0  0  0  0  0  0  0  0  0  0
   -2.9529    2.1479   -5.3193 C   0  0  0  0  0  0  0  0  0  0  0  0
   -2.4139    1.2143   -4.6676 O   0  0  0  0  0  0  0  0  0  0  0  0
   -2.3855    3.4692   -5.4993 C   0  0  0  0  0  0  0  0  0  0  0  0
   -1.2366    4.0197   -4.9155 C   0  0  0  0  0  0  0  0  0  0  0  0
   -0.2133    3.0933   -3.8242 Cl  0  0  0  0  0  0  0  0  0  0  0  0
   -0.9267    5.3549   -5.1937 C   0  0  0  0  0  0  0  0  0  0  0  0
   -1.7608    6.1185   -6.0262 C   0  0  0  0  0  0  0  0  0  0  0  0
   -2.9141    5.5532   -6.5924 C   0  0  0  0  0  0  0  0  0  0  0  0
   -3.2075    4.2033   -6.3408 C   0  0  0  0  0  0  0  0  0  0  0  0
   -4.3384    3.3514   -6.8191 C   0  0  0  0  0  0  0  0  0  0  0  0
   -5.1241    3.5796   -7.9048 C   0  0  0  0  0  0  0  0  0  0  0  0
   -6.0198    2.5866   -8.4416 C   0  0  0  0  0  0  0  0  0  0  0  0
   -6.7400    1.7978   -8.8897 N   0  0  0  0  0  0  0  0  0  0  0  0
   -5.0249    4.7794   -8.6934 C   0  0  0  0  0  0  0  0  0  0  0  0
   -4.9554    5.7410   -9.3359 N   0  0  0  0  0  0  0  0  0  0  0  0
    4.9874   -0.5343    4.3367 H   0  0  0  0  0  0  0  0  0  0  0  0
    1.4355    1.6173    8.9816 H   0  0  0  0  0  0  0  0  0  0  0  0
    6.1821    3.0254    8.4671 H   0  0  0  0  0  0  0  0  0  0  0  0
    5.7067   -4.5215    3.4410 H   0  0  0  0  0  0  0  0  0  0  0  0
    4.0543   -5.0145    3.0074 H   0  0  0  0  0  0  0  0  0  0  0  0
    4.0095   -3.2925    1.1905 H   0  0  0  0  0  0  0  0  0  0  0  0
    5.4629   -4.3326    1.0123 H   0  0  0  0  0  0  0  0  0  0  0  0
    5.6244   -2.6831    1.7258 H   0  0  0  0  0  0  0  0  0  0  0  0
   -5.3755   -0.4757   -7.9038 H   0  0  0  0  0  0  0  0  0  0  0  0
   -4.7508   -1.9392   -8.6935 H   0  0  0  0  0  0  0  0  0  0  0  0
   -2.9180    0.1965   -7.4549 H   0  0  0  0  0  0  0  0  0  0  0  0
   -2.4119   -1.2738   -8.3481 H   0  0  0  0  0  0  0  0  0  0  0  0
   -3.3153    0.0360   -9.2081 H   0  0  0  0  0  0  0  0  0  0  0  0
   -2.2605   -0.0131    1.3475 H   0  0  0  0  0  0  0  0  0  0  0  0
   -0.8431    0.1451    2.3124 H   0  0  0  0  0  0  0  0  0  0  0  0
   -0.4812    1.1486    0.0711 H   0  0  0  0  0  0  0  0  0  0  0  0
   -0.8232   -0.4334   -0.7263 H   0  0  0  0  0  0  0  0  0  0  0  0
    0.6392   -0.2403    0.3201 H   0  0  0  0  0  0  0  0  0  0  0  0
   -5.3019   -0.7467   -0.4457 H   0  0  0  0  0  0  0  0  0  0  0  0
   -3.9219    0.1470    0.1485 H   0  0  0  0  0  0  0  0  0  0  0  0
   -3.7993   -1.5445    2.1051 H   0  0  0  0  0  0  0  0  0  0  0  0
   -5.4622   -0.8862    1.9274 H   0  0  0  0  0  0  0  0  0  0  0  0
   -5.0826   -2.5275    1.2889 H   0  0  0  0  0  0  0  0  0  0  0  0
   -6.1434    1.2042   -6.3471 H   0  0  0  0  0  0  0  0  0  0  0  0
   -0.0442    5.8054   -4.7559 H   0  0  0  0  0  0  0  0  0  0  0  0
   -1.5237    7.1541   -6.2184 H   0  0  0  0  0  0  0  0  0  0  0  0
   -3.5570    6.1856   -7.1808 H   0  0  0  0  0  0  0  0  0  0  0  0
  1  2  2  3
  2  3  1  0
  3  4  2  0
  3  5  1  0
  5  6  2  0
  6  7  1  0
  7  8  1  0
  7  9  2  0
  9 10  1  0
  9 11  1  0
 11 12  2  0
 12 13  1  0
 13 14  2  3
 14 15  1  0
 15 16  3  0
 14 17  1  0
 17 18  3  0
  1 19  1  0
 19 20  2  0
 20 21  1  0
 21 22  1  0
 22 23  1  0
 20 24  1  0
 24 25  1  0
 25 26  1  0
 26 27  1  0
 27 28  1  0
 28 29  1  0
 29 30  2  0
 30 31  1  0
 31 32  1  0
 29 33  1  0
 33 34  1  0
 34 35  1  0
 35 36  1  0
 36 37  1  0
 37 38  1  0
 38 39  1  0
 39 40  1  0
 37 41  2  0
 41 42  1  0
 42 43  1  0
 43 44  1  0
 44 45  1  0
 45 46  1  0
 46 47  1  0
 47 48  1  0
 48 49  1  0
 49 50  1  0
 50 51  1  0
 48 52  1  0
 52 53  1  0
 45 54  1  0
 54 55  1  0
 41 56  1  0
 56 57  2  3
 57 58  1  0
 58 59  2  0
 58 60  1  0
 60 61  2  0
 61 62  1  0
 61 63  1  0
 63 64  2  0
 64 65  1  0
 65 66  2  0
 66 67  1  0
 67 68  2  3
 68 69  1  0
 69 70  3  0
 68 71  1  0
 71 72  3  0
 13  2  1  0
 51 19  1  0
 67 57  1  0
 12  5  1  0
 50 24  2  0
 66 60  1  0
 49 26  2  0
 47 27  2  0
 32 28  2  0
 46 33  2  0
 44 34  2  0
 43 36  2  0
  1 73  1  0
  6 74  1  0
 11 75  1  0
 22 76  1  0
 22 77  1  0
 23 78  1  0
 23 79  1  0
 23 80  1  0
 39 81  1  0
 39 82  1  0
 40 83  1  0
 40 84  1  0
 40 85  1  0
 52 86  1  0
 52 87  1  0
 53 88  1  0
 53 89  1  0
 53 90  1  0
 54 91  1  0
 54 92  1  0
 55 93  1  0
 55 94  1  0
 55 95  1  0
 56 96  1  0
 63 97  1  0
 64 98  1  0
 65 99  1  0
M  END

