
     RDKit          3D

 66 74  0  0  0  0  0  0  0  0999 V2000
    0.7166   -4.7555    0.7028 C   0  0  0  0  0  0  0  0  0  0  0  0
    1.6526   -4.5651   -0.2503 C   0  0  0  0  0  0  0  0  0  0  0  0
    2.3844   -3.3237   -0.5092 C   0  0  0  0  0  0  0  0  0  0  0  0
    2.0195   -2.1576   -0.2115 O   0  0  0  0  0  0  0  0  0  0  0  0
    3.6192   -3.6566   -1.1704 C   0  0  0  0  0  0  0  0  0  0  0  0
    4.6488   -2.8002   -1.5482 C   0  0  0  0  0  0  0  0  0  0  0  0
    5.7710   -3.3484   -2.2021 C   0  0  0  0  0  0  0  0  0  0  0  0
    7.1060   -2.3049   -2.6799 Cl  0  0  0  0  0  0  0  0  0  0  0  0
    5.8184   -4.7229   -2.4827 C   0  0  0  0  0  0  0  0  0  0  0  0
    6.8785   -5.2344   -3.1649 F   0  0  0  0  0  0  0  0  0  0  0  0
    4.7629   -5.5688   -2.0923 C   0  0  0  0  0  0  0  0  0  0  0  0
    3.6599   -5.0235   -1.4176 C   0  0  0  0  0  0  0  0  0  0  0  0
    2.3922   -5.6473   -0.9747 C   0  0  0  0  0  0  0  0  0  0  0  0
    1.8784   -6.8393   -1.3729 C   0  0  0  0  0  0  0  0  0  0  0  0
    0.4586   -7.1086   -1.3081 C   0  0  0  0  0  0  0  0  0  0  0  0
   -0.6866   -7.3371   -1.2611 N   0  0  0  0  0  0  0  0  0  0  0  0
    2.6936   -7.8980   -1.8816 C   0  0  0  0  0  0  0  0  0  0  0  0
    3.3366   -8.7752   -2.2702 N   0  0  0  0  0  0  0  0  0  0  0  0
    0.1494   -3.6635    1.5295 C   0  0  0  0  0  0  0  0  0  0  0  0
    0.9622   -2.9368    2.4140 C   0  0  0  0  0  0  0  0  0  0  0  0
    2.2321   -3.3751    2.6025 F   0  0  0  0  0  0  0  0  0  0  0  0
    0.4858   -1.7718    3.0529 C   0  0  0  0  0  0  0  0  0  0  0  0
    1.3386   -0.9482    3.8125 C   0  0  0  0  0  0  0  0  0  0  0  0
    0.8988    0.3372    4.2542 C   0  0  0  0  0  0  0  0  0  0  0  0
    1.8080    1.1024    4.9190 N   0  0  0  0  0  0  0  0  0  0  0  0
    3.1115    0.0834    4.9063 S   0  0  0  0  0  0  0  0  0  0  0  0
    2.6204   -1.2781    4.1066 N   0  0  0  0  0  0  0  0  0  0  0  0
   -0.3956    0.7745    3.9505 C   0  0  0  0  0  0  0  0  0  0  0  0
   -1.2948   -0.1064    3.3194 C   0  0  0  0  0  0  0  0  0  0  0  0
   -2.5583    0.3204    3.0500 F   0  0  0  0  0  0  0  0  0  0  0  0
   -0.8621   -1.3579    2.8453 C   0  0  0  0  0  0  0  0  0  0  0  0
   -1.7177   -2.1822    2.0919 C   0  0  0  0  0  0  0  0  0  0  0  0
   -1.2060   -3.3261    1.4218 C   0  0  0  0  0  0  0  0  0  0  0  0
   -2.0890   -4.0573    0.6861 N   0  0  0  0  0  0  0  0  0  0  0  0
   -3.4758   -3.1991    0.9444 S   0  0  0  0  0  0  0  0  0  0  0  0
   -3.0356   -1.9330    1.9126 N   0  0  0  0  0  0  0  0  0  0  0  0
   -0.7583    2.2015    4.0068 C   0  0  0  0  0  0  0  0  0  0  0  0
   -0.4549    3.0122    2.9665 C   0  0  0  0  0  0  0  0  0  0  0  0
    0.5601    2.7653    1.9267 C   0  0  0  0  0  0  0  0  0  0  0  0
    1.5415    1.9695    2.0033 O   0  0  0  0  0  0  0  0  0  0  0  0
    0.2657    3.6134    0.7957 C   0  0  0  0  0  0  0  0  0  0  0  0
    0.7869    3.5314   -0.5037 C   0  0  0  0  0  0  0  0  0  0  0  0
    0.1252    4.2296   -1.5374 C   0  0  0  0  0  0  0  0  0  0  0  0
    0.5649    4.0819   -2.8712 C   0  0  0  0  0  0  0  0  0  0  0  0
   -0.1261    4.7116   -3.9044 C   0  0  0  0  0  0  0  0  0  0  0  0
   -1.2695    5.4825   -3.6220 C   0  0  0  0  0  0  0  0  0  0  0  0
   -1.9394    6.0547   -4.6430 F   0  0  0  0  0  0  0  0  0  0  0  0
   -1.7273    5.6524   -2.2968 C   0  0  0  0  0  0  0  0  0  0  0  0
   -1.0243    5.0396   -1.2418 C   0  0  0  0  0  0  0  0  0  0  0  0
   -1.4981    5.1391    0.0834 C   0  0  0  0  0  0  0  0  0  0  0  0
   -0.8482    4.3952    1.0911 C   0  0  0  0  0  0  0  0  0  0  0  0
   -1.3390    4.1110    2.4753 C   0  0  0  0  0  0  0  0  0  0  0  0
   -2.6615    4.0662    2.6653 C   0  0  0  0  0  0  0  0  0  0  0  0
   -3.3317    5.2247    3.1958 C   0  0  0  0  0  0  0  0  0  0  0  0
   -3.8833    6.1452    3.6489 N   0  0  0  0  0  0  0  0  0  0  0  0
   -3.4441    3.1957    1.8291 C   0  0  0  0  0  0  0  0  0  0  0  0
   -4.1149    2.5514    1.1267 N   0  0  0  0  0  0  0  0  0  0  0  0
    0.3179   -5.7421    0.8785 H   0  0  0  0  0  0  0  0  0  0  0  0
    4.5772   -1.7246   -1.3778 H   0  0  0  0  0  0  0  0  0  0  0  0
    4.8239   -6.6117   -2.3375 H   0  0  0  0  0  0  0  0  0  0  0  0
   -1.5777    2.4877    4.6521 H   0  0  0  0  0  0  0  0  0  0  0  0
    1.6454    2.8812   -0.7187 H   0  0  0  0  0  0  0  0  0  0  0  0
    1.4146    3.4433   -3.1180 H   0  0  0  0  0  0  0  0  0  0  0  0
    0.2016    4.5740   -4.9349 H   0  0  0  0  0  0  0  0  0  0  0  0
   -2.6370    6.2324   -2.1026 H   0  0  0  0  0  0  0  0  0  0  0  0
   -2.3982    5.7086    0.3115 H   0  0  0  0  0  0  0  0  0  0  0  0
  1  2  2  3
  2  3  1  0
  3  4  2  0
  3  5  1  0
  5  6  2  0
  6  7  1  0
  7  8  1  0
  7  9  2  0
  9 10  1  0
  9 11  1  0
 11 12  2  0
 12 13  1  0
 13 14  2  3
 14 15  1  0
 15 16  3  0
 14 17  1  0
 17 18  3  0
  1 19  1  0
 19 20  2  0
 20 21  1  0
 20 22  1  0
 22 23  1  0
 23 24  1  0
 24 25  2  0
 25 26  1  0
 26 27  1  0
 24 28  1  0
 28 29  2  0
 29 30  1  0
 29 31  1  0
 31 32  1  0
 32 33  1  0
 33 34  2  0
 34 35  1  0
 35 36  1  0
 28 37  1  0
 37 38  2  3
 38 39  1  0
 39 40  2  0
 39 41  1  0
 41 42  2  0
 42 43  1  0
 43 44  2  0
 44 45  1  0
 45 46  2  0
 46 47  1  0
 46 48  1  0
 48 49  2  0
 49 50  1  0
 50 51  2  0
 51 52  1  0
 52 53  2  3
 53 54  1  0
 54 55  3  0
 53 56  1  0
 56 57  3  0
 13  2  1  0
 33 19  1  0
 52 38  1  0
 12  5  1  0
 31 22  2  0
 36 32  2  0
 51 41  1  0
 27 23  2  0
 49 43  1  0
  1 58  1  0
  6 59  1  0
 11 60  1  0
 37 61  1  0
 42 62  1  0
 44 63  1  0
 45 64  1  0
 48 65  1  0
 50 66  1  0
M  END

