
     RDKit          3D

102113  0  0  0  0  0  0  0  0999 V2000
    5.6143   -3.8402    3.5006 C   0  0  0  0  0  0  0  0  0  0  0  0
    6.4096   -3.9600    2.4223 C   0  0  0  0  0  0  0  0  0  0  0  0
    7.3326   -5.0813    2.2375 C   0  0  0  0  0  0  0  0  0  0  0  0
    7.7023   -5.8932    3.1273 O   0  0  0  0  0  0  0  0  0  0  0  0
    7.6475   -5.1785    0.8247 C   0  0  0  0  0  0  0  0  0  0  0  0
    8.3465   -6.1826    0.1582 C   0  0  0  0  0  0  0  0  0  0  0  0
    8.4261   -6.1251   -1.2430 C   0  0  0  0  0  0  0  0  0  0  0  0
    9.3498   -7.3422   -2.1147 Cl  0  0  0  0  0  0  0  0  0  0  0  0
    7.7506   -5.1060   -1.9452 C   0  0  0  0  0  0  0  0  0  0  0  0
    7.7837   -5.0743   -3.3011 F   0  0  0  0  0  0  0  0  0  0  0  0
    7.0382   -4.1154   -1.2513 C   0  0  0  0  0  0  0  0  0  0  0  0
    7.0253   -4.1448    0.1472 C   0  0  0  0  0  0  0  0  0  0  0  0
    6.3537   -3.2370    1.1196 C   0  0  0  0  0  0  0  0  0  0  0  0
    6.2033   -1.9017    0.9675 C   0  0  0  0  0  0  0  0  0  0  0  0
    6.3591   -1.2449   -0.3018 C   0  0  0  0  0  0  0  0  0  0  0  0
    6.4844   -0.7041   -1.3201 N   0  0  0  0  0  0  0  0  0  0  0  0
    6.0522   -1.0217    2.0993 C   0  0  0  0  0  0  0  0  0  0  0  0
    5.9322   -0.3057    2.9995 N   0  0  0  0  0  0  0  0  0  0  0  0
    4.3690   -3.0517    3.5392 C   0  0  0  0  0  0  0  0  0  0  0  0
    3.9270   -2.3145    4.6382 C   0  0  0  0  0  0  0  0  0  0  0  0
    4.6483   -2.1985    5.8317 O   0  0  0  0  0  0  0  0  0  0  0  0
    4.0421   -2.4265    7.1034 C   0  0  0  0  0  0  0  0  0  0  0  0
    4.9539   -1.9186    8.2056 C   0  0  0  0  0  0  0  0  0  0  0  0
    2.7356   -1.6443    4.3617 C   0  0  0  0  0  0  0  0  0  0  0  0
    2.0641   -0.2426    5.0529 S   0  0  0  0  0  0  0  0  0  0  0  0
    1.0136   -0.0482    3.7375 C   0  0  0  0  0  0  0  0  0  0  0  0
    0.4396    1.0329    3.1304 C   0  0  0  0  0  0  0  0  0  0  0  0
    0.4649    2.3864    3.4967 C   0  0  0  0  0  0  0  0  0  0  0  0
    0.1154    3.3734    2.5288 C   0  0  0  0  0  0  0  0  0  0  0  0
    0.1524    4.6703    2.9236 N   0  0  0  0  0  0  0  0  0  0  0  0
    0.6724    4.4697    4.4846 S   0  0  0  0  0  0  0  0  0  0  0  0
    0.8465    2.8372    4.7174 N   0  0  0  0  0  0  0  0  0  0  0  0
   -0.2529    2.9504    1.2473 C   0  0  0  0  0  0  0  0  0  0  0  0
   -0.8410    3.6268    0.2203 C   0  0  0  0  0  0  0  0  0  0  0  0
   -1.5220    5.1694    0.0072 S   0  0  0  0  0  0  0  0  0  0  0  0
   -2.4720    4.5887   -1.2835 C   0  0  0  0  0  0  0  0  0  0  0  0
   -3.4928    5.1589   -2.0350 C   0  0  0  0  0  0  0  0  0  0  0  0
   -3.8151    6.5178   -1.9686 O   0  0  0  0  0  0  0  0  0  0  0  0
   -3.4076    7.4464   -2.9747 C   0  0  0  0  0  0  0  0  0  0  0  0
   -1.8881    7.5260   -3.0756 C   0  0  0  0  0  0  0  0  0  0  0  0
   -4.1645    4.2035   -2.8191 C   0  0  0  0  0  0  0  0  0  0  0  0
   -3.4013    2.6819   -2.6170 S   0  0  0  0  0  0  0  0  0  0  0  0
   -2.2914    3.2458   -1.4868 C   0  0  0  0  0  0  0  0  0  0  0  0
   -1.3398    2.6951   -0.6366 C   0  0  0  0  0  0  0  0  0  0  0  0
   -1.0914    1.4241   -0.2291 N   0  0  0  0  0  0  0  0  0  0  0  0
   -0.3320    1.5935    0.8998 C   0  0  0  0  0  0  0  0  0  0  0  0
    0.1355    0.6237    1.8216 C   0  0  0  0  0  0  0  0  0  0  0  0
    0.6561   -0.6223    1.5771 N   0  0  0  0  0  0  0  0  0  0  0  0
    1.1864   -0.9959    2.7711 C   0  0  0  0  0  0  0  0  0  0  0  0
    2.2119   -1.8821    3.1110 C   0  0  0  0  0  0  0  0  0  0  0  0
    3.2496   -2.8945    2.2605 S   0  0  0  0  0  0  0  0  0  0  0  0
    1.0179   -1.2180    0.2796 C   0  0  0  0  0  0  0  0  0  0  0  0
    0.4425   -2.6315    0.1450 C   0  0  0  0  0  0  0  0  0  0  0  0
   -1.9872    0.2969   -0.5076 C   0  0  0  0  0  0  0  0  0  0  0  0
   -3.2656    0.3954    0.3256 C   0  0  0  0  0  0  0  0  0  0  0  0
   -5.3165    4.5027   -3.6926 C   0  0  0  0  0  0  0  0  0  0  0  0
   -6.4366    3.7606   -3.8179 C   0  0  0  0  0  0  0  0  0  0  0  0
   -6.8502    2.6440   -2.9527 C   0  0  0  0  0  0  0  0  0  0  0  0
   -6.1302    1.9882   -2.1522 O   0  0  0  0  0  0  0  0  0  0  0  0
   -8.2636    2.4111   -3.1431 C   0  0  0  0  0  0  0  0  0  0  0  0
   -9.0730    1.4823   -2.4856 C   0  0  0  0  0  0  0  0  0  0  0  0
  -10.4452    1.4489   -2.7865 C   0  0  0  0  0  0  0  0  0  0  0  0
  -11.3474    0.4781   -2.0842 C   0  0  0  0  0  0  0  0  0  0  0  0
  -10.9805    2.3798   -3.7082 C   0  0  0  0  0  0  0  0  0  0  0  0
  -12.3152    2.4008   -3.9634 F   0  0  0  0  0  0  0  0  0  0  0  0
  -10.1447    3.3069   -4.3545 C   0  0  0  0  0  0  0  0  0  0  0  0
   -8.7669    3.3003   -4.0772 C   0  0  0  0  0  0  0  0  0  0  0  0
   -7.6531    4.1370   -4.6129 C   0  0  0  0  0  0  0  0  0  0  0  0
   -7.6923    4.9438   -5.7118 C   0  0  0  0  0  0  0  0  0  0  0  0
   -6.4967    5.4569   -6.3365 C   0  0  0  0  0  0  0  0  0  0  0  0
   -5.5391    5.8722   -6.8397 N   0  0  0  0  0  0  0  0  0  0  0  0
   -8.9105    5.2774   -6.3946 C   0  0  0  0  0  0  0  0  0  0  0  0
   -9.8879    5.5715   -6.9456 N   0  0  0  0  0  0  0  0  0  0  0  0
    5.8377   -4.4279    4.3835 H   0  0  0  0  0  0  0  0  0  0  0  0
    8.8210   -6.9873    0.7063 H   0  0  0  0  0  0  0  0  0  0  0  0
    6.4935   -3.3677   -1.8086 H   0  0  0  0  0  0  0  0  0  0  0  0
    3.0611   -1.9031    7.1821 H   0  0  0  0  0  0  0  0  0  0  0  0
    3.8757   -3.5212    7.2358 H   0  0  0  0  0  0  0  0  0  0  0  0
    4.5549   -2.2370    9.1956 H   0  0  0  0  0  0  0  0  0  0  0  0
    4.9915   -0.8077    8.1802 H   0  0  0  0  0  0  0  0  0  0  0  0
    5.9751   -2.3315    8.0859 H   0  0  0  0  0  0  0  0  0  0  0  0
   -3.8250    7.1633   -3.9643 H   0  0  0  0  0  0  0  0  0  0  0  0
   -3.8062    8.4495   -2.7099 H   0  0  0  0  0  0  0  0  0  0  0  0
   -1.6075    8.3599   -3.7560 H   0  0  0  0  0  0  0  0  0  0  0  0
   -1.4471    7.7079   -2.0764 H   0  0  0  0  0  0  0  0  0  0  0  0
   -1.4815    6.5833   -3.4895 H   0  0  0  0  0  0  0  0  0  0  0  0
    2.1231   -1.2604    0.1852 H   0  0  0  0  0  0  0  0  0  0  0  0
    0.6715   -0.5854   -0.5615 H   0  0  0  0  0  0  0  0  0  0  0  0
   -0.6610   -2.6225    0.2128 H   0  0  0  0  0  0  0  0  0  0  0  0
    0.7429   -3.0615   -0.8330 H   0  0  0  0  0  0  0  0  0  0  0  0
    0.8219   -3.2946    0.9469 H   0  0  0  0  0  0  0  0  0  0  0  0
   -1.5133   -0.6601   -0.2694 H   0  0  0  0  0  0  0  0  0  0  0  0
   -2.2426    0.2679   -1.5868 H   0  0  0  0  0  0  0  0  0  0  0  0
   -3.8108    1.3371    0.1085 H   0  0  0  0  0  0  0  0  0  0  0  0
   -3.0161    0.3610    1.4057 H   0  0  0  0  0  0  0  0  0  0  0  0
   -3.9237   -0.4649    0.0899 H   0  0  0  0  0  0  0  0  0  0  0  0
   -5.2996    5.4715   -4.1574 H   0  0  0  0  0  0  0  0  0  0  0  0
   -8.6504    0.8141   -1.7486 H   0  0  0  0  0  0  0  0  0  0  0  0
  -11.9949    1.0262   -1.3689 H   0  0  0  0  0  0  0  0  0  0  0  0
  -11.9864   -0.0468   -2.8268 H   0  0  0  0  0  0  0  0  0  0  0  0
  -10.7642   -0.2821   -1.5256 H   0  0  0  0  0  0  0  0  0  0  0  0
  -10.5959    4.0120   -5.0284 H   0  0  0  0  0  0  0  0  0  0  0  0
  1  2  2  3
  2  3  1  0
  3  4  2  0
  3  5  1  0
  5  6  2  0
  6  7  1  0
  7  8  1  0
  7  9  2  0
  9 10  1  0
  9 11  1  0
 11 12  2  0
 12 13  1  0
 13 14  2  3
 14 15  1  0
 15 16  3  0
 14 17  1  0
 17 18  3  0
  1 19  1  0
 19 20  2  0
 20 21  1  0
 21 22  1  0
 22 23  1  0
 20 24  1  0
 24 25  1  0
 25 26  1  0
 26 27  1  0
 27 28  1  0
 28 29  1  0
 29 30  2  0
 30 31  1  0
 31 32  1  0
 29 33  1  0
 33 34  1  0
 34 35  1  0
 35 36  1  0
 36 37  1  0
 37 38  1  0
 38 39  1  0
 39 40  1  0
 37 41  2  0
 41 42  1  0
 42 43  1  0
 43 44  1  0
 44 45  1  0
 45 46  1  0
 46 47  1  0
 47 48  1  0
 48 49  1  0
 49 50  1  0
 50 51  1  0
 48 52  1  0
 52 53  1  0
 45 54  1  0
 54 55  1  0
 41 56  1  0
 56 57  2  3
 57 58  1  0
 58 59  2  0
 58 60  1  0
 60 61  2  0
 61 62  1  0
 62 63  1  0
 62 64  2  0
 64 65  1  0
 64 66  1  0
 66 67  2  0
 67 68  1  0
 68 69  2  3
 69 70  1  0
 70 71  3  0
 69 72  1  0
 72 73  3  0
 13  2  1  0
 51 19  1  0
 68 57  1  0
 12  5  1  0
 50 24  2  0
 67 60  1  0
 49 26  2  0
 47 27  2  0
 32 28  2  0
 46 33  2  0
 44 34  2  0
 43 36  2  0
  1 74  1  0
  6 75  1  0
 11 76  1  0
 22 77  1  0
 22 78  1  0
 23 79  1  0
 23 80  1  0
 23 81  1  0
 39 82  1  0
 39 83  1  0
 40 84  1  0
 40 85  1  0
 40 86  1  0
 52 87  1  0
 52 88  1  0
 53 89  1  0
 53 90  1  0
 53 91  1  0
 54 92  1  0
 54 93  1  0
 55 94  1  0
 55 95  1  0
 55 96  1  0
 56 97  1  0
 61 98  1  0
 63 99  1  0
 63100  1  0
 63101  1  0
 66102  1  0
M  END

