
     RDKit          3D

102113  0  0  0  0  0  0  0  0999 V2000
    4.0702    5.6557    2.4677 C   0  0  0  0  0  0  0  0  0  0  0  0
    4.1361    6.7960    3.1856 C   0  0  0  0  0  0  0  0  0  0  0  0
    3.1091    7.8437    3.2402 C   0  0  0  0  0  0  0  0  0  0  0  0
    1.9370    7.7814    2.7751 O   0  0  0  0  0  0  0  0  0  0  0  0
    3.6590    8.9939    3.9208 C   0  0  0  0  0  0  0  0  0  0  0  0
    3.0557   10.2334    4.1374 C   0  0  0  0  0  0  0  0  0  0  0  0
    3.7891   11.2240    4.8068 C   0  0  0  0  0  0  0  0  0  0  0  0
    3.0559   12.7857    5.1121 Cl  0  0  0  0  0  0  0  0  0  0  0  0
    5.1118   10.9648    5.2135 C   0  0  0  0  0  0  0  0  0  0  0  0
    5.8231   11.9189    5.8698 F   0  0  0  0  0  0  0  0  0  0  0  0
    5.7007    9.7144    4.9753 C   0  0  0  0  0  0  0  0  0  0  0  0
    4.9444    8.7125    4.3401 C   0  0  0  0  0  0  0  0  0  0  0  0
    5.2847    7.2985    4.0085 C   0  0  0  0  0  0  0  0  0  0  0  0
    6.2924    6.5600    4.5495 C   0  0  0  0  0  0  0  0  0  0  0  0
    6.3873    5.1307    4.3918 C   0  0  0  0  0  0  0  0  0  0  0  0
    6.4768    3.9810    4.2855 N   0  0  0  0  0  0  0  0  0  0  0  0
    7.2634    7.1067    5.4631 C   0  0  0  0  0  0  0  0  0  0  0  0
    8.0477    7.5235    6.2108 N   0  0  0  0  0  0  0  0  0  0  0  0
    2.8841    5.2289    1.7154 C   0  0  0  0  0  0  0  0  0  0  0  0
    2.2917    5.9070    0.6364 C   0  0  0  0  0  0  0  0  0  0  0  0
    2.7928    7.1060    0.1151 O   0  0  0  0  0  0  0  0  0  0  0  0
    2.9446    7.3505   -1.2833 C   0  0  0  0  0  0  0  0  0  0  0  0
    4.0767    6.4977   -1.8490 C   0  0  0  0  0  0  0  0  0  0  0  0
    1.1665    5.2213    0.1753 C   0  0  0  0  0  0  0  0  0  0  0  0
   -0.0489    5.5557   -0.9720 S   0  0  0  0  0  0  0  0  0  0  0  0
   -0.8623    4.1207   -0.5695 C   0  0  0  0  0  0  0  0  0  0  0  0
   -1.8450    3.3293   -1.0845 C   0  0  0  0  0  0  0  0  0  0  0  0
   -2.6469    3.4633   -2.2274 C   0  0  0  0  0  0  0  0  0  0  0  0
   -3.4536    2.3566   -2.6308 C   0  0  0  0  0  0  0  0  0  0  0  0
   -4.1983    2.5133   -3.7517 N   0  0  0  0  0  0  0  0  0  0  0  0
   -3.7539    4.0587   -4.1607 S   0  0  0  0  0  0  0  0  0  0  0  0
   -2.6777    4.5687   -3.0125 N   0  0  0  0  0  0  0  0  0  0  0  0
   -3.4419    1.1988   -1.8429 C   0  0  0  0  0  0  0  0  0  0  0  0
   -4.0995    0.0086   -1.9490 C   0  0  0  0  0  0  0  0  0  0  0  0
   -4.9545   -0.8723   -3.1182 S   0  0  0  0  0  0  0  0  0  0  0  0
   -4.8284   -2.2812   -2.1627 C   0  0  0  0  0  0  0  0  0  0  0  0
   -5.0353   -3.6244   -2.4465 C   0  0  0  0  0  0  0  0  0  0  0  0
   -5.7156   -4.1034   -3.5687 O   0  0  0  0  0  0  0  0  0  0  0  0
   -5.1468   -4.1102   -4.8765 C   0  0  0  0  0  0  0  0  0  0  0  0
   -4.4735   -5.4529   -5.1383 C   0  0  0  0  0  0  0  0  0  0  0  0
   -4.4511   -4.4465   -1.4725 C   0  0  0  0  0  0  0  0  0  0  0  0
   -3.7302   -3.4937   -0.2534 S   0  0  0  0  0  0  0  0  0  0  0  0
   -4.1474   -2.0473   -0.9948 C   0  0  0  0  0  0  0  0  0  0  0  0
   -3.7436   -0.7356   -0.8734 C   0  0  0  0  0  0  0  0  0  0  0  0
   -2.8813   -0.1073   -0.0422 N   0  0  0  0  0  0  0  0  0  0  0  0
   -2.6452    1.0758   -0.6936 C   0  0  0  0  0  0  0  0  0  0  0  0
   -1.7621    2.1284   -0.3605 C   0  0  0  0  0  0  0  0  0  0  0  0
   -0.6639    2.1113    0.4622 N   0  0  0  0  0  0  0  0  0  0  0  0
   -0.2139    3.3915    0.3759 C   0  0  0  0  0  0  0  0  0  0  0  0
    0.9436    4.0178    0.7999 C   0  0  0  0  0  0  0  0  0  0  0  0
    2.0912    3.7432    1.9907 S   0  0  0  0  0  0  0  0  0  0  0  0
    0.2348    0.9597    0.6269 C   0  0  0  0  0  0  0  0  0  0  0  0
    1.3190    0.9371   -0.4515 C   0  0  0  0  0  0  0  0  0  0  0  0
   -2.8859   -0.3182    1.4154 C   0  0  0  0  0  0  0  0  0  0  0  0
   -3.9184    0.5956    2.0841 C   0  0  0  0  0  0  0  0  0  0  0  0
   -4.4053   -5.9103   -1.5514 C   0  0  0  0  0  0  0  0  0  0  0  0
   -3.3510   -6.6825   -1.2318 C   0  0  0  0  0  0  0  0  0  0  0  0
   -3.5102   -8.0876   -0.8627 C   0  0  0  0  0  0  0  0  0  0  0  0
   -4.5431   -8.7883   -1.0369 O   0  0  0  0  0  0  0  0  0  0  0  0
   -2.3095   -8.5149   -0.1770 C   0  0  0  0  0  0  0  0  0  0  0  0
   -2.0560   -9.7447    0.4346 C   0  0  0  0  0  0  0  0  0  0  0  0
   -0.8092   -9.9503    1.0602 C   0  0  0  0  0  0  0  0  0  0  0  0
   -0.5092  -11.2687    1.7055 C   0  0  0  0  0  0  0  0  0  0  0  0
    0.1516   -8.9135    1.0619 C   0  0  0  0  0  0  0  0  0  0  0  0
   -0.1315   -7.6757    0.4616 C   0  0  0  0  0  0  0  0  0  0  0  0
   -1.3836   -7.4812   -0.1641 C   0  0  0  0  0  0  0  0  0  0  0  0
   -1.9294   -6.3128   -0.9195 C   0  0  0  0  0  0  0  0  0  0  0  0
   -1.1863   -5.3308   -1.5033 C   0  0  0  0  0  0  0  0  0  0  0  0
   -1.6749   -4.5111   -2.5788 C   0  0  0  0  0  0  0  0  0  0  0  0
   -2.0410   -3.8296   -3.4373 N   0  0  0  0  0  0  0  0  0  0  0  0
    0.1950   -5.0901   -1.1657 C   0  0  0  0  0  0  0  0  0  0  0  0
    1.3062   -4.8826   -0.9132 N   0  0  0  0  0  0  0  0  0  0  0  0
    4.9055    4.9790    2.4167 H   0  0  0  0  0  0  0  0  0  0  0  0
    2.0479   10.4248    3.7927 H   0  0  0  0  0  0  0  0  0  0  0  0
    6.7289    9.5684    5.2548 H   0  0  0  0  0  0  0  0  0  0  0  0
    2.0066    7.1489   -1.8403 H   0  0  0  0  0  0  0  0  0  0  0  0
    3.1965    8.4214   -1.4257 H   0  0  0  0  0  0  0  0  0  0  0  0
    4.2221    6.7232   -2.9296 H   0  0  0  0  0  0  0  0  0  0  0  0
    3.8396    5.4117   -1.7315 H   0  0  0  0  0  0  0  0  0  0  0  0
    5.0179    6.7250   -1.2995 H   0  0  0  0  0  0  0  0  0  0  0  0
   -5.9665   -3.9686   -5.6189 H   0  0  0  0  0  0  0  0  0  0  0  0
   -4.4163   -3.2805   -4.9962 H   0  0  0  0  0  0  0  0  0  0  0  0
   -3.9890   -5.4323   -6.1369 H   0  0  0  0  0  0  0  0  0  0  0  0
   -3.7112   -5.6724   -4.3619 H   0  0  0  0  0  0  0  0  0  0  0  0
   -5.2328   -6.2624   -5.1338 H   0  0  0  0  0  0  0  0  0  0  0  0
   -0.3115    0.0092    0.5086 H   0  0  0  0  0  0  0  0  0  0  0  0
    0.7054    0.9721    1.6283 H   0  0  0  0  0  0  0  0  0  0  0  0
    0.8671    1.0971   -1.4547 H   0  0  0  0  0  0  0  0  0  0  0  0
    2.0750    1.7240   -0.2574 H   0  0  0  0  0  0  0  0  0  0  0  0
    1.8263   -0.0436   -0.4536 H   0  0  0  0  0  0  0  0  0  0  0  0
   -3.1449   -1.3769    1.6459 H   0  0  0  0  0  0  0  0  0  0  0  0
   -1.9054   -0.1198    1.8825 H   0  0  0  0  0  0  0  0  0  0  0  0
   -4.9203    0.4812    1.6102 H   0  0  0  0  0  0  0  0  0  0  0  0
   -3.5868    1.6527    2.0011 H   0  0  0  0  0  0  0  0  0  0  0  0
   -3.9979    0.3299    3.1580 H   0  0  0  0  0  0  0  0  0  0  0  0
   -5.3456   -6.3915   -1.8043 H   0  0  0  0  0  0  0  0  0  0  0  0
   -2.8061  -10.5221    0.4221 H   0  0  0  0  0  0  0  0  0  0  0  0
   -1.3275  -11.5465    2.4005 H   0  0  0  0  0  0  0  0  0  0  0  0
   -0.4008  -12.0511    0.9231 H   0  0  0  0  0  0  0  0  0  0  0  0
    0.4346  -11.2279    2.2899 H   0  0  0  0  0  0  0  0  0  0  0  0
    1.1058   -9.0548    1.5514 H   0  0  0  0  0  0  0  0  0  0  0  0
    0.6000   -6.8978    0.5424 H   0  0  0  0  0  0  0  0  0  0  0  0
  1  2  2  3
  2  3  1  0
  3  4  2  0
  3  5  1  0
  5  6  2  0
  6  7  1  0
  7  8  1  0
  7  9  2  0
  9 10  1  0
  9 11  1  0
 11 12  2  0
 12 13  1  0
 13 14  2  3
 14 15  1  0
 15 16  3  0
 14 17  1  0
 17 18  3  0
  1 19  1  0
 19 20  2  0
 20 21  1  0
 21 22  1  0
 22 23  1  0
 20 24  1  0
 24 25  1  0
 25 26  1  0
 26 27  1  0
 27 28  1  0
 28 29  1  0
 29 30  2  0
 30 31  1  0
 31 32  1  0
 29 33  1  0
 33 34  1  0
 34 35  1  0
 35 36  1  0
 36 37  1  0
 37 38  1  0
 38 39  1  0
 39 40  1  0
 37 41  2  0
 41 42  1  0
 42 43  1  0
 43 44  1  0
 44 45  1  0
 45 46  1  0
 46 47  1  0
 47 48  1  0
 48 49  1  0
 49 50  1  0
 50 51  1  0
 48 52  1  0
 52 53  1  0
 45 54  1  0
 54 55  1  0
 41 56  1  0
 56 57  2  3
 57 58  1  0
 58 59  2  0
 58 60  1  0
 60 61  2  0
 61 62  1  0
 62 63  1  0
 62 64  2  0
 64 65  1  0
 65 66  2  0
 66 67  1  0
 67 68  2  3
 68 69  1  0
 69 70  3  0
 68 71  1  0
 71 72  3  0
 13  2  1  0
 51 19  1  0
 67 57  1  0
 12  5  1  0
 50 24  2  0
 66 60  1  0
 49 26  2  0
 47 27  2  0
 32 28  2  0
 46 33  2  0
 44 34  2  0
 43 36  2  0
  1 73  1  0
  6 74  1  0
 11 75  1  0
 22 76  1  0
 22 77  1  0
 23 78  1  0
 23 79  1  0
 23 80  1  0
 39 81  1  0
 39 82  1  0
 40 83  1  0
 40 84  1  0
 40 85  1  0
 52 86  1  0
 52 87  1  0
 53 88  1  0
 53 89  1  0
 53 90  1  0
 54 91  1  0
 54 92  1  0
 55 93  1  0
 55 94  1  0
 55 95  1  0
 56 96  1  0
 61 97  1  0
 63 98  1  0
 63 99  1  0
 63100  1  0
 64101  1  0
 65102  1  0
M  END

