
     RDKit          3D

135148  0  0  0  0  0  0  0  0999 V2000
   -3.5310   -5.9431    5.0713 C   0  0  0  0  0  0  0  0  0  0  0  0
   -3.3049   -7.2232    4.7419 C   0  0  0  0  0  0  0  0  0  0  0  0
   -2.6688   -7.6418    3.4878 C   0  0  0  0  0  0  0  0  0  0  0  0
   -2.8274   -7.0994    2.3603 O   0  0  0  0  0  0  0  0  0  0  0  0
   -1.7968   -8.7604    3.7592 C   0  0  0  0  0  0  0  0  0  0  0  0
   -0.8944   -9.3722    2.8949 C   0  0  0  0  0  0  0  0  0  0  0  0
   -0.0443  -10.3652    3.4067 C   0  0  0  0  0  0  0  0  0  0  0  0
    1.1214  -11.1402    2.3440 Cl  0  0  0  0  0  0  0  0  0  0  0  0
   -0.1046  -10.7169    4.7696 C   0  0  0  0  0  0  0  0  0  0  0  0
    0.7454  -11.6487    5.2751 F   0  0  0  0  0  0  0  0  0  0  0  0
   -1.0337  -10.0902    5.6196 C   0  0  0  0  0  0  0  0  0  0  0  0
   -1.9043   -9.1178    5.0932 C   0  0  0  0  0  0  0  0  0  0  0  0
   -2.9519   -8.2770    5.7459 C   0  0  0  0  0  0  0  0  0  0  0  0
   -3.5721   -8.5060    6.9240 C   0  0  0  0  0  0  0  0  0  0  0  0
   -4.8069   -7.8444    7.2815 C   0  0  0  0  0  0  0  0  0  0  0  0
   -5.8104   -7.3514    7.6058 N   0  0  0  0  0  0  0  0  0  0  0  0
   -3.1029   -9.4846    7.8707 C   0  0  0  0  0  0  0  0  0  0  0  0
   -2.7031  -10.2556    8.6427 N   0  0  0  0  0  0  0  0  0  0  0  0
   -2.8791   -4.8649    4.3091 C   0  0  0  0  0  0  0  0  0  0  0  0
   -1.4842   -4.7321    4.2178 C   0  0  0  0  0  0  0  0  0  0  0  0
   -1.1469   -3.6684    3.3990 C   0  0  0  0  0  0  0  0  0  0  0  0
    0.3371   -3.0003    2.9196 S   0  0  0  0  0  0  0  0  0  0  0  0
   -0.4678   -1.8297    1.9935 C   0  0  0  0  0  0  0  0  0  0  0  0
   -0.1125   -0.6596    1.2451 C   0  0  0  0  0  0  0  0  0  0  0  0
    1.1444   -0.1773    0.8618 C   0  0  0  0  0  0  0  0  0  0  0  0
    1.1656    1.0334    0.1461 C   0  0  0  0  0  0  0  0  0  0  0  0
    2.3477    1.6550   -0.5999 C   0  0  0  0  0  0  0  0  0  0  0  0
    3.4535    2.2141    0.3039 C   0  0  0  0  0  0  0  0  0  0  0  0
    3.3766    2.1712    1.7100 C   0  0  0  0  0  0  0  0  0  0  0  0
    4.4475    2.5979    2.5008 C   0  0  0  0  0  0  0  0  0  0  0  0
    5.6100    3.1080    1.9066 C   0  0  0  0  0  0  0  0  0  0  0  0
    6.7789    3.5322    2.7614 C   0  0  0  0  0  0  0  0  0  0  0  0
    6.4805    4.8355    3.5101 C   0  0  0  0  0  0  0  0  0  0  0  0
    5.6776    3.2176    0.5099 C   0  0  0  0  0  0  0  0  0  0  0  0
    4.6123    2.7741   -0.2847 C   0  0  0  0  0  0  0  0  0  0  0  0
    2.8682    0.6304   -1.6179 C   0  0  0  0  0  0  0  0  0  0  0  0
    2.1714    0.3766   -2.8195 C   0  0  0  0  0  0  0  0  0  0  0  0
    2.6055   -0.6097   -3.7068 C   0  0  0  0  0  0  0  0  0  0  0  0
    3.7297   -1.3896   -3.4051 C   0  0  0  0  0  0  0  0  0  0  0  0
    4.2175   -2.4371   -4.3687 C   0  0  0  0  0  0  0  0  0  0  0  0
    5.0421   -1.8065   -5.4919 C   0  0  0  0  0  0  0  0  0  0  0  0
    4.4118   -1.1715   -2.2001 C   0  0  0  0  0  0  0  0  0  0  0  0
    3.9699   -0.1946   -1.3060 C   0  0  0  0  0  0  0  0  0  0  0  0
    1.6293    2.8238   -1.2500 C   0  0  0  0  0  0  0  0  0  0  0  0
    0.3139    2.8656   -0.9120 C   0  0  0  0  0  0  0  0  0  0  0  0
   -0.0262    1.7305   -0.1016 C   0  0  0  0  0  0  0  0  0  0  0  0
   -1.2856    1.1993    0.2042 C   0  0  0  0  0  0  0  0  0  0  0  0
   -1.3114   -0.0408    0.8636 C   0  0  0  0  0  0  0  0  0  0  0  0
   -2.5256   -0.9076    1.1985 C   0  0  0  0  0  0  0  0  0  0  0  0
   -3.5834   -0.1682    2.0276 C   0  0  0  0  0  0  0  0  0  0  0  0
   -4.9495   -0.5006    1.9249 C   0  0  0  0  0  0  0  0  0  0  0  0
   -5.9124    0.1820    2.6722 C   0  0  0  0  0  0  0  0  0  0  0  0
   -5.5309    1.1751    3.5860 C   0  0  0  0  0  0  0  0  0  0  0  0
   -6.5724    1.9363    4.3634 C   0  0  0  0  0  0  0  0  0  0  0  0
   -6.8864    1.2443    5.6883 C   0  0  0  0  0  0  0  0  0  0  0  0
   -4.1699    1.4536    3.7625 C   0  0  0  0  0  0  0  0  0  0  0  0
   -3.2041    0.7850    2.9968 C   0  0  0  0  0  0  0  0  0  0  0  0
   -3.0414   -1.5079   -0.1257 C   0  0  0  0  0  0  0  0  0  0  0  0
   -2.7198   -2.8273   -0.5266 C   0  0  0  0  0  0  0  0  0  0  0  0
   -3.1037   -3.3133   -1.7783 C   0  0  0  0  0  0  0  0  0  0  0  0
   -3.8181   -2.4956   -2.6656 C   0  0  0  0  0  0  0  0  0  0  0  0
   -4.2296   -3.0305   -4.0172 C   0  0  0  0  0  0  0  0  0  0  0  0
   -3.0796   -2.9383   -5.0142 C   0  0  0  0  0  0  0  0  0  0  0  0
   -4.1250   -1.1791   -2.2927 C   0  0  0  0  0  0  0  0  0  0  0  0
   -3.7391   -0.6926   -1.0422 C   0  0  0  0  0  0  0  0  0  0  0  0
   -1.8323   -1.9326    2.0597 C   0  0  0  0  0  0  0  0  0  0  0  0
   -2.2098   -2.9943    2.8618 C   0  0  0  0  0  0  0  0  0  0  0  0
   -3.6668   -3.6654    3.3868 S   0  0  0  0  0  0  0  0  0  0  0  0
   -0.5257    3.9227   -1.8818 S   0  0  0  0  0  0  0  0  0  0  0  0
    0.8549    4.4270   -2.7413 C   0  0  0  0  0  0  0  0  0  0  0  0
    1.9605    3.6723   -2.3102 C   0  0  0  0  0  0  0  0  0  0  0  0
    0.7410    5.2607   -3.9592 C   0  0  0  0  0  0  0  0  0  0  0  0
    1.7451    5.8440   -4.6446 C   0  0  0  0  0  0  0  0  0  0  0  0
    3.1759    5.8145   -4.3222 C   0  0  0  0  0  0  0  0  0  0  0  0
    3.6841    5.8988   -3.1730 O   0  0  0  0  0  0  0  0  0  0  0  0
    3.9199    5.9142   -5.5626 C   0  0  0  0  0  0  0  0  0  0  0  0
    5.2887    5.7295   -5.7698 C   0  0  0  0  0  0  0  0  0  0  0  0
    5.7800    5.7611   -7.0826 C   0  0  0  0  0  0  0  0  0  0  0  0
    7.4895    5.4984   -7.3859 Cl  0  0  0  0  0  0  0  0  0  0  0  0
    4.8895    5.9774   -8.1589 C   0  0  0  0  0  0  0  0  0  0  0  0
    5.3556    5.9774   -9.4327 F   0  0  0  0  0  0  0  0  0  0  0  0
    3.5156    6.1522   -7.9290 C   0  0  0  0  0  0  0  0  0  0  0  0
    3.0394    6.1312   -6.6089 C   0  0  0  0  0  0  0  0  0  0  0  0
    1.6557    6.2548   -6.0758 C   0  0  0  0  0  0  0  0  0  0  0  0
    0.5869    6.8196   -6.6929 C   0  0  0  0  0  0  0  0  0  0  0  0
    0.5903    7.1702   -8.0886 C   0  0  0  0  0  0  0  0  0  0  0  0
    0.5572    7.4541   -9.2071 N   0  0  0  0  0  0  0  0  0  0  0  0
   -0.6122    7.1736   -5.9744 C   0  0  0  0  0  0  0  0  0  0  0  0
   -1.5812    7.4766   -5.4008 N   0  0  0  0  0  0  0  0  0  0  0  0
   -3.8434   -5.6858    6.0739 H   0  0  0  0  0  0  0  0  0  0  0  0
   -0.8221   -9.0700    1.8589 H   0  0  0  0  0  0  0  0  0  0  0  0
   -1.0355  -10.3520    6.6625 H   0  0  0  0  0  0  0  0  0  0  0  0
   -0.7696   -5.3636    4.7184 H   0  0  0  0  0  0  0  0  0  0  0  0
    2.0581   -0.7130    1.0871 H   0  0  0  0  0  0  0  0  0  0  0  0
    2.5044    1.7857    2.2207 H   0  0  0  0  0  0  0  0  0  0  0  0
    4.3778    2.5166    3.5782 H   0  0  0  0  0  0  0  0  0  0  0  0
    7.6900    3.6725    2.1449 H   0  0  0  0  0  0  0  0  0  0  0  0
    7.0048    2.7306    3.5058 H   0  0  0  0  0  0  0  0  0  0  0  0
    6.2286    5.6405    2.7843 H   0  0  0  0  0  0  0  0  0  0  0  0
    7.3739    5.1485    4.0841 H   0  0  0  0  0  0  0  0  0  0  0  0
    5.6349    4.6995    4.2145 H   0  0  0  0  0  0  0  0  0  0  0  0
    6.5686    3.6050    0.0352 H   0  0  0  0  0  0  0  0  0  0  0  0
    4.7042    2.8111   -1.3605 H   0  0  0  0  0  0  0  0  0  0  0  0
    1.2856    0.9348   -3.0773 H   0  0  0  0  0  0  0  0  0  0  0  0
    2.0489   -0.7722   -4.6231 H   0  0  0  0  0  0  0  0  0  0  0  0
    4.8393   -3.1897   -3.8402 H   0  0  0  0  0  0  0  0  0  0  0  0
    3.3478   -2.9732   -4.8096 H   0  0  0  0  0  0  0  0  0  0  0  0
    4.3977   -1.1309   -6.1021 H   0  0  0  0  0  0  0  0  0  0  0  0
    5.8898   -1.2268   -5.0638 H   0  0  0  0  0  0  0  0  0  0  0  0
    5.4462   -2.6045   -6.1502 H   0  0  0  0  0  0  0  0  0  0  0  0
    5.2882   -1.7669   -1.9445 H   0  0  0  0  0  0  0  0  0  0  0  0
    4.5001   -0.0870   -0.3690 H   0  0  0  0  0  0  0  0  0  0  0  0
   -2.1924    1.7056   -0.0913 H   0  0  0  0  0  0  0  0  0  0  0  0
   -5.2867   -1.2704    1.2471 H   0  0  0  0  0  0  0  0  0  0  0  0
   -6.9615   -0.0745    2.5406 H   0  0  0  0  0  0  0  0  0  0  0  0
   -7.5056    2.0206    3.7600 H   0  0  0  0  0  0  0  0  0  0  0  0
   -6.2160    2.9708    4.5693 H   0  0  0  0  0  0  0  0  0  0  0  0
   -7.2180    0.2005    5.5144 H   0  0  0  0  0  0  0  0  0  0  0  0
   -5.9875    1.2359    6.3404 H   0  0  0  0  0  0  0  0  0  0  0  0
   -7.7056    1.7941    6.2070 H   0  0  0  0  0  0  0  0  0  0  0  0
   -3.8508    2.1941    4.4878 H   0  0  0  0  0  0  0  0  0  0  0  0
   -2.1563    1.0189    3.1685 H   0  0  0  0  0  0  0  0  0  0  0  0
   -2.1433   -3.4841    0.1055 H   0  0  0  0  0  0  0  0  0  0  0  0
   -2.8458   -4.3304   -2.0561 H   0  0  0  0  0  0  0  0  0  0  0  0
   -5.0999   -2.4622   -4.4096 H   0  0  0  0  0  0  0  0  0  0  0  0
   -4.5397   -4.0931   -3.9204 H   0  0  0  0  0  0  0  0  0  0  0  0
   -2.2200   -3.5625   -4.6812 H   0  0  0  0  0  0  0  0  0  0  0  0
   -3.4183   -3.3007   -6.0088 H   0  0  0  0  0  0  0  0  0  0  0  0
   -2.7477   -1.8821   -5.1247 H   0  0  0  0  0  0  0  0  0  0  0  0
   -4.6554   -0.5281   -2.9754 H   0  0  0  0  0  0  0  0  0  0  0  0
   -3.9858    0.3277   -0.7861 H   0  0  0  0  0  0  0  0  0  0  0  0
    2.9148    3.6117   -2.8173 H   0  0  0  0  0  0  0  0  0  0  0  0
   -0.2584    5.2913   -4.3707 H   0  0  0  0  0  0  0  0  0  0  0  0
    5.9548    5.5325   -4.9365 H   0  0  0  0  0  0  0  0  0  0  0  0
    2.8631    6.2444   -8.7808 H   0  0  0  0  0  0  0  0  0  0  0  0
  1  2  2  3
  2  3  1  0
  3  4  2  0
  3  5  1  0
  5  6  2  0
  6  7  1  0
  7  8  1  0
  7  9  2  0
  9 10  1  0
  9 11  1  0
 11 12  2  0
 12 13  1  0
 13 14  2  3
 14 15  1  0
 15 16  3  0
 14 17  1  0
 17 18  3  0
  1 19  1  0
 19 20  2  0
 20 21  1  0
 21 22  1  0
 22 23  1  0
 23 24  1  0
 24 25  2  0
 25 26  1  0
 26 27  1  0
 27 28  1  0
 28 29  2  0
 29 30  1  0
 30 31  2  0
 31 32  1  0
 32 33  1  0
 31 34  1  0
 34 35  2  0
 27 36  1  0
 36 37  2  0
 37 38  1  0
 38 39  2  0
 39 40  1  0
 40 41  1  0
 39 42  1  0
 42 43  2  0
 27 44  1  0
 44 45  2  0
 45 46  1  0
 46 47  1  0
 47 48  2  0
 48 49  1  0
 49 50  1  0
 50 51  2  0
 51 52  1  0
 52 53  2  0
 53 54  1  0
 54 55  1  0
 53 56  1  0
 56 57  2  0
 49 58  1  0
 58 59  2  0
 59 60  1  0
 60 61  2  0
 61 62  1  0
 62 63  1  0
 61 64  1  0
 64 65  2  0
 49 66  1  0
 66 67  1  0
 67 68  1  0
 45 69  1  0
 69 70  1  0
 70 71  2  0
 70 72  1  0
 72 73  2  3
 73 74  1  0
 74 75  2  0
 74 76  1  0
 76 77  2  0
 77 78  1  0
 78 79  1  0
 78 80  2  0
 80 81  1  0
 80 82  1  0
 82 83  2  0
 83 84  1  0
 84 85  2  3
 85 86  1  0
 86 87  3  0
 85 88  1  0
 88 89  3  0
 13  2  1  0
 68 19  1  0
 84 73  1  0
 12  5  1  0
 67 21  2  0
 83 76  1  0
 66 23  2  0
 48 24  1  0
 57 50  1  0
 65 58  1  0
 46 26  2  0
 35 28  1  0
 43 36  1  0
 71 44  1  0
  1 90  1  0
  6 91  1  0
 11 92  1  0
 20 93  1  0
 25 94  1  0
 29 95  1  0
 30 96  1  0
 32 97  1  0
 32 98  1  0
 33 99  1  0
 33100  1  0
 33101  1  0
 34102  1  0
 35103  1  0
 37104  1  0
 38105  1  0
 40106  1  0
 40107  1  0
 41108  1  0
 41109  1  0
 41110  1  0
 42111  1  0
 43112  1  0
 47113  1  0
 51114  1  0
 52115  1  0
 54116  1  0
 54117  1  0
 55118  1  0
 55119  1  0
 55120  1  0
 56121  1  0
 57122  1  0
 59123  1  0
 60124  1  0
 62125  1  0
 62126  1  0
 63127  1  0
 63128  1  0
 63129  1  0
 64130  1  0
 65131  1  0
 71132  1  0
 72133  1  0
 77134  1  0
 82135  1  0
M  END

