
     RDKit          3D

103114  0  0  0  0  0  0  0  0999 V2000
    3.6925    1.9696    6.5257 C   0  0  0  0  0  0  0  0  0  0  0  0
    4.1269    0.6988    6.5731 C   0  0  0  0  0  0  0  0  0  0  0  0
    3.3687   -0.5059    6.2186 C   0  0  0  0  0  0  0  0  0  0  0  0
    2.1403   -0.5571    5.9112 O   0  0  0  0  0  0  0  0  0  0  0  0
    4.2698   -1.6399    6.3065 C   0  0  0  0  0  0  0  0  0  0  0  0
    4.0717   -2.9400    5.8604 C   0  0  0  0  0  0  0  0  0  0  0  0
    5.1690   -3.8278    5.8498 C   0  0  0  0  0  0  0  0  0  0  0  0
    4.9729   -5.4405    5.1880 Cl  0  0  0  0  0  0  0  0  0  0  0  0
    6.4234   -3.4066    6.3329 C   0  0  0  0  0  0  0  0  0  0  0  0
    7.4988   -4.2407    6.2841 F   0  0  0  0  0  0  0  0  0  0  0  0
    6.5997   -2.0980    6.8010 C   0  0  0  0  0  0  0  0  0  0  0  0
    5.5067   -1.2246    6.7653 C   0  0  0  0  0  0  0  0  0  0  0  0
    5.5053    0.2217    6.9342 C   0  0  0  0  0  0  0  0  0  0  0  0
    6.4463    0.9346    7.5430 C   0  0  0  0  0  0  0  0  0  0  0  0
    7.0556    2.0424    6.8512 C   0  0  0  0  0  0  0  0  0  0  0  0
    7.5570    2.9103    6.2776 N   0  0  0  0  0  0  0  0  0  0  0  0
    6.4955    0.8994    8.9672 C   0  0  0  0  0  0  0  0  0  0  0  0
    6.4886    0.8386   10.1347 N   0  0  0  0  0  0  0  0  0  0  0  0
    2.5348    2.3210    5.6816 C   0  0  0  0  0  0  0  0  0  0  0  0
    1.3055    2.8335    6.1181 C   0  0  0  0  0  0  0  0  0  0  0  0
    0.9316    3.0353    7.5453 C   0  0  0  0  0  0  0  0  0  0  0  0
    0.3056    1.7572    8.1036 C   0  0  0  0  0  0  0  0  0  0  0  0
    0.4195    2.9809    5.0444 C   0  0  0  0  0  0  0  0  0  0  0  0
   -1.2244    3.4195    4.8980 S   0  0  0  0  0  0  0  0  0  0  0  0
   -1.1819    3.1671    3.2146 C   0  0  0  0  0  0  0  0  0  0  0  0
   -2.0691    2.9634    2.1908 C   0  0  0  0  0  0  0  0  0  0  0  0
   -3.4682    2.9949    2.1782 C   0  0  0  0  0  0  0  0  0  0  0  0
   -4.1555    2.4529    1.0544 C   0  0  0  0  0  0  0  0  0  0  0  0
   -5.5106    2.4603    1.0961 N   0  0  0  0  0  0  0  0  0  0  0  0
   -5.7408    3.1620    2.5740 S   0  0  0  0  0  0  0  0  0  0  0  0
   -4.2353    3.4316    3.2089 N   0  0  0  0  0  0  0  0  0  0  0  0
   -3.4092    1.9817   -0.0316 C   0  0  0  0  0  0  0  0  0  0  0  0
   -3.7826    1.4578   -1.2440 C   0  0  0  0  0  0  0  0  0  0  0  0
   -5.1753    1.0405   -2.1323 S   0  0  0  0  0  0  0  0  0  0  0  0
   -4.2176    0.5993   -3.4791 C   0  0  0  0  0  0  0  0  0  0  0  0
   -4.5077    0.0537   -4.7328 C   0  0  0  0  0  0  0  0  0  0  0  0
   -5.8825   -0.3099   -5.2158 C   0  0  0  0  0  0  0  0  0  0  0  0
   -6.2029   -1.7547   -4.8360 C   0  0  0  0  0  0  0  0  0  0  0  0
   -3.3235   -0.2049   -5.4387 C   0  0  0  0  0  0  0  0  0  0  0  0
   -1.9639    0.2696   -4.5336 S   0  0  0  0  0  0  0  0  0  0  0  0
   -2.8884    0.7848   -3.2318 C   0  0  0  0  0  0  0  0  0  0  0  0
   -2.6468    1.2843   -1.9629 C   0  0  0  0  0  0  0  0  0  0  0  0
   -1.5344    1.6867   -1.3066 N   0  0  0  0  0  0  0  0  0  0  0  0
   -2.0018    2.0500   -0.0647 C   0  0  0  0  0  0  0  0  0  0  0  0
   -1.3132    2.4471    1.1184 C   0  0  0  0  0  0  0  0  0  0  0  0
   -0.0185    2.1998    1.5275 N   0  0  0  0  0  0  0  0  0  0  0  0
    0.0191    2.7019    2.7888 C   0  0  0  0  0  0  0  0  0  0  0  0
    0.9338    2.6152    3.8235 C   0  0  0  0  0  0  0  0  0  0  0  0
    2.5025    2.0613    3.9998 S   0  0  0  0  0  0  0  0  0  0  0  0
    0.9275    1.2003    1.0187 C   0  0  0  0  0  0  0  0  0  0  0  0
    0.2878   -0.1872    0.9035 C   0  0  0  0  0  0  0  0  0  0  0  0
   -0.2866    2.0638   -1.9920 C   0  0  0  0  0  0  0  0  0  0  0  0
    0.1549    3.4979   -1.6646 C   0  0  0  0  0  0  0  0  0  0  0  0
   -3.2344   -0.6986   -6.8135 C   0  0  0  0  0  0  0  0  0  0  0  0
   -2.6193   -1.8487   -7.1365 C   0  0  0  0  0  0  0  0  0  0  0  0
   -2.0197   -2.7998   -6.1816 C   0  0  0  0  0  0  0  0  0  0  0  0
   -2.2591   -2.8840   -4.9403 O   0  0  0  0  0  0  0  0  0  0  0  0
   -1.0905   -3.6403   -6.9112 C   0  0  0  0  0  0  0  0  0  0  0  0
   -0.1777   -4.5520   -6.3843 C   0  0  0  0  0  0  0  0  0  0  0  0
    0.7336   -5.1635   -7.2638 C   0  0  0  0  0  0  0  0  0  0  0  0
    1.7038   -6.0630   -6.8219 O   0  0  0  0  0  0  0  0  0  0  0  0
    1.5554   -6.9355   -5.7384 C   0  0  0  0  0  0  0  0  0  0  0  0
    0.4135   -7.2405   -5.3036 O   0  0  0  0  0  0  0  0  0  0  0  0
    2.7670   -7.6007   -5.1829 C   0  0  0  0  0  0  0  0  0  0  0  0
    0.7405   -4.8129   -8.6293 C   0  0  0  0  0  0  0  0  0  0  0  0
   -0.1705   -3.8771   -9.1381 C   0  0  0  0  0  0  0  0  0  0  0  0
   -1.1280   -3.3264   -8.2698 C   0  0  0  0  0  0  0  0  0  0  0  0
   -2.1814   -2.2894   -8.5033 C   0  0  0  0  0  0  0  0  0  0  0  0
   -2.7361   -1.9395   -9.6934 C   0  0  0  0  0  0  0  0  0  0  0  0
   -3.9292   -1.1379   -9.7817 C   0  0  0  0  0  0  0  0  0  0  0  0
   -4.8888   -0.4965   -9.8824 N   0  0  0  0  0  0  0  0  0  0  0  0
   -2.3108   -2.5175  -10.9429 C   0  0  0  0  0  0  0  0  0  0  0  0
   -1.9745   -2.9731  -11.9589 N   0  0  0  0  0  0  0  0  0  0  0  0
    4.3470    2.7765    6.8657 H   0  0  0  0  0  0  0  0  0  0  0  0
    3.1119   -3.2321    5.4567 H   0  0  0  0  0  0  0  0  0  0  0  0
    7.5661   -1.7559    7.1390 H   0  0  0  0  0  0  0  0  0  0  0  0
    1.8142    3.3228    8.1515 H   0  0  0  0  0  0  0  0  0  0  0  0
    0.1864    3.8535    7.6328 H   0  0  0  0  0  0  0  0  0  0  0  0
   -0.0359    1.9215    9.1445 H   0  0  0  0  0  0  0  0  0  0  0  0
    1.0254    0.9191    8.1022 H   0  0  0  0  0  0  0  0  0  0  0  0
   -0.5638    1.4719    7.4671 H   0  0  0  0  0  0  0  0  0  0  0  0
   -5.9583   -0.1886   -6.3190 H   0  0  0  0  0  0  0  0  0  0  0  0
   -6.6296    0.3729   -4.7480 H   0  0  0  0  0  0  0  0  0  0  0  0
   -6.0636   -1.8944   -3.7389 H   0  0  0  0  0  0  0  0  0  0  0  0
   -7.2654   -1.9807   -5.0865 H   0  0  0  0  0  0  0  0  0  0  0  0
   -5.5420   -2.4709   -5.3790 H   0  0  0  0  0  0  0  0  0  0  0  0
    1.3559    1.5334    0.0766 H   0  0  0  0  0  0  0  0  0  0  0  0
    1.7901    1.0966    1.6912 H   0  0  0  0  0  0  0  0  0  0  0  0
   -0.2762   -0.4455    1.8210 H   0  0  0  0  0  0  0  0  0  0  0  0
   -0.4033   -0.2366    0.0463 H   0  0  0  0  0  0  0  0  0  0  0  0
    1.0919   -0.9359    0.7606 H   0  0  0  0  0  0  0  0  0  0  0  0
   -0.4308    2.0464   -3.0912 H   0  0  0  0  0  0  0  0  0  0  0  0
    0.4968    1.3058   -1.8204 H   0  0  0  0  0  0  0  0  0  0  0  0
   -0.6678    4.2107   -1.9075 H   0  0  0  0  0  0  0  0  0  0  0  0
    1.0456    3.7579   -2.2838 H   0  0  0  0  0  0  0  0  0  0  0  0
    0.4308    3.6326   -0.5961 H   0  0  0  0  0  0  0  0  0  0  0  0
   -3.5805   -0.0220   -7.5650 H   0  0  0  0  0  0  0  0  0  0  0  0
   -0.1473   -4.7478   -5.3132 H   0  0  0  0  0  0  0  0  0  0  0  0
    3.1902   -8.3038   -5.9318 H   0  0  0  0  0  0  0  0  0  0  0  0
    2.5091   -8.1458   -4.2519 H   0  0  0  0  0  0  0  0  0  0  0  0
    3.5327   -6.8186   -4.9527 H   0  0  0  0  0  0  0  0  0  0  0  0
    1.4866   -5.2455   -9.2821 H   0  0  0  0  0  0  0  0  0  0  0  0
   -0.0996   -3.5888  -10.1735 H   0  0  0  0  0  0  0  0  0  0  0  0
  1  2  2  3
  2  3  1  0
  3  4  2  0
  3  5  1  0
  5  6  2  0
  6  7  1  0
  7  8  1  0
  7  9  2  0
  9 10  1  0
  9 11  1  0
 11 12  2  0
 12 13  1  0
 13 14  2  3
 14 15  1  0
 15 16  3  0
 14 17  1  0
 17 18  3  0
  1 19  1  0
 19 20  2  0
 20 21  1  0
 21 22  1  0
 20 23  1  0
 23 24  1  0
 24 25  1  0
 25 26  1  0
 26 27  1  0
 27 28  1  0
 28 29  2  0
 29 30  1  0
 30 31  1  0
 28 32  1  0
 32 33  1  0
 33 34  1  0
 34 35  1  0
 35 36  1  0
 36 37  1  0
 37 38  1  0
 36 39  2  0
 39 40  1  0
 40 41  1  0
 41 42  1  0
 42 43  1  0
 43 44  1  0
 44 45  1  0
 45 46  1  0
 46 47  1  0
 47 48  1  0
 48 49  1  0
 46 50  1  0
 50 51  1  0
 43 52  1  0
 52 53  1  0
 39 54  1  0
 54 55  2  3
 55 56  1  0
 56 57  2  0
 56 58  1  0
 58 59  2  0
 59 60  1  0
 60 61  1  0
 61 62  1  0
 62 63  2  0
 62 64  1  0
 60 65  2  0
 65 66  1  0
 66 67  2  0
 67 68  1  0
 68 69  2  3
 69 70  1  0
 70 71  3  0
 69 72  1  0
 72 73  3  0
 13  2  1  0
 49 19  1  0
 68 55  1  0
 12  5  1  0
 48 23  2  0
 67 58  1  0
 47 25  2  0
 45 26  2  0
 31 27  2  0
 44 32  2  0
 42 33  2  0
 41 35  2  0
  1 74  1  0
  6 75  1  0
 11 76  1  0
 21 77  1  0
 21 78  1  0
 22 79  1  0
 22 80  1  0
 22 81  1  0
 37 82  1  0
 37 83  1  0
 38 84  1  0
 38 85  1  0
 38 86  1  0
 50 87  1  0
 50 88  1  0
 51 89  1  0
 51 90  1  0
 51 91  1  0
 52 92  1  0
 52 93  1  0
 53 94  1  0
 53 95  1  0
 53 96  1  0
 54 97  1  0
 59 98  1  0
 64 99  1  0
 64100  1  0
 64101  1  0
 65102  1  0
 66103  1  0
M  END

