
     RDKit          3D

103115  0  0  0  0  0  0  0  0999 V2000
   -7.1474    0.4415    3.0631 C   0  0  0  0  0  0  0  0  0  0  0  0
   -6.6614   -0.2093    4.1377 C   0  0  0  0  0  0  0  0  0  0  0  0
   -5.5119   -1.1292    4.1404 C   0  0  0  0  0  0  0  0  0  0  0  0
   -4.6629   -1.2758    3.2218 O   0  0  0  0  0  0  0  0  0  0  0  0
   -5.5704   -1.9242    5.3495 C   0  0  0  0  0  0  0  0  0  0  0  0
   -4.7388   -2.9795    5.7258 C   0  0  0  0  0  0  0  0  0  0  0  0
   -5.0457   -3.6904    6.8933 C   0  0  0  0  0  0  0  0  0  0  0  0
   -4.0244   -5.0283    7.3897 Cl  0  0  0  0  0  0  0  0  0  0  0  0
   -6.1823   -3.3464    7.6496 C   0  0  0  0  0  0  0  0  0  0  0  0
   -6.5084   -4.0561    8.7587 F   0  0  0  0  0  0  0  0  0  0  0  0
   -7.0024   -2.2769    7.2574 C   0  0  0  0  0  0  0  0  0  0  0  0
   -6.6717   -1.5474    6.1025 C   0  0  0  0  0  0  0  0  0  0  0  0
   -7.3561   -0.3940    5.4484 C   0  0  0  0  0  0  0  0  0  0  0  0
   -8.2705    0.4406    6.0158 C   0  0  0  0  0  0  0  0  0  0  0  0
   -8.8038    0.2337    7.3390 C   0  0  0  0  0  0  0  0  0  0  0  0
   -9.2467    0.0838    8.3975 N   0  0  0  0  0  0  0  0  0  0  0  0
   -8.6798    1.6729    5.3910 C   0  0  0  0  0  0  0  0  0  0  0  0
   -9.0083    2.6678    4.8999 N   0  0  0  0  0  0  0  0  0  0  0  0
   -6.4657    0.5147    1.7608 C   0  0  0  0  0  0  0  0  0  0  0  0
   -6.9919    0.0455    0.5434 C   0  0  0  0  0  0  0  0  0  0  0  0
   -8.2533   -0.7606    0.4099 C   0  0  0  0  0  0  0  0  0  0  0  0
   -7.9638   -2.2510    0.5836 C   0  0  0  0  0  0  0  0  0  0  0  0
   -6.1001    0.2759   -0.5049 C   0  0  0  0  0  0  0  0  0  0  0  0
   -5.9880   -0.3650   -2.0726 S   0  0  0  0  0  0  0  0  0  0  0  0
   -4.4579    0.3248   -2.3074 C   0  0  0  0  0  0  0  0  0  0  0  0
   -3.3526   -0.0594   -3.0124 C   0  0  0  0  0  0  0  0  0  0  0  0
   -3.1976   -1.1264   -3.9145 C   0  0  0  0  0  0  0  0  0  0  0  0
   -1.8882   -1.6450   -4.1570 C   0  0  0  0  0  0  0  0  0  0  0  0
   -1.7836   -2.6990   -5.0011 N   0  0  0  0  0  0  0  0  0  0  0  0
   -3.3856   -2.9086   -5.3774 S   0  0  0  0  0  0  0  0  0  0  0  0
   -4.2269   -1.7514   -4.5401 N   0  0  0  0  0  0  0  0  0  0  0  0
   -0.8031   -1.0377   -3.5148 C   0  0  0  0  0  0  0  0  0  0  0  0
    0.5462   -1.2852   -3.5314 C   0  0  0  0  0  0  0  0  0  0  0  0
    1.6826   -2.4291   -4.0807 S   0  0  0  0  0  0  0  0  0  0  0  0
    2.9628   -1.5525   -3.3500 C   0  0  0  0  0  0  0  0  0  0  0  0
    4.3284   -1.7981   -3.1554 C   0  0  0  0  0  0  0  0  0  0  0  0
    5.0138   -3.0708   -3.5714 C   0  0  0  0  0  0  0  0  0  0  0  0
    4.8927   -4.1360   -2.4872 C   0  0  0  0  0  0  0  0  0  0  0  0
    4.9117   -0.7711   -2.3789 C   0  0  0  0  0  0  0  0  0  0  0  0
    3.7111    0.3575   -1.9141 S   0  0  0  0  0  0  0  0  0  0  0  0
    2.4961   -0.4191   -2.7406 C   0  0  0  0  0  0  0  0  0  0  0  0
    1.1284   -0.2941   -2.8119 C   0  0  0  0  0  0  0  0  0  0  0  0
    0.2489    0.6127   -2.3369 N   0  0  0  0  0  0  0  0  0  0  0  0
   -0.9601    0.0920   -2.7007 C   0  0  0  0  0  0  0  0  0  0  0  0
   -2.2578    0.5121   -2.3407 C   0  0  0  0  0  0  0  0  0  0  0  0
   -2.6591    1.1263   -1.1801 N   0  0  0  0  0  0  0  0  0  0  0  0
   -4.0117    0.9902   -1.1989 C   0  0  0  0  0  0  0  0  0  0  0  0
   -4.9487    0.9399   -0.1620 C   0  0  0  0  0  0  0  0  0  0  0  0
   -4.9403    1.2324    1.4951 S   0  0  0  0  0  0  0  0  0  0  0  0
   -1.8717    1.3366    0.0460 C   0  0  0  0  0  0  0  0  0  0  0  0
   -1.9859    2.7849    0.5406 C   0  0  0  0  0  0  0  0  0  0  0  0
    0.5527    2.0332   -2.1389 C   0  0  0  0  0  0  0  0  0  0  0  0
    1.0420    2.6695   -3.4384 C   0  0  0  0  0  0  0  0  0  0  0  0
    6.2312   -0.8167   -1.7270 C   0  0  0  0  0  0  0  0  0  0  0  0
    6.9655    0.2911   -1.4959 C   0  0  0  0  0  0  0  0  0  0  0  0
    6.7068    1.6122   -2.0780 C   0  0  0  0  0  0  0  0  0  0  0  0
    6.1014    1.8475   -3.1568 O   0  0  0  0  0  0  0  0  0  0  0  0
    7.2622    2.6169   -1.2016 C   0  0  0  0  0  0  0  0  0  0  0  0
    6.9844    3.9805   -1.2061 C   0  0  0  0  0  0  0  0  0  0  0  0
    7.3346    4.7431   -0.0797 C   0  0  0  0  0  0  0  0  0  0  0  0
    6.9791    6.1010   -0.0056 C   0  0  0  0  0  0  0  0  0  0  0  0
    7.2357    6.8320    1.1582 C   0  0  0  0  0  0  0  0  0  0  0  0
    7.8498    6.2197    2.2539 C   0  0  0  0  0  0  0  0  0  0  0  0
    8.0571    6.9333    3.3913 F   0  0  0  0  0  0  0  0  0  0  0  0
    8.2255    4.8716    2.1895 C   0  0  0  0  0  0  0  0  0  0  0  0
    7.9681    4.1176    1.0307 C   0  0  0  0  0  0  0  0  0  0  0  0
    8.2647    2.7389    0.9875 C   0  0  0  0  0  0  0  0  0  0  0  0
    7.9309    1.9991   -0.1596 C   0  0  0  0  0  0  0  0  0  0  0  0
    7.9124    0.5257   -0.3607 C   0  0  0  0  0  0  0  0  0  0  0  0
    8.6929   -0.3826    0.2781 C   0  0  0  0  0  0  0  0  0  0  0  0
    9.7001    0.0106    1.2249 C   0  0  0  0  0  0  0  0  0  0  0  0
   10.5296    0.3111    1.9828 N   0  0  0  0  0  0  0  0  0  0  0  0
    8.6573   -1.7910   -0.0271 C   0  0  0  0  0  0  0  0  0  0  0  0
    8.6402   -2.9287   -0.2571 N   0  0  0  0  0  0  0  0  0  0  0  0
   -8.1453    0.8476    3.0872 H   0  0  0  0  0  0  0  0  0  0  0  0
   -3.8868   -3.2548    5.1190 H   0  0  0  0  0  0  0  0  0  0  0  0
   -7.8806   -2.0631    7.8471 H   0  0  0  0  0  0  0  0  0  0  0  0
   -8.7115   -0.5848   -0.5898 H   0  0  0  0  0  0  0  0  0  0  0  0
   -8.9927   -0.4362    1.1736 H   0  0  0  0  0  0  0  0  0  0  0  0
   -7.4304   -2.6361   -0.3086 H   0  0  0  0  0  0  0  0  0  0  0  0
   -8.9183   -2.8027    0.7000 H   0  0  0  0  0  0  0  0  0  0  0  0
   -7.3437   -2.4283    1.4860 H   0  0  0  0  0  0  0  0  0  0  0  0
    6.0818   -2.8700   -3.7841 H   0  0  0  0  0  0  0  0  0  0  0  0
    4.5502   -3.4508   -4.5032 H   0  0  0  0  0  0  0  0  0  0  0  0
    3.8268   -4.3783   -2.3091 H   0  0  0  0  0  0  0  0  0  0  0  0
    5.4217   -5.0571   -2.8064 H   0  0  0  0  0  0  0  0  0  0  0  0
    5.3365   -3.7797   -1.5374 H   0  0  0  0  0  0  0  0  0  0  0  0
   -2.2408    0.6473    0.8319 H   0  0  0  0  0  0  0  0  0  0  0  0
   -0.8081    1.0740   -0.0946 H   0  0  0  0  0  0  0  0  0  0  0  0
   -3.0382    3.1310    0.4994 H   0  0  0  0  0  0  0  0  0  0  0  0
   -1.3750    3.4714   -0.0755 H   0  0  0  0  0  0  0  0  0  0  0  0
   -1.6263    2.8429    1.5871 H   0  0  0  0  0  0  0  0  0  0  0  0
    1.3172    2.1553   -1.3495 H   0  0  0  0  0  0  0  0  0  0  0  0
   -0.3585    2.5769   -1.8373 H   0  0  0  0  0  0  0  0  0  0  0  0
    0.2913    2.5280   -4.2441 H   0  0  0  0  0  0  0  0  0  0  0  0
    1.1994    3.7593   -3.2906 H   0  0  0  0  0  0  0  0  0  0  0  0
    2.0058    2.2212   -3.7560 H   0  0  0  0  0  0  0  0  0  0  0  0
    6.4671   -1.7465   -1.2317 H   0  0  0  0  0  0  0  0  0  0  0  0
    6.4206    4.4171   -2.0220 H   0  0  0  0  0  0  0  0  0  0  0  0
    6.4850    6.5867   -0.8412 H   0  0  0  0  0  0  0  0  0  0  0  0
    6.9632    7.8781    1.2029 H   0  0  0  0  0  0  0  0  0  0  0  0
    8.6904    4.4138    3.0541 H   0  0  0  0  0  0  0  0  0  0  0  0
    8.6628    2.2625    1.8690 H   0  0  0  0  0  0  0  0  0  0  0  0
  1  2  2  3
  2  3  1  0
  3  4  2  0
  3  5  1  0
  5  6  2  0
  6  7  1  0
  7  8  1  0
  7  9  2  0
  9 10  1  0
  9 11  1  0
 11 12  2  0
 12 13  1  0
 13 14  2  3
 14 15  1  0
 15 16  3  0
 14 17  1  0
 17 18  3  0
  1 19  1  0
 19 20  2  0
 20 21  1  0
 21 22  1  0
 20 23  1  0
 23 24  1  0
 24 25  1  0
 25 26  1  0
 26 27  1  0
 27 28  1  0
 28 29  2  0
 29 30  1  0
 30 31  1  0
 28 32  1  0
 32 33  1  0
 33 34  1  0
 34 35  1  0
 35 36  1  0
 36 37  1  0
 37 38  1  0
 36 39  2  0
 39 40  1  0
 40 41  1  0
 41 42  1  0
 42 43  1  0
 43 44  1  0
 44 45  1  0
 45 46  1  0
 46 47  1  0
 47 48  1  0
 48 49  1  0
 46 50  1  0
 50 51  1  0
 43 52  1  0
 52 53  1  0
 39 54  1  0
 54 55  2  3
 55 56  1  0
 56 57  2  0
 56 58  1  0
 58 59  2  0
 59 60  1  0
 60 61  2  0
 61 62  1  0
 62 63  2  0
 63 64  1  0
 63 65  1  0
 65 66  2  0
 66 67  1  0
 67 68  2  0
 68 69  1  0
 69 70  2  3
 70 71  1  0
 71 72  3  0
 70 73  1  0
 73 74  3  0
 13  2  1  0
 49 19  1  0
 69 55  1  0
 12  5  1  0
 48 23  2  0
 68 58  1  0
 47 25  2  0
 66 60  1  0
 45 26  2  0
 31 27  2  0
 44 32  2  0
 42 33  2  0
 41 35  2  0
  1 75  1  0
  6 76  1  0
 11 77  1  0
 21 78  1  0
 21 79  1  0
 22 80  1  0
 22 81  1  0
 22 82  1  0
 37 83  1  0
 37 84  1  0
 38 85  1  0
 38 86  1  0
 38 87  1  0
 50 88  1  0
 50 89  1  0
 51 90  1  0
 51 91  1  0
 51 92  1  0
 52 93  1  0
 52 94  1  0
 53 95  1  0
 53 96  1  0
 53 97  1  0
 54 98  1  0
 59 99  1  0
 61100  1  0
 62101  1  0
 65102  1  0
 67103  1  0
M  END

