
     RDKit          3D

 97108  0  0  0  0  0  0  0  0999 V2000
   -4.8811   -0.2300    4.3618 C   0  0  0  0  0  0  0  0  0  0  0  0
   -5.1102   -0.6614    5.5992 C   0  0  0  0  0  0  0  0  0  0  0  0
   -6.1089   -1.6872    5.8993 C   0  0  0  0  0  0  0  0  0  0  0  0
   -6.3816   -2.6941    5.1935 O   0  0  0  0  0  0  0  0  0  0  0  0
   -6.7834   -1.3189    7.1338 C   0  0  0  0  0  0  0  0  0  0  0  0
   -7.9177   -1.9027    7.7168 C   0  0  0  0  0  0  0  0  0  0  0  0
   -8.4272   -1.3419    8.8964 C   0  0  0  0  0  0  0  0  0  0  0  0
   -9.8608   -2.0283    9.6539 Cl  0  0  0  0  0  0  0  0  0  0  0  0
   -7.7864   -0.2290    9.4851 C   0  0  0  0  0  0  0  0  0  0  0  0
   -8.2763    0.3184   10.6255 F   0  0  0  0  0  0  0  0  0  0  0  0
   -6.6590    0.3515    8.8770 C   0  0  0  0  0  0  0  0  0  0  0  0
   -6.1827   -0.1965    7.6690 C   0  0  0  0  0  0  0  0  0  0  0  0
   -5.0637    0.2283    6.7800 C   0  0  0  0  0  0  0  0  0  0  0  0
   -4.1526    1.2107    6.9773 C   0  0  0  0  0  0  0  0  0  0  0  0
   -2.9994    1.3776    6.1195 C   0  0  0  0  0  0  0  0  0  0  0  0
   -2.0715    1.5134    5.4423 N   0  0  0  0  0  0  0  0  0  0  0  0
   -4.3100    2.2227    7.9967 C   0  0  0  0  0  0  0  0  0  0  0  0
   -4.4378    3.0745    8.7826 N   0  0  0  0  0  0  0  0  0  0  0  0
   -4.3646   -1.1408    3.3340 C   0  0  0  0  0  0  0  0  0  0  0  0
   -5.0603   -1.6800    2.2370 C   0  0  0  0  0  0  0  0  0  0  0  0
   -6.5163   -1.4310    1.9494 C   0  0  0  0  0  0  0  0  0  0  0  0
   -6.6920   -0.0692    1.2704 C   0  0  0  0  0  0  0  0  0  0  0  0
   -4.1613   -2.2151    1.2997 C   0  0  0  0  0  0  0  0  0  0  0  0
   -4.3318   -2.8331   -0.2855 S   0  0  0  0  0  0  0  0  0  0  0  0
   -2.6414   -2.9093   -0.4710 C   0  0  0  0  0  0  0  0  0  0  0  0
   -1.7570   -2.9584   -1.5114 C   0  0  0  0  0  0  0  0  0  0  0  0
   -1.9804   -3.1800   -2.8783 C   0  0  0  0  0  0  0  0  0  0  0  0
   -0.9187   -2.9252   -3.7966 C   0  0  0  0  0  0  0  0  0  0  0  0
   -1.1743   -3.1317   -5.1115 N   0  0  0  0  0  0  0  0  0  0  0  0
   -2.7620   -3.5994   -5.0104 S   0  0  0  0  0  0  0  0  0  0  0  0
   -3.1630   -3.5832   -3.4027 N   0  0  0  0  0  0  0  0  0  0  0  0
    0.3081   -2.4803   -3.2986 C   0  0  0  0  0  0  0  0  0  0  0  0
    1.4453   -2.0867   -3.9493 C   0  0  0  0  0  0  0  0  0  0  0  0
    2.0182   -1.8203   -5.5291 S   0  0  0  0  0  0  0  0  0  0  0  0
    3.4706   -1.1667   -4.9078 C   0  0  0  0  0  0  0  0  0  0  0  0
    4.5740   -0.5426   -5.4919 C   0  0  0  0  0  0  0  0  0  0  0  0
    4.7873   -0.4498   -6.9737 C   0  0  0  0  0  0  0  0  0  0  0  0
    5.4159   -1.7369   -7.4970 C   0  0  0  0  0  0  0  0  0  0  0  0
    5.4395   -0.0153   -4.5113 C   0  0  0  0  0  0  0  0  0  0  0  0
    4.8290   -0.3669   -2.9557 S   0  0  0  0  0  0  0  0  0  0  0  0
    3.4909   -1.1915   -3.5429 C   0  0  0  0  0  0  0  0  0  0  0  0
    2.3298   -1.7226   -3.0042 C   0  0  0  0  0  0  0  0  0  0  0  0
    1.8708   -1.8920   -1.7429 N   0  0  0  0  0  0  0  0  0  0  0  0
    0.5648   -2.3086   -1.9202 C   0  0  0  0  0  0  0  0  0  0  0  0
   -0.5213   -2.4975   -0.9987 C   0  0  0  0  0  0  0  0  0  0  0  0
   -0.6770   -2.1150    0.3170 N   0  0  0  0  0  0  0  0  0  0  0  0
   -1.9718   -2.4267    0.5954 C   0  0  0  0  0  0  0  0  0  0  0  0
   -2.8354   -2.0610    1.6231 C   0  0  0  0  0  0  0  0  0  0  0  0
   -2.6956   -1.2842    3.0927 S   0  0  0  0  0  0  0  0  0  0  0  0
    0.1270   -1.2012    1.1366 C   0  0  0  0  0  0  0  0  0  0  0  0
    0.1753    0.1920    0.5174 C   0  0  0  0  0  0  0  0  0  0  0  0
    2.7717   -2.0016   -0.5873 C   0  0  0  0  0  0  0  0  0  0  0  0
    2.6611   -3.3694    0.0912 C   0  0  0  0  0  0  0  0  0  0  0  0
    6.6948    0.7097   -4.7798 C   0  0  0  0  0  0  0  0  0  0  0  0
    7.1442    1.7638   -4.0812 C   0  0  0  0  0  0  0  0  0  0  0  0
    8.5583    2.1413   -4.0328 C   0  0  0  0  0  0  0  0  0  0  0  0
    9.4623    1.7032   -4.7859 O   0  0  0  0  0  0  0  0  0  0  0  0
    8.7621    3.0471   -2.9078 C   0  0  0  0  0  0  0  0  0  0  0  0
    9.9478    3.5772   -2.3867 C   0  0  0  0  0  0  0  0  0  0  0  0
   11.5068    3.3325   -3.1615 Cl  0  0  0  0  0  0  0  0  0  0  0  0
    9.8662    4.3674   -1.2261 C   0  0  0  0  0  0  0  0  0  0  0  0
    8.6336    4.5599   -0.5750 C   0  0  0  0  0  0  0  0  0  0  0  0
    8.5346    5.6216    1.0084 Br  0  0  0  0  0  0  0  0  0  0  0  0
    7.4587    3.9942   -1.1050 C   0  0  0  0  0  0  0  0  0  0  0  0
    7.5294    3.2835   -2.3099 C   0  0  0  0  0  0  0  0  0  0  0  0
    6.4400    2.6295   -3.0832 C   0  0  0  0  0  0  0  0  0  0  0  0
    5.1801    3.1402   -3.2175 C   0  0  0  0  0  0  0  0  0  0  0  0
    4.7471    4.2749   -2.4425 C   0  0  0  0  0  0  0  0  0  0  0  0
    4.4098    5.2042   -1.8502 N   0  0  0  0  0  0  0  0  0  0  0  0
    4.2965    2.7536   -4.2915 C   0  0  0  0  0  0  0  0  0  0  0  0
    3.5758    2.4583   -5.1513 N   0  0  0  0  0  0  0  0  0  0  0  0
   -4.6293    0.8182    4.2308 H   0  0  0  0  0  0  0  0  0  0  0  0
   -8.4232   -2.7554    7.2592 H   0  0  0  0  0  0  0  0  0  0  0  0
   -6.2158    1.2184    9.3371 H   0  0  0  0  0  0  0  0  0  0  0  0
   -7.1110   -1.4537    2.8879 H   0  0  0  0  0  0  0  0  0  0  0  0
   -6.9080   -2.2193    1.2691 H   0  0  0  0  0  0  0  0  0  0  0  0
   -7.6967    0.0062    0.8121 H   0  0  0  0  0  0  0  0  0  0  0  0
   -6.5600    0.7569    2.0068 H   0  0  0  0  0  0  0  0  0  0  0  0
   -5.9368    0.0440    0.4628 H   0  0  0  0  0  0  0  0  0  0  0  0
    5.4430    0.4046   -7.2307 H   0  0  0  0  0  0  0  0  0  0  0  0
    3.8204   -0.2817   -7.4902 H   0  0  0  0  0  0  0  0  0  0  0  0
    6.4392   -1.8560   -7.0941 H   0  0  0  0  0  0  0  0  0  0  0  0
    5.4784   -1.7055   -8.6036 H   0  0  0  0  0  0  0  0  0  0  0  0
    4.8046   -2.6171   -7.2030 H   0  0  0  0  0  0  0  0  0  0  0  0
    1.1040   -1.6328    1.3624 H   0  0  0  0  0  0  0  0  0  0  0  0
   -0.2851   -1.1026    2.1519 H   0  0  0  0  0  0  0  0  0  0  0  0
    0.8027    0.8583    1.1383 H   0  0  0  0  0  0  0  0  0  0  0  0
    0.5920    0.1575   -0.5116 H   0  0  0  0  0  0  0  0  0  0  0  0
   -0.8558    0.6063    0.4647 H   0  0  0  0  0  0  0  0  0  0  0  0
    3.8320   -1.9150   -0.9108 H   0  0  0  0  0  0  0  0  0  0  0  0
    2.6344   -1.1507    0.0970 H   0  0  0  0  0  0  0  0  0  0  0  0
    1.6187   -3.6393    0.3504 H   0  0  0  0  0  0  0  0  0  0  0  0
    3.2659   -3.3814    1.0190 H   0  0  0  0  0  0  0  0  0  0  0  0
    3.0557   -4.1498   -0.5907 H   0  0  0  0  0  0  0  0  0  0  0  0
    7.3499    0.2646   -5.5188 H   0  0  0  0  0  0  0  0  0  0  0  0
   10.7622    4.8156   -0.8154 H   0  0  0  0  0  0  0  0  0  0  0  0
    6.5288    4.1264   -0.5741 H   0  0  0  0  0  0  0  0  0  0  0  0
  1  2  2  3
  2  3  1  0
  3  4  2  0
  3  5  1  0
  5  6  2  0
  6  7  1  0
  7  8  1  0
  7  9  2  0
  9 10  1  0
  9 11  1  0
 11 12  2  0
 12 13  1  0
 13 14  2  3
 14 15  1  0
 15 16  3  0
 14 17  1  0
 17 18  3  0
  1 19  1  0
 19 20  2  0
 20 21  1  0
 21 22  1  0
 20 23  1  0
 23 24  1  0
 24 25  1  0
 25 26  1  0
 26 27  1  0
 27 28  1  0
 28 29  2  0
 29 30  1  0
 30 31  1  0
 28 32  1  0
 32 33  1  0
 33 34  1  0
 34 35  1  0
 35 36  1  0
 36 37  1  0
 37 38  1  0
 36 39  2  0
 39 40  1  0
 40 41  1  0
 41 42  1  0
 42 43  1  0
 43 44  1  0
 44 45  1  0
 45 46  1  0
 46 47  1  0
 47 48  1  0
 48 49  1  0
 46 50  1  0
 50 51  1  0
 43 52  1  0
 52 53  1  0
 39 54  1  0
 54 55  2  3
 55 56  1  0
 56 57  2  0
 56 58  1  0
 58 59  2  0
 59 60  1  0
 59 61  1  0
 61 62  2  0
 62 63  1  0
 62 64  1  0
 64 65  2  0
 65 66  1  0
 66 67  2  3
 67 68  1  0
 68 69  3  0
 67 70  1  0
 70 71  3  0
 13  2  1  0
 49 19  1  0
 66 55  1  0
 12  5  1  0
 48 23  2  0
 65 58  1  0
 47 25  2  0
 45 26  2  0
 31 27  2  0
 44 32  2  0
 42 33  2  0
 41 35  2  0
  1 72  1  0
  6 73  1  0
 11 74  1  0
 21 75  1  0
 21 76  1  0
 22 77  1  0
 22 78  1  0
 22 79  1  0
 37 80  1  0
 37 81  1  0
 38 82  1  0
 38 83  1  0
 38 84  1  0
 50 85  1  0
 50 86  1  0
 51 87  1  0
 51 88  1  0
 51 89  1  0
 52 90  1  0
 52 91  1  0
 53 92  1  0
 53 93  1  0
 53 94  1  0
 54 95  1  0
 61 96  1  0
 64 97  1  0
M  END

