
     RDKit          3D

 97108  0  0  0  0  0  0  0  0999 V2000
    1.1189    1.3823   -7.7988 C   0  0  0  0  0  0  0  0  0  0  0  0
    2.2107    0.6058   -7.9188 C   0  0  0  0  0  0  0  0  0  0  0  0
    3.2283    0.4019   -6.8775 C   0  0  0  0  0  0  0  0  0  0  0  0
    3.1043    0.6586   -5.6483 O   0  0  0  0  0  0  0  0  0  0  0  0
    4.4178   -0.1337   -7.5027 C   0  0  0  0  0  0  0  0  0  0  0  0
    5.6700   -0.3463   -6.9276 C   0  0  0  0  0  0  0  0  0  0  0  0
    6.7222   -0.7616   -7.7497 C   0  0  0  0  0  0  0  0  0  0  0  0
    8.3118   -1.0206   -7.0499 Cl  0  0  0  0  0  0  0  0  0  0  0  0
    6.5109   -0.9501   -9.1299 C   0  0  0  0  0  0  0  0  0  0  0  0
    7.5405   -1.3055   -9.9378 F   0  0  0  0  0  0  0  0  0  0  0  0
    5.2389   -0.7311   -9.6880 C   0  0  0  0  0  0  0  0  0  0  0  0
    4.1812   -0.3431   -8.8491 C   0  0  0  0  0  0  0  0  0  0  0  0
    2.7640   -0.0079   -9.1637 C   0  0  0  0  0  0  0  0  0  0  0  0
    2.0554   -0.4243  -10.2386 C   0  0  0  0  0  0  0  0  0  0  0  0
    0.6238   -0.2856  -10.3194 C   0  0  0  0  0  0  0  0  0  0  0  0
   -0.5230   -0.1895  -10.3938 N   0  0  0  0  0  0  0  0  0  0  0  0
    2.6493   -1.1950  -11.3032 C   0  0  0  0  0  0  0  0  0  0  0  0
    3.1066   -1.8142  -12.1662 N   0  0  0  0  0  0  0  0  0  0  0  0
    0.7218    1.9821   -6.5227 C   0  0  0  0  0  0  0  0  0  0  0  0
    1.2791    3.1451   -5.9601 C   0  0  0  0  0  0  0  0  0  0  0  0
    2.2379    4.0691   -6.6632 C   0  0  0  0  0  0  0  0  0  0  0  0
    1.4933    5.2262   -7.3250 C   0  0  0  0  0  0  0  0  0  0  0  0
    0.8841    3.2916   -4.6266 C   0  0  0  0  0  0  0  0  0  0  0  0
    1.3948    4.3212   -3.3592 S   0  0  0  0  0  0  0  0  0  0  0  0
    0.5263    3.3914   -2.2323 C   0  0  0  0  0  0  0  0  0  0  0  0
    0.3772    3.2542   -0.8800 C   0  0  0  0  0  0  0  0  0  0  0  0
    0.7804    4.0633    0.1868 C   0  0  0  0  0  0  0  0  0  0  0  0
    0.4447    3.6690    1.5140 C   0  0  0  0  0  0  0  0  0  0  0  0
    0.8433    4.4843    2.5227 N   0  0  0  0  0  0  0  0  0  0  0  0
    1.5946    5.6696    1.6421 S   0  0  0  0  0  0  0  0  0  0  0  0
    1.4669    5.2261    0.0491 N   0  0  0  0  0  0  0  0  0  0  0  0
   -0.2253    2.4567    1.7010 C   0  0  0  0  0  0  0  0  0  0  0  0
   -0.4778    1.7439    2.8341 C   0  0  0  0  0  0  0  0  0  0  0  0
   -0.1708    1.8317    4.4963 S   0  0  0  0  0  0  0  0  0  0  0  0
   -0.6599    0.2045    4.7253 C   0  0  0  0  0  0  0  0  0  0  0  0
   -0.7398   -0.6606    5.8311 C   0  0  0  0  0  0  0  0  0  0  0  0
   -0.2588   -0.3365    7.2239 C   0  0  0  0  0  0  0  0  0  0  0  0
   -0.7991    0.9860    7.7567 C   0  0  0  0  0  0  0  0  0  0  0  0
   -1.1719   -1.9416    5.4201 C   0  0  0  0  0  0  0  0  0  0  0  0
   -1.4050   -1.9765    3.7346 S   0  0  0  0  0  0  0  0  0  0  0  0
   -0.9886   -0.3675    3.5227 C   0  0  0  0  0  0  0  0  0  0  0  0
   -0.8889    0.5123    2.4481 C   0  0  0  0  0  0  0  0  0  0  0  0
   -0.8970    0.3485    1.0994 N   0  0  0  0  0  0  0  0  0  0  0  0
   -0.5690    1.6034    0.6330 C   0  0  0  0  0  0  0  0  0  0  0  0
   -0.3433    2.0606   -0.6964 C   0  0  0  0  0  0  0  0  0  0  0  0
   -0.7356    1.5427   -1.9122 N   0  0  0  0  0  0  0  0  0  0  0  0
   -0.1300    2.3596   -2.8041 C   0  0  0  0  0  0  0  0  0  0  0  0
    0.0757    2.2888   -4.1650 C   0  0  0  0  0  0  0  0  0  0  0  0
   -0.1998    1.1442   -5.3619 S   0  0  0  0  0  0  0  0  0  0  0  0
   -1.8265    0.6188   -2.2644 C   0  0  0  0  0  0  0  0  0  0  0  0
   -3.1001    0.8729   -1.4436 C   0  0  0  0  0  0  0  0  0  0  0  0
   -0.6912   -0.9570    0.4458 C   0  0  0  0  0  0  0  0  0  0  0  0
    0.7090   -1.0823   -0.1722 C   0  0  0  0  0  0  0  0  0  0  0  0
   -1.3707   -3.1351    6.2460 C   0  0  0  0  0  0  0  0  0  0  0  0
   -2.4340   -3.3016    7.0545 C   0  0  0  0  0  0  0  0  0  0  0  0
   -3.5310   -2.3365    7.2256 C   0  0  0  0  0  0  0  0  0  0  0  0
   -3.5113   -1.1228    6.8919 O   0  0  0  0  0  0  0  0  0  0  0  0
   -4.6668   -3.0347    7.8068 C   0  0  0  0  0  0  0  0  0  0  0  0
   -5.9583   -2.5583    8.0425 C   0  0  0  0  0  0  0  0  0  0  0  0
   -6.4084   -0.8830    7.7396 Cl  0  0  0  0  0  0  0  0  0  0  0  0
   -6.9310   -3.4564    8.4992 C   0  0  0  0  0  0  0  0  0  0  0  0
   -6.6065   -4.8109    8.6908 C   0  0  0  0  0  0  0  0  0  0  0  0
   -5.3051   -5.2748    8.4484 C   0  0  0  0  0  0  0  0  0  0  0  0
   -4.3220   -4.3609    8.0342 C   0  0  0  0  0  0  0  0  0  0  0  0
   -2.8867   -4.5807    7.6792 C   0  0  0  0  0  0  0  0  0  0  0  0
   -2.1123   -5.6443    8.0262 C   0  0  0  0  0  0  0  0  0  0  0  0
   -0.6932   -5.6794    7.8044 C   0  0  0  0  0  0  0  0  0  0  0  0
    0.4491   -5.7276    7.6359 N   0  0  0  0  0  0  0  0  0  0  0  0
   -2.6264   -6.7739    8.7555 C   0  0  0  0  0  0  0  0  0  0  0  0
   -3.0179   -7.6924    9.3383 N   0  0  0  0  0  0  0  0  0  0  0  0
    0.5177    1.6337   -8.6621 H   0  0  0  0  0  0  0  0  0  0  0  0
    5.8315   -0.1735   -5.8667 H   0  0  0  0  0  0  0  0  0  0  0  0
    5.1220   -0.8215  -10.7571 H   0  0  0  0  0  0  0  0  0  0  0  0
    2.8043    3.5053   -7.4322 H   0  0  0  0  0  0  0  0  0  0  0  0
    2.9706    4.4745   -5.9386 H   0  0  0  0  0  0  0  0  0  0  0  0
    0.9740    5.8341   -6.5587 H   0  0  0  0  0  0  0  0  0  0  0  0
    0.7440    4.8411   -8.0526 H   0  0  0  0  0  0  0  0  0  0  0  0
    2.2152    5.8765   -7.8640 H   0  0  0  0  0  0  0  0  0  0  0  0
    0.8526   -0.3124    7.2288 H   0  0  0  0  0  0  0  0  0  0  0  0
   -0.5862   -1.1331    7.9199 H   0  0  0  0  0  0  0  0  0  0  0  0
   -1.9015    1.0581    7.6042 H   0  0  0  0  0  0  0  0  0  0  0  0
   -0.3008    1.8385    7.2606 H   0  0  0  0  0  0  0  0  0  0  0  0
   -0.5835    1.0628    8.8418 H   0  0  0  0  0  0  0  0  0  0  0  0
   -1.4780   -0.4283   -2.2199 H   0  0  0  0  0  0  0  0  0  0  0  0
   -2.1005    0.7795   -3.3290 H   0  0  0  0  0  0  0  0  0  0  0  0
   -3.9438    1.1262   -2.1333 H   0  0  0  0  0  0  0  0  0  0  0  0
   -2.9853    1.7236   -0.7321 H   0  0  0  0  0  0  0  0  0  0  0  0
   -3.4006   -0.0364   -0.8745 H   0  0  0  0  0  0  0  0  0  0  0  0
   -0.7720   -1.7663    1.1860 H   0  0  0  0  0  0  0  0  0  0  0  0
   -1.4961   -1.1733   -0.2700 H   0  0  0  0  0  0  0  0  0  0  0  0
    1.4691   -0.7425    0.5577 H   0  0  0  0  0  0  0  0  0  0  0  0
    0.9338   -2.1383   -0.4463 H   0  0  0  0  0  0  0  0  0  0  0  0
    0.7839   -0.4704   -1.0970 H   0  0  0  0  0  0  0  0  0  0  0  0
   -0.7715   -3.9776    5.9707 H   0  0  0  0  0  0  0  0  0  0  0  0
   -7.9436   -3.1113    8.6973 H   0  0  0  0  0  0  0  0  0  0  0  0
   -7.3766   -5.5078    9.0011 H   0  0  0  0  0  0  0  0  0  0  0  0
   -5.1133   -6.3247    8.5501 H   0  0  0  0  0  0  0  0  0  0  0  0
  1  2  2  3
  2  3  1  0
  3  4  2  0
  3  5  1  0
  5  6  2  0
  6  7  1  0
  7  8  1  0
  7  9  2  0
  9 10  1  0
  9 11  1  0
 11 12  2  0
 12 13  1  0
 13 14  2  3
 14 15  1  0
 15 16  3  0
 14 17  1  0
 17 18  3  0
  1 19  1  0
 19 20  2  0
 20 21  1  0
 21 22  1  0
 20 23  1  0
 23 24  1  0
 24 25  1  0
 25 26  1  0
 26 27  1  0
 27 28  1  0
 28 29  2  0
 29 30  1  0
 30 31  1  0
 28 32  1  0
 32 33  1  0
 33 34  1  0
 34 35  1  0
 35 36  1  0
 36 37  1  0
 37 38  1  0
 36 39  2  0
 39 40  1  0
 40 41  1  0
 41 42  1  0
 42 43  1  0
 43 44  1  0
 44 45  1  0
 45 46  1  0
 46 47  1  0
 47 48  1  0
 48 49  1  0
 46 50  1  0
 50 51  1  0
 43 52  1  0
 52 53  1  0
 39 54  1  0
 54 55  2  3
 55 56  1  0
 56 57  2  0
 56 58  1  0
 58 59  2  0
 59 60  1  0
 59 61  1  0
 61 62  2  0
 62 63  1  0
 63 64  2  0
 64 65  1  0
 65 66  2  3
 66 67  1  0
 67 68  3  0
 66 69  1  0
 69 70  3  0
 13  2  1  0
 49 19  1  0
 65 55  1  0
 12  5  1  0
 48 23  2  0
 64 58  1  0
 47 25  2  0
 45 26  2  0
 31 27  2  0
 44 32  2  0
 42 33  2  0
 41 35  2  0
  1 71  1  0
  6 72  1  0
 11 73  1  0
 21 74  1  0
 21 75  1  0
 22 76  1  0
 22 77  1  0
 22 78  1  0
 37 79  1  0
 37 80  1  0
 38 81  1  0
 38 82  1  0
 38 83  1  0
 50 84  1  0
 50 85  1  0
 51 86  1  0
 51 87  1  0
 51 88  1  0
 52 89  1  0
 52 90  1  0
 53 91  1  0
 53 92  1  0
 53 93  1  0
 54 94  1  0
 61 95  1  0
 62 96  1  0
 63 97  1  0
M  END

