
     RDKit          3D

103114  0  0  0  0  0  0  0  0999 V2000
   -7.1591   -2.2415   -3.6352 C   0  0  0  0  0  0  0  0  0  0  0  0
   -7.1189   -1.1261   -4.3886 C   0  0  0  0  0  0  0  0  0  0  0  0
   -6.3136    0.0675   -4.0993 C   0  0  0  0  0  0  0  0  0  0  0  0
   -5.7883    0.3713   -2.9954 O   0  0  0  0  0  0  0  0  0  0  0  0
   -6.2547    0.8753   -5.2961 C   0  0  0  0  0  0  0  0  0  0  0  0
   -5.5276    2.0470   -5.5051 C   0  0  0  0  0  0  0  0  0  0  0  0
   -5.5797    2.6530   -6.7684 C   0  0  0  0  0  0  0  0  0  0  0  0
   -4.6680    4.1252   -7.0626 Cl  0  0  0  0  0  0  0  0  0  0  0  0
   -6.3462    2.0733   -7.7956 C   0  0  0  0  0  0  0  0  0  0  0  0
   -6.3865    2.6504   -9.0204 F   0  0  0  0  0  0  0  0  0  0  0  0
   -7.0647    0.8871   -7.5643 C   0  0  0  0  0  0  0  0  0  0  0  0
   -7.0238    0.2942   -6.2901 C   0  0  0  0  0  0  0  0  0  0  0  0
   -7.6921   -0.9305   -5.7575 C   0  0  0  0  0  0  0  0  0  0  0  0
   -8.7286   -1.6081   -6.3208 C   0  0  0  0  0  0  0  0  0  0  0  0
   -9.5010   -2.5752   -5.5861 C   0  0  0  0  0  0  0  0  0  0  0  0
  -10.1299   -3.3531   -5.0025 N   0  0  0  0  0  0  0  0  0  0  0  0
   -9.2175   -1.3341   -7.6470 C   0  0  0  0  0  0  0  0  0  0  0  0
   -9.6208   -1.1273   -8.7130 N   0  0  0  0  0  0  0  0  0  0  0  0
   -6.4660   -2.3621   -2.3474 C   0  0  0  0  0  0  0  0  0  0  0  0
   -7.0851   -2.3916   -1.0867 C   0  0  0  0  0  0  0  0  0  0  0  0
   -8.5678   -2.3142   -0.8561 C   0  0  0  0  0  0  0  0  0  0  0  0
   -9.1841   -3.7087   -0.9015 C   0  0  0  0  0  0  0  0  0  0  0  0
   -6.1332   -2.5035   -0.0712 C   0  0  0  0  0  0  0  0  0  0  0  0
   -6.2170   -2.2923    1.6158 S   0  0  0  0  0  0  0  0  0  0  0  0
   -4.5266   -2.3887    1.7524 C   0  0  0  0  0  0  0  0  0  0  0  0
   -3.6094   -1.8411    2.6050 C   0  0  0  0  0  0  0  0  0  0  0  0
   -3.8068   -1.0942    3.7764 C   0  0  0  0  0  0  0  0  0  0  0  0
   -2.7413   -0.2810    4.2648 C   0  0  0  0  0  0  0  0  0  0  0  0
   -2.9832    0.4533    5.3779 N   0  0  0  0  0  0  0  0  0  0  0  0
   -4.5580    0.0217    5.6582 S   0  0  0  0  0  0  0  0  0  0  0  0
   -4.9772   -1.0428    4.4605 N   0  0  0  0  0  0  0  0  0  0  0  0
   -1.5257   -0.2913    3.5780 C   0  0  0  0  0  0  0  0  0  0  0  0
   -0.3171    0.2852    3.8494 C   0  0  0  0  0  0  0  0  0  0  0  0
    0.4163    1.2511    5.0376 S   0  0  0  0  0  0  0  0  0  0  0  0
    1.9559    0.9671    4.3476 C   0  0  0  0  0  0  0  0  0  0  0  0
    3.2517    1.3562    4.6897 C   0  0  0  0  0  0  0  0  0  0  0  0
    3.5678    2.3257    5.7969 C   0  0  0  0  0  0  0  0  0  0  0  0
    3.6646    3.7464    5.2527 C   0  0  0  0  0  0  0  0  0  0  0  0
    4.1915    0.8040    3.7966 C   0  0  0  0  0  0  0  0  0  0  0  0
    3.3977   -0.2034    2.6626 S   0  0  0  0  0  0  0  0  0  0  0  0
    1.8750    0.1289    3.2671 C   0  0  0  0  0  0  0  0  0  0  0  0
    0.5739   -0.2370    2.9715 C   0  0  0  0  0  0  0  0  0  0  0  0
    0.0236   -1.1463    2.1321 N   0  0  0  0  0  0  0  0  0  0  0  0
   -1.3061   -1.1059    2.4577 C   0  0  0  0  0  0  0  0  0  0  0  0
   -2.4007   -1.8041    1.8898 C   0  0  0  0  0  0  0  0  0  0  0  0
   -2.5917   -2.1938    0.5855 N   0  0  0  0  0  0  0  0  0  0  0  0
   -3.9071   -2.5403    0.5469 C   0  0  0  0  0  0  0  0  0  0  0  0
   -4.8297   -2.5829   -0.4978 C   0  0  0  0  0  0  0  0  0  0  0  0
   -4.7757   -2.4710   -2.1727 S   0  0  0  0  0  0  0  0  0  0  0  0
   -1.8067   -1.7989   -0.5932 C   0  0  0  0  0  0  0  0  0  0  0  0
   -1.4346   -3.0141   -1.4464 C   0  0  0  0  0  0  0  0  0  0  0  0
    0.7490   -2.2933    1.5720 C   0  0  0  0  0  0  0  0  0  0  0  0
    1.2437   -3.2228    2.6805 C   0  0  0  0  0  0  0  0  0  0  0  0
    5.6540    0.9125    3.9334 C   0  0  0  0  0  0  0  0  0  0  0  0
    6.5073    1.0842    2.9045 C   0  0  0  0  0  0  0  0  0  0  0  0
    6.1475    1.5686    1.5632 C   0  0  0  0  0  0  0  0  0  0  0  0
    4.9856    1.7474    1.1127 O   0  0  0  0  0  0  0  0  0  0  0  0
    7.3613    1.9636    0.8808 C   0  0  0  0  0  0  0  0  0  0  0  0
    7.4864    2.5095   -0.3952 C   0  0  0  0  0  0  0  0  0  0  0  0
    8.7636    2.8834   -0.8535 C   0  0  0  0  0  0  0  0  0  0  0  0
    8.9299    3.4478   -2.2105 C   0  0  0  0  0  0  0  0  0  0  0  0
   10.0382    3.9410   -2.5600 O   0  0  0  0  0  0  0  0  0  0  0  0
    7.8566    3.4248   -3.1106 O   0  0  0  0  0  0  0  0  0  0  0  0
    7.9514    3.9433   -4.4322 C   0  0  0  0  0  0  0  0  0  0  0  0
    9.8774    2.7171    0.0005 C   0  0  0  0  0  0  0  0  0  0  0  0
    9.7264    2.1645    1.2812 C   0  0  0  0  0  0  0  0  0  0  0  0
    8.4515    1.7644    1.7090 C   0  0  0  0  0  0  0  0  0  0  0  0
    8.0021    1.1301    2.9834 C   0  0  0  0  0  0  0  0  0  0  0  0
    8.7814    0.5029    3.9032 C   0  0  0  0  0  0  0  0  0  0  0  0
   10.2193    0.5619    3.8819 C   0  0  0  0  0  0  0  0  0  0  0  0
   11.3773    0.6035    3.8873 N   0  0  0  0  0  0  0  0  0  0  0  0
    8.2318   -0.3493    4.9266 C   0  0  0  0  0  0  0  0  0  0  0  0
    7.7923   -1.0365    5.7483 N   0  0  0  0  0  0  0  0  0  0  0  0
   -7.6848   -3.1200   -3.9632 H   0  0  0  0  0  0  0  0  0  0  0  0
   -4.9312    2.4753   -4.7117 H   0  0  0  0  0  0  0  0  0  0  0  0
   -7.6139    0.4643   -8.3843 H   0  0  0  0  0  0  0  0  0  0  0  0
   -8.7754   -1.8534    0.1330 H   0  0  0  0  0  0  0  0  0  0  0  0
   -9.0398   -1.6750   -1.6363 H   0  0  0  0  0  0  0  0  0  0  0  0
   -8.9803   -4.1854   -1.8819 H   0  0  0  0  0  0  0  0  0  0  0  0
  -10.2829   -3.6398   -0.7596 H   0  0  0  0  0  0  0  0  0  0  0  0
   -8.7591   -4.3414   -0.0908 H   0  0  0  0  0  0  0  0  0  0  0  0
    4.5228    2.0503    6.2874 H   0  0  0  0  0  0  0  0  0  0  0  0
    2.7726    2.2863    6.5727 H   0  0  0  0  0  0  0  0  0  0  0  0
    2.7053    4.0429    4.7788 H   0  0  0  0  0  0  0  0  0  0  0  0
    3.8797    4.4480    6.0852 H   0  0  0  0  0  0  0  0  0  0  0  0
    4.4858    3.8179    4.5070 H   0  0  0  0  0  0  0  0  0  0  0  0
   -0.8894   -1.2464   -0.3110 H   0  0  0  0  0  0  0  0  0  0  0  0
   -2.4015   -1.0912   -1.2052 H   0  0  0  0  0  0  0  0  0  0  0  0
   -2.3221   -3.6331   -1.6723 H   0  0  0  0  0  0  0  0  0  0  0  0
   -0.9863   -2.6700   -2.3983 H   0  0  0  0  0  0  0  0  0  0  0  0
   -0.7010   -3.6636   -0.9335 H   0  0  0  0  0  0  0  0  0  0  0  0
    1.6005   -1.9381    0.9540 H   0  0  0  0  0  0  0  0  0  0  0  0
    0.0843   -2.8962    0.9405 H   0  0  0  0  0  0  0  0  0  0  0  0
    1.7460   -4.1045    2.2311 H   0  0  0  0  0  0  0  0  0  0  0  0
    0.3861   -3.5736    3.2958 H   0  0  0  0  0  0  0  0  0  0  0  0
    1.9750   -2.7108    3.3369 H   0  0  0  0  0  0  0  0  0  0  0  0
    6.0383    0.8780    4.9387 H   0  0  0  0  0  0  0  0  0  0  0  0
    6.6054    2.6470   -1.0072 H   0  0  0  0  0  0  0  0  0  0  0  0
    6.9896    3.7832   -4.9584 H   0  0  0  0  0  0  0  0  0  0  0  0
    8.1693    5.0326   -4.3993 H   0  0  0  0  0  0  0  0  0  0  0  0
    8.7541    3.4222   -4.9956 H   0  0  0  0  0  0  0  0  0  0  0  0
   10.8673    3.0109   -0.3274 H   0  0  0  0  0  0  0  0  0  0  0  0
   10.5995    2.0807    1.9033 H   0  0  0  0  0  0  0  0  0  0  0  0
  1  2  2  3
  2  3  1  0
  3  4  2  0
  3  5  1  0
  5  6  2  0
  6  7  1  0
  7  8  1  0
  7  9  2  0
  9 10  1  0
  9 11  1  0
 11 12  2  0
 12 13  1  0
 13 14  2  3
 14 15  1  0
 15 16  3  0
 14 17  1  0
 17 18  3  0
  1 19  1  0
 19 20  2  0
 20 21  1  0
 21 22  1  0
 20 23  1  0
 23 24  1  0
 24 25  1  0
 25 26  1  0
 26 27  1  0
 27 28  1  0
 28 29  2  0
 29 30  1  0
 30 31  1  0
 28 32  1  0
 32 33  1  0
 33 34  1  0
 34 35  1  0
 35 36  1  0
 36 37  1  0
 37 38  1  0
 36 39  2  0
 39 40  1  0
 40 41  1  0
 41 42  1  0
 42 43  1  0
 43 44  1  0
 44 45  1  0
 45 46  1  0
 46 47  1  0
 47 48  1  0
 48 49  1  0
 46 50  1  0
 50 51  1  0
 43 52  1  0
 52 53  1  0
 39 54  1  0
 54 55  2  3
 55 56  1  0
 56 57  2  0
 56 58  1  0
 58 59  2  0
 59 60  1  0
 60 61  1  0
 61 62  2  0
 61 63  1  0
 63 64  1  0
 60 65  2  0
 65 66  1  0
 66 67  2  0
 67 68  1  0
 68 69  2  3
 69 70  1  0
 70 71  3  0
 69 72  1  0
 72 73  3  0
 13  2  1  0
 49 19  1  0
 68 55  1  0
 12  5  1  0
 48 23  2  0
 67 58  1  0
 47 25  2  0
 45 26  2  0
 31 27  2  0
 44 32  2  0
 42 33  2  0
 41 35  2  0
  1 74  1  0
  6 75  1  0
 11 76  1  0
 21 77  1  0
 21 78  1  0
 22 79  1  0
 22 80  1  0
 22 81  1  0
 37 82  1  0
 37 83  1  0
 38 84  1  0
 38 85  1  0
 38 86  1  0
 50 87  1  0
 50 88  1  0
 51 89  1  0
 51 90  1  0
 51 91  1  0
 52 92  1  0
 52 93  1  0
 53 94  1  0
 53 95  1  0
 53 96  1  0
 54 97  1  0
 59 98  1  0
 64 99  1  0
 64100  1  0
 64101  1  0
 65102  1  0
 66103  1  0
M  END

