
     RDKit          3D

 98107  0  0  0  0  0  0  0  0999 V2000
   -0.7729    5.2402    5.4044 C   0  0  0  0  0  0  0  0  0  0  0  0
   -0.6035    6.4734    4.8881 C   0  0  0  0  0  0  0  0  0  0  0  0
   -0.9985    7.6900    5.5942 C   0  0  0  0  0  0  0  0  0  0  0  0
   -1.2234    7.7972    6.8301 O   0  0  0  0  0  0  0  0  0  0  0  0
   -1.1793    8.7390    4.6115 C   0  0  0  0  0  0  0  0  0  0  0  0
   -1.6598   10.0333    4.7990 C   0  0  0  0  0  0  0  0  0  0  0  0
   -1.8133   10.8565    3.6738 C   0  0  0  0  0  0  0  0  0  0  0  0
   -2.4194   12.4889    3.8798 Cl  0  0  0  0  0  0  0  0  0  0  0  0
   -1.5098   10.3652    2.3882 C   0  0  0  0  0  0  0  0  0  0  0  0
   -1.6741   11.1587    1.2983 F   0  0  0  0  0  0  0  0  0  0  0  0
   -1.0275    9.0561    2.2201 C   0  0  0  0  0  0  0  0  0  0  0  0
   -0.8409    8.2539    3.3558 C   0  0  0  0  0  0  0  0  0  0  0  0
   -0.3163    6.8698    3.4807 C   0  0  0  0  0  0  0  0  0  0  0  0
    0.6199    6.3025    2.6788 C   0  0  0  0  0  0  0  0  0  0  0  0
    1.5057    5.2728    3.1743 C   0  0  0  0  0  0  0  0  0  0  0  0
    2.2247    4.4633    3.5849 N   0  0  0  0  0  0  0  0  0  0  0  0
    0.9221    6.8107    1.3668 C   0  0  0  0  0  0  0  0  0  0  0  0
    1.1737    7.2123    0.3105 N   0  0  0  0  0  0  0  0  0  0  0  0
   -0.8613    4.0052    4.6056 C   0  0  0  0  0  0  0  0  0  0  0  0
   -1.5922    3.8571    3.0711 S   0  0  0  0  0  0  0  0  0  0  0  0
   -1.2399    2.2233    2.9644 C   0  0  0  0  0  0  0  0  0  0  0  0
   -1.1152    1.2860    1.8899 C   0  0  0  0  0  0  0  0  0  0  0  0
   -0.3285    0.2379    2.3448 C   0  0  0  0  0  0  0  0  0  0  0  0
    0.0976    0.4342    3.8033 C   0  0  0  0  0  0  0  0  0  0  0  0
    1.6419    0.5757    3.9539 C   0  0  0  0  0  0  0  0  0  0  0  0
    2.4510   -0.7012    3.7134 C   0  0  0  0  0  0  0  0  0  0  0  0
   -0.5527   -0.6621    4.6955 C   0  0  0  0  0  0  0  0  0  0  0  0
   -0.2599   -0.5285    6.1909 C   0  0  0  0  0  0  0  0  0  0  0  0
   -0.5504    1.7838    4.0486 C   0  0  0  0  0  0  0  0  0  0  0  0
   -0.3361    2.7733    5.0121 C   0  0  0  0  0  0  0  0  0  0  0  0
   -0.0499   -0.8412    1.5007 C   0  0  0  0  0  0  0  0  0  0  0  0
   -0.5139   -0.8058    0.1718 C   0  0  0  0  0  0  0  0  0  0  0  0
   -0.1722   -1.8373   -0.7156 C   0  0  0  0  0  0  0  0  0  0  0  0
   -0.6404   -1.7563   -2.0207 C   0  0  0  0  0  0  0  0  0  0  0  0
   -0.4358   -2.6566   -3.1080 C   0  0  0  0  0  0  0  0  0  0  0  0
   -1.0672   -2.2056   -4.2231 C   0  0  0  0  0  0  0  0  0  0  0  0
   -1.8132   -0.9087   -3.9575 C   0  0  0  0  0  0  0  0  0  0  0  0
   -1.4494   -0.7263   -2.4775 C   0  0  0  0  0  0  0  0  0  0  0  0
   -1.8289    0.2965   -1.5998 C   0  0  0  0  0  0  0  0  0  0  0  0
   -1.3300    0.2855   -0.2800 C   0  0  0  0  0  0  0  0  0  0  0  0
   -1.6313    1.3404    0.5987 C   0  0  0  0  0  0  0  0  0  0  0  0
   -3.3440   -1.1136   -4.1054 C   0  0  0  0  0  0  0  0  0  0  0  0
   -3.8123   -1.3528   -5.5425 C   0  0  0  0  0  0  0  0  0  0  0  0
   -1.2064    0.2152   -4.8495 C   0  0  0  0  0  0  0  0  0  0  0  0
   -1.8426    1.6010   -4.7092 C   0  0  0  0  0  0  0  0  0  0  0  0
   -0.6210   -2.8186   -5.4009 C   0  0  0  0  0  0  0  0  0  0  0  0
    0.4235   -3.7152   -5.1414 C   0  0  0  0  0  0  0  0  0  0  0  0
    0.7759   -3.7455   -3.4784 S   0  0  0  0  0  0  0  0  0  0  0  0
    1.1960   -4.4443   -6.1573 C   0  0  0  0  0  0  0  0  0  0  0  0
    2.5388   -4.4169   -6.1884 C   0  0  0  0  0  0  0  0  0  0  0  0
    3.3508   -5.5535   -6.6171 C   0  0  0  0  0  0  0  0  0  0  0  0
    2.9656   -6.5192   -7.3289 O   0  0  0  0  0  0  0  0  0  0  0  0
    4.6458   -5.4438   -5.9705 C   0  0  0  0  0  0  0  0  0  0  0  0
    5.6965   -6.3661   -5.9613 C   0  0  0  0  0  0  0  0  0  0  0  0
    6.8300   -6.0801   -5.1812 C   0  0  0  0  0  0  0  0  0  0  0  0
    8.1753   -7.2067   -5.1569 Cl  0  0  0  0  0  0  0  0  0  0  0  0
    6.8844   -4.8976   -4.4149 C   0  0  0  0  0  0  0  0  0  0  0  0
    7.9682   -4.6272   -3.6475 F   0  0  0  0  0  0  0  0  0  0  0  0
    5.8138   -3.9846   -4.4388 C   0  0  0  0  0  0  0  0  0  0  0  0
    4.7002   -4.2686   -5.2387 C   0  0  0  0  0  0  0  0  0  0  0  0
    3.4509   -3.4974   -5.4497 C   0  0  0  0  0  0  0  0  0  0  0  0
    3.3258   -2.1507   -5.3912 C   0  0  0  0  0  0  0  0  0  0  0  0
    2.2969   -1.4613   -6.1284 C   0  0  0  0  0  0  0  0  0  0  0  0
    1.4810   -0.9061   -6.7305 N   0  0  0  0  0  0  0  0  0  0  0  0
    4.2843   -1.3061   -4.7304 C   0  0  0  0  0  0  0  0  0  0  0  0
    5.0416   -0.6088   -4.1992 N   0  0  0  0  0  0  0  0  0  0  0  0
   -0.9594    5.1374    6.4707 H   0  0  0  0  0  0  0  0  0  0  0  0
   -1.9104   10.3923    5.7869 H   0  0  0  0  0  0  0  0  0  0  0  0
   -0.8551    8.6803    1.2257 H   0  0  0  0  0  0  0  0  0  0  0  0
    1.8795    0.9376    4.9797 H   0  0  0  0  0  0  0  0  0  0  0  0
    2.0137    1.3543    3.2503 H   0  0  0  0  0  0  0  0  0  0  0  0
    2.4883   -0.9507    2.6358 H   0  0  0  0  0  0  0  0  0  0  0  0
    3.4941   -0.5303    4.0470 H   0  0  0  0  0  0  0  0  0  0  0  0
    2.0546   -1.5603    4.2950 H   0  0  0  0  0  0  0  0  0  0  0  0
   -0.2228   -1.6682    4.3654 H   0  0  0  0  0  0  0  0  0  0  0  0
   -1.6578   -0.6395    4.5587 H   0  0  0  0  0  0  0  0  0  0  0  0
   -0.6416    0.4357    6.5799 H   0  0  0  0  0  0  0  0  0  0  0  0
    0.8281   -0.6126    6.3941 H   0  0  0  0  0  0  0  0  0  0  0  0
   -0.7766   -1.3468    6.7367 H   0  0  0  0  0  0  0  0  0  0  0  0
    0.2492    2.6379    5.9120 H   0  0  0  0  0  0  0  0  0  0  0  0
    0.5079   -1.6891    1.8674 H   0  0  0  0  0  0  0  0  0  0  0  0
    0.4334   -2.6774   -0.4000 H   0  0  0  0  0  0  0  0  0  0  0  0
   -2.4979    1.0780   -1.9330 H   0  0  0  0  0  0  0  0  0  0  0  0
   -2.2374    2.1819    0.2868 H   0  0  0  0  0  0  0  0  0  0  0  0
   -3.8809   -0.2308   -3.6988 H   0  0  0  0  0  0  0  0  0  0  0  0
   -3.6563   -1.9882   -3.4893 H   0  0  0  0  0  0  0  0  0  0  0  0
   -3.6211   -0.4636   -6.1756 H   0  0  0  0  0  0  0  0  0  0  0  0
   -4.9022   -1.5424   -5.5506 H   0  0  0  0  0  0  0  0  0  0  0  0
   -3.3042   -2.2395   -5.9770 H   0  0  0  0  0  0  0  0  0  0  0  0
   -0.1227    0.3198   -4.6245 H   0  0  0  0  0  0  0  0  0  0  0  0
   -1.2771   -0.0882   -5.9169 H   0  0  0  0  0  0  0  0  0  0  0  0
   -1.5923    2.0497   -3.7298 H   0  0  0  0  0  0  0  0  0  0  0  0
   -2.9400    1.5597   -4.8501 H   0  0  0  0  0  0  0  0  0  0  0  0
   -1.4272    2.2684   -5.4914 H   0  0  0  0  0  0  0  0  0  0  0  0
   -0.9345   -2.5321   -6.3942 H   0  0  0  0  0  0  0  0  0  0  0  0
    0.6624   -5.1881   -6.7362 H   0  0  0  0  0  0  0  0  0  0  0  0
    5.6365   -7.2722   -6.5497 H   0  0  0  0  0  0  0  0  0  0  0  0
    5.8598   -3.1082   -3.8135 H   0  0  0  0  0  0  0  0  0  0  0  0
  1  2  2  3
  2  3  1  0
  3  4  2  0
  3  5  1  0
  5  6  2  0
  6  7  1  0
  7  8  1  0
  7  9  2  0
  9 10  1  0
  9 11  1  0
 11 12  2  0
 12 13  1  0
 13 14  2  3
 14 15  1  0
 15 16  3  0
 14 17  1  0
 17 18  3  0
  1 19  1  0
 19 20  1  0
 20 21  1  0
 21 22  1  0
 22 23  2  0
 23 24  1  0
 24 25  1  0
 25 26  1  0
 24 27  1  0
 27 28  1  0
 24 29  1  0
 29 30  1  0
 23 31  1  0
 31 32  2  0
 32 33  1  0
 33 34  2  0
 34 35  1  0
 35 36  2  0
 36 37  1  0
 37 38  1  0
 38 39  2  0
 39 40  1  0
 40 41  2  0
 37 42  1  0
 42 43  1  0
 37 44  1  0
 44 45  1  0
 36 46  1  0
 46 47  2  0
 47 48  1  0
 47 49  1  0
 49 50  2  3
 50 51  1  0
 51 52  2  0
 51 53  1  0
 53 54  2  0
 54 55  1  0
 55 56  1  0
 55 57  2  0
 57 58  1  0
 57 59  1  0
 59 60  2  0
 60 61  1  0
 61 62  2  3
 62 63  1  0
 63 64  3  0
 62 65  1  0
 65 66  3  0
 13  2  1  0
 30 19  2  0
 40 32  1  0
 61 50  1  0
 12  5  1  0
 29 21  2  0
 38 34  1  0
 60 53  1  0
 41 22  1  0
 48 35  1  0
  1 67  1  0
  6 68  1  0
 11 69  1  0
 25 70  1  0
 25 71  1  0
 26 72  1  0
 26 73  1  0
 26 74  1  0
 27 75  1  0
 27 76  1  0
 28 77  1  0
 28 78  1  0
 28 79  1  0
 30 80  1  0
 31 81  1  0
 33 82  1  0
 39 83  1  0
 41 84  1  0
 42 85  1  0
 42 86  1  0
 43 87  1  0
 43 88  1  0
 43 89  1  0
 44 90  1  0
 44 91  1  0
 45 92  1  0
 45 93  1  0
 45 94  1  0
 46 95  1  0
 49 96  1  0
 54 97  1  0
 59 98  1  0
M  END

