
     RDKit          3D

 92102  0  0  0  0  0  0  0  0999 V2000
   -6.0807    1.1969   -1.1568 C   0  0  0  0  0  0  0  0  0  0  0  0
   -6.7685    1.5550   -2.2571 C   0  0  0  0  0  0  0  0  0  0  0  0
   -8.1943    1.8817   -2.2154 C   0  0  0  0  0  0  0  0  0  0  0  0
   -8.8483    2.2263   -1.1963 O   0  0  0  0  0  0  0  0  0  0  0  0
   -8.7540    1.6304   -3.5306 C   0  0  0  0  0  0  0  0  0  0  0  0
  -10.0909    1.6427   -3.9230 C   0  0  0  0  0  0  0  0  0  0  0  0
  -10.4081    1.2255   -5.2240 C   0  0  0  0  0  0  0  0  0  0  0  0
  -12.0793    1.2222   -5.7479 Cl  0  0  0  0  0  0  0  0  0  0  0  0
   -9.3919    0.7884   -6.0955 C   0  0  0  0  0  0  0  0  0  0  0  0
   -9.7038    0.3473   -7.3390 F   0  0  0  0  0  0  0  0  0  0  0  0
   -8.0502    0.7876   -5.6769 C   0  0  0  0  0  0  0  0  0  0  0  0
   -7.7397    1.2411   -4.3900 C   0  0  0  0  0  0  0  0  0  0  0  0
   -6.4302    1.3342   -3.6918 C   0  0  0  0  0  0  0  0  0  0  0  0
   -5.2281    1.5538   -4.2793 C   0  0  0  0  0  0  0  0  0  0  0  0
   -4.1161    2.1128   -3.5564 C   0  0  0  0  0  0  0  0  0  0  0  0
   -3.2150    2.5798   -3.0014 N   0  0  0  0  0  0  0  0  0  0  0  0
   -5.0342    1.4343   -5.7004 C   0  0  0  0  0  0  0  0  0  0  0  0
   -4.8694    1.3381   -6.8411 N   0  0  0  0  0  0  0  0  0  0  0  0
   -4.8279    0.4244   -1.1562 C   0  0  0  0  0  0  0  0  0  0  0  0
   -4.5758   -0.7980   -1.8194 C   0  0  0  0  0  0  0  0  0  0  0  0
   -5.6146   -1.6896   -2.4467 C   0  0  0  0  0  0  0  0  0  0  0  0
   -6.1337   -2.6978   -1.4309 C   0  0  0  0  0  0  0  0  0  0  0  0
   -3.2543   -1.2000   -1.6163 C   0  0  0  0  0  0  0  0  0  0  0  0
   -2.3771   -2.5884   -2.0780 S   0  0  0  0  0  0  0  0  0  0  0  0
   -1.0153   -2.0250   -1.2374 C   0  0  0  0  0  0  0  0  0  0  0  0
    0.1637   -2.5276   -0.7801 C   0  0  0  0  0  0  0  0  0  0  0  0
    0.7329   -3.7941   -0.9386 C   0  0  0  0  0  0  0  0  0  0  0  0
    1.9020   -4.1099   -0.1927 C   0  0  0  0  0  0  0  0  0  0  0  0
    2.4313   -5.3447   -0.3700 N   0  0  0  0  0  0  0  0  0  0  0  0
    1.3464   -5.9565   -1.4614 S   0  0  0  0  0  0  0  0  0  0  0  0
    0.2355   -4.7618   -1.7497 N   0  0  0  0  0  0  0  0  0  0  0  0
    2.4464   -3.1381    0.6538 C   0  0  0  0  0  0  0  0  0  0  0  0
    3.6599   -3.0985    1.2722 C   0  0  0  0  0  0  0  0  0  0  0  0
    5.0940   -4.0061    1.2148 S   0  0  0  0  0  0  0  0  0  0  0  0
    5.9842   -2.6874    1.8231 C   0  0  0  0  0  0  0  0  0  0  0  0
    7.3457   -2.4851    2.0632 C   0  0  0  0  0  0  0  0  0  0  0  0
    8.3898   -3.5510    1.8514 C   0  0  0  0  0  0  0  0  0  0  0  0
    9.1655   -3.3052    0.5614 C   0  0  0  0  0  0  0  0  0  0  0  0
    7.6041   -1.1533    2.4621 C   0  0  0  0  0  0  0  0  0  0  0  0
    6.1221   -0.3022    2.5271 S   0  0  0  0  0  0  0  0  0  0  0  0
    5.1871   -1.5912    2.0146 C   0  0  0  0  0  0  0  0  0  0  0  0
    3.8546   -1.8220    1.6891 C   0  0  0  0  0  0  0  0  0  0  0  0
    2.8155   -0.9993    1.3785 N   0  0  0  0  0  0  0  0  0  0  0  0
    1.8999   -1.8458    0.7879 C   0  0  0  0  0  0  0  0  0  0  0  0
    0.6759   -1.5625    0.1111 C   0  0  0  0  0  0  0  0  0  0  0  0
   -0.2284   -0.5358    0.2746 N   0  0  0  0  0  0  0  0  0  0  0  0
   -1.2256   -0.8512   -0.5949 C   0  0  0  0  0  0  0  0  0  0  0  0
   -2.5163   -0.3841   -0.7941 C   0  0  0  0  0  0  0  0  0  0  0  0
   -3.4586    0.8904   -0.2548 S   0  0  0  0  0  0  0  0  0  0  0  0
   -0.4039    0.3436    1.4321 C   0  0  0  0  0  0  0  0  0  0  0  0
   -0.2802    1.8156    1.0305 C   0  0  0  0  0  0  0  0  0  0  0  0
    2.9763    0.4472    1.1649 C   0  0  0  0  0  0  0  0  0  0  0  0
    3.2602    0.7546   -0.3036 C   0  0  0  0  0  0  0  0  0  0  0  0
    8.9429   -0.6510    2.8697 C   0  0  0  0  0  0  0  0  0  0  0  0
    9.3276    0.6258    3.0430 C   0  0  0  0  0  0  0  0  0  0  0  0
   10.8857    1.0103    3.8524 S   0  0  0  0  0  0  0  0  0  0  0  0
   10.1516    2.5665    4.3737 C   0  0  0  0  0  0  0  0  0  0  0  0
   10.4602    3.1507    5.8758 S   0  0  0  0  0  0  0  0  0  0  0  0
    8.9798    2.9343    3.6384 N   0  0  0  0  0  0  0  0  0  0  0  0
    8.1961    4.1564    3.8471 C   0  0  0  0  0  0  0  0  0  0  0  0
    7.0622    3.8966    4.8298 C   0  0  0  0  0  0  0  0  0  0  0  0
    8.5557    1.8516    2.8204 C   0  0  0  0  0  0  0  0  0  0  0  0
    7.7005    1.9967    1.9070 O   0  0  0  0  0  0  0  0  0  0  0  0
   -6.4895    1.4495   -0.1858 H   0  0  0  0  0  0  0  0  0  0  0  0
  -10.8675    1.9481   -3.2339 H   0  0  0  0  0  0  0  0  0  0  0  0
   -7.2992    0.3992   -6.3418 H   0  0  0  0  0  0  0  0  0  0  0  0
   -6.4754   -1.1054   -2.8216 H   0  0  0  0  0  0  0  0  0  0  0  0
   -5.1707   -2.2295   -3.3081 H   0  0  0  0  0  0  0  0  0  0  0  0
   -5.3058   -3.3427   -1.0727 H   0  0  0  0  0  0  0  0  0  0  0  0
   -6.9074   -3.3420   -1.9009 H   0  0  0  0  0  0  0  0  0  0  0  0
   -6.5907   -2.1703   -0.5678 H   0  0  0  0  0  0  0  0  0  0  0  0
    7.9044   -4.5499    1.7933 H   0  0  0  0  0  0  0  0  0  0  0  0
    9.0877   -3.5800    2.7132 H   0  0  0  0  0  0  0  0  0  0  0  0
    9.7472   -2.3634    0.6249 H   0  0  0  0  0  0  0  0  0  0  0  0
    9.8765   -4.1407    0.3859 H   0  0  0  0  0  0  0  0  0  0  0  0
    8.4692   -3.2472   -0.3019 H   0  0  0  0  0  0  0  0  0  0  0  0
    0.3210    0.0816    2.2296 H   0  0  0  0  0  0  0  0  0  0  0  0
   -1.4047    0.1734    1.8863 H   0  0  0  0  0  0  0  0  0  0  0  0
   -1.2419    2.2122    0.6594 H   0  0  0  0  0  0  0  0  0  0  0  0
    0.4747    1.9469    0.2263 H   0  0  0  0  0  0  0  0  0  0  0  0
    0.0171    2.4139    1.9186 H   0  0  0  0  0  0  0  0  0  0  0  0
    2.1122    1.0122    1.5158 H   0  0  0  0  0  0  0  0  0  0  0  0
    3.8032    0.8408    1.7827 H   0  0  0  0  0  0  0  0  0  0  0  0
    3.4948    1.8302   -0.4261 H   0  0  0  0  0  0  0  0  0  0  0  0
    2.3742    0.5207   -0.9290 H   0  0  0  0  0  0  0  0  0  0  0  0
    4.1273    0.1601   -0.6553 H   0  0  0  0  0  0  0  0  0  0  0  0
    9.6826   -1.4095    3.0991 H   0  0  0  0  0  0  0  0  0  0  0  0
    8.8503    4.9648    4.2338 H   0  0  0  0  0  0  0  0  0  0  0  0
    7.7768    4.5055    2.8772 H   0  0  0  0  0  0  0  0  0  0  0  0
    6.5000    4.8386    5.0058 H   0  0  0  0  0  0  0  0  0  0  0  0
    6.3659    3.1361    4.4171 H   0  0  0  0  0  0  0  0  0  0  0  0
    7.4642    3.5343    5.8001 H   0  0  0  0  0  0  0  0  0  0  0  0
  1  2  2  3
  2  3  1  0
  3  4  2  0
  3  5  1  0
  5  6  2  0
  6  7  1  0
  7  8  1  0
  7  9  2  0
  9 10  1  0
  9 11  1  0
 11 12  2  0
 12 13  1  0
 13 14  2  3
 14 15  1  0
 15 16  3  0
 14 17  1  0
 17 18  3  0
  1 19  1  0
 19 20  2  0
 20 21  1  0
 21 22  1  0
 20 23  1  0
 23 24  1  0
 24 25  1  0
 25 26  1  0
 26 27  1  0
 27 28  1  0
 28 29  2  0
 29 30  1  0
 30 31  1  0
 28 32  1  0
 32 33  1  0
 33 34  1  0
 34 35  1  0
 35 36  1  0
 36 37  1  0
 37 38  1  0
 36 39  2  0
 39 40  1  0
 40 41  1  0
 41 42  1  0
 42 43  1  0
 43 44  1  0
 44 45  1  0
 45 46  1  0
 46 47  1  0
 47 48  1  0
 48 49  1  0
 46 50  1  0
 50 51  1  0
 43 52  1  0
 52 53  1  0
 39 54  1  0
 54 55  2  3
 55 56  1  0
 56 57  1  0
 57 58  2  0
 57 59  1  0
 59 60  1  0
 60 61  1  0
 59 62  1  0
 62 63  2  0
 13  2  1  0
 49 19  1  0
 62 55  1  0
 12  5  1  0
 48 23  2  0
 47 25  2  0
 45 26  2  0
 31 27  2  0
 44 32  2  0
 42 33  2  0
 41 35  2  0
  1 64  1  0
  6 65  1  0
 11 66  1  0
 21 67  1  0
 21 68  1  0
 22 69  1  0
 22 70  1  0
 22 71  1  0
 37 72  1  0
 37 73  1  0
 38 74  1  0
 38 75  1  0
 38 76  1  0
 50 77  1  0
 50 78  1  0
 51 79  1  0
 51 80  1  0
 51 81  1  0
 52 82  1  0
 52 83  1  0
 53 84  1  0
 53 85  1  0
 53 86  1  0
 54 87  1  0
 60 88  1  0
 60 89  1  0
 61 90  1  0
 61 91  1  0
 61 92  1  0
M  END

