
     RDKit          3D

 97108  0  0  0  0  0  0  0  0999 V2000
   -3.9216    6.0894   -0.3573 C   0  0  0  0  0  0  0  0  0  0  0  0
   -5.0243    6.0802    0.4138 C   0  0  0  0  0  0  0  0  0  0  0  0
   -5.1838    5.3205    1.6594 C   0  0  0  0  0  0  0  0  0  0  0  0
   -4.4780    4.3501    2.0405 O   0  0  0  0  0  0  0  0  0  0  0  0
   -6.3002    5.8764    2.3910 C   0  0  0  0  0  0  0  0  0  0  0  0
   -6.7514    5.5360    3.6660 C   0  0  0  0  0  0  0  0  0  0  0  0
   -7.8074    6.2739    4.2201 C   0  0  0  0  0  0  0  0  0  0  0  0
   -8.3978    5.8698    5.8238 Cl  0  0  0  0  0  0  0  0  0  0  0  0
   -8.3684    7.3501    3.5055 C   0  0  0  0  0  0  0  0  0  0  0  0
   -9.3615    8.0898    4.0580 F   0  0  0  0  0  0  0  0  0  0  0  0
   -7.8964    7.6728    2.2219 C   0  0  0  0  0  0  0  0  0  0  0  0
   -6.8703    6.9002    1.6553 C   0  0  0  0  0  0  0  0  0  0  0  0
   -6.1907    7.0097    0.3317 C   0  0  0  0  0  0  0  0  0  0  0  0
   -6.6630    7.6376   -0.7776 C   0  0  0  0  0  0  0  0  0  0  0  0
   -6.0665    7.4634   -2.0758 C   0  0  0  0  0  0  0  0  0  0  0  0
   -5.6009    7.3261   -3.1265 N   0  0  0  0  0  0  0  0  0  0  0  0
   -7.8707    8.4203   -0.7743 C   0  0  0  0  0  0  0  0  0  0  0  0
   -8.8424    9.0493   -0.7841 N   0  0  0  0  0  0  0  0  0  0  0  0
   -2.7356    5.2826   -0.0496 C   0  0  0  0  0  0  0  0  0  0  0  0
   -1.7885    5.5699    0.9477 C   0  0  0  0  0  0  0  0  0  0  0  0
   -1.8045    6.7887    1.8293 C   0  0  0  0  0  0  0  0  0  0  0  0
   -1.1086    7.9510    1.1353 C   0  0  0  0  0  0  0  0  0  0  0  0
   -0.7712    4.6186    0.9442 C   0  0  0  0  0  0  0  0  0  0  0  0
    0.6479    4.4358    1.8699 S   0  0  0  0  0  0  0  0  0  0  0  0
    1.0330    3.0188    1.0184 C   0  0  0  0  0  0  0  0  0  0  0  0
    2.0636    2.1373    0.9131 C   0  0  0  0  0  0  0  0  0  0  0  0
    3.3021    2.1179    1.5551 C   0  0  0  0  0  0  0  0  0  0  0  0
    4.2530    1.1374    1.1685 C   0  0  0  0  0  0  0  0  0  0  0  0
    5.4415    1.1436    1.8184 N   0  0  0  0  0  0  0  0  0  0  0  0
    5.1977    2.4311    2.8319 S   0  0  0  0  0  0  0  0  0  0  0  0
    3.6715    2.9913    2.5237 N   0  0  0  0  0  0  0  0  0  0  0  0
    3.8974    0.2089    0.1854 C   0  0  0  0  0  0  0  0  0  0  0  0
    4.5362   -0.9240   -0.2131 C   0  0  0  0  0  0  0  0  0  0  0  0
    5.9372   -1.7892    0.1962 S   0  0  0  0  0  0  0  0  0  0  0  0
    5.3880   -3.1264   -0.7051 C   0  0  0  0  0  0  0  0  0  0  0  0
    5.9133   -4.4002   -0.9286 C   0  0  0  0  0  0  0  0  0  0  0  0
    7.2577   -4.8498   -0.4336 C   0  0  0  0  0  0  0  0  0  0  0  0
    8.3568   -4.3744   -1.3710 C   0  0  0  0  0  0  0  0  0  0  0  0
    5.0130   -5.1889   -1.6695 C   0  0  0  0  0  0  0  0  0  0  0  0
    3.6301   -4.2684   -2.0613 S   0  0  0  0  0  0  0  0  0  0  0  0
    4.1564   -2.8952   -1.2613 C   0  0  0  0  0  0  0  0  0  0  0  0
    3.6730   -1.6227   -0.9810 C   0  0  0  0  0  0  0  0  0  0  0  0
    2.4741   -0.9985   -1.1313 N   0  0  0  0  0  0  0  0  0  0  0  0
    2.6287    0.1863   -0.4357 C   0  0  0  0  0  0  0  0  0  0  0  0
    1.7113    1.2440   -0.1217 C   0  0  0  0  0  0  0  0  0  0  0  0
    0.5274    1.6502   -0.7077 N   0  0  0  0  0  0  0  0  0  0  0  0
    0.1425    2.7110    0.0501 C   0  0  0  0  0  0  0  0  0  0  0  0
   -0.8965    3.6332   -0.0052 C   0  0  0  0  0  0  0  0  0  0  0  0
   -2.2904    3.8811   -0.9060 S   0  0  0  0  0  0  0  0  0  0  0  0
   -0.0140    1.3695   -2.0443 C   0  0  0  0  0  0  0  0  0  0  0  0
    1.0382    1.5976   -3.1305 C   0  0  0  0  0  0  0  0  0  0  0  0
    1.2659   -1.6551   -1.6440 C   0  0  0  0  0  0  0  0  0  0  0  0
    0.2324   -1.8612   -0.5380 C   0  0  0  0  0  0  0  0  0  0  0  0
    5.2700   -6.5608   -2.1387 C   0  0  0  0  0  0  0  0  0  0  0  0
    4.3260   -7.5104   -2.2684 C   0  0  0  0  0  0  0  0  0  0  0  0
    4.4721   -8.6462   -3.1738 C   0  0  0  0  0  0  0  0  0  0  0  0
    5.5508   -9.0500   -3.6894 O   0  0  0  0  0  0  0  0  0  0  0  0
    3.1520   -9.1650   -3.4636 C   0  0  0  0  0  0  0  0  0  0  0  0
    2.7905  -10.1443   -4.3855 C   0  0  0  0  0  0  0  0  0  0  0  0
    1.4273  -10.4168   -4.5678 C   0  0  0  0  0  0  0  0  0  0  0  0
    0.4565   -9.6963   -3.8493 C   0  0  0  0  0  0  0  0  0  0  0  0
   -1.2493  -10.0149   -4.1160 Cl  0  0  0  0  0  0  0  0  0  0  0  0
    0.8432   -8.7066   -2.9292 C   0  0  0  0  0  0  0  0  0  0  0  0
    2.2097   -8.4645   -2.7284 C   0  0  0  0  0  0  0  0  0  0  0  0
    2.8980   -7.5002   -1.8292 C   0  0  0  0  0  0  0  0  0  0  0  0
    2.4412   -7.0850   -0.6205 C   0  0  0  0  0  0  0  0  0  0  0  0
    3.3307   -6.5921    0.3991 C   0  0  0  0  0  0  0  0  0  0  0  0
    4.0384   -6.1957    1.2268 N   0  0  0  0  0  0  0  0  0  0  0  0
    1.0758   -7.2646   -0.2075 C   0  0  0  0  0  0  0  0  0  0  0  0
   -0.0195   -7.4055    0.1375 N   0  0  0  0  0  0  0  0  0  0  0  0
   -3.8215    6.7792   -1.1777 H   0  0  0  0  0  0  0  0  0  0  0  0
   -6.2895    4.7308    4.2202 H   0  0  0  0  0  0  0  0  0  0  0  0
   -8.3099    8.5310    1.7216 H   0  0  0  0  0  0  0  0  0  0  0  0
   -2.8479    7.0743    2.0720 H   0  0  0  0  0  0  0  0  0  0  0  0
   -1.2903    6.5666    2.7866 H   0  0  0  0  0  0  0  0  0  0  0  0
   -0.0516    7.6925    0.9180 H   0  0  0  0  0  0  0  0  0  0  0  0
   -1.1320    8.8468    1.7927 H   0  0  0  0  0  0  0  0  0  0  0  0
   -1.6264    8.1941    0.1841 H   0  0  0  0  0  0  0  0  0  0  0  0
    7.2960   -5.9553   -0.3522 H   0  0  0  0  0  0  0  0  0  0  0  0
    7.4420   -4.4379    0.5819 H   0  0  0  0  0  0  0  0  0  0  0  0
    9.3388   -4.7542   -1.0217 H   0  0  0  0  0  0  0  0  0  0  0  0
    8.1777   -4.7390   -2.4029 H   0  0  0  0  0  0  0  0  0  0  0  0
    8.4004   -3.2683   -1.3877 H   0  0  0  0  0  0  0  0  0  0  0  0
   -0.4851    0.3773   -2.0805 H   0  0  0  0  0  0  0  0  0  0  0  0
   -0.8512    2.0526   -2.2707 H   0  0  0  0  0  0  0  0  0  0  0  0
    1.9073    0.9211   -3.0050 H   0  0  0  0  0  0  0  0  0  0  0  0
    1.3970    2.6491   -3.0903 H   0  0  0  0  0  0  0  0  0  0  0  0
    0.5874    1.4113   -4.1281 H   0  0  0  0  0  0  0  0  0  0  0  0
    0.8767   -1.1272   -2.5264 H   0  0  0  0  0  0  0  0  0  0  0  0
    1.5083   -2.6543   -2.0481 H   0  0  0  0  0  0  0  0  0  0  0  0
   -0.6906   -2.2959   -0.9711 H   0  0  0  0  0  0  0  0  0  0  0  0
   -0.0321   -0.9082   -0.0408 H   0  0  0  0  0  0  0  0  0  0  0  0
    0.6365   -2.5576    0.2252 H   0  0  0  0  0  0  0  0  0  0  0  0
    6.2689   -6.7625   -2.5090 H   0  0  0  0  0  0  0  0  0  0  0  0
    3.5385  -10.6776   -4.9581 H   0  0  0  0  0  0  0  0  0  0  0  0
    1.1197  -11.1695   -5.2812 H   0  0  0  0  0  0  0  0  0  0  0  0
    0.0859   -8.1350   -2.4187 H   0  0  0  0  0  0  0  0  0  0  0  0
  1  2  2  3
  2  3  1  0
  3  4  2  0
  3  5  1  0
  5  6  2  0
  6  7  1  0
  7  8  1  0
  7  9  2  0
  9 10  1  0
  9 11  1  0
 11 12  2  0
 12 13  1  0
 13 14  2  3
 14 15  1  0
 15 16  3  0
 14 17  1  0
 17 18  3  0
  1 19  1  0
 19 20  2  0
 20 21  1  0
 21 22  1  0
 20 23  1  0
 23 24  1  0
 24 25  1  0
 25 26  1  0
 26 27  1  0
 27 28  1  0
 28 29  2  0
 29 30  1  0
 30 31  1  0
 28 32  1  0
 32 33  1  0
 33 34  1  0
 34 35  1  0
 35 36  1  0
 36 37  1  0
 37 38  1  0
 36 39  2  0
 39 40  1  0
 40 41  1  0
 41 42  1  0
 42 43  1  0
 43 44  1  0
 44 45  1  0
 45 46  1  0
 46 47  1  0
 47 48  1  0
 48 49  1  0
 46 50  1  0
 50 51  1  0
 43 52  1  0
 52 53  1  0
 39 54  1  0
 54 55  2  3
 55 56  1  0
 56 57  2  0
 56 58  1  0
 58 59  2  0
 59 60  1  0
 60 61  2  0
 61 62  1  0
 61 63  1  0
 63 64  2  0
 64 65  1  0
 65 66  2  3
 66 67  1  0
 67 68  3  0
 66 69  1  0
 69 70  3  0
 13  2  1  0
 49 19  1  0
 65 55  1  0
 12  5  1  0
 48 23  2  0
 64 58  1  0
 47 25  2  0
 45 26  2  0
 31 27  2  0
 44 32  2  0
 42 33  2  0
 41 35  2  0
  1 71  1  0
  6 72  1  0
 11 73  1  0
 21 74  1  0
 21 75  1  0
 22 76  1  0
 22 77  1  0
 22 78  1  0
 37 79  1  0
 37 80  1  0
 38 81  1  0
 38 82  1  0
 38 83  1  0
 50 84  1  0
 50 85  1  0
 51 86  1  0
 51 87  1  0
 51 88  1  0
 52 89  1  0
 52 90  1  0
 53 91  1  0
 53 92  1  0
 53 93  1  0
 54 94  1  0
 59 95  1  0
 60 96  1  0
 63 97  1  0
M  END

