
     RDKit          3D

103115  0  0  0  0  0  0  0  0999 V2000
   -1.0592   -7.5177   -0.0066 C   0  0  0  0  0  0  0  0  0  0  0  0
   -0.6778   -8.1604   -1.1276 C   0  0  0  0  0  0  0  0  0  0  0  0
   -0.6970   -7.6075   -2.4866 C   0  0  0  0  0  0  0  0  0  0  0  0
   -1.3158   -6.5791   -2.8674 O   0  0  0  0  0  0  0  0  0  0  0  0
    0.0930   -8.4678   -3.3401 C   0  0  0  0  0  0  0  0  0  0  0  0
    0.4324   -8.2738   -4.6769 C   0  0  0  0  0  0  0  0  0  0  0  0
    1.2664   -9.2127   -5.2977 C   0  0  0  0  0  0  0  0  0  0  0  0
    1.7062   -8.9956   -6.9870 Cl  0  0  0  0  0  0  0  0  0  0  0  0
    1.7760  -10.2980   -4.5563 C   0  0  0  0  0  0  0  0  0  0  0  0
    2.6189  -11.1818   -5.1399 F   0  0  0  0  0  0  0  0  0  0  0  0
    1.4276  -10.4660   -3.2049 C   0  0  0  0  0  0  0  0  0  0  0  0
    0.5462   -9.5527   -2.6119 C   0  0  0  0  0  0  0  0  0  0  0  0
    0.0000   -9.4887   -1.2257 C   0  0  0  0  0  0  0  0  0  0  0  0
   -0.0882  -10.5175   -0.3421 C   0  0  0  0  0  0  0  0  0  0  0  0
    0.4845  -11.8144   -0.6010 C   0  0  0  0  0  0  0  0  0  0  0  0
    0.9329  -12.8645   -0.7923 N   0  0  0  0  0  0  0  0  0  0  0  0
   -0.8738  -10.4385    0.8644 C   0  0  0  0  0  0  0  0  0  0  0  0
   -1.5028  -10.3952    1.8363 N   0  0  0  0  0  0  0  0  0  0  0  0
   -1.6289   -6.1624   -0.0012 C   0  0  0  0  0  0  0  0  0  0  0  0
   -2.9161   -5.8232    0.4533 C   0  0  0  0  0  0  0  0  0  0  0  0
   -3.9473   -6.8088    0.9296 C   0  0  0  0  0  0  0  0  0  0  0  0
   -4.8005   -7.2939   -0.2390 C   0  0  0  0  0  0  0  0  0  0  0  0
   -3.1421   -4.4493    0.3310 C   0  0  0  0  0  0  0  0  0  0  0  0
   -4.4590   -3.4345    0.7157 S   0  0  0  0  0  0  0  0  0  0  0  0
   -3.6002   -2.0727    0.1688 C   0  0  0  0  0  0  0  0  0  0  0  0
   -3.6577   -0.7158    0.3077 C   0  0  0  0  0  0  0  0  0  0  0  0
   -4.5771    0.0963    0.9889 C   0  0  0  0  0  0  0  0  0  0  0  0
   -4.2360    1.4625    1.2332 C   0  0  0  0  0  0  0  0  0  0  0  0
   -5.1291    2.2071    1.9320 N   0  0  0  0  0  0  0  0  0  0  0  0
   -6.2913    1.0554    2.2020 S   0  0  0  0  0  0  0  0  0  0  0  0
   -5.7545   -0.3434    1.4937 N   0  0  0  0  0  0  0  0  0  0  0  0
   -3.0239    1.9494    0.7356 C   0  0  0  0  0  0  0  0  0  0  0  0
   -2.4214    3.1775    0.8091 C   0  0  0  0  0  0  0  0  0  0  0  0
   -2.5986    4.6861    1.5738 S   0  0  0  0  0  0  0  0  0  0  0  0
   -1.0904    5.2040    0.9558 C   0  0  0  0  0  0  0  0  0  0  0  0
   -0.2570    6.2917    1.2423 C   0  0  0  0  0  0  0  0  0  0  0  0
   -0.6419    7.3849    2.1980 C   0  0  0  0  0  0  0  0  0  0  0  0
   -0.2567    7.0157    3.6266 C   0  0  0  0  0  0  0  0  0  0  0  0
    1.0348    6.1087    0.6854 C   0  0  0  0  0  0  0  0  0  0  0  0
    1.0805    4.5930   -0.1030 S   0  0  0  0  0  0  0  0  0  0  0  0
   -0.5114    4.2279    0.1915 C   0  0  0  0  0  0  0  0  0  0  0  0
   -1.2667    3.0842    0.1138 C   0  0  0  0  0  0  0  0  0  0  0  0
   -1.0713    1.8716   -0.4547 N   0  0  0  0  0  0  0  0  0  0  0  0
   -2.1313    1.1418    0.0065 C   0  0  0  0  0  0  0  0  0  0  0  0
   -2.4081   -0.2411   -0.1277 C   0  0  0  0  0  0  0  0  0  0  0  0
   -1.5580   -1.2836   -0.4139 N   0  0  0  0  0  0  0  0  0  0  0  0
   -2.3473   -2.3757   -0.2567 C   0  0  0  0  0  0  0  0  0  0  0  0
   -2.0805   -3.7319   -0.1519 C   0  0  0  0  0  0  0  0  0  0  0  0
   -0.7866   -4.7512   -0.4584 S   0  0  0  0  0  0  0  0  0  0  0  0
   -0.0928   -1.3049   -0.2774 C   0  0  0  0  0  0  0  0  0  0  0  0
    0.5926   -1.7521   -1.5734 C   0  0  0  0  0  0  0  0  0  0  0  0
   -0.2689    1.6246   -1.6618 C   0  0  0  0  0  0  0  0  0  0  0  0
   -0.6205    2.6064   -2.7807 C   0  0  0  0  0  0  0  0  0  0  0  0
    2.2169    6.9526    1.0082 C   0  0  0  0  0  0  0  0  0  0  0  0
    3.4975    6.6749    0.7010 C   0  0  0  0  0  0  0  0  0  0  0  0
    4.5914    7.0202    1.6135 C   0  0  0  0  0  0  0  0  0  0  0  0
    4.5861    7.9845    2.4243 O   0  0  0  0  0  0  0  0  0  0  0  0
    5.6050    5.9705    1.5284 C   0  0  0  0  0  0  0  0  0  0  0  0
    5.2398    5.1031    0.5097 C   0  0  0  0  0  0  0  0  0  0  0  0
    5.9086    3.8866    0.3283 C   0  0  0  0  0  0  0  0  0  0  0  0
    6.9965    3.5751    1.1594 C   0  0  0  0  0  0  0  0  0  0  0  0
    7.4057    4.4674    2.1722 C   0  0  0  0  0  0  0  0  0  0  0  0
    8.4792    4.1324    3.0096 C   0  0  0  0  0  0  0  0  0  0  0  0
    8.8794    5.0065    4.0172 C   0  0  0  0  0  0  0  0  0  0  0  0
    8.2050    6.2138    4.2135 C   0  0  0  0  0  0  0  0  0  0  0  0
    7.1223    6.5571    3.3985 C   0  0  0  0  0  0  0  0  0  0  0  0
    6.7052    5.6916    2.3714 C   0  0  0  0  0  0  0  0  0  0  0  0
    4.0274    5.6029   -0.1705 C   0  0  0  0  0  0  0  0  0  0  0  0
    3.7664    5.4810   -1.4915 C   0  0  0  0  0  0  0  0  0  0  0  0
    4.4588    4.5336   -2.3296 C   0  0  0  0  0  0  0  0  0  0  0  0
    5.0102    3.7652   -3.0023 N   0  0  0  0  0  0  0  0  0  0  0  0
    2.8363    6.3669   -2.1461 C   0  0  0  0  0  0  0  0  0  0  0  0
    2.0900    7.0827   -2.6693 N   0  0  0  0  0  0  0  0  0  0  0  0
   -0.9305   -7.9609    0.9659 H   0  0  0  0  0  0  0  0  0  0  0  0
    0.0557   -7.4180   -5.2189 H   0  0  0  0  0  0  0  0  0  0  0  0
    1.8718  -11.2811   -2.6568 H   0  0  0  0  0  0  0  0  0  0  0  0
   -3.4545   -7.6848    1.4049 H   0  0  0  0  0  0  0  0  0  0  0  0
   -4.6012   -6.3400    1.6989 H   0  0  0  0  0  0  0  0  0  0  0  0
   -4.1627   -7.7387   -1.0322 H   0  0  0  0  0  0  0  0  0  0  0  0
   -5.3775   -6.4455   -0.6654 H   0  0  0  0  0  0  0  0  0  0  0  0
   -5.5136   -8.0703    0.1104 H   0  0  0  0  0  0  0  0  0  0  0  0
   -0.1537    8.3369    1.9073 H   0  0  0  0  0  0  0  0  0  0  0  0
   -1.7385    7.5522    2.1500 H   0  0  0  0  0  0  0  0  0  0  0  0
   -0.5708    7.8324    4.3095 H   0  0  0  0  0  0  0  0  0  0  0  0
   -0.7681    6.0748    3.9335 H   0  0  0  0  0  0  0  0  0  0  0  0
    0.8461    6.8809    3.7142 H   0  0  0  0  0  0  0  0  0  0  0  0
    0.2855   -0.3099    0.0347 H   0  0  0  0  0  0  0  0  0  0  0  0
    0.1909   -1.9885    0.5504 H   0  0  0  0  0  0  0  0  0  0  0  0
    1.4691   -1.1000   -1.7820 H   0  0  0  0  0  0  0  0  0  0  0  0
   -0.0984   -1.6903   -2.4357 H   0  0  0  0  0  0  0  0  0  0  0  0
    0.9537   -2.7941   -1.4821 H   0  0  0  0  0  0  0  0  0  0  0  0
    0.8120    1.6888   -1.4175 H   0  0  0  0  0  0  0  0  0  0  0  0
   -0.4900    0.6203   -2.0637 H   0  0  0  0  0  0  0  0  0  0  0  0
   -0.3526    3.6455   -2.5015 H   0  0  0  0  0  0  0  0  0  0  0  0
   -1.7090    2.5553   -3.0055 H   0  0  0  0  0  0  0  0  0  0  0  0
   -0.0593    2.3413   -3.6999 H   0  0  0  0  0  0  0  0  0  0  0  0
    2.0615    7.7516    1.7199 H   0  0  0  0  0  0  0  0  0  0  0  0
    5.5781    3.1634   -0.4005 H   0  0  0  0  0  0  0  0  0  0  0  0
    7.5038    2.6228    1.0202 H   0  0  0  0  0  0  0  0  0  0  0  0
    9.0142    3.1945    2.8756 H   0  0  0  0  0  0  0  0  0  0  0  0
    9.7116    4.7463    4.6527 H   0  0  0  0  0  0  0  0  0  0  0  0
    8.5247    6.8815    5.0026 H   0  0  0  0  0  0  0  0  0  0  0  0
    6.6281    7.4983    3.5746 H   0  0  0  0  0  0  0  0  0  0  0  0
  1  2  2  3
  2  3  1  0
  3  4  2  0
  3  5  1  0
  5  6  2  0
  6  7  1  0
  7  8  1  0
  7  9  2  0
  9 10  1  0
  9 11  1  0
 11 12  2  0
 12 13  1  0
 13 14  2  3
 14 15  1  0
 15 16  3  0
 14 17  1  0
 17 18  3  0
  1 19  1  0
 19 20  2  0
 20 21  1  0
 21 22  1  0
 20 23  1  0
 23 24  1  0
 24 25  1  0
 25 26  1  0
 26 27  1  0
 27 28  1  0
 28 29  2  0
 29 30  1  0
 30 31  1  0
 28 32  1  0
 32 33  1  0
 33 34  1  0
 34 35  1  0
 35 36  1  0
 36 37  1  0
 37 38  1  0
 36 39  2  0
 39 40  1  0
 40 41  1  0
 41 42  1  0
 42 43  1  0
 43 44  1  0
 44 45  1  0
 45 46  1  0
 46 47  1  0
 47 48  1  0
 48 49  1  0
 46 50  1  0
 50 51  1  0
 43 52  1  0
 52 53  1  0
 39 54  1  0
 54 55  2  3
 55 56  1  0
 56 57  2  0
 56 58  1  0
 58 59  2  0
 59 60  1  0
 60 61  2  0
 61 62  1  0
 62 63  2  0
 63 64  1  0
 64 65  2  0
 65 66  1  0
 66 67  2  0
 59 68  1  0
 68 69  2  3
 69 70  1  0
 70 71  3  0
 69 72  1  0
 72 73  3  0
 13  2  1  0
 49 19  1  0
 68 55  1  0
 12  5  1  0
 48 23  2  0
 67 58  1  0
 47 25  2  0
 67 62  1  0
 45 26  2  0
 31 27  2  0
 44 32  2  0
 42 33  2  0
 41 35  2  0
  1 74  1  0
  6 75  1  0
 11 76  1  0
 21 77  1  0
 21 78  1  0
 22 79  1  0
 22 80  1  0
 22 81  1  0
 37 82  1  0
 37 83  1  0
 38 84  1  0
 38 85  1  0
 38 86  1  0
 50 87  1  0
 50 88  1  0
 51 89  1  0
 51 90  1  0
 51 91  1  0
 52 92  1  0
 52 93  1  0
 53 94  1  0
 53 95  1  0
 53 96  1  0
 54 97  1  0
 60 98  1  0
 61 99  1  0
 63100  1  0
 64101  1  0
 65102  1  0
 66103  1  0
M  END

