
     RDKit          3D

 98109  0  0  0  0  0  0  0  0999 V2000
    0.1649   -7.1727   -1.3434 C   0  0  0  0  0  0  0  0  0  0  0  0
    0.3495   -7.6553   -0.0982 C   0  0  0  0  0  0  0  0  0  0  0  0
    0.6261   -6.8849    1.1200 C   0  0  0  0  0  0  0  0  0  0  0  0
    1.2368   -5.7837    1.1882 O   0  0  0  0  0  0  0  0  0  0  0  0
    0.2173   -7.6795    2.2607 C   0  0  0  0  0  0  0  0  0  0  0  0
    0.1118   -7.2897    3.5930 C   0  0  0  0  0  0  0  0  0  0  0  0
   -0.4238   -8.1992    4.5185 C   0  0  0  0  0  0  0  0  0  0  0  0
   -0.5846   -7.7220    6.1979 Cl  0  0  0  0  0  0  0  0  0  0  0  0
   -0.8833   -9.4609    4.0831 C   0  0  0  0  0  0  0  0  0  0  0  0
   -1.4374  -10.3263    4.9716 F   0  0  0  0  0  0  0  0  0  0  0  0
   -0.7692   -9.8303    2.7317 C   0  0  0  0  0  0  0  0  0  0  0  0
   -0.1888   -8.9297    1.8253 C   0  0  0  0  0  0  0  0  0  0  0  0
    0.0233   -9.0407    0.3571 C   0  0  0  0  0  0  0  0  0  0  0  0
    0.1591  -10.1887   -0.3584 C   0  0  0  0  0  0  0  0  0  0  0  0
    0.6386  -10.2018   -1.7161 C   0  0  0  0  0  0  0  0  0  0  0  0
    1.0332  -10.2244   -2.8037 N   0  0  0  0  0  0  0  0  0  0  0  0
    0.0184  -11.4889    0.2488 C   0  0  0  0  0  0  0  0  0  0  0  0
   -0.0827  -12.5362    0.7325 N   0  0  0  0  0  0  0  0  0  0  0  0
    0.1985   -5.7500   -1.7459 C   0  0  0  0  0  0  0  0  0  0  0  0
    0.4520   -5.3042   -3.0620 C   0  0  0  0  0  0  0  0  0  0  0  0
    0.9473   -6.1741   -4.1882 C   0  0  0  0  0  0  0  0  0  0  0  0
   -0.2088   -6.7259   -5.0181 C   0  0  0  0  0  0  0  0  0  0  0  0
    0.1671   -3.9432   -3.1964 C   0  0  0  0  0  0  0  0  0  0  0  0
    0.2364   -2.8563   -4.5099 S   0  0  0  0  0  0  0  0  0  0  0  0
   -0.3265   -1.5967   -3.5285 C   0  0  0  0  0  0  0  0  0  0  0  0
   -0.4249   -0.2412   -3.5776 C   0  0  0  0  0  0  0  0  0  0  0  0
   -0.1172    0.6336   -4.6213 C   0  0  0  0  0  0  0  0  0  0  0  0
   -0.0931    2.0276   -4.3561 C   0  0  0  0  0  0  0  0  0  0  0  0
    0.2536    2.8470   -5.3809 N   0  0  0  0  0  0  0  0  0  0  0  0
    0.5081    1.7123   -6.5642 S   0  0  0  0  0  0  0  0  0  0  0  0
    0.2060    0.2356   -5.8789 N   0  0  0  0  0  0  0  0  0  0  0  0
   -0.4097    2.4676   -3.0724 C   0  0  0  0  0  0  0  0  0  0  0  0
   -0.3885    3.7263   -2.5498 C   0  0  0  0  0  0  0  0  0  0  0  0
    0.1505    5.2787   -2.9905 S   0  0  0  0  0  0  0  0  0  0  0  0
   -0.0244    5.7998   -1.3722 C   0  0  0  0  0  0  0  0  0  0  0  0
    0.4475    6.9306   -0.7061 C   0  0  0  0  0  0  0  0  0  0  0  0
    1.0051    8.1393   -1.4034 C   0  0  0  0  0  0  0  0  0  0  0  0
   -0.0965    9.1612   -1.6818 C   0  0  0  0  0  0  0  0  0  0  0  0
    0.4091    6.7446    0.6859 C   0  0  0  0  0  0  0  0  0  0  0  0
   -0.2524    5.2115    1.0559 S   0  0  0  0  0  0  0  0  0  0  0  0
   -0.4706    4.7901   -0.5515 C   0  0  0  0  0  0  0  0  0  0  0  0
   -0.6950    3.6087   -1.2433 C   0  0  0  0  0  0  0  0  0  0  0  0
   -0.9727    2.3365   -0.8635 N   0  0  0  0  0  0  0  0  0  0  0  0
   -0.7369    1.5968   -2.0071 C   0  0  0  0  0  0  0  0  0  0  0  0
   -0.7015    0.1827   -2.2578 C   0  0  0  0  0  0  0  0  0  0  0  0
   -0.7205   -0.9138   -1.4129 N   0  0  0  0  0  0  0  0  0  0  0  0
   -0.5223   -1.9709   -2.2462 C   0  0  0  0  0  0  0  0  0  0  0  0
   -0.2631   -3.3237   -2.0551 C   0  0  0  0  0  0  0  0  0  0  0  0
   -0.3755   -4.4406   -0.8153 S   0  0  0  0  0  0  0  0  0  0  0  0
   -0.6020   -0.9973    0.0461 C   0  0  0  0  0  0  0  0  0  0  0  0
    0.7233   -0.4033    0.5258 C   0  0  0  0  0  0  0  0  0  0  0  0
   -1.7917    2.0452    0.3211 C   0  0  0  0  0  0  0  0  0  0  0  0
   -3.1618    1.4956   -0.0675 C   0  0  0  0  0  0  0  0  0  0  0  0
    0.9711    7.6823    1.6709 C   0  0  0  0  0  0  0  0  0  0  0  0
    1.7993    7.3406    2.6759 C   0  0  0  0  0  0  0  0  0  0  0  0
    1.9714    8.1780    3.8615 C   0  0  0  0  0  0  0  0  0  0  0  0
    1.6861    9.4008    3.9466 O   0  0  0  0  0  0  0  0  0  0  0  0
    2.4775    7.3457    4.9373 C   0  0  0  0  0  0  0  0  0  0  0  0
    2.7041    7.6863    6.2757 C   0  0  0  0  0  0  0  0  0  0  0  0
    2.4621    8.9803    6.7340 O   0  0  0  0  0  0  0  0  0  0  0  0
    3.1818    6.6891    7.1433 C   0  0  0  0  0  0  0  0  0  0  0  0
    3.3879    5.3783    6.6746 C   0  0  0  0  0  0  0  0  0  0  0  0
    3.1340    5.0547    5.3282 C   0  0  0  0  0  0  0  0  0  0  0  0
    2.6960    6.0622    4.4550 C   0  0  0  0  0  0  0  0  0  0  0  0
    2.4294    6.0197    2.9893 C   0  0  0  0  0  0  0  0  0  0  0  0
    3.0197    5.1729    2.1008 C   0  0  0  0  0  0  0  0  0  0  0  0
    3.6285    3.9282    2.4919 C   0  0  0  0  0  0  0  0  0  0  0  0
    4.1106    2.9133    2.7913 N   0  0  0  0  0  0  0  0  0  0  0  0
    3.1229    5.4786    0.6956 C   0  0  0  0  0  0  0  0  0  0  0  0
    3.1898    5.6912   -0.4373 N   0  0  0  0  0  0  0  0  0  0  0  0
   -0.1269   -7.8521   -2.1222 H   0  0  0  0  0  0  0  0  0  0  0  0
    0.4262   -6.3024    3.9044 H   0  0  0  0  0  0  0  0  0  0  0  0
   -1.1733  -10.7806    2.4186 H   0  0  0  0  0  0  0  0  0  0  0  0
    1.6213   -5.5824   -4.8404 H   0  0  0  0  0  0  0  0  0  0  0  0
    1.5518   -7.0164   -3.7864 H   0  0  0  0  0  0  0  0  0  0  0  0
    0.1959   -7.3826   -5.8198 H   0  0  0  0  0  0  0  0  0  0  0  0
   -0.8936   -7.3283   -4.3856 H   0  0  0  0  0  0  0  0  0  0  0  0
   -0.7687   -5.8888   -5.4837 H   0  0  0  0  0  0  0  0  0  0  0  0
    1.7902    8.6183   -0.7799 H   0  0  0  0  0  0  0  0  0  0  0  0
    1.4792    7.8320   -2.3641 H   0  0  0  0  0  0  0  0  0  0  0  0
   -0.9275    8.6887   -2.2444 H   0  0  0  0  0  0  0  0  0  0  0  0
    0.3248   10.0028   -2.2751 H   0  0  0  0  0  0  0  0  0  0  0  0
   -0.4978    9.5706   -0.7246 H   0  0  0  0  0  0  0  0  0  0  0  0
   -1.4881   -0.5800    0.5519 H   0  0  0  0  0  0  0  0  0  0  0  0
   -0.6232   -2.0514    0.3718 H   0  0  0  0  0  0  0  0  0  0  0  0
    0.8577    0.6300    0.1399 H   0  0  0  0  0  0  0  0  0  0  0  0
    0.7371   -0.3734    1.6398 H   0  0  0  0  0  0  0  0  0  0  0  0
    1.5763   -1.0261    0.1691 H   0  0  0  0  0  0  0  0  0  0  0  0
   -1.2460    1.4206    1.0521 H   0  0  0  0  0  0  0  0  0  0  0  0
   -1.9907    2.9862    0.8813 H   0  0  0  0  0  0  0  0  0  0  0  0
   -3.6977    2.2296   -0.7084 H   0  0  0  0  0  0  0  0  0  0  0  0
   -3.7580    1.3012    0.8453 H   0  0  0  0  0  0  0  0  0  0  0  0
   -3.0693    0.5451   -0.6249 H   0  0  0  0  0  0  0  0  0  0  0  0
    0.6247    8.7060    1.6116 H   0  0  0  0  0  0  0  0  0  0  0  0
    2.6356    9.2336    7.7013 H   0  0  0  0  0  0  0  0  0  0  0  0
    3.3808    6.9239    8.1780 H   0  0  0  0  0  0  0  0  0  0  0  0
    3.7451    4.6143    7.3459 H   0  0  0  0  0  0  0  0  0  0  0  0
    3.2673    4.0335    5.0109 H   0  0  0  0  0  0  0  0  0  0  0  0
  1  2  2  3
  2  3  1  0
  3  4  2  0
  3  5  1  0
  5  6  2  0
  6  7  1  0
  7  8  1  0
  7  9  2  0
  9 10  1  0
  9 11  1  0
 11 12  2  0
 12 13  1  0
 13 14  2  3
 14 15  1  0
 15 16  3  0
 14 17  1  0
 17 18  3  0
  1 19  1  0
 19 20  2  0
 20 21  1  0
 21 22  1  0
 20 23  1  0
 23 24  1  0
 24 25  1  0
 25 26  1  0
 26 27  1  0
 27 28  1  0
 28 29  2  0
 29 30  1  0
 30 31  1  0
 28 32  1  0
 32 33  1  0
 33 34  1  0
 34 35  1  0
 35 36  1  0
 36 37  1  0
 37 38  1  0
 36 39  2  0
 39 40  1  0
 40 41  1  0
 41 42  1  0
 42 43  1  0
 43 44  1  0
 44 45  1  0
 45 46  1  0
 46 47  1  0
 47 48  1  0
 48 49  1  0
 46 50  1  0
 50 51  1  0
 43 52  1  0
 52 53  1  0
 39 54  1  0
 54 55  2  3
 55 56  1  0
 56 57  2  0
 56 58  1  0
 58 59  2  0
 59 60  1  0
 59 61  1  0
 61 62  2  0
 62 63  1  0
 63 64  2  0
 64 65  1  0
 65 66  2  3
 66 67  1  0
 67 68  3  0
 66 69  1  0
 69 70  3  0
 13  2  1  0
 49 19  1  0
 65 55  1  0
 12  5  1  0
 48 23  2  0
 64 58  1  0
 47 25  2  0
 45 26  2  0
 31 27  2  0
 44 32  2  0
 42 33  2  0
 41 35  2  0
  1 71  1  0
  6 72  1  0
 11 73  1  0
 21 74  1  0
 21 75  1  0
 22 76  1  0
 22 77  1  0
 22 78  1  0
 37 79  1  0
 37 80  1  0
 38 81  1  0
 38 82  1  0
 38 83  1  0
 50 84  1  0
 50 85  1  0
 51 86  1  0
 51 87  1  0
 51 88  1  0
 52 89  1  0
 52 90  1  0
 53 91  1  0
 53 92  1  0
 53 93  1  0
 54 94  1  0
 60 95  1  0
 61 96  1  0
 62 97  1  0
 63 98  1  0
M  END

