
     RDKit          3D

 97108  0  0  0  0  0  0  0  0999 V2000
    1.8379   -5.7697   -2.0055 C   0  0  0  0  0  0  0  0  0  0  0  0
    3.1532   -5.4806   -1.9938 C   0  0  0  0  0  0  0  0  0  0  0  0
    4.1311   -6.3194   -2.6891 C   0  0  0  0  0  0  0  0  0  0  0  0
    3.8738   -7.1832   -3.5702 O   0  0  0  0  0  0  0  0  0  0  0  0
    5.4445   -6.0407   -2.1571 C   0  0  0  0  0  0  0  0  0  0  0  0
    6.6555   -6.6394   -2.4996 C   0  0  0  0  0  0  0  0  0  0  0  0
    7.8257   -6.1943   -1.8671 C   0  0  0  0  0  0  0  0  0  0  0  0
    9.3716   -6.9093   -2.2848 Cl  0  0  0  0  0  0  0  0  0  0  0  0
    7.7587   -5.1753   -0.8932 C   0  0  0  0  0  0  0  0  0  0  0  0
    8.8934   -4.7282   -0.2951 F   0  0  0  0  0  0  0  0  0  0  0  0
    6.5266   -4.5872   -0.5650 C   0  0  0  0  0  0  0  0  0  0  0  0
    5.3557   -5.0390   -1.2051 C   0  0  0  0  0  0  0  0  0  0  0  0
    3.9421   -4.5575   -1.1170 C   0  0  0  0  0  0  0  0  0  0  0  0
    3.5407   -3.3707   -0.6022 C   0  0  0  0  0  0  0  0  0  0  0  0
    2.3730   -2.6742   -1.0674 C   0  0  0  0  0  0  0  0  0  0  0  0
    1.4420   -2.0848   -1.4245 N   0  0  0  0  0  0  0  0  0  0  0  0
    4.2757   -2.7015    0.4460 C   0  0  0  0  0  0  0  0  0  0  0  0
    4.8570   -2.1677    1.3005 N   0  0  0  0  0  0  0  0  0  0  0  0
    0.8088   -5.2230   -1.1066 C   0  0  0  0  0  0  0  0  0  0  0  0
    0.7910   -5.2340    0.3087 C   0  0  0  0  0  0  0  0  0  0  0  0
    1.8173   -5.8522    1.2139 C   0  0  0  0  0  0  0  0  0  0  0  0
    1.3694   -7.2368    1.6654 C   0  0  0  0  0  0  0  0  0  0  0  0
   -0.3771   -4.6356    0.7852 C   0  0  0  0  0  0  0  0  0  0  0  0
   -0.8274   -4.0592    2.3207 S   0  0  0  0  0  0  0  0  0  0  0  0
   -2.1802   -3.2668    1.6753 C   0  0  0  0  0  0  0  0  0  0  0  0
   -2.8109   -2.0912    1.9845 C   0  0  0  0  0  0  0  0  0  0  0  0
   -2.9799   -1.4213    3.1954 C   0  0  0  0  0  0  0  0  0  0  0  0
   -3.5561   -0.1172    3.1820 C   0  0  0  0  0  0  0  0  0  0  0  0
   -3.6749    0.5069    4.3805 N   0  0  0  0  0  0  0  0  0  0  0  0
   -3.0637   -0.6653    5.3768 S   0  0  0  0  0  0  0  0  0  0  0  0
   -2.6274   -1.9284    4.3985 N   0  0  0  0  0  0  0  0  0  0  0  0
   -3.8316    0.4912    1.9469 C   0  0  0  0  0  0  0  0  0  0  0  0
   -3.8930    1.8283    1.6644 C   0  0  0  0  0  0  0  0  0  0  0  0
   -3.5268    3.1998    2.5982 S   0  0  0  0  0  0  0  0  0  0  0  0
   -2.9284    4.0336    1.2498 C   0  0  0  0  0  0  0  0  0  0  0  0
   -2.1682    5.1990    1.1358 C   0  0  0  0  0  0  0  0  0  0  0  0
   -1.8316    6.0940    2.2901 C   0  0  0  0  0  0  0  0  0  0  0  0
   -0.5908    5.5948    3.0196 C   0  0  0  0  0  0  0  0  0  0  0  0
   -1.5797    5.2869   -0.1363 C   0  0  0  0  0  0  0  0  0  0  0  0
   -2.0428    3.9486   -1.0797 S   0  0  0  0  0  0  0  0  0  0  0  0
   -2.9696    3.2425    0.1281 C   0  0  0  0  0  0  0  0  0  0  0  0
   -3.5133    1.9745    0.3591 C   0  0  0  0  0  0  0  0  0  0  0  0
   -3.2639    0.7804   -0.2465 N   0  0  0  0  0  0  0  0  0  0  0  0
   -3.5391   -0.1490    0.7296 C   0  0  0  0  0  0  0  0  0  0  0  0
   -3.1711   -1.5183    0.7612 C   0  0  0  0  0  0  0  0  0  0  0  0
   -2.8893   -2.3580   -0.2757 N   0  0  0  0  0  0  0  0  0  0  0  0
   -2.2517   -3.3963    0.3176 C   0  0  0  0  0  0  0  0  0  0  0  0
   -1.2390   -4.1968   -0.1804 C   0  0  0  0  0  0  0  0  0  0  0  0
   -0.6132   -4.5045   -1.6997 S   0  0  0  0  0  0  0  0  0  0  0  0
   -3.6444   -2.4621   -1.5350 C   0  0  0  0  0  0  0  0  0  0  0  0
   -4.5867   -3.6661   -1.5180 C   0  0  0  0  0  0  0  0  0  0  0  0
   -2.3266    0.6278   -1.3704 C   0  0  0  0  0  0  0  0  0  0  0  0
   -0.8852    0.5668   -0.8636 C   0  0  0  0  0  0  0  0  0  0  0  0
   -0.6275    6.3254   -0.5609 C   0  0  0  0  0  0  0  0  0  0  0  0
    0.6693    6.0797   -0.8416 C   0  0  0  0  0  0  0  0  0  0  0  0
    1.3245    4.7552   -0.7912 C   0  0  0  0  0  0  0  0  0  0  0  0
    0.8621    3.6979   -0.2891 O   0  0  0  0  0  0  0  0  0  0  0  0
    2.6327    4.8876   -1.3797 C   0  0  0  0  0  0  0  0  0  0  0  0
    2.8579    6.1949   -1.7339 C   0  0  0  0  0  0  0  0  0  0  0  0
    4.1182    6.4296   -2.2803 C   0  0  0  0  0  0  0  0  0  0  0  0
    4.9147    4.9346   -2.2915 S   0  0  0  0  0  0  0  0  0  0  0  0
    3.6691    4.0062   -1.6288 C   0  0  0  0  0  0  0  0  0  0  0  0
    3.7451    2.5674   -1.2417 C   0  0  0  0  0  0  0  0  0  0  0  0
    1.6988    7.0444   -1.3695 C   0  0  0  0  0  0  0  0  0  0  0  0
    1.6665    8.4007   -1.3907 C   0  0  0  0  0  0  0  0  0  0  0  0
    0.5768    9.1661   -0.8446 C   0  0  0  0  0  0  0  0  0  0  0  0
   -0.2936    9.7968   -0.4145 N   0  0  0  0  0  0  0  0  0  0  0  0
    2.7579    9.1879   -1.9109 C   0  0  0  0  0  0  0  0  0  0  0  0
    3.6201    9.8435   -2.3157 N   0  0  0  0  0  0  0  0  0  0  0  0
    1.4779   -6.4864   -2.7299 H   0  0  0  0  0  0  0  0  0  0  0  0
    6.6938   -7.4154   -3.2577 H   0  0  0  0  0  0  0  0  0  0  0  0
    6.5179   -3.8058    0.1766 H   0  0  0  0  0  0  0  0  0  0  0  0
    1.9495   -5.2032    2.1117 H   0  0  0  0  0  0  0  0  0  0  0  0
    2.8005   -5.9482    0.7190 H   0  0  0  0  0  0  0  0  0  0  0  0
    1.2964   -7.9274    0.7959 H   0  0  0  0  0  0  0  0  0  0  0  0
    0.3795   -7.1808    2.1692 H   0  0  0  0  0  0  0  0  0  0  0  0
    2.1097   -7.6542    2.3769 H   0  0  0  0  0  0  0  0  0  0  0  0
   -2.6838    6.1284    2.9965 H   0  0  0  0  0  0  0  0  0  0  0  0
   -1.6504    7.1255    1.9244 H   0  0  0  0  0  0  0  0  0  0  0  0
   -0.3580    6.2874    3.8554 H   0  0  0  0  0  0  0  0  0  0  0  0
    0.2774    5.5604    2.3307 H   0  0  0  0  0  0  0  0  0  0  0  0
   -0.7603    4.5772    3.4255 H   0  0  0  0  0  0  0  0  0  0  0  0
   -2.9486   -2.5579   -2.3940 H   0  0  0  0  0  0  0  0  0  0  0  0
   -4.2762   -1.5618   -1.6780 H   0  0  0  0  0  0  0  0  0  0  0  0
   -4.0104   -4.6075   -1.6802 H   0  0  0  0  0  0  0  0  0  0  0  0
   -5.3350   -3.5675   -2.3277 H   0  0  0  0  0  0  0  0  0  0  0  0
   -5.1329   -3.7259   -0.5435 H   0  0  0  0  0  0  0  0  0  0  0  0
   -2.4495    1.4602   -2.0894 H   0  0  0  0  0  0  0  0  0  0  0  0
   -2.5296   -0.2631   -1.9758 H   0  0  0  0  0  0  0  0  0  0  0  0
   -0.6633    1.4287   -0.2026 H   0  0  0  0  0  0  0  0  0  0  0  0
   -0.7159   -0.3692   -0.2893 H   0  0  0  0  0  0  0  0  0  0  0  0
   -0.1834    0.5944   -1.7205 H   0  0  0  0  0  0  0  0  0  0  0  0
   -1.0445    7.3116   -0.6425 H   0  0  0  0  0  0  0  0  0  0  0  0
    4.5266    7.3637   -2.6363 H   0  0  0  0  0  0  0  0  0  0  0  0
    3.9538    2.4872   -0.1584 H   0  0  0  0  0  0  0  0  0  0  0  0
    4.5554    2.0604   -1.8048 H   0  0  0  0  0  0  0  0  0  0  0  0
    2.7816    2.0636   -1.4564 H   0  0  0  0  0  0  0  0  0  0  0  0
  1  2  2  3
  2  3  1  0
  3  4  2  0
  3  5  1  0
  5  6  2  0
  6  7  1  0
  7  8  1  0
  7  9  2  0
  9 10  1  0
  9 11  1  0
 11 12  2  0
 12 13  1  0
 13 14  2  3
 14 15  1  0
 15 16  3  0
 14 17  1  0
 17 18  3  0
  1 19  1  0
 19 20  2  0
 20 21  1  0
 21 22  1  0
 20 23  1  0
 23 24  1  0
 24 25  1  0
 25 26  1  0
 26 27  1  0
 27 28  1  0
 28 29  2  0
 29 30  1  0
 30 31  1  0
 28 32  1  0
 32 33  1  0
 33 34  1  0
 34 35  1  0
 35 36  1  0
 36 37  1  0
 37 38  1  0
 36 39  2  0
 39 40  1  0
 40 41  1  0
 41 42  1  0
 42 43  1  0
 43 44  1  0
 44 45  1  0
 45 46  1  0
 46 47  1  0
 47 48  1  0
 48 49  1  0
 46 50  1  0
 50 51  1  0
 43 52  1  0
 52 53  1  0
 39 54  1  0
 54 55  2  3
 55 56  1  0
 56 57  2  0
 56 58  1  0
 58 59  1  0
 59 60  2  0
 60 61  1  0
 61 62  1  0
 62 63  1  0
 59 64  1  0
 64 65  2  3
 65 66  1  0
 66 67  3  0
 65 68  1  0
 68 69  3  0
 13  2  1  0
 49 19  1  0
 64 55  1  0
 12  5  1  0
 48 23  2  0
 62 58  2  0
 47 25  2  0
 45 26  2  0
 31 27  2  0
 44 32  2  0
 42 33  2  0
 41 35  2  0
  1 70  1  0
  6 71  1  0
 11 72  1  0
 21 73  1  0
 21 74  1  0
 22 75  1  0
 22 76  1  0
 22 77  1  0
 37 78  1  0
 37 79  1  0
 38 80  1  0
 38 81  1  0
 38 82  1  0
 50 83  1  0
 50 84  1  0
 51 85  1  0
 51 86  1  0
 51 87  1  0
 52 88  1  0
 52 89  1  0
 53 90  1  0
 53 91  1  0
 53 92  1  0
 54 93  1  0
 60 94  1  0
 63 95  1  0
 63 96  1  0
 63 97  1  0
M  END

