
     RDKit          3D

 93104  0  0  0  0  0  0  0  0999 V2000
    1.5424   -7.4317   -1.3499 C   0  0  0  0  0  0  0  0  0  0  0  0
    1.9505   -8.3203   -0.4238 C   0  0  0  0  0  0  0  0  0  0  0  0
    2.5304   -9.6114   -0.7941 C   0  0  0  0  0  0  0  0  0  0  0  0
    3.0009   -9.9205   -1.9226 O   0  0  0  0  0  0  0  0  0  0  0  0
    2.4134  -10.5036    0.3381 C   0  0  0  0  0  0  0  0  0  0  0  0
    2.7763  -11.8507    0.4193 C   0  0  0  0  0  0  0  0  0  0  0  0
    2.5654  -12.5269    1.6303 C   0  0  0  0  0  0  0  0  0  0  0  0
    3.0168  -14.2250    1.7692 Cl  0  0  0  0  0  0  0  0  0  0  0  0
    1.9868  -11.8552    2.7235 C   0  0  0  0  0  0  0  0  0  0  0  0
    1.7802  -12.5094    3.8939 F   0  0  0  0  0  0  0  0  0  0  0  0
    1.6230  -10.5032    2.6179 C   0  0  0  0  0  0  0  0  0  0  0  0
    1.8501   -9.8252    1.4071 C   0  0  0  0  0  0  0  0  0  0  0  0
    1.6443   -8.3959    1.0371 C   0  0  0  0  0  0  0  0  0  0  0  0
    1.5331   -7.3544    1.8995 C   0  0  0  0  0  0  0  0  0  0  0  0
    1.9526   -6.0261    1.5487 C   0  0  0  0  0  0  0  0  0  0  0  0
    2.3069   -4.9569    1.2931 N   0  0  0  0  0  0  0  0  0  0  0  0
    1.1443   -7.5151    3.2752 C   0  0  0  0  0  0  0  0  0  0  0  0
    0.8242   -7.6266    4.3809 N   0  0  0  0  0  0  0  0  0  0  0  0
    0.6237   -6.3050   -1.1226 C   0  0  0  0  0  0  0  0  0  0  0  0
   -0.6769   -6.3487   -0.5729 C   0  0  0  0  0  0  0  0  0  0  0  0
   -1.4537   -7.5922   -0.2209 C   0  0  0  0  0  0  0  0  0  0  0  0
   -2.2322   -8.0978   -1.4296 C   0  0  0  0  0  0  0  0  0  0  0  0
   -1.2367   -5.0684   -0.5408 C   0  0  0  0  0  0  0  0  0  0  0  0
   -2.6464   -4.4452    0.1731 S   0  0  0  0  0  0  0  0  0  0  0  0
   -2.1967   -2.8611   -0.2482 C   0  0  0  0  0  0  0  0  0  0  0  0
   -2.4172   -1.6312    0.3011 C   0  0  0  0  0  0  0  0  0  0  0  0
   -3.2883   -1.2540    1.3326 C   0  0  0  0  0  0  0  0  0  0  0  0
   -3.1180    0.0203    1.9439 C   0  0  0  0  0  0  0  0  0  0  0  0
   -3.9827    0.3521    2.9365 N   0  0  0  0  0  0  0  0  0  0  0  0
   -4.8989   -1.0258    2.9786 S   0  0  0  0  0  0  0  0  0  0  0  0
   -4.2857   -2.0354    1.8168 N   0  0  0  0  0  0  0  0  0  0  0  0
   -2.0916    0.8519    1.4818 C   0  0  0  0  0  0  0  0  0  0  0  0
   -1.8286    2.1637    1.7408 C   0  0  0  0  0  0  0  0  0  0  0  0
   -2.5767    3.4359    2.5758 S   0  0  0  0  0  0  0  0  0  0  0  0
   -1.6484    4.5725    1.7078 C   0  0  0  0  0  0  0  0  0  0  0  0
   -1.6248    5.9656    1.6981 C   0  0  0  0  0  0  0  0  0  0  0  0
   -2.4700    6.8298    2.5959 C   0  0  0  0  0  0  0  0  0  0  0  0
   -3.6465    7.4275    1.8294 C   0  0  0  0  0  0  0  0  0  0  0  0
   -0.7771    6.4487    0.6787 C   0  0  0  0  0  0  0  0  0  0  0  0
   -0.0443    5.1299   -0.1271 S   0  0  0  0  0  0  0  0  0  0  0  0
   -0.8350    3.9679    0.7847 C   0  0  0  0  0  0  0  0  0  0  0  0
   -0.9259    2.5817    0.8186 C   0  0  0  0  0  0  0  0  0  0  0  0
   -0.5543    1.5960   -0.0381 N   0  0  0  0  0  0  0  0  0  0  0  0
   -1.2438    0.4961    0.4170 C   0  0  0  0  0  0  0  0  0  0  0  0
   -1.3526   -0.8167   -0.1252 C   0  0  0  0  0  0  0  0  0  0  0  0
   -0.4382   -1.5597   -0.8348 N   0  0  0  0  0  0  0  0  0  0  0  0
   -1.0007   -2.7977   -0.8897 C   0  0  0  0  0  0  0  0  0  0  0  0
   -0.4507   -4.0671   -1.0506 C   0  0  0  0  0  0  0  0  0  0  0  0
    1.0030   -4.7063   -1.5818 S   0  0  0  0  0  0  0  0  0  0  0  0
    1.0023   -1.3185   -0.9664 C   0  0  0  0  0  0  0  0  0  0  0  0
    1.4551   -1.3988   -2.4276 C   0  0  0  0  0  0  0  0  0  0  0  0
   -0.0439    1.8307   -1.3938 C   0  0  0  0  0  0  0  0  0  0  0  0
    1.4480    2.1884   -1.3848 C   0  0  0  0  0  0  0  0  0  0  0  0
   -0.4207    7.8668    0.4965 C   0  0  0  0  0  0  0  0  0  0  0  0
   -0.2453    8.4812   -0.6827 C   0  0  0  0  0  0  0  0  0  0  0  0
   -0.4504    7.9828   -2.0564 C   0  0  0  0  0  0  0  0  0  0  0  0
   -0.8532    6.8408   -2.3941 O   0  0  0  0  0  0  0  0  0  0  0  0
   -0.1651    9.0781   -2.9820 C   0  0  0  0  0  0  0  0  0  0  0  0
   -0.2145    9.0942   -4.3781 C   0  0  0  0  0  0  0  0  0  0  0  0
    0.0983   10.2927   -5.0414 C   0  0  0  0  0  0  0  0  0  0  0  0
    0.4497   11.4454   -4.3082 C   0  0  0  0  0  0  0  0  0  0  0  0
    0.4886   11.4081   -2.9014 C   0  0  0  0  0  0  0  0  0  0  0  0
    0.1812   10.2064   -2.2632 C   0  0  0  0  0  0  0  0  0  0  0  0
    0.1321    9.8961   -0.8396 C   0  0  0  0  0  0  0  0  0  0  0  0
    0.3251   10.7200    0.0930 O   0  0  0  0  0  0  0  0  0  0  0  0
    1.8849   -7.5594   -2.3684 H   0  0  0  0  0  0  0  0  0  0  0  0
    3.2139  -12.3656   -0.4293 H   0  0  0  0  0  0  0  0  0  0  0  0
    1.1726  -10.0305    3.4718 H   0  0  0  0  0  0  0  0  0  0  0  0
   -2.1678   -7.3717    0.6013 H   0  0  0  0  0  0  0  0  0  0  0  0
   -0.7894   -8.4010    0.1316 H   0  0  0  0  0  0  0  0  0  0  0  0
   -1.5384   -8.3563   -2.2594 H   0  0  0  0  0  0  0  0  0  0  0  0
   -2.8109   -9.0012   -1.1572 H   0  0  0  0  0  0  0  0  0  0  0  0
   -2.9431   -7.3257   -1.7791 H   0  0  0  0  0  0  0  0  0  0  0  0
   -1.8497    7.6449    3.0245 H   0  0  0  0  0  0  0  0  0  0  0  0
   -2.8626    6.2306    3.4465 H   0  0  0  0  0  0  0  0  0  0  0  0
   -3.2856    8.0804    1.0065 H   0  0  0  0  0  0  0  0  0  0  0  0
   -4.2775    6.6162    1.4062 H   0  0  0  0  0  0  0  0  0  0  0  0
   -4.2673    8.0356    2.5217 H   0  0  0  0  0  0  0  0  0  0  0  0
    1.5512   -2.0796   -0.3686 H   0  0  0  0  0  0  0  0  0  0  0  0
    1.2875   -0.3491   -0.5232 H   0  0  0  0  0  0  0  0  0  0  0  0
    1.1679   -0.4914   -2.9841 H   0  0  0  0  0  0  0  0  0  0  0  0
    2.5576   -1.4957   -2.4680 H   0  0  0  0  0  0  0  0  0  0  0  0
    0.9941   -2.2671   -2.9401 H   0  0  0  0  0  0  0  0  0  0  0  0
   -0.2284    0.9445   -2.0244 H   0  0  0  0  0  0  0  0  0  0  0  0
   -0.6194    2.6564   -1.8647 H   0  0  0  0  0  0  0  0  0  0  0  0
    1.5871    3.2874   -1.4305 H   0  0  0  0  0  0  0  0  0  0  0  0
    1.9552    1.8144   -0.4691 H   0  0  0  0  0  0  0  0  0  0  0  0
    1.9443    1.7517   -2.2807 H   0  0  0  0  0  0  0  0  0  0  0  0
   -0.2992    8.4560    1.3957 H   0  0  0  0  0  0  0  0  0  0  0  0
   -0.4910    8.2095   -4.9372 H   0  0  0  0  0  0  0  0  0  0  0  0
    0.0669   10.3309   -6.1209 H   0  0  0  0  0  0  0  0  0  0  0  0
    0.6932   12.3649   -4.8296 H   0  0  0  0  0  0  0  0  0  0  0  0
    0.7594   12.2879   -2.3340 H   0  0  0  0  0  0  0  0  0  0  0  0
  1  2  2  3
  2  3  1  0
  3  4  2  0
  3  5  1  0
  5  6  2  0
  6  7  1  0
  7  8  1  0
  7  9  2  0
  9 10  1  0
  9 11  1  0
 11 12  2  0
 12 13  1  0
 13 14  2  3
 14 15  1  0
 15 16  3  0
 14 17  1  0
 17 18  3  0
  1 19  1  0
 19 20  2  0
 20 21  1  0
 21 22  1  0
 20 23  1  0
 23 24  1  0
 24 25  1  0
 25 26  1  0
 26 27  1  0
 27 28  1  0
 28 29  2  0
 29 30  1  0
 30 31  1  0
 28 32  1  0
 32 33  1  0
 33 34  1  0
 34 35  1  0
 35 36  1  0
 36 37  1  0
 37 38  1  0
 36 39  2  0
 39 40  1  0
 40 41  1  0
 41 42  1  0
 42 43  1  0
 43 44  1  0
 44 45  1  0
 45 46  1  0
 46 47  1  0
 47 48  1  0
 48 49  1  0
 46 50  1  0
 50 51  1  0
 43 52  1  0
 52 53  1  0
 39 54  1  0
 54 55  2  3
 55 56  1  0
 56 57  2  0
 56 58  1  0
 58 59  2  0
 59 60  1  0
 60 61  2  0
 61 62  1  0
 62 63  2  0
 63 64  1  0
 64 65  2  0
 13  2  1  0
 49 19  1  0
 64 55  1  0
 12  5  1  0
 48 23  2  0
 63 58  1  0
 47 25  2  0
 45 26  2  0
 31 27  2  0
 44 32  2  0
 42 33  2  0
 41 35  2  0
  1 66  1  0
  6 67  1  0
 11 68  1  0
 21 69  1  0
 21 70  1  0
 22 71  1  0
 22 72  1  0
 22 73  1  0
 37 74  1  0
 37 75  1  0
 38 76  1  0
 38 77  1  0
 38 78  1  0
 50 79  1  0
 50 80  1  0
 51 81  1  0
 51 82  1  0
 51 83  1  0
 52 84  1  0
 52 85  1  0
 53 86  1  0
 53 87  1  0
 53 88  1  0
 54 89  1  0
 59 90  1  0
 60 91  1  0
 61 92  1  0
 62 93  1  0
M  END

