
     RDKit          3D

 96106  0  0  0  0  0  0  0  0999 V2000
   -2.1978    1.2073    5.7108 C   0  0  0  0  0  0  0  0  0  0  0  0
   -3.1112    1.4436    6.6684 C   0  0  0  0  0  0  0  0  0  0  0  0
   -2.9105    1.0339    8.0577 C   0  0  0  0  0  0  0  0  0  0  0  0
   -1.7979    0.8461    8.6225 O   0  0  0  0  0  0  0  0  0  0  0  0
   -4.2125    0.8131    8.6579 C   0  0  0  0  0  0  0  0  0  0  0  0
   -4.5057    0.2258    9.8858 C   0  0  0  0  0  0  0  0  0  0  0  0
   -5.8468   -0.0543   10.1844 C   0  0  0  0  0  0  0  0  0  0  0  0
   -6.2441   -0.8431   11.7022 Cl  0  0  0  0  0  0  0  0  0  0  0  0
   -6.8618    0.2347    9.2452 C   0  0  0  0  0  0  0  0  0  0  0  0
   -8.1538   -0.0999    9.5096 F   0  0  0  0  0  0  0  0  0  0  0  0
   -6.5400    0.8214    8.0147 C   0  0  0  0  0  0  0  0  0  0  0  0
   -5.1984    1.1431    7.7451 C   0  0  0  0  0  0  0  0  0  0  0  0
   -4.5686    1.7128    6.5244 C   0  0  0  0  0  0  0  0  0  0  0  0
   -5.1423    2.5952    5.6733 C   0  0  0  0  0  0  0  0  0  0  0  0
   -6.5580    2.8468    5.6775 C   0  0  0  0  0  0  0  0  0  0  0  0
   -7.7015    3.0321    5.6625 N   0  0  0  0  0  0  0  0  0  0  0  0
   -4.3573    3.4394    4.8061 C   0  0  0  0  0  0  0  0  0  0  0  0
   -3.7272    4.1259    4.1200 N   0  0  0  0  0  0  0  0  0  0  0  0
   -2.4792    1.1378    4.2636 C   0  0  0  0  0  0  0  0  0  0  0  0
   -3.5331    0.4621    3.6103 C   0  0  0  0  0  0  0  0  0  0  0  0
   -4.3918   -0.6154    4.2239 C   0  0  0  0  0  0  0  0  0  0  0  0
   -3.7589   -1.9884    4.0155 C   0  0  0  0  0  0  0  0  0  0  0  0
   -3.4577    0.6557    2.2278 C   0  0  0  0  0  0  0  0  0  0  0  0
   -4.3228   -0.0324    0.9363 S   0  0  0  0  0  0  0  0  0  0  0  0
   -3.2679    0.6695   -0.1896 C   0  0  0  0  0  0  0  0  0  0  0  0
   -2.8341    0.2719   -1.4196 C   0  0  0  0  0  0  0  0  0  0  0  0
   -3.3061   -0.7675   -2.2371 C   0  0  0  0  0  0  0  0  0  0  0  0
   -2.4702   -1.2645   -3.2777 C   0  0  0  0  0  0  0  0  0  0  0  0
   -2.9482   -2.2983   -4.0184 N   0  0  0  0  0  0  0  0  0  0  0  0
   -4.4216   -2.4974   -3.2871 S   0  0  0  0  0  0  0  0  0  0  0  0
   -4.5095   -1.3634   -2.0775 N   0  0  0  0  0  0  0  0  0  0  0  0
   -1.2160   -0.6841   -3.4542 C   0  0  0  0  0  0  0  0  0  0  0  0
   -0.2133   -0.9354   -4.3393 C   0  0  0  0  0  0  0  0  0  0  0  0
    0.1874   -2.0195   -5.5785 S   0  0  0  0  0  0  0  0  0  0  0  0
    1.6840   -1.2271   -5.8124 C   0  0  0  0  0  0  0  0  0  0  0  0
    2.8248   -1.5488   -6.5481 C   0  0  0  0  0  0  0  0  0  0  0  0
    2.9425   -2.7723   -7.4171 C   0  0  0  0  0  0  0  0  0  0  0  0
    3.2986   -4.0004   -6.5865 C   0  0  0  0  0  0  0  0  0  0  0  0
    3.8915   -0.6815   -6.2188 C   0  0  0  0  0  0  0  0  0  0  0  0
    3.3732    0.4756   -5.0661 S   0  0  0  0  0  0  0  0  0  0  0  0
    1.8216   -0.1486   -4.9754 C   0  0  0  0  0  0  0  0  0  0  0  0
    0.7418    0.0034   -4.1281 C   0  0  0  0  0  0  0  0  0  0  0  0
    0.4302    0.8795   -3.1463 N   0  0  0  0  0  0  0  0  0  0  0  0
   -0.7633    0.3898   -2.6740 C   0  0  0  0  0  0  0  0  0  0  0  0
   -1.5491    0.8232   -1.5717 C   0  0  0  0  0  0  0  0  0  0  0  0
   -1.1469    1.4552   -0.4173 N   0  0  0  0  0  0  0  0  0  0  0  0
   -2.2354    1.3504    0.3958 C   0  0  0  0  0  0  0  0  0  0  0  0
   -2.3638    1.3530    1.7841 C   0  0  0  0  0  0  0  0  0  0  0  0
   -1.4311    1.8005    3.0985 S   0  0  0  0  0  0  0  0  0  0  0  0
    0.2297    1.5932    0.0647 C   0  0  0  0  0  0  0  0  0  0  0  0
    0.5584    3.0308    0.4652 C   0  0  0  0  0  0  0  0  0  0  0  0
    0.8303    2.2846   -3.1845 C   0  0  0  0  0  0  0  0  0  0  0  0
    0.1731    2.9960   -4.3546 C   0  0  0  0  0  0  0  0  0  0  0  0
    5.2791   -0.8493   -6.6999 C   0  0  0  0  0  0  0  0  0  0  0  0
    6.3581   -0.8329   -5.9004 C   0  0  0  0  0  0  0  0  0  0  0  0
    6.4070   -0.5016   -4.2552 S   0  0  0  0  0  0  0  0  0  0  0  0
    8.0760   -0.7384   -4.0846 C   0  0  0  0  0  0  0  0  0  0  0  0
    8.7248   -0.5405   -2.9088 C   0  0  0  0  0  0  0  0  0  0  0  0
    8.0008   -0.1009   -1.7333 C   0  0  0  0  0  0  0  0  0  0  0  0
    7.4222    0.2548   -0.7906 N   0  0  0  0  0  0  0  0  0  0  0  0
   10.1416   -0.6743   -2.7219 C   0  0  0  0  0  0  0  0  0  0  0  0
   11.2799   -0.7753   -2.5444 N   0  0  0  0  0  0  0  0  0  0  0  0
    8.6054   -1.1354   -5.2926 N   0  0  0  0  0  0  0  0  0  0  0  0
    9.9965   -1.5260   -5.5759 C   0  0  0  0  0  0  0  0  0  0  0  0
   10.8385   -0.3109   -5.9562 C   0  0  0  0  0  0  0  0  0  0  0  0
    7.6547   -1.1559   -6.2835 C   0  0  0  0  0  0  0  0  0  0  0  0
    7.9402   -1.4738   -7.4716 O   0  0  0  0  0  0  0  0  0  0  0  0
   -1.1770    1.0077    6.0074 H   0  0  0  0  0  0  0  0  0  0  0  0
   -3.7136   -0.0443   10.5752 H   0  0  0  0  0  0  0  0  0  0  0  0
   -7.3270    0.9607    7.2901 H   0  0  0  0  0  0  0  0  0  0  0  0
   -4.5214   -0.4745    5.3098 H   0  0  0  0  0  0  0  0  0  0  0  0
   -5.3969   -0.5953    3.7550 H   0  0  0  0  0  0  0  0  0  0  0  0
   -2.7519   -2.0068    4.4756 H   0  0  0  0  0  0  0  0  0  0  0  0
   -3.6695   -2.2160    2.9347 H   0  0  0  0  0  0  0  0  0  0  0  0
   -4.3938   -2.7722    4.4849 H   0  0  0  0  0  0  0  0  0  0  0  0
    3.7126   -2.6159   -8.2031 H   0  0  0  0  0  0  0  0  0  0  0  0
    1.9758   -2.9481   -7.9261 H   0  0  0  0  0  0  0  0  0  0  0  0
    2.4438   -4.2818   -5.9310 H   0  0  0  0  0  0  0  0  0  0  0  0
    3.5147   -4.8544   -7.2586 H   0  0  0  0  0  0  0  0  0  0  0  0
    4.1969   -3.8006   -5.9678 H   0  0  0  0  0  0  0  0  0  0  0  0
    0.3935    0.9140    0.9289 H   0  0  0  0  0  0  0  0  0  0  0  0
    0.9572    1.2515   -0.6921 H   0  0  0  0  0  0  0  0  0  0  0  0
    1.6589    3.1148    0.5859 H   0  0  0  0  0  0  0  0  0  0  0  0
    0.2179    3.7592   -0.2938 H   0  0  0  0  0  0  0  0  0  0  0  0
    0.0820    3.2993    1.4228 H   0  0  0  0  0  0  0  0  0  0  0  0
    1.9379    2.3694   -3.2549 H   0  0  0  0  0  0  0  0  0  0  0  0
    0.5011    2.8057   -2.2737 H   0  0  0  0  0  0  0  0  0  0  0  0
    0.4323    4.0704   -4.3480 H   0  0  0  0  0  0  0  0  0  0  0  0
    0.5150    2.5586   -5.3199 H   0  0  0  0  0  0  0  0  0  0  0  0
   -0.9320    2.9095   -4.2776 H   0  0  0  0  0  0  0  0  0  0  0  0
    5.4166   -1.1277   -7.7392 H   0  0  0  0  0  0  0  0  0  0  0  0
   10.0243   -2.2430   -6.4246 H   0  0  0  0  0  0  0  0  0  0  0  0
   10.4430   -2.0920   -4.7362 H   0  0  0  0  0  0  0  0  0  0  0  0
   10.3809    0.1892   -6.8379 H   0  0  0  0  0  0  0  0  0  0  0  0
   10.8950    0.4187   -5.1218 H   0  0  0  0  0  0  0  0  0  0  0  0
   11.8613   -0.6408   -6.2256 H   0  0  0  0  0  0  0  0  0  0  0  0
  1  2  2  3
  2  3  1  0
  3  4  2  0
  3  5  1  0
  5  6  2  0
  6  7  1  0
  7  8  1  0
  7  9  2  0
  9 10  1  0
  9 11  1  0
 11 12  2  0
 12 13  1  0
 13 14  2  3
 14 15  1  0
 15 16  3  0
 14 17  1  0
 17 18  3  0
  1 19  1  0
 19 20  2  0
 20 21  1  0
 21 22  1  0
 20 23  1  0
 23 24  1  0
 24 25  1  0
 25 26  1  0
 26 27  1  0
 27 28  1  0
 28 29  2  0
 29 30  1  0
 30 31  1  0
 28 32  1  0
 32 33  1  0
 33 34  1  0
 34 35  1  0
 35 36  1  0
 36 37  1  0
 37 38  1  0
 36 39  2  0
 39 40  1  0
 40 41  1  0
 41 42  1  0
 42 43  1  0
 43 44  1  0
 44 45  1  0
 45 46  1  0
 46 47  1  0
 47 48  1  0
 48 49  1  0
 46 50  1  0
 50 51  1  0
 43 52  1  0
 52 53  1  0
 39 54  1  0
 54 55  2  3
 55 56  1  0
 56 57  1  0
 57 58  2  3
 58 59  1  0
 59 60  3  0
 58 61  1  0
 61 62  3  0
 57 63  1  0
 63 64  1  0
 64 65  1  0
 63 66  1  0
 66 67  2  0
 13  2  1  0
 49 19  1  0
 66 55  1  0
 12  5  1  0
 48 23  2  0
 47 25  2  0
 45 26  2  0
 31 27  2  0
 44 32  2  0
 42 33  2  0
 41 35  2  0
  1 68  1  0
  6 69  1  0
 11 70  1  0
 21 71  1  0
 21 72  1  0
 22 73  1  0
 22 74  1  0
 22 75  1  0
 37 76  1  0
 37 77  1  0
 38 78  1  0
 38 79  1  0
 38 80  1  0
 50 81  1  0
 50 82  1  0
 51 83  1  0
 51 84  1  0
 51 85  1  0
 52 86  1  0
 52 87  1  0
 53 88  1  0
 53 89  1  0
 53 90  1  0
 54 91  1  0
 64 92  1  0
 64 93  1  0
 65 94  1  0
 65 95  1  0
 65 96  1  0
M  END

