
     RDKit          3D

100111  0  0  0  0  0  0  0  0999 V2000
    6.8250    3.5146   -3.6552 C   0  0  0  0  0  0  0  0  0  0  0  0
    6.7133    4.6998   -3.0166 C   0  0  0  0  0  0  0  0  0  0  0  0
    5.5460    5.1349   -2.2343 C   0  0  0  0  0  0  0  0  0  0  0  0
    4.3749    4.6584   -2.3043 O   0  0  0  0  0  0  0  0  0  0  0  0
    5.9248    6.2783   -1.4404 C   0  0  0  0  0  0  0  0  0  0  0  0
    5.1529    6.9541   -0.4978 C   0  0  0  0  0  0  0  0  0  0  0  0
    5.7264    8.0387    0.1802 C   0  0  0  0  0  0  0  0  0  0  0  0
    4.7881    8.9002    1.3843 Cl  0  0  0  0  0  0  0  0  0  0  0  0
    7.0483    8.4259   -0.1001 C   0  0  0  0  0  0  0  0  0  0  0  0
    7.5990    9.4670    0.5708 F   0  0  0  0  0  0  0  0  0  0  0  0
    7.8083    7.7321   -1.0574 C   0  0  0  0  0  0  0  0  0  0  0  0
    7.2271    6.6429   -1.7348 C   0  0  0  0  0  0  0  0  0  0  0  0
    7.7774    5.7344   -2.7906 C   0  0  0  0  0  0  0  0  0  0  0  0
    8.9583    5.8766   -3.4566 C   0  0  0  0  0  0  0  0  0  0  0  0
    9.2945    5.1000   -4.6221 C   0  0  0  0  0  0  0  0  0  0  0  0
    9.5852    4.4866   -5.5605 N   0  0  0  0  0  0  0  0  0  0  0  0
    9.9503    6.8632   -3.1042 C   0  0  0  0  0  0  0  0  0  0  0  0
   10.7548    7.6588   -2.8496 N   0  0  0  0  0  0  0  0  0  0  0  0
    5.7920    2.4703   -3.5771 C   0  0  0  0  0  0  0  0  0  0  0  0
    5.1594    1.8564   -4.6794 C   0  0  0  0  0  0  0  0  0  0  0  0
    5.4795    2.2020   -6.1164 C   0  0  0  0  0  0  0  0  0  0  0  0
    4.2672    2.1501   -7.0467 C   0  0  0  0  0  0  0  0  0  0  0  0
    4.2592    0.8754   -4.2329 C   0  0  0  0  0  0  0  0  0  0  0  0
    3.1344   -0.1734   -4.9881 S   0  0  0  0  0  0  0  0  0  0  0  0
    2.5575   -0.7105   -3.4852 C   0  0  0  0  0  0  0  0  0  0  0  0
    1.6656   -1.5968   -2.9436 C   0  0  0  0  0  0  0  0  0  0  0  0
    0.8296   -2.5700   -3.5025 C   0  0  0  0  0  0  0  0  0  0  0  0
    0.0942   -3.4264   -2.6261 C   0  0  0  0  0  0  0  0  0  0  0  0
   -0.7005   -4.3586   -3.2005 N   0  0  0  0  0  0  0  0  0  0  0  0
   -0.3890   -4.0385   -4.7963 S   0  0  0  0  0  0  0  0  0  0  0  0
    0.6771   -2.7699   -4.8322 N   0  0  0  0  0  0  0  0  0  0  0  0
    0.1897   -3.2164   -1.2478 C   0  0  0  0  0  0  0  0  0  0  0  0
   -0.5303   -3.7130   -0.1973 C   0  0  0  0  0  0  0  0  0  0  0  0
   -1.8431   -4.7591    0.0917 S   0  0  0  0  0  0  0  0  0  0  0  0
   -1.9897   -4.1747    1.6908 C   0  0  0  0  0  0  0  0  0  0  0  0
   -2.8448   -4.4729    2.7556 C   0  0  0  0  0  0  0  0  0  0  0  0
   -3.8200   -5.6164    2.7601 C   0  0  0  0  0  0  0  0  0  0  0  0
   -3.1317   -6.9012    3.2153 C   0  0  0  0  0  0  0  0  0  0  0  0
   -2.5385   -3.6704    3.8746 C   0  0  0  0  0  0  0  0  0  0  0  0
   -1.2193   -2.6477    3.5249 S   0  0  0  0  0  0  0  0  0  0  0  0
   -1.0635   -3.2011    1.9540 C   0  0  0  0  0  0  0  0  0  0  0  0
   -0.2280   -2.9492    0.8815 C   0  0  0  0  0  0  0  0  0  0  0  0
    0.6298   -1.9378    0.5976 N   0  0  0  0  0  0  0  0  0  0  0  0
    0.9628   -2.1801   -0.7065 C   0  0  0  0  0  0  0  0  0  0  0  0
    1.8002   -1.4395   -1.5601 C   0  0  0  0  0  0  0  0  0  0  0  0
    2.8384   -0.6073   -1.2454 N   0  0  0  0  0  0  0  0  0  0  0  0
    3.2282   -0.1486   -2.4554 C   0  0  0  0  0  0  0  0  0  0  0  0
    4.2116    0.7302   -2.8699 C   0  0  0  0  0  0  0  0  0  0  0  0
    5.2717    1.7722   -2.1096 S   0  0  0  0  0  0  0  0  0  0  0  0
    3.7432   -0.7356   -0.0920 C   0  0  0  0  0  0  0  0  0  0  0  0
    4.8326   -1.7646   -0.3793 C   0  0  0  0  0  0  0  0  0  0  0  0
    0.6309   -0.6242    1.2800 C   0  0  0  0  0  0  0  0  0  0  0  0
   -0.7103    0.0890    1.1285 C   0  0  0  0  0  0  0  0  0  0  0  0
   -3.1187   -3.7893    5.2220 C   0  0  0  0  0  0  0  0  0  0  0  0
   -4.3536   -3.3613    5.5461 C   0  0  0  0  0  0  0  0  0  0  0  0
   -5.3703   -2.8965    4.5940 C   0  0  0  0  0  0  0  0  0  0  0  0
   -5.1795   -2.5792    3.3869 O   0  0  0  0  0  0  0  0  0  0  0  0
   -6.6480   -2.8655    5.2735 C   0  0  0  0  0  0  0  0  0  0  0  0
   -7.9038   -2.6046    4.7260 C   0  0  0  0  0  0  0  0  0  0  0  0
   -9.0340   -2.6645    5.5656 C   0  0  0  0  0  0  0  0  0  0  0  0
  -10.4224   -2.4269    5.0159 C   0  0  0  0  0  0  0  0  0  0  0  0
  -11.0641   -3.6402    4.8294 F   0  0  0  0  0  0  0  0  0  0  0  0
  -10.3845   -1.7441    3.8052 F   0  0  0  0  0  0  0  0  0  0  0  0
  -11.1574   -1.6796    5.9144 F   0  0  0  0  0  0  0  0  0  0  0  0
   -8.8703   -3.0404    6.9193 C   0  0  0  0  0  0  0  0  0  0  0  0
   -7.5989   -3.3259    7.4420 C   0  0  0  0  0  0  0  0  0  0  0  0
   -6.4768   -3.2148    6.6057 C   0  0  0  0  0  0  0  0  0  0  0  0
   -5.0228   -3.4419    6.8793 C   0  0  0  0  0  0  0  0  0  0  0  0
   -4.4183   -3.4675    8.0939 C   0  0  0  0  0  0  0  0  0  0  0  0
   -2.9873   -3.3459    8.2469 C   0  0  0  0  0  0  0  0  0  0  0  0
   -1.8431   -3.2402    8.3758 N   0  0  0  0  0  0  0  0  0  0  0  0
   -5.1575   -3.5140    9.3315 C   0  0  0  0  0  0  0  0  0  0  0  0
   -5.7284   -3.5490   10.3368 N   0  0  0  0  0  0  0  0  0  0  0  0
    7.7144    3.2304   -4.1853 H   0  0  0  0  0  0  0  0  0  0  0  0
    4.1373    6.6471   -0.2920 H   0  0  0  0  0  0  0  0  0  0  0  0
    8.8156    8.0587   -1.2418 H   0  0  0  0  0  0  0  0  0  0  0  0
    5.8863    3.2457   -6.1538 H   0  0  0  0  0  0  0  0  0  0  0  0
    6.2681    1.5121   -6.5086 H   0  0  0  0  0  0  0  0  0  0  0  0
    3.3847    2.6403   -6.5865 H   0  0  0  0  0  0  0  0  0  0  0  0
    4.5178    2.6765   -7.9921 H   0  0  0  0  0  0  0  0  0  0  0  0
    4.0121    1.0972   -7.2965 H   0  0  0  0  0  0  0  0  0  0  0  0
   -4.2445   -5.7738    1.7436 H   0  0  0  0  0  0  0  0  0  0  0  0
   -4.6637   -5.3896    3.4450 H   0  0  0  0  0  0  0  0  0  0  0  0
   -2.3136   -7.1543    2.5067 H   0  0  0  0  0  0  0  0  0  0  0  0
   -3.8721   -7.7318    3.2355 H   0  0  0  0  0  0  0  0  0  0  0  0
   -2.7009   -6.7725    4.2311 H   0  0  0  0  0  0  0  0  0  0  0  0
    3.2123   -1.0674    0.8174 H   0  0  0  0  0  0  0  0  0  0  0  0
    4.2148    0.2436    0.1297 H   0  0  0  0  0  0  0  0  0  0  0  0
    5.5081   -1.8477    0.4974 H   0  0  0  0  0  0  0  0  0  0  0  0
    5.4293   -1.4581   -1.2598 H   0  0  0  0  0  0  0  0  0  0  0  0
    4.3729   -2.7546   -0.5878 H   0  0  0  0  0  0  0  0  0  0  0  0
    0.8798   -0.7514    2.3569 H   0  0  0  0  0  0  0  0  0  0  0  0
    1.3672    0.0602    0.8324 H   0  0  0  0  0  0  0  0  0  0  0  0
   -0.6462    1.1105    1.5589 H   0  0  0  0  0  0  0  0  0  0  0  0
   -1.5070   -0.4443    1.6780 H   0  0  0  0  0  0  0  0  0  0  0  0
   -0.9956    0.1528    0.0558 H   0  0  0  0  0  0  0  0  0  0  0  0
   -2.4776   -4.2238    5.9622 H   0  0  0  0  0  0  0  0  0  0  0  0
   -8.0049   -2.3667    3.6771 H   0  0  0  0  0  0  0  0  0  0  0  0
   -9.7279   -3.1411    7.5710 H   0  0  0  0  0  0  0  0  0  0  0  0
   -7.5286   -3.6484    8.4672 H   0  0  0  0  0  0  0  0  0  0  0  0
  1  2  2  3
  2  3  1  0
  3  4  2  0
  3  5  1  0
  5  6  2  0
  6  7  1  0
  7  8  1  0
  7  9  2  0
  9 10  1  0
  9 11  1  0
 11 12  2  0
 12 13  1  0
 13 14  2  3
 14 15  1  0
 15 16  3  0
 14 17  1  0
 17 18  3  0
  1 19  1  0
 19 20  2  0
 20 21  1  0
 21 22  1  0
 20 23  1  0
 23 24  1  0
 24 25  1  0
 25 26  1  0
 26 27  1  0
 27 28  1  0
 28 29  2  0
 29 30  1  0
 30 31  1  0
 28 32  1  0
 32 33  1  0
 33 34  1  0
 34 35  1  0
 35 36  1  0
 36 37  1  0
 37 38  1  0
 36 39  2  0
 39 40  1  0
 40 41  1  0
 41 42  1  0
 42 43  1  0
 43 44  1  0
 44 45  1  0
 45 46  1  0
 46 47  1  0
 47 48  1  0
 48 49  1  0
 46 50  1  0
 50 51  1  0
 43 52  1  0
 52 53  1  0
 39 54  1  0
 54 55  2  3
 55 56  1  0
 56 57  2  0
 56 58  1  0
 58 59  2  0
 59 60  1  0
 60 61  1  0
 61 62  1  0
 61 63  1  0
 61 64  1  0
 60 65  2  0
 65 66  1  0
 66 67  2  0
 67 68  1  0
 68 69  2  3
 69 70  1  0
 70 71  3  0
 69 72  1  0
 72 73  3  0
 13  2  1  0
 49 19  1  0
 68 55  1  0
 12  5  1  0
 48 23  2  0
 67 58  1  0
 47 25  2  0
 45 26  2  0
 31 27  2  0
 44 32  2  0
 42 33  2  0
 41 35  2  0
  1 74  1  0
  6 75  1  0
 11 76  1  0
 21 77  1  0
 21 78  1  0
 22 79  1  0
 22 80  1  0
 22 81  1  0
 37 82  1  0
 37 83  1  0
 38 84  1  0
 38 85  1  0
 38 86  1  0
 50 87  1  0
 50 88  1  0
 51 89  1  0
 51 90  1  0
 51 91  1  0
 52 92  1  0
 52 93  1  0
 53 94  1  0
 53 95  1  0
 53 96  1  0
 54 97  1  0
 59 98  1  0
 65 99  1  0
 66100  1  0
M  END

