
     RDKit          3D

101111  0  0  0  0  0  0  0  0999 V2000
    7.1103    0.2976   -3.3646 C   0  0  0  0  0  0  0  0  0  0  0  0
    7.4607   -0.1129   -4.5985 C   0  0  0  0  0  0  0  0  0  0  0  0
    6.5627   -0.1893   -5.7554 C   0  0  0  0  0  0  0  0  0  0  0  0
    5.3045   -0.1633   -5.7331 O   0  0  0  0  0  0  0  0  0  0  0  0
    7.3716   -0.3030   -6.9465 C   0  0  0  0  0  0  0  0  0  0  0  0
    6.9501   -0.3004   -8.2784 C   0  0  0  0  0  0  0  0  0  0  0  0
    7.9210   -0.3455   -9.2855 C   0  0  0  0  0  0  0  0  0  0  0  0
    7.4238   -0.3393  -10.9688 Cl  0  0  0  0  0  0  0  0  0  0  0  0
    9.2892   -0.3745   -8.9512 C   0  0  0  0  0  0  0  0  0  0  0  0
   10.2309   -0.3911   -9.9260 F   0  0  0  0  0  0  0  0  0  0  0  0
    9.6897   -0.3845   -7.6076 C   0  0  0  0  0  0  0  0  0  0  0  0
    8.7102   -0.3665   -6.6002 C   0  0  0  0  0  0  0  0  0  0  0  0
    8.8396   -0.3683   -5.1155 C   0  0  0  0  0  0  0  0  0  0  0  0
    9.9265   -0.7527   -4.3929 C   0  0  0  0  0  0  0  0  0  0  0  0
   11.1867   -1.0908   -5.0050 C   0  0  0  0  0  0  0  0  0  0  0  0
   12.2066   -1.3724   -5.4774 N   0  0  0  0  0  0  0  0  0  0  0  0
    9.8670   -0.9856   -2.9720 C   0  0  0  0  0  0  0  0  0  0  0  0
    9.8274   -1.1772   -1.8306 N   0  0  0  0  0  0  0  0  0  0  0  0
    5.7279    0.6315   -2.9946 C   0  0  0  0  0  0  0  0  0  0  0  0
    4.9958    1.7566   -3.4163 C   0  0  0  0  0  0  0  0  0  0  0  0
    5.5257    2.8689   -4.2806 C   0  0  0  0  0  0  0  0  0  0  0  0
    6.0506    4.0081   -3.4148 C   0  0  0  0  0  0  0  0  0  0  0  0
    3.7191    1.7485   -2.8542 C   0  0  0  0  0  0  0  0  0  0  0  0
    2.3337    2.7009   -3.1309 S   0  0  0  0  0  0  0  0  0  0  0  0
    1.4277    1.7247   -2.0800 C   0  0  0  0  0  0  0  0  0  0  0  0
    0.1090    1.4357   -1.8891 C   0  0  0  0  0  0  0  0  0  0  0  0
   -1.0282    1.9591   -2.5124 C   0  0  0  0  0  0  0  0  0  0  0  0
   -2.2717    1.2858   -2.3409 C   0  0  0  0  0  0  0  0  0  0  0  0
   -3.3524    1.8186   -2.9655 N   0  0  0  0  0  0  0  0  0  0  0  0
   -2.6321    3.1077   -3.7159 S   0  0  0  0  0  0  0  0  0  0  0  0
   -1.0275    3.0609   -3.3042 N   0  0  0  0  0  0  0  0  0  0  0  0
   -2.3132    0.1410   -1.5376 C   0  0  0  0  0  0  0  0  0  0  0  0
   -3.3831   -0.5118   -0.9976 C   0  0  0  0  0  0  0  0  0  0  0  0
   -5.0447   -0.1877   -0.8739 S   0  0  0  0  0  0  0  0  0  0  0  0
   -5.1554   -1.1312    0.5397 C   0  0  0  0  0  0  0  0  0  0  0  0
   -6.1782   -1.3348    1.4686 C   0  0  0  0  0  0  0  0  0  0  0  0
   -7.6018   -0.8942    1.2581 C   0  0  0  0  0  0  0  0  0  0  0  0
   -8.3411   -1.8687    0.3504 C   0  0  0  0  0  0  0  0  0  0  0  0
   -5.6863   -2.0139    2.6025 C   0  0  0  0  0  0  0  0  0  0  0  0
   -4.0262   -2.3387    2.4254 S   0  0  0  0  0  0  0  0  0  0  0  0
   -3.9275   -1.6197    0.9124 C   0  0  0  0  0  0  0  0  0  0  0  0
   -2.9108   -1.2697    0.0258 C   0  0  0  0  0  0  0  0  0  0  0  0
   -1.5621   -1.1737    0.1722 N   0  0  0  0  0  0  0  0  0  0  0  0
   -1.1820   -0.3456   -0.8580 C   0  0  0  0  0  0  0  0  0  0  0  0
    0.0801    0.2546   -1.1255 C   0  0  0  0  0  0  0  0  0  0  0  0
    1.3517   -0.2430   -0.9601 N   0  0  0  0  0  0  0  0  0  0  0  0
    2.1402    0.6948   -1.5520 C   0  0  0  0  0  0  0  0  0  0  0  0
    3.4516    0.6896   -2.0218 C   0  0  0  0  0  0  0  0  0  0  0  0
    4.7867   -0.3256   -1.9493 S   0  0  0  0  0  0  0  0  0  0  0  0
    1.7535   -1.6361   -0.7262 C   0  0  0  0  0  0  0  0  0  0  0  0
    2.6589   -1.7514    0.5062 C   0  0  0  0  0  0  0  0  0  0  0  0
   -0.8828   -1.3481    1.4593 C   0  0  0  0  0  0  0  0  0  0  0  0
   -0.9585   -0.0737    2.2922 C   0  0  0  0  0  0  0  0  0  0  0  0
   -6.4276   -2.3218    3.8351 C   0  0  0  0  0  0  0  0  0  0  0  0
   -6.9338   -1.3901    4.6717 C   0  0  0  0  0  0  0  0  0  0  0  0
   -6.7203    0.0741    4.5000 C   0  0  0  0  0  0  0  0  0  0  0  0
   -5.7760    0.5032    3.7820 O   0  0  0  0  0  0  0  0  0  0  0  0
   -7.5682    1.0123    5.2002 N   0  0  0  0  0  0  0  0  0  0  0  0
   -7.3391    2.4557    5.0548 C   0  0  0  0  0  0  0  0  0  0  0  0
   -6.2837    2.9259    6.0495 C   0  0  0  0  0  0  0  0  0  0  0  0
   -8.5835    0.5242    6.1000 C   0  0  0  0  0  0  0  0  0  0  0  0
   -9.2191    1.3277    6.8358 O   0  0  0  0  0  0  0  0  0  0  0  0
   -8.9391   -0.9414    6.1344 C   0  0  0  0  0  0  0  0  0  0  0  0
   -9.9615   -1.2118    5.1118 C   0  0  0  0  0  0  0  0  0  0  0  0
  -10.7627   -1.4289    4.3042 N   0  0  0  0  0  0  0  0  0  0  0  0
   -7.6983   -1.8348    5.9029 C   0  0  0  0  0  0  0  0  0  0  0  0
   -6.7700   -1.8188    7.1228 C   0  0  0  0  0  0  0  0  0  0  0  0
    7.8440    0.4333   -2.5874 H   0  0  0  0  0  0  0  0  0  0  0  0
    5.8979   -0.2475   -8.5237 H   0  0  0  0  0  0  0  0  0  0  0  0
   10.7436   -0.3628   -7.3858 H   0  0  0  0  0  0  0  0  0  0  0  0
    6.3389    2.5079   -4.9430 H   0  0  0  0  0  0  0  0  0  0  0  0
    4.7154    3.2546   -4.9305 H   0  0  0  0  0  0  0  0  0  0  0  0
    6.8812    3.6522   -2.7727 H   0  0  0  0  0  0  0  0  0  0  0  0
    5.2402    4.4102   -2.7743 H   0  0  0  0  0  0  0  0  0  0  0  0
    6.4317    4.8245   -4.0603 H   0  0  0  0  0  0  0  0  0  0  0  0
   -7.6063    0.1147    0.7978 H   0  0  0  0  0  0  0  0  0  0  0  0
   -8.1409   -0.8232    2.2248 H   0  0  0  0  0  0  0  0  0  0  0  0
   -8.3640   -2.8800    0.8104 H   0  0  0  0  0  0  0  0  0  0  0  0
   -7.8361   -1.9324   -0.6367 H   0  0  0  0  0  0  0  0  0  0  0  0
   -9.3842   -1.5193    0.1966 H   0  0  0  0  0  0  0  0  0  0  0  0
    0.8630   -2.2929   -0.6247 H   0  0  0  0  0  0  0  0  0  0  0  0
    2.3009   -2.0210   -1.6135 H   0  0  0  0  0  0  0  0  0  0  0  0
    3.6930   -1.4381    0.2688 H   0  0  0  0  0  0  0  0  0  0  0  0
    2.2975   -1.1167    1.3408 H   0  0  0  0  0  0  0  0  0  0  0  0
    2.6948   -2.8071    0.8464 H   0  0  0  0  0  0  0  0  0  0  0  0
   -1.3297   -2.1917    2.0178 H   0  0  0  0  0  0  0  0  0  0  0  0
    0.1612   -1.6277    1.3296 H   0  0  0  0  0  0  0  0  0  0  0  0
   -2.0146    0.2306    2.4378 H   0  0  0  0  0  0  0  0  0  0  0  0
   -0.4131    0.7490    1.7837 H   0  0  0  0  0  0  0  0  0  0  0  0
   -0.4986   -0.2513    3.2853 H   0  0  0  0  0  0  0  0  0  0  0  0
   -6.5269   -3.3711    4.0849 H   0  0  0  0  0  0  0  0  0  0  0  0
   -8.2826    3.0154    5.2217 H   0  0  0  0  0  0  0  0  0  0  0  0
   -7.0056    2.6931    4.0211 H   0  0  0  0  0  0  0  0  0  0  0  0
   -5.3326    2.3765    5.8934 H   0  0  0  0  0  0  0  0  0  0  0  0
   -6.6354    2.7547    7.0891 H   0  0  0  0  0  0  0  0  0  0  0  0
   -6.0987    4.0126    5.9079 H   0  0  0  0  0  0  0  0  0  0  0  0
   -9.3821   -1.1876    7.1243 H   0  0  0  0  0  0  0  0  0  0  0  0
   -8.0552   -2.8847    5.7811 H   0  0  0  0  0  0  0  0  0  0  0  0
   -7.3055   -2.2023    8.0140 H   0  0  0  0  0  0  0  0  0  0  0  0
   -6.4086   -0.7913    7.3330 H   0  0  0  0  0  0  0  0  0  0  0  0
   -5.8937   -2.4734    6.9371 H   0  0  0  0  0  0  0  0  0  0  0  0
  1  2  2  3
  2  3  1  0
  3  4  2  0
  3  5  1  0
  5  6  2  0
  6  7  1  0
  7  8  1  0
  7  9  2  0
  9 10  1  0
  9 11  1  0
 11 12  2  0
 12 13  1  0
 13 14  2  3
 14 15  1  0
 15 16  3  0
 14 17  1  0
 17 18  3  0
  1 19  1  0
 19 20  2  0
 20 21  1  0
 21 22  1  0
 20 23  1  0
 23 24  1  0
 24 25  1  0
 25 26  1  0
 26 27  1  0
 27 28  1  0
 28 29  2  0
 29 30  1  0
 30 31  1  0
 28 32  1  0
 32 33  1  0
 33 34  1  0
 34 35  1  0
 35 36  1  0
 36 37  1  0
 37 38  1  0
 36 39  2  0
 39 40  1  0
 40 41  1  0
 41 42  1  0
 42 43  1  0
 43 44  1  0
 44 45  1  0
 45 46  1  0
 46 47  1  0
 47 48  1  0
 48 49  1  0
 46 50  1  0
 50 51  1  0
 43 52  1  0
 52 53  1  0
 39 54  1  0
 54 55  2  3
 55 56  1  0
 56 57  2  0
 56 58  1  0
 58 59  1  0
 59 60  1  0
 58 61  1  0
 61 62  2  0
 61 63  1  0
 63 64  1  0
 64 65  3  0
 63 66  1  0
 66 67  1  0
 13  2  1  0
 49 19  1  0
 66 55  1  0
 12  5  1  0
 48 23  2  0
 47 25  2  0
 45 26  2  0
 31 27  2  0
 44 32  2  0
 42 33  2  0
 41 35  2  0
  1 68  1  0
  6 69  1  0
 11 70  1  0
 21 71  1  0
 21 72  1  0
 22 73  1  0
 22 74  1  0
 22 75  1  0
 37 76  1  0
 37 77  1  0
 38 78  1  0
 38 79  1  0
 38 80  1  0
 50 81  1  0
 50 82  1  0
 51 83  1  0
 51 84  1  0
 51 85  1  0
 52 86  1  0
 52 87  1  0
 53 88  1  0
 53 89  1  0
 53 90  1  0
 54 91  1  0
 59 92  1  0
 59 93  1  0
 60 94  1  0
 60 95  1  0
 60 96  1  0
 63 97  1  0
 66 98  1  0
 67 99  1  0
 67100  1  0
 67101  1  0
M  END

