
     RDKit          3D

103115  0  0  0  0  0  0  0  0999 V2000
   -0.9606   -6.9683   -4.1186 C   0  0  0  0  0  0  0  0  0  0  0  0
   -0.6786   -7.9743   -4.9693 C   0  0  0  0  0  0  0  0  0  0  0  0
    0.4586   -8.0102   -5.8988 C   0  0  0  0  0  0  0  0  0  0  0  0
    1.2360   -7.0572   -6.1736 O   0  0  0  0  0  0  0  0  0  0  0  0
    0.6148   -9.3669   -6.3756 C   0  0  0  0  0  0  0  0  0  0  0  0
    1.6040   -9.8696   -7.2203 C   0  0  0  0  0  0  0  0  0  0  0  0
    1.6124  -11.2427   -7.4984 C   0  0  0  0  0  0  0  0  0  0  0  0
    2.8434  -11.9061   -8.5564 Cl  0  0  0  0  0  0  0  0  0  0  0  0
    0.6511  -12.0865   -6.9110 C   0  0  0  0  0  0  0  0  0  0  0  0
    0.6725  -13.4193   -7.1574 F   0  0  0  0  0  0  0  0  0  0  0  0
   -0.3322  -11.5591   -6.0590 C   0  0  0  0  0  0  0  0  0  0  0  0
   -0.3564  -10.1760   -5.8125 C   0  0  0  0  0  0  0  0  0  0  0  0
   -1.2690   -9.3502   -4.9684 C   0  0  0  0  0  0  0  0  0  0  0  0
   -2.4958   -9.7088   -4.5006 C   0  0  0  0  0  0  0  0  0  0  0  0
   -3.4074   -8.7599   -3.9133 C   0  0  0  0  0  0  0  0  0  0  0  0
   -4.1458   -8.0043   -3.4390 N   0  0  0  0  0  0  0  0  0  0  0  0
   -3.0306  -11.0363   -4.6539 C   0  0  0  0  0  0  0  0  0  0  0  0
   -3.4776  -12.0983   -4.7691 N   0  0  0  0  0  0  0  0  0  0  0  0
   -0.3515   -5.6309   -4.2049 C   0  0  0  0  0  0  0  0  0  0  0  0
   -0.4412   -4.7336   -5.2893 C   0  0  0  0  0  0  0  0  0  0  0  0
   -1.2527   -4.9595   -6.5367 C   0  0  0  0  0  0  0  0  0  0  0  0
   -2.7134   -4.5945   -6.3008 C   0  0  0  0  0  0  0  0  0  0  0  0
    0.1191   -3.4983   -4.9537 C   0  0  0  0  0  0  0  0  0  0  0  0
    0.1194   -1.9878   -5.7382 S   0  0  0  0  0  0  0  0  0  0  0  0
    0.8234   -1.2544   -4.3802 C   0  0  0  0  0  0  0  0  0  0  0  0
    0.8788    0.0119   -3.8803 C   0  0  0  0  0  0  0  0  0  0  0  0
    0.4495    1.2107   -4.4609 C   0  0  0  0  0  0  0  0  0  0  0  0
    0.3115    2.3606   -3.6385 C   0  0  0  0  0  0  0  0  0  0  0  0
   -0.1410    3.4957   -4.2295 N   0  0  0  0  0  0  0  0  0  0  0  0
   -0.3461    2.9392   -5.7758 S   0  0  0  0  0  0  0  0  0  0  0  0
    0.1011    1.3439   -5.7648 N   0  0  0  0  0  0  0  0  0  0  0  0
    0.6455    2.2560   -2.2889 C   0  0  0  0  0  0  0  0  0  0  0  0
    0.6240    3.1900   -1.3007 C   0  0  0  0  0  0  0  0  0  0  0  0
    0.1400    4.7979   -1.0604 S   0  0  0  0  0  0  0  0  0  0  0  0
    0.6001    4.6988    0.5822 C   0  0  0  0  0  0  0  0  0  0  0  0
    0.4558    5.5673    1.6641 C   0  0  0  0  0  0  0  0  0  0  0  0
   -0.1289    6.9484    1.5576 C   0  0  0  0  0  0  0  0  0  0  0  0
    0.9053    7.9353    1.0255 C   0  0  0  0  0  0  0  0  0  0  0  0
    0.8871    4.9534    2.8554 C   0  0  0  0  0  0  0  0  0  0  0  0
    1.4191    3.3602    2.5433 S   0  0  0  0  0  0  0  0  0  0  0  0
    1.1167    3.4653    0.8964 C   0  0  0  0  0  0  0  0  0  0  0  0
    1.1215    2.6050   -0.1915 C   0  0  0  0  0  0  0  0  0  0  0  0
    1.4935    1.3155   -0.3868 N   0  0  0  0  0  0  0  0  0  0  0  0
    1.1290    1.0688   -1.6972 C   0  0  0  0  0  0  0  0  0  0  0  0
    1.1691   -0.1184   -2.5047 C   0  0  0  0  0  0  0  0  0  0  0  0
    1.2032   -1.4577   -2.1627 N   0  0  0  0  0  0  0  0  0  0  0  0
    1.0037   -2.1060   -3.3427 C   0  0  0  0  0  0  0  0  0  0  0  0
    0.6029   -3.4006   -3.6714 C   0  0  0  0  0  0  0  0  0  0  0  0
    0.3399   -4.8457   -2.8631 S   0  0  0  0  0  0  0  0  0  0  0  0
    1.1048   -2.1016   -0.8484 C   0  0  0  0  0  0  0  0  0  0  0  0
   -0.2098   -1.7564   -0.1542 C   0  0  0  0  0  0  0  0  0  0  0  0
    2.4295    0.6097    0.4979 C   0  0  0  0  0  0  0  0  0  0  0  0
    3.7234    0.2346   -0.2281 C   0  0  0  0  0  0  0  0  0  0  0  0
    0.7876    5.5394    4.2055 C   0  0  0  0  0  0  0  0  0  0  0  0
    1.6907    6.5491    4.5578 C   0  0  0  0  0  0  0  0  0  0  0  0
    1.6243    7.1572    5.8082 C   0  0  0  0  0  0  0  0  0  0  0  0
    0.6557    6.7639    6.7442 C   0  0  0  0  0  0  0  0  0  0  0  0
    0.5870    7.4268    8.0667 C   0  0  0  0  0  0  0  0  0  0  0  0
    1.3697    8.3824    8.3355 O   0  0  0  0  0  0  0  0  0  0  0  0
   -0.3791    6.9925    9.0407 N   0  0  0  0  0  0  0  0  0  0  0  0
   -0.4723    7.6594   10.3490 C   0  0  0  0  0  0  0  0  0  0  0  0
   -1.4289    8.8461   10.2750 C   0  0  0  0  0  0  0  0  0  0  0  0
   -1.3204    5.9655    8.6790 C   0  0  0  0  0  0  0  0  0  0  0  0
   -2.2054    5.6035    9.5024 O   0  0  0  0  0  0  0  0  0  0  0  0
   -1.2520    5.3352    7.3403 C   0  0  0  0  0  0  0  0  0  0  0  0
   -2.1725    4.3378    6.9813 C   0  0  0  0  0  0  0  0  0  0  0  0
   -2.1202    3.7514    5.7202 C   0  0  0  0  0  0  0  0  0  0  0  0
   -1.1508    4.1402    4.7986 C   0  0  0  0  0  0  0  0  0  0  0  0
   -0.2031    5.1285    5.1297 C   0  0  0  0  0  0  0  0  0  0  0  0
   -0.2619    5.7408    6.4137 C   0  0  0  0  0  0  0  0  0  0  0  0
   -1.5992   -7.1424   -3.2675 H   0  0  0  0  0  0  0  0  0  0  0  0
    2.3568   -9.2147   -7.6397 H   0  0  0  0  0  0  0  0  0  0  0  0
   -1.0202  -12.2419   -5.5933 H   0  0  0  0  0  0  0  0  0  0  0  0
   -1.1943   -6.0163   -6.8599 H   0  0  0  0  0  0  0  0  0  0  0  0
   -0.8493   -4.3406   -7.3646 H   0  0  0  0  0  0  0  0  0  0  0  0
   -3.2922   -4.7427   -7.2362 H   0  0  0  0  0  0  0  0  0  0  0  0
   -2.8029   -3.5314   -5.9931 H   0  0  0  0  0  0  0  0  0  0  0  0
   -3.1477   -5.2405   -5.5096 H   0  0  0  0  0  0  0  0  0  0  0  0
   -1.0034    6.9279    0.8725 H   0  0  0  0  0  0  0  0  0  0  0  0
   -0.4919    7.2955    2.5483 H   0  0  0  0  0  0  0  0  0  0  0  0
    1.2283    7.6390    0.0045 H   0  0  0  0  0  0  0  0  0  0  0  0
    0.4577    8.9512    0.9778 H   0  0  0  0  0  0  0  0  0  0  0  0
    1.7924    7.9683    1.6935 H   0  0  0  0  0  0  0  0  0  0  0  0
    1.1552   -3.1977   -0.9505 H   0  0  0  0  0  0  0  0  0  0  0  0
    1.9903   -1.8893   -0.2393 H   0  0  0  0  0  0  0  0  0  0  0  0
   -1.0639   -2.0883   -0.7814 H   0  0  0  0  0  0  0  0  0  0  0  0
   -0.2967   -0.6674    0.0232 H   0  0  0  0  0  0  0  0  0  0  0  0
   -0.2592   -2.2763    0.8238 H   0  0  0  0  0  0  0  0  0  0  0  0
    1.9332   -0.2350    1.0012 H   0  0  0  0  0  0  0  0  0  0  0  0
    2.7363    1.2679    1.3331 H   0  0  0  0  0  0  0  0  0  0  0  0
    3.5338   -0.4022   -1.1133 H   0  0  0  0  0  0  0  0  0  0  0  0
    4.3929   -0.3156    0.4667 H   0  0  0  0  0  0  0  0  0  0  0  0
    4.2438    1.1559   -0.5671 H   0  0  0  0  0  0  0  0  0  0  0  0
    2.4482    6.8730    3.8553 H   0  0  0  0  0  0  0  0  0  0  0  0
    2.3379    7.9392    6.0420 H   0  0  0  0  0  0  0  0  0  0  0  0
   -0.8266    6.9467   11.1253 H   0  0  0  0  0  0  0  0  0  0  0  0
    0.5277    8.0154   10.6797 H   0  0  0  0  0  0  0  0  0  0  0  0
   -1.5177    9.3153   11.2775 H   0  0  0  0  0  0  0  0  0  0  0  0
   -2.4354    8.5118    9.9467 H   0  0  0  0  0  0  0  0  0  0  0  0
   -1.0466    9.6045    9.5602 H   0  0  0  0  0  0  0  0  0  0  0  0
   -2.9382    4.0140    7.6767 H   0  0  0  0  0  0  0  0  0  0  0  0
   -2.8410    2.9905    5.4549 H   0  0  0  0  0  0  0  0  0  0  0  0
   -1.1572    3.6638    3.8269 H   0  0  0  0  0  0  0  0  0  0  0  0
  1  2  2  3
  2  3  1  0
  3  4  2  0
  3  5  1  0
  5  6  2  0
  6  7  1  0
  7  8  1  0
  7  9  2  0
  9 10  1  0
  9 11  1  0
 11 12  2  0
 12 13  1  0
 13 14  2  3
 14 15  1  0
 15 16  3  0
 14 17  1  0
 17 18  3  0
  1 19  1  0
 19 20  2  0
 20 21  1  0
 21 22  1  0
 20 23  1  0
 23 24  1  0
 24 25  1  0
 25 26  1  0
 26 27  1  0
 27 28  1  0
 28 29  2  0
 29 30  1  0
 30 31  1  0
 28 32  1  0
 32 33  1  0
 33 34  1  0
 34 35  1  0
 35 36  1  0
 36 37  1  0
 37 38  1  0
 36 39  2  0
 39 40  1  0
 40 41  1  0
 41 42  1  0
 42 43  1  0
 43 44  1  0
 44 45  1  0
 45 46  1  0
 46 47  1  0
 47 48  1  0
 48 49  1  0
 46 50  1  0
 50 51  1  0
 43 52  1  0
 52 53  1  0
 39 54  1  0
 54 55  2  0
 55 56  1  0
 56 57  2  0
 57 58  1  0
 58 59  2  0
 58 60  1  0
 60 61  1  0
 61 62  1  0
 60 63  1  0
 63 64  2  0
 63 65  1  0
 65 66  1  0
 66 67  2  0
 67 68  1  0
 68 69  2  0
 69 70  1  0
 13  2  1  0
 49 19  1  0
 69 54  1  0
 12  5  1  0
 48 23  2  0
 70 57  1  0
 47 25  2  0
 70 65  2  0
 45 26  2  0
 31 27  2  0
 44 32  2  0
 42 33  2  0
 41 35  2  0
  1 71  1  0
  6 72  1  0
 11 73  1  0
 21 74  1  0
 21 75  1  0
 22 76  1  0
 22 77  1  0
 22 78  1  0
 37 79  1  0
 37 80  1  0
 38 81  1  0
 38 82  1  0
 38 83  1  0
 50 84  1  0
 50 85  1  0
 51 86  1  0
 51 87  1  0
 51 88  1  0
 52 89  1  0
 52 90  1  0
 53 91  1  0
 53 92  1  0
 53 93  1  0
 55 94  1  0
 56 95  1  0
 61 96  1  0
 61 97  1  0
 62 98  1  0
 62 99  1  0
 62100  1  0
 66101  1  0
 67102  1  0
 68103  1  0
M  END

