
     RDKit          3D

 97108  0  0  0  0  0  0  0  0999 V2000
    7.3077    0.3528    2.3931 C   0  0  0  0  0  0  0  0  0  0  0  0
    6.8894    1.5964    2.6960 C   0  0  0  0  0  0  0  0  0  0  0  0
    5.6965    2.2619    2.1450 C   0  0  0  0  0  0  0  0  0  0  0  0
    4.7796    1.7319    1.4664 O   0  0  0  0  0  0  0  0  0  0  0  0
    5.8179    3.6828    2.3825 C   0  0  0  0  0  0  0  0  0  0  0  0
    4.9722    4.7003    1.9367 C   0  0  0  0  0  0  0  0  0  0  0  0
    5.3420    6.0302    2.1812 C   0  0  0  0  0  0  0  0  0  0  0  0
    4.3069    7.3347    1.6232 Cl  0  0  0  0  0  0  0  0  0  0  0  0
    6.5587    6.3164    2.8365 C   0  0  0  0  0  0  0  0  0  0  0  0
    6.9339    7.6008    3.0461 F   0  0  0  0  0  0  0  0  0  0  0  0
    7.3909    5.2717    3.2733 C   0  0  0  0  0  0  0  0  0  0  0  0
    6.9911    3.9416    3.0669 C   0  0  0  0  0  0  0  0  0  0  0  0
    7.6828    2.6604    3.3877 C   0  0  0  0  0  0  0  0  0  0  0  0
    8.6652    2.4767    4.3087 C   0  0  0  0  0  0  0  0  0  0  0  0
    9.1138    1.1702    4.7069 C   0  0  0  0  0  0  0  0  0  0  0  0
    9.4807    0.1211    5.0403 N   0  0  0  0  0  0  0  0  0  0  0  0
    9.2439    3.5640    5.0526 C   0  0  0  0  0  0  0  0  0  0  0  0
    9.7162    4.4270    5.6578 N   0  0  0  0  0  0  0  0  0  0  0  0
    6.4867   -0.6363    1.6778 C   0  0  0  0  0  0  0  0  0  0  0  0
    6.8556   -1.2969    0.4928 C   0  0  0  0  0  0  0  0  0  0  0  0
    8.1323   -1.0554   -0.2650 C   0  0  0  0  0  0  0  0  0  0  0  0
    9.2295   -1.9988    0.2144 C   0  0  0  0  0  0  0  0  0  0  0  0
    5.8401   -2.1585    0.0672 C   0  0  0  0  0  0  0  0  0  0  0  0
    5.5520   -2.9549   -1.4047 S   0  0  0  0  0  0  0  0  0  0  0  0
    3.9754   -3.3742   -0.9289 C   0  0  0  0  0  0  0  0  0  0  0  0
    2.8044   -3.5293   -1.6179 C   0  0  0  0  0  0  0  0  0  0  0  0
    2.5944   -3.5669   -3.0047 C   0  0  0  0  0  0  0  0  0  0  0  0
    1.2940   -3.2794   -3.5116 C   0  0  0  0  0  0  0  0  0  0  0  0
    1.1406   -3.2904   -4.8590 N   0  0  0  0  0  0  0  0  0  0  0  0
    2.6917   -3.6523   -5.3125 S   0  0  0  0  0  0  0  0  0  0  0  0
    3.5703   -3.7988   -3.9155 N   0  0  0  0  0  0  0  0  0  0  0  0
    0.2664   -3.0167   -2.6024 C   0  0  0  0  0  0  0  0  0  0  0  0
   -1.0639   -2.7816   -2.7778 C   0  0  0  0  0  0  0  0  0  0  0  0
   -2.1790   -2.5577   -4.0391 S   0  0  0  0  0  0  0  0  0  0  0  0
   -3.4514   -2.4196   -2.9052 C   0  0  0  0  0  0  0  0  0  0  0  0
   -4.8047   -2.0940   -3.0245 C   0  0  0  0  0  0  0  0  0  0  0  0
   -5.4644   -1.7440   -4.3298 C   0  0  0  0  0  0  0  0  0  0  0  0
   -5.3549   -0.2471   -4.6059 C   0  0  0  0  0  0  0  0  0  0  0  0
   -5.4028   -1.9722   -1.7563 C   0  0  0  0  0  0  0  0  0  0  0  0
   -4.2579   -2.3232   -0.5364 S   0  0  0  0  0  0  0  0  0  0  0  0
   -3.0038   -2.5785   -1.6159 C   0  0  0  0  0  0  0  0  0  0  0  0
   -1.6297   -2.7594   -1.5473 C   0  0  0  0  0  0  0  0  0  0  0  0
   -0.7376   -2.9502   -0.5417 N   0  0  0  0  0  0  0  0  0  0  0  0
    0.4585   -3.0467   -1.2137 C   0  0  0  0  0  0  0  0  0  0  0  0
    1.7785   -3.1964   -0.7140 C   0  0  0  0  0  0  0  0  0  0  0  0
    2.3102   -2.7215    0.4595 N   0  0  0  0  0  0  0  0  0  0  0  0
    3.6522   -2.8706    0.2962 C   0  0  0  0  0  0  0  0  0  0  0  0
    4.7257   -2.1860    0.8651 C   0  0  0  0  0  0  0  0  0  0  0  0
    4.9353   -1.1462    2.1652 S   0  0  0  0  0  0  0  0  0  0  0  0
    1.7044   -1.7304    1.3609 C   0  0  0  0  0  0  0  0  0  0  0  0
    1.6527   -0.3527    0.7043 C   0  0  0  0  0  0  0  0  0  0  0  0
   -1.0688   -3.6294    0.7213 C   0  0  0  0  0  0  0  0  0  0  0  0
   -1.7997   -2.7072    1.7006 C   0  0  0  0  0  0  0  0  0  0  0  0
   -6.8106   -1.6225   -1.5099 C   0  0  0  0  0  0  0  0  0  0  0  0
   -7.2048   -0.6328   -0.6878 C   0  0  0  0  0  0  0  0  0  0  0  0
   -6.3470    0.4480   -0.1773 C   0  0  0  0  0  0  0  0  0  0  0  0
   -5.0914    0.5116   -0.2418 O   0  0  0  0  0  0  0  0  0  0  0  0
   -7.1954    1.5061    0.3246 C   0  0  0  0  0  0  0  0  0  0  0  0
   -6.8132    2.7416    0.8550 C   0  0  0  0  0  0  0  0  0  0  0  0
   -5.5024    3.0679    0.9991 F   0  0  0  0  0  0  0  0  0  0  0  0
   -7.8125    3.6479    1.2340 C   0  0  0  0  0  0  0  0  0  0  0  0
   -9.1652    3.3163    1.0599 C   0  0  0  0  0  0  0  0  0  0  0  0
   -9.5319    2.0683    0.5236 C   0  0  0  0  0  0  0  0  0  0  0  0
   -8.5264    1.1512    0.1683 C   0  0  0  0  0  0  0  0  0  0  0  0
   -8.6152   -0.2331   -0.3852 C   0  0  0  0  0  0  0  0  0  0  0  0
   -9.7137   -1.0326   -0.4250 C   0  0  0  0  0  0  0  0  0  0  0  0
   -9.6323   -2.4365   -0.7179 C   0  0  0  0  0  0  0  0  0  0  0  0
   -9.5803   -3.5688   -0.9482 N   0  0  0  0  0  0  0  0  0  0  0  0
  -11.0297   -0.5656   -0.0907 C   0  0  0  0  0  0  0  0  0  0  0  0
  -12.0949   -0.2000    0.1777 N   0  0  0  0  0  0  0  0  0  0  0  0
    8.3275    0.0676    2.5830 H   0  0  0  0  0  0  0  0  0  0  0  0
    4.0635    4.4667    1.3925 H   0  0  0  0  0  0  0  0  0  0  0  0
    8.3377    5.5219    3.7173 H   0  0  0  0  0  0  0  0  0  0  0  0
    7.9634   -1.2173   -1.3509 H   0  0  0  0  0  0  0  0  0  0  0  0
    8.4611   -0.0012   -0.1304 H   0  0  0  0  0  0  0  0  0  0  0  0
    8.9283   -3.0547    0.0524 H   0  0  0  0  0  0  0  0  0  0  0  0
   10.1619   -1.8030   -0.3548 H   0  0  0  0  0  0  0  0  0  0  0  0
    9.4301   -1.8393    1.2954 H   0  0  0  0  0  0  0  0  0  0  0  0
   -4.9772   -2.3062   -5.1575 H   0  0  0  0  0  0  0  0  0  0  0  0
   -6.5348   -2.0394   -4.3083 H   0  0  0  0  0  0  0  0  0  0  0  0
   -4.2914    0.0758   -4.5696 H   0  0  0  0  0  0  0  0  0  0  0  0
   -5.9383    0.3284   -3.8567 H   0  0  0  0  0  0  0  0  0  0  0  0
   -5.7550   -0.0280   -5.6182 H   0  0  0  0  0  0  0  0  0  0  0  0
    2.2675   -1.6772    2.3135 H   0  0  0  0  0  0  0  0  0  0  0  0
    0.6919   -2.0188    1.6554 H   0  0  0  0  0  0  0  0  0  0  0  0
    1.2775    0.3955    1.4355 H   0  0  0  0  0  0  0  0  0  0  0  0
    0.9683   -0.3731   -0.1694 H   0  0  0  0  0  0  0  0  0  0  0  0
    2.6627   -0.0466    0.3637 H   0  0  0  0  0  0  0  0  0  0  0  0
   -1.7024   -4.5184    0.5049 H   0  0  0  0  0  0  0  0  0  0  0  0
   -0.1478   -4.0285    1.1979 H   0  0  0  0  0  0  0  0  0  0  0  0
   -2.8670   -2.9887    1.7757 H   0  0  0  0  0  0  0  0  0  0  0  0
   -1.3669   -2.8084    2.7168 H   0  0  0  0  0  0  0  0  0  0  0  0
   -1.7222   -1.6434    1.3942 H   0  0  0  0  0  0  0  0  0  0  0  0
   -7.5397   -2.1674   -2.0852 H   0  0  0  0  0  0  0  0  0  0  0  0
   -7.5418    4.6086    1.6541 H   0  0  0  0  0  0  0  0  0  0  0  0
   -9.9345    4.0278    1.3394 H   0  0  0  0  0  0  0  0  0  0  0  0
  -10.5744    1.8672    0.3773 H   0  0  0  0  0  0  0  0  0  0  0  0
  1  2  2  3
  2  3  1  0
  3  4  2  0
  3  5  1  0
  5  6  2  0
  6  7  1  0
  7  8  1  0
  7  9  2  0
  9 10  1  0
  9 11  1  0
 11 12  2  0
 12 13  1  0
 13 14  2  3
 14 15  1  0
 15 16  3  0
 14 17  1  0
 17 18  3  0
  1 19  1  0
 19 20  2  0
 20 21  1  0
 21 22  1  0
 20 23  1  0
 23 24  1  0
 24 25  1  0
 25 26  1  0
 26 27  1  0
 27 28  1  0
 28 29  2  0
 29 30  1  0
 30 31  1  0
 28 32  1  0
 32 33  1  0
 33 34  1  0
 34 35  1  0
 35 36  1  0
 36 37  1  0
 37 38  1  0
 36 39  2  0
 39 40  1  0
 40 41  1  0
 41 42  1  0
 42 43  1  0
 43 44  1  0
 44 45  1  0
 45 46  1  0
 46 47  1  0
 47 48  1  0
 48 49  1  0
 46 50  1  0
 50 51  1  0
 43 52  1  0
 52 53  1  0
 39 54  1  0
 54 55  2  3
 55 56  1  0
 56 57  2  0
 56 58  1  0
 58 59  2  0
 59 60  1  0
 59 61  1  0
 61 62  2  0
 62 63  1  0
 63 64  2  0
 64 65  1  0
 65 66  2  3
 66 67  1  0
 67 68  3  0
 66 69  1  0
 69 70  3  0
 13  2  1  0
 49 19  1  0
 65 55  1  0
 12  5  1  0
 48 23  2  0
 64 58  1  0
 47 25  2  0
 45 26  2  0
 31 27  2  0
 44 32  2  0
 42 33  2  0
 41 35  2  0
  1 71  1  0
  6 72  1  0
 11 73  1  0
 21 74  1  0
 21 75  1  0
 22 76  1  0
 22 77  1  0
 22 78  1  0
 37 79  1  0
 37 80  1  0
 38 81  1  0
 38 82  1  0
 38 83  1  0
 50 84  1  0
 50 85  1  0
 51 86  1  0
 51 87  1  0
 51 88  1  0
 52 89  1  0
 52 90  1  0
 53 91  1  0
 53 92  1  0
 53 93  1  0
 54 94  1  0
 61 95  1  0
 62 96  1  0
 63 97  1  0
M  END

