
     RDKit          3D

 97108  0  0  0  0  0  0  0  0999 V2000
   -3.4078    5.3457   -3.0730 C   0  0  0  0  0  0  0  0  0  0  0  0
   -4.2562    6.1341   -2.3889 C   0  0  0  0  0  0  0  0  0  0  0  0
   -4.0433    6.6303   -1.0278 C   0  0  0  0  0  0  0  0  0  0  0  0
   -2.9496    6.6584   -0.4047 O   0  0  0  0  0  0  0  0  0  0  0  0
   -5.3033    7.1226   -0.5203 C   0  0  0  0  0  0  0  0  0  0  0  0
   -5.5846    7.6191    0.7537 C   0  0  0  0  0  0  0  0  0  0  0  0
   -6.9027    7.9866    1.0547 C   0  0  0  0  0  0  0  0  0  0  0  0
   -7.2813    8.6047    2.6519 Cl  0  0  0  0  0  0  0  0  0  0  0  0
   -7.9161    7.8387    0.0879 C   0  0  0  0  0  0  0  0  0  0  0  0
   -9.1983    8.1680    0.3936 F   0  0  0  0  0  0  0  0  0  0  0  0
   -7.6077    7.3431   -1.1941 C   0  0  0  0  0  0  0  0  0  0  0  0
   -6.2759    7.0052   -1.4985 C   0  0  0  0  0  0  0  0  0  0  0  0
   -5.6585    6.4958   -2.7606 C   0  0  0  0  0  0  0  0  0  0  0  0
   -6.1725    6.5859   -4.0166 C   0  0  0  0  0  0  0  0  0  0  0  0
   -7.5040    7.0715   -4.2746 C   0  0  0  0  0  0  0  0  0  0  0  0
   -8.5670    7.4610   -4.5100 N   0  0  0  0  0  0  0  0  0  0  0  0
   -5.3745    6.3690   -5.1968 C   0  0  0  0  0  0  0  0  0  0  0  0
   -4.7357    6.2081   -6.1503 N   0  0  0  0  0  0  0  0  0  0  0  0
   -2.0998    4.9250   -2.5509 C   0  0  0  0  0  0  0  0  0  0  0  0
   -0.8574    5.2404   -3.1252 C   0  0  0  0  0  0  0  0  0  0  0  0
   -0.6595    6.1623   -4.2960 C   0  0  0  0  0  0  0  0  0  0  0  0
   -0.4971    7.6011   -3.8193 C   0  0  0  0  0  0  0  0  0  0  0  0
    0.1834    4.6340   -2.4187 C   0  0  0  0  0  0  0  0  0  0  0  0
    1.8676    4.5600   -2.6603 S   0  0  0  0  0  0  0  0  0  0  0  0
    2.0382    3.5030   -1.3458 C   0  0  0  0  0  0  0  0  0  0  0  0
    2.9646    2.5998   -0.9164 C   0  0  0  0  0  0  0  0  0  0  0  0
    4.2230    2.3001   -1.4511 C   0  0  0  0  0  0  0  0  0  0  0  0
    4.8687    1.1014   -1.0418 C   0  0  0  0  0  0  0  0  0  0  0  0
    6.0582    0.8085   -1.6204 N   0  0  0  0  0  0  0  0  0  0  0  0
    6.2069    2.1242   -2.6215 S   0  0  0  0  0  0  0  0  0  0  0  0
    4.8516    3.0481   -2.3950 N   0  0  0  0  0  0  0  0  0  0  0  0
    4.2487    0.2993   -0.0842 C   0  0  0  0  0  0  0  0  0  0  0  0
    4.6094   -0.9120    0.4305 C   0  0  0  0  0  0  0  0  0  0  0  0
    5.6506   -2.1906    0.0411 S   0  0  0  0  0  0  0  0  0  0  0  0
    4.7997   -3.2367    1.0862 C   0  0  0  0  0  0  0  0  0  0  0  0
    4.7768   -4.6277    1.2078 C   0  0  0  0  0  0  0  0  0  0  0  0
    5.7759   -5.5497    0.5619 C   0  0  0  0  0  0  0  0  0  0  0  0
    6.8078   -6.0197    1.5793 C   0  0  0  0  0  0  0  0  0  0  0  0
    3.6561   -5.0386    1.9537 C   0  0  0  0  0  0  0  0  0  0  0  0
    2.7181   -3.6904    2.4154 S   0  0  0  0  0  0  0  0  0  0  0  0
    3.7541   -2.5886    1.6962 C   0  0  0  0  0  0  0  0  0  0  0  0
    3.6519   -1.2648    1.3107 C   0  0  0  0  0  0  0  0  0  0  0  0
    2.6664   -0.3445    1.4294 N   0  0  0  0  0  0  0  0  0  0  0  0
    3.0004    0.6096    0.4919 C   0  0  0  0  0  0  0  0  0  0  0  0
    2.2944    1.7533   -0.0040 C   0  0  0  0  0  0  0  0  0  0  0  0
    0.9554    2.0877    0.0450 N   0  0  0  0  0  0  0  0  0  0  0  0
    0.8560    3.1692   -0.7742 C   0  0  0  0  0  0  0  0  0  0  0  0
   -0.2135    3.8200   -1.3854 C   0  0  0  0  0  0  0  0  0  0  0  0
   -1.8896    3.8309   -1.2581 S   0  0  0  0  0  0  0  0  0  0  0  0
   -0.1939    1.2777    0.4697 C   0  0  0  0  0  0  0  0  0  0  0  0
   -0.2797   -0.0265   -0.3234 C   0  0  0  0  0  0  0  0  0  0  0  0
    1.7938   -0.2682    2.6094 C   0  0  0  0  0  0  0  0  0  0  0  0
    1.9402    1.0661    3.3398 C   0  0  0  0  0  0  0  0  0  0  0  0
    3.2238   -6.4269    2.1727 C   0  0  0  0  0  0  0  0  0  0  0  0
    2.7072   -7.1839    1.1884 C   0  0  0  0  0  0  0  0  0  0  0  0
    2.3596   -6.7041   -0.1563 C   0  0  0  0  0  0  0  0  0  0  0  0
    2.6516   -5.5829   -0.6588 O   0  0  0  0  0  0  0  0  0  0  0  0
    1.5171   -7.6911   -0.7864 C   0  0  0  0  0  0  0  0  0  0  0  0
    0.8920   -7.6134   -2.0301 C   0  0  0  0  0  0  0  0  0  0  0  0
    0.0501   -8.6600   -2.4252 C   0  0  0  0  0  0  0  0  0  0  0  0
   -0.1733   -9.7483   -1.5649 C   0  0  0  0  0  0  0  0  0  0  0  0
   -1.4716  -11.3059   -2.1508 I   0  0  0  0  0  0  0  0  0  0  0  0
    0.4680   -9.8065   -0.3134 C   0  0  0  0  0  0  0  0  0  0  0  0
    1.3329   -8.7660    0.0661 C   0  0  0  0  0  0  0  0  0  0  0  0
    2.1268   -8.5586    1.3125 C   0  0  0  0  0  0  0  0  0  0  0  0
    2.4276   -9.4899    2.2596 C   0  0  0  0  0  0  0  0  0  0  0  0
    3.4374   -9.2617    3.2664 C   0  0  0  0  0  0  0  0  0  0  0  0
    4.2514   -9.0777    4.0696 N   0  0  0  0  0  0  0  0  0  0  0  0
    1.8365  -10.8009    2.2835 C   0  0  0  0  0  0  0  0  0  0  0  0
    1.3543  -11.8532    2.3175 N   0  0  0  0  0  0  0  0  0  0  0  0
   -3.6884    4.9390   -4.0290 H   0  0  0  0  0  0  0  0  0  0  0  0
   -4.8054    7.7019    1.5025 H   0  0  0  0  0  0  0  0  0  0  0  0
   -8.4079    7.2134   -1.9049 H   0  0  0  0  0  0  0  0  0  0  0  0
    0.2430    5.8663   -4.8708 H   0  0  0  0  0  0  0  0  0  0  0  0
   -1.5254    6.0931   -4.9885 H   0  0  0  0  0  0  0  0  0  0  0  0
   -1.3921    7.9249   -3.2442 H   0  0  0  0  0  0  0  0  0  0  0  0
   -0.3784    8.2729   -4.6935 H   0  0  0  0  0  0  0  0  0  0  0  0
    0.4068    7.6970   -3.1814 H   0  0  0  0  0  0  0  0  0  0  0  0
    5.2547   -6.4300    0.1335 H   0  0  0  0  0  0  0  0  0  0  0  0
    6.2892   -5.0353   -0.2805 H   0  0  0  0  0  0  0  0  0  0  0  0
    7.3107   -5.1515    2.0394 H   0  0  0  0  0  0  0  0  0  0  0  0
    6.3195   -6.6270    2.3703 H   0  0  0  0  0  0  0  0  0  0  0  0
    7.5704   -6.6435    1.0731 H   0  0  0  0  0  0  0  0  0  0  0  0
   -0.1953    1.1195    1.5543 H   0  0  0  0  0  0  0  0  0  0  0  0
   -1.1338    1.8330    0.3112 H   0  0  0  0  0  0  0  0  0  0  0  0
   -1.2173   -0.5542   -0.0664 H   0  0  0  0  0  0  0  0  0  0  0  0
   -0.2684    0.2023   -1.4097 H   0  0  0  0  0  0  0  0  0  0  0  0
    0.5625   -0.7072   -0.0772 H   0  0  0  0  0  0  0  0  0  0  0  0
    0.7531   -0.5336    2.3567 H   0  0  0  0  0  0  0  0  0  0  0  0
    2.0892   -1.0434    3.3461 H   0  0  0  0  0  0  0  0  0  0  0  0
    1.3494    1.0405    4.2810 H   0  0  0  0  0  0  0  0  0  0  0  0
    1.5879    1.9155    2.7183 H   0  0  0  0  0  0  0  0  0  0  0  0
    3.0049    1.2316    3.6002 H   0  0  0  0  0  0  0  0  0  0  0  0
    3.2026   -6.7678    3.1953 H   0  0  0  0  0  0  0  0  0  0  0  0
    1.0543   -6.7632   -2.6733 H   0  0  0  0  0  0  0  0  0  0  0  0
   -0.4551   -8.6127   -3.3849 H   0  0  0  0  0  0  0  0  0  0  0  0
    0.2410  -10.6299    0.3386 H   0  0  0  0  0  0  0  0  0  0  0  0
  1  2  2  3
  2  3  1  0
  3  4  2  0
  3  5  1  0
  5  6  2  0
  6  7  1  0
  7  8  1  0
  7  9  2  0
  9 10  1  0
  9 11  1  0
 11 12  2  0
 12 13  1  0
 13 14  2  3
 14 15  1  0
 15 16  3  0
 14 17  1  0
 17 18  3  0
  1 19  1  0
 19 20  2  0
 20 21  1  0
 21 22  1  0
 20 23  1  0
 23 24  1  0
 24 25  1  0
 25 26  1  0
 26 27  1  0
 27 28  1  0
 28 29  2  0
 29 30  1  0
 30 31  1  0
 28 32  1  0
 32 33  1  0
 33 34  1  0
 34 35  1  0
 35 36  1  0
 36 37  1  0
 37 38  1  0
 36 39  2  0
 39 40  1  0
 40 41  1  0
 41 42  1  0
 42 43  1  0
 43 44  1  0
 44 45  1  0
 45 46  1  0
 46 47  1  0
 47 48  1  0
 48 49  1  0
 46 50  1  0
 50 51  1  0
 43 52  1  0
 52 53  1  0
 39 54  1  0
 54 55  2  3
 55 56  1  0
 56 57  2  0
 56 58  1  0
 58 59  2  0
 59 60  1  0
 60 61  2  0
 61 62  1  0
 61 63  1  0
 63 64  2  0
 64 65  1  0
 65 66  2  3
 66 67  1  0
 67 68  3  0
 66 69  1  0
 69 70  3  0
 13  2  1  0
 49 19  1  0
 65 55  1  0
 12  5  1  0
 48 23  2  0
 64 58  1  0
 47 25  2  0
 45 26  2  0
 31 27  2  0
 44 32  2  0
 42 33  2  0
 41 35  2  0
  1 71  1  0
  6 72  1  0
 11 73  1  0
 21 74  1  0
 21 75  1  0
 22 76  1  0
 22 77  1  0
 22 78  1  0
 37 79  1  0
 37 80  1  0
 38 81  1  0
 38 82  1  0
 38 83  1  0
 50 84  1  0
 50 85  1  0
 51 86  1  0
 51 87  1  0
 51 88  1  0
 52 89  1  0
 52 90  1  0
 53 91  1  0
 53 92  1  0
 53 93  1  0
 54 94  1  0
 59 95  1  0
 60 96  1  0
 63 97  1  0
M  END

