
     RDKit          3D

 97108  0  0  0  0  0  0  0  0999 V2000
    6.2239    1.6082   -4.4468 C   0  0  0  0  0  0  0  0  0  0  0  0
    5.9793    2.8587   -4.8766 C   0  0  0  0  0  0  0  0  0  0  0  0
    6.3923    3.2793   -6.2182 C   0  0  0  0  0  0  0  0  0  0  0  0
    7.4080    2.8691   -6.8443 O   0  0  0  0  0  0  0  0  0  0  0  0
    5.3518    4.1285   -6.7659 C   0  0  0  0  0  0  0  0  0  0  0  0
    5.1931    4.5791   -8.0756 C   0  0  0  0  0  0  0  0  0  0  0  0
    4.0150    5.2692   -8.4060 C   0  0  0  0  0  0  0  0  0  0  0  0
    3.7782    5.8337  -10.0512 Cl  0  0  0  0  0  0  0  0  0  0  0  0
    3.0137    5.4682   -7.4315 C   0  0  0  0  0  0  0  0  0  0  0  0
    1.8592    6.0981   -7.7611 F   0  0  0  0  0  0  0  0  0  0  0  0
    3.1928    4.9986   -6.1196 C   0  0  0  0  0  0  0  0  0  0  0  0
    4.3845    4.3388   -5.7985 C   0  0  0  0  0  0  0  0  0  0  0  0
    4.8183    3.7187   -4.5252 C   0  0  0  0  0  0  0  0  0  0  0  0
    4.6130    4.2550   -3.3011 C   0  0  0  0  0  0  0  0  0  0  0  0
    3.6094    5.2570   -3.0596 C   0  0  0  0  0  0  0  0  0  0  0  0
    2.8047    6.0645   -2.8598 N   0  0  0  0  0  0  0  0  0  0  0  0
    5.5267    3.9936   -2.2137 C   0  0  0  0  0  0  0  0  0  0  0  0
    6.2620    3.7810   -1.3462 N   0  0  0  0  0  0  0  0  0  0  0  0
    5.2048    0.7569   -3.7909 C   0  0  0  0  0  0  0  0  0  0  0  0
    4.7590   -0.4805   -4.3046 C   0  0  0  0  0  0  0  0  0  0  0  0
    5.2028   -1.0885   -5.6083 C   0  0  0  0  0  0  0  0  0  0  0  0
    4.4989   -0.4137   -6.7820 C   0  0  0  0  0  0  0  0  0  0  0  0
    3.7433   -1.0148   -3.5118 C   0  0  0  0  0  0  0  0  0  0  0  0
    2.8045   -2.4372   -3.6186 S   0  0  0  0  0  0  0  0  0  0  0  0
    1.9375   -1.9872   -2.2308 C   0  0  0  0  0  0  0  0  0  0  0  0
    1.0820   -2.5564   -1.3368 C   0  0  0  0  0  0  0  0  0  0  0  0
    0.5672   -3.8533   -1.2546 C   0  0  0  0  0  0  0  0  0  0  0  0
   -0.1322   -4.2387   -0.0745 C   0  0  0  0  0  0  0  0  0  0  0  0
   -0.6124   -5.5057   -0.0298 N   0  0  0  0  0  0  0  0  0  0  0  0
   -0.0879   -6.0543   -1.5037 S   0  0  0  0  0  0  0  0  0  0  0  0
    0.7115   -4.7931   -2.2212 N   0  0  0  0  0  0  0  0  0  0  0  0
   -0.3004   -3.2948    0.9430 C   0  0  0  0  0  0  0  0  0  0  0  0
   -1.0662   -3.3171    2.0734 C   0  0  0  0  0  0  0  0  0  0  0  0
   -2.2471   -4.3215    2.7703 S   0  0  0  0  0  0  0  0  0  0  0  0
   -2.7834   -3.0439    3.7646 C   0  0  0  0  0  0  0  0  0  0  0  0
   -3.8046   -2.9204    4.7070 C   0  0  0  0  0  0  0  0  0  0  0  0
   -4.7238   -4.0431    5.1013 C   0  0  0  0  0  0  0  0  0  0  0  0
   -6.0168   -3.9955    4.2943 C   0  0  0  0  0  0  0  0  0  0  0  0
   -3.9093   -1.5913    5.1662 C   0  0  0  0  0  0  0  0  0  0  0  0
   -2.7058   -0.6325    4.4299 S   0  0  0  0  0  0  0  0  0  0  0  0
   -2.0941   -1.8879    3.5090 C   0  0  0  0  0  0  0  0  0  0  0  0
   -1.1033   -2.0480    2.5524 C   0  0  0  0  0  0  0  0  0  0  0  0
   -0.4055   -1.1710    1.7871 N   0  0  0  0  0  0  0  0  0  0  0  0
    0.1682   -1.9748    0.8316 C   0  0  0  0  0  0  0  0  0  0  0  0
    0.9579   -1.6258   -0.2929 C   0  0  0  0  0  0  0  0  0  0  0  0
    1.8039   -0.5582   -0.4800 N   0  0  0  0  0  0  0  0  0  0  0  0
    2.3521   -0.8132   -1.6957 C   0  0  0  0  0  0  0  0  0  0  0  0
    3.4010   -0.2645   -2.4176 C   0  0  0  0  0  0  0  0  0  0  0  0
    4.3418    1.1131   -2.3619 S   0  0  0  0  0  0  0  0  0  0  0  0
    2.4483    0.2566    0.5614 C   0  0  0  0  0  0  0  0  0  0  0  0
    2.2774    1.7571    0.2930 C   0  0  0  0  0  0  0  0  0  0  0  0
   -0.7754    0.2439    1.6424 C   0  0  0  0  0  0  0  0  0  0  0  0
   -2.0762    0.3922    0.8510 C   0  0  0  0  0  0  0  0  0  0  0  0
   -4.8378   -1.1533    6.2241 C   0  0  0  0  0  0  0  0  0  0  0  0
   -5.9558   -0.4471    5.9793 C   0  0  0  0  0  0  0  0  0  0  0  0
   -7.2031   -0.7144    6.6974 C   0  0  0  0  0  0  0  0  0  0  0  0
   -7.3049   -1.2098    7.8501 O   0  0  0  0  0  0  0  0  0  0  0  0
   -8.3058   -0.4385    5.7967 C   0  0  0  0  0  0  0  0  0  0  0  0
   -9.6720   -0.6502    5.9995 C   0  0  0  0  0  0  0  0  0  0  0  0
  -10.5524   -0.3588    4.9482 C   0  0  0  0  0  0  0  0  0  0  0  0
  -10.0566    0.1135    3.7191 C   0  0  0  0  0  0  0  0  0  0  0  0
   -8.6787    0.3173    3.5360 C   0  0  0  0  0  0  0  0  0  0  0  0
   -7.8097    0.0557    4.6025 C   0  0  0  0  0  0  0  0  0  0  0  0
   -6.3397    0.2359    4.7127 C   0  0  0  0  0  0  0  0  0  0  0  0
   -5.6622    1.2741    4.1731 C   0  0  0  0  0  0  0  0  0  0  0  0
   -4.5351    1.8591    4.8562 C   0  0  0  0  0  0  0  0  0  0  0  0
   -3.6359    2.3387    5.4052 N   0  0  0  0  0  0  0  0  0  0  0  0
   -6.1548    2.0089    3.0356 C   0  0  0  0  0  0  0  0  0  0  0  0
   -6.5431    2.6105    2.1256 N   0  0  0  0  0  0  0  0  0  0  0  0
    7.0393    1.0739   -4.9245 H   0  0  0  0  0  0  0  0  0  0  0  0
    5.9538    4.3836   -8.8214 H   0  0  0  0  0  0  0  0  0  0  0  0
    2.3970    5.1166   -5.3972 H   0  0  0  0  0  0  0  0  0  0  0  0
    4.9624   -2.1730   -5.6213 H   0  0  0  0  0  0  0  0  0  0  0  0
    6.3030   -0.9905   -5.7256 H   0  0  0  0  0  0  0  0  0  0  0  0
    3.3987   -0.4621   -6.6531 H   0  0  0  0  0  0  0  0  0  0  0  0
    4.8048    0.6511   -6.8535 H   0  0  0  0  0  0  0  0  0  0  0  0
    4.7699   -0.9290   -7.7274 H   0  0  0  0  0  0  0  0  0  0  0  0
   -4.9614   -3.9682    6.1823 H   0  0  0  0  0  0  0  0  0  0  0  0
   -4.2214   -5.0220    4.9366 H   0  0  0  0  0  0  0  0  0  0  0  0
   -6.5228   -3.0147    4.4209 H   0  0  0  0  0  0  0  0  0  0  0  0
   -6.7008   -4.7917    4.6492 H   0  0  0  0  0  0  0  0  0  0  0  0
   -5.8046   -4.1626    3.2181 H   0  0  0  0  0  0  0  0  0  0  0  0
    2.0489    0.0011    1.5672 H   0  0  0  0  0  0  0  0  0  0  0  0
    3.5329    0.0117    0.6016 H   0  0  0  0  0  0  0  0  0  0  0  0
    1.9993    2.2802    1.2311 H   0  0  0  0  0  0  0  0  0  0  0  0
    1.4944    1.9496   -0.4707 H   0  0  0  0  0  0  0  0  0  0  0  0
    3.2271    2.2010   -0.0612 H   0  0  0  0  0  0  0  0  0  0  0  0
   -0.0066    0.8038    1.1010 H   0  0  0  0  0  0  0  0  0  0  0  0
   -0.8918    0.7126    2.6451 H   0  0  0  0  0  0  0  0  0  0  0  0
   -2.9168   -0.1203    1.3673 H   0  0  0  0  0  0  0  0  0  0  0  0
   -1.9539   -0.0474   -0.1654 H   0  0  0  0  0  0  0  0  0  0  0  0
   -2.3257    1.4703    0.7496 H   0  0  0  0  0  0  0  0  0  0  0  0
   -4.7977   -1.7278    7.1414 H   0  0  0  0  0  0  0  0  0  0  0  0
  -10.0409   -1.0395    6.9414 H   0  0  0  0  0  0  0  0  0  0  0  0
  -11.6152   -0.5163    5.0799 H   0  0  0  0  0  0  0  0  0  0  0  0
  -10.7440    0.3088    2.9042 H   0  0  0  0  0  0  0  0  0  0  0  0
   -8.3169    0.6435    2.5737 H   0  0  0  0  0  0  0  0  0  0  0  0
  1  2  2  3
  2  3  1  0
  3  4  2  0
  3  5  1  0
  5  6  2  0
  6  7  1  0
  7  8  1  0
  7  9  2  0
  9 10  1  0
  9 11  1  0
 11 12  2  0
 12 13  1  0
 13 14  2  3
 14 15  1  0
 15 16  3  0
 14 17  1  0
 17 18  3  0
  1 19  1  0
 19 20  2  0
 20 21  1  0
 21 22  1  0
 20 23  1  0
 23 24  1  0
 24 25  1  0
 25 26  1  0
 26 27  1  0
 27 28  1  0
 28 29  2  0
 29 30  1  0
 30 31  1  0
 28 32  1  0
 32 33  1  0
 33 34  1  0
 34 35  1  0
 35 36  1  0
 36 37  1  0
 37 38  1  0
 36 39  2  0
 39 40  1  0
 40 41  1  0
 41 42  1  0
 42 43  1  0
 43 44  1  0
 44 45  1  0
 45 46  1  0
 46 47  1  0
 47 48  1  0
 48 49  1  0
 46 50  1  0
 50 51  1  0
 43 52  1  0
 52 53  1  0
 39 54  1  0
 54 55  2  3
 55 56  1  0
 56 57  2  0
 56 58  1  0
 58 59  2  0
 59 60  1  0
 60 61  2  0
 61 62  1  0
 62 63  2  0
 63 64  1  0
 64 65  2  3
 65 66  1  0
 66 67  3  0
 65 68  1  0
 68 69  3  0
 13  2  1  0
 49 19  1  0
 64 55  1  0
 12  5  1  0
 48 23  2  0
 63 58  1  0
 47 25  2  0
 45 26  2  0
 31 27  2  0
 44 32  2  0
 42 33  2  0
 41 35  2  0
  1 70  1  0
  6 71  1  0
 11 72  1  0
 21 73  1  0
 21 74  1  0
 22 75  1  0
 22 76  1  0
 22 77  1  0
 37 78  1  0
 37 79  1  0
 38 80  1  0
 38 81  1  0
 38 82  1  0
 50 83  1  0
 50 84  1  0
 51 85  1  0
 51 86  1  0
 51 87  1  0
 52 88  1  0
 52 89  1  0
 53 90  1  0
 53 91  1  0
 53 92  1  0
 54 93  1  0
 59 94  1  0
 60 95  1  0
 61 96  1  0
 62 97  1  0
M  END

