
     RDKit          3D

 91100  0  0  0  0  0  0  0  0999 V2000
   -1.4420   -4.0416    4.8901 C   0  0  0  0  0  0  0  0  0  0  0  0
   -2.6511   -4.0805    5.4772 C   0  0  0  0  0  0  0  0  0  0  0  0
   -3.9399   -4.0589    4.7749 C   0  0  0  0  0  0  0  0  0  0  0  0
   -4.1369   -3.7135    3.5798 O   0  0  0  0  0  0  0  0  0  0  0  0
   -4.9515   -4.5773    5.6710 C   0  0  0  0  0  0  0  0  0  0  0  0
   -6.2886   -4.8546    5.3923 C   0  0  0  0  0  0  0  0  0  0  0  0
   -7.0753   -5.4394    6.3942 C   0  0  0  0  0  0  0  0  0  0  0  0
   -8.7645   -5.7919    6.0806 Cl  0  0  0  0  0  0  0  0  0  0  0  0
   -6.5039   -5.7612    7.6400 C   0  0  0  0  0  0  0  0  0  0  0  0
   -7.2563   -6.3485    8.6028 F   0  0  0  0  0  0  0  0  0  0  0  0
   -5.1509   -5.4864    7.8954 C   0  0  0  0  0  0  0  0  0  0  0  0
   -4.3802   -4.8655    6.8991 C   0  0  0  0  0  0  0  0  0  0  0  0
   -2.9424   -4.4749    6.8875 C   0  0  0  0  0  0  0  0  0  0  0  0
   -2.1362   -4.2825    7.9640 C   0  0  0  0  0  0  0  0  0  0  0  0
   -0.8483   -3.6426    7.8568 C   0  0  0  0  0  0  0  0  0  0  0  0
    0.1862   -3.1252    7.7802 N   0  0  0  0  0  0  0  0  0  0  0  0
   -2.5495   -4.5846    9.3071 C   0  0  0  0  0  0  0  0  0  0  0  0
   -2.8661   -4.8211   10.3941 N   0  0  0  0  0  0  0  0  0  0  0  0
   -1.2515   -3.7642    3.4610 C   0  0  0  0  0  0  0  0  0  0  0  0
   -0.9074   -4.7140    2.4873 C   0  0  0  0  0  0  0  0  0  0  0  0
   -0.7629   -6.1886    2.7405 C   0  0  0  0  0  0  0  0  0  0  0  0
   -2.1175   -6.8822    2.6660 C   0  0  0  0  0  0  0  0  0  0  0  0
   -0.7552   -4.1054    1.2388 C   0  0  0  0  0  0  0  0  0  0  0  0
   -0.2560   -4.6878   -0.2827 S   0  0  0  0  0  0  0  0  0  0  0  0
   -0.3105   -3.1181   -0.9247 C   0  0  0  0  0  0  0  0  0  0  0  0
    0.1949   -2.4684   -2.0084 C   0  0  0  0  0  0  0  0  0  0  0  0
    0.9154   -2.9778   -3.0917 C   0  0  0  0  0  0  0  0  0  0  0  0
    1.5492   -2.0693   -3.9785 C   0  0  0  0  0  0  0  0  0  0  0  0
    2.2554   -2.5984   -5.0096 N   0  0  0  0  0  0  0  0  0  0  0  0
    2.0264   -4.2085   -4.7004 S   0  0  0  0  0  0  0  0  0  0  0  0
    1.0798   -4.2998   -3.3432 N   0  0  0  0  0  0  0  0  0  0  0  0
    1.4077   -0.7034   -3.7459 C   0  0  0  0  0  0  0  0  0  0  0  0
    1.8501    0.3562   -4.4731 C   0  0  0  0  0  0  0  0  0  0  0  0
    2.7367    0.6651   -5.8867 S   0  0  0  0  0  0  0  0  0  0  0  0
    2.4482    2.3380   -5.7218 C   0  0  0  0  0  0  0  0  0  0  0  0
    2.8421    3.4535   -6.4637 C   0  0  0  0  0  0  0  0  0  0  0  0
    3.7390    3.3860   -7.6688 C   0  0  0  0  0  0  0  0  0  0  0  0
    5.1933    3.5960   -7.2662 C   0  0  0  0  0  0  0  0  0  0  0  0
    2.3873    4.6411   -5.8607 C   0  0  0  0  0  0  0  0  0  0  0  0
    1.4640    4.2668   -4.4719 S   0  0  0  0  0  0  0  0  0  0  0  0
    1.6777    2.6115   -4.6194 C   0  0  0  0  0  0  0  0  0  0  0  0
    1.3407    1.4674   -3.9050 C   0  0  0  0  0  0  0  0  0  0  0  0
    0.5609    1.2068   -2.8233 N   0  0  0  0  0  0  0  0  0  0  0  0
    0.6479   -0.1671   -2.6823 C   0  0  0  0  0  0  0  0  0  0  0  0
    0.0751   -1.0870   -1.7360 C   0  0  0  0  0  0  0  0  0  0  0  0
   -0.4306   -0.9109   -0.4599 N   0  0  0  0  0  0  0  0  0  0  0  0
   -0.6594   -2.1770   -0.0189 C   0  0  0  0  0  0  0  0  0  0  0  0
   -0.9208   -2.7403    1.2297 C   0  0  0  0  0  0  0  0  0  0  0  0
   -1.2941   -2.2035    2.7767 S   0  0  0  0  0  0  0  0  0  0  0  0
   -0.4320    0.2679    0.4128 C   0  0  0  0  0  0  0  0  0  0  0  0
    0.9878    0.7570    0.6941 C   0  0  0  0  0  0  0  0  0  0  0  0
   -0.4050    2.1681   -2.2779 C   0  0  0  0  0  0  0  0  0  0  0  0
   -1.8440    1.7131   -2.5236 C   0  0  0  0  0  0  0  0  0  0  0  0
    2.5718    5.9995   -6.4077 C   0  0  0  0  0  0  0  0  0  0  0  0
    2.8625    7.0875   -5.6725 C   0  0  0  0  0  0  0  0  0  0  0  0
    2.8529    8.3753   -6.3172 C   0  0  0  0  0  0  0  0  0  0  0  0
    2.8455    9.4098   -6.8366 N   0  0  0  0  0  0  0  0  0  0  0  0
    3.2669    7.0364   -4.2541 C   0  0  0  0  0  0  0  0  0  0  0  0
    3.9085    6.0449   -3.8099 O   0  0  0  0  0  0  0  0  0  0  0  0
    2.9844    8.1275   -3.4225 O   0  0  0  0  0  0  0  0  0  0  0  0
    3.4115    8.2074   -2.0631 C   0  0  0  0  0  0  0  0  0  0  0  0
    4.8784    8.6102   -1.9908 C   0  0  0  0  0  0  0  0  0  0  0  0
   -0.5587   -4.3312    5.4361 H   0  0  0  0  0  0  0  0  0  0  0  0
   -6.7067   -4.6328    4.4206 H   0  0  0  0  0  0  0  0  0  0  0  0
   -4.7362   -5.7859    8.8417 H   0  0  0  0  0  0  0  0  0  0  0  0
   -0.0809   -6.6362    1.9881 H   0  0  0  0  0  0  0  0  0  0  0  0
   -0.3121   -6.3599    3.7420 H   0  0  0  0  0  0  0  0  0  0  0  0
   -2.5569   -6.7556    1.6519 H   0  0  0  0  0  0  0  0  0  0  0  0
   -2.8152   -6.4588    3.4191 H   0  0  0  0  0  0  0  0  0  0  0  0
   -1.9922   -7.9657    2.8690 H   0  0  0  0  0  0  0  0  0  0  0  0
    3.4436    4.1599   -8.4079 H   0  0  0  0  0  0  0  0  0  0  0  0
    3.6367    2.3967   -8.1641 H   0  0  0  0  0  0  0  0  0  0  0  0
    5.8415    3.5151   -8.1633 H   0  0  0  0  0  0  0  0  0  0  0  0
    5.5081    2.8228   -6.5333 H   0  0  0  0  0  0  0  0  0  0  0  0
    5.3261    4.6032   -6.8194 H   0  0  0  0  0  0  0  0  0  0  0  0
   -1.1014    1.0388    0.0182 H   0  0  0  0  0  0  0  0  0  0  0  0
   -0.8998    0.0329    1.3824 H   0  0  0  0  0  0  0  0  0  0  0  0
    0.9514    1.6838    1.3067 H   0  0  0  0  0  0  0  0  0  0  0  0
    1.5314    0.9739   -0.2475 H   0  0  0  0  0  0  0  0  0  0  0  0
    1.5443   -0.0194    1.2553 H   0  0  0  0  0  0  0  0  0  0  0  0
   -0.1754    2.4064   -1.2274 H   0  0  0  0  0  0  0  0  0  0  0  0
   -0.3035    3.1490   -2.7810 H   0  0  0  0  0  0  0  0  0  0  0  0
   -2.0449    1.6752   -3.6134 H   0  0  0  0  0  0  0  0  0  0  0  0
   -2.0287    0.7052   -2.0999 H   0  0  0  0  0  0  0  0  0  0  0  0
   -2.5512    2.4296   -2.0573 H   0  0  0  0  0  0  0  0  0  0  0  0
    2.4208    6.1146   -7.4748 H   0  0  0  0  0  0  0  0  0  0  0  0
    3.2528    7.2369   -1.5443 H   0  0  0  0  0  0  0  0  0  0  0  0
    2.8012    8.9768   -1.5442 H   0  0  0  0  0  0  0  0  0  0  0  0
    5.0134    9.6121   -2.4527 H   0  0  0  0  0  0  0  0  0  0  0  0
    5.5163    7.8758   -2.5260 H   0  0  0  0  0  0  0  0  0  0  0  0
    5.1969    8.6586   -0.9327 H   0  0  0  0  0  0  0  0  0  0  0  0
  1  2  2  3
  2  3  1  0
  3  4  2  0
  3  5  1  0
  5  6  2  0
  6  7  1  0
  7  8  1  0
  7  9  2  0
  9 10  1  0
  9 11  1  0
 11 12  2  0
 12 13  1  0
 13 14  2  3
 14 15  1  0
 15 16  3  0
 14 17  1  0
 17 18  3  0
  1 19  1  0
 19 20  2  0
 20 21  1  0
 21 22  1  0
 20 23  1  0
 23 24  1  0
 24 25  1  0
 25 26  1  0
 26 27  1  0
 27 28  1  0
 28 29  2  0
 29 30  1  0
 30 31  1  0
 28 32  1  0
 32 33  1  0
 33 34  1  0
 34 35  1  0
 35 36  1  0
 36 37  1  0
 37 38  1  0
 36 39  2  0
 39 40  1  0
 40 41  1  0
 41 42  1  0
 42 43  1  0
 43 44  1  0
 44 45  1  0
 45 46  1  0
 46 47  1  0
 47 48  1  0
 48 49  1  0
 46 50  1  0
 50 51  1  0
 43 52  1  0
 52 53  1  0
 39 54  1  0
 54 55  2  3
 55 56  1  0
 56 57  3  0
 55 58  1  0
 58 59  2  0
 58 60  1  0
 60 61  1  0
 61 62  1  0
 13  2  1  0
 49 19  1  0
 12  5  1  0
 48 23  2  0
 47 25  2  0
 45 26  2  0
 31 27  2  0
 44 32  2  0
 42 33  2  0
 41 35  2  0
  1 63  1  0
  6 64  1  0
 11 65  1  0
 21 66  1  0
 21 67  1  0
 22 68  1  0
 22 69  1  0
 22 70  1  0
 37 71  1  0
 37 72  1  0
 38 73  1  0
 38 74  1  0
 38 75  1  0
 50 76  1  0
 50 77  1  0
 51 78  1  0
 51 79  1  0
 51 80  1  0
 52 81  1  0
 52 82  1  0
 53 83  1  0
 53 84  1  0
 53 85  1  0
 54 86  1  0
 61 87  1  0
 61 88  1  0
 62 89  1  0
 62 90  1  0
 62 91  1  0
M  END

