
     RDKit          3D

 90100  0  0  0  0  0  0  0  0999 V2000
   -5.0103   -4.5533   -1.5062 C   0  0  0  0  0  0  0  0  0  0  0  0
   -6.2326   -4.0443   -1.2394 C   0  0  0  0  0  0  0  0  0  0  0  0
   -6.5670   -2.6194   -1.0980 C   0  0  0  0  0  0  0  0  0  0  0  0
   -5.7742   -1.6763   -0.8543 O   0  0  0  0  0  0  0  0  0  0  0  0
   -8.0013   -2.4801   -1.2099 C   0  0  0  0  0  0  0  0  0  0  0  0
   -8.7443   -1.3052   -1.1956 C   0  0  0  0  0  0  0  0  0  0  0  0
  -10.1416   -1.4015   -1.3103 C   0  0  0  0  0  0  0  0  0  0  0  0
  -11.1158    0.0547   -1.2648 Cl  0  0  0  0  0  0  0  0  0  0  0  0
  -10.7577   -2.6570   -1.4682 C   0  0  0  0  0  0  0  0  0  0  0  0
  -12.1082   -2.7511   -1.5851 F   0  0  0  0  0  0  0  0  0  0  0  0
   -9.9819   -3.8280   -1.4805 C   0  0  0  0  0  0  0  0  0  0  0  0
   -8.5868   -3.7293   -1.3331 C   0  0  0  0  0  0  0  0  0  0  0  0
   -7.5324   -4.7847   -1.2422 C   0  0  0  0  0  0  0  0  0  0  0  0
   -7.7135   -6.0952   -0.9381 C   0  0  0  0  0  0  0  0  0  0  0  0
   -6.6362   -6.9410   -0.4864 C   0  0  0  0  0  0  0  0  0  0  0  0
   -5.7742   -7.6221   -0.1149 N   0  0  0  0  0  0  0  0  0  0  0  0
   -9.0176   -6.7087   -0.8856 C   0  0  0  0  0  0  0  0  0  0  0  0
  -10.0560   -7.2165   -0.8341 N   0  0  0  0  0  0  0  0  0  0  0  0
   -3.7758   -3.7585   -1.5748 C   0  0  0  0  0  0  0  0  0  0  0  0
   -3.5547   -2.6336   -2.3773 C   0  0  0  0  0  0  0  0  0  0  0  0
   -2.2888   -2.1141   -2.1338 C   0  0  0  0  0  0  0  0  0  0  0  0
   -1.5288   -0.6890   -2.5972 S   0  0  0  0  0  0  0  0  0  0  0  0
   -0.1807   -0.9511   -1.5852 C   0  0  0  0  0  0  0  0  0  0  0  0
    0.8906   -0.0735   -1.3450 C   0  0  0  0  0  0  0  0  0  0  0  0
    0.9630    1.2256   -2.0257 C   0  0  0  0  0  0  0  0  0  0  0  0
    0.4613    2.6834   -1.3609 S   0  0  0  0  0  0  0  0  0  0  0  0
    0.8382    3.6291   -2.6977 C   0  0  0  0  0  0  0  0  0  0  0  0
    0.5657    5.1085   -2.7907 C   0  0  0  0  0  0  0  0  0  0  0  0
   -0.9313    5.3973   -2.8387 C   0  0  0  0  0  0  0  0  0  0  0  0
    1.3394    2.7984   -3.7048 C   0  0  0  0  0  0  0  0  0  0  0  0
    1.8189    3.3870   -5.2973 Cl  0  0  0  0  0  0  0  0  0  0  0  0
    1.4141    1.4491   -3.3221 C   0  0  0  0  0  0  0  0  0  0  0  0
    2.0275    0.1708   -4.3662 Cl  0  0  0  0  0  0  0  0  0  0  0  0
    1.8342   -0.4664   -0.3809 C   0  0  0  0  0  0  0  0  0  0  0  0
    1.6959   -1.6889    0.3074 C   0  0  0  0  0  0  0  0  0  0  0  0
    0.6378   -2.5737    0.0553 C   0  0  0  0  0  0  0  0  0  0  0  0
    0.5856   -3.8875    0.7101 C   0  0  0  0  0  0  0  0  0  0  0  0
    0.9072   -5.3349   -0.0749 S   0  0  0  0  0  0  0  0  0  0  0  0
    0.7871   -6.3211    1.2888 C   0  0  0  0  0  0  0  0  0  0  0  0
    0.9376   -7.8172    1.3042 C   0  0  0  0  0  0  0  0  0  0  0  0
    2.0538   -8.2898    0.3810 C   0  0  0  0  0  0  0  0  0  0  0  0
    0.4755   -5.5096    2.3816 C   0  0  0  0  0  0  0  0  0  0  0  0
    0.3723   -4.1495    2.0587 C   0  0  0  0  0  0  0  0  0  0  0  0
   -0.0186   -2.9094    3.2358 Cl  0  0  0  0  0  0  0  0  0  0  0  0
    0.2594   -6.1206    4.0230 Cl  0  0  0  0  0  0  0  0  0  0  0  0
   -0.3203   -2.1717   -0.8958 C   0  0  0  0  0  0  0  0  0  0  0  0
   -1.5290   -2.7926   -1.2284 C   0  0  0  0  0  0  0  0  0  0  0  0
   -2.3933   -4.1058   -0.6432 S   0  0  0  0  0  0  0  0  0  0  0  0
    2.9405   -1.8689    1.4601 S   0  0  0  0  0  0  0  0  0  0  0  0
    3.6226   -0.3771    1.0981 C   0  0  0  0  0  0  0  0  0  0  0  0
    4.6673    0.3499    1.6566 C   0  0  0  0  0  0  0  0  0  0  0  0
    4.7911    1.6089    1.0458 C   0  0  0  0  0  0  0  0  0  0  0  0
    3.6433    1.7321   -0.2094 S   0  0  0  0  0  0  0  0  0  0  0  0
    2.9484    0.2350    0.0841 C   0  0  0  0  0  0  0  0  0  0  0  0
    5.8230    2.5912    1.4385 C   0  0  0  0  0  0  0  0  0  0  0  0
    5.7265    3.9388    1.4376 C   0  0  0  0  0  0  0  0  0  0  0  0
    4.5129    4.7460    1.2176 C   0  0  0  0  0  0  0  0  0  0  0  0
    3.4390    4.3860    0.6742 O   0  0  0  0  0  0  0  0  0  0  0  0
    4.7293    6.0653    1.7632 C   0  0  0  0  0  0  0  0  0  0  0  0
    3.8210    7.1225    1.8315 C   0  0  0  0  0  0  0  0  0  0  0  0
    4.2213    8.2998    2.4866 C   0  0  0  0  0  0  0  0  0  0  0  0
    3.3678    9.3491    2.5892 F   0  0  0  0  0  0  0  0  0  0  0  0
    5.4960    8.3858    3.0754 C   0  0  0  0  0  0  0  0  0  0  0  0
    6.3960    7.3119    2.9921 C   0  0  0  0  0  0  0  0  0  0  0  0
    6.0038    6.1485    2.2988 C   0  0  0  0  0  0  0  0  0  0  0  0
    6.7406    4.8838    2.0182 C   0  0  0  0  0  0  0  0  0  0  0  0
    8.0883    4.6891    2.0850 C   0  0  0  0  0  0  0  0  0  0  0  0
    8.7226    3.5307    1.4982 C   0  0  0  0  0  0  0  0  0  0  0  0
    9.2277    2.5994    1.0229 N   0  0  0  0  0  0  0  0  0  0  0  0
    8.9908    5.6650    2.6409 C   0  0  0  0  0  0  0  0  0  0  0  0
    9.7285    6.4372    3.0890 N   0  0  0  0  0  0  0  0  0  0  0  0
   -4.8824   -5.6100   -1.6717 H   0  0  0  0  0  0  0  0  0  0  0  0
   -8.2415   -0.3424   -1.0903 H   0  0  0  0  0  0  0  0  0  0  0  0
  -10.4826   -4.7796   -1.6141 H   0  0  0  0  0  0  0  0  0  0  0  0
   -4.2839   -2.1929   -3.0471 H   0  0  0  0  0  0  0  0  0  0  0  0
    0.9969    5.6113   -1.9056 H   0  0  0  0  0  0  0  0  0  0  0  0
    1.0582    5.5383   -3.6925 H   0  0  0  0  0  0  0  0  0  0  0  0
   -1.4165    4.8075   -3.6404 H   0  0  0  0  0  0  0  0  0  0  0  0
   -1.0960    6.4796   -3.0464 H   0  0  0  0  0  0  0  0  0  0  0  0
   -1.4104    5.1488   -1.8624 H   0  0  0  0  0  0  0  0  0  0  0  0
   -0.0178   -8.2829    0.9879 H   0  0  0  0  0  0  0  0  0  0  0  0
    1.1796   -8.1725    2.3274 H   0  0  0  0  0  0  0  0  0  0  0  0
    3.0024   -7.7592    0.6056 H   0  0  0  0  0  0  0  0  0  0  0  0
    2.2106   -9.3750    0.5179 H   0  0  0  0  0  0  0  0  0  0  0  0
    1.7863   -8.1030   -0.6801 H   0  0  0  0  0  0  0  0  0  0  0  0
    5.2842   -0.0044    2.4685 H   0  0  0  0  0  0  0  0  0  0  0  0
    6.6769    2.1418    1.9158 H   0  0  0  0  0  0  0  0  0  0  0  0
    2.8242    7.0452    1.4007 H   0  0  0  0  0  0  0  0  0  0  0  0
    5.7730    9.2811    3.6145 H   0  0  0  0  0  0  0  0  0  0  0  0
    7.3449    7.3985    3.4973 H   0  0  0  0  0  0  0  0  0  0  0  0
  1  2  2  3
  2  3  1  0
  3  4  2  0
  3  5  1  0
  5  6  2  0
  6  7  1  0
  7  8  1  0
  7  9  2  0
  9 10  1  0
  9 11  1  0
 11 12  2  0
 12 13  1  0
 13 14  2  3
 14 15  1  0
 15 16  3  0
 14 17  1  0
 17 18  3  0
  1 19  1  0
 19 20  2  0
 20 21  1  0
 21 22  1  0
 22 23  1  0
 23 24  2  0
 24 25  1  0
 25 26  1  0
 26 27  1  0
 27 28  1  0
 28 29  1  0
 27 30  2  0
 30 31  1  0
 30 32  1  0
 32 33  1  0
 24 34  1  0
 34 35  2  0
 35 36  1  0
 36 37  1  0
 37 38  1  0
 38 39  1  0
 39 40  1  0
 40 41  1  0
 39 42  2  0
 42 43  1  0
 43 44  1  0
 42 45  1  0
 36 46  2  0
 46 47  1  0
 47 48  1  0
 35 49  1  0
 49 50  1  0
 50 51  1  0
 51 52  2  0
 52 53  1  0
 53 54  1  0
 52 55  1  0
 55 56  2  3
 56 57  1  0
 57 58  2  0
 57 59  1  0
 59 60  2  0
 60 61  1  0
 61 62  1  0
 61 63  2  0
 63 64  1  0
 64 65  2  0
 65 66  1  0
 66 67  2  3
 67 68  1  0
 68 69  3  0
 67 70  1  0
 70 71  3  0
 13  2  1  0
 48 19  1  0
 54 50  2  0
 66 56  1  0
 12  5  1  0
 47 21  2  0
 65 59  1  0
 46 23  1  0
 32 25  2  0
 54 34  1  0
 43 37  2  0
  1 72  1  0
  6 73  1  0
 11 74  1  0
 20 75  1  0
 28 76  1  0
 28 77  1  0
 29 78  1  0
 29 79  1  0
 29 80  1  0
 40 81  1  0
 40 82  1  0
 41 83  1  0
 41 84  1  0
 41 85  1  0
 51 86  1  0
 55 87  1  0
 60 88  1  0
 63 89  1  0
 64 90  1  0
M  END

