
     RDKit          3D

 93104  0  0  0  0  0  0  0  0999 V2000
   -0.4700   -6.1765   -2.6713 C   0  0  0  0  0  0  0  0  0  0  0  0
   -1.7650   -6.4917   -2.8777 C   0  0  0  0  0  0  0  0  0  0  0  0
   -2.9197   -5.7123   -2.4073 C   0  0  0  0  0  0  0  0  0  0  0  0
   -2.9062   -4.5222   -1.9924 O   0  0  0  0  0  0  0  0  0  0  0  0
   -4.1091   -6.5162   -2.5556 C   0  0  0  0  0  0  0  0  0  0  0  0
   -5.4063   -6.2153   -2.1419 C   0  0  0  0  0  0  0  0  0  0  0  0
   -6.4035   -7.1846   -2.3075 C   0  0  0  0  0  0  0  0  0  0  0  0
   -8.0452   -6.8374   -1.7925 Cl  0  0  0  0  0  0  0  0  0  0  0  0
   -6.0801   -8.4404   -2.8539 C   0  0  0  0  0  0  0  0  0  0  0  0
   -7.0388   -9.3911   -2.9763 F   0  0  0  0  0  0  0  0  0  0  0  0
   -4.7654   -8.7226   -3.2599 C   0  0  0  0  0  0  0  0  0  0  0  0
   -3.7803   -7.7264   -3.1387 C   0  0  0  0  0  0  0  0  0  0  0  0
   -2.3265   -7.7466   -3.4780 C   0  0  0  0  0  0  0  0  0  0  0  0
   -1.7034   -8.6199   -4.3142 C   0  0  0  0  0  0  0  0  0  0  0  0
   -0.3385   -8.4597   -4.7398 C   0  0  0  0  0  0  0  0  0  0  0  0
    0.7579   -8.3464   -5.0924 N   0  0  0  0  0  0  0  0  0  0  0  0
   -2.3883   -9.7239   -4.9332 C   0  0  0  0  0  0  0  0  0  0  0  0
   -2.9249  -10.6126   -5.4464 N   0  0  0  0  0  0  0  0  0  0  0  0
   -0.0360   -5.0081   -1.8936 C   0  0  0  0  0  0  0  0  0  0  0  0
   -0.4035   -4.7253   -0.5732 C   0  0  0  0  0  0  0  0  0  0  0  0
    0.2070   -3.5561   -0.1352 C   0  0  0  0  0  0  0  0  0  0  0  0
    0.0698   -2.6460    1.2698 S   0  0  0  0  0  0  0  0  0  0  0  0
    1.1154   -1.4241    0.7012 C   0  0  0  0  0  0  0  0  0  0  0  0
    1.4341   -0.2189    1.3424 C   0  0  0  0  0  0  0  0  0  0  0  0
    0.8746    0.0988    2.6632 C   0  0  0  0  0  0  0  0  0  0  0  0
   -0.7023    0.6097    2.9342 S   0  0  0  0  0  0  0  0  0  0  0  0
   -0.5553    0.7421    4.6047 C   0  0  0  0  0  0  0  0  0  0  0  0
   -1.6843    1.1082    5.5234 C   0  0  0  0  0  0  0  0  0  0  0  0
   -2.5792   -0.0985    5.7933 C   0  0  0  0  0  0  0  0  0  0  0  0
    0.7340    0.3663    4.9761 C   0  0  0  0  0  0  0  0  0  0  0  0
    1.2834    0.3117    6.6445 Cl  0  0  0  0  0  0  0  0  0  0  0  0
    1.5408    0.0177    3.8832 C   0  0  0  0  0  0  0  0  0  0  0  0
    3.2070   -0.5110    4.0348 Cl  0  0  0  0  0  0  0  0  0  0  0  0
    2.2474    0.6850    0.6334 C   0  0  0  0  0  0  0  0  0  0  0  0
    2.7362    0.3666   -0.6486 C   0  0  0  0  0  0  0  0  0  0  0  0
    2.4281   -0.8463   -1.2866 C   0  0  0  0  0  0  0  0  0  0  0  0
    2.9026   -1.1213   -2.6510 C   0  0  0  0  0  0  0  0  0  0  0  0
    2.2972   -0.3820   -4.0365 S   0  0  0  0  0  0  0  0  0  0  0  0
    3.2123   -1.2745   -5.1295 C   0  0  0  0  0  0  0  0  0  0  0  0
    3.0507   -1.2074   -6.6166 C   0  0  0  0  0  0  0  0  0  0  0  0
    1.9313   -2.1353   -7.0797 C   0  0  0  0  0  0  0  0  0  0  0  0
    3.9946   -2.1847   -4.4162 C   0  0  0  0  0  0  0  0  0  0  0  0
    3.8317   -2.0896   -3.0247 C   0  0  0  0  0  0  0  0  0  0  0  0
    4.6837   -3.1150   -1.8712 Cl  0  0  0  0  0  0  0  0  0  0  0  0
    5.0366   -3.3752   -5.1814 Cl  0  0  0  0  0  0  0  0  0  0  0  0
    1.5872   -1.7381   -0.5885 C   0  0  0  0  0  0  0  0  0  0  0  0
    1.0396   -2.9485   -1.0289 C   0  0  0  0  0  0  0  0  0  0  0  0
    1.0579   -3.8327   -2.4595 S   0  0  0  0  0  0  0  0  0  0  0  0
    3.5835    1.6958   -1.3037 S   0  0  0  0  0  0  0  0  0  0  0  0
    3.3087    2.6667    0.0408 C   0  0  0  0  0  0  0  0  0  0  0  0
    3.5082    4.0181    0.2852 C   0  0  0  0  0  0  0  0  0  0  0  0
    2.8958    4.3922    1.4882 C   0  0  0  0  0  0  0  0  0  0  0  0
    2.1526    3.0449    2.2210 S   0  0  0  0  0  0  0  0  0  0  0  0
    2.5894    1.9937    0.9830 C   0  0  0  0  0  0  0  0  0  0  0  0
    2.7566    5.7704    1.9762 C   0  0  0  0  0  0  0  0  0  0  0  0
    2.1132    6.7335    1.2864 C   0  0  0  0  0  0  0  0  0  0  0  0
    1.2717    6.5150    0.0984 C   0  0  0  0  0  0  0  0  0  0  0  0
    1.1824    5.4542   -0.5754 O   0  0  0  0  0  0  0  0  0  0  0  0
    0.4487    7.6848   -0.1063 C   0  0  0  0  0  0  0  0  0  0  0  0
   -0.6059    7.8385   -1.0167 C   0  0  0  0  0  0  0  0  0  0  0  0
   -1.3665    9.0087   -0.9209 C   0  0  0  0  0  0  0  0  0  0  0  0
   -2.4795    9.3282   -1.6992 C   0  0  0  0  0  0  0  0  0  0  0  0
   -3.0571   10.5358   -1.3241 C   0  0  0  0  0  0  0  0  0  0  0  0
   -4.6023   11.3033   -2.1210 Br  0  0  0  0  0  0  0  0  0  0  0  0
   -2.2008   11.2087   -0.0332 S   0  0  0  0  0  0  0  0  0  0  0  0
   -1.0743    9.9643    0.0522 C   0  0  0  0  0  0  0  0  0  0  0  0
   -0.0267    9.8080    0.9683 C   0  0  0  0  0  0  0  0  0  0  0  0
    0.7627    8.6455    0.8538 C   0  0  0  0  0  0  0  0  0  0  0  0
    1.8823    8.1527    1.7064 C   0  0  0  0  0  0  0  0  0  0  0  0
    2.6721    8.9022    2.5219 C   0  0  0  0  0  0  0  0  0  0  0  0
    2.5059   10.3268    2.6584 C   0  0  0  0  0  0  0  0  0  0  0  0
    2.3904   11.4726    2.7645 N   0  0  0  0  0  0  0  0  0  0  0  0
    3.8173    8.3582    3.2047 C   0  0  0  0  0  0  0  0  0  0  0  0
    4.7296    7.9238    3.7690 N   0  0  0  0  0  0  0  0  0  0  0  0
    0.3272   -6.7966   -3.0387 H   0  0  0  0  0  0  0  0  0  0  0  0
   -5.6349   -5.2585   -1.6894 H   0  0  0  0  0  0  0  0  0  0  0  0
   -4.5413   -9.7073   -3.6294 H   0  0  0  0  0  0  0  0  0  0  0  0
   -1.0881   -5.3203    0.0142 H   0  0  0  0  0  0  0  0  0  0  0  0
   -2.2911    1.9165    5.0546 H   0  0  0  0  0  0  0  0  0  0  0  0
   -1.2879    1.5008    6.4878 H   0  0  0  0  0  0  0  0  0  0  0  0
   -1.9894   -0.9336    6.2253 H   0  0  0  0  0  0  0  0  0  0  0  0
   -3.0617   -0.4367    4.8532 H   0  0  0  0  0  0  0  0  0  0  0  0
   -3.3793    0.1811    6.5158 H   0  0  0  0  0  0  0  0  0  0  0  0
    2.8118   -0.1636   -6.9109 H   0  0  0  0  0  0  0  0  0  0  0  0
    3.9967   -1.4992   -7.1173 H   0  0  0  0  0  0  0  0  0  0  0  0
    0.9640   -1.8156   -6.6373 H   0  0  0  0  0  0  0  0  0  0  0  0
    2.1469   -3.1805   -6.7791 H   0  0  0  0  0  0  0  0  0  0  0  0
    1.8462   -2.0936   -8.1819 H   0  0  0  0  0  0  0  0  0  0  0  0
    3.9926    4.6955   -0.4048 H   0  0  0  0  0  0  0  0  0  0  0  0
    3.0922    5.9558    2.9804 H   0  0  0  0  0  0  0  0  0  0  0  0
   -0.8456    7.0634   -1.7363 H   0  0  0  0  0  0  0  0  0  0  0  0
   -2.8593    8.7024   -2.4943 H   0  0  0  0  0  0  0  0  0  0  0  0
    0.1193   10.5360    1.7492 H   0  0  0  0  0  0  0  0  0  0  0  0
  1  2  2  3
  2  3  1  0
  3  4  2  0
  3  5  1  0
  5  6  2  0
  6  7  1  0
  7  8  1  0
  7  9  2  0
  9 10  1  0
  9 11  1  0
 11 12  2  0
 12 13  1  0
 13 14  2  3
 14 15  1  0
 15 16  3  0
 14 17  1  0
 17 18  3  0
  1 19  1  0
 19 20  2  0
 20 21  1  0
 21 22  1  0
 22 23  1  0
 23 24  2  0
 24 25  1  0
 25 26  1  0
 26 27  1  0
 27 28  1  0
 28 29  1  0
 27 30  2  0
 30 31  1  0
 30 32  1  0
 32 33  1  0
 24 34  1  0
 34 35  2  0
 35 36  1  0
 36 37  1  0
 37 38  1  0
 38 39  1  0
 39 40  1  0
 40 41  1  0
 39 42  2  0
 42 43  1  0
 43 44  1  0
 42 45  1  0
 36 46  2  0
 46 47  1  0
 47 48  1  0
 35 49  1  0
 49 50  1  0
 50 51  1  0
 51 52  2  0
 52 53  1  0
 53 54  1  0
 52 55  1  0
 55 56  2  3
 56 57  1  0
 57 58  2  0
 57 59  1  0
 59 60  2  0
 60 61  1  0
 61 62  1  0
 62 63  2  0
 63 64  1  0
 63 65  1  0
 65 66  1  0
 66 67  1  0
 67 68  2  0
 68 69  1  0
 69 70  2  3
 70 71  1  0
 71 72  3  0
 70 73  1  0
 73 74  3  0
 13  2  1  0
 48 19  1  0
 54 50  2  0
 69 56  1  0
 12  5  1  0
 47 21  2  0
 68 59  1  0
 46 23  1  0
 66 61  2  0
 32 25  2  0
 54 34  1  0
 43 37  2  0
  1 75  1  0
  6 76  1  0
 11 77  1  0
 20 78  1  0
 28 79  1  0
 28 80  1  0
 29 81  1  0
 29 82  1  0
 29 83  1  0
 40 84  1  0
 40 85  1  0
 41 86  1  0
 41 87  1  0
 41 88  1  0
 51 89  1  0
 55 90  1  0
 60 91  1  0
 62 92  1  0
 67 93  1  0
M  END

