
     RDKit          3D

144160  0  0  0  0  0  0  0  0999 V2000
   -0.8528    4.2559    7.8091 C   0  0  0  0  0  0  0  0  0  0  0  0
   -0.8188    5.3283    8.6175 C   0  0  0  0  0  0  0  0  0  0  0  0
    0.0991    6.4712    8.4967 C   0  0  0  0  0  0  0  0  0  0  0  0
    0.8429    6.7445    7.5179 O   0  0  0  0  0  0  0  0  0  0  0  0
    0.1203    7.1760    9.7625 C   0  0  0  0  0  0  0  0  0  0  0  0
    0.9212    8.2564   10.1253 C   0  0  0  0  0  0  0  0  0  0  0  0
    0.8616    8.7166   11.4517 C   0  0  0  0  0  0  0  0  0  0  0  0
    1.8554   10.0819   11.9396 Cl  0  0  0  0  0  0  0  0  0  0  0  0
    0.0346    8.0639   12.3906 C   0  0  0  0  0  0  0  0  0  0  0  0
    0.0120    8.4817   13.6827 F   0  0  0  0  0  0  0  0  0  0  0  0
   -0.7521    6.9671   12.0019 C   0  0  0  0  0  0  0  0  0  0  0  0
   -0.7238    6.5529   10.6631 C   0  0  0  0  0  0  0  0  0  0  0  0
   -1.4293    5.4277    9.9832 C   0  0  0  0  0  0  0  0  0  0  0  0
   -2.5494    4.7902   10.4157 C   0  0  0  0  0  0  0  0  0  0  0  0
   -3.3126    3.9181    9.5614 C   0  0  0  0  0  0  0  0  0  0  0  0
   -3.9347    3.2257    8.8764 N   0  0  0  0  0  0  0  0  0  0  0  0
   -3.1674    5.0831   11.6867 C   0  0  0  0  0  0  0  0  0  0  0  0
   -3.6956    5.3153   12.6943 N   0  0  0  0  0  0  0  0  0  0  0  0
   -0.2453    4.1806    6.4729 C   0  0  0  0  0  0  0  0  0  0  0  0
   -0.2909    5.1605    5.4665 C   0  0  0  0  0  0  0  0  0  0  0  0
    0.2960    4.6933    4.2884 C   0  0  0  0  0  0  0  0  0  0  0  0
    0.3331    5.2798    2.6957 S   0  0  0  0  0  0  0  0  0  0  0  0
    1.0555    3.8514    2.1144 C   0  0  0  0  0  0  0  0  0  0  0  0
    0.9468    3.1606    0.8540 C   0  0  0  0  0  0  0  0  0  0  0  0
    0.8341    1.8151    1.1294 C   0  0  0  0  0  0  0  0  0  0  0  0
    1.2263    1.4851    2.5602 C   0  0  0  0  0  0  0  0  0  0  0  0
    1.1436    2.9011    3.1113 C   0  0  0  0  0  0  0  0  0  0  0  0
    0.7438    3.4084    4.3392 C   0  0  0  0  0  0  0  0  0  0  0  0
    0.4418    2.7475    5.8523 S   0  0  0  0  0  0  0  0  0  0  0  0
    0.2574    0.4942    3.2087 C   0  0  0  0  0  0  0  0  0  0  0  0
   -1.0588    0.8901    3.5185 C   0  0  0  0  0  0  0  0  0  0  0  0
   -1.9755   -0.0195    4.0498 C   0  0  0  0  0  0  0  0  0  0  0  0
   -1.6129   -1.3634    4.2449 C   0  0  0  0  0  0  0  0  0  0  0  0
   -2.5763   -2.3285    4.8821 C   0  0  0  0  0  0  0  0  0  0  0  0
   -2.1118   -2.7021    6.2913 C   0  0  0  0  0  0  0  0  0  0  0  0
   -0.3255   -1.7850    3.8790 C   0  0  0  0  0  0  0  0  0  0  0  0
    0.5961   -0.8702    3.3680 C   0  0  0  0  0  0  0  0  0  0  0  0
    2.7004    1.0465    2.6258 C   0  0  0  0  0  0  0  0  0  0  0  0
    3.4364    1.2178    3.8146 C   0  0  0  0  0  0  0  0  0  0  0  0
    4.8080    0.9896    3.8466 C   0  0  0  0  0  0  0  0  0  0  0  0
    5.4744    0.5411    2.6991 C   0  0  0  0  0  0  0  0  0  0  0  0
    6.9780    0.4359    2.6760 C   0  0  0  0  0  0  0  0  0  0  0  0
    7.6032    1.7204    2.1259 C   0  0  0  0  0  0  0  0  0  0  0  0
    4.7418    0.2776    1.5326 C   0  0  0  0  0  0  0  0  0  0  0  0
    3.3673    0.5083    1.5002 C   0  0  0  0  0  0  0  0  0  0  0  0
    0.0633    1.1654    0.1582 C   0  0  0  0  0  0  0  0  0  0  0  0
   -1.1224   -0.0312    0.3161 S   0  0  0  0  0  0  0  0  0  0  0  0
   -1.9780    0.4883   -1.0518 C   0  0  0  0  0  0  0  0  0  0  0  0
   -2.7064   -0.2981   -1.9984 C   0  0  0  0  0  0  0  0  0  0  0  0
   -2.2686    0.0207   -3.2648 C   0  0  0  0  0  0  0  0  0  0  0  0
   -1.1774    1.0928   -3.2180 C   0  0  0  0  0  0  0  0  0  0  0  0
    0.2102    0.4520   -3.4750 C   0  0  0  0  0  0  0  0  0  0  0  0
    1.2324    1.1293   -4.1724 C   0  0  0  0  0  0  0  0  0  0  0  0
    2.4812    0.5246   -4.3791 C   0  0  0  0  0  0  0  0  0  0  0  0
    2.7585   -0.7383   -3.8452 C   0  0  0  0  0  0  0  0  0  0  0  0
    4.0813   -1.4190   -4.0929 C   0  0  0  0  0  0  0  0  0  0  0  0
    3.8958   -2.7595   -4.8095 C   0  0  0  0  0  0  0  0  0  0  0  0
    1.7964   -1.3639   -3.0460 C   0  0  0  0  0  0  0  0  0  0  0  0
    0.5369   -0.7909   -2.8821 C   0  0  0  0  0  0  0  0  0  0  0  0
   -1.5087    2.2469   -4.1763 C   0  0  0  0  0  0  0  0  0  0  0  0
   -1.4810    2.0325   -5.5661 C   0  0  0  0  0  0  0  0  0  0  0  0
   -1.6566    3.0855   -6.4639 C   0  0  0  0  0  0  0  0  0  0  0  0
   -1.8638    4.3924   -5.9936 C   0  0  0  0  0  0  0  0  0  0  0  0
   -1.9417    5.5469   -6.9599 C   0  0  0  0  0  0  0  0  0  0  0  0
   -0.5521    6.1145   -7.2360 C   0  0  0  0  0  0  0  0  0  0  0  0
   -1.9116    4.6194   -4.6153 C   0  0  0  0  0  0  0  0  0  0  0  0
   -1.7476    3.5659   -3.7135 C   0  0  0  0  0  0  0  0  0  0  0  0
   -1.2705    1.4745   -1.7272 C   0  0  0  0  0  0  0  0  0  0  0  0
   -0.2048    1.9379   -0.9563 C   0  0  0  0  0  0  0  0  0  0  0  0
    0.1917    3.5516   -0.6096 S   0  0  0  0  0  0  0  0  0  0  0  0
   -2.4992   -1.0548   -4.1301 C   0  0  0  0  0  0  0  0  0  0  0  0
   -3.1193   -2.1286   -3.5418 C   0  0  0  0  0  0  0  0  0  0  0  0
   -3.3291   -1.8669   -1.8897 S   0  0  0  0  0  0  0  0  0  0  0  0
   -3.1390   -3.3017   -4.2856 C   0  0  0  0  0  0  0  0  0  0  0  0
   -2.4523   -3.1364   -5.4967 C   0  0  0  0  0  0  0  0  0  0  0  0
   -1.8799   -1.5376   -5.6137 S   0  0  0  0  0  0  0  0  0  0  0  0
   -2.2298   -4.1512   -6.5399 C   0  0  0  0  0  0  0  0  0  0  0  0
   -2.1858   -5.4879   -6.3557 C   0  0  0  0  0  0  0  0  0  0  0  0
   -2.4954   -6.4352   -7.4254 C   0  0  0  0  0  0  0  0  0  0  0  0
   -2.5106   -6.1782   -8.6596 O   0  0  0  0  0  0  0  0  0  0  0  0
   -2.8842   -7.6951   -6.8218 C   0  0  0  0  0  0  0  0  0  0  0  0
   -3.4014   -8.8251   -7.4520 C   0  0  0  0  0  0  0  0  0  0  0  0
   -3.8016   -9.9116   -6.6522 C   0  0  0  0  0  0  0  0  0  0  0  0
   -4.3387  -11.0671   -7.2396 C   0  0  0  0  0  0  0  0  0  0  0  0
   -4.7561  -12.1358   -6.4465 C   0  0  0  0  0  0  0  0  0  0  0  0
   -5.2744  -13.2481   -7.0247 F   0  0  0  0  0  0  0  0  0  0  0  0
   -4.6665  -12.0498   -5.0543 C   0  0  0  0  0  0  0  0  0  0  0  0
   -5.0940  -13.0832   -4.2846 F   0  0  0  0  0  0  0  0  0  0  0  0
   -4.1203  -10.9106   -4.4470 C   0  0  0  0  0  0  0  0  0  0  0  0
   -3.6894   -9.8325   -5.2330 C   0  0  0  0  0  0  0  0  0  0  0  0
   -3.1627   -8.6734   -4.6335 C   0  0  0  0  0  0  0  0  0  0  0  0
   -2.7413   -7.6104   -5.4471 C   0  0  0  0  0  0  0  0  0  0  0  0
   -2.1540   -6.2894   -5.0950 C   0  0  0  0  0  0  0  0  0  0  0  0
   -1.4077   -6.0118   -3.9955 C   0  0  0  0  0  0  0  0  0  0  0  0
   -0.5138   -4.8865   -3.9635 C   0  0  0  0  0  0  0  0  0  0  0  0
    0.2034   -3.9854   -3.9445 N   0  0  0  0  0  0  0  0  0  0  0  0
   -1.3909   -6.8622   -2.8297 C   0  0  0  0  0  0  0  0  0  0  0  0
   -1.3808   -7.5357   -1.8880 N   0  0  0  0  0  0  0  0  0  0  0  0
   -1.2906    3.3425    8.1650 H   0  0  0  0  0  0  0  0  0  0  0  0
    1.5899    8.7201    9.4103 H   0  0  0  0  0  0  0  0  0  0  0  0
   -1.3313    6.4556   12.7511 H   0  0  0  0  0  0  0  0  0  0  0  0
   -0.7795    6.1246    5.5611 H   0  0  0  0  0  0  0  0  0  0  0  0
   -1.3884    1.9021    3.3302 H   0  0  0  0  0  0  0  0  0  0  0  0
   -2.9664    0.3251    4.3056 H   0  0  0  0  0  0  0  0  0  0  0  0
   -2.6573   -3.2464    4.2570 H   0  0  0  0  0  0  0  0  0  0  0  0
   -3.5978   -1.8809    4.9508 H   0  0  0  0  0  0  0  0  0  0  0  0
   -1.8495   -1.7848    6.8599 H   0  0  0  0  0  0  0  0  0  0  0  0
   -1.2161   -3.3644    6.2447 H   0  0  0  0  0  0  0  0  0  0  0  0
   -2.9255   -3.2242    6.8255 H   0  0  0  0  0  0  0  0  0  0  0  0
   -0.0308   -2.8167    4.0005 H   0  0  0  0  0  0  0  0  0  0  0  0
    1.5757   -1.2404    3.0954 H   0  0  0  0  0  0  0  0  0  0  0  0
    2.9485    1.5776    4.7066 H   0  0  0  0  0  0  0  0  0  0  0  0
    5.3583    1.2014    4.7554 H   0  0  0  0  0  0  0  0  0  0  0  0
    7.2848   -0.4192    2.0439 H   0  0  0  0  0  0  0  0  0  0  0  0
    7.3713    0.2410    3.6956 H   0  0  0  0  0  0  0  0  0  0  0  0
    8.7084    1.5942    2.0471 H   0  0  0  0  0  0  0  0  0  0  0  0
    7.2029    1.9373    1.1109 H   0  0  0  0  0  0  0  0  0  0  0  0
    7.3845    2.5773    2.7959 H   0  0  0  0  0  0  0  0  0  0  0  0
    5.2391   -0.0755    0.6366 H   0  0  0  0  0  0  0  0  0  0  0  0
    2.8398    0.2994    0.5839 H   0  0  0  0  0  0  0  0  0  0  0  0
    1.0764    2.1245   -4.5789 H   0  0  0  0  0  0  0  0  0  0  0  0
    3.2330    1.0545   -4.9531 H   0  0  0  0  0  0  0  0  0  0  0  0
    4.7370   -0.7677   -4.7121 H   0  0  0  0  0  0  0  0  0  0  0  0
    4.5958   -1.5836   -3.1195 H   0  0  0  0  0  0  0  0  0  0  0  0
    3.4696   -3.5172   -4.1126 H   0  0  0  0  0  0  0  0  0  0  0  0
    3.2139   -2.6420   -5.6772 H   0  0  0  0  0  0  0  0  0  0  0  0
    4.8759   -3.1308   -5.1774 H   0  0  0  0  0  0  0  0  0  0  0  0
    2.0065   -2.3120   -2.5695 H   0  0  0  0  0  0  0  0  0  0  0  0
   -0.1794   -1.3379   -2.2857 H   0  0  0  0  0  0  0  0  0  0  0  0
   -1.2503    1.0635   -5.9642 H   0  0  0  0  0  0  0  0  0  0  0  0
   -1.5956    2.8910   -7.5312 H   0  0  0  0  0  0  0  0  0  0  0  0
   -2.5892    6.3483   -6.5402 H   0  0  0  0  0  0  0  0  0  0  0  0
   -2.4027    5.2188   -7.9122 H   0  0  0  0  0  0  0  0  0  0  0  0
   -0.0772    6.4695   -6.2879 H   0  0  0  0  0  0  0  0  0  0  0  0
   -0.6370    6.9797   -7.9295 H   0  0  0  0  0  0  0  0  0  0  0  0
    0.0936    5.3433   -7.7068 H   0  0  0  0  0  0  0  0  0  0  0  0
   -2.0464    5.6281   -4.2334 H   0  0  0  0  0  0  0  0  0  0  0  0
   -1.7906    3.7990   -2.6627 H   0  0  0  0  0  0  0  0  0  0  0  0
   -3.5585   -4.2307   -3.9321 H   0  0  0  0  0  0  0  0  0  0  0  0
   -2.2048   -3.7786   -7.5602 H   0  0  0  0  0  0  0  0  0  0  0  0
   -3.5247   -8.8421   -8.5221 H   0  0  0  0  0  0  0  0  0  0  0  0
   -4.4242  -11.1451   -8.3179 H   0  0  0  0  0  0  0  0  0  0  0  0
   -4.0488  -10.8705   -3.3693 H   0  0  0  0  0  0  0  0  0  0  0  0
   -3.1191   -8.6020   -3.5519 H   0  0  0  0  0  0  0  0  0  0  0  0
  1  2  2  3
  2  3  1  0
  3  4  2  0
  3  5  1  0
  5  6  2  0
  6  7  1  0
  7  8  1  0
  7  9  2  0
  9 10  1  0
  9 11  1  0
 11 12  2  0
 12 13  1  0
 13 14  2  3
 14 15  1  0
 15 16  3  0
 14 17  1  0
 17 18  3  0
  1 19  1  0
 19 20  2  0
 20 21  1  0
 21 22  1  0
 22 23  1  0
 23 24  1  0
 24 25  2  0
 25 26  1  0
 26 27  1  0
 27 28  1  0
 28 29  1  0
 26 30  1  0
 30 31  2  0
 31 32  1  0
 32 33  2  0
 33 34  1  0
 34 35  1  0
 33 36  1  0
 36 37  2  0
 26 38  1  0
 38 39  2  0
 39 40  1  0
 40 41  2  0
 41 42  1  0
 42 43  1  0
 41 44  1  0
 44 45  2  0
 25 46  1  0
 46 47  1  0
 47 48  1  0
 48 49  1  0
 49 50  2  0
 50 51  1  0
 51 52  1  0
 52 53  2  0
 53 54  1  0
 54 55  2  0
 55 56  1  0
 56 57  1  0
 55 58  1  0
 58 59  2  0
 51 60  1  0
 60 61  2  0
 61 62  1  0
 62 63  2  0
 63 64  1  0
 64 65  1  0
 63 66  1  0
 66 67  2  0
 51 68  1  0
 68 69  1  0
 69 70  1  0
 50 71  1  0
 71 72  2  0
 72 73  1  0
 72 74  1  0
 74 75  2  0
 75 76  1  0
 75 77  1  0
 77 78  2  3
 78 79  1  0
 79 80  2  0
 79 81  1  0
 81 82  2  0
 82 83  1  0
 83 84  2  0
 84 85  1  0
 85 86  1  0
 85 87  2  0
 87 88  1  0
 87 89  1  0
 89 90  2  0
 90 91  1  0
 91 92  2  0
 92 93  1  0
 93 94  2  3
 94 95  1  0
 95 96  3  0
 94 97  1  0
 97 98  3  0
 13  2  1  0
 29 19  1  0
 37 30  1  0
 45 38  1  0
 69 46  2  0
 76 71  1  0
 93 78  1  0
 12  5  1  0
 28 21  2  0
 68 48  2  0
 92 81  1  0
 27 23  2  0
 73 49  1  0
 90 83  1  0
 70 24  1  0
 59 52  1  0
 67 60  1  0
  1 99  1  0
  6100  1  0
 11101  1  0
 20102  1  0
 31103  1  0
 32104  1  0
 34105  1  0
 34106  1  0
 35107  1  0
 35108  1  0
 35109  1  0
 36110  1  0
 37111  1  0
 39112  1  0
 40113  1  0
 42114  1  0
 42115  1  0
 43116  1  0
 43117  1  0
 43118  1  0
 44119  1  0
 45120  1  0
 53121  1  0
 54122  1  0
 56123  1  0
 56124  1  0
 57125  1  0
 57126  1  0
 57127  1  0
 58128  1  0
 59129  1  0
 61130  1  0
 62131  1  0
 64132  1  0
 64133  1  0
 65134  1  0
 65135  1  0
 65136  1  0
 66137  1  0
 67138  1  0
 74139  1  0
 77140  1  0
 82141  1  0
 84142  1  0
 89143  1  0
 91144  1  0
M  END

