
     RDKit          3D

138152  0  0  0  0  0  0  0  0999 V2000
    1.4295    5.5616   -6.9426 C   0  0  0  0  0  0  0  0  0  0  0  0
    1.3777    5.2053   -8.2327 C   0  0  0  0  0  0  0  0  0  0  0  0
    0.0567    5.1544   -8.8721 C   0  0  0  0  0  0  0  0  0  0  0  0
   -0.8536    6.0130   -8.7202 O   0  0  0  0  0  0  0  0  0  0  0  0
   -0.0929    3.9165   -9.6097 C   0  0  0  0  0  0  0  0  0  0  0  0
   -1.2351    3.4085  -10.2308 C   0  0  0  0  0  0  0  0  0  0  0  0
   -1.1791    2.1190  -10.7810 C   0  0  0  0  0  0  0  0  0  0  0  0
   -2.6036    1.4401  -11.5504 Cl  0  0  0  0  0  0  0  0  0  0  0  0
    0.0065    1.3615  -10.6923 C   0  0  0  0  0  0  0  0  0  0  0  0
    0.0524    0.1079  -11.2066 F   0  0  0  0  0  0  0  0  0  0  0  0
    1.1365    1.8875  -10.0456 C   0  0  0  0  0  0  0  0  0  0  0  0
    1.0714    3.1831   -9.5082 C   0  0  0  0  0  0  0  0  0  0  0  0
    2.0518    3.9544   -8.7071 C   0  0  0  0  0  0  0  0  0  0  0  0
    3.3592    3.6763   -8.4826 C   0  0  0  0  0  0  0  0  0  0  0  0
    4.2052    4.6130   -7.7808 C   0  0  0  0  0  0  0  0  0  0  0  0
    4.8828    5.3642   -7.2164 N   0  0  0  0  0  0  0  0  0  0  0  0
    4.0030    2.4770   -8.9445 C   0  0  0  0  0  0  0  0  0  0  0  0
    4.5450    1.5124   -9.2894 N   0  0  0  0  0  0  0  0  0  0  0  0
    1.3037    4.5512   -5.8800 C   0  0  0  0  0  0  0  0  0  0  0  0
    0.3761    3.4978   -5.8802 C   0  0  0  0  0  0  0  0  0  0  0  0
    0.5263    2.7131   -4.7475 C   0  0  0  0  0  0  0  0  0  0  0  0
   -0.3527    1.4054   -4.1201 S   0  0  0  0  0  0  0  0  0  0  0  0
    0.6518    1.3635   -2.7500 C   0  0  0  0  0  0  0  0  0  0  0  0
    0.6495    0.7002   -1.4791 C   0  0  0  0  0  0  0  0  0  0  0  0
   -0.1740   -0.3216   -1.0035 C   0  0  0  0  0  0  0  0  0  0  0  0
    0.0887   -0.7924    0.2934 C   0  0  0  0  0  0  0  0  0  0  0  0
   -0.6616   -1.8846    1.0572 C   0  0  0  0  0  0  0  0  0  0  0  0
   -2.1609   -1.5576    1.0959 C   0  0  0  0  0  0  0  0  0  0  0  0
   -3.1338   -2.3932    0.5053 C   0  0  0  0  0  0  0  0  0  0  0  0
   -4.4900   -2.0668    0.5648 C   0  0  0  0  0  0  0  0  0  0  0  0
   -4.9104   -0.8793    1.1826 C   0  0  0  0  0  0  0  0  0  0  0  0
   -6.3697   -0.5125    1.2127 C   0  0  0  0  0  0  0  0  0  0  0  0
   -6.8122    0.0819   -0.1205 C   0  0  0  0  0  0  0  0  0  0  0  0
   -3.9476   -0.0101    1.7151 C   0  0  0  0  0  0  0  0  0  0  0  0
   -2.5942   -0.3468    1.6772 C   0  0  0  0  0  0  0  0  0  0  0  0
   -0.3332   -3.3034    0.5483 C   0  0  0  0  0  0  0  0  0  0  0  0
    0.3275   -3.5416   -0.6794 C   0  0  0  0  0  0  0  0  0  0  0  0
    0.5675   -4.8439   -1.1263 C   0  0  0  0  0  0  0  0  0  0  0  0
    0.1667   -5.9446   -0.3582 C   0  0  0  0  0  0  0  0  0  0  0  0
    0.3893   -7.3502   -0.8552 C   0  0  0  0  0  0  0  0  0  0  0  0
   -0.8956   -7.9297   -1.4366 C   0  0  0  0  0  0  0  0  0  0  0  0
   -0.4819   -5.7224    0.8618 C   0  0  0  0  0  0  0  0  0  0  0  0
   -0.7320   -4.4239    1.3072 C   0  0  0  0  0  0  0  0  0  0  0  0
   -0.0129   -1.6915    2.4168 C   0  0  0  0  0  0  0  0  0  0  0  0
    1.0184   -0.7864    2.3840 C   0  0  0  0  0  0  0  0  0  0  0  0
    1.0862   -0.1958    1.0754 C   0  0  0  0  0  0  0  0  0  0  0  0
    1.8800    0.8578    0.6127 C   0  0  0  0  0  0  0  0  0  0  0  0
    1.6577    1.2880   -0.7047 C   0  0  0  0  0  0  0  0  0  0  0  0
    2.4108    2.3738   -1.4740 C   0  0  0  0  0  0  0  0  0  0  0  0
    3.8592    1.9843   -1.8081 C   0  0  0  0  0  0  0  0  0  0  0  0
    4.7274    2.9395   -2.3795 C   0  0  0  0  0  0  0  0  0  0  0  0
    6.0210    2.5928   -2.7762 C   0  0  0  0  0  0  0  0  0  0  0  0
    6.4827    1.2799   -2.6109 C   0  0  0  0  0  0  0  0  0  0  0  0
    7.8719    0.8960   -3.0482 C   0  0  0  0  0  0  0  0  0  0  0  0
    7.8444    0.2181   -4.4151 C   0  0  0  0  0  0  0  0  0  0  0  0
    5.6207    0.3140   -2.0793 C   0  0  0  0  0  0  0  0  0  0  0  0
    4.3214    0.6531   -1.6973 C   0  0  0  0  0  0  0  0  0  0  0  0
    2.2762    3.7015   -0.7207 C   0  0  0  0  0  0  0  0  0  0  0  0
    3.2299    4.0683    0.2509 C   0  0  0  0  0  0  0  0  0  0  0  0
    3.0829    5.2442    0.9889 C   0  0  0  0  0  0  0  0  0  0  0  0
    1.9604    6.0626    0.8045 C   0  0  0  0  0  0  0  0  0  0  0  0
    1.8227    7.3484    1.5722 C   0  0  0  0  0  0  0  0  0  0  0  0
    2.5410    8.4852    0.8501 C   0  0  0  0  0  0  0  0  0  0  0  0
    0.9904    5.6931   -0.1382 C   0  0  0  0  0  0  0  0  0  0  0  0
    1.1337    4.5165   -0.8755 C   0  0  0  0  0  0  0  0  0  0  0  0
    1.6134    2.3324   -2.7581 C   0  0  0  0  0  0  0  0  0  0  0  0
    1.5269    3.1070   -3.9023 C   0  0  0  0  0  0  0  0  0  0  0  0
    2.2761    4.4939   -4.4756 S   0  0  0  0  0  0  0  0  0  0  0  0
    1.4156   -0.2070    3.9329 S   0  0  0  0  0  0  0  0  0  0  0  0
    0.2762   -1.2250    4.6603 C   0  0  0  0  0  0  0  0  0  0  0  0
   -0.2244   -1.3032    5.9594 C   0  0  0  0  0  0  0  0  0  0  0  0
   -1.3517   -2.1339    6.0181 C   0  0  0  0  0  0  0  0  0  0  0  0
   -1.7550   -2.6575    4.4400 S   0  0  0  0  0  0  0  0  0  0  0  0
   -0.4259   -1.9295    3.7236 C   0  0  0  0  0  0  0  0  0  0  0  0
   -2.2271   -2.2500    7.1991 C   0  0  0  0  0  0  0  0  0  0  0  0
   -2.9644   -3.3408    7.4964 C   0  0  0  0  0  0  0  0  0  0  0  0
   -2.7216   -4.6893    6.9709 C   0  0  0  0  0  0  0  0  0  0  0  0
   -1.7724   -5.0389    6.2197 O   0  0  0  0  0  0  0  0  0  0  0  0
   -3.6388   -5.6046    7.6049 C   0  0  0  0  0  0  0  0  0  0  0  0
   -3.7749   -6.9725    7.3670 C   0  0  0  0  0  0  0  0  0  0  0  0
   -4.7891   -7.6687    8.0389 C   0  0  0  0  0  0  0  0  0  0  0  0
   -4.9884   -8.9869    7.7778 F   0  0  0  0  0  0  0  0  0  0  0  0
   -5.6331   -6.9939    8.9344 C   0  0  0  0  0  0  0  0  0  0  0  0
   -5.4568   -5.6210    9.1809 C   0  0  0  0  0  0  0  0  0  0  0  0
   -4.4397   -4.9232    8.5038 C   0  0  0  0  0  0  0  0  0  0  0  0
   -4.0576   -3.4748    8.5223 C   0  0  0  0  0  0  0  0  0  0  0  0
   -4.6388   -2.4888    9.2645 C   0  0  0  0  0  0  0  0  0  0  0  0
   -4.3048   -1.0964    9.1339 C   0  0  0  0  0  0  0  0  0  0  0  0
   -4.0423    0.0276    9.0488 N   0  0  0  0  0  0  0  0  0  0  0  0
   -5.6099   -2.7542   10.2894 C   0  0  0  0  0  0  0  0  0  0  0  0
   -6.3810   -2.9467   11.1347 N   0  0  0  0  0  0  0  0  0  0  0  0
    1.8916    6.5101   -6.6997 H   0  0  0  0  0  0  0  0  0  0  0  0
   -2.1482    3.9886  -10.2629 H   0  0  0  0  0  0  0  0  0  0  0  0
    2.0132    1.2696   -9.9584 H   0  0  0  0  0  0  0  0  0  0  0  0
   -0.3781    3.3329   -6.6377 H   0  0  0  0  0  0  0  0  0  0  0  0
   -0.9585   -0.7452   -1.6114 H   0  0  0  0  0  0  0  0  0  0  0  0
   -2.8600   -3.3086   -0.0015 H   0  0  0  0  0  0  0  0  0  0  0  0
   -5.2174   -2.7365    0.1210 H   0  0  0  0  0  0  0  0  0  0  0  0
   -6.9812   -1.4183    1.4244 H   0  0  0  0  0  0  0  0  0  0  0  0
   -6.5692    0.2206    2.0249 H   0  0  0  0  0  0  0  0  0  0  0  0
   -7.8680    0.4148   -0.0440 H   0  0  0  0  0  0  0  0  0  0  0  0
   -6.7422   -0.6873   -0.9213 H   0  0  0  0  0  0  0  0  0  0  0  0
   -6.1815    0.9593   -0.3881 H   0  0  0  0  0  0  0  0  0  0  0  0
   -4.2449    0.9353    2.1563 H   0  0  0  0  0  0  0  0  0  0  0  0
   -1.8763    0.3458    2.0995 H   0  0  0  0  0  0  0  0  0  0  0  0
    0.6727   -2.7370   -1.3095 H   0  0  0  0  0  0  0  0  0  0  0  0
    1.0638   -4.9900   -2.0785 H   0  0  0  0  0  0  0  0  0  0  0  0
    0.7400   -7.9893   -0.0189 H   0  0  0  0  0  0  0  0  0  0  0  0
    1.1776   -7.3636   -1.6371 H   0  0  0  0  0  0  0  0  0  0  0  0
   -1.2358   -7.3266   -2.3068 H   0  0  0  0  0  0  0  0  0  0  0  0
   -1.6989   -7.9451   -0.6699 H   0  0  0  0  0  0  0  0  0  0  0  0
   -0.7130   -8.9728   -1.7738 H   0  0  0  0  0  0  0  0  0  0  0  0
   -0.8178   -6.5618    1.4619 H   0  0  0  0  0  0  0  0  0  0  0  0
   -1.2667   -4.2966    2.2340 H   0  0  0  0  0  0  0  0  0  0  0  0
    2.6337    1.3164    1.2363 H   0  0  0  0  0  0  0  0  0  0  0  0
    4.4022    3.9628   -2.5155 H   0  0  0  0  0  0  0  0  0  0  0  0
    6.6617    3.3483   -3.2124 H   0  0  0  0  0  0  0  0  0  0  0  0
    8.3202    0.2016   -2.3016 H   0  0  0  0  0  0  0  0  0  0  0  0
    8.5254    1.7924   -3.0958 H   0  0  0  0  0  0  0  0  0  0  0  0
    7.2928   -0.7442   -4.3548 H   0  0  0  0  0  0  0  0  0  0  0  0
    7.3625    0.8770   -5.1699 H   0  0  0  0  0  0  0  0  0  0  0  0
    8.8842    0.0085   -4.7412 H   0  0  0  0  0  0  0  0  0  0  0  0
    5.9482   -0.7140   -1.9785 H   0  0  0  0  0  0  0  0  0  0  0  0
    3.6869   -0.1390   -1.3253 H   0  0  0  0  0  0  0  0  0  0  0  0
    4.0901    3.4444    0.4445 H   0  0  0  0  0  0  0  0  0  0  0  0
    3.8408    5.5126    1.7141 H   0  0  0  0  0  0  0  0  0  0  0  0
    2.2486    7.2310    2.5941 H   0  0  0  0  0  0  0  0  0  0  0  0
    0.7494    7.6150    1.6903 H   0  0  0  0  0  0  0  0  0  0  0  0
    2.1401    8.6012   -0.1800 H   0  0  0  0  0  0  0  0  0  0  0  0
    2.3827    9.4361    1.4030 H   0  0  0  0  0  0  0  0  0  0  0  0
    3.6308    8.2805    0.7984 H   0  0  0  0  0  0  0  0  0  0  0  0
    0.1138    6.3139   -0.2945 H   0  0  0  0  0  0  0  0  0  0  0  0
    0.3417    4.2499   -1.5617 H   0  0  0  0  0  0  0  0  0  0  0  0
    0.1596   -0.7328    6.7943 H   0  0  0  0  0  0  0  0  0  0  0  0
   -2.2541   -1.3784    7.8244 H   0  0  0  0  0  0  0  0  0  0  0  0
   -3.1382   -7.4780    6.6532 H   0  0  0  0  0  0  0  0  0  0  0  0
   -6.4424   -7.5255    9.4208 H   0  0  0  0  0  0  0  0  0  0  0  0
   -6.1435   -5.1464    9.8536 H   0  0  0  0  0  0  0  0  0  0  0  0
  1  2  2  3
  2  3  1  0
  3  4  2  0
  3  5  1  0
  5  6  2  0
  6  7  1  0
  7  8  1  0
  7  9  2  0
  9 10  1  0
  9 11  1  0
 11 12  2  0
 12 13  1  0
 13 14  2  3
 14 15  1  0
 15 16  3  0
 14 17  1  0
 17 18  3  0
  1 19  1  0
 19 20  2  0
 20 21  1  0
 21 22  1  0
 22 23  1  0
 23 24  1  0
 24 25  2  0
 25 26  1  0
 26 27  1  0
 27 28  1  0
 28 29  2  0
 29 30  1  0
 30 31  2  0
 31 32  1  0
 32 33  1  0
 31 34  1  0
 34 35  2  0
 27 36  1  0
 36 37  2  0
 37 38  1  0
 38 39  2  0
 39 40  1  0
 40 41  1  0
 39 42  1  0
 42 43  2  0
 27 44  1  0
 44 45  2  0
 45 46  1  0
 46 47  1  0
 47 48  2  0
 48 49  1  0
 49 50  1  0
 50 51  2  0
 51 52  1  0
 52 53  2  0
 53 54  1  0
 54 55  1  0
 53 56  1  0
 56 57  2  0
 49 58  1  0
 58 59  2  0
 59 60  1  0
 60 61  2  0
 61 62  1  0
 62 63  1  0
 61 64  1  0
 64 65  2  0
 49 66  1  0
 66 67  1  0
 67 68  1  0
 45 69  1  0
 69 70  1  0
 70 71  1  0
 71 72  2  0
 72 73  1  0
 73 74  1  0
 72 75  1  0
 75 76  2  3
 76 77  1  0
 77 78  2  0
 77 79  1  0
 79 80  2  0
 80 81  1  0
 81 82  1  0
 81 83  2  0
 83 84  1  0
 84 85  2  0
 85 86  1  0
 86 87  2  3
 87 88  1  0
 88 89  3  0
 87 90  1  0
 90 91  3  0
 13  2  1  0
 68 19  1  0
 74 70  2  0
 86 76  1  0
 12  5  1  0
 67 21  2  0
 85 79  1  0
 66 23  2  0
 48 24  1  0
 57 50  1  0
 65 58  1  0
 46 26  2  0
 35 28  1  0
 43 36  1  0
 74 44  1  0
  1 92  1  0
  6 93  1  0
 11 94  1  0
 20 95  1  0
 25 96  1  0
 29 97  1  0
 30 98  1  0
 32 99  1  0
 32100  1  0
 33101  1  0
 33102  1  0
 33103  1  0
 34104  1  0
 35105  1  0
 37106  1  0
 38107  1  0
 40108  1  0
 40109  1  0
 41110  1  0
 41111  1  0
 41112  1  0
 42113  1  0
 43114  1  0
 47115  1  0
 51116  1  0
 52117  1  0
 54118  1  0
 54119  1  0
 55120  1  0
 55121  1  0
 55122  1  0
 56123  1  0
 57124  1  0
 59125  1  0
 60126  1  0
 62127  1  0
 62128  1  0
 63129  1  0
 63130  1  0
 63131  1  0
 64132  1  0
 65133  1  0
 71134  1  0
 75135  1  0
 80136  1  0
 83137  1  0
 84138  1  0
M  END

