
     RDKit          3D

153167  0  0  0  0  0  0  0  0999 V2000
   -4.5683    5.8102   -3.7488 C   0  0  0  0  0  0  0  0  0  0  0  0
   -3.9440    5.7330   -4.9359 C   0  0  0  0  0  0  0  0  0  0  0  0
   -3.0702    4.6350   -5.3619 C   0  0  0  0  0  0  0  0  0  0  0  0
   -2.2918    3.9761   -4.6302 O   0  0  0  0  0  0  0  0  0  0  0  0
   -3.2053    4.4801   -6.7986 C   0  0  0  0  0  0  0  0  0  0  0  0
   -2.7817    3.4086   -7.5875 C   0  0  0  0  0  0  0  0  0  0  0  0
   -3.2520    3.3276   -8.9063 C   0  0  0  0  0  0  0  0  0  0  0  0
   -2.7807    1.9641   -9.9058 Cl  0  0  0  0  0  0  0  0  0  0  0  0
   -4.1420    4.3002   -9.3989 C   0  0  0  0  0  0  0  0  0  0  0  0
   -4.6789    4.1678  -10.6336 F   0  0  0  0  0  0  0  0  0  0  0  0
   -4.5368    5.3828   -8.5918 C   0  0  0  0  0  0  0  0  0  0  0  0
   -4.0350    5.4762   -7.2886 C   0  0  0  0  0  0  0  0  0  0  0  0
   -4.3935    6.4026   -6.1830 C   0  0  0  0  0  0  0  0  0  0  0  0
   -4.8351    7.6796   -6.2929 C   0  0  0  0  0  0  0  0  0  0  0  0
   -4.8628    8.5685   -5.1588 C   0  0  0  0  0  0  0  0  0  0  0  0
   -4.8805    9.2803   -4.2460 N   0  0  0  0  0  0  0  0  0  0  0  0
   -5.1517    8.2704   -7.5709 C   0  0  0  0  0  0  0  0  0  0  0  0
   -5.4111    8.7523   -8.5905 N   0  0  0  0  0  0  0  0  0  0  0  0
   -4.4106    4.7757   -2.7175 C   0  0  0  0  0  0  0  0  0  0  0  0
   -4.8185    3.4313   -2.8389 C   0  0  0  0  0  0  0  0  0  0  0  0
   -5.6037    2.8615   -3.9896 C   0  0  0  0  0  0  0  0  0  0  0  0
   -6.9870    2.4140   -3.5389 C   0  0  0  0  0  0  0  0  0  0  0  0
   -4.3036    2.6668   -1.7953 C   0  0  0  0  0  0  0  0  0  0  0  0
   -4.1008    0.9989   -1.5933 S   0  0  0  0  0  0  0  0  0  0  0  0
   -3.0645    1.2187   -0.2649 C   0  0  0  0  0  0  0  0  0  0  0  0
   -1.9486    0.4449    0.2134 C   0  0  0  0  0  0  0  0  0  0  0  0
   -1.6894   -0.9235    0.0762 C   0  0  0  0  0  0  0  0  0  0  0  0
   -0.4424   -1.3835    0.5307 C   0  0  0  0  0  0  0  0  0  0  0  0
    0.1190   -2.8067    0.4715 C   0  0  0  0  0  0  0  0  0  0  0  0
   -0.7964   -3.7505    1.2573 C   0  0  0  0  0  0  0  0  0  0  0  0
   -1.9148   -4.3293    0.6264 C   0  0  0  0  0  0  0  0  0  0  0  0
   -2.7971   -5.1524    1.3375 C   0  0  0  0  0  0  0  0  0  0  0  0
   -2.5925   -5.3884    2.7046 C   0  0  0  0  0  0  0  0  0  0  0  0
   -3.5682   -6.2362    3.4757 C   0  0  0  0  0  0  0  0  0  0  0  0
   -4.8044   -5.4240    3.8579 C   0  0  0  0  0  0  0  0  0  0  0  0
   -1.5046   -4.7854    3.3485 C   0  0  0  0  0  0  0  0  0  0  0  0
   -0.6226   -3.9699    2.6396 C   0  0  0  0  0  0  0  0  0  0  0  0
    0.4124   -3.2778   -0.9607 C   0  0  0  0  0  0  0  0  0  0  0  0
    0.5445   -2.3600   -2.0311 C   0  0  0  0  0  0  0  0  0  0  0  0
    0.9883   -2.7830   -3.2865 C   0  0  0  0  0  0  0  0  0  0  0  0
    1.3309   -4.1224   -3.5054 C   0  0  0  0  0  0  0  0  0  0  0  0
    1.8623   -4.5638   -4.8403 C   0  0  0  0  0  0  0  0  0  0  0  0
    0.7603   -5.1902   -5.6895 C   0  0  0  0  0  0  0  0  0  0  0  0
    1.1913   -5.0467   -2.4590 C   0  0  0  0  0  0  0  0  0  0  0  0
    0.7423   -4.6275   -1.2025 C   0  0  0  0  0  0  0  0  0  0  0  0
    1.4504   -2.5545    1.1413 C   0  0  0  0  0  0  0  0  0  0  0  0
    1.6642   -1.2327    1.3900 C   0  0  0  0  0  0  0  0  0  0  0  0
    0.4951   -0.4837    1.0501 C   0  0  0  0  0  0  0  0  0  0  0  0
    0.2456    0.8804    1.1774 C   0  0  0  0  0  0  0  0  0  0  0  0
   -1.0136    1.3355    0.7519 C   0  0  0  0  0  0  0  0  0  0  0  0
   -1.4999    2.7769    0.6920 C   0  0  0  0  0  0  0  0  0  0  0  0
   -0.5930    3.6505   -0.1842 C   0  0  0  0  0  0  0  0  0  0  0  0
   -0.0810    3.1314   -1.3957 C   0  0  0  0  0  0  0  0  0  0  0  0
    0.5630    3.9581   -2.3200 C   0  0  0  0  0  0  0  0  0  0  0  0
    0.7259    5.3235   -2.0537 C   0  0  0  0  0  0  0  0  0  0  0  0
    1.3215    6.2360   -3.0904 C   0  0  0  0  0  0  0  0  0  0  0  0
    0.2389    6.7658   -4.0266 C   0  0  0  0  0  0  0  0  0  0  0  0
    0.2303    5.8528   -0.8557 C   0  0  0  0  0  0  0  0  0  0  0  0
   -0.4363    5.0318    0.0604 C   0  0  0  0  0  0  0  0  0  0  0  0
   -1.6917    3.2720    2.1335 C   0  0  0  0  0  0  0  0  0  0  0  0
   -0.5685    3.6184    2.9121 C   0  0  0  0  0  0  0  0  0  0  0  0
   -0.6970    3.8837    4.2795 C   0  0  0  0  0  0  0  0  0  0  0  0
   -1.9468    3.8100    4.9051 C   0  0  0  0  0  0  0  0  0  0  0  0
   -2.0628    3.9775    6.3934 C   0  0  0  0  0  0  0  0  0  0  0  0
   -1.8114    2.6492    7.1047 C   0  0  0  0  0  0  0  0  0  0  0  0
   -3.0715    3.4763    4.1437 C   0  0  0  0  0  0  0  0  0  0  0  0
   -2.9496    3.2081    2.7753 C   0  0  0  0  0  0  0  0  0  0  0  0
   -2.8121    2.5506   -0.0349 C   0  0  0  0  0  0  0  0  0  0  0  0
   -3.5444    3.3581   -0.8954 C   0  0  0  0  0  0  0  0  0  0  0  0
   -3.4354    4.9699   -1.3444 S   0  0  0  0  0  0  0  0  0  0  0  0
    3.2348   -0.8958    1.9375 S   0  0  0  0  0  0  0  0  0  0  0  0
    3.6268   -2.5486    1.8892 C   0  0  0  0  0  0  0  0  0  0  0  0
    4.7873   -3.2634    2.1757 C   0  0  0  0  0  0  0  0  0  0  0  0
    6.1239   -2.6019    2.4132 C   0  0  0  0  0  0  0  0  0  0  0  0
    6.6771   -1.9976    1.1229 C   0  0  0  0  0  0  0  0  0  0  0  0
    4.5477   -4.6509    2.0563 C   0  0  0  0  0  0  0  0  0  0  0  0
    2.9652   -4.9294    1.4821 S   0  0  0  0  0  0  0  0  0  0  0  0
    2.5697   -3.3057    1.4609 C   0  0  0  0  0  0  0  0  0  0  0  0
    5.4674   -5.7513    2.3891 C   0  0  0  0  0  0  0  0  0  0  0  0
    6.0547   -5.8961    3.5922 C   0  0  0  0  0  0  0  0  0  0  0  0
    6.0027   -4.9614    4.7199 C   0  0  0  0  0  0  0  0  0  0  0  0
    5.1230   -4.0851    4.9352 O   0  0  0  0  0  0  0  0  0  0  0  0
    7.1314   -5.2450    5.5798 C   0  0  0  0  0  0  0  0  0  0  0  0
    7.5554   -4.5373    6.7018 C   0  0  0  0  0  0  0  0  0  0  0  0
    8.7220   -4.9585    7.3669 C   0  0  0  0  0  0  0  0  0  0  0  0
    9.1658   -4.2468    8.6137 C   0  0  0  0  0  0  0  0  0  0  0  0
    9.4293   -6.0857    6.8838 C   0  0  0  0  0  0  0  0  0  0  0  0
   10.5503   -6.5158    7.5171 F   0  0  0  0  0  0  0  0  0  0  0  0
    8.9859   -6.7780    5.7428 C   0  0  0  0  0  0  0  0  0  0  0  0
    7.8125   -6.3510    5.1061 C   0  0  0  0  0  0  0  0  0  0  0  0
    7.0845   -6.9150    3.9325 C   0  0  0  0  0  0  0  0  0  0  0  0
    7.0804   -8.2102    3.5326 C   0  0  0  0  0  0  0  0  0  0  0  0
    8.0526   -9.1631    4.0037 C   0  0  0  0  0  0  0  0  0  0  0  0
    8.8348   -9.9129    4.4050 N   0  0  0  0  0  0  0  0  0  0  0  0
    5.8866   -8.7734    2.9415 C   0  0  0  0  0  0  0  0  0  0  0  0
    4.8936   -9.2160    2.5307 N   0  0  0  0  0  0  0  0  0  0  0  0
   -5.3216    6.5622   -3.5710 H   0  0  0  0  0  0  0  0  0  0  0  0
   -2.1452    2.6361   -7.1719 H   0  0  0  0  0  0  0  0  0  0  0  0
   -5.2596    6.0848   -8.9691 H   0  0  0  0  0  0  0  0  0  0  0  0
   -5.7278    3.6111   -4.7999 H   0  0  0  0  0  0  0  0  0  0  0  0
   -5.0528    1.9985   -4.4215 H   0  0  0  0  0  0  0  0  0  0  0  0
   -7.5339    3.2609   -3.0676 H   0  0  0  0  0  0  0  0  0  0  0  0
   -6.9079    1.5785   -2.8121 H   0  0  0  0  0  0  0  0  0  0  0  0
   -7.5662    2.0632   -4.4200 H   0  0  0  0  0  0  0  0  0  0  0  0
   -2.4098   -1.5914   -0.3807 H   0  0  0  0  0  0  0  0  0  0  0  0
   -2.1173   -4.1398   -0.4214 H   0  0  0  0  0  0  0  0  0  0  0  0
   -3.6515   -5.5787    0.8303 H   0  0  0  0  0  0  0  0  0  0  0  0
   -3.8803   -7.1079    2.8568 H   0  0  0  0  0  0  0  0  0  0  0  0
   -3.0925   -6.6369    4.3982 H   0  0  0  0  0  0  0  0  0  0  0  0
   -5.3306   -5.0715    2.9475 H   0  0  0  0  0  0  0  0  0  0  0  0
   -5.4978   -6.0615    4.4412 H   0  0  0  0  0  0  0  0  0  0  0  0
   -4.5135   -4.5473    4.4780 H   0  0  0  0  0  0  0  0  0  0  0  0
   -1.3487   -4.9371    4.4122 H   0  0  0  0  0  0  0  0  0  0  0  0
    0.1871   -3.5039    3.1826 H   0  0  0  0  0  0  0  0  0  0  0  0
    0.3509   -1.3081   -1.8985 H   0  0  0  0  0  0  0  0  0  0  0  0
    1.0955   -2.0570   -4.0792 H   0  0  0  0  0  0  0  0  0  0  0  0
    2.6814   -5.3074   -4.6987 H   0  0  0  0  0  0  0  0  0  0  0  0
    2.2993   -3.7018   -5.3922 H   0  0  0  0  0  0  0  0  0  0  0  0
    0.3514   -6.0940   -5.1865 H   0  0  0  0  0  0  0  0  0  0  0  0
   -0.0640   -4.4586   -5.8558 H   0  0  0  0  0  0  0  0  0  0  0  0
    1.1747   -5.4904   -6.6731 H   0  0  0  0  0  0  0  0  0  0  0  0
    1.4560   -6.0870   -2.6079 H   0  0  0  0  0  0  0  0  0  0  0  0
    0.6902   -5.3557   -0.4035 H   0  0  0  0  0  0  0  0  0  0  0  0
    1.0007    1.5551    1.5545 H   0  0  0  0  0  0  0  0  0  0  0  0
   -0.2391    2.0940   -1.6649 H   0  0  0  0  0  0  0  0  0  0  0  0
    0.9164    3.5415   -3.2574 H   0  0  0  0  0  0  0  0  0  0  0  0
    1.8301    7.0939   -2.5944 H   0  0  0  0  0  0  0  0  0  0  0  0
    2.0914    5.6935   -3.6855 H   0  0  0  0  0  0  0  0  0  0  0  0
   -0.1766    5.9388   -4.6428 H   0  0  0  0  0  0  0  0  0  0  0  0
   -0.5872    7.2362   -3.4411 H   0  0  0  0  0  0  0  0  0  0  0  0
    0.6771    7.5372   -4.7000 H   0  0  0  0  0  0  0  0  0  0  0  0
    0.3112    6.9117   -0.6501 H   0  0  0  0  0  0  0  0  0  0  0  0
   -0.8724    5.4897    0.9384 H   0  0  0  0  0  0  0  0  0  0  0  0
    0.4181    3.6478    2.4696 H   0  0  0  0  0  0  0  0  0  0  0  0
    0.1886    4.1155    4.8600 H   0  0  0  0  0  0  0  0  0  0  0  0
   -3.0790    4.3451    6.6581 H   0  0  0  0  0  0  0  0  0  0  0  0
   -1.3304    4.7330    6.7518 H   0  0  0  0  0  0  0  0  0  0  0  0
   -0.7887    2.2750    6.8721 H   0  0  0  0  0  0  0  0  0  0  0  0
   -2.5563    1.8886    6.7819 H   0  0  0  0  0  0  0  0  0  0  0  0
   -1.8991    2.7951    8.2040 H   0  0  0  0  0  0  0  0  0  0  0  0
   -4.0423    3.3859    4.6176 H   0  0  0  0  0  0  0  0  0  0  0  0
   -3.8427    2.9063    2.2439 H   0  0  0  0  0  0  0  0  0  0  0  0
    5.9949   -1.8000    3.1695 H   0  0  0  0  0  0  0  0  0  0  0  0
    6.8704   -3.3213    2.8070 H   0  0  0  0  0  0  0  0  0  0  0  0
    6.9941   -2.8070    0.4324 H   0  0  0  0  0  0  0  0  0  0  0  0
    7.5526   -1.3578    1.3602 H   0  0  0  0  0  0  0  0  0  0  0  0
    5.9120   -1.3754    0.6162 H   0  0  0  0  0  0  0  0  0  0  0  0
    5.6116   -6.5115    1.6320 H   0  0  0  0  0  0  0  0  0  0  0  0
    7.0037   -3.6659    7.0408 H   0  0  0  0  0  0  0  0  0  0  0  0
    8.5929   -4.6358    9.4760 H   0  0  0  0  0  0  0  0  0  0  0  0
   10.2514   -4.3892    8.7950 H   0  0  0  0  0  0  0  0  0  0  0  0
    8.9807   -3.1523    8.5240 H   0  0  0  0  0  0  0  0  0  0  0  0
    9.5723   -7.5986    5.3680 H   0  0  0  0  0  0  0  0  0  0  0  0
  1  2  2  3
  2  3  1  0
  3  4  2  0
  3  5  1  0
  5  6  2  0
  6  7  1  0
  7  8  1  0
  7  9  2  0
  9 10  1  0
  9 11  1  0
 11 12  2  0
 12 13  1  0
 13 14  2  3
 14 15  1  0
 15 16  3  0
 14 17  1  0
 17 18  3  0
  1 19  1  0
 19 20  2  0
 20 21  1  0
 21 22  1  0
 20 23  1  0
 23 24  1  0
 24 25  1  0
 25 26  1  0
 26 27  2  0
 27 28  1  0
 28 29  1  0
 29 30  1  0
 30 31  2  0
 31 32  1  0
 32 33  2  0
 33 34  1  0
 34 35  1  0
 33 36  1  0
 36 37  2  0
 29 38  1  0
 38 39  2  0
 39 40  1  0
 40 41  2  0
 41 42  1  0
 42 43  1  0
 41 44  1  0
 44 45  2  0
 29 46  1  0
 46 47  2  0
 47 48  1  0
 48 49  1  0
 49 50  2  0
 50 51  1  0
 51 52  1  0
 52 53  2  0
 53 54  1  0
 54 55  2  0
 55 56  1  0
 56 57  1  0
 55 58  1  0
 58 59  2  0
 51 60  1  0
 60 61  2  0
 61 62  1  0
 62 63  2  0
 63 64  1  0
 64 65  1  0
 63 66  1  0
 66 67  2  0
 51 68  1  0
 68 69  1  0
 69 70  1  0
 47 71  1  0
 71 72  1  0
 72 73  1  0
 73 74  1  0
 74 75  1  0
 73 76  2  0
 76 77  1  0
 77 78  1  0
 76 79  1  0
 79 80  2  3
 80 81  1  0
 81 82  2  0
 81 83  1  0
 83 84  2  0
 84 85  1  0
 85 86  1  0
 85 87  2  0
 87 88  1  0
 87 89  1  0
 89 90  2  0
 90 91  1  0
 91 92  2  3
 92 93  1  0
 93 94  3  0
 92 95  1  0
 95 96  3  0
 13  2  1  0
 70 19  1  0
 78 72  2  0
 91 80  1  0
 12  5  1  0
 69 23  2  0
 90 83  1  0
 68 25  2  0
 50 26  1  0
 59 52  1  0
 67 60  1  0
 48 28  2  0
 37 30  1  0
 45 38  1  0
 78 46  1  0
  1 97  1  0
  6 98  1  0
 11 99  1  0
 21100  1  0
 21101  1  0
 22102  1  0
 22103  1  0
 22104  1  0
 27105  1  0
 31106  1  0
 32107  1  0
 34108  1  0
 34109  1  0
 35110  1  0
 35111  1  0
 35112  1  0
 36113  1  0
 37114  1  0
 39115  1  0
 40116  1  0
 42117  1  0
 42118  1  0
 43119  1  0
 43120  1  0
 43121  1  0
 44122  1  0
 45123  1  0
 49124  1  0
 53125  1  0
 54126  1  0
 56127  1  0
 56128  1  0
 57129  1  0
 57130  1  0
 57131  1  0
 58132  1  0
 59133  1  0
 61134  1  0
 62135  1  0
 64136  1  0
 64137  1  0
 65138  1  0
 65139  1  0
 65140  1  0
 66141  1  0
 67142  1  0
 74143  1  0
 74144  1  0
 75145  1  0
 75146  1  0
 75147  1  0
 79148  1  0
 84149  1  0
 86150  1  0
 86151  1  0
 86152  1  0
 89153  1  0
M  END

