
     RDKit          3D

112124  0  0  0  0  0  0  0  0999 V2000
    7.8652    2.3335   -0.0066 C   0  0  0  0  0  0  0  0  0  0  0  0
    7.6287    3.1211    1.0645 C   0  0  0  0  0  0  0  0  0  0  0  0
    6.4391    3.0573    1.9297 C   0  0  0  0  0  0  0  0  0  0  0  0
    5.4887    2.2327    1.8471 O   0  0  0  0  0  0  0  0  0  0  0  0
    6.6100    3.9879    3.0208 C   0  0  0  0  0  0  0  0  0  0  0  0
    5.6866    4.3169    4.0165 C   0  0  0  0  0  0  0  0  0  0  0  0
    6.0230    5.3141    4.9393 C   0  0  0  0  0  0  0  0  0  0  0  0
    4.8653    5.7682    6.1817 Cl  0  0  0  0  0  0  0  0  0  0  0  0
    7.2700    5.9611    4.8520 C   0  0  0  0  0  0  0  0  0  0  0  0
    7.5823    6.9506    5.7241 F   0  0  0  0  0  0  0  0  0  0  0  0
    8.1849    5.6158    3.8408 C   0  0  0  0  0  0  0  0  0  0  0  0
    7.8506    4.5965    2.9289 C   0  0  0  0  0  0  0  0  0  0  0  0
    8.5752    4.0858    1.7259 C   0  0  0  0  0  0  0  0  0  0  0  0
    9.8145    4.4684    1.3032 C   0  0  0  0  0  0  0  0  0  0  0  0
   10.3330    4.1616   -0.0051 C   0  0  0  0  0  0  0  0  0  0  0  0
   10.7629    3.9273   -1.0554 N   0  0  0  0  0  0  0  0  0  0  0  0
   10.7208    5.2160    2.1317 C   0  0  0  0  0  0  0  0  0  0  0  0
   11.4682    5.8089    2.7863 N   0  0  0  0  0  0  0  0  0  0  0  0
    6.8346    1.5747   -0.7488 C   0  0  0  0  0  0  0  0  0  0  0  0
    7.0621    0.3825   -1.4723 C   0  0  0  0  0  0  0  0  0  0  0  0
    8.3213   -0.4388   -1.4167 C   0  0  0  0  0  0  0  0  0  0  0  0
    8.3056   -1.3669   -0.2053 C   0  0  0  0  0  0  0  0  0  0  0  0
    5.9154   -0.0081   -2.1703 C   0  0  0  0  0  0  0  0  0  0  0  0
    4.8385    0.8285   -2.0331 C   0  0  0  0  0  0  0  0  0  0  0  0
    5.2432    2.1196   -1.0495 S   0  0  0  0  0  0  0  0  0  0  0  0
    3.6971    0.3651   -2.6779 C   0  0  0  0  0  0  0  0  0  0  0  0
    3.9225   -0.8173   -3.3067 C   0  0  0  0  0  0  0  0  0  0  0  0
    5.5051   -1.3978   -3.0700 S   0  0  0  0  0  0  0  0  0  0  0  0
    2.7019   -1.3740   -3.5739 C   0  0  0  0  0  0  0  0  0  0  0  0
    2.3688   -2.6922   -3.9277 C   0  0  0  0  0  0  0  0  0  0  0  0
    3.3008   -3.5844   -4.3511 N   0  0  0  0  0  0  0  0  0  0  0  0
    2.9579   -4.8578   -4.6924 C   0  0  0  0  0  0  0  0  0  0  0  0
    4.0254   -5.7915   -5.1825 C   0  0  0  0  0  0  0  0  0  0  0  0
    1.6053   -5.2624   -4.5834 C   0  0  0  0  0  0  0  0  0  0  0  0
    1.1599   -6.6478   -4.9490 C   0  0  0  0  0  0  0  0  0  0  0  0
    0.6768   -4.3662   -4.1528 N   0  0  0  0  0  0  0  0  0  0  0  0
    1.0228   -3.0978   -3.8217 C   0  0  0  0  0  0  0  0  0  0  0  0
    0.0743   -2.1588   -3.4043 C   0  0  0  0  0  0  0  0  0  0  0  0
   -1.2743   -2.2605   -3.2417 C   0  0  0  0  0  0  0  0  0  0  0  0
   -2.4928   -3.4409   -3.2593 S   0  0  0  0  0  0  0  0  0  0  0  0
   -3.6609   -2.2635   -2.8453 C   0  0  0  0  0  0  0  0  0  0  0  0
   -4.9965   -2.3476   -2.4347 C   0  0  0  0  0  0  0  0  0  0  0  0
   -5.7683   -3.6396   -2.4086 C   0  0  0  0  0  0  0  0  0  0  0  0
   -6.5896   -3.8041   -3.6813 C   0  0  0  0  0  0  0  0  0  0  0  0
   -5.4814   -1.0900   -1.9936 C   0  0  0  0  0  0  0  0  0  0  0  0
   -4.2254    0.0543   -2.1474 S   0  0  0  0  0  0  0  0  0  0  0  0
   -3.1012   -1.0150   -2.7475 C   0  0  0  0  0  0  0  0  0  0  0  0
   -1.7320   -1.0210   -2.9486 C   0  0  0  0  0  0  0  0  0  0  0  0
   -0.7524   -0.0806   -2.8992 N   0  0  0  0  0  0  0  0  0  0  0  0
   -0.9708    1.3218   -3.2803 C   0  0  0  0  0  0  0  0  0  0  0  0
   -1.5786    2.1458   -2.1379 C   0  0  0  0  0  0  0  0  0  0  0  0
    0.3861   -0.8208   -3.1197 C   0  0  0  0  0  0  0  0  0  0  0  0
    1.7526   -0.4362   -3.1261 C   0  0  0  0  0  0  0  0  0  0  0  0
    2.3743    0.6205   -2.4999 N   0  0  0  0  0  0  0  0  0  0  0  0
    1.8588    1.4353   -1.3914 C   0  0  0  0  0  0  0  0  0  0  0  0
    1.7079    0.6023   -0.1202 C   0  0  0  0  0  0  0  0  0  0  0  0
   -6.8171   -0.8778   -1.3678 C   0  0  0  0  0  0  0  0  0  0  0  0
   -7.1513    0.0569   -0.4462 C   0  0  0  0  0  0  0  0  0  0  0  0
   -6.3043    1.1190    0.1218 C   0  0  0  0  0  0  0  0  0  0  0  0
   -5.5433    1.8936   -0.5138 O   0  0  0  0  0  0  0  0  0  0  0  0
   -6.7001    1.3335    1.4961 C   0  0  0  0  0  0  0  0  0  0  0  0
   -6.0670    2.1168    2.4588 C   0  0  0  0  0  0  0  0  0  0  0  0
   -6.5783    2.1133    3.7661 C   0  0  0  0  0  0  0  0  0  0  0  0
   -5.9699    2.8830    4.7679 C   0  0  0  0  0  0  0  0  0  0  0  0
   -6.4704    2.8594    6.0729 C   0  0  0  0  0  0  0  0  0  0  0  0
   -7.5799    2.0691    6.3878 C   0  0  0  0  0  0  0  0  0  0  0  0
   -8.0581    2.0551    7.6586 F   0  0  0  0  0  0  0  0  0  0  0  0
   -8.1990    1.2958    5.3995 C   0  0  0  0  0  0  0  0  0  0  0  0
   -7.7116    1.3095    4.0832 C   0  0  0  0  0  0  0  0  0  0  0  0
   -8.3311    0.5342    3.0815 C   0  0  0  0  0  0  0  0  0  0  0  0
   -7.8255    0.5842    1.7738 C   0  0  0  0  0  0  0  0  0  0  0  0
   -8.2640   -0.1148    0.5367 C   0  0  0  0  0  0  0  0  0  0  0  0
   -9.5126   -0.5679    0.2618 C   0  0  0  0  0  0  0  0  0  0  0  0
   -9.9124   -0.9422   -1.0727 C   0  0  0  0  0  0  0  0  0  0  0  0
  -10.2425   -1.2376   -2.1423 N   0  0  0  0  0  0  0  0  0  0  0  0
  -10.5666   -0.5680    1.2440 C   0  0  0  0  0  0  0  0  0  0  0  0
  -11.4232   -0.5713    2.0236 N   0  0  0  0  0  0  0  0  0  0  0  0
    8.8570    2.2544   -0.4063 H   0  0  0  0  0  0  0  0  0  0  0  0
    4.7198    3.8268    4.0590 H   0  0  0  0  0  0  0  0  0  0  0  0
    9.0989    6.1766    3.7769 H   0  0  0  0  0  0  0  0  0  0  0  0
    9.2131    0.2177   -1.3623 H   0  0  0  0  0  0  0  0  0  0  0  0
    8.4147   -1.0463   -2.3434 H   0  0  0  0  0  0  0  0  0  0  0  0
    9.2507   -1.9502   -0.1728 H   0  0  0  0  0  0  0  0  0  0  0  0
    8.2171   -0.7805    0.7346 H   0  0  0  0  0  0  0  0  0  0  0  0
    7.4490   -2.0754   -0.2786 H   0  0  0  0  0  0  0  0  0  0  0  0
    3.7808   -6.1368   -6.2090 H   0  0  0  0  0  0  0  0  0  0  0  0
    4.0971   -6.6691   -4.5023 H   0  0  0  0  0  0  0  0  0  0  0  0
    5.0122   -5.2779   -5.2170 H   0  0  0  0  0  0  0  0  0  0  0  0
    1.6718   -7.3930   -4.3049 H   0  0  0  0  0  0  0  0  0  0  0  0
    1.3914   -6.8521   -6.0159 H   0  0  0  0  0  0  0  0  0  0  0  0
    0.0641   -6.7574   -4.8033 H   0  0  0  0  0  0  0  0  0  0  0  0
   -5.0648   -4.4945   -2.3163 H   0  0  0  0  0  0  0  0  0  0  0  0
   -6.4335   -3.6807   -1.5223 H   0  0  0  0  0  0  0  0  0  0  0  0
   -7.3148   -2.9691   -3.7907 H   0  0  0  0  0  0  0  0  0  0  0  0
   -7.1512   -4.7625   -3.6381 H   0  0  0  0  0  0  0  0  0  0  0  0
   -5.9207   -3.8321   -4.5661 H   0  0  0  0  0  0  0  0  0  0  0  0
   -1.6519    1.3633   -4.1609 H   0  0  0  0  0  0  0  0  0  0  0  0
   -0.0217    1.7808   -3.6251 H   0  0  0  0  0  0  0  0  0  0  0  0
   -1.1091    3.1484   -2.1060 H   0  0  0  0  0  0  0  0  0  0  0  0
   -1.4325    1.6481   -1.1555 H   0  0  0  0  0  0  0  0  0  0  0  0
   -2.6611    2.3047   -2.3079 H   0  0  0  0  0  0  0  0  0  0  0  0
    2.5334    2.2913   -1.1971 H   0  0  0  0  0  0  0  0  0  0  0  0
    0.9033    1.8925   -1.6375 H   0  0  0  0  0  0  0  0  0  0  0  0
    1.3042    1.2375    0.6954 H   0  0  0  0  0  0  0  0  0  0  0  0
    2.6973    0.2009    0.1896 H   0  0  0  0  0  0  0  0  0  0  0  0
    1.0069   -0.2375   -0.2944 H   0  0  0  0  0  0  0  0  0  0  0  0
   -7.5167   -1.6830   -1.5201 H   0  0  0  0  0  0  0  0  0  0  0  0
   -5.1848    2.6926    2.2025 H   0  0  0  0  0  0  0  0  0  0  0  0
   -5.1040    3.4965    4.5465 H   0  0  0  0  0  0  0  0  0  0  0  0
   -5.9976    3.4576    6.8429 H   0  0  0  0  0  0  0  0  0  0  0  0
   -9.0528    0.6862    5.6671 H   0  0  0  0  0  0  0  0  0  0  0  0
   -9.1576   -0.1114    3.3408 H   0  0  0  0  0  0  0  0  0  0  0  0
  1  2  2  3
  2  3  1  0
  3  4  2  0
  3  5  1  0
  5  6  2  0
  6  7  1  0
  7  8  1  0
  7  9  2  0
  9 10  1  0
  9 11  1  0
 11 12  2  0
 12 13  1  0
 13 14  2  3
 14 15  1  0
 15 16  3  0
 14 17  1  0
 17 18  3  0
  1 19  1  0
 19 20  2  0
 20 21  1  0
 21 22  1  0
 20 23  1  0
 23 24  2  0
 24 25  1  0
 24 26  1  0
 26 27  2  0
 27 28  1  0
 27 29  1  0
 29 30  2  0
 30 31  1  0
 31 32  2  0
 32 33  1  0
 32 34  1  0
 34 35  1  0
 34 36  2  0
 36 37  1  0
 37 38  2  0
 38 39  1  0
 39 40  1  0
 40 41  1  0
 41 42  1  0
 42 43  1  0
 43 44  1  0
 42 45  2  0
 45 46  1  0
 46 47  1  0
 47 48  1  0
 48 49  1  0
 49 50  1  0
 50 51  1  0
 49 52  1  0
 52 53  2  0
 53 54  1  0
 54 55  1  0
 55 56  1  0
 45 57  1  0
 57 58  2  3
 58 59  1  0
 59 60  2  0
 59 61  1  0
 61 62  2  0
 62 63  1  0
 63 64  2  0
 64 65  1  0
 65 66  2  0
 66 67  1  0
 66 68  1  0
 68 69  2  0
 69 70  1  0
 70 71  2  0
 71 72  1  0
 72 73  2  3
 73 74  1  0
 74 75  3  0
 73 76  1  0
 76 77  3  0
 13  2  1  0
 25 19  1  0
 54 26  1  0
 72 58  1  0
 12  5  1  0
 28 23  1  0
 53 29  1  0
 71 61  1  0
 37 30  1  0
 52 38  1  0
 69 63  1  0
 48 39  2  0
 47 41  2  0
  1 78  1  0
  6 79  1  0
 11 80  1  0
 21 81  1  0
 21 82  1  0
 22 83  1  0
 22 84  1  0
 22 85  1  0
 33 86  1  0
 33 87  1  0
 33 88  1  0
 35 89  1  0
 35 90  1  0
 35 91  1  0
 43 92  1  0
 43 93  1  0
 44 94  1  0
 44 95  1  0
 44 96  1  0
 50 97  1  0
 50 98  1  0
 51 99  1  0
 51100  1  0
 51101  1  0
 55102  1  0
 55103  1  0
 56104  1  0
 56105  1  0
 56106  1  0
 57107  1  0
 62108  1  0
 64109  1  0
 65110  1  0
 68111  1  0
 70112  1  0
M  END

