
     RDKit          3D

218240  0  0  0  0  0  0  0  0999 V2000
    2.3330    4.2978    6.9355 C   0  0  0  0  0  0  0  0  0  0  0  0
    1.2558    4.5253    6.1635 C   0  0  0  0  0  0  0  0  0  0  0  0
    0.9809    3.9065    4.8602 C   0  0  0  0  0  0  0  0  0  0  0  0
    1.4853    2.8475    4.4102 O   0  0  0  0  0  0  0  0  0  0  0  0
   -0.0178    4.6984    4.1782 C   0  0  0  0  0  0  0  0  0  0  0  0
   -0.4886    4.5516    2.8723 C   0  0  0  0  0  0  0  0  0  0  0  0
   -1.4060    5.4934    2.3812 C   0  0  0  0  0  0  0  0  0  0  0  0
   -2.0258    5.3247    0.7490 Cl  0  0  0  0  0  0  0  0  0  0  0  0
   -1.8258    6.5588    3.2005 C   0  0  0  0  0  0  0  0  0  0  0  0
   -2.6973    7.4754    2.7191 F   0  0  0  0  0  0  0  0  0  0  0  0
   -1.3227    6.6944    4.5062 C   0  0  0  0  0  0  0  0  0  0  0  0
   -0.4282    5.7345    4.9991 C   0  0  0  0  0  0  0  0  0  0  0  0
    0.2451    5.6163    6.3273 C   0  0  0  0  0  0  0  0  0  0  0  0
   -0.1411    6.2066    7.4910 C   0  0  0  0  0  0  0  0  0  0  0  0
    0.3865    5.8002    8.7740 C   0  0  0  0  0  0  0  0  0  0  0  0
    0.7929    5.4675    9.8122 N   0  0  0  0  0  0  0  0  0  0  0  0
   -1.1940    7.1825    7.5538 C   0  0  0  0  0  0  0  0  0  0  0  0
   -2.0415    7.9669    7.6231 N   0  0  0  0  0  0  0  0  0  0  0  0
    3.3365    3.2741    6.6246 C   0  0  0  0  0  0  0  0  0  0  0  0
    4.4604    3.3810    5.3568 S   0  0  0  0  0  0  0  0  0  0  0  0
    5.0191    1.8098    5.5567 C   0  0  0  0  0  0  0  0  0  0  0  0
    5.4275    0.8340    4.5743 C   0  0  0  0  0  0  0  0  0  0  0  0
    4.8505   -0.3753    4.9293 C   0  0  0  0  0  0  0  0  0  0  0  0
    4.3299   -0.3404    6.3672 C   0  0  0  0  0  0  0  0  0  0  0  0
    4.2798    1.1723    6.5156 C   0  0  0  0  0  0  0  0  0  0  0  0
    3.3534    1.9902    7.1676 C   0  0  0  0  0  0  0  0  0  0  0  0
    2.9748   -1.0459    6.5302 C   0  0  0  0  0  0  0  0  0  0  0  0
    1.7809   -0.4694    6.0482 C   0  0  0  0  0  0  0  0  0  0  0  0
    0.5578   -1.1405    6.1723 C   0  0  0  0  0  0  0  0  0  0  0  0
    0.5030   -2.4141    6.7590 C   0  0  0  0  0  0  0  0  0  0  0  0
   -0.8063   -3.1298    6.9314 C   0  0  0  0  0  0  0  0  0  0  0  0
   -1.2328   -3.1493    8.3989 C   0  0  0  0  0  0  0  0  0  0  0  0
    1.6921   -3.0157    7.1944 C   0  0  0  0  0  0  0  0  0  0  0  0
    2.9101   -2.3500    7.0685 C   0  0  0  0  0  0  0  0  0  0  0  0
    5.3771   -0.8542    7.3714 C   0  0  0  0  0  0  0  0  0  0  0  0
    6.4768   -1.6484    6.9721 C   0  0  0  0  0  0  0  0  0  0  0  0
    7.3987   -2.1153    7.9125 C   0  0  0  0  0  0  0  0  0  0  0  0
    7.2324   -1.8283    9.2748 C   0  0  0  0  0  0  0  0  0  0  0  0
    8.2185   -2.3490   10.2887 C   0  0  0  0  0  0  0  0  0  0  0  0
    9.3675   -1.3678   10.4840 C   0  0  0  0  0  0  0  0  0  0  0  0
    6.1432   -1.0402    9.6812 C   0  0  0  0  0  0  0  0  0  0  0  0
    5.2225   -0.5712    8.7402 C   0  0  0  0  0  0  0  0  0  0  0  0
    4.4221   -1.0756    3.7884 C   0  0  0  0  0  0  0  0  0  0  0  0
    3.1018   -2.1143    3.5331 S   0  0  0  0  0  0  0  0  0  0  0  0
    3.0715   -1.8191    1.8682 C   0  0  0  0  0  0  0  0  0  0  0  0
    2.0016   -1.7857    0.8964 C   0  0  0  0  0  0  0  0  0  0  0  0
    0.6908   -2.2708    0.9934 C   0  0  0  0  0  0  0  0  0  0  0  0
   -0.1829   -1.9586   -0.0663 C   0  0  0  0  0  0  0  0  0  0  0  0
   -1.6664   -2.3009   -0.2116 C   0  0  0  0  0  0  0  0  0  0  0  0
   -1.9810   -3.7874   -0.0247 C   0  0  0  0  0  0  0  0  0  0  0  0
   -1.0214   -4.7780   -0.3276 C   0  0  0  0  0  0  0  0  0  0  0  0
   -1.3129   -6.1316   -0.1370 C   0  0  0  0  0  0  0  0  0  0  0  0
   -2.5809   -6.5277    0.3095 C   0  0  0  0  0  0  0  0  0  0  0  0
   -2.8843   -7.9808    0.5588 C   0  0  0  0  0  0  0  0  0  0  0  0
   -2.6328   -8.3510    2.0162 C   0  0  0  0  0  0  0  0  0  0  0  0
   -3.5561   -5.5541    0.5629 C   0  0  0  0  0  0  0  0  0  0  0  0
   -3.2678   -4.2006    0.3790 C   0  0  0  0  0  0  0  0  0  0  0  0
   -2.4486   -1.3813    0.7457 C   0  0  0  0  0  0  0  0  0  0  0  0
   -2.3537   -1.5905    2.1351 C   0  0  0  0  0  0  0  0  0  0  0  0
   -2.9115   -0.6816    3.0382 C   0  0  0  0  0  0  0  0  0  0  0  0
   -3.6014    0.4476    2.5742 C   0  0  0  0  0  0  0  0  0  0  0  0
   -4.0962    1.4908    3.5379 C   0  0  0  0  0  0  0  0  0  0  0  0
   -3.0909    2.6307    3.6484 C   0  0  0  0  0  0  0  0  0  0  0  0
   -3.7357    0.6515    1.1958 C   0  0  0  0  0  0  0  0  0  0  0  0
   -3.1629   -0.2458    0.2918 C   0  0  0  0  0  0  0  0  0  0  0  0
   -1.8365   -1.9062   -1.6668 C   0  0  0  0  0  0  0  0  0  0  0  0
   -0.7765   -1.1793   -2.1242 C   0  0  0  0  0  0  0  0  0  0  0  0
    0.2767   -1.2090   -1.1558 C   0  0  0  0  0  0  0  0  0  0  0  0
    1.5553   -0.6634   -1.2136 C   0  0  0  0  0  0  0  0  0  0  0  0
    2.4123   -0.9470   -0.1447 C   0  0  0  0  0  0  0  0  0  0  0  0
    3.7740   -0.3296    0.1193 C   0  0  0  0  0  0  0  0  0  0  0  0
    4.8772   -0.8630   -0.8043 C   0  0  0  0  0  0  0  0  0  0  0  0
    4.6232   -1.8106   -1.8243 C   0  0  0  0  0  0  0  0  0  0  0  0
    5.6674   -2.3313   -2.5845 C   0  0  0  0  0  0  0  0  0  0  0  0
    6.9910   -1.9359   -2.3498 C   0  0  0  0  0  0  0  0  0  0  0  0
    8.1058   -2.4891   -3.2006 C   0  0  0  0  0  0  0  0  0  0  0  0
    8.2490   -1.6881   -4.4911 C   0  0  0  0  0  0  0  0  0  0  0  0
    7.2544   -0.9851   -1.3536 C   0  0  0  0  0  0  0  0  0  0  0  0
    6.2127   -0.4613   -0.5854 C   0  0  0  0  0  0  0  0  0  0  0  0
    3.6230    1.1995    0.1126 C   0  0  0  0  0  0  0  0  0  0  0  0
    4.0746    1.9837   -0.9728 C   0  0  0  0  0  0  0  0  0  0  0  0
    3.8474    3.3614   -1.0004 C   0  0  0  0  0  0  0  0  0  0  0  0
    3.1421    3.9875    0.0339 C   0  0  0  0  0  0  0  0  0  0  0  0
    2.8967    5.4745    0.0122 C   0  0  0  0  0  0  0  0  0  0  0  0
    3.9280    6.2133    0.8624 C   0  0  0  0  0  0  0  0  0  0  0  0
    2.6806    3.2183    1.1079 C   0  0  0  0  0  0  0  0  0  0  0  0
    2.8799    1.8416    1.1302 C   0  0  0  0  0  0  0  0  0  0  0  0
    4.0295   -0.9078    1.5004 C   0  0  0  0  0  0  0  0  0  0  0  0
    4.7673   -0.4666    2.5966 C   0  0  0  0  0  0  0  0  0  0  0  0
    5.4870    1.0283    2.8909 S   0  0  0  0  0  0  0  0  0  0  0  0
   -1.0222   -0.4927   -3.6520 S   0  0  0  0  0  0  0  0  0  0  0  0
   -2.5554   -1.2110   -3.7407 C   0  0  0  0  0  0  0  0  0  0  0  0
   -3.5964   -1.1674   -4.6454 C   0  0  0  0  0  0  0  0  0  0  0  0
   -4.6586   -1.9297   -4.2147 C   0  0  0  0  0  0  0  0  0  0  0  0
   -4.4292   -2.5894   -2.6631 S   0  0  0  0  0  0  0  0  0  0  0  0
   -2.8533   -1.9426   -2.6103 C   0  0  0  0  0  0  0  0  0  0  0  0
   -5.7517   -1.7067   -5.1073 C   0  0  0  0  0  0  0  0  0  0  0  0
   -7.4022   -1.9834   -5.1435 S   0  0  0  0  0  0  0  0  0  0  0  0
   -7.6322   -0.9620   -6.4915 C   0  0  0  0  0  0  0  0  0  0  0  0
   -6.4239   -0.3407   -6.8401 C   0  0  0  0  0  0  0  0  0  0  0  0
   -5.3751   -0.8012   -6.0513 C   0  0  0  0  0  0  0  0  0  0  0  0
   -3.9513   -0.2962   -5.8386 C   0  0  0  0  0  0  0  0  0  0  0  0
   -3.0056   -0.5970   -7.0065 C   0  0  0  0  0  0  0  0  0  0  0  0
   -3.3528   -1.4791   -8.0555 C   0  0  0  0  0  0  0  0  0  0  0  0
   -2.4676   -1.7208   -9.1109 C   0  0  0  0  0  0  0  0  0  0  0  0
   -1.2041   -1.1167   -9.1323 C   0  0  0  0  0  0  0  0  0  0  0  0
   -0.2727   -1.3392  -10.2936 C   0  0  0  0  0  0  0  0  0  0  0  0
   -0.4771   -0.2695  -11.3659 C   0  0  0  0  0  0  0  0  0  0  0  0
   -0.8406   -0.2509   -8.0913 C   0  0  0  0  0  0  0  0  0  0  0  0
   -1.7239   -0.0031   -7.0390 C   0  0  0  0  0  0  0  0  0  0  0  0
   -4.0401    1.2005   -5.4926 C   0  0  0  0  0  0  0  0  0  0  0  0
   -4.0100    2.1631   -6.5261 C   0  0  0  0  0  0  0  0  0  0  0  0
   -4.2057    3.5169   -6.2525 C   0  0  0  0  0  0  0  0  0  0  0  0
   -4.4908    3.9421   -4.9445 C   0  0  0  0  0  0  0  0  0  0  0  0
   -4.7635    5.3945   -4.6632 C   0  0  0  0  0  0  0  0  0  0  0  0
   -3.4919    6.1309   -4.2447 C   0  0  0  0  0  0  0  0  0  0  0  0
   -4.5202    2.9984   -3.9100 C   0  0  0  0  0  0  0  0  0  0  0  0
   -4.3159    1.6415   -4.1807 C   0  0  0  0  0  0  0  0  0  0  0  0
   -8.9551   -0.5704   -6.9984 C   0  0  0  0  0  0  0  0  0  0  0  0
   -9.1868   -0.1535   -8.2607 C   0  0  0  0  0  0  0  0  0  0  0  0
   -8.3762   -0.5009   -9.4351 C   0  0  0  0  0  0  0  0  0  0  0  0
   -7.3056   -1.1617   -9.4400 O   0  0  0  0  0  0  0  0  0  0  0  0
   -9.1062   -0.1064  -10.6245 C   0  0  0  0  0  0  0  0  0  0  0  0
   -8.7241   -0.2560  -11.9595 C   0  0  0  0  0  0  0  0  0  0  0  0
   -7.5318   -0.8101  -12.2934 F   0  0  0  0  0  0  0  0  0  0  0  0
   -9.6069    0.1760  -12.9587 C   0  0  0  0  0  0  0  0  0  0  0  0
  -10.8479    0.7392  -12.6088 C   0  0  0  0  0  0  0  0  0  0  0  0
  -11.2181    0.8762  -11.2605 C   0  0  0  0  0  0  0  0  0  0  0  0
  -10.3207    0.4530  -10.2609 C   0  0  0  0  0  0  0  0  0  0  0  0
  -10.4195    0.5168   -8.7733 C   0  0  0  0  0  0  0  0  0  0  0  0
  -11.2887    1.2564   -8.0393 C   0  0  0  0  0  0  0  0  0  0  0  0
  -12.4265    1.9328   -8.6108 C   0  0  0  0  0  0  0  0  0  0  0  0
  -13.3410    2.4833   -9.0547 N   0  0  0  0  0  0  0  0  0  0  0  0
  -11.0684    1.5446   -6.6486 C   0  0  0  0  0  0  0  0  0  0  0  0
  -10.8742    1.7881   -5.5329 N   0  0  0  0  0  0  0  0  0  0  0  0
    2.5231    4.8969    7.8143 H   0  0  0  0  0  0  0  0  0  0  0  0
   -0.1549    3.7315    2.2461 H   0  0  0  0  0  0  0  0  0  0  0  0
   -1.6190    7.5552    5.0809 H   0  0  0  0  0  0  0  0  0  0  0  0
    2.6248    1.6346    7.8916 H   0  0  0  0  0  0  0  0  0  0  0  0
    1.7924    0.4896    5.5513 H   0  0  0  0  0  0  0  0  0  0  0  0
   -0.3442   -0.6670    5.7986 H   0  0  0  0  0  0  0  0  0  0  0  0
   -0.7047   -4.1764    6.5697 H   0  0  0  0  0  0  0  0  0  0  0  0
   -1.6045   -2.6456    6.3270 H   0  0  0  0  0  0  0  0  0  0  0  0
   -1.2987   -2.1150    8.8002 H   0  0  0  0  0  0  0  0  0  0  0  0
   -0.5036   -3.7281    9.0054 H   0  0  0  0  0  0  0  0  0  0  0  0
   -2.2272   -3.6346    8.4891 H   0  0  0  0  0  0  0  0  0  0  0  0
    1.6717   -4.0079    7.6282 H   0  0  0  0  0  0  0  0  0  0  0  0
    3.7997   -2.8713    7.3919 H   0  0  0  0  0  0  0  0  0  0  0  0
    6.6186   -1.9221    5.9331 H   0  0  0  0  0  0  0  0  0  0  0  0
    8.2387   -2.7090    7.5756 H   0  0  0  0  0  0  0  0  0  0  0  0
    7.7130   -2.5111   11.2698 H   0  0  0  0  0  0  0  0  0  0  0  0
    8.6242   -3.3307    9.9586 H   0  0  0  0  0  0  0  0  0  0  0  0
    8.9885   -0.4055   10.8919 H   0  0  0  0  0  0  0  0  0  0  0  0
    9.8842   -1.1776    9.5194 H   0  0  0  0  0  0  0  0  0  0  0  0
   10.1032   -1.7901   11.2018 H   0  0  0  0  0  0  0  0  0  0  0  0
    6.0023   -0.7958   10.7266 H   0  0  0  0  0  0  0  0  0  0  0  0
    4.3761    0.0120    9.0848 H   0  0  0  0  0  0  0  0  0  0  0  0
    0.3712   -2.8503    1.8483 H   0  0  0  0  0  0  0  0  0  0  0  0
   -0.0422   -4.5121   -0.6963 H   0  0  0  0  0  0  0  0  0  0  0  0
   -0.5464   -6.8732   -0.3384 H   0  0  0  0  0  0  0  0  0  0  0  0
   -3.9463   -8.1954    0.2985 H   0  0  0  0  0  0  0  0  0  0  0  0
   -2.2504   -8.6262   -0.0909 H   0  0  0  0  0  0  0  0  0  0  0  0
   -1.5545   -8.2393    2.2616 H   0  0  0  0  0  0  0  0  0  0  0  0
   -3.2368   -7.7051    2.6910 H   0  0  0  0  0  0  0  0  0  0  0  0
   -2.9287   -9.4093    2.1875 H   0  0  0  0  0  0  0  0  0  0  0  0
   -4.5434   -5.8422    0.9036 H   0  0  0  0  0  0  0  0  0  0  0  0
   -4.0499   -3.4729    0.5570 H   0  0  0  0  0  0  0  0  0  0  0  0
   -1.8242   -2.4478    2.5250 H   0  0  0  0  0  0  0  0  0  0  0  0
   -2.7837   -0.8473    4.1043 H   0  0  0  0  0  0  0  0  0  0  0  0
   -4.2549    1.0492    4.5462 H   0  0  0  0  0  0  0  0  0  0  0  0
   -5.0752    1.8897    3.1916 H   0  0  0  0  0  0  0  0  0  0  0  0
   -2.9484    3.0886    2.6484 H   0  0  0  0  0  0  0  0  0  0  0  0
   -2.1132    2.2566    4.0328 H   0  0  0  0  0  0  0  0  0  0  0  0
   -3.4782    3.4111    4.3394 H   0  0  0  0  0  0  0  0  0  0  0  0
   -4.2542    1.5255    0.8192 H   0  0  0  0  0  0  0  0  0  0  0  0
   -3.2640   -0.0162   -0.7578 H   0  0  0  0  0  0  0  0  0  0  0  0
    1.8647   -0.0366   -2.0359 H   0  0  0  0  0  0  0  0  0  0  0  0
    3.6253   -2.1661   -2.0330 H   0  0  0  0  0  0  0  0  0  0  0  0
    5.4471   -3.0497   -3.3637 H   0  0  0  0  0  0  0  0  0  0  0  0
    9.0686   -2.4710   -2.6428 H   0  0  0  0  0  0  0  0  0  0  0  0
    7.8924   -3.5502   -3.4551 H   0  0  0  0  0  0  0  0  0  0  0  0
    9.0263   -2.1531   -5.1326 H   0  0  0  0  0  0  0  0  0  0  0  0
    8.5516   -0.6461   -4.2631 H   0  0  0  0  0  0  0  0  0  0  0  0
    7.2888   -1.6743   -5.0536 H   0  0  0  0  0  0  0  0  0  0  0  0
    8.2651   -0.6508   -1.1675 H   0  0  0  0  0  0  0  0  0  0  0  0
    6.4449    0.2635    0.1861 H   0  0  0  0  0  0  0  0  0  0  0  0
    4.5936    1.5357   -1.8098 H   0  0  0  0  0  0  0  0  0  0  0  0
    4.2168    3.9439   -1.8380 H   0  0  0  0  0  0  0  0  0  0  0  0
    1.8756    5.7017    0.3989 H   0  0  0  0  0  0  0  0  0  0  0  0
    2.9459    5.8654   -1.0315 H   0  0  0  0  0  0  0  0  0  0  0  0
    3.6489    7.2880    0.9397 H   0  0  0  0  0  0  0  0  0  0  0  0
    4.9322    6.1414    0.3902 H   0  0  0  0  0  0  0  0  0  0  0  0
    3.9693    5.7844    1.8880 H   0  0  0  0  0  0  0  0  0  0  0  0
    2.1600    3.6949    1.9245 H   0  0  0  0  0  0  0  0  0  0  0  0
    2.4646    1.2724    1.9543 H   0  0  0  0  0  0  0  0  0  0  0  0
   -6.3306    0.4580   -7.5606 H   0  0  0  0  0  0  0  0  0  0  0  0
   -4.3128   -1.9755   -8.0737 H   0  0  0  0  0  0  0  0  0  0  0  0
   -2.7710   -2.3830   -9.9154 H   0  0  0  0  0  0  0  0  0  0  0  0
   -0.4454   -2.3416  -10.7401 H   0  0  0  0  0  0  0  0  0  0  0  0
    0.7848   -1.3107   -9.9437 H   0  0  0  0  0  0  0  0  0  0  0  0
   -1.5234   -0.2937  -11.7371 H   0  0  0  0  0  0  0  0  0  0  0  0
    0.2094   -0.4590  -12.2173 H   0  0  0  0  0  0  0  0  0  0  0  0
   -0.2577    0.7340  -10.9477 H   0  0  0  0  0  0  0  0  0  0  0  0
    0.1259    0.2430   -8.0998 H   0  0  0  0  0  0  0  0  0  0  0  0
   -1.4189    0.6814   -6.2584 H   0  0  0  0  0  0  0  0  0  0  0  0
   -3.8497    1.8650   -7.5555 H   0  0  0  0  0  0  0  0  0  0  0  0
   -4.1665    4.2285   -7.0641 H   0  0  0  0  0  0  0  0  0  0  0  0
   -5.5291    5.4826   -3.8563 H   0  0  0  0  0  0  0  0  0  0  0  0
   -5.1851    5.8871   -5.5659 H   0  0  0  0  0  0  0  0  0  0  0  0
   -3.7358    7.1983   -4.0500 H   0  0  0  0  0  0  0  0  0  0  0  0
   -3.0711    5.6877   -3.3195 H   0  0  0  0  0  0  0  0  0  0  0  0
   -2.7294    6.0795   -5.0537 H   0  0  0  0  0  0  0  0  0  0  0  0
   -4.7249    3.3089   -2.8933 H   0  0  0  0  0  0  0  0  0  0  0  0
   -4.4118    0.9453   -3.3605 H   0  0  0  0  0  0  0  0  0  0  0  0
   -9.7609   -0.5829   -6.2755 H   0  0  0  0  0  0  0  0  0  0  0  0
   -9.3386    0.0698  -14.0019 H   0  0  0  0  0  0  0  0  0  0  0  0
  -11.5217    1.0675  -13.3857 H   0  0  0  0  0  0  0  0  0  0  0  0
  -12.1816    1.2906  -11.0408 H   0  0  0  0  0  0  0  0  0  0  0  0
  1  2  2  3
  2  3  1  0
  3  4  2  0
  3  5  1  0
  5  6  2  0
  6  7  1  0
  7  8  1  0
  7  9  2  0
  9 10  1  0
  9 11  1  0
 11 12  2  0
 12 13  1  0
 13 14  2  3
 14 15  1  0
 15 16  3  0
 14 17  1  0
 17 18  3  0
  1 19  1  0
 19 20  1  0
 20 21  1  0
 21 22  1  0
 22 23  2  0
 23 24  1  0
 24 25  1  0
 25 26  1  0
 24 27  1  0
 27 28  2  0
 28 29  1  0
 29 30  2  0
 30 31  1  0
 31 32  1  0
 30 33  1  0
 33 34  2  0
 24 35  1  0
 35 36  2  0
 36 37  1  0
 37 38  2  0
 38 39  1  0
 39 40  1  0
 38 41  1  0
 41 42  2  0
 23 43  1  0
 43 44  1  0
 44 45  1  0
 45 46  1  0
 46 47  2  0
 47 48  1  0
 48 49  1  0
 49 50  1  0
 50 51  2  0
 51 52  1  0
 52 53  2  0
 53 54  1  0
 54 55  1  0
 53 56  1  0
 56 57  2  0
 49 58  1  0
 58 59  2  0
 59 60  1  0
 60 61  2  0
 61 62  1  0
 62 63  1  0
 61 64  1  0
 64 65  2  0
 49 66  1  0
 66 67  2  0
 67 68  1  0
 68 69  1  0
 69 70  2  0
 70 71  1  0
 71 72  1  0
 72 73  2  0
 73 74  1  0
 74 75  2  0
 75 76  1  0
 76 77  1  0
 75 78  1  0
 78 79  2  0
 71 80  1  0
 80 81  2  0
 81 82  1  0
 82 83  2  0
 83 84  1  0
 84 85  1  0
 83 86  1  0
 86 87  2  0
 71 88  1  0
 88 89  1  0
 89 90  1  0
 67 91  1  0
 91 92  1  0
 92 93  1  0
 93 94  2  0
 94 95  1  0
 95 96  1  0
 94 97  1  0
 97 98  1  0
 98 99  1  0
 99100  2  0
100101  1  0
101102  1  0
102103  1  0
103104  2  0
104105  1  0
105106  2  0
106107  1  0
107108  1  0
106109  1  0
109110  2  0
102111  1  0
111112  2  0
112113  1  0
113114  2  0
114115  1  0
115116  1  0
114117  1  0
117118  2  0
 99119  1  0
119120  2  3
120121  1  0
121122  2  0
121123  1  0
123124  2  0
124125  1  0
124126  1  0
126127  2  0
127128  1  0
128129  2  0
129130  1  0
130131  2  3
131132  1  0
132133  3  0
131134  1  0
134135  3  0
 13  2  1  0
 26 19  2  0
 34 27  1  0
 42 35  1  0
 89 43  2  0
 96 92  2  0
101 97  2  0
110103  1  0
118111  1  0
130120  1  0
 12  5  1  0
 25 21  2  0
 88 45  2  0
102 93  1  0
129123  1  0
 90 22  1  0
 70 46  1  0
 79 72  1  0
 87 80  1  0
 68 48  2  0
 57 50  1  0
 65 58  1  0
 96 66  1  0
  1136  1  0
  6137  1  0
 11138  1  0
 26139  1  0
 28140  1  0
 29141  1  0
 31142  1  0
 31143  1  0
 32144  1  0
 32145  1  0
 32146  1  0
 33147  1  0
 34148  1  0
 36149  1  0
 37150  1  0
 39151  1  0
 39152  1  0
 40153  1  0
 40154  1  0
 40155  1  0
 41156  1  0
 42157  1  0
 47158  1  0
 51159  1  0
 52160  1  0
 54161  1  0
 54162  1  0
 55163  1  0
 55164  1  0
 55165  1  0
 56166  1  0
 57167  1  0
 59168  1  0
 60169  1  0
 62170  1  0
 62171  1  0
 63172  1  0
 63173  1  0
 63174  1  0
 64175  1  0
 65176  1  0
 69177  1  0
 73178  1  0
 74179  1  0
 76180  1  0
 76181  1  0
 77182  1  0
 77183  1  0
 77184  1  0
 78185  1  0
 79186  1  0
 81187  1  0
 82188  1  0
 84189  1  0
 84190  1  0
 85191  1  0
 85192  1  0
 85193  1  0
 86194  1  0
 87195  1  0
100196  1  0
104197  1  0
105198  1  0
107199  1  0
107200  1  0
108201  1  0
108202  1  0
108203  1  0
109204  1  0
110205  1  0
112206  1  0
113207  1  0
115208  1  0
115209  1  0
116210  1  0
116211  1  0
116212  1  0
117213  1  0
118214  1  0
119215  1  0
126216  1  0
127217  1  0
128218  1  0
M  END

