
     RDKit          3D

116131  0  0  0  0  0  0  0  0999 V2000
   -2.0845    1.9049   -8.1243 C   0  0  0  0  0  0  0  0  0  0  0  0
   -2.2426    1.3410   -9.3339 C   0  0  0  0  0  0  0  0  0  0  0  0
   -2.2315   -0.1017   -9.6038 C   0  0  0  0  0  0  0  0  0  0  0  0
   -1.7835   -1.0040   -8.8477 O   0  0  0  0  0  0  0  0  0  0  0  0
   -2.8576   -0.3254  -10.8885 C   0  0  0  0  0  0  0  0  0  0  0  0
   -3.1702   -1.5459  -11.4864 C   0  0  0  0  0  0  0  0  0  0  0  0
   -3.8582   -1.5353  -12.7082 C   0  0  0  0  0  0  0  0  0  0  0  0
   -4.2708   -3.0555  -13.4841 Cl  0  0  0  0  0  0  0  0  0  0  0  0
   -4.2422   -0.3114  -13.2903 C   0  0  0  0  0  0  0  0  0  0  0  0
   -4.9291   -0.2994  -14.4613 F   0  0  0  0  0  0  0  0  0  0  0  0
   -3.9286    0.9061  -12.6623 C   0  0  0  0  0  0  0  0  0  0  0  0
   -3.2077    0.8872  -11.4560 C   0  0  0  0  0  0  0  0  0  0  0  0
   -2.7532    2.0007  -10.5738 C   0  0  0  0  0  0  0  0  0  0  0  0
   -2.6079    3.3078  -10.9144 C   0  0  0  0  0  0  0  0  0  0  0  0
   -1.9130    4.2488  -10.0736 C   0  0  0  0  0  0  0  0  0  0  0  0
   -1.3507    5.0093   -9.4049 N   0  0  0  0  0  0  0  0  0  0  0  0
   -3.0063    3.8250  -12.1977 C   0  0  0  0  0  0  0  0  0  0  0  0
   -3.3207    4.2554  -13.2245 N   0  0  0  0  0  0  0  0  0  0  0  0
   -1.7167    1.1289   -6.9388 C   0  0  0  0  0  0  0  0  0  0  0  0
   -2.8273    0.5299   -5.8118 S   0  0  0  0  0  0  0  0  0  0  0  0
   -1.6648   -0.2580   -4.8904 C   0  0  0  0  0  0  0  0  0  0  0  0
   -1.8206   -1.0091   -3.7165 C   0  0  0  0  0  0  0  0  0  0  0  0
   -3.2554   -1.2678   -2.8568 S   0  0  0  0  0  0  0  0  0  0  0  0
   -2.4514   -2.1390   -1.6650 C   0  0  0  0  0  0  0  0  0  0  0  0
   -2.7088   -2.3804   -0.3498 C   0  0  0  0  0  0  0  0  0  0  0  0
   -3.7988   -1.9492    0.4258 C   0  0  0  0  0  0  0  0  0  0  0  0
   -3.6523   -1.8880    1.8418 C   0  0  0  0  0  0  0  0  0  0  0  0
   -4.6918   -1.3855    2.5520 N   0  0  0  0  0  0  0  0  0  0  0  0
   -5.7348   -1.0400    1.3123 S   0  0  0  0  0  0  0  0  0  0  0  0
   -4.9633   -1.4777   -0.0870 N   0  0  0  0  0  0  0  0  0  0  0  0
   -2.4579   -2.3366    2.4061 C   0  0  0  0  0  0  0  0  0  0  0  0
   -1.9953   -2.3319    3.6896 C   0  0  0  0  0  0  0  0  0  0  0  0
   -2.3325   -1.4584    5.0884 S   0  0  0  0  0  0  0  0  0  0  0  0
   -0.7884   -1.7861    5.7312 C   0  0  0  0  0  0  0  0  0  0  0  0
   -0.1713   -1.1421    6.8174 C   0  0  0  0  0  0  0  0  0  0  0  0
    1.2037   -1.2652    7.0378 C   0  0  0  0  0  0  0  0  0  0  0  0
    1.9435   -2.0811    6.1771 C   0  0  0  0  0  0  0  0  0  0  0  0
    3.2761   -2.1892    6.0646 N   0  0  0  0  0  0  0  0  0  0  0  0
    3.4668   -2.8937    4.9511 N   0  0  0  0  0  0  0  0  0  0  0  0
    4.7789   -3.1249    4.3669 C   0  0  0  0  0  0  0  0  0  0  0  0
    5.1436   -1.9721    3.4379 C   0  0  0  0  0  0  0  0  0  0  0  0
    2.3327   -3.1921    4.3204 N   0  0  0  0  0  0  0  0  0  0  0  0
    1.3590   -2.6984    5.0975 C   0  0  0  0  0  0  0  0  0  0  0  0
   -0.0128   -2.5606    4.8335 C   0  0  0  0  0  0  0  0  0  0  0  0
   -0.7434   -2.8537    3.6750 C   0  0  0  0  0  0  0  0  0  0  0  0
   -0.3642   -3.2344    2.4245 N   0  0  0  0  0  0  0  0  0  0  0  0
   -1.4004   -2.8236    1.6332 C   0  0  0  0  0  0  0  0  0  0  0  0
   -1.4742   -2.7273    0.2167 C   0  0  0  0  0  0  0  0  0  0  0  0
   -0.4557   -2.5767   -0.7038 N   0  0  0  0  0  0  0  0  0  0  0  0
   -1.1028   -2.2146   -1.8570 C   0  0  0  0  0  0  0  0  0  0  0  0
   -0.6976   -1.5596   -3.0474 C   0  0  0  0  0  0  0  0  0  0  0  0
    0.5673   -1.3283   -3.6353 C   0  0  0  0  0  0  0  0  0  0  0  0
    0.6987   -0.5994   -4.7957 C   0  0  0  0  0  0  0  0  0  0  0  0
   -0.4055   -0.0460   -5.4433 C   0  0  0  0  0  0  0  0  0  0  0  0
   -0.4224    0.7289   -6.6047 C   0  0  0  0  0  0  0  0  0  0  0  0
    1.9959   -0.5237   -5.1259 N   0  0  0  0  0  0  0  0  0  0  0  0
    2.6209   -1.2147   -4.1770 N   0  0  0  0  0  0  0  0  0  0  0  0
    4.0702   -1.3546   -4.1106 C   0  0  0  0  0  0  0  0  0  0  0  0
    4.6771   -0.1881   -3.3413 C   0  0  0  0  0  0  0  0  0  0  0  0
    1.7951   -1.7127   -3.2601 N   0  0  0  0  0  0  0  0  0  0  0  0
    0.9575   -2.3094   -0.4074 C   0  0  0  0  0  0  0  0  0  0  0  0
    1.8733   -3.4170   -0.9396 C   0  0  0  0  0  0  0  0  0  0  0  0
    0.5114   -4.3718    2.1038 C   0  0  0  0  0  0  0  0  0  0  0  0
    0.2488   -5.5678    3.0212 C   0  0  0  0  0  0  0  0  0  0  0  0
    1.7153   -0.3479    7.9616 C   0  0  0  0  0  0  0  0  0  0  0  0
    0.7434    0.5375    8.4312 C   0  0  0  0  0  0  0  0  0  0  0  0
   -0.7563    0.1278    7.7431 S   0  0  0  0  0  0  0  0  0  0  0  0
    1.0781    1.7583    9.1955 C   0  0  0  0  0  0  0  0  0  0  0  0
    0.5131    2.9636    8.9930 C   0  0  0  0  0  0  0  0  0  0  0  0
   -0.7816    3.3309    7.9807 S   0  0  0  0  0  0  0  0  0  0  0  0
   -0.7262    5.0004    8.2326 C   0  0  0  0  0  0  0  0  0  0  0  0
   -1.5951    5.8696    7.6585 C   0  0  0  0  0  0  0  0  0  0  0  0
   -2.6620    5.3879    6.8153 C   0  0  0  0  0  0  0  0  0  0  0  0
   -3.5230    5.0024    6.1450 N   0  0  0  0  0  0  0  0  0  0  0  0
   -1.5374    7.2963    7.8432 C   0  0  0  0  0  0  0  0  0  0  0  0
   -1.4950    8.4440    7.9809 N   0  0  0  0  0  0  0  0  0  0  0  0
    0.3019    5.2963    9.0885 N   0  0  0  0  0  0  0  0  0  0  0  0
    0.7306    6.6118    9.4693 C   0  0  0  0  0  0  0  0  0  0  0  0
    0.3112    7.1656   10.6871 C   0  0  0  0  0  0  0  0  0  0  0  0
    0.7203    8.4530   11.0473 C   0  0  0  0  0  0  0  0  0  0  0  0
    1.5479    9.1920   10.1940 C   0  0  0  0  0  0  0  0  0  0  0  0
    1.9792    8.6353    8.9855 C   0  0  0  0  0  0  0  0  0  0  0  0
    1.5786    7.3462    8.6251 C   0  0  0  0  0  0  0  0  0  0  0  0
    0.9674    4.1763    9.5174 C   0  0  0  0  0  0  0  0  0  0  0  0
    1.9512    4.2458   10.3076 O   0  0  0  0  0  0  0  0  0  0  0  0
   -2.3570    2.9339   -7.9559 H   0  0  0  0  0  0  0  0  0  0  0  0
   -2.9023   -2.4812  -11.0086 H   0  0  0  0  0  0  0  0  0  0  0  0
   -4.2787    1.8207  -13.1084 H   0  0  0  0  0  0  0  0  0  0  0  0
    4.7743   -4.0782    3.7925 H   0  0  0  0  0  0  0  0  0  0  0  0
    5.5401   -3.2058    5.1722 H   0  0  0  0  0  0  0  0  0  0  0  0
    5.1685   -1.0165    4.0094 H   0  0  0  0  0  0  0  0  0  0  0  0
    6.1440   -2.1508    2.9944 H   0  0  0  0  0  0  0  0  0  0  0  0
    4.3964   -1.8888    2.6216 H   0  0  0  0  0  0  0  0  0  0  0  0
    0.4586    0.9879   -7.1764 H   0  0  0  0  0  0  0  0  0  0  0  0
    4.4924   -1.3800   -5.1409 H   0  0  0  0  0  0  0  0  0  0  0  0
    4.3304   -2.3090   -3.6040 H   0  0  0  0  0  0  0  0  0  0  0  0
    4.2910   -0.1723   -2.2974 H   0  0  0  0  0  0  0  0  0  0  0  0
    4.4224    0.7738   -3.8389 H   0  0  0  0  0  0  0  0  0  0  0  0
    5.7829   -0.2952   -3.3154 H   0  0  0  0  0  0  0  0  0  0  0  0
    1.1288   -2.1757    0.6758 H   0  0  0  0  0  0  0  0  0  0  0  0
    1.2429   -1.3306   -0.8418 H   0  0  0  0  0  0  0  0  0  0  0  0
    1.4738   -3.8518   -1.8789 H   0  0  0  0  0  0  0  0  0  0  0  0
    2.0007   -4.2391   -0.2131 H   0  0  0  0  0  0  0  0  0  0  0  0
    2.8834   -2.9998   -1.1352 H   0  0  0  0  0  0  0  0  0  0  0  0
    1.5764   -4.0727    2.1491 H   0  0  0  0  0  0  0  0  0  0  0  0
    0.2938   -4.7220    1.0730 H   0  0  0  0  0  0  0  0  0  0  0  0
   -0.8299   -5.8308    3.0026 H   0  0  0  0  0  0  0  0  0  0  0  0
    0.5478   -5.3385    4.0644 H   0  0  0  0  0  0  0  0  0  0  0  0
    0.8370   -6.4417    2.6711 H   0  0  0  0  0  0  0  0  0  0  0  0
    2.7716   -0.2488    8.1796 H   0  0  0  0  0  0  0  0  0  0  0  0
    1.9566    1.7038    9.8271 H   0  0  0  0  0  0  0  0  0  0  0  0
   -0.3332    6.6007   11.3503 H   0  0  0  0  0  0  0  0  0  0  0  0
    0.3897    8.8812   11.9845 H   0  0  0  0  0  0  0  0  0  0  0  0
    1.8537   10.1932   10.4678 H   0  0  0  0  0  0  0  0  0  0  0  0
    2.6206    9.2046    8.3239 H   0  0  0  0  0  0  0  0  0  0  0  0
    1.9094    6.9235    7.6846 H   0  0  0  0  0  0  0  0  0  0  0  0
  1  2  2  3
  2  3  1  0
  3  4  2  0
  3  5  1  0
  5  6  2  0
  6  7  1  0
  7  8  1  0
  7  9  2  0
  9 10  1  0
  9 11  1  0
 11 12  2  0
 12 13  1  0
 13 14  2  3
 14 15  1  0
 15 16  3  0
 14 17  1  0
 17 18  3  0
  1 19  1  0
 19 20  1  0
 20 21  1  0
 21 22  1  0
 22 23  1  0
 23 24  1  0
 24 25  1  0
 25 26  1  0
 26 27  1  0
 27 28  2  0
 28 29  1  0
 29 30  1  0
 27 31  1  0
 31 32  1  0
 32 33  1  0
 33 34  1  0
 34 35  1  0
 35 36  2  0
 36 37  1  0
 37 38  2  0
 38 39  1  0
 39 40  1  0
 40 41  1  0
 39 42  1  0
 42 43  2  0
 43 44  1  0
 44 45  1  0
 45 46  1  0
 46 47  1  0
 47 48  1  0
 48 49  1  0
 49 50  1  0
 50 51  1  0
 51 52  1  0
 52 53  1  0
 53 54  1  0
 54 55  1  0
 53 56  2  0
 56 57  1  0
 57 58  1  0
 58 59  1  0
 57 60  1  0
 49 61  1  0
 61 62  1  0
 46 63  1  0
 63 64  1  0
 36 65  1  0
 65 66  2  0
 66 67  1  0
 66 68  1  0
 68 69  2  3
 69 70  1  0
 70 71  1  0
 71 72  2  3
 72 73  1  0
 73 74  3  0
 72 75  1  0
 75 76  3  0
 71 77  1  0
 77 78  1  0
 78 79  2  0
 79 80  1  0
 80 81  2  0
 81 82  1  0
 82 83  2  0
 77 84  1  0
 84 85  2  0
 13  2  1  0
 55 19  2  0
 84 69  1  0
 12  5  1  0
 54 21  2  0
 83 78  1  0
 51 22  2  0
 60 52  2  0
 50 24  2  0
 48 25  2  0
 30 26  2  0
 47 31  2  0
 45 32  2  0
 44 34  2  0
 67 35  1  0
 43 37  1  0
  1 86  1  0
  6 87  1  0
 11 88  1  0
 40 89  1  0
 40 90  1  0
 41 91  1  0
 41 92  1  0
 41 93  1  0
 55 94  1  0
 58 95  1  0
 58 96  1  0
 59 97  1  0
 59 98  1  0
 59 99  1  0
 61100  1  0
 61101  1  0
 62102  1  0
 62103  1  0
 62104  1  0
 63105  1  0
 63106  1  0
 64107  1  0
 64108  1  0
 64109  1  0
 65110  1  0
 68111  1  0
 79112  1  0
 80113  1  0
 81114  1  0
 82115  1  0
 83116  1  0
M  END

