
     RDKit          3D

119135  0  0  0  0  0  0  0  0999 V2000
   -2.2485   -3.9139   -7.3571 C   0  0  0  0  0  0  0  0  0  0  0  0
   -3.2787   -3.8664   -8.2252 C   0  0  0  0  0  0  0  0  0  0  0  0
   -4.2394   -2.7626   -8.3418 C   0  0  0  0  0  0  0  0  0  0  0  0
   -4.1033   -1.5945   -7.8894 O   0  0  0  0  0  0  0  0  0  0  0  0
   -5.3507   -3.2052   -9.1463 C   0  0  0  0  0  0  0  0  0  0  0  0
   -6.5187   -2.5084   -9.4522 C   0  0  0  0  0  0  0  0  0  0  0  0
   -7.4951   -3.1471  -10.2302 C   0  0  0  0  0  0  0  0  0  0  0  0
   -8.9758   -2.2922  -10.6351 Cl  0  0  0  0  0  0  0  0  0  0  0  0
   -7.2993   -4.4746  -10.6550 C   0  0  0  0  0  0  0  0  0  0  0  0
   -8.2598   -5.1072  -11.3764 F   0  0  0  0  0  0  0  0  0  0  0  0
   -6.1129   -5.1564  -10.3358 C   0  0  0  0  0  0  0  0  0  0  0  0
   -5.1187   -4.4940   -9.5938 C   0  0  0  0  0  0  0  0  0  0  0  0
   -3.7660   -4.9481   -9.1455 C   0  0  0  0  0  0  0  0  0  0  0  0
   -3.0586   -6.0049   -9.6340 C   0  0  0  0  0  0  0  0  0  0  0  0
   -3.6027   -6.9166  -10.6047 C   0  0  0  0  0  0  0  0  0  0  0  0
   -4.0196   -7.6595  -11.3894 N   0  0  0  0  0  0  0  0  0  0  0  0
   -1.6742   -6.2304   -9.3205 C   0  0  0  0  0  0  0  0  0  0  0  0
   -0.5575   -6.4225   -9.0842 N   0  0  0  0  0  0  0  0  0  0  0  0
   -2.0017   -2.8774   -6.3411 C   0  0  0  0  0  0  0  0  0  0  0  0
   -3.1228   -2.3944   -5.1629 S   0  0  0  0  0  0  0  0  0  0  0  0
   -2.0959   -1.2804   -4.4452 C   0  0  0  0  0  0  0  0  0  0  0  0
   -2.3328   -0.4335   -3.3578 C   0  0  0  0  0  0  0  0  0  0  0  0
   -3.7204   -0.3992   -2.3869 S   0  0  0  0  0  0  0  0  0  0  0  0
   -3.0672    0.7914   -1.4027 C   0  0  0  0  0  0  0  0  0  0  0  0
   -3.2958    1.1929   -0.1246 C   0  0  0  0  0  0  0  0  0  0  0  0
   -4.1789    0.6494    0.8224 C   0  0  0  0  0  0  0  0  0  0  0  0
   -3.9283    0.8803    2.2041 C   0  0  0  0  0  0  0  0  0  0  0  0
   -4.7473    0.2689    3.0929 N   0  0  0  0  0  0  0  0  0  0  0  0
   -5.7368   -0.5450    2.0429 S   0  0  0  0  0  0  0  0  0  0  0  0
   -5.2066   -0.1805    0.5187 N   0  0  0  0  0  0  0  0  0  0  0  0
   -2.8647    1.7134    2.5572 C   0  0  0  0  0  0  0  0  0  0  0  0
   -2.3392    2.0542    3.7681 C   0  0  0  0  0  0  0  0  0  0  0  0
   -2.2971    1.3363    5.2878 S   0  0  0  0  0  0  0  0  0  0  0  0
   -0.8673    2.1675    5.7017 C   0  0  0  0  0  0  0  0  0  0  0  0
   -0.0176    1.9089    6.7909 C   0  0  0  0  0  0  0  0  0  0  0  0
    1.2575    2.4765    6.8548 C   0  0  0  0  0  0  0  0  0  0  0  0
    1.6540    3.3313    5.8251 C   0  0  0  0  0  0  0  0  0  0  0  0
    2.8596    3.8707    5.5956 N   0  0  0  0  0  0  0  0  0  0  0  0
    2.7492    4.4495    4.4022 N   0  0  0  0  0  0  0  0  0  0  0  0
    3.8702    5.0758    3.7116 C   0  0  0  0  0  0  0  0  0  0  0  0
    4.5798    4.0493    2.8343 C   0  0  0  0  0  0  0  0  0  0  0  0
    1.5577    4.2643    3.8376 N   0  0  0  0  0  0  0  0  0  0  0  0
    0.8499    3.5692    4.7394 C   0  0  0  0  0  0  0  0  0  0  0  0
   -0.4219    2.9850    4.6337 C   0  0  0  0  0  0  0  0  0  0  0  0
   -1.2871    2.8820    3.5365 C   0  0  0  0  0  0  0  0  0  0  0  0
   -1.1069    3.1190    2.2061 N   0  0  0  0  0  0  0  0  0  0  0  0
   -2.0349    2.3155    1.6062 C   0  0  0  0  0  0  0  0  0  0  0  0
   -2.1679    1.9409    0.2403 C   0  0  0  0  0  0  0  0  0  0  0  0
   -1.2125    1.8921   -0.7551 N   0  0  0  0  0  0  0  0  0  0  0  0
   -1.8033    1.1622   -1.7509 C   0  0  0  0  0  0  0  0  0  0  0  0
   -1.3275    0.4448   -2.8800 C   0  0  0  0  0  0  0  0  0  0  0  0
   -0.0754    0.3906   -3.5398 C   0  0  0  0  0  0  0  0  0  0  0  0
    0.1403   -0.4539   -4.6087 C   0  0  0  0  0  0  0  0  0  0  0  0
   -0.8623   -1.2987   -5.0899 C   0  0  0  0  0  0  0  0  0  0  0  0
   -0.7896   -2.2101   -6.1481 C   0  0  0  0  0  0  0  0  0  0  0  0
    1.4079   -0.3194   -5.0311 N   0  0  0  0  0  0  0  0  0  0  0  0
    1.9332    0.5905   -4.2134 N   0  0  0  0  0  0  0  0  0  0  0  0
    3.3077    1.0589   -4.3091 C   0  0  0  0  0  0  0  0  0  0  0  0
    3.3540    2.4211   -4.9881 C   0  0  0  0  0  0  0  0  0  0  0  0
    1.0707    1.0440   -3.3063 N   0  0  0  0  0  0  0  0  0  0  0  0
    0.2264    2.1590   -0.6288 C   0  0  0  0  0  0  0  0  0  0  0  0
    0.6558    3.3271   -1.5283 C   0  0  0  0  0  0  0  0  0  0  0  0
   -0.6224    4.3825    1.6266 C   0  0  0  0  0  0  0  0  0  0  0  0
   -1.2060    5.6001    2.3499 C   0  0  0  0  0  0  0  0  0  0  0  0
    2.0746    1.9319    7.8469 C   0  0  0  0  0  0  0  0  0  0  0  0
    1.4398    0.9028    8.5411 C   0  0  0  0  0  0  0  0  0  0  0  0
   -0.1330    0.6985    7.9515 S   0  0  0  0  0  0  0  0  0  0  0  0
    2.1330   -0.0756    9.3891 C   0  0  0  0  0  0  0  0  0  0  0  0
    3.0511   -0.9295    8.8943 C   0  0  0  0  0  0  0  0  0  0  0  0
    3.3193   -1.1739    7.4677 C   0  0  0  0  0  0  0  0  0  0  0  0
    2.8996   -0.4920    6.4949 O   0  0  0  0  0  0  0  0  0  0  0  0
    4.0794   -2.4006    7.3463 C   0  0  0  0  0  0  0  0  0  0  0  0
    4.4279   -3.0776    6.1783 C   0  0  0  0  0  0  0  0  0  0  0  0
    5.0357   -4.3413    6.2895 C   0  0  0  0  0  0  0  0  0  0  0  0
    5.3933   -5.0628    5.1411 C   0  0  0  0  0  0  0  0  0  0  0  0
    5.9603   -6.3351    5.2606 C   0  0  0  0  0  0  0  0  0  0  0  0
    6.1754   -6.8962    6.5225 C   0  0  0  0  0  0  0  0  0  0  0  0
    6.7170   -8.1346    6.6284 F   0  0  0  0  0  0  0  0  0  0  0  0
    5.8322   -6.1857    7.6755 C   0  0  0  0  0  0  0  0  0  0  0  0
    5.2617   -4.9076    7.5752 C   0  0  0  0  0  0  0  0  0  0  0  0
    4.8986   -4.1922    8.7364 C   0  0  0  0  0  0  0  0  0  0  0  0
    4.3316   -2.9156    8.6043 C   0  0  0  0  0  0  0  0  0  0  0  0
    3.8080   -1.9823    9.6432 C   0  0  0  0  0  0  0  0  0  0  0  0
    4.1739   -1.9501   10.9509 C   0  0  0  0  0  0  0  0  0  0  0  0
    3.7557   -0.9088   11.8526 C   0  0  0  0  0  0  0  0  0  0  0  0
    3.4256   -0.0807   12.5974 N   0  0  0  0  0  0  0  0  0  0  0  0
    5.1361   -2.8655   11.5025 C   0  0  0  0  0  0  0  0  0  0  0  0
    5.9161   -3.5896   11.9543 N   0  0  0  0  0  0  0  0  0  0  0  0
   -1.5865   -4.7637   -7.3185 H   0  0  0  0  0  0  0  0  0  0  0  0
   -6.6714   -1.4989   -9.0903 H   0  0  0  0  0  0  0  0  0  0  0  0
   -6.0130   -6.1822  -10.6492 H   0  0  0  0  0  0  0  0  0  0  0  0
    4.5853    5.4889    4.4574 H   0  0  0  0  0  0  0  0  0  0  0  0
    3.5006    5.9120    3.0762 H   0  0  0  0  0  0  0  0  0  0  0  0
    5.4654    4.5132    2.3567 H   0  0  0  0  0  0  0  0  0  0  0  0
    4.9068    3.1837    3.4508 H   0  0  0  0  0  0  0  0  0  0  0  0
    3.8912    3.6920    2.0439 H   0  0  0  0  0  0  0  0  0  0  0  0
    0.0937   -2.3663   -6.7554 H   0  0  0  0  0  0  0  0  0  0  0  0
    3.9159    0.3330   -4.8920 H   0  0  0  0  0  0  0  0  0  0  0  0
    3.7459    1.1388   -3.2881 H   0  0  0  0  0  0  0  0  0  0  0  0
    2.9089    2.3537   -6.0053 H   0  0  0  0  0  0  0  0  0  0  0  0
    2.7998    3.1675   -4.3782 H   0  0  0  0  0  0  0  0  0  0  0  0
    4.4125    2.7553   -5.0772 H   0  0  0  0  0  0  0  0  0  0  0  0
    0.7921    1.2418   -0.8846 H   0  0  0  0  0  0  0  0  0  0  0  0
    0.5137    2.3631    0.4137 H   0  0  0  0  0  0  0  0  0  0  0  0
    0.1205    3.2965   -2.4999 H   0  0  0  0  0  0  0  0  0  0  0  0
    0.4532    4.3041   -1.0576 H   0  0  0  0  0  0  0  0  0  0  0  0
    1.7478    3.2675   -1.7215 H   0  0  0  0  0  0  0  0  0  0  0  0
   -0.9702    4.4583    0.5781 H   0  0  0  0  0  0  0  0  0  0  0  0
    0.4827    4.4201    1.6292 H   0  0  0  0  0  0  0  0  0  0  0  0
   -0.8696    6.5288    1.8430 H   0  0  0  0  0  0  0  0  0  0  0  0
   -0.8724    5.6351    3.4069 H   0  0  0  0  0  0  0  0  0  0  0  0
   -2.3176    5.5636    2.3181 H   0  0  0  0  0  0  0  0  0  0  0  0
    3.1242    2.1856    7.9684 H   0  0  0  0  0  0  0  0  0  0  0  0
    1.8150   -0.1418   10.4196 H   0  0  0  0  0  0  0  0  0  0  0  0
    4.2021   -2.6464    5.2111 H   0  0  0  0  0  0  0  0  0  0  0  0
    5.2237   -4.6511    4.1533 H   0  0  0  0  0  0  0  0  0  0  0  0
    6.2301   -6.8884    4.3695 H   0  0  0  0  0  0  0  0  0  0  0  0
    6.0006   -6.6361    8.6450 H   0  0  0  0  0  0  0  0  0  0  0  0
    5.0213   -4.6541    9.7034 H   0  0  0  0  0  0  0  0  0  0  0  0
  1  2  2  3
  2  3  1  0
  3  4  2  0
  3  5  1  0
  5  6  2  0
  6  7  1  0
  7  8  1  0
  7  9  2  0
  9 10  1  0
  9 11  1  0
 11 12  2  0
 12 13  1  0
 13 14  2  3
 14 15  1  0
 15 16  3  0
 14 17  1  0
 17 18  3  0
  1 19  1  0
 19 20  1  0
 20 21  1  0
 21 22  1  0
 22 23  1  0
 23 24  1  0
 24 25  1  0
 25 26  1  0
 26 27  1  0
 27 28  2  0
 28 29  1  0
 29 30  1  0
 27 31  1  0
 31 32  1  0
 32 33  1  0
 33 34  1  0
 34 35  1  0
 35 36  2  0
 36 37  1  0
 37 38  2  0
 38 39  1  0
 39 40  1  0
 40 41  1  0
 39 42  1  0
 42 43  2  0
 43 44  1  0
 44 45  1  0
 45 46  1  0
 46 47  1  0
 47 48  1  0
 48 49  1  0
 49 50  1  0
 50 51  1  0
 51 52  1  0
 52 53  1  0
 53 54  1  0
 54 55  1  0
 53 56  2  0
 56 57  1  0
 57 58  1  0
 58 59  1  0
 57 60  1  0
 49 61  1  0
 61 62  1  0
 46 63  1  0
 63 64  1  0
 36 65  1  0
 65 66  2  0
 66 67  1  0
 66 68  1  0
 68 69  2  3
 69 70  1  0
 70 71  2  0
 70 72  1  0
 72 73  2  0
 73 74  1  0
 74 75  2  0
 75 76  1  0
 76 77  2  0
 77 78  1  0
 77 79  1  0
 79 80  2  0
 80 81  1  0
 81 82  2  0
 82 83  1  0
 83 84  2  3
 84 85  1  0
 85 86  3  0
 84 87  1  0
 87 88  3  0
 13  2  1  0
 55 19  2  0
 83 69  1  0
 12  5  1  0
 54 21  2  0
 82 72  1  0
 51 22  2  0
 60 52  2  0
 80 74  1  0
 50 24  2  0
 48 25  2  0
 30 26  2  0
 47 31  2  0
 45 32  2  0
 44 34  2  0
 67 35  1  0
 43 37  1  0
  1 89  1  0
  6 90  1  0
 11 91  1  0
 40 92  1  0
 40 93  1  0
 41 94  1  0
 41 95  1  0
 41 96  1  0
 55 97  1  0
 58 98  1  0
 58 99  1  0
 59100  1  0
 59101  1  0
 59102  1  0
 61103  1  0
 61104  1  0
 62105  1  0
 62106  1  0
 62107  1  0
 63108  1  0
 63109  1  0
 64110  1  0
 64111  1  0
 64112  1  0
 65113  1  0
 68114  1  0
 73115  1  0
 75116  1  0
 76117  1  0
 79118  1  0
 81119  1  0
M  END

