
     RDKit          3D

104114  0  0  0  0  0  0  0  0999 V2000
    2.7891   -2.1923   -4.9594 C   0  0  0  0  0  0  0  0  0  0  0  0
    3.5070   -1.9332   -6.0639 C   0  0  0  0  0  0  0  0  0  0  0  0
    4.9724   -1.9344   -6.1487 C   0  0  0  0  0  0  0  0  0  0  0  0
    5.7822   -2.0485   -5.1837 O   0  0  0  0  0  0  0  0  0  0  0  0
    5.3419   -1.9644   -7.5490 C   0  0  0  0  0  0  0  0  0  0  0  0
    6.6175   -2.0721   -8.1006 C   0  0  0  0  0  0  0  0  0  0  0  0
    6.7386   -2.1816   -9.4944 C   0  0  0  0  0  0  0  0  0  0  0  0
    8.3317   -2.3220  -10.2150 Cl  0  0  0  0  0  0  0  0  0  0  0  0
    5.5823   -2.2147  -10.3047 C   0  0  0  0  0  0  0  0  0  0  0  0
    5.6975   -2.3493  -11.6496 F   0  0  0  0  0  0  0  0  0  0  0  0
    4.3041   -2.1239   -9.7267 C   0  0  0  0  0  0  0  0  0  0  0  0
    4.1962   -1.9711   -8.3336 C   0  0  0  0  0  0  0  0  0  0  0  0
    2.9888   -1.8636   -7.4667 C   0  0  0  0  0  0  0  0  0  0  0  0
    1.7419   -1.4783   -7.8504 C   0  0  0  0  0  0  0  0  0  0  0  0
    0.7057   -1.1602   -6.9017 C   0  0  0  0  0  0  0  0  0  0  0  0
   -0.1325   -0.8990   -6.1495 N   0  0  0  0  0  0  0  0  0  0  0  0
    1.3988   -1.2035   -9.2202 C   0  0  0  0  0  0  0  0  0  0  0  0
    1.1082   -0.9704  -10.3180 N   0  0  0  0  0  0  0  0  0  0  0  0
    3.2899   -2.0073   -3.5893 C   0  0  0  0  0  0  0  0  0  0  0  0
    3.9947   -0.8828   -3.1428 C   0  0  0  0  0  0  0  0  0  0  0  0
    3.9801   -0.7802   -1.7467 C   0  0  0  0  0  0  0  0  0  0  0  0
    4.1078    0.4401   -0.8564 C   0  0  0  0  0  0  0  0  0  0  0  0
    5.6136    0.6297   -0.5272 C   0  0  0  0  0  0  0  0  0  0  0  0
    5.9208    1.7190    0.5001 C   0  0  0  0  0  0  0  0  0  0  0  0
    3.4769    1.7110   -1.5087 C   0  0  0  0  0  0  0  0  0  0  0  0
    2.0089    1.5449   -1.9365 C   0  0  0  0  0  0  0  0  0  0  0  0
    3.3058   -0.0490    0.3471 C   0  0  0  0  0  0  0  0  0  0  0  0
    2.9066   -1.3722    0.1977 C   0  0  0  0  0  0  0  0  0  0  0  0
    3.3480   -1.8106   -1.1101 C   0  0  0  0  0  0  0  0  0  0  0  0
    2.6275   -2.8111   -2.2515 S   0  0  0  0  0  0  0  0  0  0  0  0
    2.0545   -1.9983    1.1177 C   0  0  0  0  0  0  0  0  0  0  0  0
    1.7273   -3.3680    1.0234 C   0  0  0  0  0  0  0  0  0  0  0  0
    0.8308   -3.9507    1.9285 C   0  0  0  0  0  0  0  0  0  0  0  0
    0.2254   -3.1487    2.9012 C   0  0  0  0  0  0  0  0  0  0  0  0
   -0.8971   -3.5541    3.8599 C   0  0  0  0  0  0  0  0  0  0  0  0
   -2.0976   -4.0290    2.9852 C   0  0  0  0  0  0  0  0  0  0  0  0
   -3.2970   -4.6104    3.7294 C   0  0  0  0  0  0  0  0  0  0  0  0
   -0.3643   -4.6314    4.8504 C   0  0  0  0  0  0  0  0  0  0  0  0
   -1.0181   -4.6229    6.2369 C   0  0  0  0  0  0  0  0  0  0  0  0
   -1.1436   -2.2016    4.5094 C   0  0  0  0  0  0  0  0  0  0  0  0
   -2.1943   -1.6837    5.2759 C   0  0  0  0  0  0  0  0  0  0  0  0
   -2.1893   -0.2878    5.2744 C   0  0  0  0  0  0  0  0  0  0  0  0
   -0.8709    0.2882    4.3690 S   0  0  0  0  0  0  0  0  0  0  0  0
   -0.3102   -1.2485    4.0116 C   0  0  0  0  0  0  0  0  0  0  0  0
    0.5647   -1.8063    3.0110 C   0  0  0  0  0  0  0  0  0  0  0  0
    1.5098   -1.2037    2.1659 C   0  0  0  0  0  0  0  0  0  0  0  0
    1.9140    0.1431    2.3106 C   0  0  0  0  0  0  0  0  0  0  0  0
    2.8218    0.7163    1.4125 C   0  0  0  0  0  0  0  0  0  0  0  0
   -3.2060    0.5545    5.9206 C   0  0  0  0  0  0  0  0  0  0  0  0
   -3.7434    1.6444    5.3433 C   0  0  0  0  0  0  0  0  0  0  0  0
   -4.2547    2.7779    6.1092 C   0  0  0  0  0  0  0  0  0  0  0  0
   -4.5546    2.7736    7.3328 O   0  0  0  0  0  0  0  0  0  0  0  0
   -4.2404    3.9448    5.2478 C   0  0  0  0  0  0  0  0  0  0  0  0
   -4.4995    5.2729    5.5891 C   0  0  0  0  0  0  0  0  0  0  0  0
   -4.3226    6.2645    4.6049 C   0  0  0  0  0  0  0  0  0  0  0  0
   -4.5618    7.6161    4.9006 C   0  0  0  0  0  0  0  0  0  0  0  0
   -4.3673    8.5961    3.9242 C   0  0  0  0  0  0  0  0  0  0  0  0
   -3.9210    8.2415    2.6497 C   0  0  0  0  0  0  0  0  0  0  0  0
   -3.7419    9.1992    1.7077 F   0  0  0  0  0  0  0  0  0  0  0  0
   -3.6695    6.9028    2.3399 C   0  0  0  0  0  0  0  0  0  0  0  0
   -3.8654    5.9024    3.3050 C   0  0  0  0  0  0  0  0  0  0  0  0
   -3.5956    4.5562    3.0008 C   0  0  0  0  0  0  0  0  0  0  0  0
   -3.8171    3.5779    3.9812 C   0  0  0  0  0  0  0  0  0  0  0  0
   -3.6368    2.1051    3.9260 C   0  0  0  0  0  0  0  0  0  0  0  0
   -3.7806    1.3299    2.8250 C   0  0  0  0  0  0  0  0  0  0  0  0
   -4.0777   -0.0783    2.9194 C   0  0  0  0  0  0  0  0  0  0  0  0
   -4.3318   -1.2088    2.9660 N   0  0  0  0  0  0  0  0  0  0  0  0
   -3.8543    1.8787    1.4945 C   0  0  0  0  0  0  0  0  0  0  0  0
   -3.9108    2.3024    0.4191 N   0  0  0  0  0  0  0  0  0  0  0  0
    1.7629   -2.5134   -5.0460 H   0  0  0  0  0  0  0  0  0  0  0  0
    7.4919   -2.0840   -7.4608 H   0  0  0  0  0  0  0  0  0  0  0  0
    3.4403   -2.1987  -10.3629 H   0  0  0  0  0  0  0  0  0  0  0  0
    4.3278   -0.0849   -3.7954 H   0  0  0  0  0  0  0  0  0  0  0  0
    6.1627    0.8744   -1.4641 H   0  0  0  0  0  0  0  0  0  0  0  0
    6.0305   -0.3268   -0.1407 H   0  0  0  0  0  0  0  0  0  0  0  0
    7.0205    1.8074    0.6199 H   0  0  0  0  0  0  0  0  0  0  0  0
    5.4899    1.4593    1.4881 H   0  0  0  0  0  0  0  0  0  0  0  0
    5.5405    2.7033    0.1720 H   0  0  0  0  0  0  0  0  0  0  0  0
    3.5160    2.5549   -0.7882 H   0  0  0  0  0  0  0  0  0  0  0  0
    4.0742    2.0147   -2.3976 H   0  0  0  0  0  0  0  0  0  0  0  0
    1.3738    1.2423   -1.0709 H   0  0  0  0  0  0  0  0  0  0  0  0
    1.6304    2.5162   -2.3205 H   0  0  0  0  0  0  0  0  0  0  0  0
    1.9132    0.7873   -2.7468 H   0  0  0  0  0  0  0  0  0  0  0  0
    2.1756   -3.9980    0.2674 H   0  0  0  0  0  0  0  0  0  0  0  0
    0.5844   -5.0021    1.8499 H   0  0  0  0  0  0  0  0  0  0  0  0
   -2.4474   -3.1864    2.3499 H   0  0  0  0  0  0  0  0  0  0  0  0
   -1.7533   -4.8213    2.2878 H   0  0  0  0  0  0  0  0  0  0  0  0
   -4.0750   -4.8879    2.9880 H   0  0  0  0  0  0  0  0  0  0  0  0
   -3.7458   -3.8732    4.4226 H   0  0  0  0  0  0  0  0  0  0  0  0
   -3.0154   -5.5328    4.2782 H   0  0  0  0  0  0  0  0  0  0  0  0
   -0.4849   -5.6387    4.3995 H   0  0  0  0  0  0  0  0  0  0  0  0
    0.7275   -4.4872    5.0096 H   0  0  0  0  0  0  0  0  0  0  0  0
   -2.1219   -4.5589    6.1754 H   0  0  0  0  0  0  0  0  0  0  0  0
   -0.7572   -5.5579    6.7662 H   0  0  0  0  0  0  0  0  0  0  0  0
   -0.6435   -3.7663    6.8328 H   0  0  0  0  0  0  0  0  0  0  0  0
   -2.9691   -2.2698    5.7420 H   0  0  0  0  0  0  0  0  0  0  0  0
    1.5408    0.7538    3.1159 H   0  0  0  0  0  0  0  0  0  0  0  0
    3.0936    1.7599    1.5127 H   0  0  0  0  0  0  0  0  0  0  0  0
   -3.4142    0.3566    6.9642 H   0  0  0  0  0  0  0  0  0  0  0  0
   -4.8093    5.5298    6.5979 H   0  0  0  0  0  0  0  0  0  0  0  0
   -4.9092    7.9039    5.8827 H   0  0  0  0  0  0  0  0  0  0  0  0
   -4.5625    9.6371    4.1584 H   0  0  0  0  0  0  0  0  0  0  0  0
   -3.3304    6.6463    1.3448 H   0  0  0  0  0  0  0  0  0  0  0  0
   -3.1928    4.2973    2.0360 H   0  0  0  0  0  0  0  0  0  0  0  0
  1  2  2  3
  2  3  1  0
  3  4  2  0
  3  5  1  0
  5  6  2  0
  6  7  1  0
  7  8  1  0
  7  9  2  0
  9 10  1  0
  9 11  1  0
 11 12  2  0
 12 13  1  0
 13 14  2  3
 14 15  1  0
 15 16  3  0
 14 17  1  0
 17 18  3  0
  1 19  1  0
 19 20  2  0
 20 21  1  0
 21 22  1  0
 22 23  1  0
 23 24  1  0
 22 25  1  0
 25 26  1  0
 22 27  1  0
 27 28  2  0
 28 29  1  0
 29 30  1  0
 28 31  1  0
 31 32  2  0
 32 33  1  0
 33 34  2  0
 34 35  1  0
 35 36  1  0
 36 37  1  0
 35 38  1  0
 38 39  1  0
 35 40  1  0
 40 41  1  0
 41 42  2  0
 42 43  1  0
 43 44  1  0
 44 45  1  0
 45 46  2  0
 46 47  1  0
 47 48  2  0
 42 49  1  0
 49 50  2  3
 50 51  1  0
 51 52  2  0
 51 53  1  0
 53 54  2  0
 54 55  1  0
 55 56  2  0
 56 57  1  0
 57 58  2  0
 58 59  1  0
 58 60  1  0
 60 61  2  0
 61 62  1  0
 62 63  2  0
 63 64  1  0
 64 65  2  3
 65 66  1  0
 66 67  3  0
 65 68  1  0
 68 69  3  0
 13  2  1  0
 30 19  1  0
 46 31  1  0
 64 50  1  0
 12  5  1  0
 29 21  2  0
 45 34  1  0
 63 53  1  0
 48 27  1  0
 61 55  1  0
 44 40  2  0
  1 70  1  0
  6 71  1  0
 11 72  1  0
 20 73  1  0
 23 74  1  0
 23 75  1  0
 24 76  1  0
 24 77  1  0
 24 78  1  0
 25 79  1  0
 25 80  1  0
 26 81  1  0
 26 82  1  0
 26 83  1  0
 32 84  1  0
 33 85  1  0
 36 86  1  0
 36 87  1  0
 37 88  1  0
 37 89  1  0
 37 90  1  0
 38 91  1  0
 38 92  1  0
 39 93  1  0
 39 94  1  0
 39 95  1  0
 41 96  1  0
 47 97  1  0
 48 98  1  0
 49 99  1  0
 54100  1  0
 56101  1  0
 57102  1  0
 60103  1  0
 62104  1  0
M  END

