
     RDKit          3D

 60 67  0  0  0  0  0  0  0  0999 V2000
    2.5956   -1.4416    3.4675 C   0  0  0  0  0  0  0  0  0  0  0  0
    2.7274   -2.7478    3.7652 C   0  0  0  0  0  0  0  0  0  0  0  0
    1.9702   -3.8433    3.1461 C   0  0  0  0  0  0  0  0  0  0  0  0
    1.2874   -3.7810    2.0894 O   0  0  0  0  0  0  0  0  0  0  0  0
    2.1319   -5.0252    3.9630 C   0  0  0  0  0  0  0  0  0  0  0  0
    1.5125   -6.2659    3.8129 C   0  0  0  0  0  0  0  0  0  0  0  0
    1.7500   -7.2532    4.7788 C   0  0  0  0  0  0  0  0  0  0  0  0
    0.9848   -8.8241    4.6203 Cl  0  0  0  0  0  0  0  0  0  0  0  0
    2.5781   -6.9742    5.8834 C   0  0  0  0  0  0  0  0  0  0  0  0
    2.7804   -7.9167    6.8373 F   0  0  0  0  0  0  0  0  0  0  0  0
    3.1884   -5.7159    6.0154 C   0  0  0  0  0  0  0  0  0  0  0  0
    2.9791   -4.7459    5.0216 C   0  0  0  0  0  0  0  0  0  0  0  0
    3.4924   -3.3503    4.9006 C   0  0  0  0  0  0  0  0  0  0  0  0
    4.5811   -2.8282    5.5243 C   0  0  0  0  0  0  0  0  0  0  0  0
    5.1553   -1.5625    5.1487 C   0  0  0  0  0  0  0  0  0  0  0  0
    5.6287   -0.5492    4.8520 N   0  0  0  0  0  0  0  0  0  0  0  0
    5.3270   -3.5532    6.5180 C   0  0  0  0  0  0  0  0  0  0  0  0
    5.9396   -4.1225    7.3181 N   0  0  0  0  0  0  0  0  0  0  0  0
    1.7198   -0.9458    2.3926 C   0  0  0  0  0  0  0  0  0  0  0  0
    2.2875   -0.4619    1.2060 C   0  0  0  0  0  0  0  0  0  0  0  0
    1.4779    0.0250    0.1581 C   0  0  0  0  0  0  0  0  0  0  0  0
    0.0632    0.0511    0.3037 C   0  0  0  0  0  0  0  0  0  0  0  0
   -0.5020   -0.4190    1.5012 C   0  0  0  0  0  0  0  0  0  0  0  0
   -1.8395   -0.4299    1.7394 N   0  0  0  0  0  0  0  0  0  0  0  0
   -1.8718   -1.0678    3.2626 S   0  0  0  0  0  0  0  0  0  0  0  0
   -0.2969   -1.3443    3.6724 N   0  0  0  0  0  0  0  0  0  0  0  0
    0.3296   -0.9148    2.5462 C   0  0  0  0  0  0  0  0  0  0  0  0
   -0.7470    0.5373   -0.7440 C   0  0  0  0  0  0  0  0  0  0  0  0
   -0.1811    1.0172   -1.9366 C   0  0  0  0  0  0  0  0  0  0  0  0
    1.2090    0.9685   -2.0940 C   0  0  0  0  0  0  0  0  0  0  0  0
    1.8372    1.3834   -3.2262 N   0  0  0  0  0  0  0  0  0  0  0  0
    3.4129    1.1025   -2.8184 S   0  0  0  0  0  0  0  0  0  0  0  0
    3.3800    0.4830   -1.2876 N   0  0  0  0  0  0  0  0  0  0  0  0
    2.0419    0.4819   -1.0449 C   0  0  0  0  0  0  0  0  0  0  0  0
   -1.0449    1.4714   -3.0457 C   0  0  0  0  0  0  0  0  0  0  0  0
   -1.9692    2.4443   -2.9331 C   0  0  0  0  0  0  0  0  0  0  0  0
   -2.0586    3.4164   -1.8349 C   0  0  0  0  0  0  0  0  0  0  0  0
   -1.4496    3.3556   -0.7347 O   0  0  0  0  0  0  0  0  0  0  0  0
   -2.8791    4.5326   -2.2745 C   0  0  0  0  0  0  0  0  0  0  0  0
   -3.1577    5.7369   -1.6119 C   0  0  0  0  0  0  0  0  0  0  0  0
   -2.5986    6.0534    0.0235 Cl  0  0  0  0  0  0  0  0  0  0  0  0
   -3.8942    6.7160   -2.2923 C   0  0  0  0  0  0  0  0  0  0  0  0
   -4.3171    6.4946   -3.6131 C   0  0  0  0  0  0  0  0  0  0  0  0
   -4.0261    5.2861   -4.2628 C   0  0  0  0  0  0  0  0  0  0  0  0
   -3.3216    4.2899   -3.5677 C   0  0  0  0  0  0  0  0  0  0  0  0
   -2.8722    2.9411   -4.0132 C   0  0  0  0  0  0  0  0  0  0  0  0
   -3.3726    2.2134   -5.0464 C   0  0  0  0  0  0  0  0  0  0  0  0
   -3.0604    0.8196   -5.2236 C   0  0  0  0  0  0  0  0  0  0  0  0
   -2.8152   -0.3018   -5.3692 N   0  0  0  0  0  0  0  0  0  0  0  0
   -4.3568    2.7312   -5.9593 C   0  0  0  0  0  0  0  0  0  0  0  0
   -5.1510    3.1300   -6.7009 N   0  0  0  0  0  0  0  0  0  0  0  0
    3.0953   -0.6859    4.0470 H   0  0  0  0  0  0  0  0  0  0  0  0
    0.8531   -6.4572    2.9757 H   0  0  0  0  0  0  0  0  0  0  0  0
    3.7749   -5.5192    6.8969 H   0  0  0  0  0  0  0  0  0  0  0  0
    3.3654   -0.4812    1.0988 H   0  0  0  0  0  0  0  0  0  0  0  0
   -1.8259    0.5394   -0.6400 H   0  0  0  0  0  0  0  0  0  0  0  0
   -0.8545    1.0251   -4.0077 H   0  0  0  0  0  0  0  0  0  0  0  0
   -4.1212    7.6570   -1.8090 H   0  0  0  0  0  0  0  0  0  0  0  0
   -4.8598    7.2682   -4.1384 H   0  0  0  0  0  0  0  0  0  0  0  0
   -4.3211    5.1734   -5.2923 H   0  0  0  0  0  0  0  0  0  0  0  0
  1  2  2  3
  2  3  1  0
  3  4  2  0
  3  5  1  0
  5  6  2  0
  6  7  1  0
  7  8  1  0
  7  9  2  0
  9 10  1  0
  9 11  1  0
 11 12  2  0
 12 13  1  0
 13 14  2  3
 14 15  1  0
 15 16  3  0
 14 17  1  0
 17 18  3  0
  1 19  1  0
 19 20  2  0
 20 21  1  0
 21 22  2  0
 22 23  1  0
 23 24  2  0
 24 25  1  0
 25 26  1  0
 26 27  2  0
 22 28  1  0
 28 29  2  0
 29 30  1  0
 30 31  2  0
 31 32  1  0
 32 33  1  0
 33 34  2  0
 29 35  1  0
 35 36  2  3
 36 37  1  0
 37 38  2  0
 37 39  1  0
 39 40  2  0
 40 41  1  0
 40 42  1  0
 42 43  2  0
 43 44  1  0
 44 45  2  0
 45 46  1  0
 46 47  2  3
 47 48  1  0
 48 49  3  0
 47 50  1  0
 50 51  3  0
 13  2  1  0
 27 19  1  0
 34 30  1  0
 46 36  1  0
 12  5  1  0
 34 21  1  0
 45 39  1  0
 27 23  1  0
  1 52  1  0
  6 53  1  0
 11 54  1  0
 20 55  1  0
 28 56  1  0
 35 57  1  0
 42 58  1  0
 43 59  1  0
 44 60  1  0
M  END

