
     RDKit          3D

106114  0  0  0  0  0  0  0  0999 V2000
    0.7053    0.4821    6.2885 C   0  0  0  0  0  0  0  0  0  0  0  0
    1.6698    0.0785    7.1370 C   0  0  0  0  0  0  0  0  0  0  0  0
    2.6990   -0.9236    6.8551 C   0  0  0  0  0  0  0  0  0  0  0  0
    2.5637   -1.9438    6.1224 O   0  0  0  0  0  0  0  0  0  0  0  0
    3.8611   -0.6152    7.6586 C   0  0  0  0  0  0  0  0  0  0  0  0
    5.1253   -1.1952    7.5959 C   0  0  0  0  0  0  0  0  0  0  0  0
    6.1427   -0.6642    8.3948 C   0  0  0  0  0  0  0  0  0  0  0  0
    7.7520   -1.3554    8.3144 Cl  0  0  0  0  0  0  0  0  0  0  0  0
    5.8736    0.4304    9.2415 C   0  0  0  0  0  0  0  0  0  0  0  0
    6.8665    0.9770    9.9855 F   0  0  0  0  0  0  0  0  0  0  0  0
    4.5862    0.9909    9.2948 C   0  0  0  0  0  0  0  0  0  0  0  0
    3.5715    0.4434    8.4990 C   0  0  0  0  0  0  0  0  0  0  0  0
    2.1502    0.8448    8.3254 C   0  0  0  0  0  0  0  0  0  0  0  0
    1.3863    1.5638    9.1880 C   0  0  0  0  0  0  0  0  0  0  0  0
    1.9361    2.2658   10.3185 C   0  0  0  0  0  0  0  0  0  0  0  0
    2.3657    2.8476   11.2261 N   0  0  0  0  0  0  0  0  0  0  0  0
   -0.0533    1.5965    9.0903 C   0  0  0  0  0  0  0  0  0  0  0  0
   -1.2097    1.6140    9.0219 N   0  0  0  0  0  0  0  0  0  0  0  0
    0.5783    0.0348    4.8870 C   0  0  0  0  0  0  0  0  0  0  0  0
    1.6400   -0.2142    4.0059 C   0  0  0  0  0  0  0  0  0  0  0  0
    1.1992   -0.3894    2.6962 C   0  0  0  0  0  0  0  0  0  0  0  0
    1.9405   -0.3279    1.3816 C   0  0  0  0  0  0  0  0  0  0  0  0
    3.0201    0.7864    1.3670 C   0  0  0  0  0  0  0  0  0  0  0  0
    2.4714    2.1991    1.6136 C   0  0  0  0  0  0  0  0  0  0  0  0
    2.5140   -1.7204    1.0031 C   0  0  0  0  0  0  0  0  0  0  0  0
    3.5615   -2.2636    1.9774 C   0  0  0  0  0  0  0  0  0  0  0  0
    0.7555   -0.0344    0.4601 C   0  0  0  0  0  0  0  0  0  0  0  0
   -0.4660   -0.0793    1.1430 C   0  0  0  0  0  0  0  0  0  0  0  0
   -0.1469   -0.2895    2.5394 C   0  0  0  0  0  0  0  0  0  0  0  0
   -0.8638    0.1327    3.9971 S   0  0  0  0  0  0  0  0  0  0  0  0
   -1.7128    0.0200    0.4838 C   0  0  0  0  0  0  0  0  0  0  0  0
   -2.9231   -0.0944    1.1763 O   0  0  0  0  0  0  0  0  0  0  0  0
   -3.2860   -1.2721    1.8959 C   0  0  0  0  0  0  0  0  0  0  0  0
   -4.4687   -0.9788    2.8105 C   0  0  0  0  0  0  0  0  0  0  0  0
   -1.6921    0.2422   -0.9133 C   0  0  0  0  0  0  0  0  0  0  0  0
   -0.4579    0.3683   -1.5708 C   0  0  0  0  0  0  0  0  0  0  0  0
    0.7802    0.2215   -0.9164 C   0  0  0  0  0  0  0  0  0  0  0  0
    1.9899    0.3111   -1.6051 O   0  0  0  0  0  0  0  0  0  0  0  0
    2.4403    1.5324   -2.1911 C   0  0  0  0  0  0  0  0  0  0  0  0
    3.5996    1.2465   -3.1321 C   0  0  0  0  0  0  0  0  0  0  0  0
   -0.7355    0.4303   -2.9806 C   0  0  0  0  0  0  0  0  0  0  0  0
   -2.0667    0.2899   -3.2100 C   0  0  0  0  0  0  0  0  0  0  0  0
   -2.8682    0.2541   -1.9180 C   0  0  0  0  0  0  0  0  0  0  0  0
   -3.7040   -1.0763   -1.8537 C   0  0  0  0  0  0  0  0  0  0  0  0
   -5.0532   -0.9986   -1.1209 C   0  0  0  0  0  0  0  0  0  0  0  0
   -3.6733    1.5742   -1.7555 C   0  0  0  0  0  0  0  0  0  0  0  0
   -4.5890    1.8916   -2.9467 C   0  0  0  0  0  0  0  0  0  0  0  0
   -2.3828    0.0186   -4.5458 C   0  0  0  0  0  0  0  0  0  0  0  0
   -1.2171   -0.0523   -5.3271 C   0  0  0  0  0  0  0  0  0  0  0  0
    0.1652    0.2153   -4.3762 S   0  0  0  0  0  0  0  0  0  0  0  0
   -1.1798   -0.2321   -6.7770 C   0  0  0  0  0  0  0  0  0  0  0  0
   -1.7050   -1.2405   -7.5047 C   0  0  0  0  0  0  0  0  0  0  0  0
   -1.8562   -1.0953   -8.9519 C   0  0  0  0  0  0  0  0  0  0  0  0
   -1.4315   -0.1348   -9.6508 O   0  0  0  0  0  0  0  0  0  0  0  0
   -2.6121   -2.2111   -9.4581 C   0  0  0  0  0  0  0  0  0  0  0  0
   -2.9091   -2.4984  -10.7915 C   0  0  0  0  0  0  0  0  0  0  0  0
   -3.5324   -3.7161  -11.0864 C   0  0  0  0  0  0  0  0  0  0  0  0
   -3.8269   -4.0292  -12.3758 F   0  0  0  0  0  0  0  0  0  0  0  0
   -3.8164   -4.6317  -10.0627 C   0  0  0  0  0  0  0  0  0  0  0  0
   -3.5108   -4.3206   -8.7274 C   0  0  0  0  0  0  0  0  0  0  0  0
   -2.9282   -3.0735   -8.4235 C   0  0  0  0  0  0  0  0  0  0  0  0
   -2.3784   -2.5391   -7.1386 C   0  0  0  0  0  0  0  0  0  0  0  0
   -2.3913   -3.1909   -5.9422 C   0  0  0  0  0  0  0  0  0  0  0  0
   -1.4399   -2.9540   -4.8857 C   0  0  0  0  0  0  0  0  0  0  0  0
   -0.7019   -2.8028   -3.9996 N   0  0  0  0  0  0  0  0  0  0  0  0
   -3.3249   -4.2437   -5.6495 C   0  0  0  0  0  0  0  0  0  0  0  0
   -4.0608   -5.0973   -5.3808 N   0  0  0  0  0  0  0  0  0  0  0  0
    0.0459    1.2935    6.5624 H   0  0  0  0  0  0  0  0  0  0  0  0
    5.3265   -2.0015    6.9041 H   0  0  0  0  0  0  0  0  0  0  0  0
    4.4241    1.8525    9.9169 H   0  0  0  0  0  0  0  0  0  0  0  0
    2.6808   -0.1140    4.2652 H   0  0  0  0  0  0  0  0  0  0  0  0
    3.5645    0.7651    0.3954 H   0  0  0  0  0  0  0  0  0  0  0  0
    3.7787    0.5721    2.1541 H   0  0  0  0  0  0  0  0  0  0  0  0
    3.3191    2.9228    1.5583 H   0  0  0  0  0  0  0  0  0  0  0  0
    1.7208    2.4709    0.8390 H   0  0  0  0  0  0  0  0  0  0  0  0
    2.0142    2.2696    2.6261 H   0  0  0  0  0  0  0  0  0  0  0  0
    2.9688   -1.6731   -0.0115 H   0  0  0  0  0  0  0  0  0  0  0  0
    1.6828   -2.4611    0.9471 H   0  0  0  0  0  0  0  0  0  0  0  0
    3.8422   -3.2911    1.6751 H   0  0  0  0  0  0  0  0  0  0  0  0
    4.4763   -1.6441    1.9613 H   0  0  0  0  0  0  0  0  0  0  0  0
    3.1547   -2.3179    3.0052 H   0  0  0  0  0  0  0  0  0  0  0  0
   -3.5577   -2.0726    1.1786 H   0  0  0  0  0  0  0  0  0  0  0  0
   -2.4463   -1.6420    2.5095 H   0  0  0  0  0  0  0  0  0  0  0  0
   -4.1810   -0.2033    3.5610 H   0  0  0  0  0  0  0  0  0  0  0  0
   -4.7612   -1.9104    3.3499 H   0  0  0  0  0  0  0  0  0  0  0  0
   -5.3443   -0.6124    2.2173 H   0  0  0  0  0  0  0  0  0  0  0  0
    1.6264    2.0384   -2.7538 H   0  0  0  0  0  0  0  0  0  0  0  0
    2.7871    2.2198   -1.3913 H   0  0  0  0  0  0  0  0  0  0  0  0
    4.0117    2.2046   -3.5142 H   0  0  0  0  0  0  0  0  0  0  0  0
    3.2397    0.6442   -3.9880 H   0  0  0  0  0  0  0  0  0  0  0  0
    4.3959    0.6850   -2.6027 H   0  0  0  0  0  0  0  0  0  0  0  0
   -3.9251   -1.4458   -2.8782 H   0  0  0  0  0  0  0  0  0  0  0  0
   -3.0952   -1.8848   -1.3851 H   0  0  0  0  0  0  0  0  0  0  0  0
   -4.9565   -0.5022   -0.1437 H   0  0  0  0  0  0  0  0  0  0  0  0
   -5.7983   -0.4411   -1.7307 H   0  0  0  0  0  0  0  0  0  0  0  0
   -5.4494   -2.0249   -0.9515 H   0  0  0  0  0  0  0  0  0  0  0  0
   -2.9643    2.4262   -1.6427 H   0  0  0  0  0  0  0  0  0  0  0  0
   -4.2697    1.5481   -0.8158 H   0  0  0  0  0  0  0  0  0  0  0  0
   -3.9898    2.3256   -3.7769 H   0  0  0  0  0  0  0  0  0  0  0  0
   -5.1026    0.9770   -3.3299 H   0  0  0  0  0  0  0  0  0  0  0  0
   -5.3557    2.6300   -2.6422 H   0  0  0  0  0  0  0  0  0  0  0  0
   -3.3829   -0.1304   -4.9205 H   0  0  0  0  0  0  0  0  0  0  0  0
   -0.6981    0.5821   -7.3026 H   0  0  0  0  0  0  0  0  0  0  0  0
   -2.6372   -1.8170  -11.5927 H   0  0  0  0  0  0  0  0  0  0  0  0
   -4.2629   -5.5919  -10.3023 H   0  0  0  0  0  0  0  0  0  0  0  0
   -3.6879   -5.0682   -7.9788 H   0  0  0  0  0  0  0  0  0  0  0  0
  1  2  2  3
  2  3  1  0
  3  4  2  0
  3  5  1  0
  5  6  2  0
  6  7  1  0
  7  8  1  0
  7  9  2  0
  9 10  1  0
  9 11  1  0
 11 12  2  0
 12 13  1  0
 13 14  2  3
 14 15  1  0
 15 16  3  0
 14 17  1  0
 17 18  3  0
  1 19  1  0
 19 20  2  0
 20 21  1  0
 21 22  1  0
 22 23  1  0
 23 24  1  0
 22 25  1  0
 25 26  1  0
 22 27  1  0
 27 28  2  0
 28 29  1  0
 29 30  1  0
 28 31  1  0
 31 32  1  0
 32 33  1  0
 33 34  1  0
 31 35  2  0
 35 36  1  0
 36 37  2  0
 37 38  1  0
 38 39  1  0
 39 40  1  0
 36 41  1  0
 41 42  2  0
 42 43  1  0
 43 44  1  0
 44 45  1  0
 43 46  1  0
 46 47  1  0
 42 48  1  0
 48 49  2  0
 49 50  1  0
 49 51  1  0
 51 52  2  3
 52 53  1  0
 53 54  2  0
 53 55  1  0
 55 56  2  0
 56 57  1  0
 57 58  1  0
 57 59  2  0
 59 60  1  0
 60 61  2  0
 61 62  1  0
 62 63  2  3
 63 64  1  0
 64 65  3  0
 63 66  1  0
 66 67  3  0
 13  2  1  0
 30 19  1  0
 43 35  1  0
 62 52  1  0
 12  5  1  0
 29 21  2  0
 50 41  1  0
 61 55  1  0
 37 27  1  0
  1 68  1  0
  6 69  1  0
 11 70  1  0
 20 71  1  0
 23 72  1  0
 23 73  1  0
 24 74  1  0
 24 75  1  0
 24 76  1  0
 25 77  1  0
 25 78  1  0
 26 79  1  0
 26 80  1  0
 26 81  1  0
 33 82  1  0
 33 83  1  0
 34 84  1  0
 34 85  1  0
 34 86  1  0
 39 87  1  0
 39 88  1  0
 40 89  1  0
 40 90  1  0
 40 91  1  0
 44 92  1  0
 44 93  1  0
 45 94  1  0
 45 95  1  0
 45 96  1  0
 46 97  1  0
 46 98  1  0
 47 99  1  0
 47100  1  0
 47101  1  0
 48102  1  0
 51103  1  0
 56104  1  0
 59105  1  0
 60106  1  0
M  END

