
     RDKit          3D

 86 95  0  0  0  0  0  0  0  0999 V2000
   -1.4443    1.7151   -6.3129 C   0  0  0  0  0  0  0  0  0  0  0  0
   -2.0070    1.0731   -7.3541 C   0  0  0  0  0  0  0  0  0  0  0  0
   -2.4223   -0.3354   -7.3554 C   0  0  0  0  0  0  0  0  0  0  0  0
   -2.2130   -1.1711   -6.4339 O   0  0  0  0  0  0  0  0  0  0  0  0
   -3.1100   -0.6222   -8.6055 C   0  0  0  0  0  0  0  0  0  0  0  0
   -3.6073   -1.8475   -9.0672 C   0  0  0  0  0  0  0  0  0  0  0  0
   -3.6274   -3.2712   -8.0244 Cl  0  0  0  0  0  0  0  0  0  0  0  0
   -4.0771   -1.9191  -10.3941 C   0  0  0  0  0  0  0  0  0  0  0  0
   -4.7415   -3.4359  -11.0050 Cl  0  0  0  0  0  0  0  0  0  0  0  0
   -3.9639   -0.7991  -11.2511 C   0  0  0  0  0  0  0  0  0  0  0  0
   -4.4383   -0.9396  -12.9480 Cl  0  0  0  0  0  0  0  0  0  0  0  0
   -3.4364    0.4186  -10.7664 C   0  0  0  0  0  0  0  0  0  0  0  0
   -2.9889    1.6830  -11.9127 Cl  0  0  0  0  0  0  0  0  0  0  0  0
   -3.1132    0.5164   -9.3955 C   0  0  0  0  0  0  0  0  0  0  0  0
   -2.5262    1.6563   -8.6320 C   0  0  0  0  0  0  0  0  0  0  0  0
   -2.7653    2.9679   -8.8736 C   0  0  0  0  0  0  0  0  0  0  0  0
   -3.9409    3.3925   -9.5946 C   0  0  0  0  0  0  0  0  0  0  0  0
   -4.8935    3.7365  -10.1550 N   0  0  0  0  0  0  0  0  0  0  0  0
   -1.9420    4.0220   -8.3417 C   0  0  0  0  0  0  0  0  0  0  0  0
   -1.2749    4.8784   -7.9324 N   0  0  0  0  0  0  0  0  0  0  0  0
   -1.0653    1.0452   -5.0642 C   0  0  0  0  0  0  0  0  0  0  0  0
    0.2965    0.0273   -4.8792 S   0  0  0  0  0  0  0  0  0  0  0  0
    0.0039   -0.1710   -3.2418 C   0  0  0  0  0  0  0  0  0  0  0  0
    0.6407   -0.6360   -2.1335 C   0  0  0  0  0  0  0  0  0  0  0  0
    1.9146   -1.1703   -1.9599 C   0  0  0  0  0  0  0  0  0  0  0  0
    2.8448   -1.5129   -2.8629 N   0  0  0  0  0  0  0  0  0  0  0  0
    3.8862   -1.9078   -2.1303 N   0  0  0  0  0  0  0  0  0  0  0  0
    5.1603   -2.3177   -2.7074 C   0  0  0  0  0  0  0  0  0  0  0  0
    6.1110   -1.1302   -2.7736 C   0  0  0  0  0  0  0  0  0  0  0  0
    3.6782   -1.8080   -0.8157 N   0  0  0  0  0  0  0  0  0  0  0  0
    2.4251   -1.3434   -0.7136 C   0  0  0  0  0  0  0  0  0  0  0  0
    1.6727   -1.0095    0.4068 C   0  0  0  0  0  0  0  0  0  0  0  0
    1.9023   -1.1629    1.7367 C   0  0  0  0  0  0  0  0  0  0  0  0
    3.0716   -1.7613    2.7728 S   0  0  0  0  0  0  0  0  0  0  0  0
    2.0676   -1.5399    4.1397 C   0  0  0  0  0  0  0  0  0  0  0  0
    0.8018   -1.0687    3.7544 C   0  0  0  0  0  0  0  0  0  0  0  0
    0.7635   -0.8505    2.3786 C   0  0  0  0  0  0  0  0  0  0  0  0
   -0.2348   -0.4778    1.5352 N   0  0  0  0  0  0  0  0  0  0  0  0
   -1.6539   -0.4535    1.9178 C   0  0  0  0  0  0  0  0  0  0  0  0
   -2.4626   -1.5063    1.1596 C   0  0  0  0  0  0  0  0  0  0  0  0
    0.3592   -0.5081    0.2902 C   0  0  0  0  0  0  0  0  0  0  0  0
   -0.1441   -0.2335   -1.0304 C   0  0  0  0  0  0  0  0  0  0  0  0
   -1.1853    0.5562   -1.4723 N   0  0  0  0  0  0  0  0  0  0  0  0
   -1.0605    0.5401   -2.8263 C   0  0  0  0  0  0  0  0  0  0  0  0
   -1.6950    1.2691   -3.8328 C   0  0  0  0  0  0  0  0  0  0  0  0
   -2.0035    1.5375   -0.7489 C   0  0  0  0  0  0  0  0  0  0  0  0
   -1.1347    2.5613   -0.0200 C   0  0  0  0  0  0  0  0  0  0  0  0
    2.4496   -1.9310    5.5049 C   0  0  0  0  0  0  0  0  0  0  0  0
    2.1947   -1.1963    6.6057 C   0  0  0  0  0  0  0  0  0  0  0  0
    1.8221    0.2273    6.6235 C   0  0  0  0  0  0  0  0  0  0  0  0
    1.5159    0.9404    5.6318 O   0  0  0  0  0  0  0  0  0  0  0  0
    2.0046    0.7304    7.9680 C   0  0  0  0  0  0  0  0  0  0  0  0
    1.8476    2.0399    8.4197 C   0  0  0  0  0  0  0  0  0  0  0  0
    2.1730    2.3304    9.7506 C   0  0  0  0  0  0  0  0  0  0  0  0
    2.0368    3.5962   10.2111 F   0  0  0  0  0  0  0  0  0  0  0  0
    2.6595    1.3189   10.5979 C   0  0  0  0  0  0  0  0  0  0  0  0
    2.9964    1.6153   11.8776 F   0  0  0  0  0  0  0  0  0  0  0  0
    2.8124    0.0060   10.1216 C   0  0  0  0  0  0  0  0  0  0  0  0
    2.4596   -0.2856    8.7914 C   0  0  0  0  0  0  0  0  0  0  0  0
    2.5177   -1.5626    8.0206 C   0  0  0  0  0  0  0  0  0  0  0  0
    2.6151   -2.8203    8.5314 C   0  0  0  0  0  0  0  0  0  0  0  0
    2.3898   -3.9979    7.7317 C   0  0  0  0  0  0  0  0  0  0  0  0
    2.2025   -4.9462    7.0950 N   0  0  0  0  0  0  0  0  0  0  0  0
    2.8148   -3.0776    9.9333 C   0  0  0  0  0  0  0  0  0  0  0  0
    2.9680   -3.3096   11.0587 N   0  0  0  0  0  0  0  0  0  0  0  0
   -1.2968    2.7789   -6.3199 H   0  0  0  0  0  0  0  0  0  0  0  0
    4.9950   -2.7175   -3.7326 H   0  0  0  0  0  0  0  0  0  0  0  0
    5.6137   -3.1226   -2.0873 H   0  0  0  0  0  0  0  0  0  0  0  0
    7.0695   -1.4454   -3.2345 H   0  0  0  0  0  0  0  0  0  0  0  0
    6.3119   -0.7452   -1.7516 H   0  0  0  0  0  0  0  0  0  0  0  0
    5.6632   -0.3222   -3.3890 H   0  0  0  0  0  0  0  0  0  0  0  0
   -0.0238   -0.9215    4.4368 H   0  0  0  0  0  0  0  0  0  0  0  0
   -1.7673   -0.6859    2.9963 H   0  0  0  0  0  0  0  0  0  0  0  0
   -2.0690    0.5589    1.8238 H   0  0  0  0  0  0  0  0  0  0  0  0
   -2.4609   -1.3128    0.0702 H   0  0  0  0  0  0  0  0  0  0  0  0
   -2.0381   -2.5159    1.3391 H   0  0  0  0  0  0  0  0  0  0  0  0
   -3.5132   -1.4947    1.5160 H   0  0  0  0  0  0  0  0  0  0  0  0
   -2.5371    1.9341   -3.6993 H   0  0  0  0  0  0  0  0  0  0  0  0
   -2.6424    2.1036   -1.4563 H   0  0  0  0  0  0  0  0  0  0  0  0
   -2.7301    1.0371   -0.0928 H   0  0  0  0  0  0  0  0  0  0  0  0
   -1.7748    3.3588    0.4054 H   0  0  0  0  0  0  0  0  0  0  0  0
   -0.5643    2.0926    0.8023 H   0  0  0  0  0  0  0  0  0  0  0  0
   -0.4137    3.0228   -0.7248 H   0  0  0  0  0  0  0  0  0  0  0  0
    3.0303   -2.8364    5.5857 H   0  0  0  0  0  0  0  0  0  0  0  0
    1.4951    2.8173    7.7536 H   0  0  0  0  0  0  0  0  0  0  0  0
    3.2278   -0.7330   10.7839 H   0  0  0  0  0  0  0  0  0  0  0  0
  1  2  2  3
  2  3  1  0
  3  4  2  0
  3  5  1  0
  5  6  2  0
  6  7  1  0
  6  8  1  0
  8  9  1  0
  8 10  2  0
 10 11  1  0
 10 12  1  0
 12 13  1  0
 12 14  2  0
 14 15  1  0
 15 16  2  3
 16 17  1  0
 17 18  3  0
 16 19  1  0
 19 20  3  0
  1 21  1  0
 21 22  1  0
 22 23  1  0
 23 24  1  0
 24 25  1  0
 25 26  2  0
 26 27  1  0
 27 28  1  0
 28 29  1  0
 27 30  1  0
 30 31  2  0
 31 32  1  0
 32 33  1  0
 33 34  1  0
 34 35  1  0
 35 36  2  0
 36 37  1  0
 37 38  1  0
 38 39  1  0
 39 40  1  0
 38 41  1  0
 41 42  1  0
 42 43  1  0
 43 44  1  0
 44 45  1  0
 43 46  1  0
 46 47  1  0
 35 48  1  0
 48 49  2  3
 49 50  1  0
 50 51  2  0
 50 52  1  0
 52 53  2  0
 53 54  1  0
 54 55  1  0
 54 56  2  0
 56 57  1  0
 56 58  1  0
 58 59  2  0
 59 60  1  0
 60 61  2  3
 61 62  1  0
 62 63  3  0
 61 64  1  0
 64 65  3  0
 15  2  1  0
 45 21  2  0
 60 49  1  0
 14  5  1  0
 44 23  2  0
 59 52  1  0
 42 24  2  0
 31 25  1  0
 41 32  2  0
 37 33  2  0
  1 66  1  0
 28 67  1  0
 28 68  1  0
 29 69  1  0
 29 70  1  0
 29 71  1  0
 36 72  1  0
 39 73  1  0
 39 74  1  0
 40 75  1  0
 40 76  1  0
 40 77  1  0
 45 78  1  0
 46 79  1  0
 46 80  1  0
 47 81  1  0
 47 82  1  0
 47 83  1  0
 48 84  1  0
 53 85  1  0
 58 86  1  0
M  END

