
     RDKit          3D

104118  0  0  0  0  0  0  0  0999 V2000
    7.1714   -3.8528   -1.7308 C   0  0  0  0  0  0  0  0  0  0  0  0
    6.7354   -3.8801   -2.9998 C   0  0  0  0  0  0  0  0  0  0  0  0
    5.9333   -2.8453   -3.6661 C   0  0  0  0  0  0  0  0  0  0  0  0
    5.3258   -1.8991   -3.0980 O   0  0  0  0  0  0  0  0  0  0  0  0
    6.0079   -3.0678   -5.1026 C   0  0  0  0  0  0  0  0  0  0  0  0
    5.5598   -2.2468   -6.1438 C   0  0  0  0  0  0  0  0  0  0  0  0
    4.5780   -0.8230   -5.8086 Cl  0  0  0  0  0  0  0  0  0  0  0  0
    5.9294   -2.5746   -7.4623 C   0  0  0  0  0  0  0  0  0  0  0  0
    5.3661   -1.5760   -8.8019 Cl  0  0  0  0  0  0  0  0  0  0  0  0
    6.8105   -3.6548   -7.7073 C   0  0  0  0  0  0  0  0  0  0  0  0
    7.3796   -3.9674   -9.3510 Cl  0  0  0  0  0  0  0  0  0  0  0  0
    7.2725   -4.4520   -6.6350 C   0  0  0  0  0  0  0  0  0  0  0  0
    8.6158   -5.5680   -6.8971 Cl  0  0  0  0  0  0  0  0  0  0  0  0
    6.7760   -4.1978   -5.3406 C   0  0  0  0  0  0  0  0  0  0  0  0
    7.0975   -4.8658   -4.0511 C   0  0  0  0  0  0  0  0  0  0  0  0
    7.1725   -6.2088   -3.8567 C   0  0  0  0  0  0  0  0  0  0  0  0
    7.2996   -6.7913   -2.5432 C   0  0  0  0  0  0  0  0  0  0  0  0
    7.4069   -7.2623   -1.4913 N   0  0  0  0  0  0  0  0  0  0  0  0
    6.9037   -7.1459   -4.9174 C   0  0  0  0  0  0  0  0  0  0  0  0
    6.6760   -7.9115   -5.7570 N   0  0  0  0  0  0  0  0  0  0  0  0
    6.7495   -2.8260   -0.7726 C   0  0  0  0  0  0  0  0  0  0  0  0
    7.2665   -1.5229   -0.6650 C   0  0  0  0  0  0  0  0  0  0  0  0
    8.4260   -0.9932   -1.4570 C   0  0  0  0  0  0  0  0  0  0  0  0
    9.7400   -1.3564   -0.7838 C   0  0  0  0  0  0  0  0  0  0  0  0
    6.5651   -0.7896    0.2945 C   0  0  0  0  0  0  0  0  0  0  0  0
    5.5355   -1.4654    0.9030 C   0  0  0  0  0  0  0  0  0  0  0  0
    5.4350   -3.0221    0.2853 S   0  0  0  0  0  0  0  0  0  0  0  0
    4.7719   -0.6541    1.7394 C   0  0  0  0  0  0  0  0  0  0  0  0
    5.2219    0.6233    1.7395 C   0  0  0  0  0  0  0  0  0  0  0  0
    6.5531    0.8619    0.7089 S   0  0  0  0  0  0  0  0  0  0  0  0
    4.2218    1.4025    2.2441 C   0  0  0  0  0  0  0  0  0  0  0  0
    4.0399    2.7872    2.1427 C   0  0  0  0  0  0  0  0  0  0  0  0
    4.9896    3.6503    1.7059 N   0  0  0  0  0  0  0  0  0  0  0  0
    4.1273    5.0639    1.7526 S   0  0  0  0  0  0  0  0  0  0  0  0
    2.6074    4.6695    2.2786 N   0  0  0  0  0  0  0  0  0  0  0  0
    2.7635    3.3335    2.4441 C   0  0  0  0  0  0  0  0  0  0  0  0
    1.7521    2.4720    2.8679 C   0  0  0  0  0  0  0  0  0  0  0  0
    0.4603    2.7217    3.2202 C   0  0  0  0  0  0  0  0  0  0  0  0
   -0.6491    4.0081    3.2517 S   0  0  0  0  0  0  0  0  0  0  0  0
   -1.8653    2.9570    3.8254 C   0  0  0  0  0  0  0  0  0  0  0  0
   -3.2301    3.1158    4.0438 C   0  0  0  0  0  0  0  0  0  0  0  0
   -3.8206    1.8856    4.3633 C   0  0  0  0  0  0  0  0  0  0  0  0
   -2.6570    0.6364    4.3717 S   0  0  0  0  0  0  0  0  0  0  0  0
   -1.4020    1.6763    3.9837 C   0  0  0  0  0  0  0  0  0  0  0  0
   -0.0696    1.5501    3.6274 C   0  0  0  0  0  0  0  0  0  0  0  0
    0.8113    0.5216    3.5949 N   0  0  0  0  0  0  0  0  0  0  0  0
    0.6573   -0.6920    4.4095 C   0  0  0  0  0  0  0  0  0  0  0  0
    1.8032   -0.8606    5.4130 C   0  0  0  0  0  0  0  0  0  0  0  0
    1.9401    1.0860    3.0397 C   0  0  0  0  0  0  0  0  0  0  0  0
    3.1868    0.5187    2.6220 C   0  0  0  0  0  0  0  0  0  0  0  0
    3.5224   -0.7712    2.2631 N   0  0  0  0  0  0  0  0  0  0  0  0
    2.6774   -1.9624    2.1114 C   0  0  0  0  0  0  0  0  0  0  0  0
    1.5978   -1.7502    1.0560 C   0  0  0  0  0  0  0  0  0  0  0  0
   -5.2628    1.6562    4.5003 C   0  0  0  0  0  0  0  0  0  0  0  0
   -6.0275    1.2405    3.4726 C   0  0  0  0  0  0  0  0  0  0  0  0
   -5.5904    1.1708    2.0734 C   0  0  0  0  0  0  0  0  0  0  0  0
   -4.4017    1.2195    1.6561 O   0  0  0  0  0  0  0  0  0  0  0  0
   -6.7609    1.1054    1.2289 C   0  0  0  0  0  0  0  0  0  0  0  0
   -6.7907    1.1656   -0.1826 C   0  0  0  0  0  0  0  0  0  0  0  0
   -8.0649    1.2092   -0.7138 C   0  0  0  0  0  0  0  0  0  0  0  0
   -9.2493    1.2108    0.0903 C   0  0  0  0  0  0  0  0  0  0  0  0
   -9.2270    1.1664    1.4749 C   0  0  0  0  0  0  0  0  0  0  0  0
   -7.9226    1.0863    2.0424 C   0  0  0  0  0  0  0  0  0  0  0  0
   -7.5111    1.0493    3.4745 C   0  0  0  0  0  0  0  0  0  0  0  0
   -8.2835    0.6878    4.5334 C   0  0  0  0  0  0  0  0  0  0  0  0
   -7.7238    0.4272    5.8335 C   0  0  0  0  0  0  0  0  0  0  0  0
   -7.2815    0.2134    6.8800 N   0  0  0  0  0  0  0  0  0  0  0  0
   -9.6854    0.3850    4.4128 C   0  0  0  0  0  0  0  0  0  0  0  0
  -10.8137    0.1358    4.3317 N   0  0  0  0  0  0  0  0  0  0  0  0
  -10.1039    1.3115   -1.1379 C   0  0  0  0  0  0  0  0  0  0  0  0
  -10.7614    2.6875   -1.4620 C   0  0  0  0  0  0  0  0  0  0  0  0
   -9.8952    3.8115   -0.9424 C   0  0  0  0  0  0  0  0  0  0  0  0
   -8.7856    3.8079   -1.6843 C   0  0  0  0  0  0  0  0  0  0  0  0
   -8.9381    2.6886   -2.6886 C   0  0  0  0  0  0  0  0  0  0  0  0
  -10.4320    2.7957   -2.9390 C   0  0  0  0  0  0  0  0  0  0  0  0
   -8.8886    1.3111   -1.9620 C   0  0  0  0  0  0  0  0  0  0  0  0
    7.8678   -4.5937   -1.3729 H   0  0  0  0  0  0  0  0  0  0  0  0
    8.4049   -1.4177   -2.4846 H   0  0  0  0  0  0  0  0  0  0  0  0
    8.3567    0.1114   -1.5531 H   0  0  0  0  0  0  0  0  0  0  0  0
    9.8182   -0.8500    0.2033 H   0  0  0  0  0  0  0  0  0  0  0  0
   10.5841   -1.0290   -1.4224 H   0  0  0  0  0  0  0  0  0  0  0  0
    9.8081   -2.4556   -0.6396 H   0  0  0  0  0  0  0  0  0  0  0  0
   -3.7701    4.0421    3.9065 H   0  0  0  0  0  0  0  0  0  0  0  0
   -0.2582   -0.6095    5.0247 H   0  0  0  0  0  0  0  0  0  0  0  0
    0.4794   -1.5738    3.7752 H   0  0  0  0  0  0  0  0  0  0  0  0
    2.7807   -0.9701    4.9055 H   0  0  0  0  0  0  0  0  0  0  0  0
    1.8492    0.0248    6.0811 H   0  0  0  0  0  0  0  0  0  0  0  0
    1.6275   -1.7643    6.0340 H   0  0  0  0  0  0  0  0  0  0  0  0
    3.2834   -2.8304    1.7984 H   0  0  0  0  0  0  0  0  0  0  0  0
    2.2870   -2.2963    3.0813 H   0  0  0  0  0  0  0  0  0  0  0  0
    0.9225   -0.9218    1.3413 H   0  0  0  0  0  0  0  0  0  0  0  0
    0.9931   -2.6734    0.9452 H   0  0  0  0  0  0  0  0  0  0  0  0
    2.0653   -1.5138    0.0777 H   0  0  0  0  0  0  0  0  0  0  0  0
   -5.7044    1.9039    5.4522 H   0  0  0  0  0  0  0  0  0  0  0  0
   -5.8992    1.2130   -0.7924 H   0  0  0  0  0  0  0  0  0  0  0  0
  -10.1387    1.2392    2.0430 H   0  0  0  0  0  0  0  0  0  0  0  0
  -10.7587    0.4278   -1.3069 H   0  0  0  0  0  0  0  0  0  0  0  0
  -11.8388    2.7685   -1.2085 H   0  0  0  0  0  0  0  0  0  0  0  0
  -10.1453    4.5336   -0.1714 H   0  0  0  0  0  0  0  0  0  0  0  0
   -7.9727    4.5235   -1.6160 H   0  0  0  0  0  0  0  0  0  0  0  0
   -8.2932    2.7803   -3.5879 H   0  0  0  0  0  0  0  0  0  0  0  0
  -10.7362    3.7723   -3.3895 H   0  0  0  0  0  0  0  0  0  0  0  0
  -10.8469    1.9564   -3.5456 H   0  0  0  0  0  0  0  0  0  0  0  0
   -8.8032    0.4301   -2.6383 H   0  0  0  0  0  0  0  0  0  0  0  0
  1  2  2  3
  2  3  1  0
  3  4  2  0
  3  5  1  0
  5  6  2  0
  6  7  1  0
  6  8  1  0
  8  9  1  0
  8 10  2  0
 10 11  1  0
 10 12  1  0
 12 13  1  0
 12 14  2  0
 14 15  1  0
 15 16  2  3
 16 17  1  0
 17 18  3  0
 16 19  1  0
 19 20  3  0
  1 21  1  0
 21 22  2  0
 22 23  1  0
 23 24  1  0
 22 25  1  0
 25 26  2  0
 26 27  1  0
 26 28  1  0
 28 29  2  0
 29 30  1  0
 29 31  1  0
 31 32  1  0
 32 33  2  0
 33 34  1  0
 34 35  1  0
 35 36  2  0
 36 37  1  0
 37 38  1  0
 38 39  1  0
 39 40  1  0
 40 41  1  0
 41 42  2  0
 42 43  1  0
 43 44  1  0
 44 45  1  0
 45 46  1  0
 46 47  1  0
 47 48  1  0
 46 49  1  0
 49 50  1  0
 50 51  1  0
 51 52  1  0
 52 53  1  0
 42 54  1  0
 54 55  2  3
 55 56  1  0
 56 57  2  0
 56 58  1  0
 58 59  2  0
 59 60  1  0
 60 61  2  0
 61 62  1  0
 62 63  2  0
 63 64  1  0
 64 65  2  3
 65 66  1  0
 66 67  3  0
 65 68  1  0
 68 69  3  0
 61 70  1  0
 70 71  1  0
 71 72  1  0
 72 73  2  0
 73 74  1  0
 74 75  1  0
 74 76  1  0
 15  2  1  0
 27 21  1  0
 51 28  1  0
 64 55  1  0
 76 70  1  0
 14  5  1  0
 30 25  1  0
 50 31  2  0
 63 58  1  0
 75 71  1  0
 36 32  1  0
 49 37  2  0
 76 60  1  0
 45 38  2  0
 44 40  2  0
  1 77  1  0
 23 78  1  0
 23 79  1  0
 24 80  1  0
 24 81  1  0
 24 82  1  0
 41 83  1  0
 47 84  1  0
 47 85  1  0
 48 86  1  0
 48 87  1  0
 48 88  1  0
 52 89  1  0
 52 90  1  0
 53 91  1  0
 53 92  1  0
 53 93  1  0
 54 94  1  0
 59 95  1  0
 62 96  1  0
 70 97  1  0
 71 98  1  0
 72 99  1  0
 73100  1  0
 74101  1  0
 75102  1  0
 75103  1  0
 76104  1  0
M  END

