
     RDKit          3D

139155  0  0  0  0  0  0  0  0999 V2000
    0.4743    7.5969   -3.6538 C   0  0  0  0  0  0  0  0  0  0  0  0
    1.7495    7.7819   -3.2640 C   0  0  0  0  0  0  0  0  0  0  0  0
    2.6853    6.7369   -2.8281 C   0  0  0  0  0  0  0  0  0  0  0  0
    2.3890    5.5545   -2.5082 O   0  0  0  0  0  0  0  0  0  0  0  0
    4.0366    7.2678   -2.9213 C   0  0  0  0  0  0  0  0  0  0  0  0
    5.2555    6.5963   -2.7584 C   0  0  0  0  0  0  0  0  0  0  0  0
    5.3009    4.9473   -2.1357 Cl  0  0  0  0  0  0  0  0  0  0  0  0
    6.4424    7.2677   -3.1129 C   0  0  0  0  0  0  0  0  0  0  0  0
    8.0031    6.4687   -2.8952 Cl  0  0  0  0  0  0  0  0  0  0  0  0
    6.3794    8.5564   -3.6953 C   0  0  0  0  0  0  0  0  0  0  0  0
    7.8598    9.3403   -4.2456 Cl  0  0  0  0  0  0  0  0  0  0  0  0
    5.1347    9.2018   -3.8690 C   0  0  0  0  0  0  0  0  0  0  0  0
    5.0365   10.6440   -4.8843 Cl  0  0  0  0  0  0  0  0  0  0  0  0
    3.9751    8.5764   -3.3737 C   0  0  0  0  0  0  0  0  0  0  0  0
    2.5544    9.0197   -3.4167 C   0  0  0  0  0  0  0  0  0  0  0  0
    2.1064   10.2646   -3.1111 C   0  0  0  0  0  0  0  0  0  0  0  0
    3.0044   11.3205   -2.7183 C   0  0  0  0  0  0  0  0  0  0  0  0
    3.7145   12.1700   -2.3888 N   0  0  0  0  0  0  0  0  0  0  0  0
    0.7097   10.5388   -2.8931 C   0  0  0  0  0  0  0  0  0  0  0  0
   -0.4115   10.7665   -2.6980 N   0  0  0  0  0  0  0  0  0  0  0  0
   -0.2024    6.3044   -3.5088 C   0  0  0  0  0  0  0  0  0  0  0  0
   -0.2630    5.3059   -4.4948 C   0  0  0  0  0  0  0  0  0  0  0  0
    0.1832    5.4827   -5.9218 C   0  0  0  0  0  0  0  0  0  0  0  0
   -0.8707    6.2441   -6.7191 C   0  0  0  0  0  0  0  0  0  0  0  0
   -0.7078    4.0976   -3.9522 C   0  0  0  0  0  0  0  0  0  0  0  0
   -0.5753    2.4970   -4.5044 S   0  0  0  0  0  0  0  0  0  0  0  0
   -0.9751    1.8782   -2.9759 C   0  0  0  0  0  0  0  0  0  0  0  0
   -0.5783    0.7593   -2.2917 C   0  0  0  0  0  0  0  0  0  0  0  0
    0.1617   -0.3474   -2.7447 C   0  0  0  0  0  0  0  0  0  0  0  0
    0.3549   -0.5883   -4.0652 N   0  0  0  0  0  0  0  0  0  0  0  0
    1.1373   -1.6138   -4.5006 C   0  0  0  0  0  0  0  0  0  0  0  0
    1.3580   -1.7381   -5.9536 C   0  0  0  0  0  0  0  0  0  0  0  0
    2.8439   -1.9960   -6.7122 S   0  0  0  0  0  0  0  0  0  0  0  0
    2.2718   -1.8416   -8.2862 C   0  0  0  0  0  0  0  0  0  0  0  0
    3.1020   -1.9978   -9.5211 C   0  0  0  0  0  0  0  0  0  0  0  0
    3.3799   -3.4740   -9.8005 C   0  0  0  0  0  0  0  0  0  0  0  0
    0.9072   -1.5781   -8.2348 C   0  0  0  0  0  0  0  0  0  0  0  0
    0.3995   -1.4964   -6.9315 C   0  0  0  0  0  0  0  0  0  0  0  0
    0.1423   -1.3884   -9.3359 F   0  0  0  0  0  0  0  0  0  0  0  0
    1.7587   -2.4560   -3.5425 C   0  0  0  0  0  0  0  0  0  0  0  0
    2.6121   -3.5942   -3.9165 C   0  0  0  0  0  0  0  0  0  0  0  0
    2.2674   -4.6313   -4.7728 C   0  0  0  0  0  0  0  0  0  0  0  0
    3.3009   -5.5632   -4.9388 C   0  0  0  0  0  0  0  0  0  0  0  0
    3.1789   -6.6631   -5.7208 F   0  0  0  0  0  0  0  0  0  0  0  0
    4.4501   -5.2592   -4.2157 C   0  0  0  0  0  0  0  0  0  0  0  0
    5.7088   -6.0712   -4.1810 C   0  0  0  0  0  0  0  0  0  0  0  0
    5.6672   -7.0846   -3.0462 C   0  0  0  0  0  0  0  0  0  0  0  0
    4.1765   -3.8484   -3.3382 S   0  0  0  0  0  0  0  0  0  0  0  0
    1.5676   -2.2097   -2.2176 N   0  0  0  0  0  0  0  0  0  0  0  0
    0.7896   -1.1795   -1.7928 C   0  0  0  0  0  0  0  0  0  0  0  0
    0.6036   -0.8978   -0.4316 C   0  0  0  0  0  0  0  0  0  0  0  0
    0.8589   -1.6502    0.6841 C   0  0  0  0  0  0  0  0  0  0  0  0
    1.2832   -3.2665    0.9944 S   0  0  0  0  0  0  0  0  0  0  0  0
    0.5678   -3.1960    2.5421 C   0  0  0  0  0  0  0  0  0  0  0  0
    0.3210   -4.1533    3.5299 C   0  0  0  0  0  0  0  0  0  0  0  0
    0.9282   -5.5274    3.5447 C   0  0  0  0  0  0  0  0  0  0  0  0
    2.2729   -5.5067    4.2608 C   0  0  0  0  0  0  0  0  0  0  0  0
   -0.5324   -3.6378    4.5243 C   0  0  0  0  0  0  0  0  0  0  0  0
   -0.8993   -2.0078    4.1768 S   0  0  0  0  0  0  0  0  0  0  0  0
   -0.0147   -1.9754    2.7588 C   0  0  0  0  0  0  0  0  0  0  0  0
    0.1710   -1.0823    1.7117 C   0  0  0  0  0  0  0  0  0  0  0  0
   -0.4871    0.0478    1.3450 N   0  0  0  0  0  0  0  0  0  0  0  0
   -1.6950    0.5523    2.0141 C   0  0  0  0  0  0  0  0  0  0  0  0
   -1.3592    1.2882    3.3139 C   0  0  0  0  0  0  0  0  0  0  0  0
   -0.1667    0.1824    0.0185 C   0  0  0  0  0  0  0  0  0  0  0  0
   -0.6763    1.0905   -0.9345 C   0  0  0  0  0  0  0  0  0  0  0  0
   -0.9753    2.4190   -0.7760 N   0  0  0  0  0  0  0  0  0  0  0  0
   -1.1641    2.8638   -2.0486 C   0  0  0  0  0  0  0  0  0  0  0  0
   -0.9970    4.1319   -2.6112 C   0  0  0  0  0  0  0  0  0  0  0  0
   -0.6821    5.6656   -2.0095 S   0  0  0  0  0  0  0  0  0  0  0  0
   -0.5618    3.2720    0.3439 C   0  0  0  0  0  0  0  0  0  0  0  0
   -1.7406    4.0794    0.8976 C   0  0  0  0  0  0  0  0  0  0  0  0
   -0.9195   -4.3248    5.7701 C   0  0  0  0  0  0  0  0  0  0  0  0
   -2.1418   -4.2334    6.3310 C   0  0  0  0  0  0  0  0  0  0  0  0
   -3.3117   -3.5566    5.7542 C   0  0  0  0  0  0  0  0  0  0  0  0
   -3.5294   -3.3572    4.5304 O   0  0  0  0  0  0  0  0  0  0  0  0
   -4.2124   -3.2014    6.8297 C   0  0  0  0  0  0  0  0  0  0  0  0
   -5.3269   -2.3315    6.7593 C   0  0  0  0  0  0  0  0  0  0  0  0
   -5.8402   -1.9785    7.9940 C   0  0  0  0  0  0  0  0  0  0  0  0
   -5.2899   -2.4454    9.2330 C   0  0  0  0  0  0  0  0  0  0  0  0
   -4.2191   -3.3219    9.3069 C   0  0  0  0  0  0  0  0  0  0  0  0
   -3.6963   -3.7189    8.0444 C   0  0  0  0  0  0  0  0  0  0  0  0
   -2.4883   -4.5329    7.7511 C   0  0  0  0  0  0  0  0  0  0  0  0
   -1.9687   -5.5093    8.5357 C   0  0  0  0  0  0  0  0  0  0  0  0
   -0.9271   -6.3934    8.0785 C   0  0  0  0  0  0  0  0  0  0  0  0
   -0.0899   -7.1067    7.7166 N   0  0  0  0  0  0  0  0  0  0  0  0
   -2.5400   -5.8470    9.8110 C   0  0  0  0  0  0  0  0  0  0  0  0
   -2.9960   -6.1314   10.8357 N   0  0  0  0  0  0  0  0  0  0  0  0
   -6.2580   -1.5920   10.0006 C   0  0  0  0  0  0  0  0  0  0  0  0
   -7.4446   -2.2980   10.7194 C   0  0  0  0  0  0  0  0  0  0  0  0
   -7.8216   -3.5512    9.9697 C   0  0  0  0  0  0  0  0  0  0  0  0
   -8.3471   -3.1552    8.8093 C   0  0  0  0  0  0  0  0  0  0  0  0
   -8.3125   -1.6434    8.8123 C   0  0  0  0  0  0  0  0  0  0  0  0
   -8.5891   -1.3987   10.2839 C   0  0  0  0  0  0  0  0  0  0  0  0
   -6.8404   -1.1405    8.7326 C   0  0  0  0  0  0  0  0  0  0  0  0
   -0.0624    8.3873   -4.1558 H   0  0  0  0  0  0  0  0  0  0  0  0
    0.3522    4.4946   -6.3998 H   0  0  0  0  0  0  0  0  0  0  0  0
    1.1425    6.0388   -5.9490 H   0  0  0  0  0  0  0  0  0  0  0  0
   -0.5541    6.3114   -7.7828 H   0  0  0  0  0  0  0  0  0  0  0  0
   -0.9882    7.2731   -6.3198 H   0  0  0  0  0  0  0  0  0  0  0  0
   -1.8481    5.7144   -6.6694 H   0  0  0  0  0  0  0  0  0  0  0  0
    2.5811   -1.5509  -10.3949 H   0  0  0  0  0  0  0  0  0  0  0  0
    4.0673   -1.4624   -9.3844 H   0  0  0  0  0  0  0  0  0  0  0  0
    4.0260   -3.5674  -10.6972 H   0  0  0  0  0  0  0  0  0  0  0  0
    3.9045   -3.9398   -8.9375 H   0  0  0  0  0  0  0  0  0  0  0  0
    2.4274   -4.0174   -9.9885 H   0  0  0  0  0  0  0  0  0  0  0  0
   -0.6373   -1.2758   -6.7130 H   0  0  0  0  0  0  0  0  0  0  0  0
    1.3044   -4.7152   -5.2618 H   0  0  0  0  0  0  0  0  0  0  0  0
    6.5830   -5.3983   -4.0448 H   0  0  0  0  0  0  0  0  0  0  0  0
    5.8388   -6.6010   -5.1484 H   0  0  0  0  0  0  0  0  0  0  0  0
    5.6314   -6.5680   -2.0655 H   0  0  0  0  0  0  0  0  0  0  0  0
    4.7764   -7.7416   -3.1455 H   0  0  0  0  0  0  0  0  0  0  0  0
    6.5790   -7.7185   -3.0851 H   0  0  0  0  0  0  0  0  0  0  0  0
    1.0717   -5.8871    2.5043 H   0  0  0  0  0  0  0  0  0  0  0  0
    0.2453   -6.2382    4.0589 H   0  0  0  0  0  0  0  0  0  0  0  0
    2.7113   -6.5283    4.2708 H   0  0  0  0  0  0  0  0  0  0  0  0
    2.9793   -4.8227    3.7379 H   0  0  0  0  0  0  0  0  0  0  0  0
    2.1505   -5.1683    5.3125 H   0  0  0  0  0  0  0  0  0  0  0  0
   -2.2697    1.2102    1.3400 H   0  0  0  0  0  0  0  0  0  0  0  0
   -2.3694   -0.3009    2.2432 H   0  0  0  0  0  0  0  0  0  0  0  0
   -2.2683    1.3505    3.9449 H   0  0  0  0  0  0  0  0  0  0  0  0
   -1.0187    2.3226    3.1204 H   0  0  0  0  0  0  0  0  0  0  0  0
   -0.5622    0.7632    3.8791 H   0  0  0  0  0  0  0  0  0  0  0  0
    0.2380    3.9655    0.0110 H   0  0  0  0  0  0  0  0  0  0  0  0
   -0.0972    2.6718    1.1455 H   0  0  0  0  0  0  0  0  0  0  0  0
   -1.3797    4.7772    1.6817 H   0  0  0  0  0  0  0  0  0  0  0  0
   -2.2328    4.6663    0.0983 H   0  0  0  0  0  0  0  0  0  0  0  0
   -2.5048    3.4165    1.3481 H   0  0  0  0  0  0  0  0  0  0  0  0
   -0.1156   -4.8111    6.2935 H   0  0  0  0  0  0  0  0  0  0  0  0
   -5.6950   -1.9160    5.8313 H   0  0  0  0  0  0  0  0  0  0  0  0
   -3.7934   -3.6018   10.2562 H   0  0  0  0  0  0  0  0  0  0  0  0
   -5.7717   -0.7780   10.5790 H   0  0  0  0  0  0  0  0  0  0  0  0
   -7.3310   -2.4213   11.8187 H   0  0  0  0  0  0  0  0  0  0  0  0
   -7.7470   -4.5742   10.3171 H   0  0  0  0  0  0  0  0  0  0  0  0
   -8.7795   -3.8020    8.0523 H   0  0  0  0  0  0  0  0  0  0  0  0
   -9.0186   -1.1561    8.1095 H   0  0  0  0  0  0  0  0  0  0  0  0
   -9.5909   -1.7666   10.6142 H   0  0  0  0  0  0  0  0  0  0  0  0
   -8.4572   -0.3329   10.5916 H   0  0  0  0  0  0  0  0  0  0  0  0
   -6.7277   -0.0496    8.5530 H   0  0  0  0  0  0  0  0  0  0  0  0
  1  2  2  3
  2  3  1  0
  3  4  2  0
  3  5  1  0
  5  6  2  0
  6  7  1  0
  6  8  1  0
  8  9  1  0
  8 10  2  0
 10 11  1  0
 10 12  1  0
 12 13  1  0
 12 14  2  0
 14 15  1  0
 15 16  2  3
 16 17  1  0
 17 18  3  0
 16 19  1  0
 19 20  3  0
  1 21  1  0
 21 22  2  0
 22 23  1  0
 23 24  1  0
 22 25  1  0
 25 26  1  0
 26 27  1  0
 27 28  1  0
 28 29  2  0
 29 30  1  0
 30 31  2  0
 31 32  1  0
 32 33  1  0
 33 34  1  0
 34 35  1  0
 35 36  1  0
 34 37  2  0
 37 38  1  0
 37 39  1  0
 31 40  1  0
 40 41  1  0
 41 42  2  0
 42 43  1  0
 43 44  1  0
 43 45  2  0
 45 46  1  0
 46 47  1  0
 45 48  1  0
 40 49  2  0
 49 50  1  0
 50 51  2  0
 51 52  1  0
 52 53  1  0
 53 54  1  0
 54 55  1  0
 55 56  1  0
 56 57  1  0
 55 58  2  0
 58 59  1  0
 59 60  1  0
 60 61  1  0
 61 62  1  0
 62 63  1  0
 63 64  1  0
 62 65  1  0
 65 66  2  0
 66 67  1  0
 67 68  1  0
 68 69  1  0
 69 70  1  0
 67 71  1  0
 71 72  1  0
 58 73  1  0
 73 74  2  3
 74 75  1  0
 75 76  2  0
 75 77  1  0
 77 78  2  0
 78 79  1  0
 79 80  2  0
 80 81  1  0
 81 82  2  0
 82 83  1  0
 83 84  2  3
 84 85  1  0
 85 86  3  0
 84 87  1  0
 87 88  3  0
 80 89  1  0
 89 90  1  0
 90 91  1  0
 91 92  2  0
 92 93  1  0
 93 94  1  0
 93 95  1  0
 15  2  1  0
 70 21  1  0
 83 74  1  0
 95 89  1  0
 14  5  1  0
 69 25  2  0
 82 77  1  0
 94 90  1  0
 68 27  2  0
 95 79  1  0
 66 28  1  0
 50 29  1  0
 65 51  1  0
 38 32  2  0
 48 41  1  0
 61 52  2  0
 60 54  2  0
  1 96  1  0
 23 97  1  0
 23 98  1  0
 24 99  1  0
 24100  1  0
 24101  1  0
 35102  1  0
 35103  1  0
 36104  1  0
 36105  1  0
 36106  1  0
 38107  1  0
 42108  1  0
 46109  1  0
 46110  1  0
 47111  1  0
 47112  1  0
 47113  1  0
 56114  1  0
 56115  1  0
 57116  1  0
 57117  1  0
 57118  1  0
 63119  1  0
 63120  1  0
 64121  1  0
 64122  1  0
 64123  1  0
 71124  1  0
 71125  1  0
 72126  1  0
 72127  1  0
 72128  1  0
 73129  1  0
 78130  1  0
 81131  1  0
 89132  1  0
 90133  1  0
 91134  1  0
 92135  1  0
 93136  1  0
 94137  1  0
 94138  1  0
 95139  1  0
M  END

