
     RDKit          3D

130146  0  0  0  0  0  0  0  0999 V2000
   -6.0552   -4.4152    3.3331 C   0  0  0  0  0  0  0  0  0  0  0  0
   -6.0918   -4.3449    4.6766 C   0  0  0  0  0  0  0  0  0  0  0  0
   -7.3556   -4.4790    5.4082 C   0  0  0  0  0  0  0  0  0  0  0  0
   -8.4619   -4.8181    4.9027 O   0  0  0  0  0  0  0  0  0  0  0  0
   -7.1403   -4.0914    6.7877 C   0  0  0  0  0  0  0  0  0  0  0  0
   -8.0714   -3.9487    7.8229 C   0  0  0  0  0  0  0  0  0  0  0  0
   -9.7529   -4.4219    7.5963 Cl  0  0  0  0  0  0  0  0  0  0  0  0
   -7.6297   -3.4152    9.0523 C   0  0  0  0  0  0  0  0  0  0  0  0
   -8.7566   -3.2665   10.4016 Cl  0  0  0  0  0  0  0  0  0  0  0  0
   -6.2922   -2.9706    9.1937 C   0  0  0  0  0  0  0  0  0  0  0  0
   -5.7593   -2.2309   10.7082 Cl  0  0  0  0  0  0  0  0  0  0  0  0
   -5.3842   -3.0951    8.1161 C   0  0  0  0  0  0  0  0  0  0  0  0
   -3.8162   -2.2877    8.1830 Cl  0  0  0  0  0  0  0  0  0  0  0  0
   -5.8099   -3.7511    6.9466 C   0  0  0  0  0  0  0  0  0  0  0  0
   -5.0400   -4.0681    5.7086 C   0  0  0  0  0  0  0  0  0  0  0  0
   -3.8091   -4.6387    5.7409 C   0  0  0  0  0  0  0  0  0  0  0  0
   -3.0566   -4.9976    4.5730 C   0  0  0  0  0  0  0  0  0  0  0  0
   -2.4040   -5.2665    3.6534 N   0  0  0  0  0  0  0  0  0  0  0  0
   -3.2172   -5.0803    6.9828 C   0  0  0  0  0  0  0  0  0  0  0  0
   -2.7481   -5.4553    7.9746 N   0  0  0  0  0  0  0  0  0  0  0  0
   -4.9363   -4.0677    2.4463 C   0  0  0  0  0  0  0  0  0  0  0  0
   -4.7180   -4.7034    1.2099 C   0  0  0  0  0  0  0  0  0  0  0  0
   -5.5620   -5.7835    0.6441 C   0  0  0  0  0  0  0  0  0  0  0  0
   -6.3922   -5.4666   -0.4448 C   0  0  0  0  0  0  0  0  0  0  0  0
   -7.1807   -6.4470   -1.0504 C   0  0  0  0  0  0  0  0  0  0  0  0
   -7.1513   -7.7571   -0.5771 C   0  0  0  0  0  0  0  0  0  0  0  0
   -6.3424   -8.0897    0.5093 C   0  0  0  0  0  0  0  0  0  0  0  0
   -5.5503   -7.1123    1.1425 C   0  0  0  0  0  0  0  0  0  0  0  0
   -4.6486   -7.5408    2.2765 C   0  0  0  0  0  0  0  0  0  0  0  0
   -3.2374   -7.8230    1.7753 C   0  0  0  0  0  0  0  0  0  0  0  0
   -3.7715   -4.0190    0.4567 C   0  0  0  0  0  0  0  0  0  0  0  0
   -3.2939   -4.1768   -1.1648 S   0  0  0  0  0  0  0  0  0  0  0  0
   -2.3883   -2.7517   -1.0607 C   0  0  0  0  0  0  0  0  0  0  0  0
   -1.9549   -1.8221   -1.9546 C   0  0  0  0  0  0  0  0  0  0  0  0
   -1.9845   -1.8096   -3.3541 C   0  0  0  0  0  0  0  0  0  0  0  0
   -1.6769   -0.5950   -4.0329 C   0  0  0  0  0  0  0  0  0  0  0  0
   -1.6942   -0.6302   -5.3883 N   0  0  0  0  0  0  0  0  0  0  0  0
   -2.1262   -2.2113   -5.6261 S   0  0  0  0  0  0  0  0  0  0  0  0
   -2.2947   -2.8864   -4.1203 N   0  0  0  0  0  0  0  0  0  0  0  0
   -1.3451    0.5348   -3.2755 C   0  0  0  0  0  0  0  0  0  0  0  0
   -0.7001    1.6719   -3.6497 C   0  0  0  0  0  0  0  0  0  0  0  0
    0.0925    2.1756   -5.0660 S   0  0  0  0  0  0  0  0  0  0  0  0
    1.0958    3.2042   -4.1655 C   0  0  0  0  0  0  0  0  0  0  0  0
    2.1626    4.0202   -4.5124 C   0  0  0  0  0  0  0  0  0  0  0  0
    2.6372    4.2289   -5.8935 C   0  0  0  0  0  0  0  0  0  0  0  0
    3.8551    3.6677   -6.3578 C   0  0  0  0  0  0  0  0  0  0  0  0
    4.7098    2.7679   -5.4932 C   0  0  0  0  0  0  0  0  0  0  0  0
    4.1691    1.3422   -5.4773 C   0  0  0  0  0  0  0  0  0  0  0  0
    4.2520    3.9039   -7.6836 C   0  0  0  0  0  0  0  0  0  0  0  0
    3.4753    4.7031   -8.5287 C   0  0  0  0  0  0  0  0  0  0  0  0
    2.2854    5.2622   -8.0644 C   0  0  0  0  0  0  0  0  0  0  0  0
    1.8631    5.0183   -6.7573 C   0  0  0  0  0  0  0  0  0  0  0  0
    2.7507    4.5963   -3.3772 C   0  0  0  0  0  0  0  0  0  0  0  0
    1.9412    4.0660   -1.9665 S   0  0  0  0  0  0  0  0  0  0  0  0
    0.8520    3.1076   -2.8195 C   0  0  0  0  0  0  0  0  0  0  0  0
   -0.1826    2.2292   -2.5184 C   0  0  0  0  0  0  0  0  0  0  0  0
   -0.4709    1.5101   -1.3987 N   0  0  0  0  0  0  0  0  0  0  0  0
   -1.2741    0.5016   -1.8728 C   0  0  0  0  0  0  0  0  0  0  0  0
   -1.6958   -0.6715   -1.2010 C   0  0  0  0  0  0  0  0  0  0  0  0
   -2.1105   -0.8276    0.0961 N   0  0  0  0  0  0  0  0  0  0  0  0
   -2.4840   -2.1368    0.1515 C   0  0  0  0  0  0  0  0  0  0  0  0
   -3.2875   -2.8660    1.0286 C   0  0  0  0  0  0  0  0  0  0  0  0
   -4.0118   -2.6264    2.5291 S   0  0  0  0  0  0  0  0  0  0  0  0
   -2.6569    0.2249    0.9662 C   0  0  0  0  0  0  0  0  0  0  0  0
   -4.1226    0.4950    0.6391 C   0  0  0  0  0  0  0  0  0  0  0  0
    0.4461    1.4019   -0.2556 C   0  0  0  0  0  0  0  0  0  0  0  0
    1.6611    0.5447   -0.6121 C   0  0  0  0  0  0  0  0  0  0  0  0
    3.7088    5.7073   -3.4498 C   0  0  0  0  0  0  0  0  0  0  0  0
    4.9371    5.7069   -2.9112 C   0  0  0  0  0  0  0  0  0  0  0  0
    5.4747    4.7266   -1.9616 C   0  0  0  0  0  0  0  0  0  0  0  0
    5.0130    3.5786   -1.7279 O   0  0  0  0  0  0  0  0  0  0  0  0
    6.6483    5.2981   -1.3270 C   0  0  0  0  0  0  0  0  0  0  0  0
    7.3724    4.7796   -0.2235 C   0  0  0  0  0  0  0  0  0  0  0  0
    8.3382    5.6387    0.2693 C   0  0  0  0  0  0  0  0  0  0  0  0
    8.5687    6.9430   -0.2773 C   0  0  0  0  0  0  0  0  0  0  0  0
    7.8655    7.4570   -1.3520 C   0  0  0  0  0  0  0  0  0  0  0  0
    6.8983    6.5735   -1.8979 C   0  0  0  0  0  0  0  0  0  0  0  0
    5.9370    6.8105   -3.0045 C   0  0  0  0  0  0  0  0  0  0  0  0
    6.1118    7.6660   -4.0477 C   0  0  0  0  0  0  0  0  0  0  0  0
    5.2827    7.6303   -5.2244 C   0  0  0  0  0  0  0  0  0  0  0  0
    4.6182    7.6135   -6.1685 N   0  0  0  0  0  0  0  0  0  0  0  0
    7.2277    8.5757   -4.1208 C   0  0  0  0  0  0  0  0  0  0  0  0
    8.1201    9.3090   -4.1902 N   0  0  0  0  0  0  0  0  0  0  0  0
    9.5950    7.2200    0.7720 C   0  0  0  0  0  0  0  0  0  0  0  0
    9.1573    8.1777    1.9199 C   0  0  0  0  0  0  0  0  0  0  0  0
   10.1834    8.0005    3.0140 C   0  0  0  0  0  0  0  0  0  0  0  0
    9.9868    6.7785    3.5243 C   0  0  0  0  0  0  0  0  0  0  0  0
    8.8297    6.1766    2.7630 C   0  0  0  0  0  0  0  0  0  0  0  0
    8.0000    7.4334    2.5668 C   0  0  0  0  0  0  0  0  0  0  0  0
    9.3665    5.8854    1.3301 C   0  0  0  0  0  0  0  0  0  0  0  0
   -6.9602   -4.7181    2.8214 H   0  0  0  0  0  0  0  0  0  0  0  0
   -6.4230   -4.4540   -0.8326 H   0  0  0  0  0  0  0  0  0  0  0  0
   -7.8098   -6.1921   -1.8912 H   0  0  0  0  0  0  0  0  0  0  0  0
   -7.7465   -8.5185   -1.0621 H   0  0  0  0  0  0  0  0  0  0  0  0
   -6.3257   -9.1145    0.8573 H   0  0  0  0  0  0  0  0  0  0  0  0
   -5.0477   -8.4596    2.7596 H   0  0  0  0  0  0  0  0  0  0  0  0
   -4.6166   -6.7714    3.0688 H   0  0  0  0  0  0  0  0  0  0  0  0
   -3.2540   -8.6141    0.9890 H   0  0  0  0  0  0  0  0  0  0  0  0
   -2.7823   -6.9006    1.3568 H   0  0  0  0  0  0  0  0  0  0  0  0
   -2.6063   -8.1791    2.6194 H   0  0  0  0  0  0  0  0  0  0  0  0
    5.7575    2.7495   -5.8649 H   0  0  0  0  0  0  0  0  0  0  0  0
    4.7612    3.1534   -4.4560 H   0  0  0  0  0  0  0  0  0  0  0  0
    3.1497    1.3171   -5.0392 H   0  0  0  0  0  0  0  0  0  0  0  0
    4.8290    0.7005   -4.8577 H   0  0  0  0  0  0  0  0  0  0  0  0
    4.1338    0.9323   -6.5087 H   0  0  0  0  0  0  0  0  0  0  0  0
    5.1700    3.4722   -8.0685 H   0  0  0  0  0  0  0  0  0  0  0  0
    3.8010    4.8874   -9.5465 H   0  0  0  0  0  0  0  0  0  0  0  0
    1.6860    5.8766   -8.7223 H   0  0  0  0  0  0  0  0  0  0  0  0
    0.9344    5.4584   -6.4140 H   0  0  0  0  0  0  0  0  0  0  0  0
   -2.5486   -0.0732    2.0302 H   0  0  0  0  0  0  0  0  0  0  0  0
   -2.1256    1.1862    0.8283 H   0  0  0  0  0  0  0  0  0  0  0  0
   -4.5283    1.2467    1.3457 H   0  0  0  0  0  0  0  0  0  0  0  0
   -4.7313   -0.4347    0.7231 H   0  0  0  0  0  0  0  0  0  0  0  0
   -4.2141    0.8857   -0.3947 H   0  0  0  0  0  0  0  0  0  0  0  0
    0.7742    2.4117    0.0648 H   0  0  0  0  0  0  0  0  0  0  0  0
   -0.0421    0.9310    0.6150 H   0  0  0  0  0  0  0  0  0  0  0  0
    2.3950    0.5710    0.2239 H   0  0  0  0  0  0  0  0  0  0  0  0
    1.3397   -0.5099   -0.7823 H   0  0  0  0  0  0  0  0  0  0  0  0
    2.1583    0.9205   -1.5312 H   0  0  0  0  0  0  0  0  0  0  0  0
    3.3748    6.5516   -4.0283 H   0  0  0  0  0  0  0  0  0  0  0  0
    7.1511    3.8221    0.2297 H   0  0  0  0  0  0  0  0  0  0  0  0
    8.0088    8.4730   -1.6669 H   0  0  0  0  0  0  0  0  0  0  0  0
   10.6165    7.3864    0.3659 H   0  0  0  0  0  0  0  0  0  0  0  0
    8.9564    9.2284    1.6195 H   0  0  0  0  0  0  0  0  0  0  0  0
   10.8724    8.7460    3.3917 H   0  0  0  0  0  0  0  0  0  0  0  0
   10.4914    6.3689    4.3908 H   0  0  0  0  0  0  0  0  0  0  0  0
    8.3164    5.3300    3.2668 H   0  0  0  0  0  0  0  0  0  0  0  0
    7.1153    7.3009    1.9037 H   0  0  0  0  0  0  0  0  0  0  0  0
    7.6624    7.8929    3.5266 H   0  0  0  0  0  0  0  0  0  0  0  0
   10.2425    5.2029    1.2692 H   0  0  0  0  0  0  0  0  0  0  0  0
  1  2  2  3
  2  3  1  0
  3  4  2  0
  3  5  1  0
  5  6  2  0
  6  7  1  0
  6  8  1  0
  8  9  1  0
  8 10  2  0
 10 11  1  0
 10 12  1  0
 12 13  1  0
 12 14  2  0
 14 15  1  0
 15 16  2  3
 16 17  1  0
 17 18  3  0
 16 19  1  0
 19 20  3  0
  1 21  1  0
 21 22  2  0
 22 23  1  0
 23 24  2  0
 24 25  1  0
 25 26  2  0
 26 27  1  0
 27 28  2  0
 28 29  1  0
 29 30  1  0
 22 31  1  0
 31 32  1  0
 32 33  1  0
 33 34  1  0
 34 35  1  0
 35 36  1  0
 36 37  2  0
 37 38  1  0
 38 39  1  0
 36 40  1  0
 40 41  1  0
 41 42  1  0
 42 43  1  0
 43 44  1  0
 44 45  1  0
 45 46  2  0
 46 47  1  0
 47 48  1  0
 46 49  1  0
 49 50  2  0
 50 51  1  0
 51 52  2  0
 44 53  2  0
 53 54  1  0
 54 55  1  0
 55 56  1  0
 56 57  1  0
 57 58  1  0
 58 59  1  0
 59 60  1  0
 60 61  1  0
 61 62  1  0
 62 63  1  0
 60 64  1  0
 64 65  1  0
 57 66  1  0
 66 67  1  0
 53 68  1  0
 68 69  2  3
 69 70  1  0
 70 71  2  0
 70 72  1  0
 72 73  2  0
 73 74  1  0
 74 75  2  0
 75 76  1  0
 76 77  2  0
 77 78  1  0
 78 79  2  3
 79 80  1  0
 80 81  3  0
 79 82  1  0
 82 83  3  0
 75 84  1  0
 84 85  1  0
 85 86  1  0
 86 87  2  0
 87 88  1  0
 88 89  1  0
 88 90  1  0
 15  2  1  0
 63 21  1  0
 78 69  1  0
 90 84  1  0
 14  5  1  0
 28 23  1  0
 62 31  2  0
 77 72  1  0
 89 85  1  0
 61 33  2  0
 90 74  1  0
 59 34  2  0
 39 35  2  0
 58 40  2  0
 56 41  2  0
 55 43  2  0
 52 45  1  0
  1 91  1  0
 24 92  1  0
 25 93  1  0
 26 94  1  0
 27 95  1  0
 29 96  1  0
 29 97  1  0
 30 98  1  0
 30 99  1  0
 30100  1  0
 47101  1  0
 47102  1  0
 48103  1  0
 48104  1  0
 48105  1  0
 49106  1  0
 50107  1  0
 51108  1  0
 52109  1  0
 64110  1  0
 64111  1  0
 65112  1  0
 65113  1  0
 65114  1  0
 66115  1  0
 66116  1  0
 67117  1  0
 67118  1  0
 67119  1  0
 68120  1  0
 73121  1  0
 76122  1  0
 84123  1  0
 85124  1  0
 86125  1  0
 87126  1  0
 88127  1  0
 89128  1  0
 89129  1  0
 90130  1  0
M  END

