
     RDKit          3D

117130  0  0  0  0  0  0  0  0999 V2000
   -3.9488   -5.2735   -1.7536 C   0  0  0  0  0  0  0  0  0  0  0  0
   -4.7791   -4.3983   -1.1541 C   0  0  0  0  0  0  0  0  0  0  0  0
   -4.4811   -2.9916   -0.8456 C   0  0  0  0  0  0  0  0  0  0  0  0
   -3.5498   -2.3012   -1.3386 O   0  0  0  0  0  0  0  0  0  0  0  0
   -5.4381   -2.5261    0.1442 C   0  0  0  0  0  0  0  0  0  0  0  0
   -5.4174   -1.3400    0.8867 C   0  0  0  0  0  0  0  0  0  0  0  0
   -4.2526   -0.0667    0.5217 Cl  0  0  0  0  0  0  0  0  0  0  0  0
   -6.3190   -1.2054    1.9610 C   0  0  0  0  0  0  0  0  0  0  0  0
   -6.3473    0.2904    2.8969 Cl  0  0  0  0  0  0  0  0  0  0  0  0
   -7.1564   -2.2855    2.3212 C   0  0  0  0  0  0  0  0  0  0  0  0
   -8.1899   -2.1510    3.7463 Cl  0  0  0  0  0  0  0  0  0  0  0  0
   -7.1330   -3.4878    1.5782 C   0  0  0  0  0  0  0  0  0  0  0  0
   -7.9158   -4.9242    2.2346 Cl  0  0  0  0  0  0  0  0  0  0  0  0
   -6.3320   -3.5515    0.4199 C   0  0  0  0  0  0  0  0  0  0  0  0
   -6.0921   -4.6849   -0.5186 C   0  0  0  0  0  0  0  0  0  0  0  0
   -7.0474   -5.4967   -1.0376 C   0  0  0  0  0  0  0  0  0  0  0  0
   -6.7635   -6.4538   -2.0763 C   0  0  0  0  0  0  0  0  0  0  0  0
   -6.5411   -7.2257   -2.9104 N   0  0  0  0  0  0  0  0  0  0  0  0
   -8.4467   -5.3189   -0.7385 C   0  0  0  0  0  0  0  0  0  0  0  0
   -9.5737   -5.1786   -0.5176 N   0  0  0  0  0  0  0  0  0  0  0  0
   -2.6043   -4.8853   -2.1980 C   0  0  0  0  0  0  0  0  0  0  0  0
   -2.2628   -4.4801   -3.4974 C   0  0  0  0  0  0  0  0  0  0  0  0
   -3.1678   -4.5126   -4.6652 C   0  0  0  0  0  0  0  0  0  0  0  0
   -4.3300   -3.7228   -4.6441 C   0  0  0  0  0  0  0  0  0  0  0  0
   -5.1925   -3.7013   -5.7404 C   0  0  0  0  0  0  0  0  0  0  0  0
   -4.9094   -4.4692   -6.8699 C   0  0  0  0  0  0  0  0  0  0  0  0
   -3.7593   -5.2598   -6.9075 C   0  0  0  0  0  0  0  0  0  0  0  0
   -2.8687   -5.2841   -5.8190 C   0  0  0  0  0  0  0  0  0  0  0  0
   -1.6680   -6.2015   -5.8923 C   0  0  0  0  0  0  0  0  0  0  0  0
   -2.0263   -7.6020   -5.4136 C   0  0  0  0  0  0  0  0  0  0  0  0
   -1.0203   -3.8426   -3.5077 C   0  0  0  0  0  0  0  0  0  0  0  0
   -0.3712   -2.7215   -4.6029 S   0  0  0  0  0  0  0  0  0  0  0  0
    0.7904   -2.2100   -3.4784 C   0  0  0  0  0  0  0  0  0  0  0  0
    1.3426   -0.9831   -3.2274 C   0  0  0  0  0  0  0  0  0  0  0  0
    1.2188    0.1979   -3.9756 C   0  0  0  0  0  0  0  0  0  0  0  0
    1.4322    1.4494   -3.3298 C   0  0  0  0  0  0  0  0  0  0  0  0
    1.2467    2.5696   -4.0724 N   0  0  0  0  0  0  0  0  0  0  0  0
    0.8055    1.8773   -5.5095 S   0  0  0  0  0  0  0  0  0  0  0  0
    0.8265    0.2391   -5.2730 N   0  0  0  0  0  0  0  0  0  0  0  0
    1.8101    1.4505   -1.9872 C   0  0  0  0  0  0  0  0  0  0  0  0
    2.1025    2.4701   -1.1308 C   0  0  0  0  0  0  0  0  0  0  0  0
    2.1256    4.1677   -1.0787 S   0  0  0  0  0  0  0  0  0  0  0  0
    2.7382    4.1235    0.5169 C   0  0  0  0  0  0  0  0  0  0  0  0
    3.0297    5.1041    1.4616 C   0  0  0  0  0  0  0  0  0  0  0  0
    2.7090    6.5297    1.2719 C   0  0  0  0  0  0  0  0  0  0  0  0
    3.6539    7.4594    0.7710 C   0  0  0  0  0  0  0  0  0  0  0  0
    5.0773    7.0703    0.4595 C   0  0  0  0  0  0  0  0  0  0  0  0
    5.9936    7.3925    1.6390 C   0  0  0  0  0  0  0  0  0  0  0  0
    3.2703    8.8022    0.6047 C   0  0  0  0  0  0  0  0  0  0  0  0
    1.9714    9.2161    0.9145 C   0  0  0  0  0  0  0  0  0  0  0  0
    1.0436    8.2984    1.4024 C   0  0  0  0  0  0  0  0  0  0  0  0
    1.4074    6.9602    1.5772 C   0  0  0  0  0  0  0  0  0  0  0  0
    3.4820    4.5307    2.6684 C   0  0  0  0  0  0  0  0  0  0  0  0
    3.4202    2.8242    2.5471 S   0  0  0  0  0  0  0  0  0  0  0  0
    2.9162    2.8398    0.9557 C   0  0  0  0  0  0  0  0  0  0  0  0
    2.5346    1.9005    0.0163 C   0  0  0  0  0  0  0  0  0  0  0  0
    2.5729    0.5473   -0.0265 N   0  0  0  0  0  0  0  0  0  0  0  0
    2.0239    0.2683   -1.2585 C   0  0  0  0  0  0  0  0  0  0  0  0
    1.6536   -0.9685   -1.8543 C   0  0  0  0  0  0  0  0  0  0  0  0
    1.1809   -2.1106   -1.2516 N   0  0  0  0  0  0  0  0  0  0  0  0
    0.6599   -2.8415   -2.2738 C   0  0  0  0  0  0  0  0  0  0  0  0
   -0.3794   -3.7750   -2.2937 C   0  0  0  0  0  0  0  0  0  0  0  0
   -1.3547   -4.4711   -1.1208 S   0  0  0  0  0  0  0  0  0  0  0  0
    0.8571   -2.3229    0.1672 C   0  0  0  0  0  0  0  0  0  0  0  0
   -0.3106   -1.4438    0.6131 C   0  0  0  0  0  0  0  0  0  0  0  0
    3.5113   -0.2444    0.7912 C   0  0  0  0  0  0  0  0  0  0  0  0
    4.3345   -1.2350   -0.0381 C   0  0  0  0  0  0  0  0  0  0  0  0
    3.7617    5.2894    3.9051 C   0  0  0  0  0  0  0  0  0  0  0  0
    4.4532    4.8332    4.9654 C   0  0  0  0  0  0  0  0  0  0  0  0
    4.2488    5.3612    6.3159 C   0  0  0  0  0  0  0  0  0  0  0  0
    3.7127    6.4629    6.6090 O   0  0  0  0  0  0  0  0  0  0  0  0
    4.6611    4.3464    7.2662 C   0  0  0  0  0  0  0  0  0  0  0  0
    4.4762    4.3233    8.6484 C   0  0  0  0  0  0  0  0  0  0  0  0
    4.8166    3.1576    9.3475 C   0  0  0  0  0  0  0  0  0  0  0  0
    4.5814    3.0794   11.2411 Br  0  0  0  0  0  0  0  0  0  0  0  0
    5.3126    2.0366    8.6554 C   0  0  0  0  0  0  0  0  0  0  0  0
    5.4817    2.0792    7.2605 C   0  0  0  0  0  0  0  0  0  0  0  0
    5.1775    3.2631    6.5771 C   0  0  0  0  0  0  0  0  0  0  0  0
    5.2383    3.5720    5.1246 C   0  0  0  0  0  0  0  0  0  0  0  0
    6.1884    3.1158    4.2742 C   0  0  0  0  0  0  0  0  0  0  0  0
    6.4712    3.7653    3.0192 C   0  0  0  0  0  0  0  0  0  0  0  0
    6.7037    4.2772    2.0093 N   0  0  0  0  0  0  0  0  0  0  0  0
    7.0691    2.0276    4.6165 C   0  0  0  0  0  0  0  0  0  0  0  0
    7.7825    1.1569    4.8850 N   0  0  0  0  0  0  0  0  0  0  0  0
   -4.2133   -6.3144   -1.8517 H   0  0  0  0  0  0  0  0  0  0  0  0
   -4.5592   -3.1076   -3.7847 H   0  0  0  0  0  0  0  0  0  0  0  0
   -6.0814   -3.0839   -5.7170 H   0  0  0  0  0  0  0  0  0  0  0  0
   -5.5828   -4.4538   -7.7182 H   0  0  0  0  0  0  0  0  0  0  0  0
   -3.5621   -5.8578   -7.7881 H   0  0  0  0  0  0  0  0  0  0  0  0
   -0.8227   -5.8178   -5.2907 H   0  0  0  0  0  0  0  0  0  0  0  0
   -1.3019   -6.2579   -6.9393 H   0  0  0  0  0  0  0  0  0  0  0  0
   -1.1360   -8.2611   -5.4962 H   0  0  0  0  0  0  0  0  0  0  0  0
   -2.3537   -7.5754   -4.3527 H   0  0  0  0  0  0  0  0  0  0  0  0
   -2.8423   -8.0277   -6.0359 H   0  0  0  0  0  0  0  0  0  0  0  0
    5.1590    5.9902    0.2126 H   0  0  0  0  0  0  0  0  0  0  0  0
    5.4320    7.6268   -0.4350 H   0  0  0  0  0  0  0  0  0  0  0  0
    5.9675    8.4793    1.8610 H   0  0  0  0  0  0  0  0  0  0  0  0
    7.0349    7.1061    1.3876 H   0  0  0  0  0  0  0  0  0  0  0  0
    5.6750    6.8331    2.5397 H   0  0  0  0  0  0  0  0  0  0  0  0
    3.9786    9.5317    0.2368 H   0  0  0  0  0  0  0  0  0  0  0  0
    1.6864   10.2503    0.7773 H   0  0  0  0  0  0  0  0  0  0  0  0
    0.0380    8.6213    1.6430 H   0  0  0  0  0  0  0  0  0  0  0  0
    0.6729    6.2597    1.9555 H   0  0  0  0  0  0  0  0  0  0  0  0
    1.7312   -2.1507    0.7976 H   0  0  0  0  0  0  0  0  0  0  0  0
    0.6154   -3.3872    0.3530 H   0  0  0  0  0  0  0  0  0  0  0  0
   -0.0524   -0.3728    0.5122 H   0  0  0  0  0  0  0  0  0  0  0  0
   -1.2069   -1.6591    0.0000 H   0  0  0  0  0  0  0  0  0  0  0  0
   -0.5436   -1.6498    1.6788 H   0  0  0  0  0  0  0  0  0  0  0  0
    4.2565    0.4357    1.2562 H   0  0  0  0  0  0  0  0  0  0  0  0
    2.9957   -0.7200    1.6461 H   0  0  0  0  0  0  0  0  0  0  0  0
    3.7172   -2.0829   -0.3869 H   0  0  0  0  0  0  0  0  0  0  0  0
    5.1535   -1.6547    0.5857 H   0  0  0  0  0  0  0  0  0  0  0  0
    4.7772   -0.7231   -0.9173 H   0  0  0  0  0  0  0  0  0  0  0  0
    3.2586    6.2443    4.0021 H   0  0  0  0  0  0  0  0  0  0  0  0
    4.0486    5.1763    9.1634 H   0  0  0  0  0  0  0  0  0  0  0  0
    5.5494    1.1285    9.1947 H   0  0  0  0  0  0  0  0  0  0  0  0
    5.8097    1.1903    6.7408 H   0  0  0  0  0  0  0  0  0  0  0  0
  1  2  2  3
  2  3  1  0
  3  4  2  0
  3  5  1  0
  5  6  2  0
  6  7  1  0
  6  8  1  0
  8  9  1  0
  8 10  2  0
 10 11  1  0
 10 12  1  0
 12 13  1  0
 12 14  2  0
 14 15  1  0
 15 16  2  3
 16 17  1  0
 17 18  3  0
 16 19  1  0
 19 20  3  0
  1 21  1  0
 21 22  2  0
 22 23  1  0
 23 24  2  0
 24 25  1  0
 25 26  2  0
 26 27  1  0
 27 28  2  0
 28 29  1  0
 29 30  1  0
 22 31  1  0
 31 32  1  0
 32 33  1  0
 33 34  1  0
 34 35  1  0
 35 36  1  0
 36 37  2  0
 37 38  1  0
 38 39  1  0
 36 40  1  0
 40 41  1  0
 41 42  1  0
 42 43  1  0
 43 44  1  0
 44 45  1  0
 45 46  2  0
 46 47  1  0
 47 48  1  0
 46 49  1  0
 49 50  2  0
 50 51  1  0
 51 52  2  0
 44 53  2  0
 53 54  1  0
 54 55  1  0
 55 56  1  0
 56 57  1  0
 57 58  1  0
 58 59  1  0
 59 60  1  0
 60 61  1  0
 61 62  1  0
 62 63  1  0
 60 64  1  0
 64 65  1  0
 57 66  1  0
 66 67  1  0
 53 68  1  0
 68 69  2  3
 69 70  1  0
 70 71  2  0
 70 72  1  0
 72 73  2  0
 73 74  1  0
 74 75  1  0
 74 76  2  0
 76 77  1  0
 77 78  2  0
 78 79  1  0
 79 80  2  3
 80 81  1  0
 81 82  3  0
 80 83  1  0
 83 84  3  0
 15  2  1  0
 63 21  1  0
 79 69  1  0
 14  5  1  0
 28 23  1  0
 62 31  2  0
 78 72  1  0
 61 33  2  0
 59 34  2  0
 39 35  2  0
 58 40  2  0
 56 41  2  0
 55 43  2  0
 52 45  1  0
  1 85  1  0
 24 86  1  0
 25 87  1  0
 26 88  1  0
 27 89  1  0
 29 90  1  0
 29 91  1  0
 30 92  1  0
 30 93  1  0
 30 94  1  0
 47 95  1  0
 47 96  1  0
 48 97  1  0
 48 98  1  0
 48 99  1  0
 49100  1  0
 50101  1  0
 51102  1  0
 52103  1  0
 64104  1  0
 64105  1  0
 65106  1  0
 65107  1  0
 65108  1  0
 66109  1  0
 66110  1  0
 67111  1  0
 67112  1  0
 67113  1  0
 68114  1  0
 73115  1  0
 76116  1  0
 77117  1  0
M  END

