
     RDKit          3D

 88 99  0  0  0  0  0  0  0  0999 V2000
   -0.1242    5.7064    5.6173 C   0  0  0  0  0  0  0  0  0  0  0  0
   -0.2220    4.8229    6.5817 C   0  0  0  0  0  0  0  0  0  0  0  0
    0.4687    3.5334    6.6433 C   0  0  0  0  0  0  0  0  0  0  0  0
    1.3951    3.2169    5.7982 O   0  0  0  0  0  0  0  0  0  0  0  0
    0.0093    2.7342    7.7104 C   0  0  0  0  0  0  0  0  0  0  0  0
    0.3720    1.4790    8.1148 C   0  0  0  0  0  0  0  0  0  0  0  0
    1.6422    0.6105    7.2135 Cl  0  0  0  0  0  0  0  0  0  0  0  0
   -0.1848    0.8474    9.1761 C   0  0  0  0  0  0  0  0  0  0  0  0
    0.2710   -0.7487    9.6722 Cl  0  0  0  0  0  0  0  0  0  0  0  0
   -1.1641    1.5382    9.8652 C   0  0  0  0  0  0  0  0  0  0  0  0
   -1.9258    0.7459   11.2267 Cl  0  0  0  0  0  0  0  0  0  0  0  0
   -1.5428    2.8198    9.4634 C   0  0  0  0  0  0  0  0  0  0  0  0
   -2.7428    3.5510   10.4679 Cl  0  0  0  0  0  0  0  0  0  0  0  0
   -0.9834    3.4423    8.3962 C   0  0  0  0  0  0  0  0  0  0  0  0
   -1.1826    4.7759    7.7309 C   0  0  0  0  0  0  0  0  0  0  0  0
   -2.0220    5.6806    7.9981 C   0  0  0  0  0  0  0  0  0  0  0  0
   -2.1695    6.9342    7.1988 C   0  0  0  0  0  0  0  0  0  0  0  0
   -2.2645    7.8955    6.5970 N   0  0  0  0  0  0  0  0  0  0  0  0
   -3.0898    5.7909    9.0019 C   0  0  0  0  0  0  0  0  0  0  0  0
   -3.9290    5.8890    9.7822 N   0  0  0  0  0  0  0  0  0  0  0  0
    0.7498    5.2936    4.5192 C   0  0  0  0  0  0  0  0  0  0  0  0
    1.8571    5.5984    3.8727 C   0  0  0  0  0  0  0  0  0  0  0  0
    2.2998    4.9204    2.7936 C   0  0  0  0  0  0  0  0  0  0  0  0
    3.7253    5.1128    1.7208 S   0  0  0  0  0  0  0  0  0  0  0  0
    3.3736    3.7929    0.6452 C   0  0  0  0  0  0  0  0  0  0  0  0
    3.7405    3.0982   -0.4805 C   0  0  0  0  0  0  0  0  0  0  0  0
    4.7779    3.3576   -1.3855 C   0  0  0  0  0  0  0  0  0  0  0  0
    4.8281    2.6170   -2.5255 C   0  0  0  0  0  0  0  0  0  0  0  0
    5.8398    2.9048   -3.3667 N   0  0  0  0  0  0  0  0  0  0  0  0
    6.6721    4.1411   -2.6123 S   0  0  0  0  0  0  0  0  0  0  0  0
    5.7272    4.2762   -1.2380 N   0  0  0  0  0  0  0  0  0  0  0  0
    3.8662    1.6275   -2.7380 C   0  0  0  0  0  0  0  0  0  0  0  0
    3.6646    0.7615   -3.7839 C   0  0  0  0  0  0  0  0  0  0  0  0
    2.5878   -0.0321   -3.5448 C   0  0  0  0  0  0  0  0  0  0  0  0
    2.1229    0.3667   -2.2854 N   0  0  0  0  0  0  0  0  0  0  0  0
    1.2293   -0.4881   -1.5654 C   0  0  0  0  0  0  0  0  0  0  0  0
    2.2143   -1.5217   -0.8395 C   0  0  0  0  0  0  0  0  0  0  0  0
    2.8677    1.3662   -1.8201 C   0  0  0  0  0  0  0  0  0  0  0  0
    2.7629    2.1339   -0.6536 C   0  0  0  0  0  0  0  0  0  0  0  0
    1.8441    2.2392    0.2995 N   0  0  0  0  0  0  0  0  0  0  0  0
    2.2129    3.2840    1.1547 C   0  0  0  0  0  0  0  0  0  0  0  0
    1.8283    3.9305    2.1841 C   0  0  0  0  0  0  0  0  0  0  0  0
    0.0771    3.7193    3.4815 Se  0  0  0  0  0  2  0  0  0  0  0  0
    0.4841    1.7776    0.3981 C   0  0  0  0  0  0  0  0  0  0  0  0
   -0.4274    3.0876    0.1585 C   0  0  0  0  0  0  0  0  0  0  0  0
    2.2970   -0.8033   -4.5303 C   0  0  0  0  0  0  0  0  0  0  0  0
    2.8537   -0.9313   -5.6594 C   0  0  0  0  0  0  0  0  0  0  0  0
    4.1426    0.2945   -5.3884 S   0  0  0  0  0  0  0  0  0  0  0  0
    2.4873   -1.6576   -6.7427 C   0  0  0  0  0  0  0  0  0  0  0  0
    1.4066   -2.4028   -6.8118 C   0  0  0  0  0  0  0  0  0  0  0  0
    0.6734   -2.0860   -4.9797 Se  0  0  0  0  0  2  0  0  0  0  0  0
    0.5452   -3.1759   -7.6682 C   0  0  0  0  0  0  0  0  0  0  0  0
   -0.0153   -4.3102   -7.2921 C   0  0  0  0  0  0  0  0  0  0  0  0
    0.1023   -5.0231   -6.0573 C   0  0  0  0  0  0  0  0  0  0  0  0
    1.0210   -4.8741   -5.1884 O   0  0  0  0  0  0  0  0  0  0  0  0
   -0.9838   -5.9700   -5.9094 C   0  0  0  0  0  0  0  0  0  0  0  0
   -1.2642   -6.8920   -4.8966 C   0  0  0  0  0  0  0  0  0  0  0  0
   -2.3625   -7.7258   -4.9952 C   0  0  0  0  0  0  0  0  0  0  0  0
   -2.6399   -8.7152   -3.9091 C   0  0  0  0  0  0  0  0  0  0  0  0
   -3.1655   -7.6388   -6.0940 C   0  0  0  0  0  0  0  0  0  0  0  0
   -2.8719   -6.7126   -7.0979 C   0  0  0  0  0  0  0  0  0  0  0  0
   -1.7977   -5.8861   -7.0110 C   0  0  0  0  0  0  0  0  0  0  0  0
   -1.2458   -4.8374   -7.9612 C   0  0  0  0  0  0  0  0  0  0  0  0
   -1.7055   -4.6510   -9.0760 C   0  0  0  0  0  0  0  0  0  0  0  0
   -1.1417   -3.8236  -10.2514 C   0  0  0  0  0  0  0  0  0  0  0  0
   -0.7430   -3.2483  -11.0481 N   0  0  0  0  0  0  0  0  0  0  0  0
   -3.0660   -5.0095   -9.4736 C   0  0  0  0  0  0  0  0  0  0  0  0
   -4.1968   -5.3234   -9.8197 N   0  0  0  0  0  0  0  0  0  0  0  0
   -0.5950    6.6272    5.5843 H   0  0  0  0  0  0  0  0  0  0  0  0
    2.4200    6.5101    4.3103 H   0  0  0  0  0  0  0  0  0  0  0  0
    0.5876   -0.2590   -0.8152 H   0  0  0  0  0  0  0  0  0  0  0  0
    0.7362   -1.2384   -2.2900 H   0  0  0  0  0  0  0  0  0  0  0  0
    2.7277   -0.8938   -0.0879 H   0  0  0  0  0  0  0  0  0  0  0  0
    2.8756   -1.9141   -1.6196 H   0  0  0  0  0  0  0  0  0  0  0  0
    1.5702   -2.2520   -0.3657 H   0  0  0  0  0  0  0  0  0  0  0  0
   -0.0145    1.1491   -0.2274 H   0  0  0  0  0  0  0  0  0  0  0  0
    0.2514    1.6087    1.5097 H   0  0  0  0  0  0  0  0  0  0  0  0
   -1.3612    2.9484    0.7026 H   0  0  0  0  0  0  0  0  0  0  0  0
    0.1504    3.9443    0.4671 H   0  0  0  0  0  0  0  0  0  0  0  0
   -0.6456    3.0695   -0.9232 H   0  0  0  0  0  0  0  0  0  0  0  0
    3.1190   -1.6758   -7.7073 H   0  0  0  0  0  0  0  0  0  0  0  0
    0.3688   -2.8044   -8.6433 H   0  0  0  0  0  0  0  0  0  0  0  0
   -0.6464   -6.9338   -4.0374 H   0  0  0  0  0  0  0  0  0  0  0  0
   -1.7343   -9.0443   -3.3740 H   0  0  0  0  0  0  0  0  0  0  0  0
   -3.3238   -8.3172   -3.1438 H   0  0  0  0  0  0  0  0  0  0  0  0
   -3.1237   -9.6313   -4.3298 H   0  0  0  0  0  0  0  0  0  0  0  0
   -4.0186   -8.2760   -6.2067 H   0  0  0  0  0  0  0  0  0  0  0  0
   -3.5559   -6.7417   -7.9187 H   0  0  0  0  0  0  0  0  0  0  0  0
  1  2  2  3
  2  3  1  0
  3  4  2  0
  3  5  1  0
  5  6  2  0
  6  7  1  0
  6  8  1  0
  8  9  1  0
  8 10  2  0
 10 11  1  0
 10 12  1  0
 12 13  1  0
 12 14  2  0
 14 15  1  0
 15 16  2  3
 16 17  1  0
 17 18  3  0
 16 19  1  0
 19 20  3  0
  1 21  1  0
 21 22  2  0
 22 23  1  0
 23 24  1  0
 24 25  1  0
 25 26  1  0
 26 27  1  0
 27 28  1  0
 28 29  2  0
 29 30  1  0
 30 31  1  0
 28 32  1  0
 32 33  1  0
 33 34  2  0
 34 35  1  0
 35 36  1  0
 36 37  1  0
 35 38  1  0
 38 39  1  0
 39 40  1  0
 40 41  1  0
 41 42  1  0
 42 43  1  0
 40 44  1  0
 44 45  1  0
 34 46  1  0
 46 47  2  0
 47 48  1  0
 47 49  1  0
 49 50  2  0
 50 51  1  0
 50 52  1  0
 52 53  2  3
 53 54  1  0
 54 55  2  0
 54 56  1  0
 56 57  2  0
 57 58  1  0
 58 59  1  0
 58 60  2  0
 60 61  1  0
 61 62  2  0
 62 63  1  0
 63 64  2  3
 64 65  1  0
 65 66  3  0
 64 67  1  0
 67 68  3  0
 15  2  1  0
 43 21  1  0
 51 46  1  0
 63 53  1  0
 14  5  1  0
 42 23  2  0
 62 56  1  0
 41 25  2  0
 39 26  2  0
 31 27  2  0
 38 32  2  0
 48 33  1  0
  1 69  1  0
 22 70  1  0
 36 71  1  0
 36 72  1  0
 37 73  1  0
 37 74  1  0
 37 75  1  0
 44 76  1  0
 44 77  1  0
 45 78  1  0
 45 79  1  0
 45 80  1  0
 49 81  1  0
 52 82  1  0
 57 83  1  0
 59 84  1  0
 59 85  1  0
 59 86  1  0
 60 87  1  0
 61 88  1  0
M  END

