
     RDKit          3D

117130  0  0  0  0  0  0  0  0999 V2000
    2.2664    1.7886    6.9235 C   0  0  0  0  0  0  0  0  0  0  0  0
    1.8494    1.8312    8.2063 C   0  0  0  0  0  0  0  0  0  0  0  0
    0.4993    1.4723    8.6464 C   0  0  0  0  0  0  0  0  0  0  0  0
   -0.5324    1.4821    7.9244 O   0  0  0  0  0  0  0  0  0  0  0  0
    0.5203    1.2191   10.0722 C   0  0  0  0  0  0  0  0  0  0  0  0
   -0.5253    0.7890   10.8952 C   0  0  0  0  0  0  0  0  0  0  0  0
   -2.0811    0.3244   10.2089 Cl  0  0  0  0  0  0  0  0  0  0  0  0
   -0.2990    0.7257   12.2828 C   0  0  0  0  0  0  0  0  0  0  0  0
   -1.5734    0.1353   13.3517 Cl  0  0  0  0  0  0  0  0  0  0  0  0
    0.9271    1.1821   12.8199 C   0  0  0  0  0  0  0  0  0  0  0  0
    1.1490    1.2198   14.5693 Cl  0  0  0  0  0  0  0  0  0  0  0  0
    1.9557    1.6381   11.9669 C   0  0  0  0  0  0  0  0  0  0  0  0
    3.3068    2.5283   12.6658 Cl  0  0  0  0  0  0  0  0  0  0  0  0
    1.7732    1.5349   10.5707 C   0  0  0  0  0  0  0  0  0  0  0  0
    2.6912    1.8852    9.4436 C   0  0  0  0  0  0  0  0  0  0  0  0
    4.0465    1.8277    9.4731 C   0  0  0  0  0  0  0  0  0  0  0  0
    4.8739    2.4361    8.4646 C   0  0  0  0  0  0  0  0  0  0  0  0
    5.5505    2.9287    7.6625 N   0  0  0  0  0  0  0  0  0  0  0  0
    4.7495    1.0602   10.4688 C   0  0  0  0  0  0  0  0  0  0  0  0
    5.3270    0.4347   11.2555 N   0  0  0  0  0  0  0  0  0  0  0  0
    1.4946    1.1347    5.8449 C   0  0  0  0  0  0  0  0  0  0  0  0
    0.9655   -0.1789    5.8663 C   0  0  0  0  0  0  0  0  0  0  0  0
    1.0347   -1.1084    7.0179 C   0  0  0  0  0  0  0  0  0  0  0  0
   -0.1350   -1.7097    7.5049 C   0  0  0  0  0  0  0  0  0  0  0  0
   -0.1080   -2.4386    8.6978 C   0  0  0  0  0  0  0  0  0  0  0  0
    1.0901   -2.5779    9.4156 C   0  0  0  0  0  0  0  0  0  0  0  0
    1.1055   -3.3191   10.7250 C   0  0  0  0  0  0  0  0  0  0  0  0
    1.2217   -4.8233   10.4988 C   0  0  0  0  0  0  0  0  0  0  0  0
    2.2745   -2.0398    8.8899 C   0  0  0  0  0  0  0  0  0  0  0  0
    2.2467   -1.3109    7.6985 C   0  0  0  0  0  0  0  0  0  0  0  0
    0.4019   -0.4997    4.6295 C   0  0  0  0  0  0  0  0  0  0  0  0
   -0.3502   -1.9026    4.0161 S   0  0  0  0  0  0  0  0  0  0  0  0
   -0.4760   -1.1869    2.4839 C   0  0  0  0  0  0  0  0  0  0  0  0
   -1.0596   -1.4348    1.2793 C   0  0  0  0  0  0  0  0  0  0  0  0
   -1.8636   -2.4954    0.8508 C   0  0  0  0  0  0  0  0  0  0  0  0
   -2.4451   -2.4296   -0.4473 C   0  0  0  0  0  0  0  0  0  0  0  0
   -3.2081   -3.4845   -0.8360 N   0  0  0  0  0  0  0  0  0  0  0  0
   -3.1021   -4.4189    0.5304 S   0  0  0  0  0  0  0  0  0  0  0  0
   -2.1425   -3.5912    1.5990 N   0  0  0  0  0  0  0  0  0  0  0  0
   -2.1716   -1.3177   -1.2511 C   0  0  0  0  0  0  0  0  0  0  0  0
   -2.4246   -1.0974   -2.5702 C   0  0  0  0  0  0  0  0  0  0  0  0
   -3.0777   -1.9382   -3.8906 S   0  0  0  0  0  0  0  0  0  0  0  0
   -2.4627   -0.7702   -4.9745 C   0  0  0  0  0  0  0  0  0  0  0  0
   -2.5100   -0.6181   -6.3644 C   0  0  0  0  0  0  0  0  0  0  0  0
   -3.1673   -1.5603   -7.2991 C   0  0  0  0  0  0  0  0  0  0  0  0
   -4.4380   -2.0896   -7.0162 C   0  0  0  0  0  0  0  0  0  0  0  0
   -5.0507   -2.9749   -7.9097 C   0  0  0  0  0  0  0  0  0  0  0  0
   -4.4090   -3.3337   -9.1063 C   0  0  0  0  0  0  0  0  0  0  0  0
   -5.0607   -4.2906  -10.0694 C   0  0  0  0  0  0  0  0  0  0  0  0
   -4.4754   -5.6917   -9.9282 C   0  0  0  0  0  0  0  0  0  0  0  0
   -3.1330   -2.8185   -9.3827 C   0  0  0  0  0  0  0  0  0  0  0  0
   -2.5174   -1.9436   -8.4849 C   0  0  0  0  0  0  0  0  0  0  0  0
   -1.8005    0.5325   -6.7609 C   0  0  0  0  0  0  0  0  0  0  0  0
   -1.1436    1.3219   -5.3986 S   0  0  0  0  0  0  0  0  0  0  0  0
   -1.7353    0.1877   -4.3123 C   0  0  0  0  0  0  0  0  0  0  0  0
   -1.7201   -0.0016   -2.9367 C   0  0  0  0  0  0  0  0  0  0  0  0
   -0.9792    0.5190   -1.9212 N   0  0  0  0  0  0  0  0  0  0  0  0
   -1.3269   -0.2653   -0.8409 C   0  0  0  0  0  0  0  0  0  0  0  0
   -0.8185   -0.2906    0.4947 C   0  0  0  0  0  0  0  0  0  0  0  0
   -0.1861    0.6789    1.2404 N   0  0  0  0  0  0  0  0  0  0  0  0
    0.0256    0.0680    2.4353 C   0  0  0  0  0  0  0  0  0  0  0  0
    0.5111    0.4774    3.6690 C   0  0  0  0  0  0  0  0  0  0  0  0
    1.3006    1.8154    4.2964 S   0  0  0  0  0  0  0  0  0  0  0  0
   -0.2392    2.1344    1.0610 C   0  0  0  0  0  0  0  0  0  0  0  0
    1.1608    2.7313    0.8776 C   0  0  0  0  0  0  0  0  0  0  0  0
    0.2871    1.2300   -2.1472 C   0  0  0  0  0  0  0  0  0  0  0  0
    1.4809    0.2911   -1.9886 C   0  0  0  0  0  0  0  0  0  0  0  0
   -1.8623    1.1292   -8.1040 C   0  0  0  0  0  0  0  0  0  0  0  0
   -0.7816    1.3580   -8.8746 C   0  0  0  0  0  0  0  0  0  0  0  0
    0.5878    0.9293   -8.5629 C   0  0  0  0  0  0  0  0  0  0  0  0
    0.9659    0.3656   -7.5003 O   0  0  0  0  0  0  0  0  0  0  0  0
    1.4441    1.2358   -9.6961 C   0  0  0  0  0  0  0  0  0  0  0  0
    2.8264    1.0546   -9.8227 C   0  0  0  0  0  0  0  0  0  0  0  0
    3.7432    0.2186   -8.5713 Cl  0  0  0  0  0  0  0  0  0  0  0  0
    3.4692    1.5693  -10.9643 C   0  0  0  0  0  0  0  0  0  0  0  0
    5.2044    1.3316  -11.1814 Cl  0  0  0  0  0  0  0  0  0  0  0  0
    2.7378    2.3247  -11.9071 C   0  0  0  0  0  0  0  0  0  0  0  0
    3.5781    3.0755  -13.2674 Cl  0  0  0  0  0  0  0  0  0  0  0  0
    1.3480    2.5194  -11.7397 C   0  0  0  0  0  0  0  0  0  0  0  0
    0.5430    3.7601  -12.7003 Cl  0  0  0  0  0  0  0  0  0  0  0  0
    0.6924    1.8572  -10.6791 C   0  0  0  0  0  0  0  0  0  0  0  0
   -0.7443    1.8713  -10.2811 C   0  0  0  0  0  0  0  0  0  0  0  0
   -1.8025    1.9793  -11.1291 C   0  0  0  0  0  0  0  0  0  0  0  0
   -3.1412    2.2731  -10.6905 C   0  0  0  0  0  0  0  0  0  0  0  0
   -4.2227    2.5142  -10.3549 N   0  0  0  0  0  0  0  0  0  0  0  0
   -1.6670    1.7088  -12.5386 C   0  0  0  0  0  0  0  0  0  0  0  0
   -1.5744    1.4844  -13.6721 N   0  0  0  0  0  0  0  0  0  0  0  0
    3.2475    2.1182    6.6404 H   0  0  0  0  0  0  0  0  0  0  0  0
   -1.0791   -1.5621    6.9974 H   0  0  0  0  0  0  0  0  0  0  0  0
   -1.0268   -2.8642    9.0796 H   0  0  0  0  0  0  0  0  0  0  0  0
    0.1713   -3.1053   11.2890 H   0  0  0  0  0  0  0  0  0  0  0  0
    1.9575   -2.9779   11.3540 H   0  0  0  0  0  0  0  0  0  0  0  0
    2.1585   -5.0586    9.9498 H   0  0  0  0  0  0  0  0  0  0  0  0
    0.3504   -5.1930    9.9151 H   0  0  0  0  0  0  0  0  0  0  0  0
    1.2426   -5.3452   11.4789 H   0  0  0  0  0  0  0  0  0  0  0  0
    3.2119   -2.1640    9.4138 H   0  0  0  0  0  0  0  0  0  0  0  0
    3.1646   -0.8762    7.3272 H   0  0  0  0  0  0  0  0  0  0  0  0
   -4.9634   -1.8080   -6.1146 H   0  0  0  0  0  0  0  0  0  0  0  0
   -6.0278   -3.3734   -7.6701 H   0  0  0  0  0  0  0  0  0  0  0  0
   -6.1572   -4.3333   -9.8924 H   0  0  0  0  0  0  0  0  0  0  0  0
   -4.9083   -3.9315  -11.1095 H   0  0  0  0  0  0  0  0  0  0  0  0
   -4.9812   -6.3802  -10.6381 H   0  0  0  0  0  0  0  0  0  0  0  0
   -3.3875   -5.6831  -10.1593 H   0  0  0  0  0  0  0  0  0  0  0  0
   -4.6261   -6.0726   -8.8971 H   0  0  0  0  0  0  0  0  0  0  0  0
   -2.6154   -3.0990  -10.2910 H   0  0  0  0  0  0  0  0  0  0  0  0
   -1.5257   -1.5757   -8.7130 H   0  0  0  0  0  0  0  0  0  0  0  0
   -0.9017    2.3933    0.2118 H   0  0  0  0  0  0  0  0  0  0  0  0
   -0.7151    2.6018    1.9491 H   0  0  0  0  0  0  0  0  0  0  0  0
    1.6476    2.9142    1.8520 H   0  0  0  0  0  0  0  0  0  0  0  0
    1.8151    2.0586    0.2917 H   0  0  0  0  0  0  0  0  0  0  0  0
    1.0805    3.7086    0.3560 H   0  0  0  0  0  0  0  0  0  0  0  0
    0.3768    2.1087   -1.5023 H   0  0  0  0  0  0  0  0  0  0  0  0
    0.3213    1.6515   -3.1664 H   0  0  0  0  0  0  0  0  0  0  0  0
    1.3621   -0.5866   -2.6580 H   0  0  0  0  0  0  0  0  0  0  0  0
    1.5657   -0.0658   -0.9419 H   0  0  0  0  0  0  0  0  0  0  0  0
    2.4159    0.8230   -2.2577 H   0  0  0  0  0  0  0  0  0  0  0  0
   -2.8563    1.3026   -8.4656 H   0  0  0  0  0  0  0  0  0  0  0  0
  1  2  2  3
  2  3  1  0
  3  4  2  0
  3  5  1  0
  5  6  2  0
  6  7  1  0
  6  8  1  0
  8  9  1  0
  8 10  2  0
 10 11  1  0
 10 12  1  0
 12 13  1  0
 12 14  2  0
 14 15  1  0
 15 16  2  3
 16 17  1  0
 17 18  3  0
 16 19  1  0
 19 20  3  0
  1 21  1  0
 21 22  2  0
 22 23  1  0
 23 24  2  0
 24 25  1  0
 25 26  2  0
 26 27  1  0
 27 28  1  0
 26 29  1  0
 29 30  2  0
 22 31  1  0
 31 32  1  0
 32 33  1  0
 33 34  1  0
 34 35  1  0
 35 36  1  0
 36 37  2  0
 37 38  1  0
 38 39  1  0
 36 40  1  0
 40 41  1  0
 41 42  1  0
 42 43  1  0
 43 44  1  0
 44 45  1  0
 45 46  2  0
 46 47  1  0
 47 48  2  0
 48 49  1  0
 49 50  1  0
 48 51  1  0
 51 52  2  0
 44 53  2  0
 53 54  1  0
 54 55  1  0
 55 56  1  0
 56 57  1  0
 57 58  1  0
 58 59  1  0
 59 60  1  0
 60 61  1  0
 61 62  1  0
 62 63  1  0
 60 64  1  0
 64 65  1  0
 57 66  1  0
 66 67  1  0
 53 68  1  0
 68 69  2  3
 69 70  1  0
 70 71  2  0
 70 72  1  0
 72 73  2  0
 73 74  1  0
 73 75  1  0
 75 76  1  0
 75 77  2  0
 77 78  1  0
 77 79  1  0
 79 80  1  0
 79 81  2  0
 81 82  1  0
 82 83  2  3
 83 84  1  0
 84 85  3  0
 83 86  1  0
 86 87  3  0
 15  2  1  0
 63 21  1  0
 82 69  1  0
 14  5  1  0
 30 23  1  0
 62 31  2  0
 81 72  1  0
 61 33  2  0
 59 34  2  0
 39 35  2  0
 58 40  2  0
 56 41  2  0
 55 43  2  0
 52 45  1  0
  1 88  1  0
 24 89  1  0
 25 90  1  0
 27 91  1  0
 27 92  1  0
 28 93  1  0
 28 94  1  0
 28 95  1  0
 29 96  1  0
 30 97  1  0
 46 98  1  0
 47 99  1  0
 49100  1  0
 49101  1  0
 50102  1  0
 50103  1  0
 50104  1  0
 51105  1  0
 52106  1  0
 64107  1  0
 64108  1  0
 65109  1  0
 65110  1  0
 65111  1  0
 66112  1  0
 66113  1  0
 67114  1  0
 67115  1  0
 67116  1  0
 68117  1  0
M  END

