
     RDKit          3D

117130  0  0  0  0  0  0  0  0999 V2000
   -2.5658    1.1796    7.3812 C   0  0  0  0  0  0  0  0  0  0  0  0
   -3.3109    2.2877    7.1854 C   0  0  0  0  0  0  0  0  0  0  0  0
   -3.2648    3.1817    6.0171 C   0  0  0  0  0  0  0  0  0  0  0  0
   -2.4821    3.0808    5.0374 O   0  0  0  0  0  0  0  0  0  0  0  0
   -4.1126    4.3349    6.2777 C   0  0  0  0  0  0  0  0  0  0  0  0
   -4.2996    5.4814    5.4943 C   0  0  0  0  0  0  0  0  0  0  0  0
   -3.6936    5.5541    3.8400 Cl  0  0  0  0  0  0  0  0  0  0  0  0
   -4.9850    6.5756    6.0596 C   0  0  0  0  0  0  0  0  0  0  0  0
   -5.2554    8.0305    5.0999 Cl  0  0  0  0  0  0  0  0  0  0  0  0
   -5.3952    6.5325    7.4103 C   0  0  0  0  0  0  0  0  0  0  0  0
   -6.1307    7.9582    8.1510 Cl  0  0  0  0  0  0  0  0  0  0  0  0
   -5.1835    5.3702    8.1830 C   0  0  0  0  0  0  0  0  0  0  0  0
   -5.4014    5.4461    9.9339 Cl  0  0  0  0  0  0  0  0  0  0  0  0
   -4.6260    4.2353    7.5576 C   0  0  0  0  0  0  0  0  0  0  0  0
   -4.2773    2.9104    8.1385 C   0  0  0  0  0  0  0  0  0  0  0  0
   -5.0398    2.2329    9.0323 C   0  0  0  0  0  0  0  0  0  0  0  0
   -4.5982    1.0254    9.6849 C   0  0  0  0  0  0  0  0  0  0  0  0
   -4.2436    0.0697   10.2409 N   0  0  0  0  0  0  0  0  0  0  0  0
   -6.3928    2.6362    9.3281 C   0  0  0  0  0  0  0  0  0  0  0  0
   -7.4819    2.9508    9.5642 N   0  0  0  0  0  0  0  0  0  0  0  0
   -1.7691    0.5112    6.3355 C   0  0  0  0  0  0  0  0  0  0  0  0
   -0.4929   -0.0421    6.5304 C   0  0  0  0  0  0  0  0  0  0  0  0
    0.2735    0.0698    7.7858 C   0  0  0  0  0  0  0  0  0  0  0  0
   -0.0390   -0.8184    8.8273 C   0  0  0  0  0  0  0  0  0  0  0  0
    0.5988   -0.7119   10.0640 C   0  0  0  0  0  0  0  0  0  0  0  0
    1.5481    0.2870   10.2783 C   0  0  0  0  0  0  0  0  0  0  0  0
    1.8692    1.1780    9.2526 C   0  0  0  0  0  0  0  0  0  0  0  0
    1.2450    1.0841    7.9950 C   0  0  0  0  0  0  0  0  0  0  0  0
    1.6288    2.0780    6.9203 C   0  0  0  0  0  0  0  0  0  0  0  0
    3.0543    1.8387    6.4262 C   0  0  0  0  0  0  0  0  0  0  0  0
   -0.0198   -0.6441    5.3625 C   0  0  0  0  0  0  0  0  0  0  0  0
    1.5051   -1.2321    4.8921 S   0  0  0  0  0  0  0  0  0  0  0  0
    0.9642   -1.4712    3.3014 C   0  0  0  0  0  0  0  0  0  0  0  0
    1.5582   -1.4730    2.0709 C   0  0  0  0  0  0  0  0  0  0  0  0
    2.9177   -1.4120    1.7429 C   0  0  0  0  0  0  0  0  0  0  0  0
    3.2889   -1.0490    0.4197 C   0  0  0  0  0  0  0  0  0  0  0  0
    4.6163   -0.9722    0.1483 N   0  0  0  0  0  0  0  0  0  0  0  0
    5.2302   -1.3637    1.6360 S   0  0  0  0  0  0  0  0  0  0  0  0
    3.9274   -1.6297    2.6235 N   0  0  0  0  0  0  0  0  0  0  0  0
    2.2794   -0.8027   -0.5135 C   0  0  0  0  0  0  0  0  0  0  0  0
    2.3463   -0.5437   -1.8481 C   0  0  0  0  0  0  0  0  0  0  0  0
    3.5217   -0.4354   -3.0670 S   0  0  0  0  0  0  0  0  0  0  0  0
    2.3015   -0.3967   -4.2576 C   0  0  0  0  0  0  0  0  0  0  0  0
    2.3290   -0.3427   -5.6489 C   0  0  0  0  0  0  0  0  0  0  0  0
    3.5632   -0.3340   -6.4516 C   0  0  0  0  0  0  0  0  0  0  0  0
    4.2702   -1.5288   -6.7410 C   0  0  0  0  0  0  0  0  0  0  0  0
    3.7728   -2.8867   -6.2957 C   0  0  0  0  0  0  0  0  0  0  0  0
    3.0325   -3.5910   -7.4297 C   0  0  0  0  0  0  0  0  0  0  0  0
    5.4299   -1.4614   -7.5320 C   0  0  0  0  0  0  0  0  0  0  0  0
    5.8843   -0.2363   -8.0246 C   0  0  0  0  0  0  0  0  0  0  0  0
    5.1882    0.9376   -7.7335 C   0  0  0  0  0  0  0  0  0  0  0  0
    4.0342    0.8897   -6.9489 C   0  0  0  0  0  0  0  0  0  0  0  0
    1.0346   -0.4098   -6.1841 C   0  0  0  0  0  0  0  0  0  0  0  0
   -0.1125   -0.5043   -4.9211 S   0  0  0  0  0  0  0  0  0  0  0  0
    1.0488   -0.5023   -3.7107 C   0  0  0  0  0  0  0  0  0  0  0  0
    1.0799   -0.5841   -2.3251 C   0  0  0  0  0  0  0  0  0  0  0  0
    0.1587   -0.8900   -1.3724 N   0  0  0  0  0  0  0  0  0  0  0  0
    0.9101   -0.9324   -0.2149 C   0  0  0  0  0  0  0  0  0  0  0  0
    0.5394   -1.1740    1.1439 C   0  0  0  0  0  0  0  0  0  0  0  0
   -0.6299   -0.8812    1.8082 N   0  0  0  0  0  0  0  0  0  0  0  0
   -0.3260   -1.0858    3.1189 C   0  0  0  0  0  0  0  0  0  0  0  0
   -0.8877   -0.6079    4.2994 C   0  0  0  0  0  0  0  0  0  0  0  0
   -2.2974    0.1846    4.7462 S   0  0  0  0  0  0  0  0  0  0  0  0
   -1.7634   -0.0703    1.3470 C   0  0  0  0  0  0  0  0  0  0  0  0
   -1.3481    1.3774    1.1121 C   0  0  0  0  0  0  0  0  0  0  0  0
   -1.1117   -1.5679   -1.6877 C   0  0  0  0  0  0  0  0  0  0  0  0
   -1.2787   -2.8922   -0.9359 C   0  0  0  0  0  0  0  0  0  0  0  0
    0.7154   -0.2621   -7.6136 C   0  0  0  0  0  0  0  0  0  0  0  0
   -0.1027   -1.0789   -8.3003 C   0  0  0  0  0  0  0  0  0  0  0  0
   -0.6002   -2.3907   -7.8725 C   0  0  0  0  0  0  0  0  0  0  0  0
   -0.5270   -2.8698   -6.7098 O   0  0  0  0  0  0  0  0  0  0  0  0
   -1.0516   -3.1144   -9.0532 C   0  0  0  0  0  0  0  0  0  0  0  0
   -1.4820   -4.4429   -9.1554 C   0  0  0  0  0  0  0  0  0  0  0  0
   -1.7494   -5.4179   -7.7107 Cl  0  0  0  0  0  0  0  0  0  0  0  0
   -1.6859   -4.9825  -10.4403 C   0  0  0  0  0  0  0  0  0  0  0  0
   -2.2612   -6.6414  -10.6123 Cl  0  0  0  0  0  0  0  0  0  0  0  0
   -1.3700   -4.2184  -11.5880 C   0  0  0  0  0  0  0  0  0  0  0  0
   -1.5211   -4.9450  -13.1917 Cl  0  0  0  0  0  0  0  0  0  0  0  0
   -0.8983   -2.8937  -11.4572 C   0  0  0  0  0  0  0  0  0  0  0  0
   -0.1689   -2.0940  -12.8502 Cl  0  0  0  0  0  0  0  0  0  0  0  0
   -0.8539   -2.3171  -10.1721 C   0  0  0  0  0  0  0  0  0  0  0  0
   -0.4368   -0.9543   -9.7431 C   0  0  0  0  0  0  0  0  0  0  0  0
   -0.7770    0.2120  -10.3528 C   0  0  0  0  0  0  0  0  0  0  0  0
   -0.5783    1.4870   -9.7083 C   0  0  0  0  0  0  0  0  0  0  0  0
   -0.4358    2.5051   -9.1811 N   0  0  0  0  0  0  0  0  0  0  0  0
   -1.5946    0.2484  -11.5353 C   0  0  0  0  0  0  0  0  0  0  0  0
   -2.2679    0.2878  -12.4779 N   0  0  0  0  0  0  0  0  0  0  0  0
   -2.4903    0.7576    8.3686 H   0  0  0  0  0  0  0  0  0  0  0  0
   -0.7869   -1.5877    8.6853 H   0  0  0  0  0  0  0  0  0  0  0  0
    0.3501   -1.3985   10.8633 H   0  0  0  0  0  0  0  0  0  0  0  0
    2.0389    0.3700   11.2408 H   0  0  0  0  0  0  0  0  0  0  0  0
    2.6019    1.9507    9.4412 H   0  0  0  0  0  0  0  0  0  0  0  0
    0.9375    2.0355    6.0504 H   0  0  0  0  0  0  0  0  0  0  0  0
    1.5549    3.1086    7.3336 H   0  0  0  0  0  0  0  0  0  0  0  0
    3.7854    2.0703    7.2280 H   0  0  0  0  0  0  0  0  0  0  0  0
    3.2643    2.5006    5.5595 H   0  0  0  0  0  0  0  0  0  0  0  0
    3.1865    0.7861    6.1154 H   0  0  0  0  0  0  0  0  0  0  0  0
    4.6314   -3.5138   -5.9758 H   0  0  0  0  0  0  0  0  0  0  0  0
    3.0977   -2.8101   -5.4198 H   0  0  0  0  0  0  0  0  0  0  0  0
    3.7396   -3.8494   -8.2459 H   0  0  0  0  0  0  0  0  0  0  0  0
    2.2344   -2.9370   -7.8339 H   0  0  0  0  0  0  0  0  0  0  0  0
    2.5684   -4.5221   -7.0478 H   0  0  0  0  0  0  0  0  0  0  0  0
    5.9710   -2.3654   -7.7783 H   0  0  0  0  0  0  0  0  0  0  0  0
    6.7758   -0.1987   -8.6340 H   0  0  0  0  0  0  0  0  0  0  0  0
    5.5434    1.8874   -8.1130 H   0  0  0  0  0  0  0  0  0  0  0  0
    3.4990    1.8083   -6.7342 H   0  0  0  0  0  0  0  0  0  0  0  0
   -2.2144   -0.4942    0.4496 H   0  0  0  0  0  0  0  0  0  0  0  0
   -2.5825   -0.0993    2.0857 H   0  0  0  0  0  0  0  0  0  0  0  0
   -2.2465    1.9954    0.9033 H   0  0  0  0  0  0  0  0  0  0  0  0
   -0.6625    1.4481    0.2400 H   0  0  0  0  0  0  0  0  0  0  0  0
   -0.8356    1.7799    2.0171 H   0  0  0  0  0  0  0  0  0  0  0  0
   -1.9719   -0.8863   -1.5715 H   0  0  0  0  0  0  0  0  0  0  0  0
   -1.1330   -1.8422   -2.7596 H   0  0  0  0  0  0  0  0  0  0  0  0
   -1.4955   -2.7298    0.1357 H   0  0  0  0  0  0  0  0  0  0  0  0
   -0.3601   -3.5073   -1.0386 H   0  0  0  0  0  0  0  0  0  0  0  0
   -2.1306   -3.4583   -1.3641 H   0  0  0  0  0  0  0  0  0  0  0  0
    1.2512    0.5089   -8.1480 H   0  0  0  0  0  0  0  0  0  0  0  0
  1  2  2  3
  2  3  1  0
  3  4  2  0
  3  5  1  0
  5  6  2  0
  6  7  1  0
  6  8  1  0
  8  9  1  0
  8 10  2  0
 10 11  1  0
 10 12  1  0
 12 13  1  0
 12 14  2  0
 14 15  1  0
 15 16  2  3
 16 17  1  0
 17 18  3  0
 16 19  1  0
 19 20  3  0
  1 21  1  0
 21 22  2  0
 22 23  1  0
 23 24  2  0
 24 25  1  0
 25 26  2  0
 26 27  1  0
 27 28  2  0
 28 29  1  0
 29 30  1  0
 22 31  1  0
 31 32  1  0
 32 33  1  0
 33 34  1  0
 34 35  1  0
 35 36  1  0
 36 37  2  0
 37 38  1  0
 38 39  1  0
 36 40  1  0
 40 41  1  0
 41 42  1  0
 42 43  1  0
 43 44  1  0
 44 45  1  0
 45 46  2  0
 46 47  1  0
 47 48  1  0
 46 49  1  0
 49 50  2  0
 50 51  1  0
 51 52  2  0
 44 53  2  0
 53 54  1  0
 54 55  1  0
 55 56  1  0
 56 57  1  0
 57 58  1  0
 58 59  1  0
 59 60  1  0
 60 61  1  0
 61 62  1  0
 62 63  1  0
 60 64  1  0
 64 65  1  0
 57 66  1  0
 66 67  1  0
 53 68  1  0
 68 69  2  3
 69 70  1  0
 70 71  2  0
 70 72  1  0
 72 73  2  0
 73 74  1  0
 73 75  1  0
 75 76  1  0
 75 77  2  0
 77 78  1  0
 77 79  1  0
 79 80  1  0
 79 81  2  0
 81 82  1  0
 82 83  2  3
 83 84  1  0
 84 85  3  0
 83 86  1  0
 86 87  3  0
 15  2  1  0
 63 21  1  0
 82 69  1  0
 14  5  1  0
 28 23  1  0
 62 31  2  0
 81 72  1  0
 61 33  2  0
 59 34  2  0
 39 35  2  0
 58 40  2  0
 56 41  2  0
 55 43  2  0
 52 45  1  0
  1 88  1  0
 24 89  1  0
 25 90  1  0
 26 91  1  0
 27 92  1  0
 29 93  1  0
 29 94  1  0
 30 95  1  0
 30 96  1  0
 30 97  1  0
 47 98  1  0
 47 99  1  0
 48100  1  0
 48101  1  0
 48102  1  0
 49103  1  0
 50104  1  0
 51105  1  0
 52106  1  0
 64107  1  0
 64108  1  0
 65109  1  0
 65110  1  0
 65111  1  0
 66112  1  0
 66113  1  0
 67114  1  0
 67115  1  0
 67116  1  0
 68117  1  0
M  END

