
     RDKit          3D

130146  0  0  0  0  0  0  0  0999 V2000
   -1.1658   -1.7574    6.4325 C   0  0  0  0  0  0  0  0  0  0  0  0
   -1.0246   -3.0148    6.8798 C   0  0  0  0  0  0  0  0  0  0  0  0
   -0.5307   -3.4731    8.2143 C   0  0  0  0  0  0  0  0  0  0  0  0
    0.1842   -2.7353    8.9632 O   0  0  0  0  0  0  0  0  0  0  0  0
   -1.1213   -4.8165    8.4960 C   0  0  0  0  0  0  0  0  0  0  0  0
   -0.8185   -5.6756    9.6455 C   0  0  0  0  0  0  0  0  0  0  0  0
    0.3164   -5.1735   10.9963 Cl  0  0  0  0  0  0  0  0  0  0  0  0
   -1.4231   -6.9466    9.6630 C   0  0  0  0  0  0  0  0  0  0  0  0
   -1.1434   -8.0882   10.9687 Cl  0  0  0  0  0  0  0  0  0  0  0  0
   -2.2443   -7.4261    8.5745 C   0  0  0  0  0  0  0  0  0  0  0  0
   -3.0182   -9.0326    8.5034 Cl  0  0  0  0  0  0  0  0  0  0  0  0
   -2.5121   -6.5579    7.4579 C   0  0  0  0  0  0  0  0  0  0  0  0
   -3.2918   -7.2441    6.0261 Cl  0  0  0  0  0  0  0  0  0  0  0  0
   -1.9903   -5.2025    7.5316 C   0  0  0  0  0  0  0  0  0  0  0  0
   -2.0520   -4.1433    6.4162 C   0  0  0  0  0  0  0  0  0  0  0  0
   -2.8650   -4.2260    5.3922 C   0  0  0  0  0  0  0  0  0  0  0  0
   -2.6328   -3.5910    4.1475 C   0  0  0  0  0  0  0  0  0  0  0  0
   -2.5436   -2.9299    3.1974 N   0  0  0  0  0  0  0  0  0  0  0  0
   -4.3124   -4.4924    5.6569 C   0  0  0  0  0  0  0  0  0  0  0  0
   -5.4330   -4.4801    5.9933 N   0  0  0  0  0  0  0  0  0  0  0  0
   -0.1304   -0.9321    5.7605 C   0  0  0  0  0  0  0  0  0  0  0  0
    0.3523    0.3145    6.2588 C   0  0  0  0  0  0  0  0  0  0  0  0
   -0.0246    0.7365    7.6322 C   0  0  0  0  0  0  0  0  0  0  0  0
    0.9265    0.9387    8.6557 C   0  0  0  0  0  0  0  0  0  0  0  0
    0.5198    1.0163    9.9868 C   0  0  0  0  0  0  0  0  0  0  0  0
   -0.8760    0.8582   10.3719 C   0  0  0  0  0  0  0  0  0  0  0  0
   -1.2778    0.8732   11.8046 C   0  0  0  0  0  0  0  0  0  0  0  0
   -1.2635    2.2751   12.3902 C   0  0  0  0  0  0  0  0  0  0  0  0
   -1.8339    0.6878    9.3677 C   0  0  0  0  0  0  0  0  0  0  0  0
   -1.4040    0.6622    8.0255 C   0  0  0  0  0  0  0  0  0  0  0  0
    0.7779    1.1795    5.2549 C   0  0  0  0  0  0  0  0  0  0  0  0
    1.4495    2.7777    5.1252 S   0  0  0  0  0  0  0  0  0  0  0  0
    1.4190    2.7853    3.3953 C   0  0  0  0  0  0  0  0  0  0  0  0
    1.7035    3.4677    2.1988 C   0  0  0  0  0  0  0  0  0  0  0  0
    2.4004    4.6520    1.9656 C   0  0  0  0  0  0  0  0  0  0  0  0
    2.6597    5.0470    0.6233 C   0  0  0  0  0  0  0  0  0  0  0  0
    3.3972    6.2066    0.4902 N   0  0  0  0  0  0  0  0  0  0  0  0
    3.6407    6.6089    2.0548 S   0  0  0  0  0  0  0  0  0  0  0  0
    2.8866    5.4362    2.9475 N   0  0  0  0  0  0  0  0  0  0  0  0
    2.2343    4.3322   -0.4500 C   0  0  0  0  0  0  0  0  0  0  0  0
    2.3737    4.4631   -1.8571 C   0  0  0  0  0  0  0  0  0  0  0  0
    3.1302    5.3601   -3.1601 S   0  0  0  0  0  0  0  0  0  0  0  0
    2.2795    4.4737   -4.3987 C   0  0  0  0  0  0  0  0  0  0  0  0
    2.2440    4.3134   -5.8120 C   0  0  0  0  0  0  0  0  0  0  0  0
    3.3896    4.6766   -6.7647 C   0  0  0  0  0  0  0  0  0  0  0  0
    3.7890    6.0026   -7.0384 C   0  0  0  0  0  0  0  0  0  0  0  0
    4.8166    6.2820   -8.0094 C   0  0  0  0  0  0  0  0  0  0  0  0
    5.4191    5.1720   -8.6960 C   0  0  0  0  0  0  0  0  0  0  0  0
    6.6134    5.3505   -9.6170 C   0  0  0  0  0  0  0  0  0  0  0  0
    6.2657    5.1015  -11.0885 C   0  0  0  0  0  0  0  0  0  0  0  0
    4.9954    3.8749   -8.4266 C   0  0  0  0  0  0  0  0  0  0  0  0
    3.9830    3.6055   -7.4457 C   0  0  0  0  0  0  0  0  0  0  0  0
    1.1680    3.5108   -6.2126 C   0  0  0  0  0  0  0  0  0  0  0  0
    0.2090    3.1561   -4.9091 S   0  0  0  0  0  0  0  0  0  0  0  0
    1.3171    3.6999   -3.7602 C   0  0  0  0  0  0  0  0  0  0  0  0
    1.5257    3.5989   -2.4384 C   0  0  0  0  0  0  0  0  0  0  0  0
    0.8816    2.8094   -1.4619 N   0  0  0  0  0  0  0  0  0  0  0  0
    1.3644    3.2001   -0.2524 C   0  0  0  0  0  0  0  0  0  0  0  0
    1.1668    2.7290    1.1104 C   0  0  0  0  0  0  0  0  0  0  0  0
    0.6024    1.5504    1.6748 N   0  0  0  0  0  0  0  0  0  0  0  0
    0.8173    1.6330    2.9991 C   0  0  0  0  0  0  0  0  0  0  0  0
    0.5328    0.7477    3.9946 C   0  0  0  0  0  0  0  0  0  0  0  0
   -0.1276   -0.8232    4.0919 S   0  0  0  0  0  0  0  0  0  0  0  0
   -0.1120    0.4194    1.0816 C   0  0  0  0  0  0  0  0  0  0  0  0
   -1.6227    0.6078    1.3237 C   0  0  0  0  0  0  0  0  0  0  0  0
   -0.2972    2.0172   -1.8249 C   0  0  0  0  0  0  0  0  0  0  0  0
   -1.5540    2.7996   -1.4561 C   0  0  0  0  0  0  0  0  0  0  0  0
    0.9028    2.7389   -7.4799 C   0  0  0  0  0  0  0  0  0  0  0  0
    0.8164    1.4087   -7.5330 C   0  0  0  0  0  0  0  0  0  0  0  0
    1.4147    0.4937   -6.5426 C   0  0  0  0  0  0  0  0  0  0  0  0
    2.4918    0.6669   -5.9203 O   0  0  0  0  0  0  0  0  0  0  0  0
    0.4936   -0.6499   -6.3105 C   0  0  0  0  0  0  0  0  0  0  0  0
    0.5583   -1.4561   -5.1392 C   0  0  0  0  0  0  0  0  0  0  0  0
   -0.4048   -2.4406   -5.1791 C   0  0  0  0  0  0  0  0  0  0  0  0
   -1.3806   -2.5729   -6.2453 C   0  0  0  0  0  0  0  0  0  0  0  0
   -1.5046   -1.7099   -7.3290 C   0  0  0  0  0  0  0  0  0  0  0  0
   -0.5106   -0.6245   -7.2967 C   0  0  0  0  0  0  0  0  0  0  0  0
   -0.4058    0.6484   -8.1347 C   0  0  0  0  0  0  0  0  0  0  0  0
   -1.2331    0.9653   -9.1480 C   0  0  0  0  0  0  0  0  0  0  0  0
   -1.2309    2.2174   -9.9424 C   0  0  0  0  0  0  0  0  0  0  0  0
   -1.3167    3.1407  -10.6037 N   0  0  0  0  0  0  0  0  0  0  0  0
   -2.3056    0.0717   -9.6395 C   0  0  0  0  0  0  0  0  0  0  0  0
   -3.1571   -0.5900  -10.0737 N   0  0  0  0  0  0  0  0  0  0  0  0
   -1.9243   -3.8117   -5.6032 C   0  0  0  0  0  0  0  0  0  0  0  0
   -1.5303   -5.1807   -6.2436 C   0  0  0  0  0  0  0  0  0  0  0  0
   -1.8380   -6.2203   -5.1834 C   0  0  0  0  0  0  0  0  0  0  0  0
   -0.8960   -6.0922   -4.2350 C   0  0  0  0  0  0  0  0  0  0  0  0
   -0.0311   -4.9391   -4.6453 C   0  0  0  0  0  0  0  0  0  0  0  0
   -0.0061   -5.2063   -6.1420 C   0  0  0  0  0  0  0  0  0  0  0  0
   -0.9436   -3.6838   -4.5179 C   0  0  0  0  0  0  0  0  0  0  0  0
   -2.0809   -1.2700    6.0140 H   0  0  0  0  0  0  0  0  0  0  0  0
    2.0116    0.9601    8.4249 H   0  0  0  0  0  0  0  0  0  0  0  0
    1.2546    1.1669   10.7669 H   0  0  0  0  0  0  0  0  0  0  0  0
   -2.3053    0.4454   11.9005 H   0  0  0  0  0  0  0  0  0  0  0  0
   -0.6012    0.2340   12.3844 H   0  0  0  0  0  0  0  0  0  0  0  0
   -0.4719    2.9026   11.9299 H   0  0  0  0  0  0  0  0  0  0  0  0
   -1.0802    2.2083   13.4754 H   0  0  0  0  0  0  0  0  0  0  0  0
   -2.2403    2.7815   12.2100 H   0  0  0  0  0  0  0  0  0  0  0  0
   -2.9423    0.5129    9.6210 H   0  0  0  0  0  0  0  0  0  0  0  0
   -2.1839    0.4558    7.2897 H   0  0  0  0  0  0  0  0  0  0  0  0
    3.3181    6.8263   -6.5552 H   0  0  0  0  0  0  0  0  0  0  0  0
    5.1457    7.3101   -8.1886 H   0  0  0  0  0  0  0  0  0  0  0  0
    7.1003    6.3405   -9.4887 H   0  0  0  0  0  0  0  0  0  0  0  0
    7.3782    4.5960   -9.3228 H   0  0  0  0  0  0  0  0  0  0  0  0
    5.4657    4.3331  -11.2080 H   0  0  0  0  0  0  0  0  0  0  0  0
    5.9281    6.0467  -11.5549 H   0  0  0  0  0  0  0  0  0  0  0  0
    7.1648    4.7583  -11.6449 H   0  0  0  0  0  0  0  0  0  0  0  0
    5.4513    2.9911   -8.9007 H   0  0  0  0  0  0  0  0  0  0  0  0
    3.7188    2.5450   -7.2988 H   0  0  0  0  0  0  0  0  0  0  0  0
    0.1967   -0.5411    1.5589 H   0  0  0  0  0  0  0  0  0  0  0  0
    0.2640    0.0135    0.1565 H   0  0  0  0  0  0  0  0  0  0  0  0
   -1.7972    1.0194    2.3547 H   0  0  0  0  0  0  0  0  0  0  0  0
   -2.1648   -0.3768    1.2356 H   0  0  0  0  0  0  0  0  0  0  0  0
   -2.0701    1.3328    0.6165 H   0  0  0  0  0  0  0  0  0  0  0  0
   -0.3827    1.6410   -2.8955 H   0  0  0  0  0  0  0  0  0  0  0  0
   -0.3447    0.9729   -1.5692 H   0  0  0  0  0  0  0  0  0  0  0  0
   -2.4362    2.1001   -1.4607 H   0  0  0  0  0  0  0  0  0  0  0  0
   -1.4328    3.2737   -0.4376 H   0  0  0  0  0  0  0  0  0  0  0  0
   -1.7234    3.5801   -2.2544 H   0  0  0  0  0  0  0  0  0  0  0  0
    0.3686    3.3282   -8.1843 H   0  0  0  0  0  0  0  0  0  0  0  0
    1.3671   -1.3976   -4.3576 H   0  0  0  0  0  0  0  0  0  0  0  0
   -2.3282   -1.8120   -7.9975 H   0  0  0  0  0  0  0  0  0  0  0  0
   -2.9946   -3.7321   -5.2839 H   0  0  0  0  0  0  0  0  0  0  0  0
   -1.9486   -5.4169   -7.2335 H   0  0  0  0  0  0  0  0  0  0  0  0
   -2.6879   -6.9021   -5.1035 H   0  0  0  0  0  0  0  0  0  0  0  0
   -0.7781   -6.7280   -3.3584 H   0  0  0  0  0  0  0  0  0  0  0  0
    0.9539   -4.8631   -4.1535 H   0  0  0  0  0  0  0  0  0  0  0  0
    0.4643   -6.1828   -6.4171 H   0  0  0  0  0  0  0  0  0  0  0  0
    0.4968   -4.4327   -6.7394 H   0  0  0  0  0  0  0  0  0  0  0  0
   -1.3771   -3.4502   -3.5271 H   0  0  0  0  0  0  0  0  0  0  0  0
  1  2  2  3
  2  3  1  0
  3  4  2  0
  3  5  1  0
  5  6  2  0
  6  7  1  0
  6  8  1  0
  8  9  1  0
  8 10  2  0
 10 11  1  0
 10 12  1  0
 12 13  1  0
 12 14  2  0
 14 15  1  0
 15 16  2  3
 16 17  1  0
 17 18  3  0
 16 19  1  0
 19 20  3  0
  1 21  1  0
 21 22  2  0
 22 23  1  0
 23 24  2  0
 24 25  1  0
 25 26  2  0
 26 27  1  0
 27 28  1  0
 26 29  1  0
 29 30  2  0
 22 31  1  0
 31 32  1  0
 32 33  1  0
 33 34  1  0
 34 35  1  0
 35 36  1  0
 36 37  2  0
 37 38  1  0
 38 39  1  0
 36 40  1  0
 40 41  1  0
 41 42  1  0
 42 43  1  0
 43 44  1  0
 44 45  1  0
 45 46  2  0
 46 47  1  0
 47 48  2  0
 48 49  1  0
 49 50  1  0
 48 51  1  0
 51 52  2  0
 44 53  2  0
 53 54  1  0
 54 55  1  0
 55 56  1  0
 56 57  1  0
 57 58  1  0
 58 59  1  0
 59 60  1  0
 60 61  1  0
 61 62  1  0
 62 63  1  0
 60 64  1  0
 64 65  1  0
 57 66  1  0
 66 67  1  0
 53 68  1  0
 68 69  2  3
 69 70  1  0
 70 71  2  0
 70 72  1  0
 72 73  2  0
 73 74  1  0
 74 75  2  0
 75 76  1  0
 76 77  2  0
 77 78  1  0
 78 79  2  3
 79 80  1  0
 80 81  3  0
 79 82  1  0
 82 83  3  0
 75 84  1  0
 84 85  1  0
 85 86  1  0
 86 87  2  0
 87 88  1  0
 88 89  1  0
 88 90  1  0
 15  2  1  0
 63 21  1  0
 78 69  1  0
 90 84  1  0
 14  5  1  0
 30 23  1  0
 62 31  2  0
 77 72  1  0
 89 85  1  0
 61 33  2  0
 90 74  1  0
 59 34  2  0
 39 35  2  0
 58 40  2  0
 56 41  2  0
 55 43  2  0
 52 45  1  0
  1 91  1  0
 24 92  1  0
 25 93  1  0
 27 94  1  0
 27 95  1  0
 28 96  1  0
 28 97  1  0
 28 98  1  0
 29 99  1  0
 30100  1  0
 46101  1  0
 47102  1  0
 49103  1  0
 49104  1  0
 50105  1  0
 50106  1  0
 50107  1  0
 51108  1  0
 52109  1  0
 64110  1  0
 64111  1  0
 65112  1  0
 65113  1  0
 65114  1  0
 66115  1  0
 66116  1  0
 67117  1  0
 67118  1  0
 67119  1  0
 68120  1  0
 73121  1  0
 76122  1  0
 84123  1  0
 85124  1  0
 86125  1  0
 87126  1  0
 88127  1  0
 89128  1  0
 89129  1  0
 90130  1  0
M  END

