
     RDKit          3D

 85 96  0  0  0  0  0  0  0  0999 V2000
    0.0562    8.2683   -0.3444 C   0  0  0  0  0  0  0  0  0  0  0  0
    0.8639    8.0627    0.8372 C   0  0  0  0  0  0  0  0  0  0  0  0
    1.3252    6.7876    1.2180 C   0  0  0  0  0  0  0  0  0  0  0  0
    1.1707    5.6278    0.7224 O   0  0  0  0  0  0  0  0  0  0  0  0
    2.1167    7.0309    2.4157 C   0  0  0  0  0  0  0  0  0  0  0  0
    2.6918    6.0731    3.2332 C   0  0  0  0  0  0  0  0  0  0  0  0
    2.6776    4.3928    2.8346 Cl  0  0  0  0  0  0  0  0  0  0  0  0
    3.2831    6.4984    4.4292 C   0  0  0  0  0  0  0  0  0  0  0  0
    3.9880    5.2777    5.4717 Cl  0  0  0  0  0  0  0  0  0  0  0  0
    3.2570    7.8042    4.7349 C   0  0  0  0  0  0  0  0  0  0  0  0
    3.9630    8.3951    6.2368 Cl  0  0  0  0  0  0  0  0  0  0  0  0
    2.6359    8.7530    3.8307 C   0  0  0  0  0  0  0  0  0  0  0  0
    2.4474   10.2965    4.6773 Cl  0  0  0  0  0  0  0  0  0  0  0  0
    2.0964    8.3518    2.6967 C   0  0  0  0  0  0  0  0  0  0  0  0
    1.1661    9.1466    1.5173 C   0  0  0  0  0  0  0  0  0  0  0  0
    1.1389   10.3424    2.1551 C   0  0  0  0  0  0  0  0  0  0  0  0
   -0.3659   10.8145    2.0468 C   0  0  0  0  0  0  0  0  0  0  0  0
   -1.3893   11.1499    1.9655 N   0  0  0  0  0  0  0  0  0  0  0  0
    2.1014   11.1523    2.3593 C   0  0  0  0  0  0  0  0  0  0  0  0
    3.0599   11.9667    2.5826 N   0  0  0  0  0  0  0  0  0  0  0  0
   -0.1596    7.0182   -1.0308 C   0  0  0  0  0  0  0  0  0  0  0  0
    0.4867    6.6004   -2.1594 C   0  0  0  0  0  0  0  0  0  0  0  0
    0.3362    5.3200   -2.6040 C   0  0  0  0  0  0  0  0  0  0  0  0
    1.1610    4.3735   -3.8845 S   0  0  0  0  0  0  0  0  0  0  0  0
    0.4617    2.8768   -3.5095 C   0  0  0  0  0  0  0  0  0  0  0  0
    0.5309    1.5069   -3.7608 C   0  0  0  0  0  0  0  0  0  0  0  0
    1.4889    0.8192   -4.5095 C   0  0  0  0  0  0  0  0  0  0  0  0
    1.6856   -0.4860   -4.3441 C   0  0  0  0  0  0  0  0  0  0  0  0
    2.6323   -1.0723   -5.0800 N   0  0  0  0  0  0  0  0  0  0  0  0
    3.2736    0.1567   -6.0223 S   0  0  0  0  0  0  0  0  0  0  0  0
    2.2961    1.3785   -5.4282 N   0  0  0  0  0  0  0  0  0  0  0  0
    0.8784   -1.1259   -3.3990 C   0  0  0  0  0  0  0  0  0  0  0  0
    0.9716   -2.3982   -2.9043 C   0  0  0  0  0  0  0  0  0  0  0  0
   -0.0126   -2.5559   -1.8484 C   0  0  0  0  0  0  0  0  0  0  0  0
   -0.6500   -1.3289   -1.8010 N   0  0  0  0  0  0  0  0  0  0  0  0
   -1.9211   -1.2264   -1.0998 C   0  0  0  0  0  0  0  0  0  0  0  0
   -2.7633   -2.1567   -2.1642 C   0  0  0  0  0  0  0  0  0  0  0  0
   -0.1440   -0.4819   -2.6598 C   0  0  0  0  0  0  0  0  0  0  0  0
   -0.2836    0.9198   -2.8490 C   0  0  0  0  0  0  0  0  0  0  0  0
   -0.8617    1.8778   -2.0437 N   0  0  0  0  0  0  0  0  0  0  0  0
   -0.3715    3.1254   -2.4648 C   0  0  0  0  0  0  0  0  0  0  0  0
   -0.3676    4.4202   -2.0747 C   0  0  0  0  0  0  0  0  0  0  0  0
   -1.1202    5.4750   -0.5107 Se  0  0  0  0  0  2  0  0  0  0  0  0
   -1.7490    1.8480   -0.9586 C   0  0  0  0  0  0  0  0  0  0  0  0
   -3.2071    2.1199   -1.2936 C   0  0  0  0  0  0  0  0  0  0  0  0
    0.3920   -3.7115   -1.5766 C   0  0  0  0  0  0  0  0  0  0  0  0
    0.6816   -4.6618   -1.3100 C   0  0  0  0  0  0  0  0  0  0  0  0
    1.8398   -3.9539   -2.8849 S   0  0  0  0  0  0  0  0  0  0  0  0
    0.9312   -5.8431   -0.8334 C   0  0  0  0  0  0  0  0  0  0  0  0
    0.1845   -6.0936    0.3016 C   0  0  0  0  0  0  0  0  0  0  0  0
   -0.8281   -4.3880    0.4371 Se  0  0  0  0  0  2  0  0  0  0  0  0
    0.1469   -7.1858    1.1747 C   0  0  0  0  0  0  0  0  0  0  0  0
    0.1812   -7.1716    2.5024 C   0  0  0  0  0  0  0  0  0  0  0  0
    0.2544   -5.9701    3.3747 C   0  0  0  0  0  0  0  0  0  0  0  0
    0.0946   -4.8062    2.9802 O   0  0  0  0  0  0  0  0  0  0  0  0
    0.5327   -6.3889    4.7315 C   0  0  0  0  0  0  0  0  0  0  0  0
    0.6980   -5.5926    5.8382 C   0  0  0  0  0  0  0  0  0  0  0  0
    0.9942   -6.1586    7.0971 C   0  0  0  0  0  0  0  0  0  0  0  0
    1.2011   -5.1211    8.4578 Cl  0  0  0  0  0  0  0  0  0  0  0  0
    1.1225   -7.5544    7.1566 C   0  0  0  0  0  0  0  0  0  0  0  0
    1.4836   -8.3260    8.6451 Cl  0  0  0  0  0  0  0  0  0  0  0  0
    0.9477   -8.3300    6.0317 C   0  0  0  0  0  0  0  0  0  0  0  0
    0.6546   -7.7805    4.7915 C   0  0  0  0  0  0  0  0  0  0  0  0
    0.4345   -8.3166    3.4305 C   0  0  0  0  0  0  0  0  0  0  0  0
    0.2659   -9.5506    3.1560 C   0  0  0  0  0  0  0  0  0  0  0  0
    0.5077  -10.6223    3.9797 C   0  0  0  0  0  0  0  0  0  0  0  0
    0.7331  -11.6398    4.7643 N   0  0  0  0  0  0  0  0  0  0  0  0
   -0.2841  -10.0090    1.8374 C   0  0  0  0  0  0  0  0  0  0  0  0
   -0.6876  -10.3672    0.8596 N   0  0  0  0  0  0  0  0  0  0  0  0
   -0.2807    9.1872   -0.6085 H   0  0  0  0  0  0  0  0  0  0  0  0
    1.1359    7.3555   -2.6809 H   0  0  0  0  0  0  0  0  0  0  0  0
   -2.5780   -0.4354   -1.2269 H   0  0  0  0  0  0  0  0  0  0  0  0
   -2.0333   -1.9146   -0.2705 H   0  0  0  0  0  0  0  0  0  0  0  0
   -2.7964   -1.6114   -3.0522 H   0  0  0  0  0  0  0  0  0  0  0  0
   -2.3090   -3.1108   -2.1716 H   0  0  0  0  0  0  0  0  0  0  0  0
   -3.7643   -2.2157   -1.6666 H   0  0  0  0  0  0  0  0  0  0  0  0
   -1.7688    1.0896   -0.2152 H   0  0  0  0  0  0  0  0  0  0  0  0
   -1.5384    2.8188   -0.2885 H   0  0  0  0  0  0  0  0  0  0  0  0
   -3.8810    1.2987   -1.0316 H   0  0  0  0  0  0  0  0  0  0  0  0
   -3.6489    2.9844   -0.6788 H   0  0  0  0  0  0  0  0  0  0  0  0
   -3.3205    2.3249   -2.3569 H   0  0  0  0  0  0  0  0  0  0  0  0
    1.6074   -6.6766   -1.1380 H   0  0  0  0  0  0  0  0  0  0  0  0
    0.1414   -8.1565    0.6507 H   0  0  0  0  0  0  0  0  0  0  0  0
    0.6135   -4.5300    5.8035 H   0  0  0  0  0  0  0  0  0  0  0  0
    1.0468   -9.3766    6.1158 H   0  0  0  0  0  0  0  0  0  0  0  0
  1  2  2  3
  2  3  1  0
  3  4  2  0
  3  5  1  0
  5  6  2  0
  6  7  1  0
  6  8  1  0
  8  9  1  0
  8 10  2  0
 10 11  1  0
 10 12  1  0
 12 13  1  0
 12 14  2  0
 14 15  1  0
 15 16  2  3
 16 17  1  0
 17 18  3  0
 16 19  1  0
 19 20  3  0
  1 21  1  0
 21 22  2  0
 22 23  1  0
 23 24  1  0
 24 25  1  0
 25 26  1  0
 26 27  1  0
 27 28  1  0
 28 29  2  0
 29 30  1  0
 30 31  1  0
 28 32  1  0
 32 33  1  0
 33 34  2  0
 34 35  1  0
 35 36  1  0
 36 37  1  0
 35 38  1  0
 38 39  1  0
 39 40  1  0
 40 41  1  0
 41 42  1  0
 42 43  1  0
 40 44  1  0
 44 45  1  0
 34 46  1  0
 46 47  2  0
 47 48  1  0
 47 49  1  0
 49 50  2  0
 50 51  1  0
 50 52  1  0
 52 53  2  3
 53 54  1  0
 54 55  2  0
 54 56  1  0
 56 57  2  0
 57 58  1  0
 58 59  1  0
 58 60  2  0
 60 61  1  0
 60 62  1  0
 62 63  2  0
 63 64  1  0
 64 65  2  3
 65 66  1  0
 66 67  3  0
 65 68  1  0
 68 69  3  0
 15  2  1  0
 43 21  1  0
 51 46  1  0
 64 53  1  0
 14  5  1  0
 42 23  2  0
 63 56  1  0
 41 25  2  0
 39 26  2  0
 31 27  2  0
 38 32  2  0
 48 33  1  0
  1 70  1  0
 22 71  1  0
 36 72  1  0
 36 73  1  0
 37 74  1  0
 37 75  1  0
 37 76  1  0
 44 77  1  0
 44 78  1  0
 45 79  1  0
 45 80  1  0
 45 81  1  0
 49 82  1  0
 52 83  1  0
 57 84  1  0
 62 85  1  0
M  END

