
     RDKit          3D

118130  0  0  0  0  0  0  0  0999 V2000
   -2.6184    4.0599   -8.0826 C   0  0  0  0  0  0  0  0  0  0  0  0
   -3.7646    4.7668   -8.1378 C   0  0  0  0  0  0  0  0  0  0  0  0
   -4.8074    4.8329   -7.1011 C   0  0  0  0  0  0  0  0  0  0  0  0
   -4.7678    4.2724   -5.9740 O   0  0  0  0  0  0  0  0  0  0  0  0
   -5.9843    5.4785   -7.6697 C   0  0  0  0  0  0  0  0  0  0  0  0
   -7.2472    5.6629   -7.0956 C   0  0  0  0  0  0  0  0  0  0  0  0
   -7.5262    5.3004   -5.3932 Cl  0  0  0  0  0  0  0  0  0  0  0  0
   -8.2928    6.1387   -7.9139 C   0  0  0  0  0  0  0  0  0  0  0  0
   -9.8926    6.4162   -7.2222 Cl  0  0  0  0  0  0  0  0  0  0  0  0
   -8.0763    6.3346   -9.2986 C   0  0  0  0  0  0  0  0  0  0  0  0
   -9.4184    6.8128  -10.3395 Cl  0  0  0  0  0  0  0  0  0  0  0  0
   -6.7966    6.1159   -9.8559 C   0  0  0  0  0  0  0  0  0  0  0  0
   -6.6113    6.0577  -11.6093 Cl  0  0  0  0  0  0  0  0  0  0  0  0
   -5.7318    5.7842   -8.9952 C   0  0  0  0  0  0  0  0  0  0  0  0
   -4.3035    5.5051   -9.3148 C   0  0  0  0  0  0  0  0  0  0  0  0
   -3.5469    6.2307  -10.1795 C   0  0  0  0  0  0  0  0  0  0  0  0
   -4.0357    7.4599  -10.7541 C   0  0  0  0  0  0  0  0  0  0  0  0
   -4.4064    8.4666  -11.1834 N   0  0  0  0  0  0  0  0  0  0  0  0
   -2.1387    5.9915  -10.3690 C   0  0  0  0  0  0  0  0  0  0  0  0
   -1.0077    5.8009  -10.5264 N   0  0  0  0  0  0  0  0  0  0  0  0
   -1.9981    3.5810   -6.8352 C   0  0  0  0  0  0  0  0  0  0  0  0
   -1.0485    2.1567   -6.7348 S   0  0  0  0  0  0  0  0  0  0  0  0
   -0.6243    2.4610   -5.1439 C   0  0  0  0  0  0  0  0  0  0  0  0
    0.0468    1.8856   -4.0958 C   0  0  0  0  0  0  0  0  0  0  0  0
   -0.1380    2.7679   -3.0287 C   0  0  0  0  0  0  0  0  0  0  0  0
   -0.8761    3.8488   -3.4015 N   0  0  0  0  0  0  0  0  0  0  0  0
   -1.1671    3.6149   -4.7011 C   0  0  0  0  0  0  0  0  0  0  0  0
   -1.9445    4.2988   -5.6248 C   0  0  0  0  0  0  0  0  0  0  0  0
   -1.3893    4.9164   -2.5476 C   0  0  0  0  0  0  0  0  0  0  0  0
    0.3633    2.4779   -1.7552 C   0  0  0  0  0  0  0  0  0  0  0  0
    1.0247    1.2499   -1.6131 C   0  0  0  0  0  0  0  0  0  0  0  0
    1.6437    0.6737   -0.4439 C   0  0  0  0  0  0  0  0  0  0  0  0
    2.1658   -0.4966   -0.7511 C   0  0  0  0  0  0  0  0  0  0  0  0
    1.9317   -0.8970   -2.2028 C   0  0  0  0  0  0  0  0  0  0  0  0
    1.0145   -2.1576   -2.2480 C   0  0  0  0  0  0  0  0  0  0  0  0
    0.6295   -2.6478   -3.6452 C   0  0  0  0  0  0  0  0  0  0  0  0
    3.2655   -1.0156   -2.9896 C   0  0  0  0  0  0  0  0  0  0  0  0
    4.1773   -2.1604   -2.5509 C   0  0  0  0  0  0  0  0  0  0  0  0
    1.1908    0.3502   -2.6709 C   0  0  0  0  0  0  0  0  0  0  0  0
    0.7266    0.6721   -3.9633 C   0  0  0  0  0  0  0  0  0  0  0  0
    2.4330   -1.2240    0.4839 C   0  0  0  0  0  0  0  0  0  0  0  0
    2.0649   -0.3891    1.5491 C   0  0  0  0  0  0  0  0  0  0  0  0
    1.4435    0.8975    1.0390 C   0  0  0  0  0  0  0  0  0  0  0  0
   -0.0867    0.9543    1.3312 C   0  0  0  0  0  0  0  0  0  0  0  0
   -0.4820    1.0202    2.8096 C   0  0  0  0  0  0  0  0  0  0  0  0
    2.1934    2.1620    1.5334 C   0  0  0  0  0  0  0  0  0  0  0  0
    3.6579    2.2421    1.0850 C   0  0  0  0  0  0  0  0  0  0  0  0
    2.2315   -0.7971    2.8844 C   0  0  0  0  0  0  0  0  0  0  0  0
    2.7240   -2.0843    3.0788 C   0  0  0  0  0  0  0  0  0  0  0  0
    2.8740   -2.8405    4.2069 C   0  0  0  0  0  0  0  0  0  0  0  0
    2.4756   -2.7798    5.8270 S   0  0  0  0  0  0  0  0  0  0  0  0
    2.9023   -4.4255    6.0798 C   0  0  0  0  0  0  0  0  0  0  0  0
    3.2965   -5.0184    4.8605 C   0  0  0  0  0  0  0  0  0  0  0  0
    3.2633   -4.0751    3.8343 C   0  0  0  0  0  0  0  0  0  0  0  0
    3.3828   -4.1781    2.4892 N   0  0  0  0  0  0  0  0  0  0  0  0
    3.6963   -5.3633    1.6976 C   0  0  0  0  0  0  0  0  0  0  0  0
    3.0473   -2.9418    2.0278 C   0  0  0  0  0  0  0  0  0  0  0  0
    2.9140   -2.5313    0.6933 C   0  0  0  0  0  0  0  0  0  0  0  0
    2.6565   -5.1573    7.3486 C   0  0  0  0  0  0  0  0  0  0  0  0
    2.0119   -6.4029    7.2846 C   0  0  0  0  0  0  0  0  0  0  0  0
    1.5690   -7.0429    8.4388 C   0  0  0  0  0  0  0  0  0  0  0  0
    1.7174   -6.4335    9.6936 C   0  0  0  0  0  0  0  0  0  0  0  0
    1.1431   -7.0669   10.9049 C   0  0  0  0  0  0  0  0  0  0  0  0
    0.5873   -8.1970   10.8224 O   0  0  0  0  0  0  0  0  0  0  0  0
    1.2097   -6.3852   12.1718 N   0  0  0  0  0  0  0  0  0  0  0  0
    0.3491   -6.8086   13.2900 C   0  0  0  0  0  0  0  0  0  0  0  0
   -1.0105   -6.1175   13.1939 C   0  0  0  0  0  0  0  0  0  0  0  0
    1.9843   -5.1739   12.2706 C   0  0  0  0  0  0  0  0  0  0  0  0
    2.1458   -4.6183   13.3907 O   0  0  0  0  0  0  0  0  0  0  0  0
    2.5890   -4.5819   11.0546 C   0  0  0  0  0  0  0  0  0  0  0  0
    3.3321   -3.3937   11.1424 C   0  0  0  0  0  0  0  0  0  0  0  0
    3.9060   -2.8349   10.0059 C   0  0  0  0  0  0  0  0  0  0  0  0
    3.7184   -3.4274    8.7582 C   0  0  0  0  0  0  0  0  0  0  0  0
    2.9249   -4.5845    8.6211 C   0  0  0  0  0  0  0  0  0  0  0  0
    2.4072   -5.2050    9.7945 C   0  0  0  0  0  0  0  0  0  0  0  0
   -2.0867    3.8351   -8.9963 H   0  0  0  0  0  0  0  0  0  0  0  0
   -2.4163    5.2554   -5.4436 H   0  0  0  0  0  0  0  0  0  0  0  0
   -0.5748    5.3172   -1.9096 H   0  0  0  0  0  0  0  0  0  0  0  0
   -1.7918    5.7503   -3.1608 H   0  0  0  0  0  0  0  0  0  0  0  0
   -2.2019    4.5164   -1.9064 H   0  0  0  0  0  0  0  0  0  0  0  0
    0.2386    3.1613   -0.9270 H   0  0  0  0  0  0  0  0  0  0  0  0
    1.5033   -3.0001   -1.7248 H   0  0  0  0  0  0  0  0  0  0  0  0
    0.0760   -1.9463   -1.6865 H   0  0  0  0  0  0  0  0  0  0  0  0
   -0.0351   -1.9214   -4.1495 H   0  0  0  0  0  0  0  0  0  0  0  0
    0.0499   -3.5933   -3.5519 H   0  0  0  0  0  0  0  0  0  0  0  0
    1.5241   -2.8591   -4.2645 H   0  0  0  0  0  0  0  0  0  0  0  0
    3.0566   -1.1309   -4.0749 H   0  0  0  0  0  0  0  0  0  0  0  0
    3.8407   -0.0692   -2.8834 H   0  0  0  0  0  0  0  0  0  0  0  0
    5.0518   -2.2130   -3.2332 H   0  0  0  0  0  0  0  0  0  0  0  0
    3.6510   -3.1369   -2.5958 H   0  0  0  0  0  0  0  0  0  0  0  0
    4.5600   -1.9752   -1.5288 H   0  0  0  0  0  0  0  0  0  0  0  0
    0.8826    0.0256   -4.8159 H   0  0  0  0  0  0  0  0  0  0  0  0
   -0.5245    1.8457    0.8386 H   0  0  0  0  0  0  0  0  0  0  0  0
   -0.5841    0.0642    0.8846 H   0  0  0  0  0  0  0  0  0  0  0  0
   -1.5730    1.2046    2.8840 H   0  0  0  0  0  0  0  0  0  0  0  0
    0.0348    1.8463    3.3394 H   0  0  0  0  0  0  0  0  0  0  0  0
   -0.2797    0.0556    3.3170 H   0  0  0  0  0  0  0  0  0  0  0  0
    2.1826    2.2007    2.6435 H   0  0  0  0  0  0  0  0  0  0  0  0
    1.6687    3.0690    1.1617 H   0  0  0  0  0  0  0  0  0  0  0  0
    4.1329    3.1426    1.5262 H   0  0  0  0  0  0  0  0  0  0  0  0
    4.2237    1.3400    1.4067 H   0  0  0  0  0  0  0  0  0  0  0  0
    3.7244    2.3293   -0.0213 H   0  0  0  0  0  0  0  0  0  0  0  0
    1.9789   -0.1609    3.7219 H   0  0  0  0  0  0  0  0  0  0  0  0
    3.5367   -6.0664    4.7323 H   0  0  0  0  0  0  0  0  0  0  0  0
    3.8076   -6.2565    2.3468 H   0  0  0  0  0  0  0  0  0  0  0  0
    4.6486   -5.2006    1.1484 H   0  0  0  0  0  0  0  0  0  0  0  0
    2.8791   -5.5527    0.9687 H   0  0  0  0  0  0  0  0  0  0  0  0
    3.1461   -3.1989   -0.1206 H   0  0  0  0  0  0  0  0  0  0  0  0
    1.7989   -6.8657    6.3301 H   0  0  0  0  0  0  0  0  0  0  0  0
    1.0547   -7.9919    8.3433 H   0  0  0  0  0  0  0  0  0  0  0  0
    0.2071   -7.9113   13.2799 H   0  0  0  0  0  0  0  0  0  0  0  0
    0.8222   -6.5576   14.2636 H   0  0  0  0  0  0  0  0  0  0  0  0
   -1.6534   -6.4352   14.0430 H   0  0  0  0  0  0  0  0  0  0  0  0
   -0.8815   -5.0176   13.2398 H   0  0  0  0  0  0  0  0  0  0  0  0
   -1.5111   -6.3890   12.2406 H   0  0  0  0  0  0  0  0  0  0  0  0
    3.4894   -2.9072   12.0964 H   0  0  0  0  0  0  0  0  0  0  0  0
    4.5115   -1.9441   10.0901 H   0  0  0  0  0  0  0  0  0  0  0  0
    4.2309   -2.9917    7.9107 H   0  0  0  0  0  0  0  0  0  0  0  0
  1  2  2  3
  2  3  1  0
  3  4  2  0
  3  5  1  0
  5  6  2  0
  6  7  1  0
  6  8  1  0
  8  9  1  0
  8 10  2  0
 10 11  1  0
 10 12  1  0
 12 13  1  0
 12 14  2  0
 14 15  1  0
 15 16  2  3
 16 17  1  0
 17 18  3  0
 16 19  1  0
 19 20  3  0
  1 21  1  0
 21 22  1  0
 22 23  1  0
 23 24  1  0
 24 25  2  0
 25 26  1  0
 26 27  1  0
 27 28  1  0
 26 29  1  0
 25 30  1  0
 30 31  2  0
 31 32  1  0
 32 33  2  0
 33 34  1  0
 34 35  1  0
 35 36  1  0
 34 37  1  0
 37 38  1  0
 34 39  1  0
 39 40  2  0
 33 41  1  0
 41 42  2  0
 42 43  1  0
 43 44  1  0
 44 45  1  0
 43 46  1  0
 46 47  1  0
 42 48  1  0
 48 49  2  0
 49 50  1  0
 50 51  1  0
 51 52  1  0
 52 53  2  0
 53 54  1  0
 54 55  1  0
 55 56  1  0
 55 57  1  0
 57 58  2  0
 52 59  1  0
 59 60  2  0
 60 61  1  0
 61 62  2  0
 62 63  1  0
 63 64  2  0
 63 65  1  0
 65 66  1  0
 66 67  1  0
 65 68  1  0
 68 69  2  0
 68 70  1  0
 70 71  1  0
 71 72  2  0
 72 73  1  0
 73 74  2  0
 74 75  1  0
 15  2  1  0
 28 21  2  0
 39 31  1  0
 58 41  1  0
 74 59  1  0
 14  5  1  0
 27 23  2  0
 43 32  1  0
 57 49  1  0
 75 62  1  0
 40 24  1  0
 54 50  2  0
 75 70  2  0
  1 76  1  0
 28 77  1  0
 29 78  1  0
 29 79  1  0
 29 80  1  0
 30 81  1  0
 35 82  1  0
 35 83  1  0
 36 84  1  0
 36 85  1  0
 36 86  1  0
 37 87  1  0
 37 88  1  0
 38 89  1  0
 38 90  1  0
 38 91  1  0
 40 92  1  0
 44 93  1  0
 44 94  1  0
 45 95  1  0
 45 96  1  0
 45 97  1  0
 46 98  1  0
 46 99  1  0
 47100  1  0
 47101  1  0
 47102  1  0
 48103  1  0
 53104  1  0
 56105  1  0
 56106  1  0
 56107  1  0
 58108  1  0
 60109  1  0
 61110  1  0
 66111  1  0
 66112  1  0
 67113  1  0
 67114  1  0
 67115  1  0
 71116  1  0
 72117  1  0
 73118  1  0
M  END

