
     RDKit          3D

109120  0  0  0  0  0  0  0  0999 V2000
    1.7297   -6.6424    2.4383 C   0  0  0  0  0  0  0  0  0  0  0  0
    1.3655   -7.4733    3.4262 C   0  0  0  0  0  0  0  0  0  0  0  0
    0.4266   -7.1761    4.5128 C   0  0  0  0  0  0  0  0  0  0  0  0
    0.0179   -6.0313    4.8485 O   0  0  0  0  0  0  0  0  0  0  0  0
    0.0187   -8.4323    5.1227 C   0  0  0  0  0  0  0  0  0  0  0  0
   -0.9817   -8.6597    6.0748 C   0  0  0  0  0  0  0  0  0  0  0  0
   -1.7826   -7.3135    6.8796 Cl  0  0  0  0  0  0  0  0  0  0  0  0
   -1.3397   -9.9929    6.3634 C   0  0  0  0  0  0  0  0  0  0  0  0
   -2.5713  -10.3277    7.5830 Cl  0  0  0  0  0  0  0  0  0  0  0  0
   -0.7611  -11.0552    5.6310 C   0  0  0  0  0  0  0  0  0  0  0  0
   -1.3118  -12.7096    5.8994 Cl  0  0  0  0  0  0  0  0  0  0  0  0
    0.2283  -10.7945    4.6541 C   0  0  0  0  0  0  0  0  0  0  0  0
    0.7061  -12.0690    3.5325 Cl  0  0  0  0  0  0  0  0  0  0  0  0
    0.6794   -9.4719    4.4892 C   0  0  0  0  0  0  0  0  0  0  0  0
    1.6942   -8.9180    3.5485 C   0  0  0  0  0  0  0  0  0  0  0  0
    2.9221   -9.4487    3.3319 C   0  0  0  0  0  0  0  0  0  0  0  0
    3.3688  -10.6338    4.0180 C   0  0  0  0  0  0  0  0  0  0  0  0
    3.7352  -11.5766    4.5802 N   0  0  0  0  0  0  0  0  0  0  0  0
    3.9432   -8.7495    2.5924 C   0  0  0  0  0  0  0  0  0  0  0  0
    4.7653   -8.1912    1.9978 N   0  0  0  0  0  0  0  0  0  0  0  0
    1.3317   -5.2277    2.4048 C   0  0  0  0  0  0  0  0  0  0  0  0
    2.2877   -4.2329    2.6980 C   0  0  0  0  0  0  0  0  0  0  0  0
    1.9299   -2.8776    2.7112 C   0  0  0  0  0  0  0  0  0  0  0  0
    0.6050   -2.5435    2.4252 C   0  0  0  0  0  0  0  0  0  0  0  0
   -0.0527   -1.3314    2.2861 C   0  0  0  0  0  0  0  0  0  0  0  0
   -1.2944   -1.6139    1.8289 C   0  0  0  0  0  0  0  0  0  0  0  0
   -1.5097   -2.9469    1.6847 N   0  0  0  0  0  0  0  0  0  0  0  0
   -0.3339   -3.5115    2.0842 C   0  0  0  0  0  0  0  0  0  0  0  0
    0.0119   -4.8699    2.0724 C   0  0  0  0  0  0  0  0  0  0  0  0
   -2.7059   -3.6246    1.1727 C   0  0  0  0  0  0  0  0  0  0  0  0
   -3.9088   -3.3458    2.0714 C   0  0  0  0  0  0  0  0  0  0  0  0
   -1.7297   -0.4895    1.1526 C   0  0  0  0  0  0  0  0  0  0  0  0
   -2.6884   -0.2944    0.1453 C   0  0  0  0  0  0  0  0  0  0  0  0
   -2.6528    0.8149   -0.6527 C   0  0  0  0  0  0  0  0  0  0  0  0
   -3.6814    0.7665   -1.5108 N   0  0  0  0  0  0  0  0  0  0  0  0
   -4.2922   -0.3834   -1.2358 N   0  0  0  0  0  0  0  0  0  0  0  0
   -5.5057   -0.8311   -1.9064 C   0  0  0  0  0  0  0  0  0  0  0  0
   -6.7311   -0.4423   -1.0897 C   0  0  0  0  0  0  0  0  0  0  0  0
   -3.7246   -1.0526   -0.2345 N   0  0  0  0  0  0  0  0  0  0  0  0
   -1.7041    1.8146   -0.4338 C   0  0  0  0  0  0  0  0  0  0  0  0
   -0.8104    1.7097    0.6369 C   0  0  0  0  0  0  0  0  0  0  0  0
   -0.7229    0.4816    1.3544 C   0  0  0  0  0  0  0  0  0  0  0  0
    0.3611   -0.0689    1.9924 N   0  0  0  0  0  0  0  0  0  0  0  0
    1.7733    0.3156    1.8398 C   0  0  0  0  0  0  0  0  0  0  0  0
    2.4437    0.5320    3.2024 C   0  0  0  0  0  0  0  0  0  0  0  0
   -0.1085    2.8681    0.7841 N   0  0  0  0  0  0  0  0  0  0  0  0
    0.5726    3.3485    1.9903 C   0  0  0  0  0  0  0  0  0  0  0  0
   -0.1068    4.5943    2.5631 C   0  0  0  0  0  0  0  0  0  0  0  0
   -0.5059    3.6402   -0.2573 C   0  0  0  0  0  0  0  0  0  0  0  0
   -1.4357    3.0221   -1.0436 C   0  0  0  0  0  0  0  0  0  0  0  0
   -1.2355    3.2877   -2.3622 N   0  0  0  0  0  0  0  0  0  0  0  0
   -1.8584    2.6101   -3.5063 C   0  0  0  0  0  0  0  0  0  0  0  0
   -3.1885    3.2661   -3.8452 C   0  0  0  0  0  0  0  0  0  0  0  0
   -0.1714    4.1422   -2.3834 C   0  0  0  0  0  0  0  0  0  0  0  0
    0.2846    4.3944   -1.0993 C   0  0  0  0  0  0  0  0  0  0  0  0
    1.4884    5.0521   -0.8580 C   0  0  0  0  0  0  0  0  0  0  0  0
    2.2619    5.4452   -1.9593 C   0  0  0  0  0  0  0  0  0  0  0  0
    1.8501    5.1366   -3.2769 C   0  0  0  0  0  0  0  0  0  0  0  0
    0.6067    4.5019   -3.4934 C   0  0  0  0  0  0  0  0  0  0  0  0
    2.8450    5.1367   -4.3563 C   0  0  0  0  0  0  0  0  0  0  0  0
    3.6807    6.1546   -4.6218 C   0  0  0  0  0  0  0  0  0  0  0  0
    3.4283    7.5739   -4.3028 C   0  0  0  0  0  0  0  0  0  0  0  0
    2.4714    8.0459   -3.6329 O   0  0  0  0  0  0  0  0  0  0  0  0
    4.3640    8.3435   -5.0919 C   0  0  0  0  0  0  0  0  0  0  0  0
    4.3914    9.9222   -5.6610 S   0  0  0  0  0  0  0  0  0  0  0  0
    5.5029    9.5607   -6.8970 C   0  0  0  0  0  0  0  0  0  0  0  0
    6.1049   10.8117   -8.2004 Br  0  0  0  0  0  0  0  0  0  0  0  0
    5.7930    8.1923   -6.9039 C   0  0  0  0  0  0  0  0  0  0  0  0
    5.1376    7.5312   -5.8624 C   0  0  0  0  0  0  0  0  0  0  0  0
    4.8367    6.1166   -5.5764 C   0  0  0  0  0  0  0  0  0  0  0  0
    5.5878    5.0495   -5.9339 C   0  0  0  0  0  0  0  0  0  0  0  0
    5.4055    3.7578   -5.3225 C   0  0  0  0  0  0  0  0  0  0  0  0
    5.2631    2.7246   -4.8160 N   0  0  0  0  0  0  0  0  0  0  0  0
    6.7260    5.1780   -6.8022 C   0  0  0  0  0  0  0  0  0  0  0  0
    7.6443    5.2569   -7.5078 N   0  0  0  0  0  0  0  0  0  0  0  0
    2.3551   -6.9895    1.6301 H   0  0  0  0  0  0  0  0  0  0  0  0
    3.3088   -4.5120    2.9269 H   0  0  0  0  0  0  0  0  0  0  0  0
    2.6745   -2.1379    2.9459 H   0  0  0  0  0  0  0  0  0  0  0  0
   -0.7026   -5.6396    1.8132 H   0  0  0  0  0  0  0  0  0  0  0  0
   -2.9019   -3.3154    0.1287 H   0  0  0  0  0  0  0  0  0  0  0  0
   -2.5610   -4.7228    1.1385 H   0  0  0  0  0  0  0  0  0  0  0  0
   -3.7047   -3.7248    3.0946 H   0  0  0  0  0  0  0  0  0  0  0  0
   -4.8059   -3.8589    1.6668 H   0  0  0  0  0  0  0  0  0  0  0  0
   -4.1138   -2.2560    2.1292 H   0  0  0  0  0  0  0  0  0  0  0  0
   -5.5687   -0.3714   -2.9158 H   0  0  0  0  0  0  0  0  0  0  0  0
   -5.4757   -1.9347   -2.0301 H   0  0  0  0  0  0  0  0  0  0  0  0
   -6.8053    0.6636   -1.0255 H   0  0  0  0  0  0  0  0  0  0  0  0
   -7.6458   -0.8385   -1.5770 H   0  0  0  0  0  0  0  0  0  0  0  0
   -6.6556   -0.8656   -0.0648 H   0  0  0  0  0  0  0  0  0  0  0  0
    1.8863    1.2150    1.2144 H   0  0  0  0  0  0  0  0  0  0  0  0
    2.3095   -0.4826    1.2868 H   0  0  0  0  0  0  0  0  0  0  0  0
    3.5295    0.3153    3.1199 H   0  0  0  0  0  0  0  0  0  0  0  0
    2.0103   -0.1358    3.9781 H   0  0  0  0  0  0  0  0  0  0  0  0
    2.3402    1.5785    3.5452 H   0  0  0  0  0  0  0  0  0  0  0  0
    1.6339    3.5697    1.7608 H   0  0  0  0  0  0  0  0  0  0  0  0
    0.5280    2.5806    2.7798 H   0  0  0  0  0  0  0  0  0  0  0  0
   -0.2440    5.3728    1.7889 H   0  0  0  0  0  0  0  0  0  0  0  0
   -1.0919    4.3171    2.9858 H   0  0  0  0  0  0  0  0  0  0  0  0
    0.5208    5.0129    3.3767 H   0  0  0  0  0  0  0  0  0  0  0  0
   -1.2020    2.6389   -4.3936 H   0  0  0  0  0  0  0  0  0  0  0  0
   -2.0096    1.5362   -3.2824 H   0  0  0  0  0  0  0  0  0  0  0  0
   -3.0315    4.3437   -4.0806 H   0  0  0  0  0  0  0  0  0  0  0  0
   -3.8887    3.1810   -2.9856 H   0  0  0  0  0  0  0  0  0  0  0  0
   -3.6430    2.7641   -4.7277 H   0  0  0  0  0  0  0  0  0  0  0  0
    1.8515    5.2207    0.1447 H   0  0  0  0  0  0  0  0  0  0  0  0
    3.2357    5.8835   -1.7811 H   0  0  0  0  0  0  0  0  0  0  0  0
    0.3167    4.2204   -4.4964 H   0  0  0  0  0  0  0  0  0  0  0  0
    2.9292    4.2189   -4.9153 H   0  0  0  0  0  0  0  0  0  0  0  0
    6.3720    7.7103   -7.6733 H   0  0  0  0  0  0  0  0  0  0  0  0
  1  2  2  3
  2  3  1  0
  3  4  2  0
  3  5  1  0
  5  6  2  0
  6  7  1  0
  6  8  1  0
  8  9  1  0
  8 10  2  0
 10 11  1  0
 10 12  1  0
 12 13  1  0
 12 14  2  0
 14 15  1  0
 15 16  2  3
 16 17  1  0
 17 18  3  0
 16 19  1  0
 19 20  3  0
  1 21  1  0
 21 22  2  0
 22 23  1  0
 23 24  2  0
 24 25  1  0
 25 26  2  0
 26 27  1  0
 27 28  1  0
 28 29  2  0
 27 30  1  0
 30 31  1  0
 26 32  1  0
 32 33  1  0
 33 34  1  0
 34 35  2  0
 35 36  1  0
 36 37  1  0
 37 38  1  0
 36 39  1  0
 34 40  1  0
 40 41  2  0
 41 42  1  0
 42 43  1  0
 43 44  1  0
 44 45  1  0
 41 46  1  0
 46 47  1  0
 47 48  1  0
 46 49  1  0
 49 50  2  0
 50 51  1  0
 51 52  1  0
 52 53  1  0
 51 54  1  0
 54 55  2  0
 55 56  1  0
 56 57  2  0
 57 58  1  0
 58 59  2  0
 58 60  1  0
 60 61  2  3
 61 62  1  0
 62 63  2  0
 62 64  1  0
 64 65  1  0
 65 66  1  0
 66 67  1  0
 66 68  2  0
 68 69  1  0
 69 70  1  0
 70 71  2  3
 71 72  1  0
 72 73  3  0
 71 74  1  0
 74 75  3  0
 15  2  1  0
 29 21  1  0
 42 32  2  0
 55 49  1  0
 70 61  1  0
 14  5  1  0
 28 24  1  0
 39 33  2  0
 50 40  1  0
 59 54  1  0
 69 64  2  0
 43 25  1  0
  1 76  1  0
 22 77  1  0
 23 78  1  0
 29 79  1  0
 30 80  1  0
 30 81  1  0
 31 82  1  0
 31 83  1  0
 31 84  1  0
 37 85  1  0
 37 86  1  0
 38 87  1  0
 38 88  1  0
 38 89  1  0
 44 90  1  0
 44 91  1  0
 45 92  1  0
 45 93  1  0
 45 94  1  0
 47 95  1  0
 47 96  1  0
 48 97  1  0
 48 98  1  0
 48 99  1  0
 52100  1  0
 52101  1  0
 53102  1  0
 53103  1  0
 53104  1  0
 56105  1  0
 57106  1  0
 59107  1  0
 60108  1  0
 68109  1  0
M  END

