
     RDKit          3D

 91103  0  0  0  0  0  0  0  0999 V2000
   -2.0982   -1.5290    8.0689 C   0  0  0  0  0  0  0  0  0  0  0  0
   -2.3078   -2.8526    8.1883 C   0  0  0  0  0  0  0  0  0  0  0  0
   -2.4090   -3.8365    7.1002 C   0  0  0  0  0  0  0  0  0  0  0  0
   -2.1823   -3.6250    5.8807 O   0  0  0  0  0  0  0  0  0  0  0  0
   -3.0160   -5.0479    7.6320 C   0  0  0  0  0  0  0  0  0  0  0  0
   -3.4146   -6.2012    6.9461 C   0  0  0  0  0  0  0  0  0  0  0  0
   -2.9681   -6.4460    5.2590 Cl  0  0  0  0  0  0  0  0  0  0  0  0
   -4.1813   -7.1607    7.6358 C   0  0  0  0  0  0  0  0  0  0  0  0
   -4.6727   -8.6468    6.8186 Cl  0  0  0  0  0  0  0  0  0  0  0  0
   -4.6094   -6.9044    8.9595 C   0  0  0  0  0  0  0  0  0  0  0  0
   -5.6718   -8.0526    9.7770 Cl  0  0  0  0  0  0  0  0  0  0  0  0
   -4.2163   -5.7190    9.6194 C   0  0  0  0  0  0  0  0  0  0  0  0
   -5.0355   -5.2440   11.1090 Cl  0  0  0  0  0  0  0  0  0  0  0  0
   -3.3192   -4.8505    8.9679 C   0  0  0  0  0  0  0  0  0  0  0  0
   -2.7351   -3.5619    9.4249 C   0  0  0  0  0  0  0  0  0  0  0  0
   -2.2278   -3.3224   10.6626 C   0  0  0  0  0  0  0  0  0  0  0  0
   -1.4878   -2.1228   10.9737 C   0  0  0  0  0  0  0  0  0  0  0  0
   -0.8958   -1.1608   11.2299 N   0  0  0  0  0  0  0  0  0  0  0  0
   -2.1912   -4.3409   11.6814 C   0  0  0  0  0  0  0  0  0  0  0  0
   -2.1471   -5.1535   12.5052 N   0  0  0  0  0  0  0  0  0  0  0  0
   -1.5601   -0.8575    6.8737 C   0  0  0  0  0  0  0  0  0  0  0  0
   -0.2519   -1.4278    5.9126 S   0  0  0  0  0  0  0  0  0  0  0  0
   -0.2213   -0.0330    4.9965 C   0  0  0  0  0  0  0  0  0  0  0  0
    0.4044    0.5241    3.9197 C   0  0  0  0  0  0  0  0  0  0  0  0
    1.5253    0.1389    2.7059 S   0  0  0  0  0  0  0  0  0  0  0  0
    1.2349    1.6503    1.9579 C   0  0  0  0  0  0  0  0  0  0  0  0
    0.2796    2.4032    2.6248 C   0  0  0  0  0  0  0  0  0  0  0  0
   -0.1882    1.7422    3.7439 C   0  0  0  0  0  0  0  0  0  0  0  0
   -1.1747    1.9836    4.6445 N   0  0  0  0  0  0  0  0  0  0  0  0
   -1.1547    0.8616    5.4107 C   0  0  0  0  0  0  0  0  0  0  0  0
   -1.9290    0.4445    6.4875 C   0  0  0  0  0  0  0  0  0  0  0  0
   -2.0145    3.1714    4.7845 C   0  0  0  0  0  0  0  0  0  0  0  0
   -1.2530    4.2693    5.5153 C   0  0  0  0  0  0  0  0  0  0  0  0
   -0.1783    3.8018    1.7612 S   0  0  0  0  0  0  0  0  0  0  0  0
    0.9556    3.4336    0.5529 C   0  0  0  0  0  0  0  0  0  0  0  0
    1.1588    3.7306   -0.7636 C   0  0  0  0  0  0  0  0  0  0  0  0
    1.9098    2.7212   -1.2780 C   0  0  0  0  0  0  0  0  0  0  0  0
    2.2192    1.7768   -0.3512 N   0  0  0  0  0  0  0  0  0  0  0  0
    2.7429    0.4335   -0.5965 C   0  0  0  0  0  0  0  0  0  0  0  0
    1.6207   -0.5113   -1.0130 C   0  0  0  0  0  0  0  0  0  0  0  0
    1.6130    2.2503    0.7693 C   0  0  0  0  0  0  0  0  0  0  0  0
    1.9832    2.7012   -2.6661 C   0  0  0  0  0  0  0  0  0  0  0  0
    1.2186    3.7508   -3.2085 C   0  0  0  0  0  0  0  0  0  0  0  0
    0.4705    4.6641   -1.9690 S   0  0  0  0  0  0  0  0  0  0  0  0
    1.0948    4.0695   -4.6394 C   0  0  0  0  0  0  0  0  0  0  0  0
    0.7869    3.1656   -5.5916 C   0  0  0  0  0  0  0  0  0  0  0  0
    0.5037    1.7408   -5.3676 C   0  0  0  0  0  0  0  0  0  0  0  0
    0.1347    1.2107   -4.2857 O   0  0  0  0  0  0  0  0  0  0  0  0
    0.6453    1.0386   -6.6220 C   0  0  0  0  0  0  0  0  0  0  0  0
    0.6219   -0.3611   -6.8199 C   0  0  0  0  0  0  0  0  0  0  0  0
    0.9092   -0.7460   -8.1157 C   0  0  0  0  0  0  0  0  0  0  0  0
    1.2111    0.1858   -9.1603 C   0  0  0  0  0  0  0  0  0  0  0  0
    1.2378    1.5575   -8.9707 C   0  0  0  0  0  0  0  0  0  0  0  0
    0.9162    1.9780   -7.6493 C   0  0  0  0  0  0  0  0  0  0  0  0
    0.8754    3.3536   -7.0741 C   0  0  0  0  0  0  0  0  0  0  0  0
    0.7122    4.5131   -7.7651 C   0  0  0  0  0  0  0  0  0  0  0  0
    0.6761    4.5577   -9.2035 C   0  0  0  0  0  0  0  0  0  0  0  0
    0.6414    4.6100  -10.3601 N   0  0  0  0  0  0  0  0  0  0  0  0
    0.4121    5.7642   -7.1184 C   0  0  0  0  0  0  0  0  0  0  0  0
    0.1686    6.7748   -6.6079 N   0  0  0  0  0  0  0  0  0  0  0  0
    1.4360   -0.9424  -10.1239 C   0  0  0  0  0  0  0  0  0  0  0  0
    2.9057   -1.2882  -10.5103 C   0  0  0  0  0  0  0  0  0  0  0  0
    3.8326   -0.9578   -9.3625 C   0  0  0  0  0  0  0  0  0  0  0  0
    3.5567   -1.8261   -8.3885 C   0  0  0  0  0  0  0  0  0  0  0  0
    2.4474   -2.7151   -8.9039 C   0  0  0  0  0  0  0  0  0  0  0  0
    2.8661   -2.7984  -10.3601 C   0  0  0  0  0  0  0  0  0  0  0  0
    1.1280   -1.8965   -9.0527 C   0  0  0  0  0  0  0  0  0  0  0  0
   -2.3554   -0.8814    8.8940 H   0  0  0  0  0  0  0  0  0  0  0  0
   -2.7054    1.0334    6.9578 H   0  0  0  0  0  0  0  0  0  0  0  0
   -2.9372    2.9223    5.3507 H   0  0  0  0  0  0  0  0  0  0  0  0
   -2.3220    3.5349    3.7822 H   0  0  0  0  0  0  0  0  0  0  0  0
   -0.9675    3.9230    6.5313 H   0  0  0  0  0  0  0  0  0  0  0  0
   -0.3347    4.5403    4.9511 H   0  0  0  0  0  0  0  0  0  0  0  0
   -1.8947    5.1704    5.6102 H   0  0  0  0  0  0  0  0  0  0  0  0
    3.5103    0.4712   -1.4000 H   0  0  0  0  0  0  0  0  0  0  0  0
    3.2346    0.0482    0.3206 H   0  0  0  0  0  0  0  0  0  0  0  0
    0.8377   -0.5502   -0.2283 H   0  0  0  0  0  0  0  0  0  0  0  0
    2.0273   -1.5336   -1.1635 H   0  0  0  0  0  0  0  0  0  0  0  0
    1.1626   -0.1664   -1.9633 H   0  0  0  0  0  0  0  0  0  0  0  0
    2.5107    1.9544   -3.2446 H   0  0  0  0  0  0  0  0  0  0  0  0
    1.3363    5.0852   -4.9029 H   0  0  0  0  0  0  0  0  0  0  0  0
    0.4390   -1.0708   -6.0244 H   0  0  0  0  0  0  0  0  0  0  0  0
    1.5344    2.2168   -9.7682 H   0  0  0  0  0  0  0  0  0  0  0  0
    0.7101   -0.9686  -10.9658 H   0  0  0  0  0  0  0  0  0  0  0  0
    3.2354   -0.9153  -11.5030 H   0  0  0  0  0  0  0  0  0  0  0  0
    4.6249   -0.2169   -9.3478 H   0  0  0  0  0  0  0  0  0  0  0  0
    4.0827   -1.9107   -7.4438 H   0  0  0  0  0  0  0  0  0  0  0  0
    2.3450   -3.6880   -8.3799 H   0  0  0  0  0  0  0  0  0  0  0  0
    3.8598   -3.2852  -10.5101 H   0  0  0  0  0  0  0  0  0  0  0  0
    2.1084   -3.2915  -11.0147 H   0  0  0  0  0  0  0  0  0  0  0  0
    0.2155   -2.5055   -9.2429 H   0  0  0  0  0  0  0  0  0  0  0  0
  1  2  2  3
  2  3  1  0
  3  4  2  0
  3  5  1  0
  5  6  2  0
  6  7  1  0
  6  8  1  0
  8  9  1  0
  8 10  2  0
 10 11  1  0
 10 12  1  0
 12 13  1  0
 12 14  2  0
 14 15  1  0
 15 16  2  3
 16 17  1  0
 17 18  3  0
 16 19  1  0
 19 20  3  0
  1 21  1  0
 21 22  1  0
 22 23  1  0
 23 24  1  0
 24 25  1  0
 25 26  1  0
 26 27  2  0
 27 28  1  0
 28 29  1  0
 29 30  1  0
 30 31  1  0
 29 32  1  0
 32 33  1  0
 27 34  1  0
 34 35  1  0
 35 36  1  0
 36 37  2  0
 37 38  1  0
 38 39  1  0
 39 40  1  0
 38 41  1  0
 37 42  1  0
 42 43  2  0
 43 44  1  0
 43 45  1  0
 45 46  2  3
 46 47  1  0
 47 48  2  0
 47 49  1  0
 49 50  2  0
 50 51  1  0
 51 52  2  0
 52 53  1  0
 53 54  2  0
 54 55  1  0
 55 56  2  3
 56 57  1  0
 57 58  3  0
 56 59  1  0
 59 60  3  0
 52 61  1  0
 61 62  1  0
 62 63  1  0
 63 64  2  0
 64 65  1  0
 65 66  1  0
 65 67  1  0
 15  2  1  0
 31 21  2  0
 41 35  2  0
 55 46  1  0
 67 61  1  0
 14  5  1  0
 30 23  2  0
 44 36  1  0
 54 49  1  0
 66 62  1  0
 28 24  2  0
 67 51  1  0
 41 26  1  0
  1 68  1  0
 31 69  1  0
 32 70  1  0
 32 71  1  0
 33 72  1  0
 33 73  1  0
 33 74  1  0
 39 75  1  0
 39 76  1  0
 40 77  1  0
 40 78  1  0
 40 79  1  0
 42 80  1  0
 45 81  1  0
 50 82  1  0
 53 83  1  0
 61 84  1  0
 62 85  1  0
 63 86  1  0
 64 87  1  0
 65 88  1  0
 66 89  1  0
 66 90  1  0
 67 91  1  0
M  END

