
     RDKit          3D

 85 96  0  0  0  0  0  0  0  0999 V2000
    0.2677    6.2070    4.4089 C   0  0  0  0  0  0  0  0  0  0  0  0
    1.5439    6.1701    3.8788 C   0  0  0  0  0  0  0  0  0  0  0  0
    2.2646    7.0489    3.0995 C   0  0  0  0  0  0  0  0  0  0  0  0
    1.8111    8.1682    2.6061 O   0  0  0  0  0  0  0  0  0  0  0  0
    3.6247    6.5855    2.8819 C   0  0  0  0  0  0  0  0  0  0  0  0
    4.6372    7.1642    2.0883 C   0  0  0  0  0  0  0  0  0  0  0  0
    4.4549    8.6421    1.2598 Cl  0  0  0  0  0  0  0  0  0  0  0  0
    5.8324    6.3602    2.0522 C   0  0  0  0  0  0  0  0  0  0  0  0
    7.0962    7.1066    1.0403 Cl  0  0  0  0  0  0  0  0  0  0  0  0
    5.9510    5.2838    2.6492 C   0  0  0  0  0  0  0  0  0  0  0  0
    7.5139    4.3116    2.5434 Cl  0  0  0  0  0  0  0  0  0  0  0  0
    4.9708    4.6641    3.4578 C   0  0  0  0  0  0  0  0  0  0  0  0
    5.2031    3.1849    4.2125 Cl  0  0  0  0  0  0  0  0  0  0  0  0
    3.7614    5.4121    3.5404 C   0  0  0  0  0  0  0  0  0  0  0  0
    2.4561    5.0037    4.2946 C   0  0  0  0  0  0  0  0  0  0  0  0
    2.6694    4.6400    5.5030 C   0  0  0  0  0  0  0  0  0  0  0  0
    1.9964    5.5877    6.5427 C   0  0  0  0  0  0  0  0  0  0  0  0
    1.4672    6.3272    7.3566 N   0  0  0  0  0  0  0  0  0  0  0  0
    3.1472    3.5185    6.3023 C   0  0  0  0  0  0  0  0  0  0  0  0
    3.4833    2.7398    6.8505 N   0  0  0  0  0  0  0  0  0  0  0  0
    0.0545    4.8274    5.0466 C   0  0  0  0  0  0  0  0  0  0  0  0
   -0.1170    3.6789    5.5403 C   0  0  0  0  0  0  0  0  0  0  0  0
   -0.2667    2.4932    4.9273 C   0  0  0  0  0  0  0  0  0  0  0  0
   -0.7778    0.7469    5.6029 S   0  0  0  0  0  0  0  0  0  0  0  0
   -0.8448   -0.0634    4.0778 C   0  0  0  0  0  0  0  0  0  0  0  0
   -1.0542   -1.1171    3.2334 C   0  0  0  0  0  0  0  0  0  0  0  0
   -1.3141   -2.4441    3.5727 C   0  0  0  0  0  0  0  0  0  0  0  0
   -1.4095   -3.4770    2.6493 C   0  0  0  0  0  0  0  0  0  0  0  0
   -1.6723   -4.6448    3.0835 N   0  0  0  0  0  0  0  0  0  0  0  0
   -1.8177   -4.5391    4.7139 S   0  0  0  0  0  0  0  0  0  0  0  0
   -1.5392   -2.9478    4.8630 N   0  0  0  0  0  0  0  0  0  0  0  0
   -1.2472   -3.1406    1.3143 C   0  0  0  0  0  0  0  0  0  0  0  0
   -1.3921   -3.8770    0.1263 C   0  0  0  0  0  0  0  0  0  0  0  0
   -1.2482   -2.9016   -0.9112 C   0  0  0  0  0  0  0  0  0  0  0  0
   -1.0430   -1.7750   -0.3514 N   0  0  0  0  0  0  0  0  0  0  0  0
   -1.1351   -0.5055   -1.2025 C   0  0  0  0  0  0  0  0  0  0  0  0
   -2.6532   -0.1954   -1.1265 C   0  0  0  0  0  0  0  0  0  0  0  0
   -0.9932   -1.7434    0.9495 C   0  0  0  0  0  0  0  0  0  0  0  0
   -0.8744   -0.7679    1.9054 C   0  0  0  0  0  0  0  0  0  0  0  0
   -0.5245    0.5155    1.9210 N   0  0  0  0  0  0  0  0  0  0  0  0
   -0.4634    1.0696    3.0967 C   0  0  0  0  0  0  0  0  0  0  0  0
   -0.3196    1.9648    4.0297 C   0  0  0  0  0  0  0  0  0  0  0  0
   -0.0243    4.0101    3.0603 Se  0  0  0  0  0  2  0  0  0  0  0  0
   -0.0630    1.3773    0.7951 C   0  0  0  0  0  0  0  0  0  0  0  0
   -1.0401    2.3462    0.3293 C   0  0  0  0  0  0  0  0  0  0  0  0
   -1.4143   -3.5055   -2.1654 C   0  0  0  0  0  0  0  0  0  0  0  0
   -1.6392   -4.6983   -2.4311 C   0  0  0  0  0  0  0  0  0  0  0  0
   -1.6694   -5.3137   -0.7275 S   0  0  0  0  0  0  0  0  0  0  0  0
   -1.9352   -5.0739   -3.6842 C   0  0  0  0  0  0  0  0  0  0  0  0
   -2.1014   -4.6474   -4.8161 C   0  0  0  0  0  0  0  0  0  0  0  0
   -1.6305   -2.6399   -3.8657 Se  0  0  0  0  0  2  0  0  0  0  0  0
   -2.2590   -3.9688   -6.1266 C   0  0  0  0  0  0  0  0  0  0  0  0
   -3.6573   -3.9844   -6.5359 C   0  0  0  0  0  0  0  0  0  0  0  0
   -4.4887   -4.7545   -5.6961 C   0  0  0  0  0  0  0  0  0  0  0  0
   -4.4920   -5.5296   -4.7650 O   0  0  0  0  0  0  0  0  0  0  0  0
   -5.9442   -4.3786   -6.2606 C   0  0  0  0  0  0  0  0  0  0  0  0
   -7.1355   -4.8002   -5.8781 C   0  0  0  0  0  0  0  0  0  0  0  0
   -8.3273   -4.3710   -6.4885 C   0  0  0  0  0  0  0  0  0  0  0  0
   -9.5553   -4.7535   -6.1431 F   0  0  0  0  0  0  0  0  0  0  0  0
   -8.1576   -3.4465   -7.5415 C   0  0  0  0  0  0  0  0  0  0  0  0
   -9.2757   -2.9957   -8.1806 F   0  0  0  0  0  0  0  0  0  0  0  0
   -6.9177   -3.1010   -7.8631 C   0  0  0  0  0  0  0  0  0  0  0  0
   -5.7349   -3.4819   -7.3208 C   0  0  0  0  0  0  0  0  0  0  0  0
   -4.2864   -3.2594   -7.4650 C   0  0  0  0  0  0  0  0  0  0  0  0
   -3.7369   -2.4565   -8.4204 C   0  0  0  0  0  0  0  0  0  0  0  0
   -2.2724   -2.4518   -8.3991 C   0  0  0  0  0  0  0  0  0  0  0  0
   -1.1053   -2.4330   -8.3867 N   0  0  0  0  0  0  0  0  0  0  0  0
   -4.4881   -1.7402   -9.3997 C   0  0  0  0  0  0  0  0  0  0  0  0
   -5.0525   -1.2092  -10.1083 N   0  0  0  0  0  0  0  0  0  0  0  0
   -0.5527    6.7521    4.2128 H   0  0  0  0  0  0  0  0  0  0  0  0
   -0.1334    3.7478    6.7224 H   0  0  0  0  0  0  0  0  0  0  0  0
   -0.5332    0.2170   -0.9769 H   0  0  0  0  0  0  0  0  0  0  0  0
   -0.9730   -0.8193   -2.2985 H   0  0  0  0  0  0  0  0  0  0  0  0
   -3.1902   -0.8798   -1.8854 H   0  0  0  0  0  0  0  0  0  0  0  0
   -2.8980    0.8271   -1.3583 H   0  0  0  0  0  0  0  0  0  0  0  0
   -3.0361   -0.4982   -0.1424 H   0  0  0  0  0  0  0  0  0  0  0  0
    0.6882    0.9190    0.1507 H   0  0  0  0  0  0  0  0  0  0  0  0
    0.7637    2.0696    1.3313 H   0  0  0  0  0  0  0  0  0  0  0  0
   -1.3055    2.2848   -0.7675 H   0  0  0  0  0  0  0  0  0  0  0  0
   -1.9941    2.3240    0.8425 H   0  0  0  0  0  0  0  0  0  0  0  0
   -0.6108    3.4154    0.3453 H   0  0  0  0  0  0  0  0  0  0  0  0
   -2.0993   -6.3101   -3.7672 H   0  0  0  0  0  0  0  0  0  0  0  0
   -1.5248   -3.5860   -6.6545 H   0  0  0  0  0  0  0  0  0  0  0  0
   -7.2871   -5.5184   -5.0664 H   0  0  0  0  0  0  0  0  0  0  0  0
   -6.8382   -2.3148   -8.6710 H   0  0  0  0  0  0  0  0  0  0  0  0
  1  2  2  3
  2  3  1  0
  3  4  2  0
  3  5  1  0
  5  6  2  0
  6  7  1  0
  6  8  1  0
  8  9  1  0
  8 10  2  0
 10 11  1  0
 10 12  1  0
 12 13  1  0
 12 14  2  0
 14 15  1  0
 15 16  2  3
 16 17  1  0
 17 18  3  0
 16 19  1  0
 19 20  3  0
  1 21  1  0
 21 22  2  0
 22 23  1  0
 23 24  1  0
 24 25  1  0
 25 26  1  0
 26 27  1  0
 27 28  1  0
 28 29  2  0
 29 30  1  0
 30 31  1  0
 28 32  1  0
 32 33  1  0
 33 34  2  0
 34 35  1  0
 35 36  1  0
 36 37  1  0
 35 38  1  0
 38 39  1  0
 39 40  1  0
 40 41  1  0
 41 42  1  0
 42 43  1  0
 40 44  1  0
 44 45  1  0
 34 46  1  0
 46 47  2  0
 47 48  1  0
 47 49  1  0
 49 50  2  0
 50 51  1  0
 50 52  1  0
 52 53  2  3
 53 54  1  0
 54 55  2  0
 54 56  1  0
 56 57  2  0
 57 58  1  0
 58 59  1  0
 58 60  2  0
 60 61  1  0
 60 62  1  0
 62 63  2  0
 63 64  1  0
 64 65  2  3
 65 66  1  0
 66 67  3  0
 65 68  1  0
 68 69  3  0
 15  2  1  0
 43 21  1  0
 51 46  1  0
 64 53  1  0
 14  5  1  0
 42 23  2  0
 63 56  1  0
 41 25  2  0
 39 26  2  0
 31 27  2  0
 38 32  2  0
 48 33  1  0
  1 70  1  0
 22 71  1  0
 36 72  1  0
 36 73  1  0
 37 74  1  0
 37 75  1  0
 37 76  1  0
 44 77  1  0
 44 78  1  0
 45 79  1  0
 45 80  1  0
 45 81  1  0
 49 82  1  0
 52 83  1  0
 57 84  1  0
 62 85  1  0
M  END

