
     RDKit          3D

119131  0  0  0  0  0  0  0  0999 V2000
    2.4628   -6.1448   -3.8973 C   0  0  0  0  0  0  0  0  0  0  0  0
    3.0415   -5.8435   -5.0711 C   0  0  0  0  0  0  0  0  0  0  0  0
    3.4105   -4.5014   -5.5192 C   0  0  0  0  0  0  0  0  0  0  0  0
    3.0749   -3.4215   -4.9643 O   0  0  0  0  0  0  0  0  0  0  0  0
    4.0415   -4.6099   -6.8217 C   0  0  0  0  0  0  0  0  0  0  0  0
    4.5660   -3.5884   -7.6209 C   0  0  0  0  0  0  0  0  0  0  0  0
    4.7135   -1.9443   -6.9993 Cl  0  0  0  0  0  0  0  0  0  0  0  0
    4.9974   -3.9132   -8.9192 C   0  0  0  0  0  0  0  0  0  0  0  0
    5.7215   -2.6648   -9.9365 Cl  0  0  0  0  0  0  0  0  0  0  0  0
    4.7973   -5.2188   -9.4243 C   0  0  0  0  0  0  0  0  0  0  0  0
    5.2159   -5.5769  -11.0950 Cl  0  0  0  0  0  0  0  0  0  0  0  0
    4.2366   -6.2258   -8.6044 C   0  0  0  0  0  0  0  0  0  0  0  0
    3.6388   -7.7028   -9.3514 Cl  0  0  0  0  0  0  0  0  0  0  0  0
    3.9804   -5.9266   -7.2500 C   0  0  0  0  0  0  0  0  0  0  0  0
    3.4944   -6.7923   -6.1366 C   0  0  0  0  0  0  0  0  0  0  0  0
    3.8675   -8.0857   -5.9254 C   0  0  0  0  0  0  0  0  0  0  0  0
    3.5284   -8.8140   -4.7303 C   0  0  0  0  0  0  0  0  0  0  0  0
    3.2655   -9.4094   -3.7713 N   0  0  0  0  0  0  0  0  0  0  0  0
    4.8157   -8.7616   -6.7726 C   0  0  0  0  0  0  0  0  0  0  0  0
    5.5839   -9.3204   -7.4376 N   0  0  0  0  0  0  0  0  0  0  0  0
    2.4266   -5.2273   -2.7418 C   0  0  0  0  0  0  0  0  0  0  0  0
    3.5049   -4.4855   -2.2182 C   0  0  0  0  0  0  0  0  0  0  0  0
    4.8831   -4.4617   -2.7649 C   0  0  0  0  0  0  0  0  0  0  0  0
    5.5634   -5.6558   -3.0586 C   0  0  0  0  0  0  0  0  0  0  0  0
    6.8355   -5.6212   -3.6364 C   0  0  0  0  0  0  0  0  0  0  0  0
    7.4454   -4.3900   -3.9360 C   0  0  0  0  0  0  0  0  0  0  0  0
    8.8196   -4.3426   -4.5550 C   0  0  0  0  0  0  0  0  0  0  0  0
    9.8571   -3.8674   -3.5403 C   0  0  0  0  0  0  0  0  0  0  0  0
    6.7690   -3.1981   -3.6344 C   0  0  0  0  0  0  0  0  0  0  0  0
    5.5014   -3.2330   -3.0501 C   0  0  0  0  0  0  0  0  0  0  0  0
    3.0910   -3.7283   -1.1193 C   0  0  0  0  0  0  0  0  0  0  0  0
    3.8798   -2.5796   -0.1416 S   0  0  0  0  0  0  0  0  0  0  0  0
    2.4514   -2.3005    0.7259 C   0  0  0  0  0  0  0  0  0  0  0  0
    1.9552   -1.2913    1.4911 C   0  0  0  0  0  0  0  0  0  0  0  0
    2.5713   -0.1009    1.8938 C   0  0  0  0  0  0  0  0  0  0  0  0
    1.7582    0.9486    2.3998 C   0  0  0  0  0  0  0  0  0  0  0  0
    2.3820    2.1000    2.7530 N   0  0  0  0  0  0  0  0  0  0  0  0
    3.9429    1.6989    2.3694 S   0  0  0  0  0  0  0  0  0  0  0  0
    3.8996    0.1498    1.7817 N   0  0  0  0  0  0  0  0  0  0  0  0
    0.3859    0.7309    2.5237 C   0  0  0  0  0  0  0  0  0  0  0  0
   -0.5999    1.5322    3.0060 C   0  0  0  0  0  0  0  0  0  0  0  0
   -0.8254    3.1365    3.5018 S   0  0  0  0  0  0  0  0  0  0  0  0
   -2.4903    2.8368    3.7446 C   0  0  0  0  0  0  0  0  0  0  0  0
   -3.5695    3.6584    4.0697 C   0  0  0  0  0  0  0  0  0  0  0  0
   -3.4795    5.1244    4.2413 C   0  0  0  0  0  0  0  0  0  0  0  0
   -2.8416    5.9051    3.2652 C   0  0  0  0  0  0  0  0  0  0  0  0
   -2.7808    7.2942    3.4000 C   0  0  0  0  0  0  0  0  0  0  0  0
   -3.3583    7.9236    4.5144 C   0  0  0  0  0  0  0  0  0  0  0  0
   -3.2798    9.4203    4.6622 C   0  0  0  0  0  0  0  0  0  0  0  0
   -1.8788    9.8556    5.0797 C   0  0  0  0  0  0  0  0  0  0  0  0
   -3.9861    7.1409    5.4985 C   0  0  0  0  0  0  0  0  0  0  0  0
   -4.0545    5.7526    5.3568 C   0  0  0  0  0  0  0  0  0  0  0  0
   -4.7704    2.9245    4.0568 C   0  0  0  0  0  0  0  0  0  0  0  0
   -4.4722    1.2988    3.6355 S   0  0  0  0  0  0  0  0  0  0  0  0
   -2.8191    1.5316    3.4723 C   0  0  0  0  0  0  0  0  0  0  0  0
   -1.7329    0.7982    3.0236 C   0  0  0  0  0  0  0  0  0  0  0  0
   -1.5626   -0.4658    2.5613 N   0  0  0  0  0  0  0  0  0  0  0  0
   -0.2375   -0.4864    2.1739 C   0  0  0  0  0  0  0  0  0  0  0  0
    0.5592   -1.4902    1.5428 C   0  0  0  0  0  0  0  0  0  0  0  0
    0.2058   -2.5414    0.7185 N   0  0  0  0  0  0  0  0  0  0  0  0
    1.3979   -3.0192    0.2710 C   0  0  0  0  0  0  0  0  0  0  0  0
    1.7642   -3.8510   -0.7837 C   0  0  0  0  0  0  0  0  0  0  0  0
    1.0207   -4.9355   -1.8231 S   0  0  0  0  0  0  0  0  0  0  0  0
   -1.0773   -2.8022    0.0512 C   0  0  0  0  0  0  0  0  0  0  0  0
   -1.5404   -1.5970   -0.7700 C   0  0  0  0  0  0  0  0  0  0  0  0
   -2.5051   -1.5611    2.8213 C   0  0  0  0  0  0  0  0  0  0  0  0
   -1.8433   -2.7204    3.5703 C   0  0  0  0  0  0  0  0  0  0  0  0
   -6.1126    3.5053    4.2106 C   0  0  0  0  0  0  0  0  0  0  0  0
   -6.8442    4.0105    3.1877 C   0  0  0  0  0  0  0  0  0  0  0  0
   -6.3913    3.9339    1.7689 C   0  0  0  0  0  0  0  0  0  0  0  0
   -5.5238    3.0908    1.4089 O   0  0  0  0  0  0  0  0  0  0  0  0
   -6.9671    4.8142    0.7913 N   0  0  0  0  0  0  0  0  0  0  0  0
   -6.4965    4.7915   -0.6028 C   0  0  0  0  0  0  0  0  0  0  0  0
   -5.2726    5.6858   -0.7664 C   0  0  0  0  0  0  0  0  0  0  0  0
   -7.9606    5.7638    1.2140 C   0  0  0  0  0  0  0  0  0  0  0  0
   -8.3213    6.6902    0.4358 O   0  0  0  0  0  0  0  0  0  0  0  0
   -8.5851    5.6443    2.5506 C   0  0  0  0  0  0  0  0  0  0  0  0
   -8.1152    4.7587    3.4636 C   0  0  0  0  0  0  0  0  0  0  0  0
   -8.8114    4.5919    4.8034 C   0  0  0  0  0  0  0  0  0  0  0  0
   -9.7009    6.5187    2.8488 C   0  0  0  0  0  0  0  0  0  0  0  0
  -10.5911    7.2227    3.0824 N   0  0  0  0  0  0  0  0  0  0  0  0
    1.9808   -7.0994   -3.7570 H   0  0  0  0  0  0  0  0  0  0  0  0
    5.1065   -6.6160   -2.8454 H   0  0  0  0  0  0  0  0  0  0  0  0
    7.3434   -6.5548   -3.8582 H   0  0  0  0  0  0  0  0  0  0  0  0
    8.8098   -3.6569   -5.4257 H   0  0  0  0  0  0  0  0  0  0  0  0
    9.1162   -5.3494   -4.9231 H   0  0  0  0  0  0  0  0  0  0  0  0
    9.8483   -4.5184   -2.6417 H   0  0  0  0  0  0  0  0  0  0  0  0
    9.6466   -2.8226   -3.2289 H   0  0  0  0  0  0  0  0  0  0  0  0
   10.8729   -3.8990   -3.9965 H   0  0  0  0  0  0  0  0  0  0  0  0
    7.2214   -2.2395   -3.8582 H   0  0  0  0  0  0  0  0  0  0  0  0
    4.9910   -2.2958   -2.8546 H   0  0  0  0  0  0  0  0  0  0  0  0
   -2.4041    5.4427    2.3886 H   0  0  0  0  0  0  0  0  0  0  0  0
   -2.2878    7.8772    2.6307 H   0  0  0  0  0  0  0  0  0  0  0  0
   -3.5446    9.9033    3.6984 H   0  0  0  0  0  0  0  0  0  0  0  0
   -4.0123    9.7779    5.4207 H   0  0  0  0  0  0  0  0  0  0  0  0
   -1.6049    9.3923    6.0511 H   0  0  0  0  0  0  0  0  0  0  0  0
   -1.1354    9.5683    4.3063 H   0  0  0  0  0  0  0  0  0  0  0  0
   -1.8508   10.9621    5.1903 H   0  0  0  0  0  0  0  0  0  0  0  0
   -4.4288    7.6060    6.3714 H   0  0  0  0  0  0  0  0  0  0  0  0
   -4.5416    5.1639    6.1241 H   0  0  0  0  0  0  0  0  0  0  0  0
   -0.9900   -3.6621   -0.6408 H   0  0  0  0  0  0  0  0  0  0  0  0
   -1.8356   -3.1430    0.7657 H   0  0  0  0  0  0  0  0  0  0  0  0
   -0.7262   -1.2657   -1.4448 H   0  0  0  0  0  0  0  0  0  0  0  0
   -1.8277   -0.7573   -0.1076 H   0  0  0  0  0  0  0  0  0  0  0  0
   -2.4218   -1.8808   -1.3797 H   0  0  0  0  0  0  0  0  0  0  0  0
   -3.0213   -1.8654    1.8958 H   0  0  0  0  0  0  0  0  0  0  0  0
   -3.3197   -1.2023    3.4825 H   0  0  0  0  0  0  0  0  0  0  0  0
   -2.6225   -3.4437    3.8883 H   0  0  0  0  0  0  0  0  0  0  0  0
   -1.3164   -2.3366    4.4673 H   0  0  0  0  0  0  0  0  0  0  0  0
   -1.1142   -3.2577    2.9384 H   0  0  0  0  0  0  0  0  0  0  0  0
   -6.4373    3.6309    5.2326 H   0  0  0  0  0  0  0  0  0  0  0  0
   -6.2407    3.7543   -0.9096 H   0  0  0  0  0  0  0  0  0  0  0  0
   -7.3004    5.1334   -1.2887 H   0  0  0  0  0  0  0  0  0  0  0  0
   -5.5249    6.7298   -0.4892 H   0  0  0  0  0  0  0  0  0  0  0  0
   -4.9350    5.6647   -1.8214 H   0  0  0  0  0  0  0  0  0  0  0  0
   -4.4466    5.3292   -0.1180 H   0  0  0  0  0  0  0  0  0  0  0  0
   -9.9023    4.7878    4.7336 H   0  0  0  0  0  0  0  0  0  0  0  0
   -8.7184    3.5475    5.1584 H   0  0  0  0  0  0  0  0  0  0  0  0
   -8.3647    5.2837    5.5471 H   0  0  0  0  0  0  0  0  0  0  0  0
  1  2  2  3
  2  3  1  0
  3  4  2  0
  3  5  1  0
  5  6  2  0
  6  7  1  0
  6  8  1  0
  8  9  1  0
  8 10  2  0
 10 11  1  0
 10 12  1  0
 12 13  1  0
 12 14  2  0
 14 15  1  0
 15 16  2  3
 16 17  1  0
 17 18  3  0
 16 19  1  0
 19 20  3  0
  1 21  1  0
 21 22  2  0
 22 23  1  0
 23 24  2  0
 24 25  1  0
 25 26  2  0
 26 27  1  0
 27 28  1  0
 26 29  1  0
 29 30  2  0
 22 31  1  0
 31 32  1  0
 32 33  1  0
 33 34  1  0
 34 35  1  0
 35 36  1  0
 36 37  2  0
 37 38  1  0
 38 39  1  0
 36 40  1  0
 40 41  1  0
 41 42  1  0
 42 43  1  0
 43 44  1  0
 44 45  1  0
 45 46  2  0
 46 47  1  0
 47 48  2  0
 48 49  1  0
 49 50  1  0
 48 51  1  0
 51 52  2  0
 44 53  2  0
 53 54  1  0
 54 55  1  0
 55 56  1  0
 56 57  1  0
 57 58  1  0
 58 59  1  0
 59 60  1  0
 60 61  1  0
 61 62  1  0
 62 63  1  0
 60 64  1  0
 64 65  1  0
 57 66  1  0
 66 67  1  0
 53 68  1  0
 68 69  2  3
 69 70  1  0
 70 71  2  0
 70 72  1  0
 72 73  1  0
 73 74  1  0
 72 75  1  0
 75 76  2  0
 75 77  1  0
 77 78  2  0
 78 79  1  0
 77 80  1  0
 80 81  3  0
 15  2  1  0
 63 21  1  0
 78 69  1  0
 14  5  1  0
 30 23  1  0
 62 31  2  0
 61 33  2  0
 59 34  2  0
 39 35  2  0
 58 40  2  0
 56 41  2  0
 55 43  2  0
 52 45  1  0
  1 82  1  0
 24 83  1  0
 25 84  1  0
 27 85  1  0
 27 86  1  0
 28 87  1  0
 28 88  1  0
 28 89  1  0
 29 90  1  0
 30 91  1  0
 46 92  1  0
 47 93  1  0
 49 94  1  0
 49 95  1  0
 50 96  1  0
 50 97  1  0
 50 98  1  0
 51 99  1  0
 52100  1  0
 64101  1  0
 64102  1  0
 65103  1  0
 65104  1  0
 65105  1  0
 66106  1  0
 66107  1  0
 67108  1  0
 67109  1  0
 67110  1  0
 68111  1  0
 73112  1  0
 73113  1  0
 74114  1  0
 74115  1  0
 74116  1  0
 79117  1  0
 79118  1  0
 79119  1  0
M  END

