
     RDKit          3D

111124  0  0  0  0  0  0  0  0999 V2000
   -7.2735   -6.6106    0.2817 C   0  0  0  0  0  0  0  0  0  0  0  0
   -6.7293   -7.7215    0.8136 C   0  0  0  0  0  0  0  0  0  0  0  0
   -7.5101   -8.8340    1.3497 C   0  0  0  0  0  0  0  0  0  0  0  0
   -8.7143   -9.0855    1.0777 O   0  0  0  0  0  0  0  0  0  0  0  0
   -6.6887   -9.5230    2.3427 C   0  0  0  0  0  0  0  0  0  0  0  0
   -7.0711  -10.4854    3.2830 C   0  0  0  0  0  0  0  0  0  0  0  0
   -8.6641  -11.2333    3.2041 Cl  0  0  0  0  0  0  0  0  0  0  0  0
   -6.1589  -10.8280    4.3009 C   0  0  0  0  0  0  0  0  0  0  0  0
   -6.5875  -12.0692    5.4801 Cl  0  0  0  0  0  0  0  0  0  0  0  0
   -4.9305  -10.1338    4.4155 C   0  0  0  0  0  0  0  0  0  0  0  0
   -3.8441  -10.4865    5.7594 Cl  0  0  0  0  0  0  0  0  0  0  0  0
   -4.5821   -9.1402    3.4755 C   0  0  0  0  0  0  0  0  0  0  0  0
   -3.2337   -8.0532    3.8107 Cl  0  0  0  0  0  0  0  0  0  0  0  0
   -5.4383   -8.9223    2.3803 C   0  0  0  0  0  0  0  0  0  0  0  0
   -5.3333   -7.9363    1.2773 C   0  0  0  0  0  0  0  0  0  0  0  0
   -4.2377   -7.7575    0.4949 C   0  0  0  0  0  0  0  0  0  0  0  0
   -2.9734   -8.3888    0.7761 C   0  0  0  0  0  0  0  0  0  0  0  0
   -1.9466   -8.8876    0.9820 N   0  0  0  0  0  0  0  0  0  0  0  0
   -4.3170   -7.1006   -0.7845 C   0  0  0  0  0  0  0  0  0  0  0  0
   -4.3751   -6.5782   -1.8173 N   0  0  0  0  0  0  0  0  0  0  0  0
   -6.5775   -5.3135    0.2463 C   0  0  0  0  0  0  0  0  0  0  0  0
   -6.6165   -4.4110   -0.8229 C   0  0  0  0  0  0  0  0  0  0  0  0
   -5.7272   -3.3598   -0.6080 C   0  0  0  0  0  0  0  0  0  0  0  0
   -5.0203   -2.2378   -1.6654 S   0  0  0  0  0  0  0  0  0  0  0  0
   -3.8671   -1.7885   -0.4990 C   0  0  0  0  0  0  0  0  0  0  0  0
   -2.5359   -1.2564   -0.6019 C   0  0  0  0  0  0  0  0  0  0  0  0
   -1.8361   -1.6570    0.5397 C   0  0  0  0  0  0  0  0  0  0  0  0
   -2.6749   -2.5565    1.4442 C   0  0  0  0  0  0  0  0  0  0  0  0
   -2.1104   -4.0107    1.4764 C   0  0  0  0  0  0  0  0  0  0  0  0
   -0.7124   -4.1644    2.0773 C   0  0  0  0  0  0  0  0  0  0  0  0
   -2.8466   -1.8883    2.8353 C   0  0  0  0  0  0  0  0  0  0  0  0
   -3.7108   -2.6749    3.8195 C   0  0  0  0  0  0  0  0  0  0  0  0
   -3.9722   -2.5270    0.6552 C   0  0  0  0  0  0  0  0  0  0  0  0
   -5.0461   -3.4065    0.5790 C   0  0  0  0  0  0  0  0  0  0  0  0
   -5.4880   -4.7686    1.4369 S   0  0  0  0  0  0  0  0  0  0  0  0
   -0.5380   -1.1799    0.7706 C   0  0  0  0  0  0  0  0  0  0  0  0
    0.0279   -0.3712   -0.2163 C   0  0  0  0  0  0  0  0  0  0  0  0
    1.2793    0.3157   -0.2096 C   0  0  0  0  0  0  0  0  0  0  0  0
    1.4053    1.0725   -1.3381 C   0  0  0  0  0  0  0  0  0  0  0  0
    0.1997    0.9428   -2.2531 C   0  0  0  0  0  0  0  0  0  0  0  0
   -0.6378   -0.0212   -1.3956 C   0  0  0  0  0  0  0  0  0  0  0  0
   -1.9687   -0.4405   -1.5924 C   0  0  0  0  0  0  0  0  0  0  0  0
   -0.5753    2.2839   -2.4045 C   0  0  0  0  0  0  0  0  0  0  0  0
    0.1651    3.3933   -3.1514 C   0  0  0  0  0  0  0  0  0  0  0  0
    0.6512    0.2797   -3.5855 C   0  0  0  0  0  0  0  0  0  0  0  0
   -0.4506    0.0897   -4.6313 C   0  0  0  0  0  0  0  0  0  0  0  0
    2.6475    1.6950   -1.3608 C   0  0  0  0  0  0  0  0  0  0  0  0
    3.4071    1.4364   -0.2487 C   0  0  0  0  0  0  0  0  0  0  0  0
    2.6173    0.3940    0.8307 S   0  0  0  0  0  0  0  0  0  0  0  0
    4.6281    2.0926   -0.1935 C   0  0  0  0  0  0  0  0  0  0  0  0
    4.8060    2.8867   -1.3297 C   0  0  0  0  0  0  0  0  0  0  0  0
    3.4650    2.7476   -2.3768 S   0  0  0  0  0  0  0  0  0  0  0  0
    5.8833    3.8681   -1.4895 C   0  0  0  0  0  0  0  0  0  0  0  0
    5.7488    5.1497   -1.0929 C   0  0  0  0  0  0  0  0  0  0  0  0
    4.6156    5.6815   -0.3214 C   0  0  0  0  0  0  0  0  0  0  0  0
    3.5134    5.1055   -0.1160 O   0  0  0  0  0  0  0  0  0  0  0  0
    4.9783    6.9735    0.2094 C   0  0  0  0  0  0  0  0  0  0  0  0
    4.1972    7.7913    1.0559 C   0  0  0  0  0  0  0  0  0  0  0  0
    4.8272    8.9546    1.4458 C   0  0  0  0  0  0  0  0  0  0  0  0
    6.1578    9.2949    1.0452 C   0  0  0  0  0  0  0  0  0  0  0  0
    6.9322    8.4941    0.2203 C   0  0  0  0  0  0  0  0  0  0  0  0
    6.2863    7.3047   -0.2259 C   0  0  0  0  0  0  0  0  0  0  0  0
    6.7822    6.2317   -1.1394 C   0  0  0  0  0  0  0  0  0  0  0  0
    7.8062    6.3329   -2.0247 C   0  0  0  0  0  0  0  0  0  0  0  0
    8.0473    5.3463   -3.0435 C   0  0  0  0  0  0  0  0  0  0  0  0
    8.2461    4.5607   -3.8708 N   0  0  0  0  0  0  0  0  0  0  0  0
    8.6501    7.4956   -2.1067 C   0  0  0  0  0  0  0  0  0  0  0  0
    9.3370    8.4239   -2.1911 N   0  0  0  0  0  0  0  0  0  0  0  0
    6.0841   10.5735    1.8306 C   0  0  0  0  0  0  0  0  0  0  0  0
    5.9104   11.9022    1.0347 C   0  0  0  0  0  0  0  0  0  0  0  0
    5.1637   11.6385   -0.2534 C   0  0  0  0  0  0  0  0  0  0  0  0
    3.9155   11.3139    0.0907 C   0  0  0  0  0  0  0  0  0  0  0  0
    3.8542   11.3755    1.6022 C   0  0  0  0  0  0  0  0  0  0  0  0
    4.7885   12.5473    1.8329 C   0  0  0  0  0  0  0  0  0  0  0  0
    4.7124   10.2303    2.2225 C   0  0  0  0  0  0  0  0  0  0  0  0
   -8.3116   -6.6257   -0.0288 H   0  0  0  0  0  0  0  0  0  0  0  0
   -7.1601   -4.5750   -1.7436 H   0  0  0  0  0  0  0  0  0  0  0  0
   -2.7905   -4.6672    2.0531 H   0  0  0  0  0  0  0  0  0  0  0  0
   -2.0835   -4.4235    0.4414 H   0  0  0  0  0  0  0  0  0  0  0  0
   -0.6425   -3.6758    3.0715 H   0  0  0  0  0  0  0  0  0  0  0  0
   -0.4908   -5.2440    2.2032 H   0  0  0  0  0  0  0  0  0  0  0  0
    0.0625   -3.7548    1.3941 H   0  0  0  0  0  0  0  0  0  0  0  0
   -3.3048   -0.8831    2.7048 H   0  0  0  0  0  0  0  0  0  0  0  0
   -1.8534   -1.7196    3.3023 H   0  0  0  0  0  0  0  0  0  0  0  0
   -3.8065   -2.0943    4.7619 H   0  0  0  0  0  0  0  0  0  0  0  0
   -4.7284   -2.8338    3.4110 H   0  0  0  0  0  0  0  0  0  0  0  0
   -3.2377   -3.6488    4.0740 H   0  0  0  0  0  0  0  0  0  0  0  0
   -0.0026   -1.4008    1.6821 H   0  0  0  0  0  0  0  0  0  0  0  0
   -2.5495   -0.1167   -2.4442 H   0  0  0  0  0  0  0  0  0  0  0  0
   -1.5348    2.0943   -2.9328 H   0  0  0  0  0  0  0  0  0  0  0  0
   -0.8461    2.6701   -1.3963 H   0  0  0  0  0  0  0  0  0  0  0  0
    0.9497    3.8309   -2.5047 H   0  0  0  0  0  0  0  0  0  0  0  0
    0.6013    3.0307   -4.1036 H   0  0  0  0  0  0  0  0  0  0  0  0
   -0.5499    4.2070   -3.3932 H   0  0  0  0  0  0  0  0  0  0  0  0
    1.4647    0.8838   -4.0451 H   0  0  0  0  0  0  0  0  0  0  0  0
    1.0902   -0.7197   -3.3653 H   0  0  0  0  0  0  0  0  0  0  0  0
   -1.2346   -0.6019   -4.2648 H   0  0  0  0  0  0  0  0  0  0  0  0
   -0.0078   -0.3661   -5.5440 H   0  0  0  0  0  0  0  0  0  0  0  0
   -0.9009    1.0614   -4.9246 H   0  0  0  0  0  0  0  0  0  0  0  0
    5.3177    2.0422    0.6390 H   0  0  0  0  0  0  0  0  0  0  0  0
    6.8232    3.4944   -1.8591 H   0  0  0  0  0  0  0  0  0  0  0  0
    3.1995    7.5309    1.3805 H   0  0  0  0  0  0  0  0  0  0  0  0
    7.9440    8.7722   -0.0188 H   0  0  0  0  0  0  0  0  0  0  0  0
    6.7953   10.6265    2.6861 H   0  0  0  0  0  0  0  0  0  0  0  0
    6.8282   12.5169    0.9288 H   0  0  0  0  0  0  0  0  0  0  0  0
    5.5358   11.7568   -1.2664 H   0  0  0  0  0  0  0  0  0  0  0  0
    3.0954   11.1237   -0.5955 H   0  0  0  0  0  0  0  0  0  0  0  0
    2.8341   11.4856    2.0283 H   0  0  0  0  0  0  0  0  0  0  0  0
    5.0402   12.7086    2.9101 H   0  0  0  0  0  0  0  0  0  0  0  0
    4.4168   13.5020    1.3884 H   0  0  0  0  0  0  0  0  0  0  0  0
    4.5842   10.0835    3.3185 H   0  0  0  0  0  0  0  0  0  0  0  0
  1  2  2  3
  2  3  1  0
  3  4  2  0
  3  5  1  0
  5  6  2  0
  6  7  1  0
  6  8  1  0
  8  9  1  0
  8 10  2  0
 10 11  1  0
 10 12  1  0
 12 13  1  0
 12 14  2  0
 14 15  1  0
 15 16  2  3
 16 17  1  0
 17 18  3  0
 16 19  1  0
 19 20  3  0
  1 21  1  0
 21 22  2  0
 22 23  1  0
 23 24  1  0
 24 25  1  0
 25 26  1  0
 26 27  2  0
 27 28  1  0
 28 29  1  0
 29 30  1  0
 28 31  1  0
 31 32  1  0
 28 33  1  0
 33 34  1  0
 34 35  1  0
 27 36  1  0
 36 37  2  0
 37 38  1  0
 38 39  2  0
 39 40  1  0
 40 41  1  0
 41 42  2  0
 40 43  1  0
 43 44  1  0
 40 45  1  0
 45 46  1  0
 39 47  1  0
 47 48  2  0
 48 49  1  0
 48 50  1  0
 50 51  2  0
 51 52  1  0
 51 53  1  0
 53 54  2  3
 54 55  1  0
 55 56  2  0
 55 57  1  0
 57 58  2  0
 58 59  1  0
 59 60  2  0
 60 61  1  0
 61 62  2  0
 62 63  1  0
 63 64  2  3
 64 65  1  0
 65 66  3  0
 64 67  1  0
 67 68  3  0
 60 69  1  0
 69 70  1  0
 70 71  1  0
 71 72  2  0
 72 73  1  0
 73 74  1  0
 73 75  1  0
 15  2  1  0
 35 21  1  0
 41 37  1  0
 52 47  1  0
 63 54  1  0
 75 69  1  0
 14  5  1  0
 34 23  2  0
 49 38  1  0
 62 57  1  0
 74 70  1  0
 33 25  2  0
 75 59  1  0
 42 26  1  0
  1 76  1  0
 22 77  1  0
 29 78  1  0
 29 79  1  0
 30 80  1  0
 30 81  1  0
 30 82  1  0
 31 83  1  0
 31 84  1  0
 32 85  1  0
 32 86  1  0
 32 87  1  0
 36 88  1  0
 42 89  1  0
 43 90  1  0
 43 91  1  0
 44 92  1  0
 44 93  1  0
 44 94  1  0
 45 95  1  0
 45 96  1  0
 46 97  1  0
 46 98  1  0
 46 99  1  0
 50100  1  0
 53101  1  0
 58102  1  0
 61103  1  0
 69104  1  0
 70105  1  0
 71106  1  0
 72107  1  0
 73108  1  0
 74109  1  0
 74110  1  0
 75111  1  0
M  END

