
     RDKit          3D

117130  0  0  0  0  0  0  0  0999 V2000
    7.7079    0.8375    0.6512 C   0  0  0  0  0  0  0  0  0  0  0  0
    8.8024    0.1817    0.2210 C   0  0  0  0  0  0  0  0  0  0  0  0
    8.8841   -1.2520   -0.0793 C   0  0  0  0  0  0  0  0  0  0  0  0
    8.0290   -2.1206    0.2315 O   0  0  0  0  0  0  0  0  0  0  0  0
   10.1167   -1.4929   -0.8134 C   0  0  0  0  0  0  0  0  0  0  0  0
   10.5336   -2.6602   -1.4634 C   0  0  0  0  0  0  0  0  0  0  0  0
    9.6426   -4.1709   -1.2601 Cl  0  0  0  0  0  0  0  0  0  0  0  0
   11.6496   -2.5889   -2.3200 C   0  0  0  0  0  0  0  0  0  0  0  0
   12.2102   -4.0410   -3.1509 Cl  0  0  0  0  0  0  0  0  0  0  0  0
   12.2808   -1.3452   -2.5575 C   0  0  0  0  0  0  0  0  0  0  0  0
   13.5978   -1.2382   -3.7235 Cl  0  0  0  0  0  0  0  0  0  0  0  0
   11.8249   -0.1793   -1.9046 C   0  0  0  0  0  0  0  0  0  0  0  0
   12.4261    1.3999   -2.4302 Cl  0  0  0  0  0  0  0  0  0  0  0  0
   10.7964   -0.2949   -0.9507 C   0  0  0  0  0  0  0  0  0  0  0  0
   10.1132    0.7675   -0.1668 C   0  0  0  0  0  0  0  0  0  0  0  0
   10.7278    1.8072    0.4536 C   0  0  0  0  0  0  0  0  0  0  0  0
   10.0122    2.8011    1.2232 C   0  0  0  0  0  0  0  0  0  0  0  0
    9.4594    3.6110    1.8394 N   0  0  0  0  0  0  0  0  0  0  0  0
   12.1618    1.8531    0.5712 C   0  0  0  0  0  0  0  0  0  0  0  0
   13.3136    1.8709    0.6751 N   0  0  0  0  0  0  0  0  0  0  0  0
    6.4399    0.1624    0.9356 C   0  0  0  0  0  0  0  0  0  0  0  0
    6.0307   -0.2941    2.1957 C   0  0  0  0  0  0  0  0  0  0  0  0
    6.8468   -0.2369    3.4177 C   0  0  0  0  0  0  0  0  0  0  0  0
    7.5084   -1.4038    3.8285 C   0  0  0  0  0  0  0  0  0  0  0  0
    8.2987   -1.4012    4.9790 C   0  0  0  0  0  0  0  0  0  0  0  0
    8.4253   -0.2367    5.7335 C   0  0  0  0  0  0  0  0  0  0  0  0
    7.7642    0.9303    5.3412 C   0  0  0  0  0  0  0  0  0  0  0  0
    6.9814    0.9538    4.1741 C   0  0  0  0  0  0  0  0  0  0  0  0
    6.2709    2.2366    3.8034 C   0  0  0  0  0  0  0  0  0  0  0  0
    4.9141    2.3359    4.5016 C   0  0  0  0  0  0  0  0  0  0  0  0
    4.7037   -0.7208    2.1618 C   0  0  0  0  0  0  0  0  0  0  0  0
    3.5848   -1.0990    3.3886 S   0  0  0  0  0  0  0  0  0  0  0  0
    2.3144   -1.1434    2.2628 C   0  0  0  0  0  0  0  0  0  0  0  0
    0.9641   -0.9219    2.3061 C   0  0  0  0  0  0  0  0  0  0  0  0
    0.1027   -0.6723    3.3850 C   0  0  0  0  0  0  0  0  0  0  0  0
   -1.2043   -0.1502    3.1171 C   0  0  0  0  0  0  0  0  0  0  0  0
   -2.0081    0.0769    4.1837 N   0  0  0  0  0  0  0  0  0  0  0  0
   -0.9832   -0.3874    5.4005 S   0  0  0  0  0  0  0  0  0  0  0  0
    0.4322   -0.8680    4.6843 N   0  0  0  0  0  0  0  0  0  0  0  0
   -1.5777    0.0768    1.7870 C   0  0  0  0  0  0  0  0  0  0  0  0
   -2.7888    0.3504    1.2141 C   0  0  0  0  0  0  0  0  0  0  0  0
   -4.4037    0.4567    1.7267 S   0  0  0  0  0  0  0  0  0  0  0  0
   -4.9411    0.1707    0.1313 C   0  0  0  0  0  0  0  0  0  0  0  0
   -6.2023   -0.0348   -0.4197 C   0  0  0  0  0  0  0  0  0  0  0  0
   -7.4554    0.2773    0.2871 C   0  0  0  0  0  0  0  0  0  0  0  0
   -7.9197    1.6139    0.3900 C   0  0  0  0  0  0  0  0  0  0  0  0
   -7.1303    2.7406   -0.2631 C   0  0  0  0  0  0  0  0  0  0  0  0
   -7.8942    4.0513   -0.4581 C   0  0  0  0  0  0  0  0  0  0  0  0
   -9.0723    1.8674    1.1629 C   0  0  0  0  0  0  0  0  0  0  0  0
   -9.7602    0.8217    1.7786 C   0  0  0  0  0  0  0  0  0  0  0  0
   -9.3068   -0.4906    1.6495 C   0  0  0  0  0  0  0  0  0  0  0  0
   -8.1577   -0.7640    0.9107 C   0  0  0  0  0  0  0  0  0  0  0  0
   -6.1073   -0.4771   -1.7515 C   0  0  0  0  0  0  0  0  0  0  0  0
   -4.4610   -0.5265   -2.2297 S   0  0  0  0  0  0  0  0  0  0  0  0
   -3.8969   -0.0447   -0.7303 C   0  0  0  0  0  0  0  0  0  0  0  0
   -2.6640    0.0894   -0.1162 C   0  0  0  0  0  0  0  0  0  0  0  0
   -1.4164   -0.3227   -0.4596 N   0  0  0  0  0  0  0  0  0  0  0  0
   -0.7269   -0.2302    0.7193 C   0  0  0  0  0  0  0  0  0  0  0  0
    0.5990   -0.6170    0.9891 C   0  0  0  0  0  0  0  0  0  0  0  0
    1.6976   -0.4697    0.1870 N   0  0  0  0  0  0  0  0  0  0  0  0
    2.7226   -0.8439    0.9950 C   0  0  0  0  0  0  0  0  0  0  0  0
    4.0884   -0.5949    0.9424 C   0  0  0  0  0  0  0  0  0  0  0  0
    5.1461    0.0803   -0.1704 S   0  0  0  0  0  0  0  0  0  0  0  0
    1.8233    0.4919   -0.9202 C   0  0  0  0  0  0  0  0  0  0  0  0
    2.0394    1.9053   -0.3796 C   0  0  0  0  0  0  0  0  0  0  0  0
   -1.1333   -1.2547   -1.5631 C   0  0  0  0  0  0  0  0  0  0  0  0
   -1.6870   -2.6475   -1.2599 C   0  0  0  0  0  0  0  0  0  0  0  0
   -7.2576   -0.7528   -2.6310 C   0  0  0  0  0  0  0  0  0  0  0  0
   -7.2545   -1.6374   -3.6466 C   0  0  0  0  0  0  0  0  0  0  0  0
   -8.1536   -1.5122   -4.7928 C   0  0  0  0  0  0  0  0  0  0  0  0
   -9.2065   -0.8178   -4.8366 O   0  0  0  0  0  0  0  0  0  0  0  0
   -7.5708   -2.2368   -5.9058 C   0  0  0  0  0  0  0  0  0  0  0  0
   -7.9861   -2.2547   -7.2397 C   0  0  0  0  0  0  0  0  0  0  0  0
   -7.1887   -2.9254   -8.1760 C   0  0  0  0  0  0  0  0  0  0  0  0
   -7.6580   -2.9563   -9.8625 Cl  0  0  0  0  0  0  0  0  0  0  0  0
   -5.9887   -3.5437   -7.7702 C   0  0  0  0  0  0  0  0  0  0  0  0
   -5.5843   -3.5055   -6.4251 C   0  0  0  0  0  0  0  0  0  0  0  0
   -6.4036   -2.8553   -5.4890 C   0  0  0  0  0  0  0  0  0  0  0  0
   -6.2220   -2.6464   -4.0291 C   0  0  0  0  0  0  0  0  0  0  0  0
   -5.5831   -3.4915   -3.1795 C   0  0  0  0  0  0  0  0  0  0  0  0
   -4.7123   -4.5404   -3.6426 C   0  0  0  0  0  0  0  0  0  0  0  0
   -4.0116   -5.3900   -4.0016 N   0  0  0  0  0  0  0  0  0  0  0  0
   -5.8462   -3.4906   -1.7637 C   0  0  0  0  0  0  0  0  0  0  0  0
   -6.0533   -3.5000   -0.6234 N   0  0  0  0  0  0  0  0  0  0  0  0
    7.7013    1.9154    0.7254 H   0  0  0  0  0  0  0  0  0  0  0  0
    7.4190   -2.3144    3.2466 H   0  0  0  0  0  0  0  0  0  0  0  0
    8.8090   -2.3016    5.2856 H   0  0  0  0  0  0  0  0  0  0  0  0
    9.0272   -0.2386    6.6324 H   0  0  0  0  0  0  0  0  0  0  0  0
    7.8715    1.8253    5.9453 H   0  0  0  0  0  0  0  0  0  0  0  0
    6.8942    3.1109    4.0979 H   0  0  0  0  0  0  0  0  0  0  0  0
    6.1220    2.3173    2.7056 H   0  0  0  0  0  0  0  0  0  0  0  0
    5.0193    2.1585    5.5907 H   0  0  0  0  0  0  0  0  0  0  0  0
    4.4963    3.3530    4.3492 H   0  0  0  0  0  0  0  0  0  0  0  0
    4.2047    1.6043    4.0722 H   0  0  0  0  0  0  0  0  0  0  0  0
   -6.2209    2.9441    0.3444 H   0  0  0  0  0  0  0  0  0  0  0  0
   -6.7942    2.4116   -1.2745 H   0  0  0  0  0  0  0  0  0  0  0  0
   -7.2816    4.7436   -1.0707 H   0  0  0  0  0  0  0  0  0  0  0  0
   -8.0844    4.5476    0.5208 H   0  0  0  0  0  0  0  0  0  0  0  0
   -8.8487    3.8688   -0.9935 H   0  0  0  0  0  0  0  0  0  0  0  0
   -9.4491    2.8698    1.3035 H   0  0  0  0  0  0  0  0  0  0  0  0
  -10.6453    1.0267    2.3641 H   0  0  0  0  0  0  0  0  0  0  0  0
   -9.8372   -1.2968    2.1362 H   0  0  0  0  0  0  0  0  0  0  0  0
   -7.7979   -1.7833    0.8387 H   0  0  0  0  0  0  0  0  0  0  0  0
    2.6679    0.2012   -1.5814 H   0  0  0  0  0  0  0  0  0  0  0  0
    0.9164    0.5228   -1.5462 H   0  0  0  0  0  0  0  0  0  0  0  0
    2.9624    1.9645    0.2351 H   0  0  0  0  0  0  0  0  0  0  0  0
    2.1359    2.6157   -1.2301 H   0  0  0  0  0  0  0  0  0  0  0  0
    1.1743    2.2132    0.2429 H   0  0  0  0  0  0  0  0  0  0  0  0
   -1.5672   -0.8598   -2.5030 H   0  0  0  0  0  0  0  0  0  0  0  0
   -0.0483   -1.3738   -1.7225 H   0  0  0  0  0  0  0  0  0  0  0  0
   -1.6066   -3.2812   -2.1674 H   0  0  0  0  0  0  0  0  0  0  0  0
   -1.0772   -3.1136   -0.4507 H   0  0  0  0  0  0  0  0  0  0  0  0
   -2.7484   -2.6137   -0.9410 H   0  0  0  0  0  0  0  0  0  0  0  0
   -8.1207   -0.1087   -2.5111 H   0  0  0  0  0  0  0  0  0  0  0  0
   -8.8935   -1.7444   -7.5417 H   0  0  0  0  0  0  0  0  0  0  0  0
   -5.3531   -4.0314   -8.5018 H   0  0  0  0  0  0  0  0  0  0  0  0
   -4.6360   -3.9381   -6.1508 H   0  0  0  0  0  0  0  0  0  0  0  0
  1  2  2  3
  2  3  1  0
  3  4  2  0
  3  5  1  0
  5  6  2  0
  6  7  1  0
  6  8  1  0
  8  9  1  0
  8 10  2  0
 10 11  1  0
 10 12  1  0
 12 13  1  0
 12 14  2  0
 14 15  1  0
 15 16  2  3
 16 17  1  0
 17 18  3  0
 16 19  1  0
 19 20  3  0
  1 21  1  0
 21 22  2  0
 22 23  1  0
 23 24  2  0
 24 25  1  0
 25 26  2  0
 26 27  1  0
 27 28  2  0
 28 29  1  0
 29 30  1  0
 22 31  1  0
 31 32  1  0
 32 33  1  0
 33 34  1  0
 34 35  1  0
 35 36  1  0
 36 37  2  0
 37 38  1  0
 38 39  1  0
 36 40  1  0
 40 41  1  0
 41 42  1  0
 42 43  1  0
 43 44  1  0
 44 45  1  0
 45 46  2  0
 46 47  1  0
 47 48  1  0
 46 49  1  0
 49 50  2  0
 50 51  1  0
 51 52  2  0
 44 53  2  0
 53 54  1  0
 54 55  1  0
 55 56  1  0
 56 57  1  0
 57 58  1  0
 58 59  1  0
 59 60  1  0
 60 61  1  0
 61 62  1  0
 62 63  1  0
 60 64  1  0
 64 65  1  0
 57 66  1  0
 66 67  1  0
 53 68  1  0
 68 69  2  3
 69 70  1  0
 70 71  2  0
 70 72  1  0
 72 73  2  0
 73 74  1  0
 74 75  1  0
 74 76  2  0
 76 77  1  0
 77 78  2  0
 78 79  1  0
 79 80  2  3
 80 81  1  0
 81 82  3  0
 80 83  1  0
 83 84  3  0
 15  2  1  0
 63 21  1  0
 79 69  1  0
 14  5  1  0
 28 23  1  0
 62 31  2  0
 78 72  1  0
 61 33  2  0
 59 34  2  0
 39 35  2  0
 58 40  2  0
 56 41  2  0
 55 43  2  0
 52 45  1  0
  1 85  1  0
 24 86  1  0
 25 87  1  0
 26 88  1  0
 27 89  1  0
 29 90  1  0
 29 91  1  0
 30 92  1  0
 30 93  1  0
 30 94  1  0
 47 95  1  0
 47 96  1  0
 48 97  1  0
 48 98  1  0
 48 99  1  0
 49100  1  0
 50101  1  0
 51102  1  0
 52103  1  0
 64104  1  0
 64105  1  0
 65106  1  0
 65107  1  0
 65108  1  0
 66109  1  0
 66110  1  0
 67111  1  0
 67112  1  0
 67113  1  0
 68114  1  0
 73115  1  0
 76116  1  0
 77117  1  0
M  END

