
     RDKit          3D

 97108  0  0  0  0  0  0  0  0999 V2000
   -2.5976    4.5683   -4.7321 C   0  0  0  0  0  0  0  0  0  0  0  0
   -1.8348    5.7635   -4.9571 C   0  0  0  0  0  0  0  0  0  0  0  0
   -2.4929    6.9671   -5.0031 C   0  0  0  0  0  0  0  0  0  0  0  0
   -3.7327    7.2167   -4.6631 O   0  0  0  0  0  0  0  0  0  0  0  0
   -1.5882    7.8832   -5.4852 C   0  0  0  0  0  0  0  0  0  0  0  0
   -1.7555    9.3293   -5.6980 C   0  0  0  0  0  0  0  0  0  0  0  0
   -3.3188    9.9783   -5.3533 Cl  0  0  0  0  0  0  0  0  0  0  0  0
   -0.6806    9.9719   -6.1212 C   0  0  0  0  0  0  0  0  0  0  0  0
   -0.9133   11.7351   -6.3934 Cl  0  0  0  0  0  0  0  0  0  0  0  0
    0.5273    9.4449   -6.3640 C   0  0  0  0  0  0  0  0  0  0  0  0
    1.9139   10.3160   -6.9137 Cl  0  0  0  0  0  0  0  0  0  0  0  0
    0.6279    8.0046   -6.1327 C   0  0  0  0  0  0  0  0  0  0  0  0
    2.3367    7.5284   -5.9973 Cl  0  0  0  0  0  0  0  0  0  0  0  0
   -0.4134    7.3275   -5.7335 C   0  0  0  0  0  0  0  0  0  0  0  0
   -0.5306    5.5601   -5.3351 C   0  0  0  0  0  0  0  0  0  0  0  0
    0.6756    5.3834   -5.7005 C   0  0  0  0  0  0  0  0  0  0  0  0
    1.5715    4.4943   -4.8461 C   0  0  0  0  0  0  0  0  0  0  0  0
    2.3147    3.7825   -4.1591 N   0  0  0  0  0  0  0  0  0  0  0  0
    1.3222    5.5106   -6.9253 C   0  0  0  0  0  0  0  0  0  0  0  0
    1.9686    5.6362   -8.1016 N   0  0  0  0  0  0  0  0  0  0  0  0
   -1.9439    3.2674   -4.6492 C   0  0  0  0  0  0  0  0  0  0  0  0
   -1.0573    2.6229   -5.3623 C   0  0  0  0  0  0  0  0  0  0  0  0
   -0.8755    2.8919   -6.8695 C   0  0  0  0  0  0  0  0  0  0  0  0
   -1.8758    1.9553   -7.6166 C   0  0  0  0  0  0  0  0  0  0  0  0
   -0.4911    1.5197   -4.8648 C   0  0  0  0  0  0  0  0  0  0  0  0
    1.0409    0.3022   -5.3483 Se  0  0  0  0  0  2  0  0  0  0  0  0
    0.8566   -0.6024   -3.7616 C   0  0  0  0  0  0  0  0  0  0  0  0
    1.4362   -1.6607   -3.0465 C   0  0  0  0  0  0  0  0  0  0  0  0
    2.5051   -2.3676   -3.4104 C   0  0  0  0  0  0  0  0  0  0  0  0
    2.9947   -3.3603   -2.4589 C   0  0  0  0  0  0  0  0  0  0  0  0
    4.0243   -4.0061   -2.8257 N   0  0  0  0  0  0  0  0  0  0  0  0
    4.4575   -3.4808   -4.3397 S   0  0  0  0  0  0  0  0  0  0  0  0
    3.2681   -2.3650   -4.5156 N   0  0  0  0  0  0  0  0  0  0  0  0
    2.2547   -3.4157   -1.2818 C   0  0  0  0  0  0  0  0  0  0  0  0
    2.5444   -4.0160   -0.0874 C   0  0  0  0  0  0  0  0  0  0  0  0
    3.9044   -5.1201    0.7887 Se  0  0  0  0  0  2  0  0  0  0  0  0
    2.8972   -4.8134    2.6257 C   0  0  0  0  0  0  0  0  0  0  0  0
    3.2749   -5.1472    3.8456 C   0  0  0  0  0  0  0  0  0  0  0  0
    4.4452   -5.9656    4.2606 C   0  0  0  0  0  0  0  0  0  0  0  0
    5.6647   -5.0520    4.2183 C   0  0  0  0  0  0  0  0  0  0  0  0
    2.4795   -4.5865    4.7818 C   0  0  0  0  0  0  0  0  0  0  0  0
    1.3086   -3.6885    3.7923 S   0  0  0  0  0  0  0  0  0  0  0  0
    1.9917   -4.1197    2.1910 C   0  0  0  0  0  0  0  0  0  0  0  0
    1.7189   -3.6841    0.9280 C   0  0  0  0  0  0  0  0  0  0  0  0
    0.8286   -2.8345    0.2759 N   0  0  0  0  0  0  0  0  0  0  0  0
    1.1392   -2.6550   -0.9668 C   0  0  0  0  0  0  0  0  0  0  0  0
    0.6675   -1.6915   -1.8952 C   0  0  0  0  0  0  0  0  0  0  0  0
   -0.2734   -0.7611   -1.9044 N   0  0  0  0  0  0  0  0  0  0  0  0
   -0.1604   -0.0394   -3.1132 C   0  0  0  0  0  0  0  0  0  0  0  0
   -0.8114    1.0477   -3.7067 C   0  0  0  0  0  0  0  0  0  0  0  0
   -2.0110    2.2519   -3.2231 S   0  0  0  0  0  0  0  0  0  0  0  0
   -1.3221   -0.4747   -0.9788 C   0  0  0  0  0  0  0  0  0  0  0  0
   -1.1233    0.5971    0.0260 C   0  0  0  0  0  0  0  0  0  0  0  0
   -0.4624   -2.5144    0.9032 C   0  0  0  0  0  0  0  0  0  0  0  0
   -1.4773   -3.5548    0.3595 C   0  0  0  0  0  0  0  0  0  0  0  0
    2.4489   -4.3491    6.2393 C   0  0  0  0  0  0  0  0  0  0  0  0
    1.2442   -4.3861    6.8140 C   0  0  0  0  0  0  0  0  0  0  0  0
    0.0107   -4.6821    6.1167 C   0  0  0  0  0  0  0  0  0  0  0  0
   -0.1347   -5.3865    5.1043 O   0  0  0  0  0  0  0  0  0  0  0  0
   -1.1384   -3.9803    6.8395 C   0  0  0  0  0  0  0  0  0  0  0  0
   -2.4365   -4.0088    6.3937 C   0  0  0  0  0  0  0  0  0  0  0  0
   -2.9597   -4.9368    5.0228 Cl  0  0  0  0  0  0  0  0  0  0  0  0
   -3.3248   -3.2069    7.1557 C   0  0  0  0  0  0  0  0  0  0  0  0
   -4.9889   -3.1806    6.6579 Cl  0  0  0  0  0  0  0  0  0  0  0  0
   -2.7511   -2.5807    8.1399 C   0  0  0  0  0  0  0  0  0  0  0  0
   -3.9400   -1.4818    9.0661 Cl  0  0  0  0  0  0  0  0  0  0  0  0
   -1.5080   -2.4786    8.6643 C   0  0  0  0  0  0  0  0  0  0  0  0
   -1.0011   -1.5792    9.9202 Cl  0  0  0  0  0  0  0  0  0  0  0  0
   -0.5678   -3.3671    7.8416 C   0  0  0  0  0  0  0  0  0  0  0  0
    0.8607   -3.5072    7.9972 C   0  0  0  0  0  0  0  0  0  0  0  0
    1.7199   -3.2032    8.9404 C   0  0  0  0  0  0  0  0  0  0  0  0
    3.0595   -3.7135    8.9092 C   0  0  0  0  0  0  0  0  0  0  0  0
    4.2210   -4.1518    8.9012 N   0  0  0  0  0  0  0  0  0  0  0  0
    1.5581   -2.2995    9.9740 C   0  0  0  0  0  0  0  0  0  0  0  0
    1.4121   -1.4080   10.9658 N   0  0  0  0  0  0  0  0  0  0  0  0
   -3.6111    4.6095   -4.6615 H   0  0  0  0  0  0  0  0  0  0  0  0
   -1.2093    3.8879   -7.0937 H   0  0  0  0  0  0  0  0  0  0  0  0
    0.1114    2.6762   -7.2176 H   0  0  0  0  0  0  0  0  0  0  0  0
   -2.5567    2.5692   -8.2466 H   0  0  0  0  0  0  0  0  0  0  0  0
   -2.5184    1.4876   -6.8486 H   0  0  0  0  0  0  0  0  0  0  0  0
   -1.3351    1.1772   -8.1497 H   0  0  0  0  0  0  0  0  0  0  0  0
    4.6067   -6.7891    3.4857 H   0  0  0  0  0  0  0  0  0  0  0  0
    4.2923   -6.4679    5.2053 H   0  0  0  0  0  0  0  0  0  0  0  0
    6.6042   -5.5760    4.0319 H   0  0  0  0  0  0  0  0  0  0  0  0
    5.5664   -4.2488    3.4718 H   0  0  0  0  0  0  0  0  0  0  0  0
    5.6992   -4.5153    5.2254 H   0  0  0  0  0  0  0  0  0  0  0  0
   -1.9998   -1.3318   -0.7093 H   0  0  0  0  0  0  0  0  0  0  0  0
   -2.1870    0.0084   -1.6318 H   0  0  0  0  0  0  0  0  0  0  0  0
   -0.1211    0.5774    0.4952 H   0  0  0  0  0  0  0  0  0  0  0  0
   -1.2139    1.6330   -0.4190 H   0  0  0  0  0  0  0  0  0  0  0  0
   -1.9591    0.5895    0.7774 H   0  0  0  0  0  0  0  0  0  0  0  0
   -0.3937   -2.9416    2.0036 H   0  0  0  0  0  0  0  0  0  0  0  0
   -0.7944   -1.5875    1.0410 H   0  0  0  0  0  0  0  0  0  0  0  0
   -1.1769   -4.5803    0.6634 H   0  0  0  0  0  0  0  0  0  0  0  0
   -2.4928   -3.2812    0.5999 H   0  0  0  0  0  0  0  0  0  0  0  0
   -1.3131   -3.5715   -0.7603 H   0  0  0  0  0  0  0  0  0  0  0  0
    3.3524   -4.1455    6.6653 H   0  0  0  0  0  0  0  0  0  0  0  0
  1  2  2  3
  2  3  1  0
  3  4  2  0
  3  5  1  0
  5  6  2  0
  6  7  1  0
  6  8  1  0
  8  9  1  0
  8 10  2  0
 10 11  1  0
 10 12  1  0
 12 13  1  0
 12 14  2  0
 14 15  1  0
 15 16  2  3
 16 17  1  0
 17 18  3  0
 16 19  1  0
 19 20  3  0
  1 21  1  0
 21 22  2  0
 22 23  1  0
 23 24  1  0
 22 25  1  0
 25 26  1  0
 26 27  1  0
 27 28  1  0
 28 29  1  0
 29 30  1  0
 30 31  2  0
 31 32  1  0
 32 33  1  0
 30 34  1  0
 34 35  1  0
 35 36  1  0
 36 37  1  0
 37 38  1  0
 38 39  1  0
 39 40  1  0
 38 41  2  0
 41 42  1  0
 42 43  1  0
 43 44  1  0
 44 45  1  0
 45 46  1  0
 46 47  1  0
 47 48  1  0
 48 49  1  0
 49 50  1  0
 50 51  1  0
 48 52  1  0
 52 53  1  0
 45 54  1  0
 54 55  1  0
 41 56  1  0
 56 57  2  3
 57 58  1  0
 58 59  2  0
 58 60  1  0
 60 61  2  0
 61 62  1  0
 61 63  1  0
 63 64  1  0
 63 65  2  0
 65 66  1  0
 65 67  1  0
 67 68  1  0
 67 69  2  0
 69 70  1  0
 70 71  2  3
 71 72  1  0
 72 73  3  0
 71 74  1  0
 74 75  3  0
 15  2  1  0
 51 21  1  0
 70 57  1  0
 14  5  1  0
 50 25  2  0
 69 60  1  0
 49 27  2  0
 47 28  2  0
 33 29  2  0
 46 34  2  0
 44 35  2  0
 43 37  2  0
  1 76  1  0
 23 77  1  0
 23 78  1  0
 24 79  1  0
 24 80  1  0
 24 81  1  0
 39 82  1  0
 39 83  1  0
 40 84  1  0
 40 85  1  0
 40 86  1  0
 52 87  1  0
 52 88  1  0
 53 89  1  0
 53 90  1  0
 53 91  1  0
 54 92  1  0
 54 93  1  0
 55 94  1  0
 55 95  1  0
 55 96  1  0
 56 97  1  0
M  END

