
     RDKit          3D

127140  0  0  0  0  0  0  0  0999 V2000
    5.7958    2.7224   -4.1058 C   0  0  0  0  0  0  0  0  0  0  0  0
    5.2194    2.2346   -5.2192 C   0  0  0  0  0  0  0  0  0  0  0  0
    3.7939    1.9320   -5.4007 C   0  0  0  0  0  0  0  0  0  0  0  0
    2.9057    1.9735   -4.5069 O   0  0  0  0  0  0  0  0  0  0  0  0
    3.5354    1.7839   -6.8256 C   0  0  0  0  0  0  0  0  0  0  0  0
    2.3086    1.6045   -7.4769 C   0  0  0  0  0  0  0  0  0  0  0  0
    0.8360    1.2997   -6.5562 Cl  0  0  0  0  0  0  0  0  0  0  0  0
    2.2793    1.6771   -8.8834 C   0  0  0  0  0  0  0  0  0  0  0  0
    0.7629    1.4090   -9.7450 Cl  0  0  0  0  0  0  0  0  0  0  0  0
    3.4500    2.0191   -9.5984 C   0  0  0  0  0  0  0  0  0  0  0  0
    3.3788    2.2202  -11.3511 Cl  0  0  0  0  0  0  0  0  0  0  0  0
    4.6684    2.2326   -8.9159 C   0  0  0  0  0  0  0  0  0  0  0  0
    6.0088    3.0006   -9.7677 Cl  0  0  0  0  0  0  0  0  0  0  0  0
    4.7130    2.0012   -7.5242 C   0  0  0  0  0  0  0  0  0  0  0  0
    5.8468    2.1208   -6.5647 C   0  0  0  0  0  0  0  0  0  0  0  0
    7.1188    1.6979   -6.7836 C   0  0  0  0  0  0  0  0  0  0  0  0
    7.5091    1.0426   -8.0042 C   0  0  0  0  0  0  0  0  0  0  0  0
    7.8357    0.5067   -8.9788 N   0  0  0  0  0  0  0  0  0  0  0  0
    8.1070    1.6542   -5.7346 C   0  0  0  0  0  0  0  0  0  0  0  0
    8.9085    1.6146   -4.8967 N   0  0  0  0  0  0  0  0  0  0  0  0
    5.1772    2.6753   -2.7700 C   0  0  0  0  0  0  0  0  0  0  0  0
    5.1792    3.7219   -1.8349 C   0  0  0  0  0  0  0  0  0  0  0  0
    5.6279    5.0974   -2.1092 C   0  0  0  0  0  0  0  0  0  0  0  0
    6.8967    5.4853   -1.6538 C   0  0  0  0  0  0  0  0  0  0  0  0
    7.3546    6.7870   -1.8609 C   0  0  0  0  0  0  0  0  0  0  0  0
    6.5475    7.7164   -2.5177 C   0  0  0  0  0  0  0  0  0  0  0  0
    5.2789    7.3468   -2.9682 C   0  0  0  0  0  0  0  0  0  0  0  0
    4.8006    6.0389   -2.7730 C   0  0  0  0  0  0  0  0  0  0  0  0
    3.4201    5.6862   -3.2873 C   0  0  0  0  0  0  0  0  0  0  0  0
    3.4053    5.5987   -4.8121 C   0  0  0  0  0  0  0  0  0  0  0  0
    4.5717    3.3311   -0.6417 C   0  0  0  0  0  0  0  0  0  0  0  0
    4.0511    4.1997    0.7237 S   0  0  0  0  0  0  0  0  0  0  0  0
    3.2938    2.8163    1.3537 C   0  0  0  0  0  0  0  0  0  0  0  0
    2.2550    2.5884    2.2067 C   0  0  0  0  0  0  0  0  0  0  0  0
    1.5442    3.5047    2.9896 C   0  0  0  0  0  0  0  0  0  0  0  0
    0.2898    3.1149    3.5291 C   0  0  0  0  0  0  0  0  0  0  0  0
   -0.3929    4.0436    4.2436 N   0  0  0  0  0  0  0  0  0  0  0  0
    0.6639    5.3140    4.1271 S   0  0  0  0  0  0  0  0  0  0  0  0
    1.9449    4.7797    3.2233 N   0  0  0  0  0  0  0  0  0  0  0  0
   -0.1666    1.8205    3.2876 C   0  0  0  0  0  0  0  0  0  0  0  0
   -1.3243    1.2066    3.6570 C   0  0  0  0  0  0  0  0  0  0  0  0
   -2.8115    1.5816    4.3880 S   0  0  0  0  0  0  0  0  0  0  0  0
   -3.3766   -0.0010    4.0808 C   0  0  0  0  0  0  0  0  0  0  0  0
   -4.6216   -0.6152    4.2175 C   0  0  0  0  0  0  0  0  0  0  0  0
   -5.7924    0.0368    4.8270 C   0  0  0  0  0  0  0  0  0  0  0  0
   -6.8349    0.5897    4.0428 C   0  0  0  0  0  0  0  0  0  0  0  0
   -6.7701    0.6367    2.5323 C   0  0  0  0  0  0  0  0  0  0  0  0
   -6.1913    1.9633    2.0529 C   0  0  0  0  0  0  0  0  0  0  0  0
   -7.9344    1.1815    4.6887 C   0  0  0  0  0  0  0  0  0  0  0  0
   -8.0043    1.2204    6.0822 C   0  0  0  0  0  0  0  0  0  0  0  0
   -6.9731    0.6795    6.8500 C   0  0  0  0  0  0  0  0  0  0  0  0
   -5.8701    0.0929    6.2265 C   0  0  0  0  0  0  0  0  0  0  0  0
   -4.6130   -1.9108    3.6633 C   0  0  0  0  0  0  0  0  0  0  0  0
   -3.0651   -2.2471    3.0154 S   0  0  0  0  0  0  0  0  0  0  0  0
   -2.4260   -0.7634    3.4514 C   0  0  0  0  0  0  0  0  0  0  0  0
   -1.2586   -0.0613    3.2057 C   0  0  0  0  0  0  0  0  0  0  0  0
   -0.1009   -0.3441    2.5607 N   0  0  0  0  0  0  0  0  0  0  0  0
    0.5617    0.8669    2.5448 C   0  0  0  0  0  0  0  0  0  0  0  0
    1.7755    1.2924    1.9088 C   0  0  0  0  0  0  0  0  0  0  0  0
    2.4654    0.7799    0.8260 N   0  0  0  0  0  0  0  0  0  0  0  0
    3.3835    1.7403    0.5339 C   0  0  0  0  0  0  0  0  0  0  0  0
    4.1191    2.0355   -0.6138 C   0  0  0  0  0  0  0  0  0  0  0  0
    4.4556    1.2924   -2.0797 S   0  0  0  0  0  0  0  0  0  0  0  0
    2.1144   -0.3153   -0.0855 C   0  0  0  0  0  0  0  0  0  0  0  0
    0.7959   -0.0430   -0.8057 C   0  0  0  0  0  0  0  0  0  0  0  0
    0.3949   -1.7147    2.3722 C   0  0  0  0  0  0  0  0  0  0  0  0
    1.7313   -1.9378    3.0829 C   0  0  0  0  0  0  0  0  0  0  0  0
   -5.7773   -2.8724    3.6103 C   0  0  0  0  0  0  0  0  0  0  0  0
   -6.0058   -3.2633    2.1650 C   0  0  0  0  0  0  0  0  0  0  0  0
   -5.4546   -4.3602    1.6454 C   0  0  0  0  0  0  0  0  0  0  0  0
   -4.8202   -5.3393    2.5426 C   0  0  0  0  0  0  0  0  0  0  0  0
   -3.6835   -6.0000    2.2212 C   0  0  0  0  0  0  0  0  0  0  0  0
   -2.9332   -7.1636    3.1696 S   0  0  0  0  0  0  0  0  0  0  0  0
   -1.5988   -7.3942    2.1591 C   0  0  0  0  0  0  0  0  0  0  0  0
   -0.5911   -8.2527    2.4697 C   0  0  0  0  0  0  0  0  0  0  0  0
    0.5981   -8.4488    1.6826 C   0  0  0  0  0  0  0  0  0  0  0  0
    1.5595   -8.6218    1.0616 N   0  0  0  0  0  0  0  0  0  0  0  0
   -0.6568   -9.0421    3.6762 C   0  0  0  0  0  0  0  0  0  0  0  0
   -0.7106   -9.6766    4.6435 N   0  0  0  0  0  0  0  0  0  0  0  0
   -1.7164   -6.5785    1.0567 N   0  0  0  0  0  0  0  0  0  0  0  0
   -0.7448   -6.4105   -0.0409 C   0  0  0  0  0  0  0  0  0  0  0  0
    0.3367   -5.4039    0.3460 C   0  0  0  0  0  0  0  0  0  0  0  0
   -2.8554   -5.8088    1.1041 C   0  0  0  0  0  0  0  0  0  0  0  0
   -3.1094   -4.9508    0.2130 O   0  0  0  0  0  0  0  0  0  0  0  0
   -5.4867   -5.4556    3.8908 C   0  0  0  0  0  0  0  0  0  0  0  0
   -5.5299   -4.0768    4.5758 C   0  0  0  0  0  0  0  0  0  0  0  0
    6.7617    3.2032   -4.1719 H   0  0  0  0  0  0  0  0  0  0  0  0
    7.5312    4.7756   -1.1368 H   0  0  0  0  0  0  0  0  0  0  0  0
    8.3354    7.0771   -1.5078 H   0  0  0  0  0  0  0  0  0  0  0  0
    6.9033    8.7271   -2.6700 H   0  0  0  0  0  0  0  0  0  0  0  0
    4.6649    8.0833   -3.4704 H   0  0  0  0  0  0  0  0  0  0  0  0
    3.0561    4.7247   -2.8699 H   0  0  0  0  0  0  0  0  0  0  0  0
    2.6985    6.4670   -2.9631 H   0  0  0  0  0  0  0  0  0  0  0  0
    4.1966    4.9110   -5.1712 H   0  0  0  0  0  0  0  0  0  0  0  0
    2.4196    5.2177   -5.1553 H   0  0  0  0  0  0  0  0  0  0  0  0
    3.5721    6.6014   -5.2568 H   0  0  0  0  0  0  0  0  0  0  0  0
   -7.7899    0.5085    2.1068 H   0  0  0  0  0  0  0  0  0  0  0  0
   -6.1540   -0.1903    2.1252 H   0  0  0  0  0  0  0  0  0  0  0  0
   -6.8367    2.8066    2.3797 H   0  0  0  0  0  0  0  0  0  0  0  0
   -5.1660    2.1053    2.4559 H   0  0  0  0  0  0  0  0  0  0  0  0
   -6.1365    1.9662    0.9443 H   0  0  0  0  0  0  0  0  0  0  0  0
   -8.7374    1.6210    4.1101 H   0  0  0  0  0  0  0  0  0  0  0  0
   -8.8565    1.6761    6.5690 H   0  0  0  0  0  0  0  0  0  0  0  0
   -7.0291    0.7153    7.9303 H   0  0  0  0  0  0  0  0  0  0  0  0
   -5.0796   -0.3283    6.8359 H   0  0  0  0  0  0  0  0  0  0  0  0
    2.1351   -1.2804    0.4331 H   0  0  0  0  0  0  0  0  0  0  0  0
    2.8976   -0.4518   -0.8513 H   0  0  0  0  0  0  0  0  0  0  0  0
   -0.0474    0.0096   -0.0907 H   0  0  0  0  0  0  0  0  0  0  0  0
    0.5898   -0.8609   -1.5272 H   0  0  0  0  0  0  0  0  0  0  0  0
    0.8607    0.9158   -1.3620 H   0  0  0  0  0  0  0  0  0  0  0  0
    0.3977   -1.9932    1.3053 H   0  0  0  0  0  0  0  0  0  0  0  0
   -0.3078   -2.4388    2.8312 H   0  0  0  0  0  0  0  0  0  0  0  0
    2.5347   -1.2980    2.6710 H   0  0  0  0  0  0  0  0  0  0  0  0
    2.0385   -2.9996    2.9691 H   0  0  0  0  0  0  0  0  0  0  0  0
    1.6234   -1.7171    4.1662 H   0  0  0  0  0  0  0  0  0  0  0  0
   -6.6974   -2.3504    3.9507 H   0  0  0  0  0  0  0  0  0  0  0  0
   -6.5013   -2.5631    1.5054 H   0  0  0  0  0  0  0  0  0  0  0  0
   -5.5309   -4.5481    0.5816 H   0  0  0  0  0  0  0  0  0  0  0  0
   -1.2565   -6.0319   -0.9534 H   0  0  0  0  0  0  0  0  0  0  0  0
   -0.3168   -7.3769   -0.3586 H   0  0  0  0  0  0  0  0  0  0  0  0
    0.9377   -5.7737    1.1993 H   0  0  0  0  0  0  0  0  0  0  0  0
    1.0183   -5.2347   -0.5145 H   0  0  0  0  0  0  0  0  0  0  0  0
   -0.1310   -4.4383    0.6315 H   0  0  0  0  0  0  0  0  0  0  0  0
   -6.5269   -5.8138    3.7346 H   0  0  0  0  0  0  0  0  0  0  0  0
   -4.9939   -6.1843    4.5672 H   0  0  0  0  0  0  0  0  0  0  0  0
   -6.3313   -4.0956    5.3445 H   0  0  0  0  0  0  0  0  0  0  0  0
   -4.5764   -3.9419    5.1339 H   0  0  0  0  0  0  0  0  0  0  0  0
  1  2  2  3
  2  3  1  0
  3  4  2  0
  3  5  1  0
  5  6  2  0
  6  7  1  0
  6  8  1  0
  8  9  1  0
  8 10  2  0
 10 11  1  0
 10 12  1  0
 12 13  1  0
 12 14  2  0
 14 15  1  0
 15 16  2  3
 16 17  1  0
 17 18  3  0
 16 19  1  0
 19 20  3  0
  1 21  1  0
 21 22  2  0
 22 23  1  0
 23 24  2  0
 24 25  1  0
 25 26  2  0
 26 27  1  0
 27 28  2  0
 28 29  1  0
 29 30  1  0
 22 31  1  0
 31 32  1  0
 32 33  1  0
 33 34  1  0
 34 35  1  0
 35 36  1  0
 36 37  2  0
 37 38  1  0
 38 39  1  0
 36 40  1  0
 40 41  1  0
 41 42  1  0
 42 43  1  0
 43 44  1  0
 44 45  1  0
 45 46  2  0
 46 47  1  0
 47 48  1  0
 46 49  1  0
 49 50  2  0
 50 51  1  0
 51 52  2  0
 44 53  2  0
 53 54  1  0
 54 55  1  0
 55 56  1  0
 56 57  1  0
 57 58  1  0
 58 59  1  0
 59 60  1  0
 60 61  1  0
 61 62  1  0
 62 63  1  0
 60 64  1  0
 64 65  1  0
 57 66  1  0
 66 67  1  0
 53 68  1  0
 68 69  1  0
 69 70  2  0
 70 71  1  0
 71 72  2  3
 72 73  1  0
 73 74  1  0
 74 75  2  3
 75 76  1  0
 76 77  3  0
 75 78  1  0
 78 79  3  0
 74 80  1  0
 80 81  1  0
 81 82  1  0
 80 83  1  0
 83 84  2  0
 71 85  1  0
 85 86  1  0
 15  2  1  0
 63 21  1  0
 86 68  1  0
 14  5  1  0
 28 23  1  0
 62 31  2  0
 83 72  1  0
 61 33  2  0
 59 34  2  0
 39 35  2  0
 58 40  2  0
 56 41  2  0
 55 43  2  0
 52 45  1  0
  1 87  1  0
 24 88  1  0
 25 89  1  0
 26 90  1  0
 27 91  1  0
 29 92  1  0
 29 93  1  0
 30 94  1  0
 30 95  1  0
 30 96  1  0
 47 97  1  0
 47 98  1  0
 48 99  1  0
 48100  1  0
 48101  1  0
 49102  1  0
 50103  1  0
 51104  1  0
 52105  1  0
 64106  1  0
 64107  1  0
 65108  1  0
 65109  1  0
 65110  1  0
 66111  1  0
 66112  1  0
 67113  1  0
 67114  1  0
 67115  1  0
 68116  1  0
 69117  1  0
 70118  1  0
 81119  1  0
 81120  1  0
 82121  1  0
 82122  1  0
 82123  1  0
 85124  1  0
 85125  1  0
 86126  1  0
 86127  1  0
M  END

