
     RDKit          3D

116128  0  0  0  0  0  0  0  0999 V2000
   -4.4153   -2.6626   -3.1751 C   0  0  0  0  0  0  0  0  0  0  0  0
   -4.2713   -2.9840   -4.4721 C   0  0  0  0  0  0  0  0  0  0  0  0
   -3.9776   -2.0588   -5.5704 C   0  0  0  0  0  0  0  0  0  0  0  0
   -4.2050   -0.8188   -5.5742 O   0  0  0  0  0  0  0  0  0  0  0  0
   -3.4073   -2.8209   -6.6707 C   0  0  0  0  0  0  0  0  0  0  0  0
   -2.7830   -2.3483   -7.8301 C   0  0  0  0  0  0  0  0  0  0  0  0
   -2.8326   -0.6335   -8.2498 Cl  0  0  0  0  0  0  0  0  0  0  0  0
   -2.0741   -3.2646   -8.6304 C   0  0  0  0  0  0  0  0  0  0  0  0
   -1.2938   -2.7151  -10.1147 Cl  0  0  0  0  0  0  0  0  0  0  0  0
   -1.9246   -4.6049   -8.2060 C   0  0  0  0  0  0  0  0  0  0  0  0
   -0.9101   -5.7094   -9.1355 Cl  0  0  0  0  0  0  0  0  0  0  0  0
   -2.5430   -5.0513   -7.0165 C   0  0  0  0  0  0  0  0  0  0  0  0
   -2.0564   -6.5929   -6.3111 Cl  0  0  0  0  0  0  0  0  0  0  0  0
   -3.3825   -4.1611   -6.3187 C   0  0  0  0  0  0  0  0  0  0  0  0
   -4.1099   -4.3493   -5.0351 C   0  0  0  0  0  0  0  0  0  0  0  0
   -4.8385   -5.4406   -4.6827 C   0  0  0  0  0  0  0  0  0  0  0  0
   -5.6600   -5.4727   -3.4990 C   0  0  0  0  0  0  0  0  0  0  0  0
   -6.3214   -5.5077   -2.5484 N   0  0  0  0  0  0  0  0  0  0  0  0
   -5.0138   -6.5502   -5.5832 C   0  0  0  0  0  0  0  0  0  0  0  0
   -5.1652   -7.4411   -6.3060 N   0  0  0  0  0  0  0  0  0  0  0  0
   -4.1482   -1.3192   -2.6360 C   0  0  0  0  0  0  0  0  0  0  0  0
   -4.8463   -0.7284   -1.5666 C   0  0  0  0  0  0  0  0  0  0  0  0
   -6.0513   -1.2915   -0.9330 C   0  0  0  0  0  0  0  0  0  0  0  0
   -5.9020   -2.3522   -0.0272 C   0  0  0  0  0  0  0  0  0  0  0  0
   -7.0176   -2.8944    0.6130 C   0  0  0  0  0  0  0  0  0  0  0  0
   -8.2904   -2.3850    0.3510 C   0  0  0  0  0  0  0  0  0  0  0  0
   -8.4538   -1.3329   -0.5538 C   0  0  0  0  0  0  0  0  0  0  0  0
   -7.3404   -0.7690   -1.1988 C   0  0  0  0  0  0  0  0  0  0  0  0
   -7.5598    0.3381   -2.2054 C   0  0  0  0  0  0  0  0  0  0  0  0
   -7.7108   -0.2298   -3.6123 C   0  0  0  0  0  0  0  0  0  0  0  0
   -4.1755    0.3929   -1.0826 C   0  0  0  0  0  0  0  0  0  0  0  0
   -4.3328    1.2967    0.3618 S   0  0  0  0  0  0  0  0  0  0  0  0
   -2.8307    2.0371    0.0801 C   0  0  0  0  0  0  0  0  0  0  0  0
   -1.8937    2.7550    0.7687 C   0  0  0  0  0  0  0  0  0  0  0  0
   -1.9448    3.4168    1.9952 C   0  0  0  0  0  0  0  0  0  0  0  0
   -0.7523    4.0158    2.4959 C   0  0  0  0  0  0  0  0  0  0  0  0
   -0.8372    4.6345    3.6990 N   0  0  0  0  0  0  0  0  0  0  0  0
   -2.4417    4.3962    4.0244 S   0  0  0  0  0  0  0  0  0  0  0  0
   -3.0619    3.5358    2.7529 N   0  0  0  0  0  0  0  0  0  0  0  0
    0.4391    3.8672    1.7694 C   0  0  0  0  0  0  0  0  0  0  0  0
    1.7322    4.0150    2.1880 C   0  0  0  0  0  0  0  0  0  0  0  0
    2.4599    4.2332    3.7092 S   0  0  0  0  0  0  0  0  0  0  0  0
    3.8676    3.4329    3.1940 C   0  0  0  0  0  0  0  0  0  0  0  0
    4.9996    2.9821    3.8736 C   0  0  0  0  0  0  0  0  0  0  0  0
    5.3144    3.3325    5.2719 C   0  0  0  0  0  0  0  0  0  0  0  0
    5.2758    2.3783    6.3218 C   0  0  0  0  0  0  0  0  0  0  0  0
    4.7855    0.9634    6.1133 C   0  0  0  0  0  0  0  0  0  0  0  0
    3.2694    0.8904    6.2730 C   0  0  0  0  0  0  0  0  0  0  0  0
    5.5963    2.7872    7.6290 C   0  0  0  0  0  0  0  0  0  0  0  0
    5.9488    4.1114    7.8941 C   0  0  0  0  0  0  0  0  0  0  0  0
    5.9716    5.0493    6.8629 C   0  0  0  0  0  0  0  0  0  0  0  0
    5.6513    4.6632    5.5594 C   0  0  0  0  0  0  0  0  0  0  0  0
    5.7698    2.1324    3.0625 C   0  0  0  0  0  0  0  0  0  0  0  0
    5.0291    1.9732    1.5358 S   0  0  0  0  0  0  0  0  0  0  0  0
    3.7367    2.9725    1.9094 C   0  0  0  0  0  0  0  0  0  0  0  0
    2.5146    3.3054    1.3274 C   0  0  0  0  0  0  0  0  0  0  0  0
    1.7977    2.7221    0.3300 N   0  0  0  0  0  0  0  0  0  0  0  0
    0.5041    3.1252    0.5747 C   0  0  0  0  0  0  0  0  0  0  0  0
   -0.7146    2.6566    0.0091 C   0  0  0  0  0  0  0  0  0  0  0  0
   -0.9484    1.9941   -1.1679 N   0  0  0  0  0  0  0  0  0  0  0  0
   -2.2353    1.5999   -1.0528 C   0  0  0  0  0  0  0  0  0  0  0  0
   -2.9984    0.6710   -1.7282 C   0  0  0  0  0  0  0  0  0  0  0  0
   -2.6918   -0.4708   -2.9098 S   0  0  0  0  0  0  0  0  0  0  0  0
   -0.2417    2.1473   -2.4456 C   0  0  0  0  0  0  0  0  0  0  0  0
   -1.0558    2.9791   -3.4394 C   0  0  0  0  0  0  0  0  0  0  0  0
    2.2607    1.5511   -0.4329 C   0  0  0  0  0  0  0  0  0  0  0  0
    3.2515    1.9590   -1.5265 C   0  0  0  0  0  0  0  0  0  0  0  0
    7.0788    1.5605    3.4276 C   0  0  0  0  0  0  0  0  0  0  0  0
    7.4382    0.2815    3.2311 C   0  0  0  0  0  0  0  0  0  0  0  0
    8.9905   -0.2887    3.4826 S   0  0  0  0  0  0  0  0  0  0  0  0
    8.6620   -1.8835    3.0119 C   0  0  0  0  0  0  0  0  0  0  0  0
    9.6307   -2.8369    2.9534 C   0  0  0  0  0  0  0  0  0  0  0  0
    9.4329   -4.1806    2.4748 C   0  0  0  0  0  0  0  0  0  0  0  0
    9.2945   -5.2624    2.0864 N   0  0  0  0  0  0  0  0  0  0  0  0
   10.9869   -2.5230    3.3342 C   0  0  0  0  0  0  0  0  0  0  0  0
   12.0783   -2.2730    3.6297 N   0  0  0  0  0  0  0  0  0  0  0  0
    7.3271   -2.0051    2.6979 N   0  0  0  0  0  0  0  0  0  0  0  0
    6.6232   -3.2102    2.2240 C   0  0  0  0  0  0  0  0  0  0  0  0
    6.7356   -3.3369    0.7079 C   0  0  0  0  0  0  0  0  0  0  0  0
    6.6616   -0.8101    2.8236 C   0  0  0  0  0  0  0  0  0  0  0  0
    5.4198   -0.7230    2.6219 O   0  0  0  0  0  0  0  0  0  0  0  0
   -4.5716   -3.4356   -2.4426 H   0  0  0  0  0  0  0  0  0  0  0  0
   -4.9189   -2.7553    0.1896 H   0  0  0  0  0  0  0  0  0  0  0  0
   -6.8961   -3.7112    1.3139 H   0  0  0  0  0  0  0  0  0  0  0  0
   -9.1518   -2.8035    0.8510 H   0  0  0  0  0  0  0  0  0  0  0  0
   -9.4516   -0.9564   -0.7528 H   0  0  0  0  0  0  0  0  0  0  0  0
   -8.4764    0.9102   -1.9481 H   0  0  0  0  0  0  0  0  0  0  0  0
   -6.7211    1.0652   -2.1870 H   0  0  0  0  0  0  0  0  0  0  0  0
   -7.9105    0.5973   -4.3280 H   0  0  0  0  0  0  0  0  0  0  0  0
   -6.7800   -0.7498   -3.9240 H   0  0  0  0  0  0  0  0  0  0  0  0
   -8.5606   -0.9448   -3.6497 H   0  0  0  0  0  0  0  0  0  0  0  0
    5.0594    0.5753    5.1147 H   0  0  0  0  0  0  0  0  0  0  0  0
    5.2593    0.2819    6.8549 H   0  0  0  0  0  0  0  0  0  0  0  0
    2.9296   -0.1608    6.1524 H   0  0  0  0  0  0  0  0  0  0  0  0
    2.9724    1.2438    7.2839 H   0  0  0  0  0  0  0  0  0  0  0  0
    2.7694    1.5175    5.5052 H   0  0  0  0  0  0  0  0  0  0  0  0
    5.5575    2.0810    8.4489 H   0  0  0  0  0  0  0  0  0  0  0  0
    6.1882    4.4150    8.9040 H   0  0  0  0  0  0  0  0  0  0  0  0
    6.2340    6.0770    7.0740 H   0  0  0  0  0  0  0  0  0  0  0  0
    5.6733    5.4055    4.7694 H   0  0  0  0  0  0  0  0  0  0  0  0
   -0.0258    1.1468   -2.8824 H   0  0  0  0  0  0  0  0  0  0  0  0
    0.7002    2.6978   -2.2914 H   0  0  0  0  0  0  0  0  0  0  0  0
   -2.0085    2.4670   -3.6993 H   0  0  0  0  0  0  0  0  0  0  0  0
   -0.4722    3.1123   -4.3726 H   0  0  0  0  0  0  0  0  0  0  0  0
   -1.2809    3.9774   -3.0047 H   0  0  0  0  0  0  0  0  0  0  0  0
    1.4154    0.9882   -0.8658 H   0  0  0  0  0  0  0  0  0  0  0  0
    2.7508    0.8276    0.2541 H   0  0  0  0  0  0  0  0  0  0  0  0
    3.4353    1.0946   -2.1992 H   0  0  0  0  0  0  0  0  0  0  0  0
    4.2168    2.2699   -1.0875 H   0  0  0  0  0  0  0  0  0  0  0  0
    2.8725    2.8094   -2.1261 H   0  0  0  0  0  0  0  0  0  0  0  0
    7.8001    2.2374    3.8691 H   0  0  0  0  0  0  0  0  0  0  0  0
    5.5444   -3.1590    2.4884 H   0  0  0  0  0  0  0  0  0  0  0  0
    6.9759   -4.1203    2.7423 H   0  0  0  0  0  0  0  0  0  0  0  0
    6.2130   -4.2541    0.3664 H   0  0  0  0  0  0  0  0  0  0  0  0
    7.7983   -3.3918    0.3940 H   0  0  0  0  0  0  0  0  0  0  0  0
    6.2664   -2.4568    0.2194 H   0  0  0  0  0  0  0  0  0  0  0  0
  1  2  2  3
  2  3  1  0
  3  4  2  0
  3  5  1  0
  5  6  2  0
  6  7  1  0
  6  8  1  0
  8  9  1  0
  8 10  2  0
 10 11  1  0
 10 12  1  0
 12 13  1  0
 12 14  2  0
 14 15  1  0
 15 16  2  3
 16 17  1  0
 17 18  3  0
 16 19  1  0
 19 20  3  0
  1 21  1  0
 21 22  2  0
 22 23  1  0
 23 24  2  0
 24 25  1  0
 25 26  2  0
 26 27  1  0
 27 28  2  0
 28 29  1  0
 29 30  1  0
 22 31  1  0
 31 32  1  0
 32 33  1  0
 33 34  1  0
 34 35  1  0
 35 36  1  0
 36 37  2  0
 37 38  1  0
 38 39  1  0
 36 40  1  0
 40 41  1  0
 41 42  1  0
 42 43  1  0
 43 44  1  0
 44 45  1  0
 45 46  2  0
 46 47  1  0
 47 48  1  0
 46 49  1  0
 49 50  2  0
 50 51  1  0
 51 52  2  0
 44 53  2  0
 53 54  1  0
 54 55  1  0
 55 56  1  0
 56 57  1  0
 57 58  1  0
 58 59  1  0
 59 60  1  0
 60 61  1  0
 61 62  1  0
 62 63  1  0
 60 64  1  0
 64 65  1  0
 57 66  1  0
 66 67  1  0
 53 68  1  0
 68 69  2  3
 69 70  1  0
 70 71  1  0
 71 72  2  3
 72 73  1  0
 73 74  3  0
 72 75  1  0
 75 76  3  0
 71 77  1  0
 77 78  1  0
 78 79  1  0
 77 80  1  0
 80 81  2  0
 15  2  1  0
 63 21  1  0
 80 69  1  0
 14  5  1  0
 28 23  1  0
 62 31  2  0
 61 33  2  0
 59 34  2  0
 39 35  2  0
 58 40  2  0
 56 41  2  0
 55 43  2  0
 52 45  1  0
  1 82  1  0
 24 83  1  0
 25 84  1  0
 26 85  1  0
 27 86  1  0
 29 87  1  0
 29 88  1  0
 30 89  1  0
 30 90  1  0
 30 91  1  0
 47 92  1  0
 47 93  1  0
 48 94  1  0
 48 95  1  0
 48 96  1  0
 49 97  1  0
 50 98  1  0
 51 99  1  0
 52100  1  0
 64101  1  0
 64102  1  0
 65103  1  0
 65104  1  0
 65105  1  0
 66106  1  0
 66107  1  0
 67108  1  0
 67109  1  0
 67110  1  0
 68111  1  0
 78112  1  0
 78113  1  0
 79114  1  0
 79115  1  0
 79116  1  0
M  END

