
     RDKit          3D

117130  0  0  0  0  0  0  0  0999 V2000
    0.7967    2.8900    7.0957 C   0  0  0  0  0  0  0  0  0  0  0  0
   -0.1561    3.7896    6.7895 C   0  0  0  0  0  0  0  0  0  0  0  0
   -0.7915    3.9772    5.4805 C   0  0  0  0  0  0  0  0  0  0  0  0
   -0.3687    3.5314    4.3791 O   0  0  0  0  0  0  0  0  0  0  0  0
   -1.9989    4.7678    5.6647 C   0  0  0  0  0  0  0  0  0  0  0  0
   -3.0111    5.0557    4.7411 C   0  0  0  0  0  0  0  0  0  0  0  0
   -2.8342    4.6121    3.0452 Cl  0  0  0  0  0  0  0  0  0  0  0  0
   -4.1764    5.6968    5.2045 C   0  0  0  0  0  0  0  0  0  0  0  0
   -5.4589    6.1090    4.0654 Cl  0  0  0  0  0  0  0  0  0  0  0  0
   -4.3425    5.9538    6.5858 C   0  0  0  0  0  0  0  0  0  0  0  0
   -5.8508    6.6601    7.1736 Cl  0  0  0  0  0  0  0  0  0  0  0  0
   -3.3225    5.6145    7.5038 C   0  0  0  0  0  0  0  0  0  0  0  0
   -3.6767    5.6158    9.2332 Cl  0  0  0  0  0  0  0  0  0  0  0  0
   -2.1069    5.1107    7.0036 C   0  0  0  0  0  0  0  0  0  0  0  0
   -0.8745    4.6906    7.7289 C   0  0  0  0  0  0  0  0  0  0  0  0
   -0.2829    5.3853    8.7361 C   0  0  0  0  0  0  0  0  0  0  0  0
    1.0240    5.0479    9.2450 C   0  0  0  0  0  0  0  0  0  0  0  0
    2.0739    4.7842    9.6560 N   0  0  0  0  0  0  0  0  0  0  0  0
   -0.8052    6.6447    9.2029 C   0  0  0  0  0  0  0  0  0  0  0  0
   -1.2031    7.6641    9.5790 N   0  0  0  0  0  0  0  0  0  0  0  0
    1.4781    2.0796    6.0773 C   0  0  0  0  0  0  0  0  0  0  0  0
    2.6893    2.4280    5.4645 C   0  0  0  0  0  0  0  0  0  0  0  0
    3.4647    3.6328    5.8242 C   0  0  0  0  0  0  0  0  0  0  0  0
    4.1677    3.6157    7.0402 C   0  0  0  0  0  0  0  0  0  0  0  0
    4.8304    4.7553    7.4940 C   0  0  0  0  0  0  0  0  0  0  0  0
    4.7932    5.9303    6.7452 C   0  0  0  0  0  0  0  0  0  0  0  0
    4.0945    5.9669    5.5353 C   0  0  0  0  0  0  0  0  0  0  0  0
    3.4327    4.8236    5.0500 C   0  0  0  0  0  0  0  0  0  0  0  0
    2.6702    4.9337    3.7450 C   0  0  0  0  0  0  0  0  0  0  0  0
    3.6062    5.2255    2.5680 C   0  0  0  0  0  0  0  0  0  0  0  0
    2.9683    1.5822    4.3891 C   0  0  0  0  0  0  0  0  0  0  0  0
    4.0503    1.7200    3.0890 S   0  0  0  0  0  0  0  0  0  0  0  0
    3.2663    0.4839    2.2348 C   0  0  0  0  0  0  0  0  0  0  0  0
    3.0289    0.2929    0.9016 C   0  0  0  0  0  0  0  0  0  0  0  0
    3.5427    1.0046   -0.1929 C   0  0  0  0  0  0  0  0  0  0  0  0
    2.8551    0.9442   -1.4384 C   0  0  0  0  0  0  0  0  0  0  0  0
    3.3631    1.6730   -2.4613 N   0  0  0  0  0  0  0  0  0  0  0  0
    4.6575    2.3656   -1.6938 S   0  0  0  0  0  0  0  0  0  0  0  0
    4.6338    1.8087   -0.1342 N   0  0  0  0  0  0  0  0  0  0  0  0
    1.7113    0.1500   -1.5351 C   0  0  0  0  0  0  0  0  0  0  0  0
    0.9687   -0.2226   -2.6176 C   0  0  0  0  0  0  0  0  0  0  0  0
    1.0089   -0.0284   -4.3041 S   0  0  0  0  0  0  0  0  0  0  0  0
   -0.0855   -1.3239   -4.4978 C   0  0  0  0  0  0  0  0  0  0  0  0
   -0.5808   -1.9958   -5.6163 C   0  0  0  0  0  0  0  0  0  0  0  0
   -0.2957   -1.6029   -7.0085 C   0  0  0  0  0  0  0  0  0  0  0  0
    0.7480   -2.2041   -7.7564 C   0  0  0  0  0  0  0  0  0  0  0  0
    1.7127   -3.1951   -7.1456 C   0  0  0  0  0  0  0  0  0  0  0  0
    2.9992   -2.5008   -6.7082 C   0  0  0  0  0  0  0  0  0  0  0  0
    0.9246   -1.8336   -9.1014 C   0  0  0  0  0  0  0  0  0  0  0  0
    0.0764   -0.9000   -9.6998 C   0  0  0  0  0  0  0  0  0  0  0  0
   -0.9504   -0.3115   -8.9599 C   0  0  0  0  0  0  0  0  0  0  0  0
   -1.1366   -0.6608   -7.6203 C   0  0  0  0  0  0  0  0  0  0  0  0
   -1.3203   -3.1378   -5.2487 C   0  0  0  0  0  0  0  0  0  0  0  0
   -1.2607   -3.3097   -3.5506 S   0  0  0  0  0  0  0  0  0  0  0  0
   -0.4048   -1.8984   -3.2957 C   0  0  0  0  0  0  0  0  0  0  0  0
    0.1712   -1.2420   -2.2170 C   0  0  0  0  0  0  0  0  0  0  0  0
    0.3136   -1.5412   -0.9010 N   0  0  0  0  0  0  0  0  0  0  0  0
    1.2314   -0.6166   -0.4601 C   0  0  0  0  0  0  0  0  0  0  0  0
    1.8374   -0.4534    0.8176 C   0  0  0  0  0  0  0  0  0  0  0  0
    1.2788   -0.5905    2.0674 N   0  0  0  0  0  0  0  0  0  0  0  0
    2.1822   -0.0076    2.9025 C   0  0  0  0  0  0  0  0  0  0  0  0
    2.0177    0.6214    4.1403 C   0  0  0  0  0  0  0  0  0  0  0  0
    0.7646    0.7740    5.2526 S   0  0  0  0  0  0  0  0  0  0  0  0
   -0.1383   -0.7773    2.4043 C   0  0  0  0  0  0  0  0  0  0  0  0
   -0.9701    0.4364    1.9917 C   0  0  0  0  0  0  0  0  0  0  0  0
   -0.0325   -2.8363   -0.3032 C   0  0  0  0  0  0  0  0  0  0  0  0
   -1.5390   -2.9394   -0.0394 C   0  0  0  0  0  0  0  0  0  0  0  0
   -1.8255   -4.1426   -6.2097 C   0  0  0  0  0  0  0  0  0  0  0  0
   -2.8180   -5.0319   -5.9906 C   0  0  0  0  0  0  0  0  0  0  0  0
   -3.6109   -5.2077   -4.7676 C   0  0  0  0  0  0  0  0  0  0  0  0
   -3.9377   -4.3074   -3.9504 O   0  0  0  0  0  0  0  0  0  0  0  0
   -4.1239   -6.5594   -4.7539 C   0  0  0  0  0  0  0  0  0  0  0  0
   -4.7557   -7.2346   -3.7097 C   0  0  0  0  0  0  0  0  0  0  0  0
   -5.0732   -8.5907   -3.8815 C   0  0  0  0  0  0  0  0  0  0  0  0
   -5.8425   -9.4556   -2.5563 Cl  0  0  0  0  0  0  0  0  0  0  0  0
   -4.7395   -9.2474   -5.0899 C   0  0  0  0  0  0  0  0  0  0  0  0
   -5.0919  -10.9575   -5.3174 Cl  0  0  0  0  0  0  0  0  0  0  0  0
   -4.1040   -8.5393   -6.1278 C   0  0  0  0  0  0  0  0  0  0  0  0
   -3.8218   -7.1763   -5.9527 C   0  0  0  0  0  0  0  0  0  0  0  0
   -3.1295   -6.2119   -6.8487 C   0  0  0  0  0  0  0  0  0  0  0  0
   -3.0659   -6.2720   -8.2052 C   0  0  0  0  0  0  0  0  0  0  0  0
   -2.6582   -5.1463   -9.0079 C   0  0  0  0  0  0  0  0  0  0  0  0
   -2.3514   -4.2419   -9.6661 N   0  0  0  0  0  0  0  0  0  0  0  0
   -3.6129   -7.3775   -8.9504 C   0  0  0  0  0  0  0  0  0  0  0  0
   -4.0751   -8.2465   -9.5589 N   0  0  0  0  0  0  0  0  0  0  0  0
    1.1198    2.7553    8.1165 H   0  0  0  0  0  0  0  0  0  0  0  0
    4.1810    2.7149    7.6491 H   0  0  0  0  0  0  0  0  0  0  0  0
    5.3599    4.7312    8.4380 H   0  0  0  0  0  0  0  0  0  0  0  0
    5.2937    6.8203    7.1090 H   0  0  0  0  0  0  0  0  0  0  0  0
    4.0603    6.8947    4.9806 H   0  0  0  0  0  0  0  0  0  0  0  0
    2.1030    4.0122    3.5153 H   0  0  0  0  0  0  0  0  0  0  0  0
    1.9248    5.7534    3.8273 H   0  0  0  0  0  0  0  0  0  0  0  0
    3.9656    6.2705    2.6140 H   0  0  0  0  0  0  0  0  0  0  0  0
    4.4826    4.5475    2.5818 H   0  0  0  0  0  0  0  0  0  0  0  0
    3.0623    5.0822    1.6121 H   0  0  0  0  0  0  0  0  0  0  0  0
    1.9608   -3.9855   -7.8853 H   0  0  0  0  0  0  0  0  0  0  0  0
    1.2697   -3.7115   -6.2712 H   0  0  0  0  0  0  0  0  0  0  0  0
    3.5306   -2.0807   -7.5886 H   0  0  0  0  0  0  0  0  0  0  0  0
    3.6676   -3.2301   -6.2048 H   0  0  0  0  0  0  0  0  0  0  0  0
    2.7750   -1.6775   -6.0003 H   0  0  0  0  0  0  0  0  0  0  0  0
    1.7252   -2.2734   -9.6856 H   0  0  0  0  0  0  0  0  0  0  0  0
    0.2210   -0.6249  -10.7383 H   0  0  0  0  0  0  0  0  0  0  0  0
   -1.6094    0.4106   -9.4278 H   0  0  0  0  0  0  0  0  0  0  0  0
   -1.9489   -0.2078   -7.0614 H   0  0  0  0  0  0  0  0  0  0  0  0
   -0.5374   -1.6856    1.9539 H   0  0  0  0  0  0  0  0  0  0  0  0
   -0.2593   -0.9623    3.4892 H   0  0  0  0  0  0  0  0  0  0  0  0
   -0.9437    0.5649    0.8901 H   0  0  0  0  0  0  0  0  0  0  0  0
   -0.5796    1.3537    2.4814 H   0  0  0  0  0  0  0  0  0  0  0  0
   -2.0257    0.2838    2.3014 H   0  0  0  0  0  0  0  0  0  0  0  0
    0.5460   -3.0020    0.6282 H   0  0  0  0  0  0  0  0  0  0  0  0
    0.2731   -3.6594   -0.9845 H   0  0  0  0  0  0  0  0  0  0  0  0
   -2.0750   -3.3302   -0.9272 H   0  0  0  0  0  0  0  0  0  0  0  0
   -1.7260   -3.6415    0.8014 H   0  0  0  0  0  0  0  0  0  0  0  0
   -1.9765   -1.9476    0.2119 H   0  0  0  0  0  0  0  0  0  0  0  0
   -1.2763   -4.1989   -7.1342 H   0  0  0  0  0  0  0  0  0  0  0  0
   -4.9683   -6.7281   -2.7766 H   0  0  0  0  0  0  0  0  0  0  0  0
   -3.8083   -9.0678   -7.0222 H   0  0  0  0  0  0  0  0  0  0  0  0
  1  2  2  3
  2  3  1  0
  3  4  2  0
  3  5  1  0
  5  6  2  0
  6  7  1  0
  6  8  1  0
  8  9  1  0
  8 10  2  0
 10 11  1  0
 10 12  1  0
 12 13  1  0
 12 14  2  0
 14 15  1  0
 15 16  2  3
 16 17  1  0
 17 18  3  0
 16 19  1  0
 19 20  3  0
  1 21  1  0
 21 22  2  0
 22 23  1  0
 23 24  2  0
 24 25  1  0
 25 26  2  0
 26 27  1  0
 27 28  2  0
 28 29  1  0
 29 30  1  0
 22 31  1  0
 31 32  1  0
 32 33  1  0
 33 34  1  0
 34 35  1  0
 35 36  1  0
 36 37  2  0
 37 38  1  0
 38 39  1  0
 36 40  1  0
 40 41  1  0
 41 42  1  0
 42 43  1  0
 43 44  1  0
 44 45  1  0
 45 46  2  0
 46 47  1  0
 47 48  1  0
 46 49  1  0
 49 50  2  0
 50 51  1  0
 51 52  2  0
 44 53  2  0
 53 54  1  0
 54 55  1  0
 55 56  1  0
 56 57  1  0
 57 58  1  0
 58 59  1  0
 59 60  1  0
 60 61  1  0
 61 62  1  0
 62 63  1  0
 60 64  1  0
 64 65  1  0
 57 66  1  0
 66 67  1  0
 53 68  1  0
 68 69  2  3
 69 70  1  0
 70 71  2  0
 70 72  1  0
 72 73  2  0
 73 74  1  0
 74 75  1  0
 74 76  2  0
 76 77  1  0
 76 78  1  0
 78 79  2  0
 79 80  1  0
 80 81  2  3
 81 82  1  0
 82 83  3  0
 81 84  1  0
 84 85  3  0
 15  2  1  0
 63 21  1  0
 80 69  1  0
 14  5  1  0
 28 23  1  0
 62 31  2  0
 79 72  1  0
 61 33  2  0
 59 34  2  0
 39 35  2  0
 58 40  2  0
 56 41  2  0
 55 43  2  0
 52 45  1  0
  1 86  1  0
 24 87  1  0
 25 88  1  0
 26 89  1  0
 27 90  1  0
 29 91  1  0
 29 92  1  0
 30 93  1  0
 30 94  1  0
 30 95  1  0
 47 96  1  0
 47 97  1  0
 48 98  1  0
 48 99  1  0
 48100  1  0
 49101  1  0
 50102  1  0
 51103  1  0
 52104  1  0
 64105  1  0
 64106  1  0
 65107  1  0
 65108  1  0
 65109  1  0
 66110  1  0
 66111  1  0
 67112  1  0
 67113  1  0
 67114  1  0
 68115  1  0
 73116  1  0
 78117  1  0
M  END

