
     RDKit          3D

117130  0  0  0  0  0  0  0  0999 V2000
    0.0772    6.0717    4.7291 C   0  0  0  0  0  0  0  0  0  0  0  0
    0.9685    7.0714    4.8292 C   0  0  0  0  0  0  0  0  0  0  0  0
    0.8283    8.1869    5.7439 C   0  0  0  0  0  0  0  0  0  0  0  0
   -0.2026    8.4631    6.4123 O   0  0  0  0  0  0  0  0  0  0  0  0
    2.1043    8.8721    5.8102 C   0  0  0  0  0  0  0  0  0  0  0  0
    2.4465    9.9860    6.5862 C   0  0  0  0  0  0  0  0  0  0  0  0
    1.2658   10.7317    7.6615 Cl  0  0  0  0  0  0  0  0  0  0  0  0
    3.7492   10.5042    6.4817 C   0  0  0  0  0  0  0  0  0  0  0  0
    4.2022   11.9291    7.4232 Cl  0  0  0  0  0  0  0  0  0  0  0  0
    4.6893    9.8885    5.6306 C   0  0  0  0  0  0  0  0  0  0  0  0
    6.3241   10.5559    5.5195 Cl  0  0  0  0  0  0  0  0  0  0  0  0
    4.3351    8.7499    4.8702 C   0  0  0  0  0  0  0  0  0  0  0  0
    5.5906    7.9731    3.9094 Cl  0  0  0  0  0  0  0  0  0  0  0  0
    3.0116    8.2519    4.9539 C   0  0  0  0  0  0  0  0  0  0  0  0
    2.3221    7.1380    4.2180 C   0  0  0  0  0  0  0  0  0  0  0  0
    2.5251    6.8616    2.9086 C   0  0  0  0  0  0  0  0  0  0  0  0
    1.4339    6.8643    1.9678 C   0  0  0  0  0  0  0  0  0  0  0  0
    0.5629    6.8709    1.2025 N   0  0  0  0  0  0  0  0  0  0  0  0
    3.7117    6.1874    2.4559 C   0  0  0  0  0  0  0  0  0  0  0  0
    4.6531    5.6305    2.0752 N   0  0  0  0  0  0  0  0  0  0  0  0
    0.4191    4.7600    4.1536 C   0  0  0  0  0  0  0  0  0  0  0  0
    1.4745    3.9265    4.5787 C   0  0  0  0  0  0  0  0  0  0  0  0
    2.3396    4.1738    5.7543 C   0  0  0  0  0  0  0  0  0  0  0  0
    3.7107    4.3905    5.5410 C   0  0  0  0  0  0  0  0  0  0  0  0
    4.5585    4.6875    6.6074 C   0  0  0  0  0  0  0  0  0  0  0  0
    4.0553    4.7461    7.9042 C   0  0  0  0  0  0  0  0  0  0  0  0
    2.7038    4.4928    8.1416 C   0  0  0  0  0  0  0  0  0  0  0  0
    1.8268    4.2106    7.0786 C   0  0  0  0  0  0  0  0  0  0  0  0
    0.3968    3.8406    7.4102 C   0  0  0  0  0  0  0  0  0  0  0  0
    0.2186    2.3239    7.4591 C   0  0  0  0  0  0  0  0  0  0  0  0
    1.5894    2.8199    3.7412 C   0  0  0  0  0  0  0  0  0  0  0  0
    2.6328    1.4670    3.7038 S   0  0  0  0  0  0  0  0  0  0  0  0
    1.8438    0.8677    2.3225 C   0  0  0  0  0  0  0  0  0  0  0  0
    1.7764   -0.2832    1.5866 C   0  0  0  0  0  0  0  0  0  0  0  0
    2.4230   -1.5212    1.7194 C   0  0  0  0  0  0  0  0  0  0  0  0
    1.9735   -2.6189    0.9205 C   0  0  0  0  0  0  0  0  0  0  0  0
    2.6076   -3.8035    1.0878 N   0  0  0  0  0  0  0  0  0  0  0  0
    3.6920   -3.3718    2.2652 S   0  0  0  0  0  0  0  0  0  0  0  0
    3.4302   -1.7677    2.5917 N   0  0  0  0  0  0  0  0  0  0  0  0
    0.9312   -2.4033    0.0106 C   0  0  0  0  0  0  0  0  0  0  0  0
    0.3926   -3.1882   -0.9701 C   0  0  0  0  0  0  0  0  0  0  0  0
    0.6349   -4.7148   -1.6781 S   0  0  0  0  0  0  0  0  0  0  0  0
   -0.4222   -4.3093   -2.9591 C   0  0  0  0  0  0  0  0  0  0  0  0
   -0.8775   -4.9894   -4.0876 C   0  0  0  0  0  0  0  0  0  0  0  0
   -0.4820   -6.3651   -4.4316 C   0  0  0  0  0  0  0  0  0  0  0  0
   -1.3122   -7.4797   -4.1520 C   0  0  0  0  0  0  0  0  0  0  0  0
   -2.6236   -7.3392   -3.4111 C   0  0  0  0  0  0  0  0  0  0  0  0
   -2.4120   -7.4488   -1.9062 C   0  0  0  0  0  0  0  0  0  0  0  0
   -0.8726   -8.7646   -4.5160 C   0  0  0  0  0  0  0  0  0  0  0  0
    0.3555   -8.9428   -5.1570 C   0  0  0  0  0  0  0  0  0  0  0  0
    1.1620   -7.8405   -5.4378 C   0  0  0  0  0  0  0  0  0  0  0  0
    0.7474   -6.5586   -5.0775 C   0  0  0  0  0  0  0  0  0  0  0  0
   -1.7165   -4.1750   -4.8719 C   0  0  0  0  0  0  0  0  0  0  0  0
   -1.9341   -2.6646   -4.0946 S   0  0  0  0  0  0  0  0  0  0  0  0
   -0.8996   -3.0331   -2.8339 C   0  0  0  0  0  0  0  0  0  0  0  0
   -0.4329   -2.3958   -1.7013 C   0  0  0  0  0  0  0  0  0  0  0  0
   -0.4341   -1.1027   -1.2930 N   0  0  0  0  0  0  0  0  0  0  0  0
    0.3379   -1.1433   -0.1613 C   0  0  0  0  0  0  0  0  0  0  0  0
    0.6948   -0.0948    0.7122 C   0  0  0  0  0  0  0  0  0  0  0  0
    0.0307    1.0714    0.9824 N   0  0  0  0  0  0  0  0  0  0  0  0
    0.8094    1.6512    1.9290 C   0  0  0  0  0  0  0  0  0  0  0  0
    0.6500    2.7586    2.7442 C   0  0  0  0  0  0  0  0  0  0  0  0
   -0.3916    4.0673    2.8233 S   0  0  0  0  0  0  0  0  0  0  0  0
   -1.4140    1.3213    0.8388 C   0  0  0  0  0  0  0  0  0  0  0  0
   -2.1771    0.8727    2.0852 C   0  0  0  0  0  0  0  0  0  0  0  0
   -0.6014    0.0549   -2.1930 C   0  0  0  0  0  0  0  0  0  0  0  0
    0.4394    0.0437   -3.3123 C   0  0  0  0  0  0  0  0  0  0  0  0
   -2.4527   -4.6343   -6.0665 C   0  0  0  0  0  0  0  0  0  0  0  0
   -2.7098   -3.8786   -7.1517 C   0  0  0  0  0  0  0  0  0  0  0  0
   -2.3143   -2.4803   -7.3516 C   0  0  0  0  0  0  0  0  0  0  0  0
   -1.3102   -1.9059   -6.8548 O   0  0  0  0  0  0  0  0  0  0  0  0
   -3.2097   -1.8895   -8.3208 C   0  0  0  0  0  0  0  0  0  0  0  0
   -3.3124   -0.5474   -8.6918 C   0  0  0  0  0  0  0  0  0  0  0  0
   -4.3247   -0.1787   -9.5872 C   0  0  0  0  0  0  0  0  0  0  0  0
   -4.4620    1.1222   -9.9436 F   0  0  0  0  0  0  0  0  0  0  0  0
   -5.2063   -1.1458  -10.0964 C   0  0  0  0  0  0  0  0  0  0  0  0
   -6.1938   -0.7790  -10.9521 F   0  0  0  0  0  0  0  0  0  0  0  0
   -5.0801   -2.4953   -9.7145 C   0  0  0  0  0  0  0  0  0  0  0  0
   -4.0608   -2.8608   -8.8202 C   0  0  0  0  0  0  0  0  0  0  0  0
   -3.7051   -4.1841   -8.2234 C   0  0  0  0  0  0  0  0  0  0  0  0
   -4.0609   -5.4116   -8.6850 C   0  0  0  0  0  0  0  0  0  0  0  0
   -3.4180   -6.6171   -8.2233 C   0  0  0  0  0  0  0  0  0  0  0  0
   -2.9063   -7.5909   -7.8573 N   0  0  0  0  0  0  0  0  0  0  0  0
   -5.0374   -5.6000   -9.7305 C   0  0  0  0  0  0  0  0  0  0  0  0
   -5.8309   -5.7695  -10.5610 N   0  0  0  0  0  0  0  0  0  0  0  0
   -0.9017    6.1785    5.1810 H   0  0  0  0  0  0  0  0  0  0  0  0
    4.1226    4.3358    4.5431 H   0  0  0  0  0  0  0  0  0  0  0  0
    5.6080    4.8689    6.4260 H   0  0  0  0  0  0  0  0  0  0  0  0
    4.7170    4.9677    8.7318 H   0  0  0  0  0  0  0  0  0  0  0  0
    2.3428    4.5081    9.1641 H   0  0  0  0  0  0  0  0  0  0  0  0
    0.1083    4.2666    8.3948 H   0  0  0  0  0  0  0  0  0  0  0  0
   -0.3140    4.2610    6.6755 H   0  0  0  0  0  0  0  0  0  0  0  0
    0.9631    1.8703    8.1488 H   0  0  0  0  0  0  0  0  0  0  0  0
   -0.8007    2.0828    7.8252 H   0  0  0  0  0  0  0  0  0  0  0  0
    0.3486    1.8892    6.4453 H   0  0  0  0  0  0  0  0  0  0  0  0
   -3.1096   -6.3669   -3.6403 H   0  0  0  0  0  0  0  0  0  0  0  0
   -3.3315   -8.1337   -3.7342 H   0  0  0  0  0  0  0  0  0  0  0  0
   -3.3774   -7.2889   -1.3845 H   0  0  0  0  0  0  0  0  0  0  0  0
   -1.6912   -6.6800   -1.5559 H   0  0  0  0  0  0  0  0  0  0  0  0
   -2.0254   -8.4577   -1.6437 H   0  0  0  0  0  0  0  0  0  0  0  0
   -1.4787   -9.6322   -4.2982 H   0  0  0  0  0  0  0  0  0  0  0  0
    0.6850   -9.9389   -5.4327 H   0  0  0  0  0  0  0  0  0  0  0  0
    2.1152   -7.9795   -5.9320 H   0  0  0  0  0  0  0  0  0  0  0  0
    1.3854   -5.7101   -5.3016 H   0  0  0  0  0  0  0  0  0  0  0  0
   -1.5872    2.4014    0.6554 H   0  0  0  0  0  0  0  0  0  0  0  0
   -1.8452    0.7617   -0.0106 H   0  0  0  0  0  0  0  0  0  0  0  0
   -1.8676    1.4618    2.9726 H   0  0  0  0  0  0  0  0  0  0  0  0
   -3.2637    1.0300    1.9276 H   0  0  0  0  0  0  0  0  0  0  0  0
   -1.9929   -0.2077    2.2718 H   0  0  0  0  0  0  0  0  0  0  0  0
   -0.4493    1.0058   -1.6493 H   0  0  0  0  0  0  0  0  0  0  0  0
   -1.6264    0.0521   -2.6147 H   0  0  0  0  0  0  0  0  0  0  0  0
    0.3811    0.9958   -3.8867 H   0  0  0  0  0  0  0  0  0  0  0  0
    1.4609   -0.0539   -2.8942 H   0  0  0  0  0  0  0  0  0  0  0  0
    0.2581   -0.7890   -4.0170 H   0  0  0  0  0  0  0  0  0  0  0  0
   -2.8581   -5.6289   -5.9959 H   0  0  0  0  0  0  0  0  0  0  0  0
   -2.6463    0.1967   -8.2749 H   0  0  0  0  0  0  0  0  0  0  0  0
   -5.7900   -3.2036  -10.0993 H   0  0  0  0  0  0  0  0  0  0  0  0
  1  2  2  3
  2  3  1  0
  3  4  2  0
  3  5  1  0
  5  6  2  0
  6  7  1  0
  6  8  1  0
  8  9  1  0
  8 10  2  0
 10 11  1  0
 10 12  1  0
 12 13  1  0
 12 14  2  0
 14 15  1  0
 15 16  2  3
 16 17  1  0
 17 18  3  0
 16 19  1  0
 19 20  3  0
  1 21  1  0
 21 22  2  0
 22 23  1  0
 23 24  2  0
 24 25  1  0
 25 26  2  0
 26 27  1  0
 27 28  2  0
 28 29  1  0
 29 30  1  0
 22 31  1  0
 31 32  1  0
 32 33  1  0
 33 34  1  0
 34 35  1  0
 35 36  1  0
 36 37  2  0
 37 38  1  0
 38 39  1  0
 36 40  1  0
 40 41  1  0
 41 42  1  0
 42 43  1  0
 43 44  1  0
 44 45  1  0
 45 46  2  0
 46 47  1  0
 47 48  1  0
 46 49  1  0
 49 50  2  0
 50 51  1  0
 51 52  2  0
 44 53  2  0
 53 54  1  0
 54 55  1  0
 55 56  1  0
 56 57  1  0
 57 58  1  0
 58 59  1  0
 59 60  1  0
 60 61  1  0
 61 62  1  0
 62 63  1  0
 60 64  1  0
 64 65  1  0
 57 66  1  0
 66 67  1  0
 53 68  1  0
 68 69  2  3
 69 70  1  0
 70 71  2  0
 70 72  1  0
 72 73  2  0
 73 74  1  0
 74 75  1  0
 74 76  2  0
 76 77  1  0
 76 78  1  0
 78 79  2  0
 79 80  1  0
 80 81  2  3
 81 82  1  0
 82 83  3  0
 81 84  1  0
 84 85  3  0
 15  2  1  0
 63 21  1  0
 80 69  1  0
 14  5  1  0
 28 23  1  0
 62 31  2  0
 79 72  1  0
 61 33  2  0
 59 34  2  0
 39 35  2  0
 58 40  2  0
 56 41  2  0
 55 43  2  0
 52 45  1  0
  1 86  1  0
 24 87  1  0
 25 88  1  0
 26 89  1  0
 27 90  1  0
 29 91  1  0
 29 92  1  0
 30 93  1  0
 30 94  1  0
 30 95  1  0
 47 96  1  0
 47 97  1  0
 48 98  1  0
 48 99  1  0
 48100  1  0
 49101  1  0
 50102  1  0
 51103  1  0
 52104  1  0
 64105  1  0
 64106  1  0
 65107  1  0
 65108  1  0
 65109  1  0
 66110  1  0
 66111  1  0
 67112  1  0
 67113  1  0
 67114  1  0
 68115  1  0
 73116  1  0
 78117  1  0
M  END

