
     RDKit          3D

110124  0  0  0  0  0  0  0  0999 V2000
    4.1327   -3.6195   -5.4367 C   0  0  0  0  0  0  0  0  0  0  0  0
    4.3148   -2.5418   -6.2656 C   0  0  0  0  0  0  0  0  0  0  0  0
    4.5979   -1.2521   -5.6322 C   0  0  0  0  0  0  0  0  0  0  0  0
    4.6615   -1.0891   -4.2727 O   0  0  0  0  0  0  0  0  0  0  0  0
    4.8301   -0.2040   -6.2572 C   0  0  0  0  0  0  0  0  0  0  0  0
    5.1079    1.0419   -6.9851 C   0  0  0  0  0  0  0  0  0  0  0  0
    5.4198    2.0596   -5.2512 Cl  0  0  0  0  0  0  0  0  0  0  0  0
    5.2905    1.8733   -7.8048 C   0  0  0  0  0  0  0  0  0  0  0  0
    5.7007    3.5588   -7.8090 Cl  0  0  0  0  0  0  0  0  0  0  0  0
    5.1401    1.2057   -9.0932 C   0  0  0  0  0  0  0  0  0  0  0  0
    5.2595    2.0792  -10.5230 Cl  0  0  0  0  0  0  0  0  0  0  0  0
    4.8364   -0.1525   -8.8896 C   0  0  0  0  0  0  0  0  0  0  0  0
    4.8754   -0.8972  -10.5708 Cl  0  0  0  0  0  0  0  0  0  0  0  0
    4.6596   -0.9205   -7.8923 C   0  0  0  0  0  0  0  0  0  0  0  0
    4.3459   -2.3013   -7.5854 C   0  0  0  0  0  0  0  0  0  0  0  0
    3.9008   -3.1837   -8.4995 C   0  0  0  0  0  0  0  0  0  0  0  0
    3.8488   -3.1633   -9.9074 C   0  0  0  0  0  0  0  0  0  0  0  0
    3.7982   -3.1663  -11.1117 N   0  0  0  0  0  0  0  0  0  0  0  0
    3.2405   -4.4544   -8.0110 C   0  0  0  0  0  0  0  0  0  0  0  0
    2.7060   -5.4540   -7.6405 N   0  0  0  0  0  0  0  0  0  0  0  0
    4.2490   -3.3245   -3.9287 C   0  0  0  0  0  0  0  0  0  0  0  0
    5.0498   -3.5924   -3.0645 C   0  0  0  0  0  0  0  0  0  0  0  0
    6.2618   -4.5836   -3.3391 C   0  0  0  0  0  0  0  0  0  0  0  0
    5.7721   -5.9501   -2.9806 C   0  0  0  0  0  0  0  0  0  0  0  0
    4.9419   -3.2100   -1.7336 C   0  0  0  0  0  0  0  0  0  0  0  0
    5.6506   -3.2479   -0.1764 S   0  0  0  0  0  0  0  0  0  0  0  0
    4.4938   -2.4075    0.7353 C   0  0  0  0  0  0  0  0  0  0  0  0
    4.0466   -1.9568    1.9932 C   0  0  0  0  0  0  0  0  0  0  0  0
    4.7208   -2.2185    3.2502 C   0  0  0  0  0  0  0  0  0  0  0  0
    4.0315   -1.8855    4.2948 C   0  0  0  0  0  0  0  0  0  0  0  0
    4.6972   -1.8880    5.4541 N   0  0  0  0  0  0  0  0  0  0  0  0
    6.3998   -2.3936    5.0826 Se  0  0  0  0  0  2  0  0  0  0  0  0
    5.9750   -2.5651    3.2192 N   0  0  0  0  0  0  0  0  0  0  0  0
    2.7424   -1.3302    4.2150 C   0  0  0  0  0  0  0  0  0  0  0  0
    1.8304   -1.0223    5.1493 C   0  0  0  0  0  0  0  0  0  0  0  0
    1.2585   -0.9727    6.8598 S   0  0  0  0  0  0  0  0  0  0  0  0
   -0.6159   -0.2290    6.1200 C   0  0  0  0  0  0  0  0  0  0  0  0
   -1.6703   -0.3716    7.1571 C   0  0  0  0  0  0  0  0  0  0  0  0
   -2.1621   -1.1995    8.1027 C   0  0  0  0  0  0  0  0  0  0  0  0
   -1.3113   -1.4917    9.3538 C   0  0  0  0  0  0  0  0  0  0  0  0
   -2.2218    0.9533    6.6892 C   0  0  0  0  0  0  0  0  0  0  0  0
   -1.1934    1.4385    5.4870 S   0  0  0  0  0  0  0  0  0  0  0  0
   -0.0189   -0.4024    5.7068 C   0  0  0  0  0  0  0  0  0  0  0  0
    0.6538   -0.5421    4.4254 C   0  0  0  0  0  0  0  0  0  0  0  0
    0.9510   -0.6209    3.1713 N   0  0  0  0  0  0  0  0  0  0  0  0
    2.1472   -1.0686    2.9388 C   0  0  0  0  0  0  0  0  0  0  0  0
    2.8559   -1.4194    1.7705 C   0  0  0  0  0  0  0  0  0  0  0  0
    2.4878   -1.4544    0.4917 N   0  0  0  0  0  0  0  0  0  0  0  0
    3.5434   -2.1074   -0.2117 C   0  0  0  0  0  0  0  0  0  0  0  0
    3.7844   -2.5056   -1.4610 C   0  0  0  0  0  0  0  0  0  0  0  0
    3.0392   -2.4489   -3.0868 S   0  0  0  0  0  0  0  0  0  0  0  0
    1.3595   -0.9881   -0.2222 C   0  0  0  0  0  0  0  0  0  0  0  0
    0.3804   -2.0889   -0.5169 C   0  0  0  0  0  0  0  0  0  0  0  0
   -0.0692   -0.1737    2.1661 C   0  0  0  0  0  0  0  0  0  0  0  0
    0.0803    1.2738    1.8440 C   0  0  0  0  0  0  0  0  0  0  0  0
   -3.6565    1.3556    7.0170 C   0  0  0  0  0  0  0  0  0  0  0  0
   -4.2518    1.8728    5.8539 C   0  0  0  0  0  0  0  0  0  0  0  0
   -3.5675    2.0227    4.5728 C   0  0  0  0  0  0  0  0  0  0  0  0
   -2.4046    1.9002    4.2182 O   0  0  0  0  0  0  0  0  0  0  0  0
   -4.5802    2.4238    3.5514 C   0  0  0  0  0  0  0  0  0  0  0  0
   -4.3429    2.5739    2.1461 C   0  0  0  0  0  0  0  0  0  0  0  0
   -5.5162    2.8434    1.4421 C   0  0  0  0  0  0  0  0  0  0  0  0
   -6.7370    2.9664    2.0393 C   0  0  0  0  0  0  0  0  0  0  0  0
   -6.9365    2.8148    3.4529 C   0  0  0  0  0  0  0  0  0  0  0  0
   -5.7440    2.5250    4.0867 C   0  0  0  0  0  0  0  0  0  0  0  0
   -5.6108    2.1839    5.5858 C   0  0  0  0  0  0  0  0  0  0  0  0
   -6.6092    2.2410    6.3610 C   0  0  0  0  0  0  0  0  0  0  0  0
   -6.6709    1.9941    7.8812 C   0  0  0  0  0  0  0  0  0  0  0  0
   -6.7142    1.8218    8.8623 N   0  0  0  0  0  0  0  0  0  0  0  0
   -8.0339    2.3270    5.9218 C   0  0  0  0  0  0  0  0  0  0  0  0
   -9.1445    2.4124    5.5701 N   0  0  0  0  0  0  0  0  0  0  0  0
   -7.3609    3.2292    0.7496 C   0  0  0  0  0  0  0  0  0  0  0  0
   -7.6291    4.6498    0.4008 C   0  0  0  0  0  0  0  0  0  0  0  0
   -6.5770    5.5613    0.8157 C   0  0  0  0  0  0  0  0  0  0  0  0
   -5.4283    5.2826    0.1580 C   0  0  0  0  0  0  0  0  0  0  0  0
   -5.7583    4.1792   -0.7474 C   0  0  0  0  0  0  0  0  0  0  0  0
   -7.2557    4.5667   -1.0872 C   0  0  0  0  0  0  0  0  0  0  0  0
   -6.0267    2.9669    0.0303 C   0  0  0  0  0  0  0  0  0  0  0  0
    3.9675   -4.5568   -5.7092 H   0  0  0  0  0  0  0  0  0  0  0  0
    7.0985   -4.1701   -2.8581 H   0  0  0  0  0  0  0  0  0  0  0  0
    6.3976   -4.5922   -4.4568 H   0  0  0  0  0  0  0  0  0  0  0  0
    5.7104   -6.6537   -3.8024 H   0  0  0  0  0  0  0  0  0  0  0  0
    4.7292   -5.8691   -2.5157 H   0  0  0  0  0  0  0  0  0  0  0  0
    6.4098   -6.3662   -2.1656 H   0  0  0  0  0  0  0  0  0  0  0  0
   -2.4562   -2.2319    7.7144 H   0  0  0  0  0  0  0  0  0  0  0  0
   -3.2110   -0.8727    8.5044 H   0  0  0  0  0  0  0  0  0  0  0  0
   -0.3068   -1.0747    9.2012 H   0  0  0  0  0  0  0  0  0  0  0  0
   -1.7204   -1.0184   10.2489 H   0  0  0  0  0  0  0  0  0  0  0  0
   -1.2893   -2.5935    9.5034 H   0  0  0  0  0  0  0  0  0  0  0  0
    1.0014    0.0090   -0.0863 H   0  0  0  0  0  0  0  0  0  0  0  0
    1.7464   -0.7717   -1.3455 H   0  0  0  0  0  0  0  0  0  0  0  0
    0.4376   -2.9155    0.2171 H   0  0  0  0  0  0  0  0  0  0  0  0
    0.5341   -2.5866   -1.4915 H   0  0  0  0  0  0  0  0  0  0  0  0
   -0.6319   -1.6363   -0.6122 H   0  0  0  0  0  0  0  0  0  0  0  0
   -0.4010   -0.8853    1.5214 H   0  0  0  0  0  0  0  0  0  0  0  0
   -1.0718   -0.1036    2.8493 H   0  0  0  0  0  0  0  0  0  0  0  0
   -0.4565    1.4696    0.8502 H   0  0  0  0  0  0  0  0  0  0  0  0
    1.1591    1.5183    1.6913 H   0  0  0  0  0  0  0  0  0  0  0  0
   -0.4054    1.9816    2.5290 H   0  0  0  0  0  0  0  0  0  0  0  0
   -4.1046    1.2875    7.9066 H   0  0  0  0  0  0  0  0  0  0  0  0
   -3.3869    2.5014    1.7600 H   0  0  0  0  0  0  0  0  0  0  0  0
   -7.8818    2.9341    3.7754 H   0  0  0  0  0  0  0  0  0  0  0  0
   -8.1648    2.5113    0.4969 H   0  0  0  0  0  0  0  0  0  0  0  0
   -8.6418    4.9950    0.5513 H   0  0  0  0  0  0  0  0  0  0  0  0
   -6.5812    6.3881    1.5483 H   0  0  0  0  0  0  0  0  0  0  0  0
   -4.4997    5.8179    0.2828 H   0  0  0  0  0  0  0  0  0  0  0  0
   -5.2265    4.0677   -1.6562 H   0  0  0  0  0  0  0  0  0  0  0  0
   -7.7558    3.6628   -1.4986 H   0  0  0  0  0  0  0  0  0  0  0  0
   -7.3271    5.4775   -1.6288 H   0  0  0  0  0  0  0  0  0  0  0  0
   -5.9988    1.9789   -0.4864 H   0  0  0  0  0  0  0  0  0  0  0  0
  1  2  2  3
  2  3  1  0
  3  4  2  0
  3  5  1  0
  5  6  2  0
  6  7  1  0
  6  8  1  0
  8  9  1  0
  8 10  2  0
 10 11  1  0
 10 12  1  0
 12 13  1  0
 12 14  2  0
 14 15  1  0
 15 16  2  3
 16 17  1  0
 17 18  3  0
 16 19  1  0
 19 20  3  0
  1 21  1  0
 21 22  2  0
 22 23  1  0
 23 24  1  0
 22 25  1  0
 25 26  1  0
 26 27  1  0
 27 28  1  0
 28 29  1  0
 29 30  1  0
 30 31  2  0
 31 32  1  0
 32 33  1  0
 30 34  1  0
 34 35  1  0
 35 36  1  0
 36 37  1  0
 37 38  1  0
 38 39  1  0
 39 40  1  0
 38 41  2  0
 41 42  1  0
 42 43  1  0
 43 44  1  0
 44 45  1  0
 45 46  1  0
 46 47  1  0
 47 48  1  0
 48 49  1  0
 49 50  1  0
 50 51  1  0
 48 52  1  0
 52 53  1  0
 45 54  1  0
 54 55  1  0
 41 56  1  0
 56 57  2  3
 57 58  1  0
 58 59  2  0
 58 60  1  0
 60 61  2  0
 61 62  1  0
 62 63  2  0
 63 64  1  0
 64 65  2  0
 65 66  1  0
 66 67  2  3
 67 68  1  0
 68 69  3  0
 67 70  1  0
 70 71  3  0
 63 72  1  0
 72 73  1  0
 73 74  1  0
 74 75  2  0
 75 76  1  0
 76 77  1  0
 76 78  1  0
 15  2  1  0
 51 21  1  0
 66 57  1  0
 78 72  1  0
 14  5  1  0
 50 25  2  0
 65 60  1  0
 77 73  1  0
 49 27  2  0
 78 62  1  0
 47 28  2  0
 33 29  2  0
 46 34  2  0
 44 35  2  0
 43 37  2  0
  1 79  1  0
 23 80  1  0
 23 81  1  0
 24 82  1  0
 24 83  1  0
 24 84  1  0
 39 85  1  0
 39 86  1  0
 40 87  1  0
 40 88  1  0
 40 89  1  0
 52 90  1  0
 52 91  1  0
 53 92  1  0
 53 93  1  0
 53 94  1  0
 54 95  1  0
 54 96  1  0
 55 97  1  0
 55 98  1  0
 55 99  1  0
 56100  1  0
 61101  1  0
 64102  1  0
 72103  1  0
 73104  1  0
 74105  1  0
 75106  1  0
 76107  1  0
 77108  1  0
 77109  1  0
 78110  1  0
M  END

