
     RDKit          3D

171191  0  0  0  0  0  0  0  0999 V2000
   -6.4805    5.9607    2.5628 C   0  0  0  0  0  0  0  0  0  0  0  0
   -6.3692    7.1541    1.9383 C   0  0  0  0  0  0  0  0  0  0  0  0
   -5.2549    7.6865    1.1410 C   0  0  0  0  0  0  0  0  0  0  0  0
   -4.0317    7.5917    1.4167 O   0  0  0  0  0  0  0  0  0  0  0  0
   -5.8043    8.5711    0.1227 C   0  0  0  0  0  0  0  0  0  0  0  0
   -5.1667    9.1371   -0.9869 C   0  0  0  0  0  0  0  0  0  0  0  0
   -3.4236    8.9775   -1.2065 Cl  0  0  0  0  0  0  0  0  0  0  0  0
   -5.9519    9.8242   -1.9316 C   0  0  0  0  0  0  0  0  0  0  0  0
   -5.1840   10.5858   -3.3262 Cl  0  0  0  0  0  0  0  0  0  0  0  0
   -7.3632    9.8516   -1.7939 C   0  0  0  0  0  0  0  0  0  0  0  0
   -8.3498   10.6119   -3.0461 Cl  0  0  0  0  0  0  0  0  0  0  0  0
   -7.9807    9.2519   -0.6720 C   0  0  0  0  0  0  0  0  0  0  0  0
   -9.7289    9.0251   -0.6523 Cl  0  0  0  0  0  0  0  0  0  0  0  0
   -7.1643    8.7000    0.3309 C   0  0  0  0  0  0  0  0  0  0  0  0
   -7.5281    8.0194    1.5985 C   0  0  0  0  0  0  0  0  0  0  0  0
   -8.4343    8.4684    2.5003 C   0  0  0  0  0  0  0  0  0  0  0  0
   -8.5441    7.8950    3.8185 C   0  0  0  0  0  0  0  0  0  0  0  0
   -8.6368    7.4387    4.8773 N   0  0  0  0  0  0  0  0  0  0  0  0
   -9.1704    9.6927    2.2914 C   0  0  0  0  0  0  0  0  0  0  0  0
   -9.7503   10.6822    2.1399 N   0  0  0  0  0  0  0  0  0  0  0  0
   -5.5003    4.8480    2.5766 C   0  0  0  0  0  0  0  0  0  0  0  0
   -3.9179    4.8329    2.0069 S   0  0  0  0  0  0  0  0  0  0  0  0
   -3.6653    3.1877    2.1887 C   0  0  0  0  0  0  0  0  0  0  0  0
   -2.5078    2.4239    1.7378 C   0  0  0  0  0  0  0  0  0  0  0  0
   -2.5578    0.9986    1.8943 C   0  0  0  0  0  0  0  0  0  0  0  0
   -3.6826    0.3194    2.4094 C   0  0  0  0  0  0  0  0  0  0  0  0
   -4.9843    1.0729    2.7714 C   0  0  0  0  0  0  0  0  0  0  0  0
   -4.8057    2.5960    2.7038 C   0  0  0  0  0  0  0  0  0  0  0  0
   -5.8356    3.5358    2.9269 C   0  0  0  0  0  0  0  0  0  0  0  0
   -6.0220    0.6457    1.7098 C   0  0  0  0  0  0  0  0  0  0  0  0
   -6.0749    1.3102    0.4633 C   0  0  0  0  0  0  0  0  0  0  0  0
   -6.9671    0.9130   -0.5298 C   0  0  0  0  0  0  0  0  0  0  0  0
   -7.7916   -0.2030   -0.3394 C   0  0  0  0  0  0  0  0  0  0  0  0
   -8.7581   -0.6196   -1.4187 C   0  0  0  0  0  0  0  0  0  0  0  0
   -8.0230   -1.1081   -2.6660 C   0  0  0  0  0  0  0  0  0  0  0  0
   -7.7026   -0.9172    0.8656 C   0  0  0  0  0  0  0  0  0  0  0  0
   -6.8121   -0.5154    1.8661 C   0  0  0  0  0  0  0  0  0  0  0  0
   -5.3812    0.7600    4.2306 C   0  0  0  0  0  0  0  0  0  0  0  0
   -6.7224    0.8225    4.6655 C   0  0  0  0  0  0  0  0  0  0  0  0
   -7.0570    0.5799    6.0026 C   0  0  0  0  0  0  0  0  0  0  0  0
   -6.0549    0.3343    6.9523 C   0  0  0  0  0  0  0  0  0  0  0  0
   -6.4048    0.0637    8.3926 C   0  0  0  0  0  0  0  0  0  0  0  0
   -6.2360   -1.4165    8.7275 C   0  0  0  0  0  0  0  0  0  0  0  0
   -4.7135    0.3405    6.5468 C   0  0  0  0  0  0  0  0  0  0  0  0
   -4.3806    0.5690    5.2128 C   0  0  0  0  0  0  0  0  0  0  0  0
   -3.5985   -1.0924    2.5707 C   0  0  0  0  0  0  0  0  0  0  0  0
   -2.4234   -1.8158    2.2730 C   0  0  0  0  0  0  0  0  0  0  0  0
   -1.2972   -1.1553    1.7594 C   0  0  0  0  0  0  0  0  0  0  0  0
   -0.0124   -1.7796    1.4564 C   0  0  0  0  0  0  0  0  0  0  0  0
    1.0283   -0.9587    0.9391 C   0  0  0  0  0  0  0  0  0  0  0  0
    0.7630    0.3578    0.7215 C   0  0  0  0  0  0  0  0  0  0  0  0
    1.6251    1.3173    0.3275 C   0  0  0  0  0  0  0  0  0  0  0  0
    0.9891    2.5347    0.3591 N   0  0  0  0  0  0  0  0  0  0  0  0
   -0.2728    2.2498    0.8175 C   0  0  0  0  0  0  0  0  0  0  0  0
   -1.3463    3.0676    1.1900 C   0  0  0  0  0  0  0  0  0  0  0  0
   -0.3829    0.9200    1.0089 C   0  0  0  0  0  0  0  0  0  0  0  0
   -1.4318    0.2449    1.5470 C   0  0  0  0  0  0  0  0  0  0  0  0
    1.5608    3.8495    0.0883 C   0  0  0  0  0  0  0  0  0  0  0  0
    2.1676    4.4329    1.3577 C   0  0  0  0  0  0  0  0  0  0  0  0
    2.9385    0.9423    0.0222 C   0  0  0  0  0  0  0  0  0  0  0  0
    3.2810   -0.4449    0.1680 C   0  0  0  0  0  0  0  0  0  0  0  0
    4.5781   -0.9521   -0.2527 C   0  0  0  0  0  0  0  0  0  0  0  0
    4.9446   -2.2880   -0.1368 C   0  0  0  0  0  0  0  0  0  0  0  0
    4.0423   -3.3359    0.5467 C   0  0  0  0  0  0  0  0  0  0  0  0
    4.6545   -3.7489    1.9023 C   0  0  0  0  0  0  0  0  0  0  0  0
    5.3602   -2.8109    2.6911 C   0  0  0  0  0  0  0  0  0  0  0  0
    5.8572   -3.1581    3.9521 C   0  0  0  0  0  0  0  0  0  0  0  0
    5.6491   -4.4446    4.4676 C   0  0  0  0  0  0  0  0  0  0  0  0
    6.1839   -4.8197    5.8236 C   0  0  0  0  0  0  0  0  0  0  0  0
    5.1148   -4.6408    6.8969 C   0  0  0  0  0  0  0  0  0  0  0  0
    4.8967   -5.3618    3.7259 C   0  0  0  0  0  0  0  0  0  0  0  0
    4.3912   -5.0153    2.4710 C   0  0  0  0  0  0  0  0  0  0  0  0
    3.9094   -4.5073   -0.4536 C   0  0  0  0  0  0  0  0  0  0  0  0
    2.9131   -4.4854   -1.4551 C   0  0  0  0  0  0  0  0  0  0  0  0
    2.8224   -5.5040   -2.4049 C   0  0  0  0  0  0  0  0  0  0  0  0
    3.7422   -6.5573   -2.4036 C   0  0  0  0  0  0  0  0  0  0  0  0
    3.6928   -7.6085   -3.4800 C   0  0  0  0  0  0  0  0  0  0  0  0
    4.4994   -7.1675   -4.6979 C   0  0  0  0  0  0  0  0  0  0  0  0
    4.7766   -6.5613   -1.4586 C   0  0  0  0  0  0  0  0  0  0  0  0
    4.8681   -5.5435   -0.5059 C   0  0  0  0  0  0  0  0  0  0  0  0
    2.6375   -2.7610    0.8662 C   0  0  0  0  0  0  0  0  0  0  0  0
    2.3301   -1.3971    0.6622 C   0  0  0  0  0  0  0  0  0  0  0  0
    1.6062   -3.6092    1.3634 C   0  0  0  0  0  0  0  0  0  0  0  0
    0.3108   -3.1308    1.6586 C   0  0  0  0  0  0  0  0  0  0  0  0
    6.1885   -2.5509   -0.7554 C   0  0  0  0  0  0  0  0  0  0  0  0
    6.7038   -1.4460   -1.4285 C   0  0  0  0  0  0  0  0  0  0  0  0
    5.7004   -0.1237   -1.1773 S   0  0  0  0  0  0  0  0  0  0  0  0
    7.8168   -1.4386   -2.3957 C   0  0  0  0  0  0  0  0  0  0  0  0
    7.6357   -1.0017   -3.6577 C   0  0  0  0  0  0  0  0  0  0  0  0
    8.6601   -0.3048   -4.4359 C   0  0  0  0  0  0  0  0  0  0  0  0
    9.9020   -0.3431   -4.2285 O   0  0  0  0  0  0  0  0  0  0  0  0
    7.9894    0.5217   -5.4302 C   0  0  0  0  0  0  0  0  0  0  0  0
    8.5759    1.4133   -6.3655 C   0  0  0  0  0  0  0  0  0  0  0  0
    7.6572    2.0864   -7.1569 C   0  0  0  0  0  0  0  0  0  0  0  0
    6.2404    1.9160   -7.0249 C   0  0  0  0  0  0  0  0  0  0  0  0
    5.6605    1.0594   -6.1034 C   0  0  0  0  0  0  0  0  0  0  0  0
    6.5877    0.3249   -5.3204 C   0  0  0  0  0  0  0  0  0  0  0  0
    6.3328   -0.7504   -4.3323 C   0  0  0  0  0  0  0  0  0  0  0  0
    5.3022   -1.6274   -4.3699 C   0  0  0  0  0  0  0  0  0  0  0  0
    5.4597   -2.9672   -3.8663 C   0  0  0  0  0  0  0  0  0  0  0  0
    5.6013   -4.0485   -3.4776 N   0  0  0  0  0  0  0  0  0  0  0  0
    4.0801   -1.3705   -5.0892 C   0  0  0  0  0  0  0  0  0  0  0  0
    3.0888   -1.1779   -5.6612 N   0  0  0  0  0  0  0  0  0  0  0  0
    6.0005    2.8823   -8.1433 C   0  0  0  0  0  0  0  0  0  0  0  0
    5.5600    2.2879   -9.5174 C   0  0  0  0  0  0  0  0  0  0  0  0
    6.1477    0.9048   -9.6943 C   0  0  0  0  0  0  0  0  0  0  0  0
    7.4637    1.0716   -9.8346 C   0  0  0  0  0  0  0  0  0  0  0  0
    7.7266    2.5576   -9.7409 C   0  0  0  0  0  0  0  0  0  0  0  0
    6.4809    3.0628  -10.4432 C   0  0  0  0  0  0  0  0  0  0  0  0
    7.4503    3.0567   -8.2874 C   0  0  0  0  0  0  0  0  0  0  0  0
   -7.4501    5.6991    2.9619 H   0  0  0  0  0  0  0  0  0  0  0  0
   -6.8277    3.2554    3.2451 H   0  0  0  0  0  0  0  0  0  0  0  0
   -5.4167    2.1384    0.2435 H   0  0  0  0  0  0  0  0  0  0  0  0
   -7.0035    1.4702   -1.4588 H   0  0  0  0  0  0  0  0  0  0  0  0
   -9.4041    0.2456   -1.6898 H   0  0  0  0  0  0  0  0  0  0  0  0
   -9.4267   -1.4322   -1.0559 H   0  0  0  0  0  0  0  0  0  0  0  0
   -8.7601   -1.4750   -3.4124 H   0  0  0  0  0  0  0  0  0  0  0  0
   -7.4462   -0.2737   -3.1260 H   0  0  0  0  0  0  0  0  0  0  0  0
   -7.3298   -1.9380   -2.4082 H   0  0  0  0  0  0  0  0  0  0  0  0
   -8.3195   -1.7905    1.0279 H   0  0  0  0  0  0  0  0  0  0  0  0
   -6.7413   -1.1190    2.7644 H   0  0  0  0  0  0  0  0  0  0  0  0
   -7.5212    1.0484    3.9708 H   0  0  0  0  0  0  0  0  0  0  0  0
   -8.0954    0.6117    6.3000 H   0  0  0  0  0  0  0  0  0  0  0  0
   -7.4537    0.3645    8.6060 H   0  0  0  0  0  0  0  0  0  0  0  0
   -5.7452    0.6634    9.0583 H   0  0  0  0  0  0  0  0  0  0  0  0
   -6.4964   -1.5907    9.7935 H   0  0  0  0  0  0  0  0  0  0  0  0
   -5.1823   -1.7327    8.5666 H   0  0  0  0  0  0  0  0  0  0  0  0
   -6.9053   -2.0339    8.0913 H   0  0  0  0  0  0  0  0  0  0  0  0
   -3.9232    0.1763    7.2702 H   0  0  0  0  0  0  0  0  0  0  0  0
   -3.3328    0.5835    4.9497 H   0  0  0  0  0  0  0  0  0  0  0  0
   -4.4420   -1.6390    2.9677 H   0  0  0  0  0  0  0  0  0  0  0  0
   -2.4154   -2.8839    2.4462 H   0  0  0  0  0  0  0  0  0  0  0  0
   -1.2800    4.1414    1.0871 H   0  0  0  0  0  0  0  0  0  0  0  0
    2.3415    3.7678   -0.6945 H   0  0  0  0  0  0  0  0  0  0  0  0
    0.7695    4.5328   -0.2931 H   0  0  0  0  0  0  0  0  0  0  0  0
    2.6148    5.4233    1.1363 H   0  0  0  0  0  0  0  0  0  0  0  0
    2.9629    3.7618    1.7403 H   0  0  0  0  0  0  0  0  0  0  0  0
    1.3843    4.5506    2.1367 H   0  0  0  0  0  0  0  0  0  0  0  0
    3.6542    1.6777   -0.3165 H   0  0  0  0  0  0  0  0  0  0  0  0
    5.5223   -1.7990    2.3449 H   0  0  0  0  0  0  0  0  0  0  0  0
    6.4021   -2.4193    4.5247 H   0  0  0  0  0  0  0  0  0  0  0  0
    7.0673   -4.1934    6.0778 H   0  0  0  0  0  0  0  0  0  0  0  0
    6.5201   -5.8800    5.8130 H   0  0  0  0  0  0  0  0  0  0  0  0
    4.2399   -5.2937    6.6908 H   0  0  0  0  0  0  0  0  0  0  0  0
    5.5331   -4.9174    7.8881 H   0  0  0  0  0  0  0  0  0  0  0  0
    4.7810   -3.5817    6.9343 H   0  0  0  0  0  0  0  0  0  0  0  0
    4.6952   -6.3473    4.1235 H   0  0  0  0  0  0  0  0  0  0  0  0
    3.7932   -5.7490    1.9487 H   0  0  0  0  0  0  0  0  0  0  0  0
    2.2053   -3.6688   -1.5213 H   0  0  0  0  0  0  0  0  0  0  0  0
    2.0481   -5.4566   -3.1608 H   0  0  0  0  0  0  0  0  0  0  0  0
    4.0993   -8.5703   -3.0970 H   0  0  0  0  0  0  0  0  0  0  0  0
    2.6403   -7.7916   -3.7844 H   0  0  0  0  0  0  0  0  0  0  0  0
    4.0783   -6.2281   -5.1193 H   0  0  0  0  0  0  0  0  0  0  0  0
    4.4590   -7.9591   -5.4750 H   0  0  0  0  0  0  0  0  0  0  0  0
    5.5612   -6.9958   -4.4145 H   0  0  0  0  0  0  0  0  0  0  0  0
    5.5279   -7.3407   -1.4725 H   0  0  0  0  0  0  0  0  0  0  0  0
    5.7042   -5.5636    0.1808 H   0  0  0  0  0  0  0  0  0  0  0  0
    1.7983   -4.6601    1.5160 H   0  0  0  0  0  0  0  0  0  0  0  0
   -0.4212   -3.8268    2.0449 H   0  0  0  0  0  0  0  0  0  0  0  0
    6.6509   -3.5292   -0.7928 H   0  0  0  0  0  0  0  0  0  0  0  0
    8.8203   -1.5666   -2.0105 H   0  0  0  0  0  0  0  0  0  0  0  0
    9.6462    1.5616   -6.4599 H   0  0  0  0  0  0  0  0  0  0  0  0
    4.5892    1.0099   -5.9788 H   0  0  0  0  0  0  0  0  0  0  0  0
    5.4641    3.8059   -7.8389 H   0  0  0  0  0  0  0  0  0  0  0  0
    4.4720    2.3736   -9.7402 H   0  0  0  0  0  0  0  0  0  0  0  0
    5.6086   -0.0384   -9.7481 H   0  0  0  0  0  0  0  0  0  0  0  0
    8.1781    0.2896  -10.0547 H   0  0  0  0  0  0  0  0  0  0  0  0
    8.6902    2.8893  -10.1805 H   0  0  0  0  0  0  0  0  0  0  0  0
    6.4069    2.7394  -11.5080 H   0  0  0  0  0  0  0  0  0  0  0  0
    6.3506    4.1670  -10.3742 H   0  0  0  0  0  0  0  0  0  0  0  0
    7.8007    4.0909   -8.0714 H   0  0  0  0  0  0  0  0  0  0  0  0
  1  2  2  3
  2  3  1  0
  3  4  2  0
  3  5  1  0
  5  6  2  0
  6  7  1  0
  6  8  1  0
  8  9  1  0
  8 10  2  0
 10 11  1  0
 10 12  1  0
 12 13  1  0
 12 14  2  0
 14 15  1  0
 15 16  2  3
 16 17  1  0
 17 18  3  0
 16 19  1  0
 19 20  3  0
  1 21  1  0
 21 22  1  0
 22 23  1  0
 23 24  1  0
 24 25  2  0
 25 26  1  0
 26 27  1  0
 27 28  1  0
 28 29  1  0
 27 30  1  0
 30 31  2  0
 31 32  1  0
 32 33  2  0
 33 34  1  0
 34 35  1  0
 33 36  1  0
 36 37  2  0
 27 38  1  0
 38 39  2  0
 39 40  1  0
 40 41  2  0
 41 42  1  0
 42 43  1  0
 41 44  1  0
 44 45  2  0
 26 46  2  0
 46 47  1  0
 47 48  2  0
 48 49  1  0
 49 50  1  0
 50 51  2  0
 51 52  1  0
 52 53  1  0
 53 54  1  0
 54 55  2  0
 54 56  1  0
 56 57  2  0
 53 58  1  0
 58 59  1  0
 52 60  2  0
 60 61  1  0
 61 62  1  0
 62 63  2  0
 63 64  1  0
 64 65  1  0
 65 66  2  0
 66 67  1  0
 67 68  2  0
 68 69  1  0
 69 70  1  0
 68 71  1  0
 71 72  2  0
 64 73  1  0
 73 74  2  0
 74 75  1  0
 75 76  2  0
 76 77  1  0
 77 78  1  0
 76 79  1  0
 79 80  2  0
 64 81  1  0
 81 82  1  0
 81 83  2  0
 83 84  1  0
 63 85  1  0
 85 86  2  0
 86 87  1  0
 86 88  1  0
 88 89  2  3
 89 90  1  0
 90 91  2  0
 90 92  1  0
 92 93  2  0
 93 94  1  0
 94 95  2  0
 95 96  1  0
 96 97  2  0
 97 98  1  0
 98 99  2  3
 99100  1  0
100101  3  0
 99102  1  0
102103  3  0
 95104  1  0
104105  1  0
105106  1  0
106107  2  0
107108  1  0
108109  1  0
108110  1  0
 15  2  1  0
 29 21  2  0
 37 30  1  0
 45 38  1  0
 57 48  1  0
 82 61  2  0
 98 89  1  0
110104  1  0
 14  5  1  0
 28 23  2  0
 84 49  2  0
 97 92  1  0
109105  1  0
 55 24  1  0
 87 62  1  0
110 94  1  0
 57 25  1  0
 72 65  1  0
 80 73  1  0
 82 50  1  0
 56 51  1  0
  1111  1  0
 29112  1  0
 31113  1  0
 32114  1  0
 34115  1  0
 34116  1  0
 35117  1  0
 35118  1  0
 35119  1  0
 36120  1  0
 37121  1  0
 39122  1  0
 40123  1  0
 42124  1  0
 42125  1  0
 43126  1  0
 43127  1  0
 43128  1  0
 44129  1  0
 45130  1  0
 46131  1  0
 47132  1  0
 55133  1  0
 58134  1  0
 58135  1  0
 59136  1  0
 59137  1  0
 59138  1  0
 60139  1  0
 66140  1  0
 67141  1  0
 69142  1  0
 69143  1  0
 70144  1  0
 70145  1  0
 70146  1  0
 71147  1  0
 72148  1  0
 74149  1  0
 75150  1  0
 77151  1  0
 77152  1  0
 78153  1  0
 78154  1  0
 78155  1  0
 79156  1  0
 80157  1  0
 83158  1  0
 84159  1  0
 85160  1  0
 88161  1  0
 93162  1  0
 96163  1  0
104164  1  0
105165  1  0
106166  1  0
107167  1  0
108168  1  0
109169  1  0
109170  1  0
110171  1  0
M  END

