
     RDKit          3D

 85 96  0  0  0  0  0  0  0  0999 V2000
    5.4088    1.0955    5.9773 C   0  0  0  0  0  0  0  0  0  0  0  0
    5.0288    2.4366    6.2671 C   0  0  0  0  0  0  0  0  0  0  0  0
    6.0754    3.3645    6.4047 C   0  0  0  0  0  0  0  0  0  0  0  0
    7.3435    3.1747    6.4664 O   0  0  0  0  0  0  0  0  0  0  0  0
    5.3887    4.6127    6.4664 C   0  0  0  0  0  0  0  0  0  0  0  0
    5.9798    5.8950    6.4637 C   0  0  0  0  0  0  0  0  0  0  0  0
    7.7051    6.0576    6.6420 Cl  0  0  0  0  0  0  0  0  0  0  0  0
    5.1855    6.9875    6.3380 C   0  0  0  0  0  0  0  0  0  0  0  0
    5.8888    8.5888    6.3490 Cl  0  0  0  0  0  0  0  0  0  0  0  0
    3.8422    6.8345    6.2046 C   0  0  0  0  0  0  0  0  0  0  0  0
    2.8150    8.2187    6.0316 Cl  0  0  0  0  0  0  0  0  0  0  0  0
    3.3336    5.5151    6.2221 C   0  0  0  0  0  0  0  0  0  0  0  0
    1.7308    5.5293    5.3837 Cl  0  0  0  0  0  0  0  0  0  0  0  0
    4.0803    4.4424    6.3741 C   0  0  0  0  0  0  0  0  0  0  0  0
    3.7097    2.7204    6.2529 C   0  0  0  0  0  0  0  0  0  0  0  0
    2.4372    2.9978    6.2403 C   0  0  0  0  0  0  0  0  0  0  0  0
    1.4001    2.0075    5.8507 C   0  0  0  0  0  0  0  0  0  0  0  0
    0.5890    1.2428    5.5334 N   0  0  0  0  0  0  0  0  0  0  0  0
    1.7309    3.9320    7.1580 C   0  0  0  0  0  0  0  0  0  0  0  0
    1.1635    4.6831    7.8922 N   0  0  0  0  0  0  0  0  0  0  0  0
    4.5047    0.0732    5.7553 C   0  0  0  0  0  0  0  0  0  0  0  0
    3.9668   -1.1112    5.9117 C   0  0  0  0  0  0  0  0  0  0  0  0
    3.0462   -1.7324    5.1549 C   0  0  0  0  0  0  0  0  0  0  0  0
    2.2878   -3.3606    5.1657 S   0  0  0  0  0  0  0  0  0  0  0  0
    1.3198   -3.1680    3.7368 C   0  0  0  0  0  0  0  0  0  0  0  0
    0.3905   -3.7328    2.8907 C   0  0  0  0  0  0  0  0  0  0  0  0
   -0.1258   -5.0305    2.8248 C   0  0  0  0  0  0  0  0  0  0  0  0
   -0.9414   -5.3275    1.7840 C   0  0  0  0  0  0  0  0  0  0  0  0
   -1.4097   -6.5912    1.7453 N   0  0  0  0  0  0  0  0  0  0  0  0
   -0.7456   -7.3246    3.0943 S   0  0  0  0  0  0  0  0  0  0  0  0
    0.1180   -6.0227    3.6897 N   0  0  0  0  0  0  0  0  0  0  0  0
   -1.2592   -4.3468    0.8337 C   0  0  0  0  0  0  0  0  0  0  0  0
   -2.0952   -4.3759   -0.2539 C   0  0  0  0  0  0  0  0  0  0  0  0
   -2.1391   -3.1335   -0.8563 C   0  0  0  0  0  0  0  0  0  0  0  0
   -1.2972   -2.3338   -0.0989 N   0  0  0  0  0  0  0  0  0  0  0  0
   -1.2266   -0.9176   -0.3631 C   0  0  0  0  0  0  0  0  0  0  0  0
   -2.2113   -0.1646    0.5073 C   0  0  0  0  0  0  0  0  0  0  0  0
   -0.7740   -3.0542    0.8892 C   0  0  0  0  0  0  0  0  0  0  0  0
    0.0878   -2.7804    1.9480 C   0  0  0  0  0  0  0  0  0  0  0  0
    0.8218   -1.6898    2.2048 N   0  0  0  0  0  0  0  0  0  0  0  0
    1.6085   -1.9293    3.3424 C   0  0  0  0  0  0  0  0  0  0  0  0
    2.4733   -1.3089    4.1046 C   0  0  0  0  0  0  0  0  0  0  0  0
    3.4347    0.5244    4.0220 Se  0  0  0  0  0  2  0  0  0  0  0  0
    1.0050   -0.4920    1.4786 C   0  0  0  0  0  0  0  0  0  0  0  0
    2.2253   -0.7382    0.5396 C   0  0  0  0  0  0  0  0  0  0  0  0
   -2.8724   -3.1607   -1.9037 C   0  0  0  0  0  0  0  0  0  0  0  0
   -3.5247   -4.0564   -2.4704 C   0  0  0  0  0  0  0  0  0  0  0  0
   -3.0939   -5.3434   -1.2861 S   0  0  0  0  0  0  0  0  0  0  0  0
   -4.2730   -4.0815   -3.5723 C   0  0  0  0  0  0  0  0  0  0  0  0
   -4.4511   -2.9034   -4.3506 C   0  0  0  0  0  0  0  0  0  0  0  0
   -3.4107   -1.6549   -3.3300 Se  0  0  0  0  0  2  0  0  0  0  0  0
   -5.1363   -2.8441   -5.5829 C   0  0  0  0  0  0  0  0  0  0  0  0
   -4.8553   -2.2839   -6.7488 C   0  0  0  0  0  0  0  0  0  0  0  0
   -5.8033   -2.4354   -7.8770 C   0  0  0  0  0  0  0  0  0  0  0  0
   -7.0002   -2.8549   -7.7762 O   0  0  0  0  0  0  0  0  0  0  0  0
   -5.1415   -2.0302   -9.0901 C   0  0  0  0  0  0  0  0  0  0  0  0
   -5.6185   -1.9730  -10.4009 C   0  0  0  0  0  0  0  0  0  0  0  0
   -4.8021   -1.5094  -11.4250 C   0  0  0  0  0  0  0  0  0  0  0  0
   -3.5356   -1.1169  -11.1152 C   0  0  0  0  0  0  0  0  0  0  0  0
   -2.4434   -0.5011  -12.3535 Cl  0  0  0  0  0  0  0  0  0  0  0  0
   -3.0711   -1.1813   -9.7941 C   0  0  0  0  0  0  0  0  0  0  0  0
   -3.8825   -1.6391   -8.7994 C   0  0  0  0  0  0  0  0  0  0  0  0
   -3.6270   -1.7684   -7.2524 C   0  0  0  0  0  0  0  0  0  0  0  0
   -2.7178   -0.9121   -6.8936 C   0  0  0  0  0  0  0  0  0  0  0  0
   -2.5002   -0.0102   -5.8750 C   0  0  0  0  0  0  0  0  0  0  0  0
   -2.3227    0.7551   -5.0407 N   0  0  0  0  0  0  0  0  0  0  0  0
   -1.3451   -1.3920   -7.4570 C   0  0  0  0  0  0  0  0  0  0  0  0
   -0.2968   -1.7458   -7.9041 N   0  0  0  0  0  0  0  0  0  0  0  0
    6.4361    0.9298    5.9469 H   0  0  0  0  0  0  0  0  0  0  0  0
    4.3959   -1.6533    6.8652 H   0  0  0  0  0  0  0  0  0  0  0  0
   -1.7499   -0.7428   -1.3935 H   0  0  0  0  0  0  0  0  0  0  0  0
   -0.2995   -0.4788   -0.6832 H   0  0  0  0  0  0  0  0  0  0  0  0
   -2.5039   -0.8441    1.3656 H   0  0  0  0  0  0  0  0  0  0  0  0
   -3.1759    0.0739   -0.0031 H   0  0  0  0  0  0  0  0  0  0  0  0
   -1.8115    0.7837    0.8839 H   0  0  0  0  0  0  0  0  0  0  0  0
    0.3298    0.0644    0.9870 H   0  0  0  0  0  0  0  0  0  0  0  0
    1.5066    0.2730    2.2189 H   0  0  0  0  0  0  0  0  0  0  0  0
    2.8055    0.1835    0.3899 H   0  0  0  0  0  0  0  0  0  0  0  0
    1.8767   -1.2454   -0.3631 H   0  0  0  0  0  0  0  0  0  0  0  0
    2.8885   -1.5035    1.0577 H   0  0  0  0  0  0  0  0  0  0  0  0
   -4.8178   -4.9724   -3.9948 H   0  0  0  0  0  0  0  0  0  0  0  0
   -6.1505   -3.3714   -5.5784 H   0  0  0  0  0  0  0  0  0  0  0  0
   -6.6198   -2.2821  -10.5930 H   0  0  0  0  0  0  0  0  0  0  0  0
   -5.1603   -1.4477  -12.4439 H   0  0  0  0  0  0  0  0  0  0  0  0
   -2.0701   -0.8449   -9.6695 H   0  0  0  0  0  0  0  0  0  0  0  0
  1  2  2  3
  2  3  1  0
  3  4  2  0
  3  5  1  0
  5  6  2  0
  6  7  1  0
  6  8  1  0
  8  9  1  0
  8 10  2  0
 10 11  1  0
 10 12  1  0
 12 13  1  0
 12 14  2  0
 14 15  1  0
 15 16  2  3
 16 17  1  0
 17 18  3  0
 16 19  1  0
 19 20  3  0
  1 21  1  0
 21 22  2  0
 22 23  1  0
 23 24  1  0
 24 25  1  0
 25 26  1  0
 26 27  1  0
 27 28  1  0
 28 29  2  0
 29 30  1  0
 30 31  1  0
 28 32  1  0
 32 33  1  0
 33 34  2  0
 34 35  1  0
 35 36  1  0
 36 37  1  0
 35 38  1  0
 38 39  1  0
 39 40  1  0
 40 41  1  0
 41 42  1  0
 42 43  1  0
 40 44  1  0
 44 45  1  0
 34 46  1  0
 46 47  2  0
 47 48  1  0
 47 49  1  0
 49 50  2  0
 50 51  1  0
 50 52  1  0
 52 53  2  3
 53 54  1  0
 54 55  2  0
 54 56  1  0
 56 57  2  0
 57 58  1  0
 58 59  2  0
 59 60  1  0
 59 61  1  0
 61 62  2  0
 62 63  1  0
 63 64  2  3
 64 65  1  0
 65 66  3  0
 64 67  1  0
 67 68  3  0
 15  2  1  0
 43 21  1  0
 51 46  1  0
 63 53  1  0
 14  5  1  0
 42 23  2  0
 62 56  1  0
 41 25  2  0
 39 26  2  0
 31 27  2  0
 38 32  2  0
 48 33  1  0
  1 69  1  0
 22 70  1  0
 36 71  1  0
 36 72  1  0
 37 73  1  0
 37 74  1  0
 37 75  1  0
 44 76  1  0
 44 77  1  0
 45 78  1  0
 45 79  1  0
 45 80  1  0
 49 81  1  0
 52 82  1  0
 57 83  1  0
 58 84  1  0
 61 85  1  0
M  END

