
     RDKit          3D

108121  0  0  0  0  0  0  0  0999 V2000
   -1.2516   -5.8594   -5.9158 C   0  0  0  0  0  0  0  0  0  0  0  0
   -0.1964   -6.4287   -5.3064 C   0  0  0  0  0  0  0  0  0  0  0  0
    0.4159   -5.9976   -4.0444 C   0  0  0  0  0  0  0  0  0  0  0  0
    0.2700   -4.8720   -3.4922 O   0  0  0  0  0  0  0  0  0  0  0  0
    1.1970   -7.1108   -3.5188 C   0  0  0  0  0  0  0  0  0  0  0  0
    1.8175   -7.2365   -2.2717 C   0  0  0  0  0  0  0  0  0  0  0  0
    1.9178   -5.8627   -1.1744 Cl  0  0  0  0  0  0  0  0  0  0  0  0
    2.3418   -8.4917   -1.9076 C   0  0  0  0  0  0  0  0  0  0  0  0
    3.1464   -8.6867   -0.3522 Cl  0  0  0  0  0  0  0  0  0  0  0  0
    2.1567   -9.6085   -2.7524 C   0  0  0  0  0  0  0  0  0  0  0  0
    2.7205  -11.2002   -2.2416 Cl  0  0  0  0  0  0  0  0  0  0  0  0
    1.5030   -9.4626   -3.9950 C   0  0  0  0  0  0  0  0  0  0  0  0
    0.9774  -10.8989   -4.8759 Cl  0  0  0  0  0  0  0  0  0  0  0  0
    1.1222   -8.1714   -4.4084 C   0  0  0  0  0  0  0  0  0  0  0  0
    0.4334   -7.7291   -5.6525 C   0  0  0  0  0  0  0  0  0  0  0  0
    0.7609   -8.1107   -6.9125 C   0  0  0  0  0  0  0  0  0  0  0  0
    0.2473   -7.4372   -8.0773 C   0  0  0  0  0  0  0  0  0  0  0  0
   -0.1611   -6.8989   -9.0210 N   0  0  0  0  0  0  0  0  0  0  0  0
    1.7947   -9.0750   -7.1757 C   0  0  0  0  0  0  0  0  0  0  0  0
    2.6194   -9.8572   -7.3953 N   0  0  0  0  0  0  0  0  0  0  0  0
   -1.8567   -4.6073   -5.4363 C   0  0  0  0  0  0  0  0  0  0  0  0
   -1.4889   -3.3486   -5.9347 C   0  0  0  0  0  0  0  0  0  0  0  0
   -2.0839   -2.4800   -5.0518 C   0  0  0  0  0  0  0  0  0  0  0  0
   -2.7590   -3.1690   -4.1309 C   0  0  0  0  0  0  0  0  0  0  0  0
   -2.6283   -4.4992   -4.3093 N   0  0  0  0  0  0  0  0  0  0  0  0
   -3.0553   -5.5831   -3.4189 C   0  0  0  0  0  0  0  0  0  0  0  0
   -4.5311   -5.8996   -3.6329 C   0  0  0  0  0  0  0  0  0  0  0  0
   -2.9488   -2.3333   -3.0501 C   0  0  0  0  0  0  0  0  0  0  0  0
   -3.6514   -2.4556   -1.8439 C   0  0  0  0  0  0  0  0  0  0  0  0
   -3.6606   -1.3504   -0.9453 C   0  0  0  0  0  0  0  0  0  0  0  0
   -4.3619   -1.4978    0.2059 N   0  0  0  0  0  0  0  0  0  0  0  0
   -4.9538   -3.0281   -0.0150 S   0  0  0  0  0  0  0  0  0  0  0  0
   -4.3834   -3.5342   -1.4829 N   0  0  0  0  0  0  0  0  0  0  0  0
   -2.9152   -0.2088   -1.2620 C   0  0  0  0  0  0  0  0  0  0  0  0
   -2.4696    0.7840   -0.4382 C   0  0  0  0  0  0  0  0  0  0  0  0
   -2.4025    0.9361    1.2507 S   0  0  0  0  0  0  0  0  0  0  0  0
   -0.9991    1.8869    1.1631 C   0  0  0  0  0  0  0  0  0  0  0  0
   -0.0789    2.2707    2.1452 C   0  0  0  0  0  0  0  0  0  0  0  0
   -0.2146    1.8479    3.5880 C   0  0  0  0  0  0  0  0  0  0  0  0
    0.4425    0.4890    3.8134 C   0  0  0  0  0  0  0  0  0  0  0  0
    1.0919    2.7958    1.5533 C   0  0  0  0  0  0  0  0  0  0  0  0
    0.9917    2.6353   -0.1388 S   0  0  0  0  0  0  0  0  0  0  0  0
   -0.5704    2.0149   -0.1365 C   0  0  0  0  0  0  0  0  0  0  0  0
   -1.4105    1.3788   -1.0601 C   0  0  0  0  0  0  0  0  0  0  0  0
   -1.1607    0.8362   -2.2856 N   0  0  0  0  0  0  0  0  0  0  0  0
   -2.1455   -0.1150   -2.4299 C   0  0  0  0  0  0  0  0  0  0  0  0
   -2.2733   -1.1476   -3.3956 C   0  0  0  0  0  0  0  0  0  0  0  0
   -1.7792   -1.2236   -4.6684 N   0  0  0  0  0  0  0  0  0  0  0  0
   -1.4449   -0.1272   -5.5798 C   0  0  0  0  0  0  0  0  0  0  0  0
   -2.3821   -0.0975   -6.7875 C   0  0  0  0  0  0  0  0  0  0  0  0
    0.1686    0.8445   -2.9181 C   0  0  0  0  0  0  0  0  0  0  0  0
    0.4765    2.1984   -3.5597 C   0  0  0  0  0  0  0  0  0  0  0  0
    2.3573    3.1177    2.2371 C   0  0  0  0  0  0  0  0  0  0  0  0
    2.4777    4.0430    3.2103 C   0  0  0  0  0  0  0  0  0  0  0  0
    1.3852    4.8380    3.7775 C   0  0  0  0  0  0  0  0  0  0  0  0
    0.2921    5.1130    3.2131 O   0  0  0  0  0  0  0  0  0  0  0  0
    1.7582    5.2404    5.1183 C   0  0  0  0  0  0  0  0  0  0  0  0
    0.9091    5.7792    6.1130 C   0  0  0  0  0  0  0  0  0  0  0  0
    1.4896    5.8357    7.3672 C   0  0  0  0  0  0  0  0  0  0  0  0
    2.8250    5.3912    7.6355 C   0  0  0  0  0  0  0  0  0  0  0  0
    3.6611    4.8695    6.6669 C   0  0  0  0  0  0  0  0  0  0  0  0
    3.0894    4.8125    5.3672 C   0  0  0  0  0  0  0  0  0  0  0  0
    3.6391    4.1944    4.1339 C   0  0  0  0  0  0  0  0  0  0  0  0
    4.9510    4.0339    3.8181 C   0  0  0  0  0  0  0  0  0  0  0  0
    5.3775    3.7131    2.4781 C   0  0  0  0  0  0  0  0  0  0  0  0
    5.7317    3.4642    1.3993 N   0  0  0  0  0  0  0  0  0  0  0  0
    6.0094    4.3466    4.7406 C   0  0  0  0  0  0  0  0  0  0  0  0
    6.8664    4.5942    5.4820 N   0  0  0  0  0  0  0  0  0  0  0  0
    2.6409    5.6711    9.0983 C   0  0  0  0  0  0  0  0  0  0  0  0
    2.4316    4.4264   10.0115 C   0  0  0  0  0  0  0  0  0  0  0  0
    1.8888    4.9599   11.3170 C   0  0  0  0  0  0  0  0  0  0  0  0
    0.6415    5.3768   11.0690 C   0  0  0  0  0  0  0  0  0  0  0  0
    0.3849    5.1160    9.6046 C   0  0  0  0  0  0  0  0  0  0  0  0
    1.1519    3.8084    9.4649 C   0  0  0  0  0  0  0  0  0  0  0  0
    1.2747    6.1300    8.8240 C   0  0  0  0  0  0  0  0  0  0  0  0
   -1.7150   -6.3265   -6.7724 H   0  0  0  0  0  0  0  0  0  0  0  0
   -0.7470   -3.1277   -6.6930 H   0  0  0  0  0  0  0  0  0  0  0  0
   -2.8574   -5.3052   -2.3653 H   0  0  0  0  0  0  0  0  0  0  0  0
   -2.4735   -6.5103   -3.6119 H   0  0  0  0  0  0  0  0  0  0  0  0
   -4.8848   -6.5965   -2.8478 H   0  0  0  0  0  0  0  0  0  0  0  0
   -4.6774   -6.3726   -4.6231 H   0  0  0  0  0  0  0  0  0  0  0  0
   -5.1463   -4.9795   -3.5838 H   0  0  0  0  0  0  0  0  0  0  0  0
    0.2438    2.5869    4.2722 H   0  0  0  0  0  0  0  0  0  0  0  0
   -1.2906    1.7804    3.8580 H   0  0  0  0  0  0  0  0  0  0  0  0
    0.2422    0.1536    4.8510 H   0  0  0  0  0  0  0  0  0  0  0  0
    1.5422    0.5666    3.6625 H   0  0  0  0  0  0  0  0  0  0  0  0
    0.0327   -0.2644    3.1093 H   0  0  0  0  0  0  0  0  0  0  0  0
   -0.3965   -0.2317   -5.9289 H   0  0  0  0  0  0  0  0  0  0  0  0
   -1.5807    0.8350   -5.0627 H   0  0  0  0  0  0  0  0  0  0  0  0
   -2.2355   -0.9967   -7.4210 H   0  0  0  0  0  0  0  0  0  0  0  0
   -2.1660    0.7978   -7.4055 H   0  0  0  0  0  0  0  0  0  0  0  0
   -3.4410   -0.0569   -6.4557 H   0  0  0  0  0  0  0  0  0  0  0  0
    0.9459    0.6150   -2.1563 H   0  0  0  0  0  0  0  0  0  0  0  0
    0.2742    0.0417   -3.6648 H   0  0  0  0  0  0  0  0  0  0  0  0
   -0.1673    2.3986   -4.4348 H   0  0  0  0  0  0  0  0  0  0  0  0
    0.3292    3.0214   -2.8383 H   0  0  0  0  0  0  0  0  0  0  0  0
    1.5302    2.2228   -3.8961 H   0  0  0  0  0  0  0  0  0  0  0  0
    3.2021    2.5118    1.9460 H   0  0  0  0  0  0  0  0  0  0  0  0
   -0.1263    6.0520    5.9331 H   0  0  0  0  0  0  0  0  0  0  0  0
    4.6251    4.4704    6.9256 H   0  0  0  0  0  0  0  0  0  0  0  0
    3.3232    6.4559    9.4974 H   0  0  0  0  0  0  0  0  0  0  0  0
    3.3063    3.7479   10.1025 H   0  0  0  0  0  0  0  0  0  0  0  0
    2.3625    4.9134   12.2911 H   0  0  0  0  0  0  0  0  0  0  0  0
   -0.0672    5.7433   11.8086 H   0  0  0  0  0  0  0  0  0  0  0  0
   -0.6865    5.0891    9.3121 H   0  0  0  0  0  0  0  0  0  0  0  0
    1.2381    3.4385    8.4185 H   0  0  0  0  0  0  0  0  0  0  0  0
    0.7431    2.9859   10.1057 H   0  0  0  0  0  0  0  0  0  0  0  0
    1.0950    7.2047    9.0533 H   0  0  0  0  0  0  0  0  0  0  0  0
  1  2  2  3
  2  3  1  0
  3  4  2  0
  3  5  1  0
  5  6  2  0
  6  7  1  0
  6  8  1  0
  8  9  1  0
  8 10  2  0
 10 11  1  0
 10 12  1  0
 12 13  1  0
 12 14  2  0
 14 15  1  0
 15 16  2  3
 16 17  1  0
 17 18  3  0
 16 19  1  0
 19 20  3  0
  1 21  1  0
 21 22  2  0
 22 23  1  0
 23 24  2  0
 24 25  1  0
 25 26  1  0
 26 27  1  0
 24 28  1  0
 28 29  1  0
 29 30  1  0
 30 31  2  0
 31 32  1  0
 32 33  1  0
 30 34  1  0
 34 35  1  0
 35 36  1  0
 36 37  1  0
 37 38  1  0
 38 39  1  0
 39 40  1  0
 38 41  2  0
 41 42  1  0
 42 43  1  0
 43 44  1  0
 44 45  1  0
 45 46  1  0
 46 47  1  0
 47 48  1  0
 48 49  1  0
 49 50  1  0
 45 51  1  0
 51 52  1  0
 41 53  1  0
 53 54  2  3
 54 55  1  0
 55 56  2  0
 55 57  1  0
 57 58  2  0
 58 59  1  0
 59 60  2  0
 60 61  1  0
 61 62  2  0
 62 63  1  0
 63 64  2  3
 64 65  1  0
 65 66  3  0
 64 67  1  0
 67 68  3  0
 60 69  1  0
 69 70  1  0
 70 71  1  0
 71 72  2  0
 72 73  1  0
 73 74  1  0
 73 75  1  0
 15  2  1  0
 25 21  1  0
 47 28  2  0
 63 54  1  0
 75 69  1  0
 14  5  1  0
 48 23  1  0
 62 57  1  0
 74 70  1  0
 33 29  2  0
 46 34  2  0
 75 59  1  0
 44 35  2  0
 43 37  2  0
  1 76  1  0
 22 77  1  0
 26 78  1  0
 26 79  1  0
 27 80  1  0
 27 81  1  0
 27 82  1  0
 39 83  1  0
 39 84  1  0
 40 85  1  0
 40 86  1  0
 40 87  1  0
 49 88  1  0
 49 89  1  0
 50 90  1  0
 50 91  1  0
 50 92  1  0
 51 93  1  0
 51 94  1  0
 52 95  1  0
 52 96  1  0
 52 97  1  0
 53 98  1  0
 58 99  1  0
 61100  1  0
 69101  1  0
 70102  1  0
 71103  1  0
 72104  1  0
 73105  1  0
 74106  1  0
 74107  1  0
 75108  1  0
M  END

