
     RDKit          3D

121134  0  0  0  0  0  0  0  0999 V2000
   -1.0555    0.7622    7.5889 C   0  0  0  0  0  0  0  0  0  0  0  0
    0.3105    0.4201    7.5915 C   0  0  0  0  0  0  0  0  0  0  0  0
    1.0418   -0.2259    6.5191 C   0  0  0  0  0  0  0  0  0  0  0  0
    1.2414   -1.4643    6.4883 O   0  0  0  0  0  0  0  0  0  0  0  0
    2.2715    0.4938    6.3243 C   0  0  0  0  0  0  0  0  0  0  0  0
    3.1597    0.3554    5.2904 C   0  0  0  0  0  0  0  0  0  0  0  0
    2.6458   -0.3369    3.7847 Cl  0  0  0  0  0  0  0  0  0  0  0  0
    4.5051    0.7462    5.5001 C   0  0  0  0  0  0  0  0  0  0  0  0
    5.7684    0.4201    4.2117 Cl  0  0  0  0  0  0  0  0  0  0  0  0
    4.9442    1.2124    6.7424 C   0  0  0  0  0  0  0  0  0  0  0  0
    6.6537    1.6580    6.9945 Cl  0  0  0  0  0  0  0  0  0  0  0  0
    3.9972    1.4743    7.7368 C   0  0  0  0  0  0  0  0  0  0  0  0
    4.5139    2.1318    9.3059 Cl  0  0  0  0  0  0  0  0  0  0  0  0
    2.6157    1.1338    7.4950 C   0  0  0  0  0  0  0  0  0  0  0  0
    1.3613    1.0475    8.4501 C   0  0  0  0  0  0  0  0  0  0  0  0
    1.3092    1.0637    9.8255 C   0  0  0  0  0  0  0  0  0  0  0  0
    2.1017    1.5461   10.9402 C   0  0  0  0  0  0  0  0  0  0  0  0
    2.4508    1.9286   11.9747 N   0  0  0  0  0  0  0  0  0  0  0  0
    0.3165    2.1315   10.0705 C   0  0  0  0  0  0  0  0  0  0  0  0
   -0.4654    3.0349   10.2820 N   0  0  0  0  0  0  0  0  0  0  0  0
   -2.1185    0.8048    6.5038 C   0  0  0  0  0  0  0  0  0  0  0  0
   -2.8599    1.9993    6.1747 C   0  0  0  0  0  0  0  0  0  0  0  0
   -3.6725    2.6916    7.1685 C   0  0  0  0  0  0  0  0  0  0  0  0
   -3.2291    3.9158    7.7047 C   0  0  0  0  0  0  0  0  0  0  0  0
   -3.8914    4.5337    8.7523 C   0  0  0  0  0  0  0  0  0  0  0  0
   -5.0362    3.9432    9.3170 C   0  0  0  0  0  0  0  0  0  0  0  0
   -5.4736    2.6930    8.8467 C   0  0  0  0  0  0  0  0  0  0  0  0
   -4.8032    2.0671    7.7899 C   0  0  0  0  0  0  0  0  0  0  0  0
   -5.3839    0.7589    7.2866 C   0  0  0  0  0  0  0  0  0  0  0  0
   -6.2552    1.0453    6.0526 C   0  0  0  0  0  0  0  0  0  0  0  0
   -3.0900    2.0828    4.7882 C   0  0  0  0  0  0  0  0  0  0  0  0
   -3.9587    2.9505    3.5368 S   0  0  0  0  0  0  0  0  0  0  0  0
   -3.3487    2.0124    2.2673 C   0  0  0  0  0  0  0  0  0  0  0  0
   -3.1808    1.8971    0.9027 C   0  0  0  0  0  0  0  0  0  0  0  0
   -3.8790    2.5634   -0.1071 C   0  0  0  0  0  0  0  0  0  0  0  0
   -3.6400    2.2152   -1.5100 C   0  0  0  0  0  0  0  0  0  0  0  0
   -4.3736    2.8773   -2.4386 N   0  0  0  0  0  0  0  0  0  0  0  0
   -5.2936    3.8595   -1.5054 S   0  0  0  0  0  0  0  0  0  0  0  0
   -4.8152    3.4992    0.0399 N   0  0  0  0  0  0  0  0  0  0  0  0
   -2.6766    1.2420   -1.7442 C   0  0  0  0  0  0  0  0  0  0  0  0
   -2.1949    0.6630   -2.9796 C   0  0  0  0  0  0  0  0  0  0  0  0
   -2.4377    0.5596   -4.6526 S   0  0  0  0  0  0  0  0  0  0  0  0
   -1.1158   -0.5039   -4.9019 C   0  0  0  0  0  0  0  0  0  0  0  0
   -0.5762   -1.2719   -5.9592 C   0  0  0  0  0  0  0  0  0  0  0  0
   -1.2025   -1.5042   -7.2602 C   0  0  0  0  0  0  0  0  0  0  0  0
   -0.9037   -0.7144   -8.4178 C   0  0  0  0  0  0  0  0  0  0  0  0
    0.0804    0.4256   -8.3657 C   0  0  0  0  0  0  0  0  0  0  0  0
   -0.5409    1.6949   -7.7337 C   0  0  0  0  0  0  0  0  0  0  0  0
   -1.5570   -1.0124   -9.6211 C   0  0  0  0  0  0  0  0  0  0  0  0
   -2.4411   -2.0876   -9.7282 C   0  0  0  0  0  0  0  0  0  0  0  0
   -2.6699   -2.9085   -8.6089 C   0  0  0  0  0  0  0  0  0  0  0  0
   -2.0605   -2.6128   -7.3981 C   0  0  0  0  0  0  0  0  0  0  0  0
    0.5006   -2.0513   -5.5147 C   0  0  0  0  0  0  0  0  0  0  0  0
    0.6269   -1.8769   -3.8231 S   0  0  0  0  0  0  0  0  0  0  0  0
   -0.5348   -0.7324   -3.7139 C   0  0  0  0  0  0  0  0  0  0  0  0
   -1.1398   -0.0909   -2.6117 C   0  0  0  0  0  0  0  0  0  0  0  0
   -0.9001   -0.1051   -1.3184 N   0  0  0  0  0  0  0  0  0  0  0  0
   -1.8882    0.6699   -0.7225 C   0  0  0  0  0  0  0  0  0  0  0  0
   -2.1923    0.9443    0.6623 C   0  0  0  0  0  0  0  0  0  0  0  0
   -1.8098    0.4122    1.8619 N   0  0  0  0  0  0  0  0  0  0  0  0
   -2.5883    1.0481    2.7447 C   0  0  0  0  0  0  0  0  0  0  0  0
   -2.5961    0.9948    4.1596 C   0  0  0  0  0  0  0  0  0  0  0  0
   -2.0383   -0.1687    5.1559 S   0  0  0  0  0  0  0  0  0  0  0  0
   -0.9222   -0.7340    2.1701 C   0  0  0  0  0  0  0  0  0  0  0  0
   -1.6306   -2.0408    1.8495 C   0  0  0  0  0  0  0  0  0  0  0  0
    0.3990   -0.5790   -0.7479 C   0  0  0  0  0  0  0  0  0  0  0  0
    1.2521    0.6003   -0.3235 C   0  0  0  0  0  0  0  0  0  0  0  0
    1.3715   -3.0419   -6.1436 C   0  0  0  0  0  0  0  0  0  0  0  0
    2.7092   -2.9628   -5.8635 C   0  0  0  0  0  0  0  0  0  0  0  0
    3.3715   -1.6625   -5.6584 C   0  0  0  0  0  0  0  0  0  0  0  0
    3.0456   -0.5924   -6.1904 O   0  0  0  0  0  0  0  0  0  0  0  0
    4.5986   -1.8964   -4.9309 C   0  0  0  0  0  0  0  0  0  0  0  0
    5.4415   -0.9009   -4.4579 C   0  0  0  0  0  0  0  0  0  0  0  0
    6.5871   -1.2694   -3.7587 C   0  0  0  0  0  0  0  0  0  0  0  0
    6.8557   -2.6307   -3.5539 C   0  0  0  0  0  0  0  0  0  0  0  0
    5.9672   -3.6465   -3.9913 C   0  0  0  0  0  0  0  0  0  0  0  0
    6.2366   -4.9914   -3.7174 O   0  0  0  0  0  0  0  0  0  0  0  0
    7.4111   -5.4989   -3.0846 C   0  0  0  0  0  0  0  0  0  0  0  0
    4.7911   -3.2563   -4.7019 C   0  0  0  0  0  0  0  0  0  0  0  0
    3.6070   -4.0182   -5.2519 C   0  0  0  0  0  0  0  0  0  0  0  0
    3.2963   -5.3587   -5.0785 C   0  0  0  0  0  0  0  0  0  0  0  0
    4.1422   -6.3609   -4.5396 C   0  0  0  0  0  0  0  0  0  0  0  0
    4.8330   -7.2506   -4.0743 N   0  0  0  0  0  0  0  0  0  0  0  0
    1.9616   -5.8630   -5.3862 C   0  0  0  0  0  0  0  0  0  0  0  0
    0.9875   -6.4889   -5.5368 N   0  0  0  0  0  0  0  0  0  0  0  0
   -1.4334    1.1338    8.4815 H   0  0  0  0  0  0  0  0  0  0  0  0
   -2.3188    4.3370    7.3476 H   0  0  0  0  0  0  0  0  0  0  0  0
   -3.5373    5.4887    9.1069 H   0  0  0  0  0  0  0  0  0  0  0  0
   -5.6041    4.4638   10.0972 H   0  0  0  0  0  0  0  0  0  0  0  0
   -6.3909    2.2683    9.2841 H   0  0  0  0  0  0  0  0  0  0  0  0
   -4.6192   -0.0069    7.0375 H   0  0  0  0  0  0  0  0  0  0  0  0
   -6.0258    0.2189    8.0513 H   0  0  0  0  0  0  0  0  0  0  0  0
   -6.2512    0.2103    5.3361 H   0  0  0  0  0  0  0  0  0  0  0  0
   -7.3115    1.2549    6.3680 H   0  0  0  0  0  0  0  0  0  0  0  0
   -5.8960    1.9544    5.5257 H   0  0  0  0  0  0  0  0  0  0  0  0
    0.9853    0.1308   -7.7967 H   0  0  0  0  0  0  0  0  0  0  0  0
    0.4586    0.6827   -9.3759 H   0  0  0  0  0  0  0  0  0  0  0  0
    0.1707    2.1722   -7.0383 H   0  0  0  0  0  0  0  0  0  0  0  0
   -1.4669    1.4472   -7.1868 H   0  0  0  0  0  0  0  0  0  0  0  0
   -0.8075    2.4324   -8.5327 H   0  0  0  0  0  0  0  0  0  0  0  0
   -1.3775   -0.4001  -10.5027 H   0  0  0  0  0  0  0  0  0  0  0  0
   -2.9098   -2.3166  -10.6714 H   0  0  0  0  0  0  0  0  0  0  0  0
   -3.3333   -3.7367   -8.7063 H   0  0  0  0  0  0  0  0  0  0  0  0
   -2.2565   -3.2603   -6.5554 H   0  0  0  0  0  0  0  0  0  0  0  0
   -0.6551   -0.7141    3.2176 H   0  0  0  0  0  0  0  0  0  0  0  0
    0.0700   -0.6265    1.7451 H   0  0  0  0  0  0  0  0  0  0  0  0
   -2.5977   -2.0533    2.3714 H   0  0  0  0  0  0  0  0  0  0  0  0
   -1.7837   -2.1574    0.7697 H   0  0  0  0  0  0  0  0  0  0  0  0
   -1.0142   -2.8907    2.1972 H   0  0  0  0  0  0  0  0  0  0  0  0
    1.0600   -1.0776   -1.5011 H   0  0  0  0  0  0  0  0  0  0  0  0
    0.2638   -1.4157   -0.0802 H   0  0  0  0  0  0  0  0  0  0  0  0
    0.8058    1.0973    0.5457 H   0  0  0  0  0  0  0  0  0  0  0  0
    1.3412    1.3158   -1.1425 H   0  0  0  0  0  0  0  0  0  0  0  0
    2.2765    0.2471   -0.0508 H   0  0  0  0  0  0  0  0  0  0  0  0
    0.8761   -3.8835   -6.5522 H   0  0  0  0  0  0  0  0  0  0  0  0
    5.2068    0.1322   -4.6357 H   0  0  0  0  0  0  0  0  0  0  0  0
    7.2599   -0.4952   -3.4163 H   0  0  0  0  0  0  0  0  0  0  0  0
    7.7650   -2.8403   -3.0336 H   0  0  0  0  0  0  0  0  0  0  0  0
    7.6440   -4.9273   -2.1565 H   0  0  0  0  0  0  0  0  0  0  0  0
    7.2237   -6.5428   -2.7673 H   0  0  0  0  0  0  0  0  0  0  0  0
    8.2619   -5.4859   -3.7975 H   0  0  0  0  0  0  0  0  0  0  0  0
  1  2  2  3
  2  3  1  0
  3  4  2  0
  3  5  1  0
  5  6  2  0
  6  7  1  0
  6  8  1  0
  8  9  1  0
  8 10  2  0
 10 11  1  0
 10 12  1  0
 12 13  1  0
 12 14  2  0
 14 15  1  0
 15 16  2  3
 16 17  1  0
 17 18  3  0
 16 19  1  0
 19 20  3  0
  1 21  1  0
 21 22  2  0
 22 23  1  0
 23 24  2  0
 24 25  1  0
 25 26  2  0
 26 27  1  0
 27 28  2  0
 28 29  1  0
 29 30  1  0
 22 31  1  0
 31 32  1  0
 32 33  1  0
 33 34  1  0
 34 35  1  0
 35 36  1  0
 36 37  2  0
 37 38  1  0
 38 39  1  0
 36 40  1  0
 40 41  1  0
 41 42  1  0
 42 43  1  0
 43 44  1  0
 44 45  1  0
 45 46  2  0
 46 47  1  0
 47 48  1  0
 46 49  1  0
 49 50  2  0
 50 51  1  0
 51 52  2  0
 44 53  2  0
 53 54  1  0
 54 55  1  0
 55 56  1  0
 56 57  1  0
 57 58  1  0
 58 59  1  0
 59 60  1  0
 60 61  1  0
 61 62  1  0
 62 63  1  0
 60 64  1  0
 64 65  1  0
 57 66  1  0
 66 67  1  0
 53 68  1  0
 68 69  2  3
 69 70  1  0
 70 71  2  0
 70 72  1  0
 72 73  2  0
 73 74  1  0
 74 75  2  0
 75 76  1  0
 76 77  1  0
 77 78  1  0
 76 79  2  0
 79 80  1  0
 80 81  2  3
 81 82  1  0
 82 83  3  0
 81 84  1  0
 84 85  3  0
 15  2  1  0
 63 21  1  0
 80 69  1  0
 14  5  1  0
 28 23  1  0
 62 31  2  0
 79 72  1  0
 61 33  2  0
 59 34  2  0
 39 35  2  0
 58 40  2  0
 56 41  2  0
 55 43  2  0
 52 45  1  0
  1 86  1  0
 24 87  1  0
 25 88  1  0
 26 89  1  0
 27 90  1  0
 29 91  1  0
 29 92  1  0
 30 93  1  0
 30 94  1  0
 30 95  1  0
 47 96  1  0
 47 97  1  0
 48 98  1  0
 48 99  1  0
 48100  1  0
 49101  1  0
 50102  1  0
 51103  1  0
 52104  1  0
 64105  1  0
 64106  1  0
 65107  1  0
 65108  1  0
 65109  1  0
 66110  1  0
 66111  1  0
 67112  1  0
 67113  1  0
 67114  1  0
 68115  1  0
 73116  1  0
 74117  1  0
 75118  1  0
 78119  1  0
 78120  1  0
 78121  1  0
M  END

