
     RDKit          3D

 73 83  0  0  0  0  0  0  0  0999 V2000
   -6.7193   -1.4601   -1.0332 C   0  0  0  0  0  0  0  0  0  0  0  0
   -6.2899   -2.6739   -1.6975 C   0  0  0  0  0  0  0  0  0  0  0  0
   -5.1063   -2.8346   -2.3669 C   0  0  0  0  0  0  0  0  0  0  0  0
   -4.3957   -1.8338   -2.9292 O   0  0  0  0  0  0  0  0  0  0  0  0
   -4.7274   -4.1591   -2.4021 C   0  0  0  0  0  0  0  0  0  0  0  0
   -3.4965   -4.7482   -2.8183 C   0  0  0  0  0  0  0  0  0  0  0  0
   -2.3485   -3.8173   -3.6267 Cl  0  0  0  0  0  0  0  0  0  0  0  0
   -3.4221   -6.1521   -2.4383 C   0  0  0  0  0  0  0  0  0  0  0  0
   -1.7670   -6.7775   -2.9473 Cl  0  0  0  0  0  0  0  0  0  0  0  0
   -4.2313   -6.7703   -1.8676 C   0  0  0  0  0  0  0  0  0  0  0  0
   -4.0335   -8.5368   -1.4083 Cl  0  0  0  0  0  0  0  0  0  0  0  0
   -5.5300   -6.2123   -1.3997 C   0  0  0  0  0  0  0  0  0  0  0  0
   -6.6048   -7.2340   -0.5155 Cl  0  0  0  0  0  0  0  0  0  0  0  0
   -5.6896   -4.9243   -1.7128 C   0  0  0  0  0  0  0  0  0  0  0  0
   -6.8335   -3.8902   -1.2197 C   0  0  0  0  0  0  0  0  0  0  0  0
   -7.6499   -4.5761   -0.5185 C   0  0  0  0  0  0  0  0  0  0  0  0
   -8.6599   -4.9625    0.3320 C   0  0  0  0  0  0  0  0  0  0  0  0
   -9.5474   -5.2832    1.0789 N   0  0  0  0  0  0  0  0  0  0  0  0
   -8.7548   -3.1808   -0.7487 C   0  0  0  0  0  0  0  0  0  0  0  0
   -9.5966   -2.1468   -0.9355 N   0  0  0  0  0  0  0  0  0  0  0  0
   -5.7144   -0.4461   -1.1633 C   0  0  0  0  0  0  0  0  0  0  0  0
   -5.4916    0.7941   -1.4691 C   0  0  0  0  0  0  0  0  0  0  0  0
   -4.3020    1.4164   -1.3808 C   0  0  0  0  0  0  0  0  0  0  0  0
   -3.7538    3.0987   -1.6021 S   0  0  0  0  0  0  0  0  0  0  0  0
   -2.0631    2.7827   -1.1176 C   0  0  0  0  0  0  0  0  0  0  0  0
   -0.8218    3.3873   -0.8065 C   0  0  0  0  0  0  0  0  0  0  0  0
   -0.3106    4.6377   -0.9729 C   0  0  0  0  0  0  0  0  0  0  0  0
    0.9823    4.8416   -0.6153 C   0  0  0  0  0  0  0  0  0  0  0  0
    1.4049    6.1133   -0.7830 N   0  0  0  0  0  0  0  0  0  0  0  0
    0.1453    6.9916   -1.3903 S   0  0  0  0  0  0  0  0  0  0  0  0
   -0.9896    5.7133   -1.4804 N   0  0  0  0  0  0  0  0  0  0  0  0
    1.7636    3.8017   -0.0473 C   0  0  0  0  0  0  0  0  0  0  0  0
    3.0145    3.7327    0.4915 C   0  0  0  0  0  0  0  0  0  0  0  0
    3.2391    2.5277    1.0435 C   0  0  0  0  0  0  0  0  0  0  0  0
    2.1090    1.7539    0.8542 N   0  0  0  0  0  0  0  0  0  0  0  0
    1.7637    0.5953    1.6243 C   0  0  0  0  0  0  0  0  0  0  0  0
    0.5968    0.9047    2.5725 C   0  0  0  0  0  0  0  0  0  0  0  0
    1.2144    2.5558    0.1278 C   0  0  0  0  0  0  0  0  0  0  0  0
   -0.0473    2.3214   -0.2878 C   0  0  0  0  0  0  0  0  0  0  0  0
   -0.7610    1.2031   -0.3355 N   0  0  0  0  0  0  0  0  0  0  0  0
   -2.0364    1.5301   -0.8456 C   0  0  0  0  0  0  0  0  0  0  0  0
   -3.1951    0.8419   -0.9662 C   0  0  0  0  0  0  0  0  0  0  0  0
   -3.8942   -0.9205   -0.5991 Se  0  0  0  0  0  2  0  0  0  0  0  0
   -0.2275   -0.1757   -0.5266 C   0  0  0  0  0  0  0  0  0  0  0  0
   -0.2629   -0.5136   -2.0989 C   0  0  0  0  0  0  0  0  0  0  0  0
    4.5163    2.3019    1.4450 C   0  0  0  0  0  0  0  0  0  0  0  0
    5.4781    3.2653    1.2459 C   0  0  0  0  0  0  0  0  0  0  0  0
    4.5186    4.5355    0.5017 S   0  0  0  0  0  0  0  0  0  0  0  0
    6.7691    3.0161    1.5676 C   0  0  0  0  0  0  0  0  0  0  0  0
    7.2835    1.9748    2.0828 C   0  0  0  0  0  0  0  0  0  0  0  0
    5.5038    0.8904    2.2213 Se  0  0  0  0  0  2  0  0  0  0  0  0
    8.4199    1.1856    2.3759 C   0  0  0  0  0  0  0  0  0  0  0  0
    9.0999    0.6969    3.3910 C   0  0  0  0  0  0  0  0  0  0  0  0
   10.2194    0.0302    3.2896 C   0  0  0  0  0  0  0  0  0  0  0  0
   10.7324   -0.1549    2.0019 C   0  0  0  0  0  0  0  0  0  0  0  0
   11.7811   -0.8270    1.3367 C   0  0  0  0  0  0  0  0  0  0  0  0
   12.6517   -1.3810    0.8076 N   0  0  0  0  0  0  0  0  0  0  0  0
    9.4977    0.6682    1.0385 S   0  0  0  0  0  0  0  0  0  0  0  0
   -7.5068   -1.4041   -0.5139 H   0  0  0  0  0  0  0  0  0  0  0  0
   -6.4484    1.3043   -1.8181 H   0  0  0  0  0  0  0  0  0  0  0  0
    1.7277   -0.4040    1.3096 H   0  0  0  0  0  0  0  0  0  0  0  0
    2.6180    0.4866    2.4539 H   0  0  0  0  0  0  0  0  0  0  0  0
   -0.3873    0.4839    2.1840 H   0  0  0  0  0  0  0  0  0  0  0  0
    0.6530    0.3399    3.5676 H   0  0  0  0  0  0  0  0  0  0  0  0
    0.4975    1.9664    2.8533 H   0  0  0  0  0  0  0  0  0  0  0  0
    0.8611   -0.0657   -0.5356 H   0  0  0  0  0  0  0  0  0  0  0  0
   -0.7341   -0.8707    0.0176 H   0  0  0  0  0  0  0  0  0  0  0  0
    0.2956   -1.4155   -2.3228 H   0  0  0  0  0  0  0  0  0  0  0  0
    0.3908    0.2839   -2.5943 H   0  0  0  0  0  0  0  0  0  0  0  0
   -1.2419   -0.3415   -2.5020 H   0  0  0  0  0  0  0  0  0  0  0  0
    7.4875    3.9087    1.3134 H   0  0  0  0  0  0  0  0  0  0  0  0
    8.7080    0.8694    4.5098 H   0  0  0  0  0  0  0  0  0  0  0  0
   10.8508   -0.4379    4.1157 H   0  0  0  0  0  0  0  0  0  0  0  0
  1  2  2  3
  2  3  1  0
  3  4  2  0
  3  5  1  0
  5  6  2  0
  6  7  1  0
  6  8  1  0
  8  9  1  0
  8 10  2  0
 10 11  1  0
 10 12  1  0
 12 13  1  0
 12 14  2  0
 14 15  1  0
 15 16  2  3
 16 17  1  0
 17 18  3  0
 16 19  1  0
 19 20  3  0
  1 21  1  0
 21 22  2  0
 22 23  1  0
 23 24  1  0
 24 25  1  0
 25 26  1  0
 26 27  1  0
 27 28  1  0
 28 29  2  0
 29 30  1  0
 30 31  1  0
 28 32  1  0
 32 33  1  0
 33 34  2  0
 34 35  1  0
 35 36  1  0
 36 37  1  0
 35 38  1  0
 38 39  1  0
 39 40  1  0
 40 41  1  0
 41 42  1  0
 42 43  1  0
 40 44  1  0
 44 45  1  0
 34 46  1  0
 46 47  2  0
 47 48  1  0
 47 49  1  0
 49 50  2  0
 50 51  1  0
 50 52  1  0
 52 53  2  0
 53 54  1  0
 54 55  2  0
 55 56  1  0
 56 57  3  0
 55 58  1  0
 15  2  1  0
 43 21  1  0
 51 46  1  0
 58 52  1  0
 14  5  1  0
 42 23  2  0
 41 25  2  0
 39 26  2  0
 31 27  2  0
 38 32  2  0
 48 33  1  0
  1 59  1  0
 22 60  1  0
 36 61  1  0
 36 62  1  0
 37 63  1  0
 37 64  1  0
 37 65  1  0
 44 66  1  0
 44 67  1  0
 45 68  1  0
 45 69  1  0
 45 70  1  0
 49 71  1  0
 53 72  1  0
 54 73  1  0
M  END

