
     RDKit          3D

 85 96  0  0  0  0  0  0  0  0999 V2000
    3.4580    5.6387    6.2211 C   0  0  0  0  0  0  0  0  0  0  0  0
    3.8964    4.7207    7.0430 C   0  0  0  0  0  0  0  0  0  0  0  0
    3.6892    3.2794    6.8887 C   0  0  0  0  0  0  0  0  0  0  0  0
    3.1189    2.6340    5.9664 O   0  0  0  0  0  0  0  0  0  0  0  0
    4.2776    2.5719    8.0135 C   0  0  0  0  0  0  0  0  0  0  0  0
    4.3152    1.1968    8.2877 C   0  0  0  0  0  0  0  0  0  0  0  0
    3.5791    0.0247    7.1943 Cl  0  0  0  0  0  0  0  0  0  0  0  0
    4.9220    0.7418    9.4152 C   0  0  0  0  0  0  0  0  0  0  0  0
    4.9501   -0.9940    9.7388 Cl  0  0  0  0  0  0  0  0  0  0  0  0
    5.4807    1.6382   10.2524 C   0  0  0  0  0  0  0  0  0  0  0  0
    6.2671    1.0291   11.7132 Cl  0  0  0  0  0  0  0  0  0  0  0  0
    5.4407    3.0213    9.9734 C   0  0  0  0  0  0  0  0  0  0  0  0
    6.2005    4.0037   11.1621 Cl  0  0  0  0  0  0  0  0  0  0  0  0
    4.8372    3.5068    8.8440 C   0  0  0  0  0  0  0  0  0  0  0  0
    4.6496    4.8727    8.3070 C   0  0  0  0  0  0  0  0  0  0  0  0
    5.2322    5.9618    8.6778 C   0  0  0  0  0  0  0  0  0  0  0  0
    5.1927    7.2005    7.7945 C   0  0  0  0  0  0  0  0  0  0  0  0
    5.1608    8.1058    7.1323 N   0  0  0  0  0  0  0  0  0  0  0  0
    5.9906    6.3605    9.8444 C   0  0  0  0  0  0  0  0  0  0  0  0
    6.5782    6.6794   10.7587 N   0  0  0  0  0  0  0  0  0  0  0  0
    2.6993    5.3841    4.9926 C   0  0  0  0  0  0  0  0  0  0  0  0
    2.7996    6.0594    3.8020 C   0  0  0  0  0  0  0  0  0  0  0  0
    2.1078    5.6631    2.7261 C   0  0  0  0  0  0  0  0  0  0  0  0
    2.0697    6.2128    1.0112 S   0  0  0  0  0  0  0  0  0  0  0  0
    0.9789    5.0185    0.4224 C   0  0  0  0  0  0  0  0  0  0  0  0
    0.4077    4.4710   -0.7066 C   0  0  0  0  0  0  0  0  0  0  0  0
    0.4675    4.8273   -2.0518 C   0  0  0  0  0  0  0  0  0  0  0  0
   -0.1414    4.0270   -2.9629 C   0  0  0  0  0  0  0  0  0  0  0  0
   -0.0611    4.4363   -4.2415 N   0  0  0  0  0  0  0  0  0  0  0  0
    0.8206    5.8496   -4.1858 S   0  0  0  0  0  0  0  0  0  0  0  0
    1.0755    5.9196   -2.5400 N   0  0  0  0  0  0  0  0  0  0  0  0
   -0.7672    2.8745   -2.4881 C   0  0  0  0  0  0  0  0  0  0  0  0
   -1.1705    1.7675   -3.2381 C   0  0  0  0  0  0  0  0  0  0  0  0
   -1.4724    0.7478   -2.3951 C   0  0  0  0  0  0  0  0  0  0  0  0
   -1.2776    1.1762   -1.0968 N   0  0  0  0  0  0  0  0  0  0  0  0
   -1.2813    0.3084    0.0236 C   0  0  0  0  0  0  0  0  0  0  0  0
    0.1403   -0.1039    0.4601 C   0  0  0  0  0  0  0  0  0  0  0  0
   -0.8579    2.4577   -1.1921 C   0  0  0  0  0  0  0  0  0  0  0  0
   -0.2543    3.3382   -0.2702 C   0  0  0  0  0  0  0  0  0  0  0  0
   -0.1013    3.2551    1.0259 N   0  0  0  0  0  0  0  0  0  0  0  0
    0.6875    4.2715    1.5247 C   0  0  0  0  0  0  0  0  0  0  0  0
    1.2974    4.6936    2.5754 C   0  0  0  0  0  0  0  0  0  0  0  0
    1.4892    4.0325    4.5845 Se  0  0  0  0  0  2  0  0  0  0  0  0
   -1.0162    2.5481    1.9374 C   0  0  0  0  0  0  0  0  0  0  0  0
   -1.8440    3.6432    2.7236 C   0  0  0  0  0  0  0  0  0  0  0  0
   -1.7934   -0.4281   -3.0557 C   0  0  0  0  0  0  0  0  0  0  0  0
   -1.8065   -0.5251   -4.3404 C   0  0  0  0  0  0  0  0  0  0  0  0
   -1.3458    1.1380   -4.7947 S   0  0  0  0  0  0  0  0  0  0  0  0
   -1.9793   -1.6642   -5.0501 C   0  0  0  0  0  0  0  0  0  0  0  0
   -2.1508   -2.8261   -4.4949 C   0  0  0  0  0  0  0  0  0  0  0  0
   -2.0903   -2.3047   -2.5495 Se  0  0  0  0  0  2  0  0  0  0  0  0
   -2.0127   -4.2005   -4.8972 C   0  0  0  0  0  0  0  0  0  0  0  0
   -2.7144   -5.2374   -4.8817 C   0  0  0  0  0  0  0  0  0  0  0  0
   -4.0797   -5.4183   -4.4322 C   0  0  0  0  0  0  0  0  0  0  0  0
   -4.8210   -4.4357   -4.0994 O   0  0  0  0  0  0  0  0  0  0  0  0
   -4.4277   -6.8147   -4.4296 C   0  0  0  0  0  0  0  0  0  0  0  0
   -5.6099   -7.4123   -4.0856 C   0  0  0  0  0  0  0  0  0  0  0  0
   -6.9417   -6.4334   -3.5699 Cl  0  0  0  0  0  0  0  0  0  0  0  0
   -5.7437   -8.7927   -4.1551 C   0  0  0  0  0  0  0  0  0  0  0  0
   -7.2580   -9.5170   -3.7170 Cl  0  0  0  0  0  0  0  0  0  0  0  0
   -4.6670   -9.4903   -4.5669 C   0  0  0  0  0  0  0  0  0  0  0  0
   -4.8426  -11.2521   -4.6407 Cl  0  0  0  0  0  0  0  0  0  0  0  0
   -3.4791   -8.8886   -4.9155 C   0  0  0  0  0  0  0  0  0  0  0  0
   -2.2403   -9.9541   -5.4086 Cl  0  0  0  0  0  0  0  0  0  0  0  0
   -3.2938   -7.5216   -4.8693 C   0  0  0  0  0  0  0  0  0  0  0  0
   -2.2026   -6.6317   -5.1662 C   0  0  0  0  0  0  0  0  0  0  0  0
   -0.9515   -6.9011   -5.5326 C   0  0  0  0  0  0  0  0  0  0  0  0
   -0.3599   -8.1653   -5.8197 C   0  0  0  0  0  0  0  0  0  0  0  0
    0.1681   -9.2594   -6.0785 N   0  0  0  0  0  0  0  0  0  0  0  0
   -0.0320   -5.9226   -5.7043 C   0  0  0  0  0  0  0  0  0  0  0  0
    0.9075   -4.9113   -5.8967 N   0  0  0  0  0  0  0  0  0  0  0  0
    3.5497    6.6794    6.4095 H   0  0  0  0  0  0  0  0  0  0  0  0
    3.5064    6.9432    3.8458 H   0  0  0  0  0  0  0  0  0  0  0  0
   -1.6250   -0.7261   -0.4149 H   0  0  0  0  0  0  0  0  0  0  0  0
   -1.9056    0.3414    0.8593 H   0  0  0  0  0  0  0  0  0  0  0  0
    0.1838   -0.1685    1.5498 H   0  0  0  0  0  0  0  0  0  0  0  0
    0.7793    0.7885    0.1680 H   0  0  0  0  0  0  0  0  0  0  0  0
    0.5389   -0.9457   -0.1175 H   0  0  0  0  0  0  0  0  0  0  0  0
   -1.8557    2.1727    1.3467 H   0  0  0  0  0  0  0  0  0  0  0  0
   -0.5803    1.8830    2.6114 H   0  0  0  0  0  0  0  0  0  0  0  0
   -2.4893    3.0640    3.3876 H   0  0  0  0  0  0  0  0  0  0  0  0
   -2.4210    4.2033    1.9607 H   0  0  0  0  0  0  0  0  0  0  0  0
   -1.2063    4.2552    3.3419 H   0  0  0  0  0  0  0  0  0  0  0  0
   -1.9976   -1.6285   -6.2051 H   0  0  0  0  0  0  0  0  0  0  0  0
   -1.0399   -4.2772   -5.4743 H   0  0  0  0  0  0  0  0  0  0  0  0
  1  2  2  3
  2  3  1  0
  3  4  2  0
  3  5  1  0
  5  6  2  0
  6  7  1  0
  6  8  1  0
  8  9  1  0
  8 10  2  0
 10 11  1  0
 10 12  1  0
 12 13  1  0
 12 14  2  0
 14 15  1  0
 15 16  2  3
 16 17  1  0
 17 18  3  0
 16 19  1  0
 19 20  3  0
  1 21  1  0
 21 22  2  0
 22 23  1  0
 23 24  1  0
 24 25  1  0
 25 26  1  0
 26 27  1  0
 27 28  1  0
 28 29  2  0
 29 30  1  0
 30 31  1  0
 28 32  1  0
 32 33  1  0
 33 34  2  0
 34 35  1  0
 35 36  1  0
 36 37  1  0
 35 38  1  0
 38 39  1  0
 39 40  1  0
 40 41  1  0
 41 42  1  0
 42 43  1  0
 40 44  1  0
 44 45  1  0
 34 46  1  0
 46 47  2  0
 47 48  1  0
 47 49  1  0
 49 50  2  0
 50 51  1  0
 50 52  1  0
 52 53  2  3
 53 54  1  0
 54 55  2  0
 54 56  1  0
 56 57  2  0
 57 58  1  0
 57 59  1  0
 59 60  1  0
 59 61  2  0
 61 62  1  0
 61 63  1  0
 63 64  1  0
 63 65  2  0
 65 66  1  0
 66 67  2  3
 67 68  1  0
 68 69  3  0
 67 70  1  0
 70 71  3  0
 15  2  1  0
 43 21  1  0
 51 46  1  0
 66 53  1  0
 14  5  1  0
 42 23  2  0
 65 56  1  0
 41 25  2  0
 39 26  2  0
 31 27  2  0
 38 32  2  0
 48 33  1  0
  1 72  1  0
 22 73  1  0
 36 74  1  0
 36 75  1  0
 37 76  1  0
 37 77  1  0
 37 78  1  0
 44 79  1  0
 44 80  1  0
 45 81  1  0
 45 82  1  0
 45 83  1  0
 49 84  1  0
 52 85  1  0
M  END

