
     RDKit          3D

120133  0  0  0  0  0  0  0  0999 V2000
   -5.5486   -2.8874   -4.1823 C   0  0  0  0  0  0  0  0  0  0  0  0
   -6.6225   -2.2354   -3.6654 C   0  0  0  0  0  0  0  0  0  0  0  0
   -6.4925   -1.2037   -2.6256 C   0  0  0  0  0  0  0  0  0  0  0  0
   -5.6758   -0.2430   -2.6100 O   0  0  0  0  0  0  0  0  0  0  0  0
   -7.4495   -1.4798   -1.5381 C   0  0  0  0  0  0  0  0  0  0  0  0
   -7.2922   -1.0387   -0.1963 C   0  0  0  0  0  0  0  0  0  0  0  0
   -5.9277    0.0612    0.2473 Cl  0  0  0  0  0  0  0  0  0  0  0  0
   -8.1276   -1.5612    0.7836 C   0  0  0  0  0  0  0  0  0  0  0  0
   -7.8672   -1.1078    2.4462 Cl  0  0  0  0  0  0  0  0  0  0  0  0
   -9.1398   -2.4987    0.4195 C   0  0  0  0  0  0  0  0  0  0  0  0
  -10.2076   -3.1324    1.6894 Cl  0  0  0  0  0  0  0  0  0  0  0  0
   -9.2318   -3.0029   -0.9062 C   0  0  0  0  0  0  0  0  0  0  0  0
  -10.3908   -4.3112   -1.1490 Cl  0  0  0  0  0  0  0  0  0  0  0  0
   -8.3631   -2.4726   -1.9179 C   0  0  0  0  0  0  0  0  0  0  0  0
   -7.9667   -2.9113   -3.3397 C   0  0  0  0  0  0  0  0  0  0  0  0
   -8.7287   -3.5525   -4.2878 C   0  0  0  0  0  0  0  0  0  0  0  0
   -8.2420   -3.7007   -5.6929 C   0  0  0  0  0  0  0  0  0  0  0  0
   -7.8668   -3.8050   -6.7715 N   0  0  0  0  0  0  0  0  0  0  0  0
  -10.1215   -3.9424   -4.1540 C   0  0  0  0  0  0  0  0  0  0  0  0
  -11.2521   -4.2698   -4.1149 N   0  0  0  0  0  0  0  0  0  0  0  0
   -4.1856   -2.3157   -4.2125 C   0  0  0  0  0  0  0  0  0  0  0  0
   -3.8602   -1.0485   -4.6948 C   0  0  0  0  0  0  0  0  0  0  0  0
   -4.3972   -0.4396   -5.9793 C   0  0  0  0  0  0  0  0  0  0  0  0
   -5.3201    0.6374   -5.9315 C   0  0  0  0  0  0  0  0  0  0  0  0
   -5.5786    1.3844   -7.0778 C   0  0  0  0  0  0  0  0  0  0  0  0
   -4.9781    1.0319   -8.3047 C   0  0  0  0  0  0  0  0  0  0  0  0
   -4.1267   -0.0627   -8.4026 C   0  0  0  0  0  0  0  0  0  0  0  0
   -3.8523   -0.8515   -7.2413 C   0  0  0  0  0  0  0  0  0  0  0  0
   -2.8400   -1.9992   -7.2688 C   0  0  0  0  0  0  0  0  0  0  0  0
   -2.4002   -2.4617   -8.6722 C   0  0  0  0  0  0  0  0  0  0  0  0
   -2.6713   -0.6066   -4.1881 C   0  0  0  0  0  0  0  0  0  0  0  0
   -1.6871    0.7866   -4.5197 S   0  0  0  0  0  0  0  0  0  0  0  0
   -0.4976    0.2318   -3.4115 C   0  0  0  0  0  0  0  0  0  0  0  0
    0.6852    0.5264   -2.8112 C   0  0  0  0  0  0  0  0  0  0  0  0
    1.4215    1.7285   -2.9329 C   0  0  0  0  0  0  0  0  0  0  0  0
    2.7453    1.7346   -2.5553 C   0  0  0  0  0  0  0  0  0  0  0  0
    3.4601    2.8690   -2.6995 N   0  0  0  0  0  0  0  0  0  0  0  0
    2.3350    3.8769   -3.3534 S   0  0  0  0  0  0  0  0  0  0  0  0
    0.9793    2.9255   -3.5012 N   0  0  0  0  0  0  0  0  0  0  0  0
    3.1440    0.7536   -1.6147 C   0  0  0  0  0  0  0  0  0  0  0  0
    4.0598    0.9517   -0.6138 C   0  0  0  0  0  0  0  0  0  0  0  0
    4.9659    2.3039   -0.0663 S   0  0  0  0  0  0  0  0  0  0  0  0
    4.6659    1.8435    1.6006 C   0  0  0  0  0  0  0  0  0  0  0  0
    4.9655    2.3352    2.8677 C   0  0  0  0  0  0  0  0  0  0  0  0
    6.1554    3.2432    3.0391 C   0  0  0  0  0  0  0  0  0  0  0  0
    7.4073    2.7088    3.4613 C   0  0  0  0  0  0  0  0  0  0  0  0
    7.6287    1.2229    3.7697 C   0  0  0  0  0  0  0  0  0  0  0  0
    7.7313    0.3862    2.4781 C   0  0  0  0  0  0  0  0  0  0  0  0
    8.5531    3.4969    3.4312 C   0  0  0  0  0  0  0  0  0  0  0  0
    8.5121    4.8525    2.9844 C   0  0  0  0  0  0  0  0  0  0  0  0
    7.2831    5.3650    2.5756 C   0  0  0  0  0  0  0  0  0  0  0  0
    6.1087    4.5588    2.6064 C   0  0  0  0  0  0  0  0  0  0  0  0
    4.3126    1.5556    3.8527 C   0  0  0  0  0  0  0  0  0  0  0  0
    3.7272    0.0915    3.2210 S   0  0  0  0  0  0  0  0  0  0  0  0
    3.9890    0.6258    1.6611 C   0  0  0  0  0  0  0  0  0  0  0  0
    3.5983    0.1246    0.3886 C   0  0  0  0  0  0  0  0  0  0  0  0
    2.5741   -0.6135    0.0620 N   0  0  0  0  0  0  0  0  0  0  0  0
    2.2762   -0.2634   -1.2588 C   0  0  0  0  0  0  0  0  0  0  0  0
    1.0473   -0.4834   -1.9703 C   0  0  0  0  0  0  0  0  0  0  0  0
    0.1027   -1.4782   -2.0435 N   0  0  0  0  0  0  0  0  0  0  0  0
   -0.8335   -0.9979   -2.9519 C   0  0  0  0  0  0  0  0  0  0  0  0
   -2.0297   -1.5031   -3.3821 C   0  0  0  0  0  0  0  0  0  0  0  0
   -2.9014   -2.9645   -3.2825 S   0  0  0  0  0  0  0  0  0  0  0  0
   -0.0961   -2.7998   -1.3726 C   0  0  0  0  0  0  0  0  0  0  0  0
    0.5801   -3.9491   -2.1316 C   0  0  0  0  0  0  0  0  0  0  0  0
    2.0223   -1.6251    0.9581 C   0  0  0  0  0  0  0  0  0  0  0  0
    0.6114   -1.2378    1.4915 C   0  0  0  0  0  0  0  0  0  0  0  0
    4.1801    1.9089    5.3264 C   0  0  0  0  0  0  0  0  0  0  0  0
    3.0169    2.0468    6.0186 C   0  0  0  0  0  0  0  0  0  0  0  0
    1.6169    1.9216    5.4919 C   0  0  0  0  0  0  0  0  0  0  0  0
    1.2763    1.7049    4.3124 O   0  0  0  0  0  0  0  0  0  0  0  0
    0.6670    2.1625    6.5683 C   0  0  0  0  0  0  0  0  0  0  0  0
   -0.7255    2.2089    6.4334 C   0  0  0  0  0  0  0  0  0  0  0  0
   -1.4286    2.5826    7.5891 C   0  0  0  0  0  0  0  0  0  0  0  0
   -0.7525    2.8296    8.7998 C   0  0  0  0  0  0  0  0  0  0  0  0
   -1.4222    3.3153   10.0249 C   0  0  0  0  0  0  0  0  0  0  0  0
    0.6440    2.6230    8.8913 C   0  0  0  0  0  0  0  0  0  0  0  0
    1.3667    2.3690    7.7423 C   0  0  0  0  0  0  0  0  0  0  0  0
    2.8590    2.3633    7.4881 C   0  0  0  0  0  0  0  0  0  0  0  0
    3.7188    3.0040    8.3587 C   0  0  0  0  0  0  0  0  0  0  0  0
    5.1553    3.2109    8.1212 C   0  0  0  0  0  0  0  0  0  0  0  0
    6.2517    3.4227    7.9170 N   0  0  0  0  0  0  0  0  0  0  0  0
    3.2215    4.0241    9.2824 C   0  0  0  0  0  0  0  0  0  0  0  0
    2.8231    4.8841    9.9986 N   0  0  0  0  0  0  0  0  0  0  0  0
   -5.5616   -3.9481   -3.9790 H   0  0  0  0  0  0  0  0  0  0  0  0
   -5.7322    1.0064   -4.9934 H   0  0  0  0  0  0  0  0  0  0  0  0
   -6.2238    2.2730   -7.0507 H   0  0  0  0  0  0  0  0  0  0  0  0
   -5.1635    1.5947   -9.2050 H   0  0  0  0  0  0  0  0  0  0  0  0
   -3.7131   -0.2322   -9.4300 H   0  0  0  0  0  0  0  0  0  0  0  0
   -1.9230   -1.7044   -6.6835 H   0  0  0  0  0  0  0  0  0  0  0  0
   -3.3015   -2.8902   -6.7699 H   0  0  0  0  0  0  0  0  0  0  0  0
   -3.3033   -2.7479   -9.2693 H   0  0  0  0  0  0  0  0  0  0  0  0
   -1.8537   -1.6419   -9.1652 H   0  0  0  0  0  0  0  0  0  0  0  0
   -1.6273   -3.2879   -8.6361 H   0  0  0  0  0  0  0  0  0  0  0  0
    8.5275    1.0102    4.4333 H   0  0  0  0  0  0  0  0  0  0  0  0
    6.8183    0.8199    4.3860 H   0  0  0  0  0  0  0  0  0  0  0  0
    8.3348    0.9115    1.7016 H   0  0  0  0  0  0  0  0  0  0  0  0
    8.2190   -0.6004    2.7094 H   0  0  0  0  0  0  0  0  0  0  0  0
    6.7226    0.1750    2.0202 H   0  0  0  0  0  0  0  0  0  0  0  0
    9.5339    3.0925    3.7298 H   0  0  0  0  0  0  0  0  0  0  0  0
    9.3922    5.4746    2.9552 H   0  0  0  0  0  0  0  0  0  0  0  0
    7.2344    6.4368    2.1898 H   0  0  0  0  0  0  0  0  0  0  0  0
    5.2018    4.9837    2.2267 H   0  0  0  0  0  0  0  0  0  0  0  0
    0.2000   -2.8203   -0.3000 H   0  0  0  0  0  0  0  0  0  0  0  0
   -1.1875   -3.0625   -1.1957 H   0  0  0  0  0  0  0  0  0  0  0  0
    1.6525   -4.0014   -1.8459 H   0  0  0  0  0  0  0  0  0  0  0  0
    0.4503   -3.7759   -3.2203 H   0  0  0  0  0  0  0  0  0  0  0  0
    0.0513   -4.9240   -1.9145 H   0  0  0  0  0  0  0  0  0  0  0  0
    2.6903   -1.8848    1.8948 H   0  0  0  0  0  0  0  0  0  0  0  0
    2.0679   -2.5878    0.4287 H   0  0  0  0  0  0  0  0  0  0  0  0
   -0.0639   -0.9112    0.6846 H   0  0  0  0  0  0  0  0  0  0  0  0
    0.7325   -0.3827    2.1893 H   0  0  0  0  0  0  0  0  0  0  0  0
    0.1362   -2.1017    1.9946 H   0  0  0  0  0  0  0  0  0  0  0  0
    5.1411    2.0167    5.8204 H   0  0  0  0  0  0  0  0  0  0  0  0
   -1.2359    1.9929    5.4574 H   0  0  0  0  0  0  0  0  0  0  0  0
   -2.5018    2.6612    7.5503 H   0  0  0  0  0  0  0  0  0  0  0  0
   -2.1832    2.5844   10.3357 H   0  0  0  0  0  0  0  0  0  0  0  0
   -0.7233    3.4419   10.8842 H   0  0  0  0  0  0  0  0  0  0  0  0
   -1.8638    4.3187    9.8381 H   0  0  0  0  0  0  0  0  0  0  0  0
    1.1628    2.7072    9.8163 H   0  0  0  0  0  0  0  0  0  0  0  0
  1  2  2  3
  2  3  1  0
  3  4  2  0
  3  5  1  0
  5  6  2  0
  6  7  1  0
  6  8  1  0
  8  9  1  0
  8 10  2  0
 10 11  1  0
 10 12  1  0
 12 13  1  0
 12 14  2  0
 14 15  1  0
 15 16  2  3
 16 17  1  0
 17 18  3  0
 16 19  1  0
 19 20  3  0
  1 21  1  0
 21 22  2  0
 22 23  1  0
 23 24  2  0
 24 25  1  0
 25 26  2  0
 26 27  1  0
 27 28  2  0
 28 29  1  0
 29 30  1  0
 22 31  1  0
 31 32  1  0
 32 33  1  0
 33 34  1  0
 34 35  1  0
 35 36  1  0
 36 37  2  0
 37 38  1  0
 38 39  1  0
 36 40  1  0
 40 41  1  0
 41 42  1  0
 42 43  1  0
 43 44  1  0
 44 45  1  0
 45 46  2  0
 46 47  1  0
 47 48  1  0
 46 49  1  0
 49 50  2  0
 50 51  1  0
 51 52  2  0
 44 53  2  0
 53 54  1  0
 54 55  1  0
 55 56  1  0
 56 57  1  0
 57 58  1  0
 58 59  1  0
 59 60  1  0
 60 61  1  0
 61 62  1  0
 62 63  1  0
 60 64  1  0
 64 65  1  0
 57 66  1  0
 66 67  1  0
 53 68  1  0
 68 69  2  3
 69 70  1  0
 70 71  2  0
 70 72  1  0
 72 73  2  0
 73 74  1  0
 74 75  2  0
 75 76  1  0
 75 77  1  0
 77 78  2  0
 78 79  1  0
 79 80  2  3
 80 81  1  0
 81 82  3  0
 80 83  1  0
 83 84  3  0
 15  2  1  0
 63 21  1  0
 79 69  1  0
 14  5  1  0
 28 23  1  0
 62 31  2  0
 78 72  1  0
 61 33  2  0
 59 34  2  0
 39 35  2  0
 58 40  2  0
 56 41  2  0
 55 43  2  0
 52 45  1  0
  1 85  1  0
 24 86  1  0
 25 87  1  0
 26 88  1  0
 27 89  1  0
 29 90  1  0
 29 91  1  0
 30 92  1  0
 30 93  1  0
 30 94  1  0
 47 95  1  0
 47 96  1  0
 48 97  1  0
 48 98  1  0
 48 99  1  0
 49100  1  0
 50101  1  0
 51102  1  0
 52103  1  0
 64104  1  0
 64105  1  0
 65106  1  0
 65107  1  0
 65108  1  0
 66109  1  0
 66110  1  0
 67111  1  0
 67112  1  0
 67113  1  0
 68114  1  0
 73115  1  0
 74116  1  0
 76117  1  0
 76118  1  0
 76119  1  0
 77120  1  0
M  END

