
     RDKit          3D

 85 93  0  0  0  0  0  0  0  0999 V2000
    1.3357   -3.5900    4.9349 C   0  0  0  0  0  0  0  0  0  0  0  0
    0.9969   -4.7941    5.4261 C   0  0  0  0  0  0  0  0  0  0  0  0
   -0.3556   -5.3562    5.5185 C   0  0  0  0  0  0  0  0  0  0  0  0
   -1.3871   -4.9136    4.9462 O   0  0  0  0  0  0  0  0  0  0  0  0
   -0.3342   -6.4350    6.4995 C   0  0  0  0  0  0  0  0  0  0  0  0
   -1.4080   -7.1520    7.0390 C   0  0  0  0  0  0  0  0  0  0  0  0
   -3.0287   -6.9825    6.3713 Cl  0  0  0  0  0  0  0  0  0  0  0  0
   -1.1620   -8.0020    8.1363 C   0  0  0  0  0  0  0  0  0  0  0  0
   -2.4809   -8.9483    8.8281 Cl  0  0  0  0  0  0  0  0  0  0  0  0
    0.1255   -8.0500    8.7212 C   0  0  0  0  0  0  0  0  0  0  0  0
    0.4048   -9.0417   10.1546 Cl  0  0  0  0  0  0  0  0  0  0  0  0
    1.1815   -7.2883    8.1799 C   0  0  0  0  0  0  0  0  0  0  0  0
    2.6586   -7.0675    9.1154 Cl  0  0  0  0  0  0  0  0  0  0  0  0
    0.9534   -6.5654    6.9938 C   0  0  0  0  0  0  0  0  0  0  0  0
    1.8747   -5.6871    6.2263 C   0  0  0  0  0  0  0  0  0  0  0  0
    3.1626   -5.9788    5.9048 C   0  0  0  0  0  0  0  0  0  0  0  0
    3.9116   -5.1903    4.9570 C   0  0  0  0  0  0  0  0  0  0  0  0
    4.5156   -4.5605    4.1948 N   0  0  0  0  0  0  0  0  0  0  0  0
    3.7769   -7.2259    6.2804 C   0  0  0  0  0  0  0  0  0  0  0  0
    4.2717   -8.2323    6.5677 N   0  0  0  0  0  0  0  0  0  0  0  0
    0.4656   -2.7752    4.0762 C   0  0  0  0  0  0  0  0  0  0  0  0
   -0.2393   -3.3362    2.6221 S   0  0  0  0  0  0  0  0  0  0  0  0
   -0.7542   -1.8067    2.1859 C   0  0  0  0  0  0  0  0  0  0  0  0
   -1.0052   -1.1598    1.0168 C   0  0  0  0  0  0  0  0  0  0  0  0
   -0.9062   -1.5912   -0.5974 S   0  0  0  0  0  0  0  0  0  0  0  0
   -0.6604    0.0197   -1.0932 C   0  0  0  0  0  0  0  0  0  0  0  0
   -0.4529    0.4632   -2.4088 C   0  0  0  0  0  0  0  0  0  0  0  0
   -0.6027   -0.4082   -3.4840 O   0  0  0  0  0  0  0  0  0  0  0  0
   -1.8578   -0.9785   -3.8509 C   0  0  0  0  0  0  0  0  0  0  0  0
   -2.8010    0.0921   -4.3898 C   0  0  0  0  0  0  0  0  0  0  0  0
   -0.1153    1.8187   -2.5962 C   0  0  0  0  0  0  0  0  0  0  0  0
   -0.1801    2.7137   -1.4960 C   0  0  0  0  0  0  0  0  0  0  0  0
   -0.4779    2.2781   -0.1887 C   0  0  0  0  0  0  0  0  0  0  0  0
   -0.7102    3.1684    0.8650 O   0  0  0  0  0  0  0  0  0  0  0  0
   -1.5617    4.3145    0.8025 C   0  0  0  0  0  0  0  0  0  0  0  0
   -2.9478    3.9523    0.2761 C   0  0  0  0  0  0  0  0  0  0  0  0
   -0.6003    0.8913    0.0173 C   0  0  0  0  0  0  0  0  0  0  0  0
   -0.7534    0.1705    1.2253 C   0  0  0  0  0  0  0  0  0  0  0  0
   -0.3009    0.3839    2.5064 N   0  0  0  0  0  0  0  0  0  0  0  0
   -0.3158   -0.8626    3.0556 C   0  0  0  0  0  0  0  0  0  0  0  0
    0.3988   -1.3755    4.1407 C   0  0  0  0  0  0  0  0  0  0  0  0
    0.4597    1.5105    3.0580 C   0  0  0  0  0  0  0  0  0  0  0  0
    1.8605    1.5813    2.4545 C   0  0  0  0  0  0  0  0  0  0  0  0
    0.2427    4.2981   -1.9670 S   0  0  0  0  0  0  0  0  0  0  0  0
    0.4372    3.8496   -3.5616 C   0  0  0  0  0  0  0  0  0  0  0  0
    1.0380    4.3592   -4.6659 C   0  0  0  0  0  0  0  0  0  0  0  0
    1.9295    5.6968   -5.1140 S   0  0  0  0  0  0  0  0  0  0  0  0
    2.5220    4.9372   -6.5354 C   0  0  0  0  0  0  0  0  0  0  0  0
    2.0686    3.6020   -6.5825 C   0  0  0  0  0  0  0  0  0  0  0  0
    1.2253    3.3223   -5.5077 C   0  0  0  0  0  0  0  0  0  0  0  0
    0.7654    2.1441   -4.9999 N   0  0  0  0  0  0  0  0  0  0  0  0
    1.0810    0.8214   -5.5508 C   0  0  0  0  0  0  0  0  0  0  0  0
    2.2478    0.1778   -4.8044 C   0  0  0  0  0  0  0  0  0  0  0  0
    0.2656    2.5094   -3.7728 C   0  0  0  0  0  0  0  0  0  0  0  0
    3.5034    5.5203   -7.4914 C   0  0  0  0  0  0  0  0  0  0  0  0
    3.5938    6.8435   -7.7690 C   0  0  0  0  0  0  0  0  0  0  0  0
    4.5834    7.3533   -8.6931 C   0  0  0  0  0  0  0  0  0  0  0  0
    5.3757    7.7658   -9.4315 N   0  0  0  0  0  0  0  0  0  0  0  0
    2.6857    7.8195   -7.2175 C   0  0  0  0  0  0  0  0  0  0  0  0
    1.9607    8.6110   -6.7805 N   0  0  0  0  0  0  0  0  0  0  0  0
    4.3925    4.5891   -8.1602 C   0  0  0  0  0  0  0  0  0  0  0  0
    5.1038    3.8456   -8.6920 N   0  0  0  0  0  0  0  0  0  0  0  0
    2.2988   -3.1675    5.1902 H   0  0  0  0  0  0  0  0  0  0  0  0
   -2.3286   -1.4902   -2.9880 H   0  0  0  0  0  0  0  0  0  0  0  0
   -1.6809   -1.7322   -4.6451 H   0  0  0  0  0  0  0  0  0  0  0  0
   -3.7528   -0.3785   -4.7170 H   0  0  0  0  0  0  0  0  0  0  0  0
   -2.3352    0.6067   -5.2553 H   0  0  0  0  0  0  0  0  0  0  0  0
   -3.0259    0.8413   -3.6001 H   0  0  0  0  0  0  0  0  0  0  0  0
   -1.1118    5.1222    0.1926 H   0  0  0  0  0  0  0  0  0  0  0  0
   -1.6729    4.7163    1.8297 H   0  0  0  0  0  0  0  0  0  0  0  0
   -3.6202    4.8331    0.3603 H   0  0  0  0  0  0  0  0  0  0  0  0
   -3.3734    3.1132    0.8670 H   0  0  0  0  0  0  0  0  0  0  0  0
   -2.8863    3.6564   -0.7915 H   0  0  0  0  0  0  0  0  0  0  0  0
    0.9260   -0.7820    4.8749 H   0  0  0  0  0  0  0  0  0  0  0  0
   -0.0871    2.4569    2.9343 H   0  0  0  0  0  0  0  0  0  0  0  0
    0.5583    1.3994    4.1595 H   0  0  0  0  0  0  0  0  0  0  0  0
    2.4373    0.6751    2.7349 H   0  0  0  0  0  0  0  0  0  0  0  0
    2.3878    2.4848    2.8341 H   0  0  0  0  0  0  0  0  0  0  0  0
    1.8096    1.6431    1.3483 H   0  0  0  0  0  0  0  0  0  0  0  0
    2.3765    2.8823   -7.3268 H   0  0  0  0  0  0  0  0  0  0  0  0
    1.3641    0.9142   -6.6196 H   0  0  0  0  0  0  0  0  0  0  0  0
    0.1850    0.1810   -5.5645 H   0  0  0  0  0  0  0  0  0  0  0  0
    3.1537    0.8096   -4.9086 H   0  0  0  0  0  0  0  0  0  0  0  0
    2.0180    0.0608   -3.7265 H   0  0  0  0  0  0  0  0  0  0  0  0
    2.4554   -0.8224   -5.2362 H   0  0  0  0  0  0  0  0  0  0  0  0
  1  2  2  3
  2  3  1  0
  3  4  2  0
  3  5  1  0
  5  6  2  0
  6  7  1  0
  6  8  1  0
  8  9  1  0
  8 10  2  0
 10 11  1  0
 10 12  1  0
 12 13  1  0
 12 14  2  0
 14 15  1  0
 15 16  2  3
 16 17  1  0
 17 18  3  0
 16 19  1  0
 19 20  3  0
  1 21  1  0
 21 22  1  0
 22 23  1  0
 23 24  1  0
 24 25  1  0
 25 26  1  0
 26 27  2  0
 27 28  1  0
 28 29  1  0
 29 30  1  0
 27 31  1  0
 31 32  2  0
 32 33  1  0
 33 34  1  0
 34 35  1  0
 35 36  1  0
 33 37  2  0
 37 38  1  0
 38 39  1  0
 39 40  1  0
 40 41  1  0
 39 42  1  0
 42 43  1  0
 32 44  1  0
 44 45  1  0
 45 46  1  0
 46 47  1  0
 47 48  1  0
 48 49  2  0
 49 50  1  0
 50 51  1  0
 51 52  1  0
 52 53  1  0
 51 54  1  0
 48 55  1  0
 55 56  2  3
 56 57  1  0
 57 58  3  0
 56 59  1  0
 59 60  3  0
 55 61  1  0
 61 62  3  0
 15  2  1  0
 41 21  2  0
 54 45  2  0
 14  5  1  0
 40 23  2  0
 50 46  2  0
 38 24  2  0
 37 26  1  0
 54 31  1  0
  1 63  1  0
 29 64  1  0
 29 65  1  0
 30 66  1  0
 30 67  1  0
 30 68  1  0
 35 69  1  0
 35 70  1  0
 36 71  1  0
 36 72  1  0
 36 73  1  0
 41 74  1  0
 42 75  1  0
 42 76  1  0
 43 77  1  0
 43 78  1  0
 43 79  1  0
 49 80  1  0
 52 81  1  0
 52 82  1  0
 53 83  1  0
 53 84  1  0
 53 85  1  0
M  END

