
     RDKit          3D

104116  0  0  0  0  0  0  0  0999 V2000
   -0.0203   -9.4168   -0.2553 C   0  0  0  0  0  0  0  0  0  0  0  0
    0.5630  -10.5807   -0.6104 C   0  0  0  0  0  0  0  0  0  0  0  0
    1.8099  -10.7716   -1.3553 C   0  0  0  0  0  0  0  0  0  0  0  0
    2.4138   -9.9046   -2.0402 O   0  0  0  0  0  0  0  0  0  0  0  0
    2.2752  -12.1321   -1.1263 C   0  0  0  0  0  0  0  0  0  0  0  0
    3.4869  -12.7159   -1.5186 C   0  0  0  0  0  0  0  0  0  0  0  0
    4.5753  -11.8878   -2.6326 Cl  0  0  0  0  0  0  0  0  0  0  0  0
    3.7976  -13.9997   -1.0252 C   0  0  0  0  0  0  0  0  0  0  0  0
    5.3043  -14.7815   -1.5245 Cl  0  0  0  0  0  0  0  0  0  0  0  0
    2.9439  -14.6299   -0.0920 C   0  0  0  0  0  0  0  0  0  0  0  0
    3.3964  -16.1952    0.5928 Cl  0  0  0  0  0  0  0  0  0  0  0  0
    1.7493  -13.9976    0.3217 C   0  0  0  0  0  0  0  0  0  0  0  0
    0.9514  -14.5513    1.7891 Cl  0  0  0  0  0  0  0  0  0  0  0  0
    1.3759  -12.7864   -0.2995 C   0  0  0  0  0  0  0  0  0  0  0  0
    0.1684  -11.9321   -0.1235 C   0  0  0  0  0  0  0  0  0  0  0  0
   -1.1104  -12.3826   -0.0355 C   0  0  0  0  0  0  0  0  0  0  0  0
   -2.2416  -11.5173   -0.2606 C   0  0  0  0  0  0  0  0  0  0  0  0
   -3.1495  -10.8265   -0.4576 N   0  0  0  0  0  0  0  0  0  0  0  0
   -1.4428  -13.7769    0.0978 C   0  0  0  0  0  0  0  0  0  0  0  0
   -1.7307  -14.8915    0.2195 N   0  0  0  0  0  0  0  0  0  0  0  0
    0.4859   -8.0571   -0.5375 C   0  0  0  0  0  0  0  0  0  0  0  0
    2.1056   -7.5273   -0.3366 S   0  0  0  0  0  0  0  0  0  0  0  0
    1.6861   -5.9196   -0.4888 C   0  0  0  0  0  0  0  0  0  0  0  0
    2.2506   -4.6921   -0.6375 C   0  0  0  0  0  0  0  0  0  0  0  0
    3.7825   -3.9957   -0.8672 S   0  0  0  0  0  0  0  0  0  0  0  0
    3.0237   -2.5095   -1.2464 C   0  0  0  0  0  0  0  0  0  0  0  0
    3.3994   -1.1994   -1.2212 C   0  0  0  0  0  0  0  0  0  0  0  0
    4.6693   -0.6387   -1.0566 C   0  0  0  0  0  0  0  0  0  0  0  0
    4.7755    0.7510   -0.7834 C   0  0  0  0  0  0  0  0  0  0  0  0
    6.0199    1.2524   -0.5899 N   0  0  0  0  0  0  0  0  0  0  0  0
    6.9057   -0.1344   -0.7737 S   0  0  0  0  0  0  0  0  0  0  0  0
    5.8257   -1.3477   -1.0848 N   0  0  0  0  0  0  0  0  0  0  0  0
    3.6076    1.5109   -0.7320 C   0  0  0  0  0  0  0  0  0  0  0  0
    3.4141    2.8283   -0.4341 C   0  0  0  0  0  0  0  0  0  0  0  0
    4.2814    4.0906    0.2919 S   0  0  0  0  0  0  0  0  0  0  0  0
    2.8391    4.9820    0.5002 C   0  0  0  0  0  0  0  0  0  0  0  0
    2.5443    6.1218    1.2499 C   0  0  0  0  0  0  0  0  0  0  0  0
    3.5757    6.9126    2.0092 C   0  0  0  0  0  0  0  0  0  0  0  0
    3.8368    6.2942    3.3809 C   0  0  0  0  0  0  0  0  0  0  0  0
    1.1542    6.3178    1.3393 C   0  0  0  0  0  0  0  0  0  0  0  0
    0.3331    5.0427    0.5506 S   0  0  0  0  0  0  0  0  0  0  0  0
    1.7432    4.2990    0.0323 C   0  0  0  0  0  0  0  0  0  0  0  0
    2.0861    3.0608   -0.4941 C   0  0  0  0  0  0  0  0  0  0  0  0
    1.3722    1.9604   -0.8360 N   0  0  0  0  0  0  0  0  0  0  0  0
    2.3233    0.9654   -0.9272 C   0  0  0  0  0  0  0  0  0  0  0  0
    2.2116   -0.4519   -1.1066 C   0  0  0  0  0  0  0  0  0  0  0  0
    1.1321   -1.3028   -0.9625 N   0  0  0  0  0  0  0  0  0  0  0  0
    1.6632   -2.5408   -1.1672 C   0  0  0  0  0  0  0  0  0  0  0  0
    1.2111   -3.8242   -0.8425 C   0  0  0  0  0  0  0  0  0  0  0  0
    0.0021   -4.4593   -0.9277 N   0  0  0  0  0  0  0  0  0  0  0  0
    0.3518   -5.7581   -0.6879 C   0  0  0  0  0  0  0  0  0  0  0  0
   -0.3664   -6.9503   -0.7410 C   0  0  0  0  0  0  0  0  0  0  0  0
   -1.1846   -4.0109   -1.6648 C   0  0  0  0  0  0  0  0  0  0  0  0
   -2.4429   -4.1015   -0.8100 C   0  0  0  0  0  0  0  0  0  0  0  0
   -0.0715   -1.0931   -0.1415 C   0  0  0  0  0  0  0  0  0  0  0  0
    0.2563   -0.5292    1.2423 C   0  0  0  0  0  0  0  0  0  0  0  0
   -0.0327    2.0083   -1.2564 C   0  0  0  0  0  0  0  0  0  0  0  0
   -0.2254    1.4230   -2.6565 C   0  0  0  0  0  0  0  0  0  0  0  0
    0.5069    7.2898    2.2342 C   0  0  0  0  0  0  0  0  0  0  0  0
   -0.4238    8.1809    1.8442 C   0  0  0  0  0  0  0  0  0  0  0  0
   -1.0095    8.2868    0.5042 C   0  0  0  0  0  0  0  0  0  0  0  0
   -0.5584    7.7760   -0.5550 O   0  0  0  0  0  0  0  0  0  0  0  0
   -2.1827    9.1282    0.5859 C   0  0  0  0  0  0  0  0  0  0  0  0
   -3.0976    9.4249   -0.4221 C   0  0  0  0  0  0  0  0  0  0  0  0
   -4.2148   10.2210   -0.1102 C   0  0  0  0  0  0  0  0  0  0  0  0
   -5.1950   10.5654   -1.1926 C   0  0  0  0  0  0  0  0  0  0  0  0
   -4.3924   10.6835    1.2142 C   0  0  0  0  0  0  0  0  0  0  0  0
   -5.4741   11.4381    1.5486 F   0  0  0  0  0  0  0  0  0  0  0  0
   -3.4609   10.3607    2.2138 C   0  0  0  0  0  0  0  0  0  0  0  0
   -2.3301    9.5981    1.8772 C   0  0  0  0  0  0  0  0  0  0  0  0
   -1.1832    9.1378    2.7125 C   0  0  0  0  0  0  0  0  0  0  0  0
   -0.7791    9.6699    3.8968 C   0  0  0  0  0  0  0  0  0  0  0  0
    0.4954    9.3580    4.4932 C   0  0  0  0  0  0  0  0  0  0  0  0
    1.5185    9.1241    4.9797 N   0  0  0  0  0  0  0  0  0  0  0  0
   -1.5210   10.6972    4.5802 C   0  0  0  0  0  0  0  0  0  0  0  0
   -2.1037   11.5275    5.1411 N   0  0  0  0  0  0  0  0  0  0  0  0
   -0.9153   -9.4411    0.3578 H   0  0  0  0  0  0  0  0  0  0  0  0
    4.5227    6.9346    1.4300 H   0  0  0  0  0  0  0  0  0  0  0  0
    3.2358    7.9650    2.1395 H   0  0  0  0  0  0  0  0  0  0  0  0
    2.9352    6.3870    4.0212 H   0  0  0  0  0  0  0  0  0  0  0  0
    4.1017    5.2215    3.2842 H   0  0  0  0  0  0  0  0  0  0  0  0
    4.6726    6.8309    3.8758 H   0  0  0  0  0  0  0  0  0  0  0  0
   -1.4371   -7.0308   -0.8739 H   0  0  0  0  0  0  0  0  0  0  0  0
   -1.0520   -2.9654   -2.0184 H   0  0  0  0  0  0  0  0  0  0  0  0
   -1.3094   -4.6427   -2.5714 H   0  0  0  0  0  0  0  0  0  0  0  0
   -3.3042   -3.7118   -1.3909 H   0  0  0  0  0  0  0  0  0  0  0  0
   -2.3349   -3.5027    0.1198 H   0  0  0  0  0  0  0  0  0  0  0  0
   -2.6650   -5.1510   -0.5250 H   0  0  0  0  0  0  0  0  0  0  0  0
   -0.8225   -0.5104   -0.6952 H   0  0  0  0  0  0  0  0  0  0  0  0
   -0.5749   -2.0547    0.0565 H   0  0  0  0  0  0  0  0  0  0  0  0
   -0.6853   -0.3953    1.8182 H   0  0  0  0  0  0  0  0  0  0  0  0
    0.9055   -1.2443    1.7975 H   0  0  0  0  0  0  0  0  0  0  0  0
    0.7599    0.4539    1.1910 H   0  0  0  0  0  0  0  0  0  0  0  0
   -0.3730    3.0619   -1.3212 H   0  0  0  0  0  0  0  0  0  0  0  0
   -0.6895    1.5659   -0.4929 H   0  0  0  0  0  0  0  0  0  0  0  0
   -1.2851    1.5546   -2.9705 H   0  0  0  0  0  0  0  0  0  0  0  0
    0.0192    0.3434   -2.6814 H   0  0  0  0  0  0  0  0  0  0  0  0
    0.4288    1.9542   -3.3806 H   0  0  0  0  0  0  0  0  0  0  0  0
    0.8047    7.2330    3.2637 H   0  0  0  0  0  0  0  0  0  0  0  0
   -2.9505    9.0390   -1.4250 H   0  0  0  0  0  0  0  0  0  0  0  0
   -5.4691    9.6491   -1.7553 H   0  0  0  0  0  0  0  0  0  0  0  0
   -6.1260   11.0067   -0.7772 H   0  0  0  0  0  0  0  0  0  0  0  0
   -4.7325   11.2959   -1.8890 H   0  0  0  0  0  0  0  0  0  0  0  0
   -3.6567   10.6846    3.2219 H   0  0  0  0  0  0  0  0  0  0  0  0
  1  2  2  3
  2  3  1  0
  3  4  2  0
  3  5  1  0
  5  6  2  0
  6  7  1  0
  6  8  1  0
  8  9  1  0
  8 10  2  0
 10 11  1  0
 10 12  1  0
 12 13  1  0
 12 14  2  0
 14 15  1  0
 15 16  2  3
 16 17  1  0
 17 18  3  0
 16 19  1  0
 19 20  3  0
  1 21  1  0
 21 22  1  0
 22 23  1  0
 23 24  1  0
 24 25  1  0
 25 26  1  0
 26 27  1  0
 27 28  1  0
 28 29  1  0
 29 30  2  0
 30 31  1  0
 31 32  1  0
 29 33  1  0
 33 34  1  0
 34 35  1  0
 35 36  1  0
 36 37  1  0
 37 38  1  0
 38 39  1  0
 37 40  2  0
 40 41  1  0
 41 42  1  0
 42 43  1  0
 43 44  1  0
 44 45  1  0
 45 46  1  0
 46 47  1  0
 47 48  1  0
 48 49  1  0
 49 50  1  0
 50 51  1  0
 51 52  1  0
 50 53  1  0
 53 54  1  0
 47 55  1  0
 55 56  1  0
 44 57  1  0
 57 58  1  0
 40 59  1  0
 59 60  2  3
 60 61  1  0
 61 62  2  0
 61 63  1  0
 63 64  2  0
 64 65  1  0
 65 66  1  0
 65 67  2  0
 67 68  1  0
 67 69  1  0
 69 70  2  0
 70 71  1  0
 71 72  2  3
 72 73  1  0
 73 74  3  0
 72 75  1  0
 75 76  3  0
 15  2  1  0
 52 21  2  0
 71 60  1  0
 14  5  1  0
 51 23  2  0
 70 63  1  0
 49 24  2  0
 48 26  2  0
 46 27  2  0
 32 28  2  0
 45 33  2  0
 43 34  2  0
 42 36  2  0
  1 77  1  0
 38 78  1  0
 38 79  1  0
 39 80  1  0
 39 81  1  0
 39 82  1  0
 52 83  1  0
 53 84  1  0
 53 85  1  0
 54 86  1  0
 54 87  1  0
 54 88  1  0
 55 89  1  0
 55 90  1  0
 56 91  1  0
 56 92  1  0
 56 93  1  0
 57 94  1  0
 57 95  1  0
 58 96  1  0
 58 97  1  0
 58 98  1  0
 59 99  1  0
 64100  1  0
 66101  1  0
 66102  1  0
 66103  1  0
 69104  1  0
M  END

