
     RDKit          3D

101113  0  0  0  0  0  0  0  0999 V2000
   -8.1705    1.9270    2.0554 C   0  0  0  0  0  0  0  0  0  0  0  0
   -8.2591    2.1961    3.3709 C   0  0  0  0  0  0  0  0  0  0  0  0
   -7.1584    2.4796    4.3024 C   0  0  0  0  0  0  0  0  0  0  0  0
   -5.9392    2.3470    4.0765 O   0  0  0  0  0  0  0  0  0  0  0  0
   -7.7156    3.0081    5.5376 C   0  0  0  0  0  0  0  0  0  0  0  0
   -7.0349    3.4477    6.6849 C   0  0  0  0  0  0  0  0  0  0  0  0
   -5.2794    3.2292    6.8520 Cl  0  0  0  0  0  0  0  0  0  0  0  0
   -7.7697    4.1021    7.6939 C   0  0  0  0  0  0  0  0  0  0  0  0
   -6.9613    4.6020    9.1814 Cl  0  0  0  0  0  0  0  0  0  0  0  0
   -9.1712    4.3255    7.5093 C   0  0  0  0  0  0  0  0  0  0  0  0
  -10.0755    5.2191    8.7349 Cl  0  0  0  0  0  0  0  0  0  0  0  0
   -9.8218    3.9002    6.3322 C   0  0  0  0  0  0  0  0  0  0  0  0
  -11.4492    4.4745    6.0051 Cl  0  0  0  0  0  0  0  0  0  0  0  0
   -9.0850    3.1380    5.4007 C   0  0  0  0  0  0  0  0  0  0  0  0
   -9.5150    2.5072    4.1240 C   0  0  0  0  0  0  0  0  0  0  0  0
  -10.7224    1.9234    3.9184 C   0  0  0  0  0  0  0  0  0  0  0  0
  -11.1045    1.3363    2.6654 C   0  0  0  0  0  0  0  0  0  0  0  0
  -11.4511    0.8689    1.6542 N   0  0  0  0  0  0  0  0  0  0  0  0
  -11.5975    1.5852    5.0108 C   0  0  0  0  0  0  0  0  0  0  0  0
  -12.2925    1.2852    5.8812 N   0  0  0  0  0  0  0  0  0  0  0  0
   -6.9746    1.5318    1.2768 C   0  0  0  0  0  0  0  0  0  0  0  0
   -6.8994    1.8130   -0.4112 S   0  0  0  0  0  0  0  0  0  0  0  0
   -5.5731    0.8242   -0.6057 C   0  0  0  0  0  0  0  0  0  0  0  0
   -4.5816    0.6394   -1.5147 C   0  0  0  0  0  0  0  0  0  0  0  0
   -4.0540    1.4165   -2.9219 S   0  0  0  0  0  0  0  0  0  0  0  0
   -2.5040    0.7530   -2.6836 C   0  0  0  0  0  0  0  0  0  0  0  0
   -1.3027    0.7034   -3.3205 C   0  0  0  0  0  0  0  0  0  0  0  0
   -0.8948    1.3521   -4.4881 C   0  0  0  0  0  0  0  0  0  0  0  0
    0.4562    1.1760   -4.9123 C   0  0  0  0  0  0  0  0  0  0  0  0
    0.8549    1.8706   -6.0110 N   0  0  0  0  0  0  0  0  0  0  0  0
   -0.5882    2.6061   -6.3689 S   0  0  0  0  0  0  0  0  0  0  0  0
   -1.6960    2.1461   -5.2258 N   0  0  0  0  0  0  0  0  0  0  0  0
    1.3002    0.3473   -4.1630 C   0  0  0  0  0  0  0  0  0  0  0  0
    2.6582    0.1709   -4.2787 C   0  0  0  0  0  0  0  0  0  0  0  0
    3.9843    0.7696   -5.1869 S   0  0  0  0  0  0  0  0  0  0  0  0
    5.0888    0.0725   -4.0734 C   0  0  0  0  0  0  0  0  0  0  0  0
    6.4891    0.0576   -3.9791 C   0  0  0  0  0  0  0  0  0  0  0  0
    7.4104    0.7100   -4.9662 C   0  0  0  0  0  0  0  0  0  0  0  0
    7.6851    2.1684   -4.5934 C   0  0  0  0  0  0  0  0  0  0  0  0
    6.8816   -0.5906   -2.7851 C   0  0  0  0  0  0  0  0  0  0  0  0
    5.5261   -1.1340   -1.9156 S   0  0  0  0  0  0  0  0  0  0  0  0
    4.4225   -0.5713   -3.0519 C   0  0  0  0  0  0  0  0  0  0  0  0
    3.0436   -0.5051   -3.1799 C   0  0  0  0  0  0  0  0  0  0  0  0
    2.0108   -0.8263   -2.3581 N   0  0  0  0  0  0  0  0  0  0  0  0
    0.8914   -0.2856   -2.9639 C   0  0  0  0  0  0  0  0  0  0  0  0
   -0.4738   -0.1455   -2.5434 C   0  0  0  0  0  0  0  0  0  0  0  0
   -1.2019   -0.6561   -1.4729 N   0  0  0  0  0  0  0  0  0  0  0  0
   -2.3870    0.0147   -1.5607 C   0  0  0  0  0  0  0  0  0  0  0  0
   -3.5795   -0.0235   -0.8449 C   0  0  0  0  0  0  0  0  0  0  0  0
   -3.8745   -0.1956    0.4861 N   0  0  0  0  0  0  0  0  0  0  0  0
   -5.1257    0.3394    0.5769 C   0  0  0  0  0  0  0  0  0  0  0  0
   -5.8881    0.7307    1.6789 C   0  0  0  0  0  0  0  0  0  0  0  0
   -2.8969   -0.1783    1.5820 C   0  0  0  0  0  0  0  0  0  0  0  0
   -3.0690   -1.3978    2.4578 C   0  0  0  0  0  0  0  0  0  0  0  0
   -1.1280   -1.9589   -0.7950 C   0  0  0  0  0  0  0  0  0  0  0  0
   -0.8227   -3.0943   -1.7610 C   0  0  0  0  0  0  0  0  0  0  0  0
    2.2238   -1.4856   -1.0628 C   0  0  0  0  0  0  0  0  0  0  0  0
    2.5554   -2.9856   -1.2437 C   0  0  0  0  0  0  0  0  0  0  0  0
    8.2514   -0.8530   -2.2913 C   0  0  0  0  0  0  0  0  0  0  0  0
    8.6733   -2.1306   -2.2491 C   0  0  0  0  0  0  0  0  0  0  0  0
    8.1898   -3.1076   -3.2169 C   0  0  0  0  0  0  0  0  0  0  0  0
    8.0456   -2.8854   -4.4546 O   0  0  0  0  0  0  0  0  0  0  0  0
    7.9293   -4.3698   -2.5386 C   0  0  0  0  0  0  0  0  0  0  0  0
    7.3577   -5.5414   -3.0468 C   0  0  0  0  0  0  0  0  0  0  0  0
    6.9052   -5.7189   -4.7206 Cl  0  0  0  0  0  0  0  0  0  0  0  0
    7.1091   -6.6000   -2.1656 C   0  0  0  0  0  0  0  0  0  0  0  0
    7.4714   -6.4982   -0.8078 C   0  0  0  0  0  0  0  0  0  0  0  0
    7.1432   -7.9421    0.3896 Br  0  0  0  0  0  0  0  0  0  0  0  0
    8.0368   -5.3115   -0.3132 C   0  0  0  0  0  0  0  0  0  0  0  0
    8.2780   -4.2455   -1.1985 C   0  0  0  0  0  0  0  0  0  0  0  0
    8.8271   -2.8781   -0.9421 C   0  0  0  0  0  0  0  0  0  0  0  0
    9.2597   -2.3647    0.2486 C   0  0  0  0  0  0  0  0  0  0  0  0
    9.9342   -1.0948    0.3414 C   0  0  0  0  0  0  0  0  0  0  0  0
   10.4906   -0.0808    0.4458 N   0  0  0  0  0  0  0  0  0  0  0  0
    9.0500   -3.0089    1.5248 C   0  0  0  0  0  0  0  0  0  0  0  0
    8.8600   -3.5005    2.5553 N   0  0  0  0  0  0  0  0  0  0  0  0
   -9.0506    2.0665    1.4536 H   0  0  0  0  0  0  0  0  0  0  0  0
    8.3661    0.1505   -5.0012 H   0  0  0  0  0  0  0  0  0  0  0  0
    6.9422    0.6725   -5.9798 H   0  0  0  0  0  0  0  0  0  0  0  0
    8.3292    2.2083   -3.6981 H   0  0  0  0  0  0  0  0  0  0  0  0
    6.7341    2.6944   -4.3605 H   0  0  0  0  0  0  0  0  0  0  0  0
    8.1929    2.6739   -5.4131 H   0  0  0  0  0  0  0  0  0  0  0  0
   -5.7015    0.3704    2.6833 H   0  0  0  0  0  0  0  0  0  0  0  0
   -1.8562   -0.1802    1.1805 H   0  0  0  0  0  0  0  0  0  0  0  0
   -2.9892    0.7722    2.1872 H   0  0  0  0  0  0  0  0  0  0  0  0
   -4.1119   -1.4610    2.8383 H   0  0  0  0  0  0  0  0  0  0  0  0
   -2.8162   -2.3308    1.9187 H   0  0  0  0  0  0  0  0  0  0  0  0
   -2.4254   -1.2911    3.3452 H   0  0  0  0  0  0  0  0  0  0  0  0
   -0.5004   -1.9293    0.1004 H   0  0  0  0  0  0  0  0  0  0  0  0
   -2.1115   -2.2094   -0.3544 H   0  0  0  0  0  0  0  0  0  0  0  0
   -0.3320   -3.9147   -1.2085 H   0  0  0  0  0  0  0  0  0  0  0  0
   -1.7658   -3.4733   -2.2103 H   0  0  0  0  0  0  0  0  0  0  0  0
   -0.1703   -2.7933   -2.5983 H   0  0  0  0  0  0  0  0  0  0  0  0
    1.3505   -1.3480   -0.4339 H   0  0  0  0  0  0  0  0  0  0  0  0
    3.0620   -1.0037   -0.5140 H   0  0  0  0  0  0  0  0  0  0  0  0
    2.3753   -3.5353   -0.2877 H   0  0  0  0  0  0  0  0  0  0  0  0
    1.9493   -3.4394   -2.0534 H   0  0  0  0  0  0  0  0  0  0  0  0
    3.6186   -3.1322   -1.5136 H   0  0  0  0  0  0  0  0  0  0  0  0
    8.5686   -0.1666   -1.5256 H   0  0  0  0  0  0  0  0  0  0  0  0
    6.6383   -7.5138   -2.5107 H   0  0  0  0  0  0  0  0  0  0  0  0
    8.2885   -5.2493    0.7233 H   0  0  0  0  0  0  0  0  0  0  0  0
  1  2  2  3
  2  3  1  0
  3  4  2  0
  3  5  1  0
  5  6  2  0
  6  7  1  0
  6  8  1  0
  8  9  1  0
  8 10  2  0
 10 11  1  0
 10 12  1  0
 12 13  1  0
 12 14  2  0
 14 15  1  0
 15 16  2  3
 16 17  1  0
 17 18  3  0
 16 19  1  0
 19 20  3  0
  1 21  1  0
 21 22  1  0
 22 23  1  0
 23 24  1  0
 24 25  1  0
 25 26  1  0
 26 27  1  0
 27 28  1  0
 28 29  1  0
 29 30  2  0
 30 31  1  0
 31 32  1  0
 29 33  1  0
 33 34  1  0
 34 35  1  0
 35 36  1  0
 36 37  1  0
 37 38  1  0
 38 39  1  0
 37 40  2  0
 40 41  1  0
 41 42  1  0
 42 43  1  0
 43 44  1  0
 44 45  1  0
 45 46  1  0
 46 47  1  0
 47 48  1  0
 48 49  1  0
 49 50  1  0
 50 51  1  0
 51 52  1  0
 50 53  1  0
 53 54  1  0
 47 55  1  0
 55 56  1  0
 44 57  1  0
 57 58  1  0
 40 59  1  0
 59 60  2  3
 60 61  1  0
 61 62  2  0
 61 63  1  0
 63 64  2  0
 64 65  1  0
 64 66  1  0
 66 67  2  0
 67 68  1  0
 67 69  1  0
 69 70  2  0
 70 71  1  0
 71 72  2  3
 72 73  1  0
 73 74  3  0
 72 75  1  0
 75 76  3  0
 15  2  1  0
 52 21  2  0
 71 60  1  0
 14  5  1  0
 51 23  2  0
 70 63  1  0
 49 24  2  0
 48 26  2  0
 46 27  2  0
 32 28  2  0
 45 33  2  0
 43 34  2  0
 42 36  2  0
  1 77  1  0
 38 78  1  0
 38 79  1  0
 39 80  1  0
 39 81  1  0
 39 82  1  0
 52 83  1  0
 53 84  1  0
 53 85  1  0
 54 86  1  0
 54 87  1  0
 54 88  1  0
 55 89  1  0
 55 90  1  0
 56 91  1  0
 56 92  1  0
 56 93  1  0
 57 94  1  0
 57 95  1  0
 58 96  1  0
 58 97  1  0
 58 98  1  0
 59 99  1  0
 66100  1  0
 69101  1  0
M  END

