
     RDKit          3D

114129  0  0  0  0  0  0  0  0999 V2000
   -1.1908    9.5011    2.0065 C   0  0  0  0  0  0  0  0  0  0  0  0
   -2.1828    9.1207    2.8382 C   0  0  0  0  0  0  0  0  0  0  0  0
   -3.1345   10.0894    3.3743 C   0  0  0  0  0  0  0  0  0  0  0  0
   -3.0165   11.3425    3.2886 O   0  0  0  0  0  0  0  0  0  0  0  0
   -4.2485    9.3842    3.9857 C   0  0  0  0  0  0  0  0  0  0  0  0
   -5.3639    9.9291    4.6357 C   0  0  0  0  0  0  0  0  0  0  0  0
   -5.6623   11.6673    4.6216 Cl  0  0  0  0  0  0  0  0  0  0  0  0
   -6.2372    9.0586    5.3105 C   0  0  0  0  0  0  0  0  0  0  0  0
   -7.6721    9.7022    6.1094 Cl  0  0  0  0  0  0  0  0  0  0  0  0
   -5.9348    7.6823    5.3952 C   0  0  0  0  0  0  0  0  0  0  0  0
   -6.9724    6.6241    6.3538 Cl  0  0  0  0  0  0  0  0  0  0  0  0
   -4.7804    7.1593    4.7626 C   0  0  0  0  0  0  0  0  0  0  0  0
   -4.2437    5.5445    5.2162 Cl  0  0  0  0  0  0  0  0  0  0  0  0
   -3.9996    8.0181    3.9467 C   0  0  0  0  0  0  0  0  0  0  0  0
   -2.7208    7.7756    3.2019 C   0  0  0  0  0  0  0  0  0  0  0  0
   -2.1553    6.5741    2.9716 C   0  0  0  0  0  0  0  0  0  0  0  0
   -2.9563    5.4584    2.5424 C   0  0  0  0  0  0  0  0  0  0  0  0
   -3.6041    4.5679    2.1790 N   0  0  0  0  0  0  0  0  0  0  0  0
   -0.7308    6.3866    2.9678 C   0  0  0  0  0  0  0  0  0  0  0  0
    0.4159    6.2138    2.9790 N   0  0  0  0  0  0  0  0  0  0  0  0
   -0.4523    8.6587    1.0599 C   0  0  0  0  0  0  0  0  0  0  0  0
    1.2302    8.7403    0.8681 S   0  0  0  0  0  0  0  0  0  0  0  0
    1.2546    7.5747   -0.3347 C   0  0  0  0  0  0  0  0  0  0  0  0
    2.1358    6.5755   -0.6138 C   0  0  0  0  0  0  0  0  0  0  0  0
    3.4761    6.0596    0.2874 S   0  0  0  0  0  0  0  0  0  0  0  0
    3.1281    4.4500   -0.0787 C   0  0  0  0  0  0  0  0  0  0  0  0
    3.8964    3.3372   -0.1976 C   0  0  0  0  0  0  0  0  0  0  0  0
    5.1903    3.0596    0.2565 C   0  0  0  0  0  0  0  0  0  0  0  0
    5.8220    1.8598   -0.1793 C   0  0  0  0  0  0  0  0  0  0  0  0
    7.0630    1.6069    0.3103 N   0  0  0  0  0  0  0  0  0  0  0  0
    7.2726    2.9476    1.2564 S   0  0  0  0  0  0  0  0  0  0  0  0
    5.8895    3.8514    1.1070 N   0  0  0  0  0  0  0  0  0  0  0  0
    5.1321    1.0119   -1.0515 C   0  0  0  0  0  0  0  0  0  0  0  0
    5.3599   -0.3014   -1.3607 C   0  0  0  0  0  0  0  0  0  0  0  0
    6.2928   -1.5188   -0.6294 S   0  0  0  0  0  0  0  0  0  0  0  0
    5.1778   -2.7174   -1.0931 C   0  0  0  0  0  0  0  0  0  0  0  0
    5.0238   -4.0572   -0.7227 C   0  0  0  0  0  0  0  0  0  0  0  0
    6.0586   -4.8345    0.0506 C   0  0  0  0  0  0  0  0  0  0  0  0
    5.7316   -4.8493    1.5393 C   0  0  0  0  0  0  0  0  0  0  0  0
    3.7448   -4.5328   -1.0807 C   0  0  0  0  0  0  0  0  0  0  0  0
    2.9004   -3.3112   -1.9195 S   0  0  0  0  0  0  0  0  0  0  0  0
    4.1115   -2.1688   -1.7561 C   0  0  0  0  0  0  0  0  0  0  0  0
    4.2017   -0.7864   -1.8998 C   0  0  0  0  0  0  0  0  0  0  0  0
    3.2356    0.1670   -1.9910 N   0  0  0  0  0  0  0  0  0  0  0  0
    3.8325    1.2983   -1.4980 C   0  0  0  0  0  0  0  0  0  0  0  0
    3.2281    2.5254   -1.1098 C   0  0  0  0  0  0  0  0  0  0  0  0
    2.1445    3.1724   -1.6460 N   0  0  0  0  0  0  0  0  0  0  0  0
    2.0307    4.2948   -0.8753 C   0  0  0  0  0  0  0  0  0  0  0  0
    1.3972    5.5205   -1.1286 C   0  0  0  0  0  0  0  0  0  0  0  0
    0.0561    5.7952   -1.0331 N   0  0  0  0  0  0  0  0  0  0  0  0
    0.0106    7.0712   -0.5566 C   0  0  0  0  0  0  0  0  0  0  0  0
   -0.9922    7.6892    0.2021 C   0  0  0  0  0  0  0  0  0  0  0  0
   -1.0044    4.8057   -0.8110 C   0  0  0  0  0  0  0  0  0  0  0  0
   -2.2161    5.0708   -1.7081 C   0  0  0  0  0  0  0  0  0  0  0  0
    1.8896    3.1803   -3.1045 C   0  0  0  0  0  0  0  0  0  0  0  0
    0.4059    3.1647   -3.4520 C   0  0  0  0  0  0  0  0  0  0  0  0
    1.7962   -0.1200   -2.0641 C   0  0  0  0  0  0  0  0  0  0  0  0
    1.2259   -0.4035   -0.6808 C   0  0  0  0  0  0  0  0  0  0  0  0
    3.2470   -5.9056   -0.8593 C   0  0  0  0  0  0  0  0  0  0  0  0
    1.9624   -6.2384   -0.6433 C   0  0  0  0  0  0  0  0  0  0  0  0
    0.8103   -5.3532   -0.4297 C   0  0  0  0  0  0  0  0  0  0  0  0
    0.8497   -4.1391   -0.1001 O   0  0  0  0  0  0  0  0  0  0  0  0
   -0.4010   -6.1336   -0.6130 C   0  0  0  0  0  0  0  0  0  0  0  0
   -1.7420   -5.6932   -0.5129 C   0  0  0  0  0  0  0  0  0  0  0  0
   -2.6762   -6.6879   -0.7398 C   0  0  0  0  0  0  0  0  0  0  0  0
   -2.3194   -8.0422   -1.0481 C   0  0  0  0  0  0  0  0  0  0  0  0
   -1.0091   -8.4839   -1.1313 C   0  0  0  0  0  0  0  0  0  0  0  0
   -0.0357   -7.4757   -0.8992 C   0  0  0  0  0  0  0  0  0  0  0  0
    1.4422   -7.6064   -0.8530 C   0  0  0  0  0  0  0  0  0  0  0  0
    2.0558   -8.7091   -0.3947 C   0  0  0  0  0  0  0  0  0  0  0  0
    1.8152   -9.9736   -1.0353 C   0  0  0  0  0  0  0  0  0  0  0  0
    1.6098  -10.9845   -1.5594 N   0  0  0  0  0  0  0  0  0  0  0  0
    2.4385   -8.7508    0.9978 C   0  0  0  0  0  0  0  0  0  0  0  0
    2.6822   -8.8007    2.1347 N   0  0  0  0  0  0  0  0  0  0  0  0
   -3.7684   -8.4155   -1.1589 C   0  0  0  0  0  0  0  0  0  0  0  0
   -4.4020   -9.2512   -0.0062 C   0  0  0  0  0  0  0  0  0  0  0  0
   -3.7112   -8.9353    1.3006 C   0  0  0  0  0  0  0  0  0  0  0  0
   -4.0343   -7.6776    1.6049 C   0  0  0  0  0  0  0  0  0  0  0  0
   -4.9380   -7.1826    0.4987 C   0  0  0  0  0  0  0  0  0  0  0  0
   -5.6860   -8.4691    0.2041 C   0  0  0  0  0  0  0  0  0  0  0  0
   -4.1335   -7.0345   -0.8258 C   0  0  0  0  0  0  0  0  0  0  0  0
   -0.9456   10.5551    1.9552 H   0  0  0  0  0  0  0  0  0  0  0  0
    6.1134   -5.8774   -0.3298 H   0  0  0  0  0  0  0  0  0  0  0  0
    7.0632   -4.3800   -0.0953 H   0  0  0  0  0  0  0  0  0  0  0  0
    4.7523   -5.3443    1.7139 H   0  0  0  0  0  0  0  0  0  0  0  0
    5.7070   -3.8118    1.9411 H   0  0  0  0  0  0  0  0  0  0  0  0
    6.5157   -5.4264    2.0839 H   0  0  0  0  0  0  0  0  0  0  0  0
   -2.0294    7.3918    0.2131 H   0  0  0  0  0  0  0  0  0  0  0  0
   -1.3272    4.8305    0.2524 H   0  0  0  0  0  0  0  0  0  0  0  0
   -0.6339    3.7801   -0.9978 H   0  0  0  0  0  0  0  0  0  0  0  0
   -2.8777    4.1782   -1.7096 H   0  0  0  0  0  0  0  0  0  0  0  0
   -1.9043    5.2835   -2.7505 H   0  0  0  0  0  0  0  0  0  0  0  0
   -2.8015    5.9327   -1.3352 H   0  0  0  0  0  0  0  0  0  0  0  0
    2.3725    2.3060   -3.5917 H   0  0  0  0  0  0  0  0  0  0  0  0
    2.3621    4.0758   -3.5597 H   0  0  0  0  0  0  0  0  0  0  0  0
   -0.0102    4.1872   -3.3712 H   0  0  0  0  0  0  0  0  0  0  0  0
    0.2821    2.8426   -4.5092 H   0  0  0  0  0  0  0  0  0  0  0  0
   -0.1623    2.4626   -2.8078 H   0  0  0  0  0  0  0  0  0  0  0  0
    1.2469    0.7176   -2.5038 H   0  0  0  0  0  0  0  0  0  0  0  0
    1.6110   -0.9785   -2.7389 H   0  0  0  0  0  0  0  0  0  0  0  0
    1.7511   -1.2561   -0.2006 H   0  0  0  0  0  0  0  0  0  0  0  0
    1.3308    0.4920   -0.0307 H   0  0  0  0  0  0  0  0  0  0  0  0
    0.1465   -0.6553   -0.7665 H   0  0  0  0  0  0  0  0  0  0  0  0
    3.9677   -6.7024   -0.9770 H   0  0  0  0  0  0  0  0  0  0  0  0
   -2.0189   -4.6701   -0.2896 H   0  0  0  0  0  0  0  0  0  0  0  0
   -0.7716   -9.5118   -1.3564 H   0  0  0  0  0  0  0  0  0  0  0  0
   -4.0776   -8.7235   -2.1831 H   0  0  0  0  0  0  0  0  0  0  0  0
   -4.5297  -10.3301   -0.2239 H   0  0  0  0  0  0  0  0  0  0  0  0
   -3.1486   -9.6192    1.9275 H   0  0  0  0  0  0  0  0  0  0  0  0
   -3.7715   -7.1629    2.5225 H   0  0  0  0  0  0  0  0  0  0  0  0
   -5.5749   -6.3142    0.7723 H   0  0  0  0  0  0  0  0  0  0  0  0
   -6.3294   -8.4122   -0.7059 H   0  0  0  0  0  0  0  0  0  0  0  0
   -6.2975   -8.8356    1.0651 H   0  0  0  0  0  0  0  0  0  0  0  0
   -4.6742   -6.5057   -1.6432 H   0  0  0  0  0  0  0  0  0  0  0  0
  1  2  2  3
  2  3  1  0
  3  4  2  0
  3  5  1  0
  5  6  2  0
  6  7  1  0
  6  8  1  0
  8  9  1  0
  8 10  2  0
 10 11  1  0
 10 12  1  0
 12 13  1  0
 12 14  2  0
 14 15  1  0
 15 16  2  3
 16 17  1  0
 17 18  3  0
 16 19  1  0
 19 20  3  0
  1 21  1  0
 21 22  1  0
 22 23  1  0
 23 24  1  0
 24 25  1  0
 25 26  1  0
 26 27  1  0
 27 28  1  0
 28 29  1  0
 29 30  2  0
 30 31  1  0
 31 32  1  0
 29 33  1  0
 33 34  1  0
 34 35  1  0
 35 36  1  0
 36 37  1  0
 37 38  1  0
 38 39  1  0
 37 40  2  0
 40 41  1  0
 41 42  1  0
 42 43  1  0
 43 44  1  0
 44 45  1  0
 45 46  1  0
 46 47  1  0
 47 48  1  0
 48 49  1  0
 49 50  1  0
 50 51  1  0
 51 52  1  0
 50 53  1  0
 53 54  1  0
 47 55  1  0
 55 56  1  0
 44 57  1  0
 57 58  1  0
 40 59  1  0
 59 60  2  3
 60 61  1  0
 61 62  2  0
 61 63  1  0
 63 64  2  0
 64 65  1  0
 65 66  2  0
 66 67  1  0
 67 68  2  0
 68 69  1  0
 69 70  2  3
 70 71  1  0
 71 72  3  0
 70 73  1  0
 73 74  3  0
 66 75  1  0
 75 76  1  0
 76 77  1  0
 77 78  2  0
 78 79  1  0
 79 80  1  0
 79 81  1  0
 15  2  1  0
 52 21  2  0
 69 60  1  0
 81 75  1  0
 14  5  1  0
 51 23  2  0
 68 63  1  0
 80 76  1  0
 49 24  2  0
 81 65  1  0
 48 26  2  0
 46 27  2  0
 32 28  2  0
 45 33  2  0
 43 34  2  0
 42 36  2  0
  1 82  1  0
 38 83  1  0
 38 84  1  0
 39 85  1  0
 39 86  1  0
 39 87  1  0
 52 88  1  0
 53 89  1  0
 53 90  1  0
 54 91  1  0
 54 92  1  0
 54 93  1  0
 55 94  1  0
 55 95  1  0
 56 96  1  0
 56 97  1  0
 56 98  1  0
 57 99  1  0
 57100  1  0
 58101  1  0
 58102  1  0
 58103  1  0
 59104  1  0
 64105  1  0
 67106  1  0
 75107  1  0
 76108  1  0
 77109  1  0
 78110  1  0
 79111  1  0
 80112  1  0
 80113  1  0
 81114  1  0
M  END

