
     RDKit          3D

115125  0  0  0  0  0  0  0  0999 V2000
   -0.0857   -2.2464   -5.8420 C   0  0  0  0  0  0  0  0  0  0  0  0
    0.0992   -3.0404   -6.9145 C   0  0  0  0  0  0  0  0  0  0  0  0
    0.9478   -4.2378   -6.9347 C   0  0  0  0  0  0  0  0  0  0  0  0
    1.7360   -4.5985   -6.0215 O   0  0  0  0  0  0  0  0  0  0  0  0
    0.7321   -4.9506   -8.1846 C   0  0  0  0  0  0  0  0  0  0  0  0
    1.3736   -6.1073   -8.6496 C   0  0  0  0  0  0  0  0  0  0  0  0
    2.4826   -7.0100   -7.6154 Cl  0  0  0  0  0  0  0  0  0  0  0  0
    1.1076   -6.5358   -9.9622 C   0  0  0  0  0  0  0  0  0  0  0  0
    1.8684   -8.0019  -10.5838 Cl  0  0  0  0  0  0  0  0  0  0  0  0
    0.2885   -5.7520  -10.8087 C   0  0  0  0  0  0  0  0  0  0  0  0
    0.0530   -6.2295  -12.4927 Cl  0  0  0  0  0  0  0  0  0  0  0  0
   -0.3199   -4.5719  -10.3285 C   0  0  0  0  0  0  0  0  0  0  0  0
   -0.9893   -3.4334  -11.4950 Cl  0  0  0  0  0  0  0  0  0  0  0  0
   -0.1700   -4.2403   -8.9622 C   0  0  0  0  0  0  0  0  0  0  0  0
   -0.6768   -3.0616   -8.1932 C   0  0  0  0  0  0  0  0  0  0  0  0
   -1.7975   -2.3459   -8.4630 C   0  0  0  0  0  0  0  0  0  0  0  0
   -2.0094   -1.0181   -7.9462 C   0  0  0  0  0  0  0  0  0  0  0  0
   -2.1790    0.0559   -7.5544 N   0  0  0  0  0  0  0  0  0  0  0  0
   -2.8828   -2.8998   -9.2236 C   0  0  0  0  0  0  0  0  0  0  0  0
   -3.7660   -3.3342   -9.8333 N   0  0  0  0  0  0  0  0  0  0  0  0
    0.6706   -2.3888   -4.5987 C   0  0  0  0  0  0  0  0  0  0  0  0
   -0.0121   -2.9522   -3.1472 S   0  0  0  0  0  0  0  0  0  0  0  0
    1.3257   -2.5170   -2.2357 C   0  0  0  0  0  0  0  0  0  0  0  0
    1.5127   -2.1726   -0.8446 C   0  0  0  0  0  0  0  0  0  0  0  0
    2.6102   -1.3181   -0.7690 C   0  0  0  0  0  0  0  0  0  0  0  0
    3.1616   -1.0018   -2.1559 C   0  0  0  0  0  0  0  0  0  0  0  0
    2.2409   -1.8538   -3.0003 C   0  0  0  0  0  0  0  0  0  0  0  0
    1.9029   -1.7745   -4.3527 C   0  0  0  0  0  0  0  0  0  0  0  0
    3.0183    0.5111   -2.4929 C   0  0  0  0  0  0  0  0  0  0  0  0
    1.5879    1.0540   -2.3688 C   0  0  0  0  0  0  0  0  0  0  0  0
    4.6399   -1.4340   -2.3042 C   0  0  0  0  0  0  0  0  0  0  0  0
    4.9177   -2.8878   -1.9139 C   0  0  0  0  0  0  0  0  0  0  0  0
    2.9338   -0.6764    0.4319 C   0  0  0  0  0  0  0  0  0  0  0  0
    2.0896   -0.8994    1.5258 C   0  0  0  0  0  0  0  0  0  0  0  0
    1.9728   -0.0890    2.7165 C   0  0  0  0  0  0  0  0  0  0  0  0
    0.7597   -0.3829    3.3366 C   0  0  0  0  0  0  0  0  0  0  0  0
    0.0897   -1.5958    2.6891 C   0  0  0  0  0  0  0  0  0  0  0  0
    0.3026   -2.8376    3.6078 C   0  0  0  0  0  0  0  0  0  0  0  0
   -0.1139   -4.1731    2.9844 C   0  0  0  0  0  0  0  0  0  0  0  0
   -1.3994   -1.3141    2.2997 C   0  0  0  0  0  0  0  0  0  0  0  0
   -2.4393   -1.5661    3.4066 C   0  0  0  0  0  0  0  0  0  0  0  0
    0.9670   -1.7220    1.4434 C   0  0  0  0  0  0  0  0  0  0  0  0
    0.6714   -2.4013    0.2442 C   0  0  0  0  0  0  0  0  0  0  0  0
    0.2047    0.5385    4.2382 C   0  0  0  0  0  0  0  0  0  0  0  0
    0.9103    1.7181    4.4852 C   0  0  0  0  0  0  0  0  0  0  0  0
    0.3357    2.9807    4.8894 C   0  0  0  0  0  0  0  0  0  0  0  0
    1.2200    3.9808    4.5563 C   0  0  0  0  0  0  0  0  0  0  0  0
    2.5838    3.4269    4.1677 C   0  0  0  0  0  0  0  0  0  0  0  0
    2.1704    1.9724    3.9330 C   0  0  0  0  0  0  0  0  0  0  0  0
    2.7187    1.0543    3.0252 C   0  0  0  0  0  0  0  0  0  0  0  0
    3.5381    3.4937    5.3934 C   0  0  0  0  0  0  0  0  0  0  0  0
    3.7545    4.9183    5.9186 C   0  0  0  0  0  0  0  0  0  0  0  0
    3.1521    4.1171    2.8793 C   0  0  0  0  0  0  0  0  0  0  0  0
    4.6532    3.9295    2.6188 C   0  0  0  0  0  0  0  0  0  0  0  0
    0.5997    5.1646    4.1329 C   0  0  0  0  0  0  0  0  0  0  0  0
   -0.7884    5.0477    4.0814 C   0  0  0  0  0  0  0  0  0  0  0  0
   -1.2350    3.5048    4.6238 S   0  0  0  0  0  0  0  0  0  0  0  0
   -1.6477    6.0665    3.4355 C   0  0  0  0  0  0  0  0  0  0  0  0
   -2.5499    5.8309    2.4491 C   0  0  0  0  0  0  0  0  0  0  0  0
   -2.9700    4.5475    1.8682 C   0  0  0  0  0  0  0  0  0  0  0  0
   -2.4479    3.4215    2.0568 O   0  0  0  0  0  0  0  0  0  0  0  0
   -4.0066    4.8058    0.8792 C   0  0  0  0  0  0  0  0  0  0  0  0
   -5.0150    3.9217    0.4957 C   0  0  0  0  0  0  0  0  0  0  0  0
   -4.9391    2.5992    0.7969 F   0  0  0  0  0  0  0  0  0  0  0  0
   -6.1618    4.4422   -0.1115 C   0  0  0  0  0  0  0  0  0  0  0  0
   -6.2425    5.8050   -0.4272 C   0  0  0  0  0  0  0  0  0  0  0  0
   -5.2297    6.6835   -0.0163 C   0  0  0  0  0  0  0  0  0  0  0  0
   -4.1234    6.1777    0.6800 C   0  0  0  0  0  0  0  0  0  0  0  0
   -3.2354    6.8848    1.6468 C   0  0  0  0  0  0  0  0  0  0  0  0
   -3.2967    8.1935    1.9505 C   0  0  0  0  0  0  0  0  0  0  0  0
   -3.6066    8.5690    3.3111 C   0  0  0  0  0  0  0  0  0  0  0  0
   -3.9239    8.8649    4.3927 N   0  0  0  0  0  0  0  0  0  0  0  0
   -3.5844    9.1807    0.9472 C   0  0  0  0  0  0  0  0  0  0  0  0
   -3.7949    9.9761    0.1289 N   0  0  0  0  0  0  0  0  0  0  0  0
   -0.8514   -1.5015   -5.8239 H   0  0  0  0  0  0  0  0  0  0  0  0
    2.4397   -1.1781   -5.0809 H   0  0  0  0  0  0  0  0  0  0  0  0
    3.3655    0.6911   -3.5364 H   0  0  0  0  0  0  0  0  0  0  0  0
    3.6722    1.1053   -1.8200 H   0  0  0  0  0  0  0  0  0  0  0  0
    1.1937    0.9275   -1.3348 H   0  0  0  0  0  0  0  0  0  0  0  0
    0.9013    0.5529   -3.0858 H   0  0  0  0  0  0  0  0  0  0  0  0
    1.5900    2.1457   -2.5980 H   0  0  0  0  0  0  0  0  0  0  0  0
    5.2782   -0.7782   -1.6731 H   0  0  0  0  0  0  0  0  0  0  0  0
    4.9567   -1.2911   -3.3638 H   0  0  0  0  0  0  0  0  0  0  0  0
    4.7387   -3.0382   -0.8302 H   0  0  0  0  0  0  0  0  0  0  0  0
    4.2836   -3.5869   -2.4936 H   0  0  0  0  0  0  0  0  0  0  0  0
    5.9802   -3.1262   -2.1227 H   0  0  0  0  0  0  0  0  0  0  0  0
    3.7307    0.0542    0.4689 H   0  0  0  0  0  0  0  0  0  0  0  0
    1.3776   -2.9161    3.8777 H   0  0  0  0  0  0  0  0  0  0  0  0
   -0.2431   -2.7040    4.5634 H   0  0  0  0  0  0  0  0  0  0  0  0
   -1.1966   -4.1896    2.7301 H   0  0  0  0  0  0  0  0  0  0  0  0
    0.4760   -4.3879    2.0690 H   0  0  0  0  0  0  0  0  0  0  0  0
    0.0856   -4.9937    3.7107 H   0  0  0  0  0  0  0  0  0  0  0  0
   -1.7016   -1.9604    1.4515 H   0  0  0  0  0  0  0  0  0  0  0  0
   -1.4948   -0.2651    1.9494 H   0  0  0  0  0  0  0  0  0  0  0  0
   -2.6972   -2.6460    3.4671 H   0  0  0  0  0  0  0  0  0  0  0  0
   -2.1031   -1.2495    4.4083 H   0  0  0  0  0  0  0  0  0  0  0  0
   -3.3719   -1.0109    3.1688 H   0  0  0  0  0  0  0  0  0  0  0  0
   -0.2143   -3.0166    0.1331 H   0  0  0  0  0  0  0  0  0  0  0  0
   -0.7947    0.4283    4.6260 H   0  0  0  0  0  0  0  0  0  0  0  0
    3.6117    1.2703    2.4664 H   0  0  0  0  0  0  0  0  0  0  0  0
    3.1173    2.8896    6.2291 H   0  0  0  0  0  0  0  0  0  0  0  0
    4.5142    3.0309    5.1426 H   0  0  0  0  0  0  0  0  0  0  0  0
    4.4942    4.8907    6.7444 H   0  0  0  0  0  0  0  0  0  0  0  0
    2.8051    5.3330    6.3116 H   0  0  0  0  0  0  0  0  0  0  0  0
    4.1476    5.5824    5.1174 H   0  0  0  0  0  0  0  0  0  0  0  0
    2.5784    3.7715    1.9897 H   0  0  0  0  0  0  0  0  0  0  0  0
    3.0029    5.2136    2.9426 H   0  0  0  0  0  0  0  0  0  0  0  0
    5.2556    4.5386    3.3286 H   0  0  0  0  0  0  0  0  0  0  0  0
    4.9831    2.8817    2.6919 H   0  0  0  0  0  0  0  0  0  0  0  0
    4.8863    4.2929    1.5980 H   0  0  0  0  0  0  0  0  0  0  0  0
    1.1199    6.0268    3.7431 H   0  0  0  0  0  0  0  0  0  0  0  0
   -1.3740    7.0935    3.6332 H   0  0  0  0  0  0  0  0  0  0  0  0
   -6.9893    3.7936   -0.3623 H   0  0  0  0  0  0  0  0  0  0  0  0
   -7.1413    6.1973   -0.8908 H   0  0  0  0  0  0  0  0  0  0  0  0
   -5.3854    7.7423   -0.1424 H   0  0  0  0  0  0  0  0  0  0  0  0
  1  2  2  3
  2  3  1  0
  3  4  2  0
  3  5  1  0
  5  6  2  0
  6  7  1  0
  6  8  1  0
  8  9  1  0
  8 10  2  0
 10 11  1  0
 10 12  1  0
 12 13  1  0
 12 14  2  0
 14 15  1  0
 15 16  2  3
 16 17  1  0
 17 18  3  0
 16 19  1  0
 19 20  3  0
  1 21  1  0
 21 22  1  0
 22 23  1  0
 23 24  1  0
 24 25  2  0
 25 26  1  0
 26 27  1  0
 27 28  1  0
 26 29  1  0
 29 30  1  0
 26 31  1  0
 31 32  1  0
 25 33  1  0
 33 34  2  0
 34 35  1  0
 35 36  2  0
 36 37  1  0
 37 38  1  0
 38 39  1  0
 37 40  1  0
 40 41  1  0
 37 42  1  0
 42 43  2  0
 36 44  1  0
 44 45  2  0
 45 46  1  0
 46 47  2  0
 47 48  1  0
 48 49  1  0
 49 50  2  0
 48 51  1  0
 51 52  1  0
 48 53  1  0
 53 54  1  0
 47 55  1  0
 55 56  2  0
 56 57  1  0
 56 58  1  0
 58 59  2  3
 59 60  1  0
 60 61  2  0
 60 62  1  0
 62 63  2  0
 63 64  1  0
 63 65  1  0
 65 66  2  0
 66 67  1  0
 67 68  2  0
 68 69  1  0
 69 70  2  3
 70 71  1  0
 71 72  3  0
 70 73  1  0
 73 74  3  0
 15  2  1  0
 28 21  2  0
 42 34  1  0
 49 45  1  0
 69 59  1  0
 14  5  1  0
 27 23  2  0
 50 35  1  0
 68 62  1  0
 43 24  1  0
 57 46  1  0
  1 75  1  0
 28 76  1  0
 29 77  1  0
 29 78  1  0
 30 79  1  0
 30 80  1  0
 30 81  1  0
 31 82  1  0
 31 83  1  0
 32 84  1  0
 32 85  1  0
 32 86  1  0
 33 87  1  0
 38 88  1  0
 38 89  1  0
 39 90  1  0
 39 91  1  0
 39 92  1  0
 40 93  1  0
 40 94  1  0
 41 95  1  0
 41 96  1  0
 41 97  1  0
 43 98  1  0
 44 99  1  0
 50100  1  0
 51101  1  0
 51102  1  0
 52103  1  0
 52104  1  0
 52105  1  0
 53106  1  0
 53107  1  0
 54108  1  0
 54109  1  0
 54110  1  0
 55111  1  0
 58112  1  0
 65113  1  0
 66114  1  0
 67115  1  0
M  END

