
     RDKit          3D

231255  0  0  0  0  0  0  0  0999 V2000
   -4.6641   -0.9454    8.5575 C   0  0  0  0  0  0  0  0  0  0  0  0
   -3.9670   -1.8477    9.2789 C   0  0  0  0  0  0  0  0  0  0  0  0
   -2.5197   -1.9008    9.3884 C   0  0  0  0  0  0  0  0  0  0  0  0
   -1.6395   -1.3750    8.6790 O   0  0  0  0  0  0  0  0  0  0  0  0
   -2.1523   -2.7434   10.5360 C   0  0  0  0  0  0  0  0  0  0  0  0
   -0.9200   -3.0495   11.0314 C   0  0  0  0  0  0  0  0  0  0  0  0
    0.6012   -2.5229   10.2804 Cl  0  0  0  0  0  0  0  0  0  0  0  0
   -0.7460   -3.8462   12.1517 C   0  0  0  0  0  0  0  0  0  0  0  0
    0.8790   -4.1936   12.7562 Cl  0  0  0  0  0  0  0  0  0  0  0  0
   -1.8678   -4.3371   12.7591 C   0  0  0  0  0  0  0  0  0  0  0  0
   -1.6615   -5.3374   14.2032 Cl  0  0  0  0  0  0  0  0  0  0  0  0
   -3.1404   -4.0263   12.2481 C   0  0  0  0  0  0  0  0  0  0  0  0
   -4.4412   -4.7710   13.0996 Cl  0  0  0  0  0  0  0  0  0  0  0  0
   -3.3337   -3.2186   11.1228 C   0  0  0  0  0  0  0  0  0  0  0  0
   -4.5036   -2.7244   10.4017 C   0  0  0  0  0  0  0  0  0  0  0  0
   -5.7261   -3.1825   10.4203 C   0  0  0  0  0  0  0  0  0  0  0  0
   -6.6313   -2.9143    9.3901 C   0  0  0  0  0  0  0  0  0  0  0  0
   -7.4768   -2.6631    8.4605 N   0  0  0  0  0  0  0  0  0  0  0  0
   -6.3485   -3.9618   11.4508 C   0  0  0  0  0  0  0  0  0  0  0  0
   -6.8832   -4.6134   12.3402 N   0  0  0  0  0  0  0  0  0  0  0  0
   -3.9239    0.0566    7.8509 C   0  0  0  0  0  0  0  0  0  0  0  0
   -4.0830    0.7075    6.0756 Se  0  0  0  0  0  2  0  0  0  0  0  0
   -2.3963    2.1012    6.4543 C   0  0  0  0  0  0  0  0  0  0  0  0
   -1.4877    2.5723    5.4519 C   0  0  0  0  0  0  0  0  0  0  0  0
   -0.3448    2.0519    6.1704 C   0  0  0  0  0  0  0  0  0  0  0  0
   -0.7927    2.1333    7.5326 C   0  0  0  0  0  0  0  0  0  0  0  0
   -2.4776    1.6036    7.4295 C   0  0  0  0  0  0  0  0  0  0  0  0
   -2.8190    0.8517    8.4252 C   0  0  0  0  0  0  0  0  0  0  0  0
   -1.1581    3.5997    7.7683 C   0  0  0  0  0  0  0  0  0  0  0  0
   -0.2255    4.5505    7.6197 C   0  0  0  0  0  0  0  0  0  0  0  0
   -0.5094    5.8910    7.8988 C   0  0  0  0  0  0  0  0  0  0  0  0
   -1.7517    6.2475    8.3182 C   0  0  0  0  0  0  0  0  0  0  0  0
   -2.1085    7.6778    8.7070 C   0  0  0  0  0  0  0  0  0  0  0  0
   -2.6522    8.4470    7.5473 C   0  0  0  0  0  0  0  0  0  0  0  0
   -2.7274    5.2725    8.4847 C   0  0  0  0  0  0  0  0  0  0  0  0
   -2.3981    3.9499    8.1920 C   0  0  0  0  0  0  0  0  0  0  0  0
   -0.1263    1.6791    8.6644 C   0  0  0  0  0  0  0  0  0  0  0  0
    0.9738    0.7881    8.6952 C   0  0  0  0  0  0  0  0  0  0  0  0
    1.6283    0.5211    9.8788 C   0  0  0  0  0  0  0  0  0  0  0  0
    1.3096    1.0543   11.1017 C   0  0  0  0  0  0  0  0  0  0  0  0
    1.9797    0.7979   12.3728 C   0  0  0  0  0  0  0  0  0  0  0  0
    1.2028   -0.2369   13.1885 C   0  0  0  0  0  0  0  0  0  0  0  0
    0.2181    1.9334   11.0753 C   0  0  0  0  0  0  0  0  0  0  0  0
   -0.4428    2.2221    9.9262 C   0  0  0  0  0  0  0  0  0  0  0  0
    0.7909    1.8794    5.3315 C   0  0  0  0  0  0  0  0  0  0  0  0
    0.7544    2.2173    4.0435 C   0  0  0  0  0  0  0  0  0  0  0  0
    1.5957    1.7881    2.8539 C   0  0  0  0  0  0  0  0  0  0  0  0
    1.1360    2.1559    1.6899 C   0  0  0  0  0  0  0  0  0  0  0  0
   -0.0593    3.1157    2.0326 C   0  0  0  0  0  0  0  0  0  0  0  0
   -0.3416    2.7839    3.3923 C   0  0  0  0  0  0  0  0  0  0  0  0
   -1.5063    2.9322    4.1799 C   0  0  0  0  0  0  0  0  0  0  0  0
   -1.3094    2.5901    1.2965 C   0  0  0  0  0  0  0  0  0  0  0  0
   -1.4467    1.3327    0.8276 C   0  0  0  0  0  0  0  0  0  0  0  0
   -2.6925    0.9377    0.3269 C   0  0  0  0  0  0  0  0  0  0  0  0
   -3.7652    1.8124    0.3009 C   0  0  0  0  0  0  0  0  0  0  0  0
   -5.0900    1.3936   -0.1595 C   0  0  0  0  0  0  0  0  0  0  0  0
   -5.3220    1.6386   -1.6342 C   0  0  0  0  0  0  0  0  0  0  0  0
   -3.6071    3.0853    0.7691 C   0  0  0  0  0  0  0  0  0  0  0  0
   -2.3708    3.4515    1.2557 C   0  0  0  0  0  0  0  0  0  0  0  0
    0.2263    4.3947    1.4861 C   0  0  0  0  0  0  0  0  0  0  0  0
   -0.0983    4.5536    0.1071 C   0  0  0  0  0  0  0  0  0  0  0  0
    0.2547    5.7072   -0.5436 C   0  0  0  0  0  0  0  0  0  0  0  0
    0.9066    6.7234    0.0646 C   0  0  0  0  0  0  0  0  0  0  0  0
    1.2501    7.9535   -0.7497 C   0  0  0  0  0  0  0  0  0  0  0  0
    2.4982    7.6340   -1.6003 C   0  0  0  0  0  0  0  0  0  0  0  0
    1.2396    6.6219    1.3969 C   0  0  0  0  0  0  0  0  0  0  0  0
    0.8827    5.4359    2.0666 C   0  0  0  0  0  0  0  0  0  0  0  0
    1.4909    1.5640    0.5447 C   0  0  0  0  0  0  0  0  0  0  0  0
    1.3389    1.8684   -1.2014 S   0  0  0  0  0  0  0  0  0  0  0  0
    2.3435    0.5697   -1.7438 C   0  0  0  0  0  0  0  0  0  0  0  0
    2.7340   -0.1869   -2.9464 C   0  0  0  0  0  0  0  0  0  0  0  0
    2.5838    0.2186   -4.2345 C   0  0  0  0  0  0  0  0  0  0  0  0
    3.0329   -0.6596   -5.1786 C   0  0  0  0  0  0  0  0  0  0  0  0
    3.3711   -0.5874   -6.6468 C   0  0  0  0  0  0  0  0  0  0  0  0
    4.8803   -0.9909   -6.5366 C   0  0  0  0  0  0  0  0  0  0  0  0
    5.4860   -1.7628   -7.4447 C   0  0  0  0  0  0  0  0  0  0  0  0
    6.8156   -2.1921   -7.2481 C   0  0  0  0  0  0  0  0  0  0  0  0
    7.4894   -1.8218   -6.1336 C   0  0  0  0  0  0  0  0  0  0  0  0
    8.9286   -2.2565   -5.8598 C   0  0  0  0  0  0  0  0  0  0  0  0
    8.8667   -3.5543   -5.1181 C   0  0  0  0  0  0  0  0  0  0  0  0
    6.8487   -1.0313   -5.2179 C   0  0  0  0  0  0  0  0  0  0  0  0
    5.5348   -0.6059   -5.4062 C   0  0  0  0  0  0  0  0  0  0  0  0
    3.2239    0.6584   -7.2853 C   0  0  0  0  0  0  0  0  0  0  0  0
    4.2854    1.5697   -7.0525 C   0  0  0  0  0  0  0  0  0  0  0  0
    4.2534    2.8203   -7.6287 C   0  0  0  0  0  0  0  0  0  0  0  0
    3.1991    3.2244   -8.4308 C   0  0  0  0  0  0  0  0  0  0  0  0
    3.2701    4.5781   -9.0031 C   0  0  0  0  0  0  0  0  0  0  0  0
    2.6134    5.5658   -8.0917 C   0  0  0  0  0  0  0  0  0  0  0  0
    2.1823    2.3223   -8.6346 C   0  0  0  0  0  0  0  0  0  0  0  0
    2.1854    1.0510   -8.0664 C   0  0  0  0  0  0  0  0  0  0  0  0
    2.7466   -1.8556   -7.0591 C   0  0  0  0  0  0  0  0  0  0  0  0
    3.3379   -2.6675   -6.0974 C   0  0  0  0  0  0  0  0  0  0  0  0
    3.5840   -1.9132   -4.8267 C   0  0  0  0  0  0  0  0  0  0  0  0
    3.7299   -2.2663   -3.4915 C   0  0  0  0  0  0  0  0  0  0  0  0
    3.3000   -1.3838   -2.5113 C   0  0  0  0  0  0  0  0  0  0  0  0
    3.0970   -1.4409   -1.0954 C   0  0  0  0  0  0  0  0  0  0  0  0
    1.6885   -2.2076   -1.2166 C   0  0  0  0  0  0  0  0  0  0  0  0
    0.6365   -1.5554   -1.6869 C   0  0  0  0  0  0  0  0  0  0  0  0
   -0.6086   -2.2355   -1.9003 C   0  0  0  0  0  0  0  0  0  0  0  0
   -0.6338   -3.5648   -1.6059 C   0  0  0  0  0  0  0  0  0  0  0  0
   -1.8425   -4.3756   -1.8503 C   0  0  0  0  0  0  0  0  0  0  0  0
   -2.7836   -4.3965   -0.6887 C   0  0  0  0  0  0  0  0  0  0  0  0
    0.4703   -4.2175   -1.1164 C   0  0  0  0  0  0  0  0  0  0  0  0
    1.6902   -3.5435   -0.8994 C   0  0  0  0  0  0  0  0  0  0  0  0
    3.7788   -2.2108   -0.1038 C   0  0  0  0  0  0  0  0  0  0  0  0
    2.9828   -2.4721    1.0502 C   0  0  0  0  0  0  0  0  0  0  0  0
    3.3928   -3.3042    2.0402 C   0  0  0  0  0  0  0  0  0  0  0  0
    4.6270   -3.9394    1.9522 C   0  0  0  0  0  0  0  0  0  0  0  0
    4.9737   -4.9053    3.0333 C   0  0  0  0  0  0  0  0  0  0  0  0
    4.4109   -6.2768    2.6593 C   0  0  0  0  0  0  0  0  0  0  0  0
    5.3892   -3.6878    0.8560 C   0  0  0  0  0  0  0  0  0  0  0  0
    4.9891   -2.8425   -0.1610 C   0  0  0  0  0  0  0  0  0  0  0  0
    2.7110   -0.0074   -0.6258 C   0  0  0  0  0  0  0  0  0  0  0  0
    2.3246    0.4999    0.5854 C   0  0  0  0  0  0  0  0  0  0  0  0
    2.6372    0.4566    2.3431 S   0  0  0  0  0  0  0  0  0  0  0  0
    2.7475   -4.4336   -6.6891 Se  0  0  0  0  0  2  0  0  0  0  0  0
    1.7723   -3.7214   -8.1283 C   0  0  0  0  0  0  0  0  0  0  0  0
    2.0150   -2.4143   -7.9992 C   0  0  0  0  0  0  0  0  0  0  0  0
    0.7404   -4.2965   -9.0363 C   0  0  0  0  0  0  0  0  0  0  0  0
   -0.5028   -4.1282   -8.4881 C   0  0  0  0  0  0  0  0  0  0  0  0
   -0.7777   -3.5066   -7.1978 C   0  0  0  0  0  0  0  0  0  0  0  0
    0.0495   -3.1696   -6.2909 O   0  0  0  0  0  0  0  0  0  0  0  0
   -2.2095   -3.2931   -7.0349 C   0  0  0  0  0  0  0  0  0  0  0  0
   -2.9246   -2.6999   -6.0406 C   0  0  0  0  0  0  0  0  0  0  0  0
   -4.2767   -2.5014   -6.0555 C   0  0  0  0  0  0  0  0  0  0  0  0
   -4.9152   -2.9467   -7.1817 C   0  0  0  0  0  0  0  0  0  0  0  0
   -4.2187   -3.5744   -8.2291 C   0  0  0  0  0  0  0  0  0  0  0  0
   -2.8484   -3.7632   -8.1748 C   0  0  0  0  0  0  0  0  0  0  0  0
   -1.8127   -4.2904   -9.1094 C   0  0  0  0  0  0  0  0  0  0  0  0
   -2.0503   -4.6950  -10.3280 C   0  0  0  0  0  0  0  0  0  0  0  0
   -3.5184   -4.8201  -10.7984 C   0  0  0  0  0  0  0  0  0  0  0  0
   -4.6333   -4.9258  -11.1434 N   0  0  0  0  0  0  0  0  0  0  0  0
   -1.1595   -4.9558  -11.3485 C   0  0  0  0  0  0  0  0  0  0  0  0
   -0.3599   -5.1917  -12.2940 N   0  0  0  0  0  0  0  0  0  0  0  0
   -6.2583   -2.4644   -6.7626 C   0  0  0  0  0  0  0  0  0  0  0  0
   -6.5226   -1.1523   -7.4995 C   0  0  0  0  0  0  0  0  0  0  0  0
   -7.6185   -0.4646   -6.7985 C   0  0  0  0  0  0  0  0  0  0  0  0
   -7.1497   -0.2079   -5.5391 C   0  0  0  0  0  0  0  0  0  0  0  0
   -5.6949   -0.5319   -5.5080 C   0  0  0  0  0  0  0  0  0  0  0  0
   -5.3398   -0.3279   -6.9661 C   0  0  0  0  0  0  0  0  0  0  0  0
   -5.5819   -2.0364   -5.4791 C   0  0  0  0  0  0  0  0  0  0  0  0
   -5.7146   -0.9904    8.5767 H   0  0  0  0  0  0  0  0  0  0  0  0
   -2.6348    0.6518    9.4720 H   0  0  0  0  0  0  0  0  0  0  0  0
    0.7822    4.2710    7.2493 H   0  0  0  0  0  0  0  0  0  0  0  0
    0.2529    6.6355    7.7563 H   0  0  0  0  0  0  0  0  0  0  0  0
   -1.2230    8.1652    9.1980 H   0  0  0  0  0  0  0  0  0  0  0  0
   -2.8989    7.5824    9.4566 H   0  0  0  0  0  0  0  0  0  0  0  0
   -2.4189    7.9979    6.5422 H   0  0  0  0  0  0  0  0  0  0  0  0
   -3.7441    8.6240    7.5639 H   0  0  0  0  0  0  0  0  0  0  0  0
   -2.2207    9.4831    7.6130 H   0  0  0  0  0  0  0  0  0  0  0  0
   -3.6836    5.5626    8.8255 H   0  0  0  0  0  0  0  0  0  0  0  0
   -3.1634    3.2344    8.3477 H   0  0  0  0  0  0  0  0  0  0  0  0
    1.2609    0.3039    7.7949 H   0  0  0  0  0  0  0  0  0  0  0  0
    2.4840   -0.1720    9.9321 H   0  0  0  0  0  0  0  0  0  0  0  0
    2.9846    0.4026   12.1451 H   0  0  0  0  0  0  0  0  0  0  0  0
    2.0670    1.7584   12.9684 H   0  0  0  0  0  0  0  0  0  0  0  0
    1.5133   -1.2595   12.9866 H   0  0  0  0  0  0  0  0  0  0  0  0
    0.1287   -0.1008   12.9918 H   0  0  0  0  0  0  0  0  0  0  0  0
    1.3843    0.0129   14.2944 H   0  0  0  0  0  0  0  0  0  0  0  0
   -0.0868    2.3862   11.9874 H   0  0  0  0  0  0  0  0  0  0  0  0
   -1.3082    2.9127    9.9751 H   0  0  0  0  0  0  0  0  0  0  0  0
    1.6773    1.4639    5.7600 H   0  0  0  0  0  0  0  0  0  0  0  0
   -2.4452    3.2872    3.7666 H   0  0  0  0  0  0  0  0  0  0  0  0
   -0.6106    0.6598    0.8618 H   0  0  0  0  0  0  0  0  0  0  0  0
   -2.8652   -0.0638   -0.0630 H   0  0  0  0  0  0  0  0  0  0  0  0
   -5.2753    0.2838    0.0397 H   0  0  0  0  0  0  0  0  0  0  0  0
   -5.9234    1.9257    0.3676 H   0  0  0  0  0  0  0  0  0  0  0  0
   -5.8710    0.8076   -2.1577 H   0  0  0  0  0  0  0  0  0  0  0  0
   -4.3332    1.7204   -2.1324 H   0  0  0  0  0  0  0  0  0  0  0  0
   -5.8517    2.5758   -1.8814 H   0  0  0  0  0  0  0  0  0  0  0  0
   -4.4240    3.8342    0.7787 H   0  0  0  0  0  0  0  0  0  0  0  0
   -2.2826    4.5037    1.6183 H   0  0  0  0  0  0  0  0  0  0  0  0
   -0.6498    3.7715   -0.4137 H   0  0  0  0  0  0  0  0  0  0  0  0
    0.0204    5.8295   -1.6170 H   0  0  0  0  0  0  0  0  0  0  0  0
    0.4351    8.2709   -1.4057 H   0  0  0  0  0  0  0  0  0  0  0  0
    1.5940    8.7317   -0.0229 H   0  0  0  0  0  0  0  0  0  0  0  0
    2.3049    7.9288   -2.6828 H   0  0  0  0  0  0  0  0  0  0  0  0
    3.3527    8.1952   -1.2166 H   0  0  0  0  0  0  0  0  0  0  0  0
    2.7467    6.5594   -1.5392 H   0  0  0  0  0  0  0  0  0  0  0  0
    1.7617    7.4277    1.8594 H   0  0  0  0  0  0  0  0  0  0  0  0
    1.1295    5.3543    3.1397 H   0  0  0  0  0  0  0  0  0  0  0  0
    2.1447    1.1474   -4.5107 H   0  0  0  0  0  0  0  0  0  0  0  0
    4.9245   -2.0584   -8.3109 H   0  0  0  0  0  0  0  0  0  0  0  0
    7.2685   -2.7895   -7.9935 H   0  0  0  0  0  0  0  0  0  0  0  0
    9.3756   -1.5092   -5.1518 H   0  0  0  0  0  0  0  0  0  0  0  0
    9.4385   -2.2544   -6.8236 H   0  0  0  0  0  0  0  0  0  0  0  0
    8.6874   -3.3152   -4.0073 H   0  0  0  0  0  0  0  0  0  0  0  0
    8.0500   -4.1856   -5.4823 H   0  0  0  0  0  0  0  0  0  0  0  0
    9.8383   -4.0433   -5.1555 H   0  0  0  0  0  0  0  0  0  0  0  0
    7.3387   -0.6764   -4.3475 H   0  0  0  0  0  0  0  0  0  0  0  0
    5.1253   -0.0084   -4.6054 H   0  0  0  0  0  0  0  0  0  0  0  0
    5.1417    1.3484   -6.4673 H   0  0  0  0  0  0  0  0  0  0  0  0
    5.1002    3.5201   -7.4399 H   0  0  0  0  0  0  0  0  0  0  0  0
    4.3751    4.8851   -9.0541 H   0  0  0  0  0  0  0  0  0  0  0  0
    2.9463    4.6190  -10.0478 H   0  0  0  0  0  0  0  0  0  0  0  0
    1.6271    5.8268   -8.4705 H   0  0  0  0  0  0  0  0  0  0  0  0
    2.4690    5.1994   -7.0542 H   0  0  0  0  0  0  0  0  0  0  0  0
    3.2118    6.5074   -8.0016 H   0  0  0  0  0  0  0  0  0  0  0  0
    1.3618    2.5860   -9.2530 H   0  0  0  0  0  0  0  0  0  0  0  0
    1.3487    0.3948   -8.2590 H   0  0  0  0  0  0  0  0  0  0  0  0
    4.1268   -3.2264   -3.2797 H   0  0  0  0  0  0  0  0  0  0  0  0
    0.5815   -0.5251   -1.9603 H   0  0  0  0  0  0  0  0  0  0  0  0
   -1.4267   -1.6732   -2.2705 H   0  0  0  0  0  0  0  0  0  0  0  0
   -2.4331   -3.9696   -2.7057 H   0  0  0  0  0  0  0  0  0  0  0  0
   -1.5791   -5.4316   -2.0329 H   0  0  0  0  0  0  0  0  0  0  0  0
   -2.4536   -5.0879    0.1110 H   0  0  0  0  0  0  0  0  0  0  0  0
   -3.8206   -4.7393   -1.0413 H   0  0  0  0  0  0  0  0  0  0  0  0
   -2.9711   -3.3656   -0.2687 H   0  0  0  0  0  0  0  0  0  0  0  0
    0.4328   -5.2619   -0.8692 H   0  0  0  0  0  0  0  0  0  0  0  0
    2.5448   -4.0650   -0.5654 H   0  0  0  0  0  0  0  0  0  0  0  0
    2.0114   -2.0406    1.1386 H   0  0  0  0  0  0  0  0  0  0  0  0
    2.7583   -3.5125    2.9167 H   0  0  0  0  0  0  0  0  0  0  0  0
    4.4584   -4.6008    3.9529 H   0  0  0  0  0  0  0  0  0  0  0  0
    6.0525   -4.9503    3.2135 H   0  0  0  0  0  0  0  0  0  0  0  0
    3.5383   -6.5076    3.2955 H   0  0  0  0  0  0  0  0  0  0  0  0
    5.1902   -7.0237    2.8436 H   0  0  0  0  0  0  0  0  0  0  0  0
    4.0449   -6.3015    1.6081 H   0  0  0  0  0  0  0  0  0  0  0  0
    6.3655   -4.1764    0.7438 H   0  0  0  0  0  0  0  0  0  0  0  0
    5.6344   -2.6831   -1.0154 H   0  0  0  0  0  0  0  0  0  0  0  0
    1.5047   -1.7669   -8.8197 H   0  0  0  0  0  0  0  0  0  0  0  0
    0.9477   -4.7502   -9.9256 H   0  0  0  0  0  0  0  0  0  0  0  0
   -2.3730   -2.3213   -5.1384 H   0  0  0  0  0  0  0  0  0  0  0  0
   -4.7898   -3.8667   -9.0669 H   0  0  0  0  0  0  0  0  0  0  0  0
   -7.0519   -3.1971   -6.7129 H   0  0  0  0  0  0  0  0  0  0  0  0
   -6.6304   -1.2176   -8.5699 H   0  0  0  0  0  0  0  0  0  0  0  0
   -8.5697   -0.2160   -7.1823 H   0  0  0  0  0  0  0  0  0  0  0  0
   -7.8067    0.1659   -4.7972 H   0  0  0  0  0  0  0  0  0  0  0  0
   -5.1369    0.0217   -4.7749 H   0  0  0  0  0  0  0  0  0  0  0  0
   -5.4279    0.7098   -7.2766 H   0  0  0  0  0  0  0  0  0  0  0  0
   -4.3664   -0.8059   -7.2046 H   0  0  0  0  0  0  0  0  0  0  0  0
   -5.8758   -2.5348   -4.5509 H   0  0  0  0  0  0  0  0  0  0  0  0
  1  2  2  3
  2  3  1  0
  3  4  2  0
  3  5  1  0
  5  6  2  0
  6  7  1  0
  6  8  1  0
  8  9  1  0
  8 10  2  0
 10 11  1  0
 10 12  1  0
 12 13  1  0
 12 14  2  0
 14 15  1  0
 15 16  2  3
 16 17  1  0
 17 18  3  0
 16 19  1  0
 19 20  3  0
  1 21  1  0
 21 22  1  0
 22 23  1  0
 23 24  1  0
 24 25  2  0
 25 26  1  0
 26 27  1  0
 27 28  1  0
 26 29  1  0
 29 30  2  0
 30 31  1  0
 31 32  2  0
 32 33  1  0
 33 34  1  0
 32 35  1  0
 35 36  2  0
 26 37  1  0
 37 38  2  0
 38 39  1  0
 39 40  2  0
 40 41  1  0
 41 42  1  0
 40 43  1  0
 43 44  2  0
 25 45  1  0
 45 46  2  0
 46 47  1  0
 47 48  2  0
 48 49  1  0
 49 50  1  0
 50 51  2  0
 49 52  1  0
 52 53  2  0
 53 54  1  0
 54 55  2  0
 55 56  1  0
 56 57  1  0
 55 58  1  0
 58 59  2  0
 49 60  1  0
 60 61  2  0
 61 62  1  0
 62 63  2  0
 63 64  1  0
 64 65  1  0
 63 66  1  0
 66 67  2  0
 48 68  1  0
 68 69  1  0
 69 70  1  0
 70 71  1  0
 71 72  2  0
 72 73  1  0
 73 74  1  0
 74 75  1  0
 75 76  2  0
 76 77  1  0
 77 78  2  0
 78 79  1  0
 79 80  1  0
 78 81  1  0
 81 82  2  0
 74 83  1  0
 83 84  2  0
 84 85  1  0
 85 86  2  0
 86 87  1  0
 87 88  1  0
 86 89  1  0
 89 90  2  0
 74 91  1  0
 91 92  2  0
 92 93  1  0
 93 94  1  0
 94 95  2  0
 95 96  1  0
 96 97  1  0
 97 98  2  0
 98 99  1  0
 99100  2  0
100101  1  0
101102  1  0
100103  1  0
103104  2  0
 96105  1  0
105106  2  0
106107  1  0
107108  2  0
108109  1  0
109110  1  0
108111  1  0
111112  2  0
 96113  1  0
113114  1  0
114115  1  0
 92116  1  0
116117  1  0
117118  2  0
117119  1  0
119120  2  3
120121  1  0
121122  2  0
121123  1  0
123124  2  0
124125  1  0
125126  2  0
126127  1  0
127128  2  0
128129  1  0
129130  2  3
130131  1  0
131132  3  0
130133  1  0
133134  3  0
126135  1  0
135136  1  0
136137  1  0
137138  2  0
138139  1  0
139140  1  0
139141  1  0
 15  2  1  0
 28 21  2  0
 36 29  1  0
 44 37  1  0
 50 46  1  0
 59 52  1  0
 67 60  1  0
114 68  2  0
129120  1  0
141135  1  0
 14  5  1  0
 27 23  2  0
115 47  1  0
128123  1  0
140136  1  0
 51 24  1  0
113 70  2  0
141125  1  0
 95 71  1  0
104 97  1  0
112105  1  0
 93 73  2  0
 82 75  1  0
 90 83  1  0
118 91  1  0
  1142  1  0
 28143  1  0
 30144  1  0
 31145  1  0
 33146  1  0
 33147  1  0
 34148  1  0
 34149  1  0
 34150  1  0
 35151  1  0
 36152  1  0
 38153  1  0
 39154  1  0
 41155  1  0
 41156  1  0
 42157  1  0
 42158  1  0
 42159  1  0
 43160  1  0
 44161  1  0
 45162  1  0
 51163  1  0
 53164  1  0
 54165  1  0
 56166  1  0
 56167  1  0
 57168  1  0
 57169  1  0
 57170  1  0
 58171  1  0
 59172  1  0
 61173  1  0
 62174  1  0
 64175  1  0
 64176  1  0
 65177  1  0
 65178  1  0
 65179  1  0
 66180  1  0
 67181  1  0
 72182  1  0
 76183  1  0
 77184  1  0
 79185  1  0
 79186  1  0
 80187  1  0
 80188  1  0
 80189  1  0
 81190  1  0
 82191  1  0
 84192  1  0
 85193  1  0
 87194  1  0
 87195  1  0
 88196  1  0
 88197  1  0
 88198  1  0
 89199  1  0
 90200  1  0
 94201  1  0
 98202  1  0
 99203  1  0
101204  1  0
101205  1  0
102206  1  0
102207  1  0
102208  1  0
103209  1  0
104210  1  0
106211  1  0
107212  1  0
109213  1  0
109214  1  0
110215  1  0
110216  1  0
110217  1  0
111218  1  0
112219  1  0
118220  1  0
119221  1  0
124222  1  0
127223  1  0
135224  1  0
136225  1  0
137226  1  0
138227  1  0
139228  1  0
140229  1  0
140230  1  0
141231  1  0
M  END

