
     RDKit          3D

199219  0  0  0  0  0  0  0  0999 V2000
    3.0418    0.0523   10.2167 C   0  0  0  0  0  0  0  0  0  0  0  0
    2.7780    1.2224   10.8267 C   0  0  0  0  0  0  0  0  0  0  0  0
    2.0918    2.3841   10.2480 C   0  0  0  0  0  0  0  0  0  0  0  0
    1.2553    2.3626    9.3100 O   0  0  0  0  0  0  0  0  0  0  0  0
    2.5861    3.5822   10.9125 C   0  0  0  0  0  0  0  0  0  0  0  0
    2.3727    4.9233   10.5735 C   0  0  0  0  0  0  0  0  0  0  0  0
    1.1555    5.3666    9.3773 Cl  0  0  0  0  0  0  0  0  0  0  0  0
    3.1612    5.9088   11.2031 C   0  0  0  0  0  0  0  0  0  0  0  0
    2.9003    7.6126   10.8242 Cl  0  0  0  0  0  0  0  0  0  0  0  0
    4.1972    5.5267   12.0893 C   0  0  0  0  0  0  0  0  0  0  0  0
    5.2795    6.7531   12.7484 Cl  0  0  0  0  0  0  0  0  0  0  0  0
    4.3979    4.1635   12.4001 C   0  0  0  0  0  0  0  0  0  0  0  0
    5.8687    3.6644   13.2370 Cl  0  0  0  0  0  0  0  0  0  0  0  0
    3.5035    3.2120   11.8783 C   0  0  0  0  0  0  0  0  0  0  0  0
    3.4926    1.7299   12.0215 C   0  0  0  0  0  0  0  0  0  0  0  0
    3.6206    1.0462   13.1852 C   0  0  0  0  0  0  0  0  0  0  0  0
    3.2526   -0.3475   13.2854 C   0  0  0  0  0  0  0  0  0  0  0  0
    2.9262   -1.4518   13.3771 N   0  0  0  0  0  0  0  0  0  0  0  0
    3.8343    1.7230   14.4427 C   0  0  0  0  0  0  0  0  0  0  0  0
    4.0035    2.2687   15.4474 N   0  0  0  0  0  0  0  0  0  0  0  0
    2.5385   -0.2953    8.8780 C   0  0  0  0  0  0  0  0  0  0  0  0
    1.2054   -0.3834    8.4852 C   0  0  0  0  0  0  0  0  0  0  0  0
    1.0495   -0.6967    7.1210 C   0  0  0  0  0  0  0  0  0  0  0  0
   -0.1647   -0.8029    6.4155 C   0  0  0  0  0  0  0  0  0  0  0  0
   -1.4555   -0.4644    7.0477 C   0  0  0  0  0  0  0  0  0  0  0  0
   -2.5958   -1.2633    7.0674 C   0  0  0  0  0  0  0  0  0  0  0  0
   -3.6445   -0.7170    7.8190 C   0  0  0  0  0  0  0  0  0  0  0  0
   -3.3337    0.5121    8.3872 C   0  0  0  0  0  0  0  0  0  0  0  0
   -4.1984    1.3036    9.3220 C   0  0  0  0  0  0  0  0  0  0  0  0
   -4.4941    2.6867    8.7568 C   0  0  0  0  0  0  0  0  0  0  0  0
   -1.7579    0.9172    7.9644 S   0  0  0  0  0  0  0  0  0  0  0  0
   -0.0838   -1.1661    5.0562 C   0  0  0  0  0  0  0  0  0  0  0  0
   -1.3781   -1.2866    3.9525 S   0  0  0  0  0  0  0  0  0  0  0  0
   -0.3802   -1.6538    2.6571 C   0  0  0  0  0  0  0  0  0  0  0  0
   -0.5317   -1.6104    1.2276 C   0  0  0  0  0  0  0  0  0  0  0  0
   -1.6788   -1.5544    0.4108 C   0  0  0  0  0  0  0  0  0  0  0  0
   -1.4688   -1.3087   -0.9639 C   0  0  0  0  0  0  0  0  0  0  0  0
   -2.4648   -1.3558   -2.1213 C   0  0  0  0  0  0  0  0  0  0  0  0
   -2.7664   -2.8551   -2.3180 C   0  0  0  0  0  0  0  0  0  0  0  0
   -1.9554   -3.6579   -3.1566 C   0  0  0  0  0  0  0  0  0  0  0  0
   -2.1636   -5.0351   -3.2569 C   0  0  0  0  0  0  0  0  0  0  0  0
   -3.1423   -5.6609   -2.4771 C   0  0  0  0  0  0  0  0  0  0  0  0
   -3.4156   -7.1342   -2.6332 C   0  0  0  0  0  0  0  0  0  0  0  0
   -4.4651   -7.3633   -3.7155 C   0  0  0  0  0  0  0  0  0  0  0  0
   -3.8964   -4.8972   -1.5790 C   0  0  0  0  0  0  0  0  0  0  0  0
   -3.6854   -3.5168   -1.4755 C   0  0  0  0  0  0  0  0  0  0  0  0
   -3.6664   -0.4415   -1.8455 C   0  0  0  0  0  0  0  0  0  0  0  0
   -4.9862   -0.8054   -2.1804 C   0  0  0  0  0  0  0  0  0  0  0  0
   -6.0489    0.0767   -1.9848 C   0  0  0  0  0  0  0  0  0  0  0  0
   -5.8208    1.3510   -1.4521 C   0  0  0  0  0  0  0  0  0  0  0  0
   -6.9590    2.3199   -1.2963 C   0  0  0  0  0  0  0  0  0  0  0  0
   -7.1493    3.1344   -2.5699 C   0  0  0  0  0  0  0  0  0  0  0  0
   -4.5102    1.7422   -1.1418 C   0  0  0  0  0  0  0  0  0  0  0  0
   -3.4477    0.8623   -1.3426 C   0  0  0  0  0  0  0  0  0  0  0  0
   -1.5905   -0.7573   -3.2449 C   0  0  0  0  0  0  0  0  0  0  0  0
   -0.3057   -0.5930   -2.7884 C   0  0  0  0  0  0  0  0  0  0  0  0
   -0.1984   -1.0030   -1.4225 C   0  0  0  0  0  0  0  0  0  0  0  0
    0.9418   -1.1132   -0.6277 C   0  0  0  0  0  0  0  0  0  0  0  0
    0.7546   -1.5044    0.7053 C   0  0  0  0  0  0  0  0  0  0  0  0
    1.8268   -1.7509    1.7575 C   0  0  0  0  0  0  0  0  0  0  0  0
    2.3119   -3.2029    1.5591 C   0  0  0  0  0  0  0  0  0  0  0  0
    2.0464   -4.2172    2.5081 C   0  0  0  0  0  0  0  0  0  0  0  0
    2.2742   -5.5619    2.2174 C   0  0  0  0  0  0  0  0  0  0  0  0
    2.7678   -5.9416    0.9652 C   0  0  0  0  0  0  0  0  0  0  0  0
    2.8598   -7.3993    0.5932 C   0  0  0  0  0  0  0  0  0  0  0  0
    1.5726   -7.8566   -0.0876 C   0  0  0  0  0  0  0  0  0  0  0  0
    3.0521   -4.9556    0.0142 C   0  0  0  0  0  0  0  0  0  0  0  0
    2.8307   -3.6102    0.3060 C   0  0  0  0  0  0  0  0  0  0  0  0
    2.8817   -0.6436    1.6374 C   0  0  0  0  0  0  0  0  0  0  0  0
    2.4827    0.7024    1.7870 C   0  0  0  0  0  0  0  0  0  0  0  0
    3.3798    1.7489    1.5501 C   0  0  0  0  0  0  0  0  0  0  0  0
    4.6993    1.4788    1.1613 C   0  0  0  0  0  0  0  0  0  0  0  0
    5.6606    2.6036    0.8924 C   0  0  0  0  0  0  0  0  0  0  0  0
    5.4840    3.1405   -0.5245 C   0  0  0  0  0  0  0  0  0  0  0  0
    5.1010    0.1475    0.9856 C   0  0  0  0  0  0  0  0  0  0  0  0
    4.2135   -0.9005    1.2363 C   0  0  0  0  0  0  0  0  0  0  0  0
    0.9493   -1.6152    3.0090 C   0  0  0  0  0  0  0  0  0  0  0  0
    1.1508   -1.3703    4.3918 C   0  0  0  0  0  0  0  0  0  0  0  0
    2.3684   -1.2384    5.1133 C   0  0  0  0  0  0  0  0  0  0  0  0
    2.2677   -0.9035    6.4735 C   0  0  0  0  0  0  0  0  0  0  0  0
    3.5245   -0.6815    7.5773 S   0  0  0  0  0  0  0  0  0  0  0  0
    3.7038   -1.4261    4.5340 C   0  0  0  0  0  0  0  0  0  0  0  0
    4.3146   -2.6505    4.3058 C   0  0  0  0  0  0  0  0  0  0  0  0
    5.6696   -2.5376    3.9643 C   0  0  0  0  0  0  0  0  0  0  0  0
    6.1417   -1.2290    3.9889 C   0  0  0  0  0  0  0  0  0  0  0  0
    7.5218   -0.8136    3.5612 C   0  0  0  0  0  0  0  0  0  0  0  0
    7.8636    0.6193    3.9666 C   0  0  0  0  0  0  0  0  0  0  0  0
    4.8675   -0.2127    4.4125 S   0  0  0  0  0  0  0  0  0  0  0  0
    0.4683    0.6724   -3.5493 S   0  0  0  0  0  0  0  0  0  0  0  0
   -0.7900    0.9423   -4.6358 C   0  0  0  0  0  0  0  0  0  0  0  0
   -0.8243    1.9093   -5.6475 C   0  0  0  0  0  0  0  0  0  0  0  0
    0.2213    2.9509   -5.7859 C   0  0  0  0  0  0  0  0  0  0  0  0
    1.5965    2.7586   -5.8000 C   0  0  0  0  0  0  0  0  0  0  0  0
    2.3206    3.9491   -5.9590 C   0  0  0  0  0  0  0  0  0  0  0  0
    1.5138    5.0726   -6.0675 C   0  0  0  0  0  0  0  0  0  0  0  0
    1.9843    6.4773   -6.3022 C   0  0  0  0  0  0  0  0  0  0  0  0
    1.7714    7.3449   -5.0731 C   0  0  0  0  0  0  0  0  0  0  0  0
   -0.0986    4.6003   -5.9646 S   0  0  0  0  0  0  0  0  0  0  0  0
   -1.9001    1.8395   -6.5455 C   0  0  0  0  0  0  0  0  0  0  0  0
   -1.9145    2.4375   -7.8154 C   0  0  0  0  0  0  0  0  0  0  0  0
   -2.9198    1.9563   -8.6460 C   0  0  0  0  0  0  0  0  0  0  0  0
   -3.8532    0.8467   -7.7806 S   0  0  0  0  0  0  0  0  0  0  0  0
   -2.9443    0.9293   -6.3541 C   0  0  0  0  0  0  0  0  0  0  0  0
   -2.9793    0.0406   -5.2605 C   0  0  0  0  0  0  0  0  0  0  0  0
   -3.9864   -1.0279   -5.2582 C   0  0  0  0  0  0  0  0  0  0  0  0
   -3.7187   -2.3784   -5.4271 C   0  0  0  0  0  0  0  0  0  0  0  0
   -4.8713   -3.1681   -5.4998 C   0  0  0  0  0  0  0  0  0  0  0  0
   -6.0455   -2.4212   -5.4625 C   0  0  0  0  0  0  0  0  0  0  0  0
   -7.4337   -2.9743   -5.4430 C   0  0  0  0  0  0  0  0  0  0  0  0
   -7.7884   -3.4730   -4.0477 C   0  0  0  0  0  0  0  0  0  0  0  0
   -5.6565   -0.7920   -5.3287 S   0  0  0  0  0  0  0  0  0  0  0  0
   -1.8589    0.0563   -4.3803 C   0  0  0  0  0  0  0  0  0  0  0  0
   -2.8053    2.0168  -10.1111 C   0  0  0  0  0  0  0  0  0  0  0  0
   -1.9612    1.1874  -10.7676 C   0  0  0  0  0  0  0  0  0  0  0  0
   -1.2994    0.0047  -10.1683 C   0  0  0  0  0  0  0  0  0  0  0  0
   -1.6962   -0.6635   -9.1741 O   0  0  0  0  0  0  0  0  0  0  0  0
   -0.1736   -0.3439  -10.9937 C   0  0  0  0  0  0  0  0  0  0  0  0
    0.7460   -1.3748  -10.9476 C   0  0  0  0  0  0  0  0  0  0  0  0
    1.6492   -1.2156  -12.3647 S   0  0  0  0  0  0  0  0  0  0  0  0
    0.8715    0.1538  -12.9992 C   0  0  0  0  0  0  0  0  0  0  0  0
   -0.1118    0.4912  -12.0793 C   0  0  0  0  0  0  0  0  0  0  0  0
   -1.2195    1.4717  -12.0483 C   0  0  0  0  0  0  0  0  0  0  0  0
   -1.4248    2.4576  -12.9556 C   0  0  0  0  0  0  0  0  0  0  0  0
   -2.6224    3.2528  -12.9911 C   0  0  0  0  0  0  0  0  0  0  0  0
   -3.5843    3.8967  -13.0292 N   0  0  0  0  0  0  0  0  0  0  0  0
   -0.3799    2.8421  -13.8712 C   0  0  0  0  0  0  0  0  0  0  0  0
    0.4825    3.1760  -14.5761 N   0  0  0  0  0  0  0  0  0  0  0  0
    3.8049   -0.5931   10.6340 H   0  0  0  0  0  0  0  0  0  0  0  0
    0.3906   -0.2474    9.1857 H   0  0  0  0  0  0  0  0  0  0  0  0
   -2.6641   -2.2243    6.5679 H   0  0  0  0  0  0  0  0  0  0  0  0
   -4.5944   -1.2199    7.9634 H   0  0  0  0  0  0  0  0  0  0  0  0
   -5.1590    0.7660    9.4930 H   0  0  0  0  0  0  0  0  0  0  0  0
   -3.6826    1.4038   10.3028 H   0  0  0  0  0  0  0  0  0  0  0  0
   -3.5582    3.2854    8.6903 H   0  0  0  0  0  0  0  0  0  0  0  0
   -5.1920    3.2209    9.4337 H   0  0  0  0  0  0  0  0  0  0  0  0
   -4.9557    2.6054    7.7484 H   0  0  0  0  0  0  0  0  0  0  0  0
   -2.6693   -1.6971    0.8237 H   0  0  0  0  0  0  0  0  0  0  0  0
   -1.1636   -3.2281   -3.7513 H   0  0  0  0  0  0  0  0  0  0  0  0
   -1.5629   -5.6147   -3.9434 H   0  0  0  0  0  0  0  0  0  0  0  0
   -2.4824   -7.6740   -2.9113 H   0  0  0  0  0  0  0  0  0  0  0  0
   -3.7789   -7.5660   -1.6725 H   0  0  0  0  0  0  0  0  0  0  0  0
   -4.1014   -6.9847   -4.6951 H   0  0  0  0  0  0  0  0  0  0  0  0
   -5.4074   -6.8375   -3.4478 H   0  0  0  0  0  0  0  0  0  0  0  0
   -4.6824   -8.4466   -3.8010 H   0  0  0  0  0  0  0  0  0  0  0  0
   -4.6445   -5.3631   -0.9523 H   0  0  0  0  0  0  0  0  0  0  0  0
   -4.2451   -2.9663   -0.7276 H   0  0  0  0  0  0  0  0  0  0  0  0
   -5.2091   -1.7632   -2.6267 H   0  0  0  0  0  0  0  0  0  0  0  0
   -7.0488   -0.2244   -2.2752 H   0  0  0  0  0  0  0  0  0  0  0  0
   -7.9034    1.7745   -1.0697 H   0  0  0  0  0  0  0  0  0  0  0  0
   -6.7656    3.0086   -0.4470 H   0  0  0  0  0  0  0  0  0  0  0  0
   -7.9512    3.8900   -2.4077 H   0  0  0  0  0  0  0  0  0  0  0  0
   -6.2057    3.6565   -2.8444 H   0  0  0  0  0  0  0  0  0  0  0  0
   -7.4535    2.4649   -3.4065 H   0  0  0  0  0  0  0  0  0  0  0  0
   -4.3114    2.7393   -0.7666 H   0  0  0  0  0  0  0  0  0  0  0  0
   -2.4465    1.1994   -1.1188 H   0  0  0  0  0  0  0  0  0  0  0  0
    1.9196   -0.8984   -1.0273 H   0  0  0  0  0  0  0  0  0  0  0  0
    1.6122   -3.9915    3.4700 H   0  0  0  0  0  0  0  0  0  0  0  0
    2.0189   -6.3130    2.9544 H   0  0  0  0  0  0  0  0  0  0  0  0
    3.0300   -8.0196    1.5015 H   0  0  0  0  0  0  0  0  0  0  0  0
    3.7197   -7.5711   -0.0897 H   0  0  0  0  0  0  0  0  0  0  0  0
    0.6975   -7.6795    0.5744 H   0  0  0  0  0  0  0  0  0  0  0  0
    1.4247   -7.3025   -1.0389 H   0  0  0  0  0  0  0  0  0  0  0  0
    1.6289   -8.9444   -0.3165 H   0  0  0  0  0  0  0  0  0  0  0  0
    3.3939   -5.2360   -0.9779 H   0  0  0  0  0  0  0  0  0  0  0  0
    3.0232   -2.8837   -0.4732 H   0  0  0  0  0  0  0  0  0  0  0  0
    1.4640    0.9475    2.0508 H   0  0  0  0  0  0  0  0  0  0  0  0
    3.0389    2.7719    1.6538 H   0  0  0  0  0  0  0  0  0  0  0  0
    5.4962    3.4258    1.6205 H   0  0  0  0  0  0  0  0  0  0  0  0
    6.7107    2.2525    1.0221 H   0  0  0  0  0  0  0  0  0  0  0  0
    4.4743    3.5817   -0.6402 H   0  0  0  0  0  0  0  0  0  0  0  0
    6.2413    3.9297   -0.7168 H   0  0  0  0  0  0  0  0  0  0  0  0
    5.6226    2.3261   -1.2661 H   0  0  0  0  0  0  0  0  0  0  0  0
    6.1117   -0.0795    0.6664 H   0  0  0  0  0  0  0  0  0  0  0  0
    4.5922   -1.9073    1.1370 H   0  0  0  0  0  0  0  0  0  0  0  0
    3.8230   -3.6041    4.4348 H   0  0  0  0  0  0  0  0  0  0  0  0
    6.2914   -3.3908    3.7305 H   0  0  0  0  0  0  0  0  0  0  0  0
    8.2637   -1.5034    4.0131 H   0  0  0  0  0  0  0  0  0  0  0  0
    7.5932   -0.9010    2.4590 H   0  0  0  0  0  0  0  0  0  0  0  0
    8.8730    0.8796    3.5830 H   0  0  0  0  0  0  0  0  0  0  0  0
    7.8666    0.7142    5.0732 H   0  0  0  0  0  0  0  0  0  0  0  0
    7.1346    1.3315    3.5280 H   0  0  0  0  0  0  0  0  0  0  0  0
    2.0753    1.7914   -5.7279 H   0  0  0  0  0  0  0  0  0  0  0  0
    3.4043    3.9898   -6.0121 H   0  0  0  0  0  0  0  0  0  0  0  0
    1.4353    6.9060   -7.1652 H   0  0  0  0  0  0  0  0  0  0  0  0
    3.0689    6.4684   -6.5555 H   0  0  0  0  0  0  0  0  0  0  0  0
    2.1345    8.3718   -5.2904 H   0  0  0  0  0  0  0  0  0  0  0  0
    2.3412    6.9386   -4.2109 H   0  0  0  0  0  0  0  0  0  0  0  0
    0.6952    7.3990   -4.8078 H   0  0  0  0  0  0  0  0  0  0  0  0
   -1.1121    3.0566   -8.1994 H   0  0  0  0  0  0  0  0  0  0  0  0
   -2.7213   -2.7815   -5.5434 H   0  0  0  0  0  0  0  0  0  0  0  0
   -4.8487   -4.2463   -5.5977 H   0  0  0  0  0  0  0  0  0  0  0  0
   -7.5115   -3.8101   -6.1729 H   0  0  0  0  0  0  0  0  0  0  0  0
   -8.1490   -2.1795   -5.7411 H   0  0  0  0  0  0  0  0  0  0  0  0
   -8.8206   -3.8824   -4.0516 H   0  0  0  0  0  0  0  0  0  0  0  0
   -7.7353   -2.6449   -3.3100 H   0  0  0  0  0  0  0  0  0  0  0  0
   -7.0915   -4.2797   -3.7384 H   0  0  0  0  0  0  0  0  0  0  0  0
   -3.1254    2.9359  -10.5587 H   0  0  0  0  0  0  0  0  0  0  0  0
    0.8445   -2.1412  -10.1889 H   0  0  0  0  0  0  0  0  0  0  0  0
    1.0921    0.6258  -13.9455 H   0  0  0  0  0  0  0  0  0  0  0  0
  1  2  2  3
  2  3  1  0
  3  4  2  0
  3  5  1  0
  5  6  2  0
  6  7  1  0
  6  8  1  0
  8  9  1  0
  8 10  2  0
 10 11  1  0
 10 12  1  0
 12 13  1  0
 12 14  2  0
 14 15  1  0
 15 16  2  3
 16 17  1  0
 17 18  3  0
 16 19  1  0
 19 20  3  0
  1 21  1  0
 21 22  2  0
 22 23  1  0
 23 24  2  0
 24 25  1  0
 25 26  2  0
 26 27  1  0
 27 28  2  0
 28 29  1  0
 29 30  1  0
 28 31  1  0
 24 32  1  0
 32 33  1  0
 33 34  1  0
 34 35  1  0
 35 36  2  0
 36 37  1  0
 37 38  1  0
 38 39  1  0
 39 40  2  0
 40 41  1  0
 41 42  2  0
 42 43  1  0
 43 44  1  0
 42 45  1  0
 45 46  2  0
 38 47  1  0
 47 48  2  0
 48 49  1  0
 49 50  2  0
 50 51  1  0
 51 52  1  0
 50 53  1  0
 53 54  2  0
 38 55  1  0
 55 56  2  0
 56 57  1  0
 57 58  1  0
 58 59  2  0
 59 60  1  0
 60 61  1  0
 61 62  2  0
 62 63  1  0
 63 64  2  0
 64 65  1  0
 65 66  1  0
 64 67  1  0
 67 68  2  0
 60 69  1  0
 69 70  2  0
 70 71  1  0
 71 72  2  0
 72 73  1  0
 73 74  1  0
 72 75  1  0
 75 76  2  0
 60 77  1  0
 77 78  1  0
 78 79  1  0
 79 80  2  0
 80 81  1  0
 79 82  1  0
 82 83  2  0
 83 84  1  0
 84 85  2  0
 85 86  1  0
 86 87  1  0
 85 88  1  0
 56 89  1  0
 89 90  1  0
 90 91  2  0
 91 92  1  0
 92 93  2  0
 93 94  1  0
 94 95  2  0
 95 96  1  0
 96 97  1  0
 95 98  1  0
 91 99  1  0
 99100  1  0
100101  2  0
101102  1  0
102103  1  0
103104  1  0
104105  1  0
105106  2  0
106107  1  0
107108  2  0
108109  1  0
109110  1  0
108111  1  0
104112  2  0
101113  1  0
113114  2  3
114115  1  0
115116  2  0
115117  1  0
117118  2  0
118119  1  0
119120  1  0
120121  2  0
121122  1  0
122123  2  3
123124  1  0
124125  3  0
123126  1  0
126127  3  0
 15  2  1  0
 81 21  1  0
 88 82  1  0
112 90  1  0
122114  1  0
 14  5  1  0
 80 23  1  0
 98 92  1  0
103 99  2  0
111105  1  0
121117  1  0
 31 25  1  0
 78 32  2  0
 77 34  2  0
 59 35  1  0
 68 61  1  0
 76 69  1  0
 57 37  2  0
 46 39  1  0
 54 47  1  0
112 55  1  0
  1128  1  0
 22129  1  0
 26130  1  0
 27131  1  0
 29132  1  0
 29133  1  0
 30134  1  0
 30135  1  0
 30136  1  0
 36137  1  0
 40138  1  0
 41139  1  0
 43140  1  0
 43141  1  0
 44142  1  0
 44143  1  0
 44144  1  0
 45145  1  0
 46146  1  0
 48147  1  0
 49148  1  0
 51149  1  0
 51150  1  0
 52151  1  0
 52152  1  0
 52153  1  0
 53154  1  0
 54155  1  0
 58156  1  0
 62157  1  0
 63158  1  0
 65159  1  0
 65160  1  0
 66161  1  0
 66162  1  0
 66163  1  0
 67164  1  0
 68165  1  0
 70166  1  0
 71167  1  0
 73168  1  0
 73169  1  0
 74170  1  0
 74171  1  0
 74172  1  0
 75173  1  0
 76174  1  0
 83175  1  0
 84176  1  0
 86177  1  0
 86178  1  0
 87179  1  0
 87180  1  0
 87181  1  0
 93182  1  0
 94183  1  0
 96184  1  0
 96185  1  0
 97186  1  0
 97187  1  0
 97188  1  0
100189  1  0
106190  1  0
107191  1  0
109192  1  0
109193  1  0
110194  1  0
110195  1  0
110196  1  0
113197  1  0
118198  1  0
120199  1  0
M  END

