
     RDKit          3D

103115  0  0  0  0  0  0  0  0999 V2000
   -5.1495    0.0609   -5.6768 C   0  0  0  0  0  0  0  0  0  0  0  0
   -6.2736    0.5584   -5.1276 C   0  0  0  0  0  0  0  0  0  0  0  0
   -6.4373    1.8699   -4.4828 C   0  0  0  0  0  0  0  0  0  0  0  0
   -5.5160    2.6807   -4.2024 O   0  0  0  0  0  0  0  0  0  0  0  0
   -7.8636    2.1621   -4.3986 C   0  0  0  0  0  0  0  0  0  0  0  0
   -8.4930    3.3456   -3.9947 C   0  0  0  0  0  0  0  0  0  0  0  0
   -7.5670    4.6390   -3.2340 Cl  0  0  0  0  0  0  0  0  0  0  0  0
   -9.8796    3.4755   -4.2110 C   0  0  0  0  0  0  0  0  0  0  0  0
  -10.7191    4.9346   -3.6820 Cl  0  0  0  0  0  0  0  0  0  0  0  0
  -10.5844    2.4656   -4.9059 C   0  0  0  0  0  0  0  0  0  0  0  0
  -12.2912    2.6926   -5.2914 Cl  0  0  0  0  0  0  0  0  0  0  0  0
   -9.9187    1.2976   -5.3349 C   0  0  0  0  0  0  0  0  0  0  0  0
  -10.7034    0.2363   -6.5052 Cl  0  0  0  0  0  0  0  0  0  0  0  0
   -8.5718    1.1137   -4.9641 C   0  0  0  0  0  0  0  0  0  0  0  0
   -7.6430   -0.0046   -5.2793 C   0  0  0  0  0  0  0  0  0  0  0  0
   -7.9432   -1.3282   -5.1998 C   0  0  0  0  0  0  0  0  0  0  0  0
   -6.9409   -2.3572   -5.3399 C   0  0  0  0  0  0  0  0  0  0  0  0
   -6.1440   -3.1883   -5.4562 N   0  0  0  0  0  0  0  0  0  0  0  0
   -9.2378   -1.7954   -4.7690 C   0  0  0  0  0  0  0  0  0  0  0  0
  -10.2722   -2.1837   -4.4189 N   0  0  0  0  0  0  0  0  0  0  0  0
   -3.7871    0.5495   -5.3974 C   0  0  0  0  0  0  0  0  0  0  0  0
   -2.7118    0.5157   -6.3113 C   0  0  0  0  0  0  0  0  0  0  0  0
   -2.8064    0.0831   -7.7489 C   0  0  0  0  0  0  0  0  0  0  0  0
   -2.5389   -1.4130   -7.8872 C   0  0  0  0  0  0  0  0  0  0  0  0
   -1.5031    0.8028   -5.6720 C   0  0  0  0  0  0  0  0  0  0  0  0
    0.1272    0.7771   -6.1836 S   0  0  0  0  0  0  0  0  0  0  0  0
    0.6538    1.0684   -4.5967 C   0  0  0  0  0  0  0  0  0  0  0  0
    1.8082    1.2631   -3.8982 C   0  0  0  0  0  0  0  0  0  0  0  0
    3.1358    1.3738   -4.3188 C   0  0  0  0  0  0  0  0  0  0  0  0
    4.1349    1.6719   -3.3484 C   0  0  0  0  0  0  0  0  0  0  0  0
    5.4149    1.7539   -3.7891 N   0  0  0  0  0  0  0  0  0  0  0  0
    5.1744    1.4543   -5.4005 S   0  0  0  0  0  0  0  0  0  0  0  0
    3.5471    1.2165   -5.6015 N   0  0  0  0  0  0  0  0  0  0  0  0
    3.7532    1.8122   -2.0078 C   0  0  0  0  0  0  0  0  0  0  0  0
    4.5166    1.8290   -0.8755 C   0  0  0  0  0  0  0  0  0  0  0  0
    6.1451    1.5143   -0.5067 S   0  0  0  0  0  0  0  0  0  0  0  0
    5.7383    1.1059    1.0984 C   0  0  0  0  0  0  0  0  0  0  0  0
    6.4683    0.5712    2.1634 C   0  0  0  0  0  0  0  0  0  0  0  0
    7.9606    0.3798    2.1368 C   0  0  0  0  0  0  0  0  0  0  0  0
    8.3173   -1.0684    1.8171 C   0  0  0  0  0  0  0  0  0  0  0  0
    5.6094    0.1587    3.2049 C   0  0  0  0  0  0  0  0  0  0  0  0
    3.9939    0.5308    2.7962 S   0  0  0  0  0  0  0  0  0  0  0  0
    4.3825    1.1617    1.2954 C   0  0  0  0  0  0  0  0  0  0  0  0
    3.6826    1.5816    0.1696 C   0  0  0  0  0  0  0  0  0  0  0  0
    2.3896    1.4212   -0.2173 N   0  0  0  0  0  0  0  0  0  0  0  0
    2.4257    1.6312   -1.5755 C   0  0  0  0  0  0  0  0  0  0  0  0
    1.4141    1.4408   -2.5589 C   0  0  0  0  0  0  0  0  0  0  0  0
    0.0409    1.4732   -2.4555 N   0  0  0  0  0  0  0  0  0  0  0  0
   -0.3663    1.1908   -3.7179 C   0  0  0  0  0  0  0  0  0  0  0  0
   -1.6029    1.0478   -4.3276 C   0  0  0  0  0  0  0  0  0  0  0  0
   -3.1932    0.8934   -3.8311 S   0  0  0  0  0  0  0  0  0  0  0  0
   -0.7859    2.2247   -1.4966 C   0  0  0  0  0  0  0  0  0  0  0  0
   -0.3165    3.6731   -1.3817 C   0  0  0  0  0  0  0  0  0  0  0  0
    1.3988    0.6524    0.5447 C   0  0  0  0  0  0  0  0  0  0  0  0
    0.7651    1.5133    1.6364 C   0  0  0  0  0  0  0  0  0  0  0  0
    6.0409   -0.4377    4.4846 C   0  0  0  0  0  0  0  0  0  0  0  0
    5.3042   -1.2833    5.2305 C   0  0  0  0  0  0  0  0  0  0  0  0
    5.4863   -1.4113    6.6751 C   0  0  0  0  0  0  0  0  0  0  0  0
    6.4980   -1.0454    7.3318 O   0  0  0  0  0  0  0  0  0  0  0  0
    4.2601   -1.9409    7.2380 C   0  0  0  0  0  0  0  0  0  0  0  0
    3.9272   -2.1021    8.5808 C   0  0  0  0  0  0  0  0  0  0  0  0
    2.6333   -2.5510    8.9042 C   0  0  0  0  0  0  0  0  0  0  0  0
    2.2576   -2.7343   10.2437 C   0  0  0  0  0  0  0  0  0  0  0  0
    0.9636   -3.1639   10.5584 C   0  0  0  0  0  0  0  0  0  0  0  0
    0.6038   -3.3313   11.8551 F   0  0  0  0  0  0  0  0  0  0  0  0
    0.0350   -3.4068    9.5407 C   0  0  0  0  0  0  0  0  0  0  0  0
   -1.2192   -3.8181    9.8504 F   0  0  0  0  0  0  0  0  0  0  0  0
    0.3920   -3.2211    8.2018 C   0  0  0  0  0  0  0  0  0  0  0  0
    1.6873   -2.7976    7.8682 C   0  0  0  0  0  0  0  0  0  0  0  0
    2.0526   -2.6125    6.5203 C   0  0  0  0  0  0  0  0  0  0  0  0
    3.3628   -2.2120    6.2189 C   0  0  0  0  0  0  0  0  0  0  0  0
    4.0168   -1.9684    4.9061 C   0  0  0  0  0  0  0  0  0  0  0  0
    3.7300   -2.6155    3.7479 C   0  0  0  0  0  0  0  0  0  0  0  0
    2.5358   -3.4007    3.5751 C   0  0  0  0  0  0  0  0  0  0  0  0
    1.5822   -4.0390    3.4221 N   0  0  0  0  0  0  0  0  0  0  0  0
    4.6742   -2.6948    2.6618 C   0  0  0  0  0  0  0  0  0  0  0  0
    5.4216   -2.7718    1.7817 N   0  0  0  0  0  0  0  0  0  0  0  0
   -5.2247   -0.7626   -6.3716 H   0  0  0  0  0  0  0  0  0  0  0  0
   -2.0671    0.6456   -8.3588 H   0  0  0  0  0  0  0  0  0  0  0  0
   -3.8108    0.3204   -8.1564 H   0  0  0  0  0  0  0  0  0  0  0  0
   -2.6316   -1.7135   -8.9537 H   0  0  0  0  0  0  0  0  0  0  0  0
   -1.5102   -1.6510   -7.5405 H   0  0  0  0  0  0  0  0  0  0  0  0
   -3.2721   -1.9951   -7.2887 H   0  0  0  0  0  0  0  0  0  0  0  0
    8.4151    1.0413    1.3641 H   0  0  0  0  0  0  0  0  0  0  0  0
    8.3972    0.6703    3.1192 H   0  0  0  0  0  0  0  0  0  0  0  0
    7.8732   -1.3708    0.8444 H   0  0  0  0  0  0  0  0  0  0  0  0
    9.4192   -1.1787    1.7521 H   0  0  0  0  0  0  0  0  0  0  0  0
    7.9471   -1.7429    2.6153 H   0  0  0  0  0  0  0  0  0  0  0  0
   -1.8419    2.2465   -1.8320 H   0  0  0  0  0  0  0  0  0  0  0  0
   -0.8199    1.7383   -0.5134 H   0  0  0  0  0  0  0  0  0  0  0  0
   -0.3169    4.1498   -2.3865 H   0  0  0  0  0  0  0  0  0  0  0  0
   -1.0029    4.2348   -0.7143 H   0  0  0  0  0  0  0  0  0  0  0  0
    0.7069    3.7183   -0.9533 H   0  0  0  0  0  0  0  0  0  0  0  0
    0.6338    0.2160   -0.1241 H   0  0  0  0  0  0  0  0  0  0  0  0
    1.8847   -0.2306    1.0114 H   0  0  0  0  0  0  0  0  0  0  0  0
   -0.1045    0.9771    2.0715 H   0  0  0  0  0  0  0  0  0  0  0  0
    0.4225    2.4817    1.2214 H   0  0  0  0  0  0  0  0  0  0  0  0
    1.4972    1.7281    2.4409 H   0  0  0  0  0  0  0  0  0  0  0  0
    6.9624   -0.0499    4.9042 H   0  0  0  0  0  0  0  0  0  0  0  0
    4.6517   -1.8773    9.3538 H   0  0  0  0  0  0  0  0  0  0  0  0
    2.9645   -2.5465   11.0432 H   0  0  0  0  0  0  0  0  0  0  0  0
   -0.3400   -3.4180    7.4264 H   0  0  0  0  0  0  0  0  0  0  0  0
    1.3189   -2.7557    5.7419 H   0  0  0  0  0  0  0  0  0  0  0  0
  1  2  2  3
  2  3  1  0
  3  4  2  0
  3  5  1  0
  5  6  2  0
  6  7  1  0
  6  8  1  0
  8  9  1  0
  8 10  2  0
 10 11  1  0
 10 12  1  0
 12 13  1  0
 12 14  2  0
 14 15  1  0
 15 16  2  3
 16 17  1  0
 17 18  3  0
 16 19  1  0
 19 20  3  0
  1 21  1  0
 21 22  2  0
 22 23  1  0
 23 24  1  0
 22 25  1  0
 25 26  1  0
 26 27  1  0
 27 28  1  0
 28 29  1  0
 29 30  1  0
 30 31  2  0
 31 32  1  0
 32 33  1  0
 30 34  1  0
 34 35  1  0
 35 36  1  0
 36 37  1  0
 37 38  1  0
 38 39  1  0
 39 40  1  0
 38 41  2  0
 41 42  1  0
 42 43  1  0
 43 44  1  0
 44 45  1  0
 45 46  1  0
 46 47  1  0
 47 48  1  0
 48 49  1  0
 49 50  1  0
 50 51  1  0
 48 52  1  0
 52 53  1  0
 45 54  1  0
 54 55  1  0
 41 56  1  0
 56 57  2  3
 57 58  1  0
 58 59  2  0
 58 60  1  0
 60 61  2  0
 61 62  1  0
 62 63  2  0
 63 64  1  0
 64 65  1  0
 64 66  2  0
 66 67  1  0
 66 68  1  0
 68 69  2  0
 69 70  1  0
 70 71  2  0
 71 72  1  0
 72 73  2  3
 73 74  1  0
 74 75  3  0
 73 76  1  0
 76 77  3  0
 15  2  1  0
 51 21  1  0
 72 57  1  0
 14  5  1  0
 50 25  2  0
 71 60  1  0
 49 27  2  0
 69 62  1  0
 47 28  2  0
 33 29  2  0
 46 34  2  0
 44 35  2  0
 43 37  2  0
  1 78  1  0
 23 79  1  0
 23 80  1  0
 24 81  1  0
 24 82  1  0
 24 83  1  0
 39 84  1  0
 39 85  1  0
 40 86  1  0
 40 87  1  0
 40 88  1  0
 52 89  1  0
 52 90  1  0
 53 91  1  0
 53 92  1  0
 53 93  1  0
 54 94  1  0
 54 95  1  0
 55 96  1  0
 55 97  1  0
 55 98  1  0
 56 99  1  0
 61100  1  0
 63101  1  0
 68102  1  0
 70103  1  0
M  END

