
     RDKit          3D

118130  0  0  0  0  0  0  0  0999 V2000
    3.7110    4.5452   -4.4737 C   0  0  0  0  0  0  0  0  0  0  0  0
    2.8480    5.4422   -3.9656 C   0  0  0  0  0  0  0  0  0  0  0  0
    1.4939    5.2013   -3.4587 C   0  0  0  0  0  0  0  0  0  0  0  0
    1.0560    4.1192   -2.9826 O   0  0  0  0  0  0  0  0  0  0  0  0
    0.7599    6.4530   -3.5072 C   0  0  0  0  0  0  0  0  0  0  0  0
   -0.6120    6.6719   -3.3566 C   0  0  0  0  0  0  0  0  0  0  0  0
   -1.6805    5.3749   -2.8185 Cl  0  0  0  0  0  0  0  0  0  0  0  0
   -1.1244    7.9495   -3.6704 C   0  0  0  0  0  0  0  0  0  0  0  0
   -2.8540    8.2610   -3.5095 Cl  0  0  0  0  0  0  0  0  0  0  0  0
   -0.2693    8.9491   -4.1821 C   0  0  0  0  0  0  0  0  0  0  0  0
   -0.9368   10.5043   -4.6812 Cl  0  0  0  0  0  0  0  0  0  0  0  0
    1.1112    8.6924   -4.3490 C   0  0  0  0  0  0  0  0  0  0  0  0
    2.0809    9.7902   -5.3340 Cl  0  0  0  0  0  0  0  0  0  0  0  0
    1.6245    7.4575   -3.9167 C   0  0  0  0  0  0  0  0  0  0  0  0
    3.0120    6.9180   -3.9891 C   0  0  0  0  0  0  0  0  0  0  0  0
    4.1296    7.5551   -3.5810 C   0  0  0  0  0  0  0  0  0  0  0  0
    5.3488    6.8410   -3.2992 C   0  0  0  0  0  0  0  0  0  0  0  0
    6.3259    6.2774   -3.0606 N   0  0  0  0  0  0  0  0  0  0  0  0
    4.1256    8.9498   -3.2130 C   0  0  0  0  0  0  0  0  0  0  0  0
    4.1377   10.0771   -2.9363 N   0  0  0  0  0  0  0  0  0  0  0  0
    3.4517    3.0994   -4.5808 C   0  0  0  0  0  0  0  0  0  0  0  0
    4.3089    2.1200   -4.0852 C   0  0  0  0  0  0  0  0  0  0  0  0
    3.7353    0.8562   -4.1904 C   0  0  0  0  0  0  0  0  0  0  0  0
    4.0206   -0.5210   -3.2781 S   0  0  0  0  0  0  0  0  0  0  0  0
    2.5390   -1.2120   -3.6943 C   0  0  0  0  0  0  0  0  0  0  0  0
    1.6404   -1.8524   -2.7891 C   0  0  0  0  0  0  0  0  0  0  0  0
    1.9778   -2.5771   -1.6486 C   0  0  0  0  0  0  0  0  0  0  0  0
    0.9302   -2.9927   -0.8278 C   0  0  0  0  0  0  0  0  0  0  0  0
    1.0555   -3.7674    0.4752 C   0  0  0  0  0  0  0  0  0  0  0  0
    1.9151   -2.9957    1.4964 C   0  0  0  0  0  0  0  0  0  0  0  0
    2.9363   -3.6188    2.2478 C   0  0  0  0  0  0  0  0  0  0  0  0
    3.7465   -2.8769    3.1159 C   0  0  0  0  0  0  0  0  0  0  0  0
    3.5570   -1.4970    3.2516 C   0  0  0  0  0  0  0  0  0  0  0  0
    4.5141   -0.6904    4.0929 C   0  0  0  0  0  0  0  0  0  0  0  0
    5.8006   -0.4079    3.3225 C   0  0  0  0  0  0  0  0  0  0  0  0
    2.5244   -0.8733    2.5393 C   0  0  0  0  0  0  0  0  0  0  0  0
    1.7100   -1.6133    1.6773 C   0  0  0  0  0  0  0  0  0  0  0  0
    1.5502   -5.2146    0.2008 C   0  0  0  0  0  0  0  0  0  0  0  0
    0.8093   -5.9666   -0.9104 C   0  0  0  0  0  0  0  0  0  0  0  0
   -0.3884   -3.7723    0.8830 C   0  0  0  0  0  0  0  0  0  0  0  0
   -1.1994   -3.1890   -0.0559 C   0  0  0  0  0  0  0  0  0  0  0  0
   -0.3933   -2.6873   -1.1472 C   0  0  0  0  0  0  0  0  0  0  0  0
   -0.7397   -1.9811   -2.3110 C   0  0  0  0  0  0  0  0  0  0  0  0
    0.3219   -1.5160   -3.1281 C   0  0  0  0  0  0  0  0  0  0  0  0
    0.3194   -0.8160   -4.5011 C   0  0  0  0  0  0  0  0  0  0  0  0
    0.0947   -1.9192   -5.5835 C   0  0  0  0  0  0  0  0  0  0  0  0
   -1.3423   -2.4513   -5.6513 C   0  0  0  0  0  0  0  0  0  0  0  0
   -0.6044    0.3875   -4.7773 C   0  0  0  0  0  0  0  0  0  0  0  0
   -0.5304    0.9992   -6.0498 C   0  0  0  0  0  0  0  0  0  0  0  0
   -1.3545    2.0616   -6.4017 C   0  0  0  0  0  0  0  0  0  0  0  0
   -2.3444    2.5112   -5.5171 C   0  0  0  0  0  0  0  0  0  0  0  0
   -3.2282    3.6678   -5.9075 C   0  0  0  0  0  0  0  0  0  0  0  0
   -4.4071    3.2118   -6.7527 C   0  0  0  0  0  0  0  0  0  0  0  0
   -2.5151    1.8414   -4.2911 C   0  0  0  0  0  0  0  0  0  0  0  0
   -1.6569    0.7991   -3.9170 C   0  0  0  0  0  0  0  0  0  0  0  0
    1.7992   -0.4141   -4.5423 C   0  0  0  0  0  0  0  0  0  0  0  0
    2.4907    0.7980   -4.7721 C   0  0  0  0  0  0  0  0  0  0  0  0
    2.0256    2.3675   -5.1525 S   0  0  0  0  0  0  0  0  0  0  0  0
   -2.7143   -2.7683    0.5958 S   0  0  0  0  0  0  0  0  0  0  0  0
   -2.3153   -3.4517    2.1030 C   0  0  0  0  0  0  0  0  0  0  0  0
   -2.9387   -3.4875    3.3498 C   0  0  0  0  0  0  0  0  0  0  0  0
   -2.0661   -4.0035    4.3283 C   0  0  0  0  0  0  0  0  0  0  0  0
   -0.5705   -4.4210    3.6215 S   0  0  0  0  0  0  0  0  0  0  0  0
   -1.0350   -3.9248    2.0947 C   0  0  0  0  0  0  0  0  0  0  0  0
   -2.4022   -4.2657    5.7304 C   0  0  0  0  0  0  0  0  0  0  0  0
   -2.8535   -3.3261    6.5876 C   0  0  0  0  0  0  0  0  0  0  0  0
   -3.1340   -1.9265    6.2579 C   0  0  0  0  0  0  0  0  0  0  0  0
   -2.7149   -1.2912    5.2543 O   0  0  0  0  0  0  0  0  0  0  0  0
   -3.9387   -1.3657    7.3217 C   0  0  0  0  0  0  0  0  0  0  0  0
   -4.5281   -0.1010    7.3777 C   0  0  0  0  0  0  0  0  0  0  0  0
   -5.3160    0.2236    8.4913 C   0  0  0  0  0  0  0  0  0  0  0  0
   -5.5142   -0.7193    9.5139 C   0  0  0  0  0  0  0  0  0  0  0  0
   -6.3010   -0.4088   10.5728 F   0  0  0  0  0  0  0  0  0  0  0  0
   -4.9034   -1.9811    9.4460 C   0  0  0  0  0  0  0  0  0  0  0  0
   -4.0984   -2.2967    8.3342 C   0  0  0  0  0  0  0  0  0  0  0  0
   -3.3456   -3.5371    7.9880 C   0  0  0  0  0  0  0  0  0  0  0  0
   -2.9761   -4.5313    8.8452 C   0  0  0  0  0  0  0  0  0  0  0  0
   -1.9925   -5.5310    8.4995 C   0  0  0  0  0  0  0  0  0  0  0  0
   -1.1858   -6.3225    8.2377 N   0  0  0  0  0  0  0  0  0  0  0  0
   -3.4860   -4.6253   10.1820 C   0  0  0  0  0  0  0  0  0  0  0  0
   -3.9037   -4.7198   11.2622 N   0  0  0  0  0  0  0  0  0  0  0  0
    4.6705    4.8767   -4.8368 H   0  0  0  0  0  0  0  0  0  0  0  0
    5.2359    2.3290   -3.5714 H   0  0  0  0  0  0  0  0  0  0  0  0
    3.0092   -2.7824   -1.3866 H   0  0  0  0  0  0  0  0  0  0  0  0
    3.1303   -4.6797    2.1737 H   0  0  0  0  0  0  0  0  0  0  0  0
    4.5409   -3.3760    3.6545 H   0  0  0  0  0  0  0  0  0  0  0  0
    4.7679   -1.2526    5.0255 H   0  0  0  0  0  0  0  0  0  0  0  0
    4.0506    0.2734    4.4005 H   0  0  0  0  0  0  0  0  0  0  0  0
    6.3151   -1.3587    3.0666 H   0  0  0  0  0  0  0  0  0  0  0  0
    5.5765    0.1569    2.3918 H   0  0  0  0  0  0  0  0  0  0  0  0
    6.4903    0.1972    3.9531 H   0  0  0  0  0  0  0  0  0  0  0  0
    2.3636    0.1950    2.6293 H   0  0  0  0  0  0  0  0  0  0  0  0
    0.9270   -1.0974    1.1418 H   0  0  0  0  0  0  0  0  0  0  0  0
    2.6224   -5.1947   -0.0619 H   0  0  0  0  0  0  0  0  0  0  0  0
    1.4592   -5.8172    1.1315 H   0  0  0  0  0  0  0  0  0  0  0  0
   -0.2732   -6.0319   -0.6827 H   0  0  0  0  0  0  0  0  0  0  0  0
    0.9613   -5.4578   -1.8874 H   0  0  0  0  0  0  0  0  0  0  0  0
    1.2180   -6.9971   -0.9857 H   0  0  0  0  0  0  0  0  0  0  0  0
   -1.7715   -1.8457   -2.5722 H   0  0  0  0  0  0  0  0  0  0  0  0
    0.7763   -2.7805   -5.3883 H   0  0  0  0  0  0  0  0  0  0  0  0
    0.3676   -1.5456   -6.5963 H   0  0  0  0  0  0  0  0  0  0  0  0
   -2.0757   -1.6319   -5.8286 H   0  0  0  0  0  0  0  0  0  0  0  0
   -1.4295   -3.1711   -6.4923 H   0  0  0  0  0  0  0  0  0  0  0  0
   -1.6070   -2.9880   -4.7211 H   0  0  0  0  0  0  0  0  0  0  0  0
    0.2220    0.6912   -6.7638 H   0  0  0  0  0  0  0  0  0  0  0  0
   -1.2240    2.5404   -7.3637 H   0  0  0  0  0  0  0  0  0  0  0  0
   -2.6343    4.4076   -6.4935 H   0  0  0  0  0  0  0  0  0  0  0  0
   -3.6024    4.1777   -4.9952 H   0  0  0  0  0  0  0  0  0  0  0  0
   -4.0604    2.7900   -7.7217 H   0  0  0  0  0  0  0  0  0  0  0  0
   -4.9942    2.4355   -6.2195 H   0  0  0  0  0  0  0  0  0  0  0  0
   -5.0560    4.0878   -6.9746 H   0  0  0  0  0  0  0  0  0  0  0  0
   -3.3184    2.1402   -3.6231 H   0  0  0  0  0  0  0  0  0  0  0  0
   -1.8276    0.3325   -2.9583 H   0  0  0  0  0  0  0  0  0  0  0  0
   -3.9456   -3.1434    3.5373 H   0  0  0  0  0  0  0  0  0  0  0  0
   -2.3013   -5.2904    6.0374 H   0  0  0  0  0  0  0  0  0  0  0  0
   -4.4022    0.6083    6.5704 H   0  0  0  0  0  0  0  0  0  0  0  0
   -5.7925    1.1930    8.5483 H   0  0  0  0  0  0  0  0  0  0  0  0
   -5.0976   -2.6789   10.2341 H   0  0  0  0  0  0  0  0  0  0  0  0
  1  2  2  3
  2  3  1  0
  3  4  2  0
  3  5  1  0
  5  6  2  0
  6  7  1  0
  6  8  1  0
  8  9  1  0
  8 10  2  0
 10 11  1  0
 10 12  1  0
 12 13  1  0
 12 14  2  0
 14 15  1  0
 15 16  2  3
 16 17  1  0
 17 18  3  0
 16 19  1  0
 19 20  3  0
  1 21  1  0
 21 22  2  0
 22 23  1  0
 23 24  1  0
 24 25  1  0
 25 26  1  0
 26 27  2  0
 27 28  1  0
 28 29  1  0
 29 30  1  0
 30 31  2  0
 31 32  1  0
 32 33  2  0
 33 34  1  0
 34 35  1  0
 33 36  1  0
 36 37  2  0
 29 38  1  0
 38 39  1  0
 29 40  1  0
 40 41  2  0
 41 42  1  0
 42 43  1  0
 43 44  2  0
 44 45  1  0
 45 46  1  0
 46 47  1  0
 45 48  1  0
 48 49  2  0
 49 50  1  0
 50 51  2  0
 51 52  1  0
 52 53  1  0
 51 54  1  0
 54 55  2  0
 45 56  1  0
 56 57  1  0
 57 58  1  0
 41 59  1  0
 59 60  1  0
 60 61  1  0
 61 62  2  0
 62 63  1  0
 63 64  1  0
 62 65  1  0
 65 66  2  3
 66 67  1  0
 67 68  2  0
 67 69  1  0
 69 70  2  0
 70 71  1  0
 71 72  2  0
 72 73  1  0
 72 74  1  0
 74 75  2  0
 75 76  1  0
 76 77  2  3
 77 78  1  0
 78 79  3  0
 77 80  1  0
 80 81  3  0
 15  2  1  0
 58 21  1  0
 64 60  2  0
 76 66  1  0
 14  5  1  0
 57 23  2  0
 75 69  1  0
 56 25  2  0
 44 26  1  0
 55 48  1  0
 42 28  2  0
 37 30  1  0
 64 40  1  0
  1 82  1  0
 22 83  1  0
 27 84  1  0
 31 85  1  0
 32 86  1  0
 34 87  1  0
 34 88  1  0
 35 89  1  0
 35 90  1  0
 35 91  1  0
 36 92  1  0
 37 93  1  0
 38 94  1  0
 38 95  1  0
 39 96  1  0
 39 97  1  0
 39 98  1  0
 43 99  1  0
 46100  1  0
 46101  1  0
 47102  1  0
 47103  1  0
 47104  1  0
 49105  1  0
 50106  1  0
 52107  1  0
 52108  1  0
 53109  1  0
 53110  1  0
 53111  1  0
 54112  1  0
 55113  1  0
 61114  1  0
 65115  1  0
 70116  1  0
 71117  1  0
 74118  1  0
M  END

