
     RDKit          3D

158173  0  0  0  0  0  0  0  0999 V2000
   -8.4667    2.2644   -1.7818 C   0  0  0  0  0  0  0  0  0  0  0  0
   -9.4240    1.3569   -1.5747 C   0  0  0  0  0  0  0  0  0  0  0  0
   -9.2414   -0.0759   -1.2814 C   0  0  0  0  0  0  0  0  0  0  0  0
   -8.2314   -0.6024   -0.7485 O   0  0  0  0  0  0  0  0  0  0  0  0
  -10.4032   -0.7993   -1.7875 C   0  0  0  0  0  0  0  0  0  0  0  0
  -10.5912   -2.1802   -1.9202 C   0  0  0  0  0  0  0  0  0  0  0  0
   -9.4780   -3.3154   -1.1623 Cl  0  0  0  0  0  0  0  0  0  0  0  0
  -11.6723   -2.6385   -2.6980 C   0  0  0  0  0  0  0  0  0  0  0  0
  -11.9495   -4.3758   -2.8737 Cl  0  0  0  0  0  0  0  0  0  0  0  0
  -12.4949   -1.7157   -3.3835 C   0  0  0  0  0  0  0  0  0  0  0  0
  -13.7652   -2.3039   -4.4579 Cl  0  0  0  0  0  0  0  0  0  0  0  0
  -12.2683   -0.3311   -3.2539 C   0  0  0  0  0  0  0  0  0  0  0  0
  -13.0208    0.7895   -4.3947 Cl  0  0  0  0  0  0  0  0  0  0  0  0
  -11.2807    0.1101   -2.3528 C   0  0  0  0  0  0  0  0  0  0  0  0
  -10.8180    1.4923   -2.0694 C   0  0  0  0  0  0  0  0  0  0  0  0
  -11.6153    2.5564   -1.8073 C   0  0  0  0  0  0  0  0  0  0  0  0
  -11.0843    3.7642   -1.2253 C   0  0  0  0  0  0  0  0  0  0  0  0
  -10.6694    4.7264   -0.7364 N   0  0  0  0  0  0  0  0  0  0  0  0
  -13.0540    2.4524   -1.8270 C   0  0  0  0  0  0  0  0  0  0  0  0
  -14.2087    2.3783   -1.8390 N   0  0  0  0  0  0  0  0  0  0  0  0
   -7.0570    2.1443   -1.3760 C   0  0  0  0  0  0  0  0  0  0  0  0
   -6.0000    2.7198   -2.0956 C   0  0  0  0  0  0  0  0  0  0  0  0
   -4.8085    2.6716   -1.3781 C   0  0  0  0  0  0  0  0  0  0  0  0
   -3.4024    3.1671   -1.6526 C   0  0  0  0  0  0  0  0  0  0  0  0
   -2.8393    2.2002   -2.7182 C   0  0  0  0  0  0  0  0  0  0  0  0
   -3.2897    2.2968   -4.0540 C   0  0  0  0  0  0  0  0  0  0  0  0
   -2.8890    1.3675   -5.0204 C   0  0  0  0  0  0  0  0  0  0  0  0
   -2.0465    0.3001   -4.6755 C   0  0  0  0  0  0  0  0  0  0  0  0
   -1.6596   -0.7363   -5.6967 C   0  0  0  0  0  0  0  0  0  0  0  0
   -2.4663   -2.0161   -5.5092 C   0  0  0  0  0  0  0  0  0  0  0  0
   -1.6355    0.1619   -3.3462 C   0  0  0  0  0  0  0  0  0  0  0  0
   -2.0394    1.0847   -2.3782 C   0  0  0  0  0  0  0  0  0  0  0  0
   -3.3914    4.6510   -2.0517 C   0  0  0  0  0  0  0  0  0  0  0  0
   -2.5474    5.1319   -3.0735 C   0  0  0  0  0  0  0  0  0  0  0  0
   -2.5015    6.4895   -3.3955 C   0  0  0  0  0  0  0  0  0  0  0  0
   -3.2828    7.4109   -2.6883 C   0  0  0  0  0  0  0  0  0  0  0  0
   -3.1409    8.8850   -2.9633 C   0  0  0  0  0  0  0  0  0  0  0  0
   -1.9520    9.4564   -2.1947 C   0  0  0  0  0  0  0  0  0  0  0  0
   -4.1187    6.9512   -1.6563 C   0  0  0  0  0  0  0  0  0  0  0  0
   -4.1742    5.5887   -1.3429 C   0  0  0  0  0  0  0  0  0  0  0  0
   -2.8128    2.9624   -0.2422 C   0  0  0  0  0  0  0  0  0  0  0  0
   -3.7048    2.2838    0.5614 C   0  0  0  0  0  0  0  0  0  0  0  0
   -4.9209    2.0922   -0.1632 C   0  0  0  0  0  0  0  0  0  0  0  0
   -6.5030    1.6507    0.1651 S   0  0  0  0  0  0  0  0  0  0  0  0
   -2.9132    1.3253    1.6919 S   0  0  0  0  0  0  0  0  0  0  0  0
   -1.3748    1.9238    1.2666 C   0  0  0  0  0  0  0  0  0  0  0  0
   -0.1249    1.4579    1.7004 C   0  0  0  0  0  0  0  0  0  0  0  0
    1.0320    2.0726    1.1636 C   0  0  0  0  0  0  0  0  0  0  0  0
    0.9115    3.1140    0.2230 C   0  0  0  0  0  0  0  0  0  0  0  0
   -0.3436    3.4941   -0.2844 C   0  0  0  0  0  0  0  0  0  0  0  0
   -0.4879    4.5216   -1.2283 O   0  0  0  0  0  0  0  0  0  0  0  0
    0.5571    5.3424   -1.7492 C   0  0  0  0  0  0  0  0  0  0  0  0
    1.3029    4.6202   -2.8720 C   0  0  0  0  0  0  0  0  0  0  0  0
   -1.4839    2.8527    0.2204 C   0  0  0  0  0  0  0  0  0  0  0  0
    2.2821    1.5514    1.5205 C   0  0  0  0  0  0  0  0  0  0  0  0
    2.4136    0.3819    2.2899 C   0  0  0  0  0  0  0  0  0  0  0  0
    1.2622   -0.2618    2.7898 C   0  0  0  0  0  0  0  0  0  0  0  0
    0.0001    0.3260    2.5372 C   0  0  0  0  0  0  0  0  0  0  0  0
    1.3890   -1.4681    3.4900 O   0  0  0  0  0  0  0  0  0  0  0  0
    0.3033   -2.1829    4.0784 C   0  0  0  0  0  0  0  0  0  0  0  0
    0.8284   -3.4524    4.7475 C   0  0  0  0  0  0  0  0  0  0  0  0
    3.7602   -0.0729    2.3213 C   0  0  0  0  0  0  0  0  0  0  0  0
    4.6099    0.7639    1.6249 C   0  0  0  0  0  0  0  0  0  0  0  0
    3.7790    2.0047    0.8745 S   0  0  0  0  0  0  0  0  0  0  0  0
    5.7340    0.0163    1.1596 C   0  0  0  0  0  0  0  0  0  0  0  0
    6.6148    0.0943   -0.2637 S   0  0  0  0  0  0  0  0  0  0  0  0
    6.9118   -1.5739   -0.3172 C   0  0  0  0  0  0  0  0  0  0  0  0
    6.2891   -2.1981    0.7711 C   0  0  0  0  0  0  0  0  0  0  0  0
    5.5920   -1.2804    1.5644 C   0  0  0  0  0  0  0  0  0  0  0  0
    4.4004   -1.4741    2.4944 C   0  0  0  0  0  0  0  0  0  0  0  0
    3.5358   -2.6211    1.9548 C   0  0  0  0  0  0  0  0  0  0  0  0
    2.7301   -2.4397    0.8050 C   0  0  0  0  0  0  0  0  0  0  0  0
    1.9798   -3.4900    0.2787 C   0  0  0  0  0  0  0  0  0  0  0  0
    2.0768   -4.7753    0.8373 C   0  0  0  0  0  0  0  0  0  0  0  0
    1.2390   -5.9034    0.2913 C   0  0  0  0  0  0  0  0  0  0  0  0
   -0.0978   -5.9869    1.0206 C   0  0  0  0  0  0  0  0  0  0  0  0
    2.9195   -4.9849    1.9360 C   0  0  0  0  0  0  0  0  0  0  0  0
    3.6477   -3.9264    2.4850 C   0  0  0  0  0  0  0  0  0  0  0  0
    4.8871   -1.6914    3.9443 C   0  0  0  0  0  0  0  0  0  0  0  0
    4.0977   -1.2855    5.0432 C   0  0  0  0  0  0  0  0  0  0  0  0
    4.4769   -1.5904    6.3514 C   0  0  0  0  0  0  0  0  0  0  0  0
    5.6704   -2.2887    6.6043 C   0  0  0  0  0  0  0  0  0  0  0  0
    6.0658   -2.6275    8.0148 C   0  0  0  0  0  0  0  0  0  0  0  0
    6.6249   -1.4030    8.7363 C   0  0  0  0  0  0  0  0  0  0  0  0
    6.4843   -2.6624    5.5247 C   0  0  0  0  0  0  0  0  0  0  0  0
    6.0947   -2.3752    4.2152 C   0  0  0  0  0  0  0  0  0  0  0  0
    7.7541   -2.1940   -1.3547 C   0  0  0  0  0  0  0  0  0  0  0  0
    7.5680   -3.4124   -1.9049 C   0  0  0  0  0  0  0  0  0  0  0  0
    6.5157   -4.3792   -1.5710 C   0  0  0  0  0  0  0  0  0  0  0  0
    5.3544   -4.1004   -1.1789 O   0  0  0  0  0  0  0  0  0  0  0  0
    6.9602   -5.6970   -1.9920 C   0  0  0  0  0  0  0  0  0  0  0  0
    8.1437   -5.5660   -2.7058 C   0  0  0  0  0  0  0  0  0  0  0  0
    8.8136   -6.7093   -3.1744 C   0  0  0  0  0  0  0  0  0  0  0  0
    8.2502   -7.9685   -2.9329 C   0  0  0  0  0  0  0  0  0  0  0  0
    7.0484   -8.0926   -2.2128 C   0  0  0  0  0  0  0  0  0  0  0  0
    6.3437   -9.8546   -1.9193 Br  0  0  0  0  0  0  0  0  0  0  0  0
    6.3929   -6.9465   -1.7159 C   0  0  0  0  0  0  0  0  0  0  0  0
    4.9275   -7.0813   -0.7471 Cl  0  0  0  0  0  0  0  0  0  0  0  0
    8.5221   -4.1271   -2.8021 C   0  0  0  0  0  0  0  0  0  0  0  0
    9.3833   -3.5576   -3.6927 C   0  0  0  0  0  0  0  0  0  0  0  0
   10.2431   -4.3309   -4.5547 C   0  0  0  0  0  0  0  0  0  0  0  0
   10.9479   -4.9319   -5.2522 N   0  0  0  0  0  0  0  0  0  0  0  0
    9.4576   -2.1340   -3.9004 C   0  0  0  0  0  0  0  0  0  0  0  0
    9.5417   -0.9886   -4.0462 N   0  0  0  0  0  0  0  0  0  0  0  0
   -8.7244    3.1853   -2.2969 H   0  0  0  0  0  0  0  0  0  0  0  0
   -6.1015    3.1887   -3.0699 H   0  0  0  0  0  0  0  0  0  0  0  0
   -3.9612    3.0911   -4.3517 H   0  0  0  0  0  0  0  0  0  0  0  0
   -3.2445    1.4778   -6.0362 H   0  0  0  0  0  0  0  0  0  0  0  0
   -1.8338   -0.3500   -6.7251 H   0  0  0  0  0  0  0  0  0  0  0  0
   -0.5770   -0.9666   -5.6045 H   0  0  0  0  0  0  0  0  0  0  0  0
   -3.5563   -1.7979   -5.5312 H   0  0  0  0  0  0  0  0  0  0  0  0
   -2.2251   -2.7245   -6.3273 H   0  0  0  0  0  0  0  0  0  0  0  0
   -2.2031   -2.4963   -4.5407 H   0  0  0  0  0  0  0  0  0  0  0  0
   -1.0227   -0.6808   -3.0491 H   0  0  0  0  0  0  0  0  0  0  0  0
   -1.7480    0.8778   -1.3626 H   0  0  0  0  0  0  0  0  0  0  0  0
   -1.8863    4.4688   -3.6147 H   0  0  0  0  0  0  0  0  0  0  0  0
   -1.8263    6.8268   -4.1731 H   0  0  0  0  0  0  0  0  0  0  0  0
   -2.9798    9.0494   -4.0558 H   0  0  0  0  0  0  0  0  0  0  0  0
   -4.0683    9.4322   -2.6713 H   0  0  0  0  0  0  0  0  0  0  0  0
   -1.9071   10.5571   -2.3275 H   0  0  0  0  0  0  0  0  0  0  0  0
   -2.0452    9.2354   -1.1110 H   0  0  0  0  0  0  0  0  0  0  0  0
   -1.0052    9.0159   -2.5750 H   0  0  0  0  0  0  0  0  0  0  0  0
   -4.7146    7.6519   -1.0809 H   0  0  0  0  0  0  0  0  0  0  0  0
   -4.8213    5.2704   -0.5352 H   0  0  0  0  0  0  0  0  0  0  0  0
    1.8062    3.5909   -0.1469 H   0  0  0  0  0  0  0  0  0  0  0  0
    0.0981    6.2630   -2.1657 H   0  0  0  0  0  0  0  0  0  0  0  0
    1.2545    5.6560   -0.9444 H   0  0  0  0  0  0  0  0  0  0  0  0
    0.5873    4.2786   -3.6510 H   0  0  0  0  0  0  0  0  0  0  0  0
    2.0245    5.3223   -3.3412 H   0  0  0  0  0  0  0  0  0  0  0  0
    1.8637    3.7544   -2.4787 H   0  0  0  0  0  0  0  0  0  0  0  0
   -0.8894   -0.1480    2.9192 H   0  0  0  0  0  0  0  0  0  0  0  0
   -0.1948   -1.5488    4.8418 H   0  0  0  0  0  0  0  0  0  0  0  0
   -0.4351   -2.4680    3.3001 H   0  0  0  0  0  0  0  0  0  0  0  0
    1.7111   -3.2129    5.3832 H   0  0  0  0  0  0  0  0  0  0  0  0
    1.1166   -4.1952    3.9738 H   0  0  0  0  0  0  0  0  0  0  0  0
    0.0363   -3.8973    5.3861 H   0  0  0  0  0  0  0  0  0  0  0  0
    6.2899   -3.2628    0.9609 H   0  0  0  0  0  0  0  0  0  0  0  0
    2.6800   -1.4778    0.3138 H   0  0  0  0  0  0  0  0  0  0  0  0
    1.3431   -3.3111   -0.5746 H   0  0  0  0  0  0  0  0  0  0  0  0
    1.0645   -5.7607   -0.7982 H   0  0  0  0  0  0  0  0  0  0  0  0
    1.7762   -6.8739    0.4086 H   0  0  0  0  0  0  0  0  0  0  0  0
    0.0624   -6.2224    2.0953 H   0  0  0  0  0  0  0  0  0  0  0  0
   -0.6450   -5.0236    0.9290 H   0  0  0  0  0  0  0  0  0  0  0  0
   -0.7205   -6.7844    0.5632 H   0  0  0  0  0  0  0  0  0  0  0  0
    3.0036   -5.9724    2.3697 H   0  0  0  0  0  0  0  0  0  0  0  0
    4.2951   -4.1455    3.3226 H   0  0  0  0  0  0  0  0  0  0  0  0
    3.1920   -0.7204    4.8996 H   0  0  0  0  0  0  0  0  0  0  0  0
    3.8543   -1.2709    7.1727 H   0  0  0  0  0  0  0  0  0  0  0  0
    5.1825   -3.0157    8.5713 H   0  0  0  0  0  0  0  0  0  0  0  0
    6.8442   -3.4337    8.0285 H   0  0  0  0  0  0  0  0  0  0  0  0
    5.8721   -0.5825    8.7483 H   0  0  0  0  0  0  0  0  0  0  0  0
    7.5504   -1.0533    8.2269 H   0  0  0  0  0  0  0  0  0  0  0  0
    6.8807   -1.6735    9.7896 H   0  0  0  0  0  0  0  0  0  0  0  0
    7.4153   -3.1864    5.7002 H   0  0  0  0  0  0  0  0  0  0  0  0
    6.7318   -2.7243    3.4132 H   0  0  0  0  0  0  0  0  0  0  0  0
    8.6083   -1.5991   -1.6404 H   0  0  0  0  0  0  0  0  0  0  0  0
    9.7653   -6.6538   -3.6850 H   0  0  0  0  0  0  0  0  0  0  0  0
    8.7729   -8.8550   -3.2716 H   0  0  0  0  0  0  0  0  0  0  0  0
  1  2  2  3
  2  3  1  0
  3  4  2  0
  3  5  1  0
  5  6  2  0
  6  7  1  0
  6  8  1  0
  8  9  1  0
  8 10  2  0
 10 11  1  0
 10 12  1  0
 12 13  1  0
 12 14  2  0
 14 15  1  0
 15 16  2  3
 16 17  1  0
 17 18  3  0
 16 19  1  0
 19 20  3  0
  1 21  1  0
 21 22  2  0
 22 23  1  0
 23 24  1  0
 24 25  1  0
 25 26  2  0
 26 27  1  0
 27 28  2  0
 28 29  1  0
 29 30  1  0
 28 31  1  0
 31 32  2  0
 24 33  1  0
 33 34  2  0
 34 35  1  0
 35 36  2  0
 36 37  1  0
 37 38  1  0
 36 39  1  0
 39 40  2  0
 24 41  1  0
 41 42  2  0
 42 43  1  0
 43 44  1  0
 42 45  1  0
 45 46  1  0
 46 47  2  0
 47 48  1  0
 48 49  2  0
 49 50  1  0
 50 51  1  0
 51 52  1  0
 52 53  1  0
 50 54  2  0
 48 55  1  0
 55 56  2  0
 56 57  1  0
 57 58  2  0
 57 59  1  0
 59 60  1  0
 60 61  1  0
 56 62  1  0
 62 63  2  0
 63 64  1  0
 63 65  1  0
 65 66  1  0
 66 67  1  0
 67 68  2  0
 68 69  1  0
 69 70  1  0
 70 71  1  0
 71 72  2  0
 72 73  1  0
 73 74  2  0
 74 75  1  0
 75 76  1  0
 74 77  1  0
 77 78  2  0
 70 79  1  0
 79 80  2  0
 80 81  1  0
 81 82  2  0
 82 83  1  0
 83 84  1  0
 82 85  1  0
 85 86  2  0
 67 87  1  0
 87 88  2  3
 88 89  1  0
 89 90  2  0
 89 91  1  0
 91 92  2  0
 92 93  1  0
 93 94  2  0
 94 95  1  0
 95 96  1  0
 95 97  2  0
 97 98  1  0
 92 99  1  0
 99100  2  3
100101  1  0
101102  3  0
100103  1  0
103104  3  0
 15  2  1  0
 44 21  1  0
 54 46  1  0
 64 55  1  0
 69 65  2  0
 78 71  1  0
 86 79  1  0
 99 88  1  0
 14  5  1  0
 43 23  2  0
 58 47  1  0
 70 62  1  0
 97 91  1  0
 32 25  1  0
 40 33  1  0
 54 41  1  0
  1105  1  0
 22106  1  0
 26107  1  0
 27108  1  0
 29109  1  0
 29110  1  0
 30111  1  0
 30112  1  0
 30113  1  0
 31114  1  0
 32115  1  0
 34116  1  0
 35117  1  0
 37118  1  0
 37119  1  0
 38120  1  0
 38121  1  0
 38122  1  0
 39123  1  0
 40124  1  0
 49125  1  0
 52126  1  0
 52127  1  0
 53128  1  0
 53129  1  0
 53130  1  0
 58131  1  0
 60132  1  0
 60133  1  0
 61134  1  0
 61135  1  0
 61136  1  0
 68137  1  0
 72138  1  0
 73139  1  0
 75140  1  0
 75141  1  0
 76142  1  0
 76143  1  0
 76144  1  0
 77145  1  0
 78146  1  0
 80147  1  0
 81148  1  0
 83149  1  0
 83150  1  0
 84151  1  0
 84152  1  0
 84153  1  0
 85154  1  0
 86155  1  0
 87156  1  0
 93157  1  0
 94158  1  0
M  END

