
     RDKit          3D

103116  0  0  0  0  0  0  0  0999 V2000
    2.1649   -4.3725   -6.9742 C   0  0  0  0  0  0  0  0  0  0  0  0
    3.4930   -4.3823   -7.1901 C   0  0  0  0  0  0  0  0  0  0  0  0
    4.5409   -4.2482   -6.1694 C   0  0  0  0  0  0  0  0  0  0  0  0
    4.3722   -3.8770   -4.9772 O   0  0  0  0  0  0  0  0  0  0  0  0
    5.7847   -4.7675   -6.7213 C   0  0  0  0  0  0  0  0  0  0  0  0
    7.0063   -4.9903   -6.0722 C   0  0  0  0  0  0  0  0  0  0  0  0
    7.2723   -4.4191   -4.4276 Cl  0  0  0  0  0  0  0  0  0  0  0  0
    8.0024   -5.7162   -6.7533 C   0  0  0  0  0  0  0  0  0  0  0  0
    9.5588   -6.0115   -5.9755 Cl  0  0  0  0  0  0  0  0  0  0  0  0
    7.7321   -6.2675   -8.0303 C   0  0  0  0  0  0  0  0  0  0  0  0
    8.9492   -7.2630   -8.8370 Cl  0  0  0  0  0  0  0  0  0  0  0  0
    6.4885   -6.0349   -8.6580 C   0  0  0  0  0  0  0  0  0  0  0  0
    6.0603   -6.9465  -10.1101 Cl  0  0  0  0  0  0  0  0  0  0  0  0
    5.5520   -5.2014   -8.0163 C   0  0  0  0  0  0  0  0  0  0  0  0
    4.1766   -4.8141   -8.4345 C   0  0  0  0  0  0  0  0  0  0  0  0
    3.8193   -4.3980   -9.6773 C   0  0  0  0  0  0  0  0  0  0  0  0
    2.5225   -3.8285   -9.9472 C   0  0  0  0  0  0  0  0  0  0  0  0
    1.4816   -3.3747  -10.1702 N   0  0  0  0  0  0  0  0  0  0  0  0
    4.7974   -4.2204  -10.7195 C   0  0  0  0  0  0  0  0  0  0  0  0
    5.5900   -4.0512  -11.5507 N   0  0  0  0  0  0  0  0  0  0  0  0
    1.5596   -3.8730   -5.7319 C   0  0  0  0  0  0  0  0  0  0  0  0
    0.7396   -4.6203   -4.8813 C   0  0  0  0  0  0  0  0  0  0  0  0
    0.3933   -3.8701   -3.7621 C   0  0  0  0  0  0  0  0  0  0  0  0
   -0.4007   -4.2328   -2.3254 S   0  0  0  0  0  0  0  0  0  0  0  0
   -0.1019   -2.6974   -1.6384 C   0  0  0  0  0  0  0  0  0  0  0  0
   -0.4139   -2.2609   -0.3382 C   0  0  0  0  0  0  0  0  0  0  0  0
   -1.0407   -3.1800    0.6236 C   0  0  0  0  0  0  0  0  0  0  0  0
   -0.2543   -4.5023    1.2974 S   0  0  0  0  0  0  0  0  0  0  0  0
   -1.5952   -5.1119    2.1075 C   0  0  0  0  0  0  0  0  0  0  0  0
   -1.6028   -6.3952    2.8833 C   0  0  0  0  0  0  0  0  0  0  0  0
   -2.1997   -7.5306    2.0526 C   0  0  0  0  0  0  0  0  0  0  0  0
   -2.6923   -4.2890    1.8359 C   0  0  0  0  0  0  0  0  0  0  0  0
   -4.3095   -4.5934    2.4549 Cl  0  0  0  0  0  0  0  0  0  0  0  0
   -2.3803   -3.2091    0.9984 C   0  0  0  0  0  0  0  0  0  0  0  0
   -3.5658   -2.0384    0.4372 Cl  0  0  0  0  0  0  0  0  0  0  0  0
    0.0035   -0.9606    0.0152 C   0  0  0  0  0  0  0  0  0  0  0  0
    0.7185   -0.1575   -0.8958 C   0  0  0  0  0  0  0  0  0  0  0  0
    1.0341   -0.5986   -2.1900 C   0  0  0  0  0  0  0  0  0  0  0  0
    1.8168    0.2434   -3.1065 C   0  0  0  0  0  0  0  0  0  0  0  0
    3.4814    0.4214   -3.0361 S   0  0  0  0  0  0  0  0  0  0  0  0
    3.6111    1.3844   -4.4093 C   0  0  0  0  0  0  0  0  0  0  0  0
    4.8904    1.9930   -4.9009 C   0  0  0  0  0  0  0  0  0  0  0  0
    5.0951    3.3702   -4.2818 C   0  0  0  0  0  0  0  0  0  0  0  0
    2.3366    1.5932   -4.9368 C   0  0  0  0  0  0  0  0  0  0  0  0
    1.3295    0.9415   -4.2097 C   0  0  0  0  0  0  0  0  0  0  0  0
   -0.3745    0.9881   -4.6463 Cl  0  0  0  0  0  0  0  0  0  0  0  0
    2.0161    2.5716   -6.3642 Cl  0  0  0  0  0  0  0  0  0  0  0  0
    0.6059   -1.8906   -2.5471 C   0  0  0  0  0  0  0  0  0  0  0  0
    0.8753   -2.5956   -3.7261 C   0  0  0  0  0  0  0  0  0  0  0  0
    1.7872   -2.3030   -5.1032 S   0  0  0  0  0  0  0  0  0  0  0  0
    1.1229    1.3403   -0.1938 S   0  0  0  0  0  0  0  0  0  0  0  0
    0.3849    0.9642    1.2631 C   0  0  0  0  0  0  0  0  0  0  0  0
    0.2279    1.6681    2.4521 C   0  0  0  0  0  0  0  0  0  0  0  0
   -0.5272    0.9200    3.3636 C   0  0  0  0  0  0  0  0  0  0  0  0
   -0.9132   -0.6050    2.6924 S   0  0  0  0  0  0  0  0  0  0  0  0
   -0.1711   -0.2789    1.2239 C   0  0  0  0  0  0  0  0  0  0  0  0
   -0.8955    1.3414    4.7260 C   0  0  0  0  0  0  0  0  0  0  0  0
   -1.3828    2.5585    5.0423 C   0  0  0  0  0  0  0  0  0  0  0  0
   -1.9172    3.5505    4.0979 C   0  0  0  0  0  0  0  0  0  0  0  0
   -1.8936    3.4807    2.8453 O   0  0  0  0  0  0  0  0  0  0  0  0
   -2.6762    4.5326    4.8388 C   0  0  0  0  0  0  0  0  0  0  0  0
   -3.3378    5.6650    4.3145 C   0  0  0  0  0  0  0  0  0  0  0  0
   -4.0437    6.3851    5.2577 C   0  0  0  0  0  0  0  0  0  0  0  0
   -4.1335    5.9998    6.6342 C   0  0  0  0  0  0  0  0  0  0  0  0
   -3.4790    4.8953    7.1567 C   0  0  0  0  0  0  0  0  0  0  0  0
   -2.6963    4.1722    6.2101 C   0  0  0  0  0  0  0  0  0  0  0  0
   -1.7876    3.0072    6.4124 C   0  0  0  0  0  0  0  0  0  0  0  0
   -1.2032    2.6236    7.5825 C   0  0  0  0  0  0  0  0  0  0  0  0
   -1.6017    3.1573    8.8581 C   0  0  0  0  0  0  0  0  0  0  0  0
   -1.9065    3.5781    9.8914 N   0  0  0  0  0  0  0  0  0  0  0  0
    0.0191    1.8606    7.5909 C   0  0  0  0  0  0  0  0  0  0  0  0
    1.0220    1.2905    7.5851 N   0  0  0  0  0  0  0  0  0  0  0  0
   -5.0531    7.1486    6.9136 C   0  0  0  0  0  0  0  0  0  0  0  0
   -6.5748    6.8519    7.0756 C   0  0  0  0  0  0  0  0  0  0  0  0
   -6.9685    5.6641    6.2215 C   0  0  0  0  0  0  0  0  0  0  0  0
   -6.8667    6.0619    4.9518 C   0  0  0  0  0  0  0  0  0  0  0  0
   -6.3977    7.4959    4.9809 C   0  0  0  0  0  0  0  0  0  0  0  0
   -7.1467    7.9657    6.2148 C   0  0  0  0  0  0  0  0  0  0  0  0
   -4.9336    7.5613    5.5105 C   0  0  0  0  0  0  0  0  0  0  0  0
    1.4965   -4.7818   -7.7189 H   0  0  0  0  0  0  0  0  0  0  0  0
    0.4647   -5.6551   -5.0363 H   0  0  0  0  0  0  0  0  0  0  0  0
   -2.1786   -6.2697    3.8260 H   0  0  0  0  0  0  0  0  0  0  0  0
   -0.5599   -6.6593    3.1524 H   0  0  0  0  0  0  0  0  0  0  0  0
   -3.2802   -7.3450    1.8681 H   0  0  0  0  0  0  0  0  0  0  0  0
   -2.0886   -8.4885    2.6068 H   0  0  0  0  0  0  0  0  0  0  0  0
   -1.6722   -7.6231    1.0829 H   0  0  0  0  0  0  0  0  0  0  0  0
    4.8701    2.0802   -6.0064 H   0  0  0  0  0  0  0  0  0  0  0  0
    5.7434    1.3315   -4.6304 H   0  0  0  0  0  0  0  0  0  0  0  0
    5.1265    3.2895   -3.1772 H   0  0  0  0  0  0  0  0  0  0  0  0
    4.2736    4.0587   -4.5754 H   0  0  0  0  0  0  0  0  0  0  0  0
    6.0637    3.7863   -4.6298 H   0  0  0  0  0  0  0  0  0  0  0  0
    0.6284    2.6569    2.6368 H   0  0  0  0  0  0  0  0  0  0  0  0
   -0.8285    0.5836    5.4946 H   0  0  0  0  0  0  0  0  0  0  0  0
   -3.3263    5.9251    3.2613 H   0  0  0  0  0  0  0  0  0  0  0  0
   -3.5939    4.6204    8.1921 H   0  0  0  0  0  0  0  0  0  0  0  0
   -4.6409    7.8911    7.6299 H   0  0  0  0  0  0  0  0  0  0  0  0
   -6.9443    6.8243    8.1210 H   0  0  0  0  0  0  0  0  0  0  0  0
   -7.3307    4.6967    6.5602 H   0  0  0  0  0  0  0  0  0  0  0  0
   -7.1314    5.4731    4.0794 H   0  0  0  0  0  0  0  0  0  0  0  0
   -6.5908    8.0764    4.0539 H   0  0  0  0  0  0  0  0  0  0  0  0
   -6.8447    8.9854    6.5491 H   0  0  0  0  0  0  0  0  0  0  0  0
   -8.2572    7.9212    6.1009 H   0  0  0  0  0  0  0  0  0  0  0  0
   -4.4260    8.5406    5.3768 H   0  0  0  0  0  0  0  0  0  0  0  0
  1  2  2  3
  2  3  1  0
  3  4  2  0
  3  5  1  0
  5  6  2  0
  6  7  1  0
  6  8  1  0
  8  9  1  0
  8 10  2  0
 10 11  1  0
 10 12  1  0
 12 13  1  0
 12 14  2  0
 14 15  1  0
 15 16  2  3
 16 17  1  0
 17 18  3  0
 16 19  1  0
 19 20  3  0
  1 21  1  0
 21 22  2  0
 22 23  1  0
 23 24  1  0
 24 25  1  0
 25 26  2  0
 26 27  1  0
 27 28  1  0
 28 29  1  0
 29 30  1  0
 30 31  1  0
 29 32  2  0
 32 33  1  0
 32 34  1  0
 34 35  1  0
 26 36  1  0
 36 37  2  0
 37 38  1  0
 38 39  1  0
 39 40  1  0
 40 41  1  0
 41 42  1  0
 42 43  1  0
 41 44  2  0
 44 45  1  0
 45 46  1  0
 44 47  1  0
 38 48  2  0
 48 49  1  0
 49 50  1  0
 37 51  1  0
 51 52  1  0
 52 53  1  0
 53 54  2  0
 54 55  1  0
 55 56  1  0
 54 57  1  0
 57 58  2  3
 58 59  1  0
 59 60  2  0
 59 61  1  0
 61 62  2  0
 62 63  1  0
 63 64  2  0
 64 65  1  0
 65 66  2  0
 66 67  1  0
 67 68  2  3
 68 69  1  0
 69 70  3  0
 68 71  1  0
 71 72  3  0
 64 73  1  0
 73 74  1  0
 74 75  1  0
 75 76  2  0
 76 77  1  0
 77 78  1  0
 77 79  1  0
 15  2  1  0
 50 21  1  0
 56 52  2  0
 67 58  1  0
 79 73  1  0
 14  5  1  0
 49 23  2  0
 66 61  1  0
 78 74  1  0
 48 25  1  0
 79 63  1  0
 34 27  2  0
 56 36  1  0
 45 39  2  0
  1 80  1  0
 22 81  1  0
 30 82  1  0
 30 83  1  0
 31 84  1  0
 31 85  1  0
 31 86  1  0
 42 87  1  0
 42 88  1  0
 43 89  1  0
 43 90  1  0
 43 91  1  0
 53 92  1  0
 57 93  1  0
 62 94  1  0
 65 95  1  0
 73 96  1  0
 74 97  1  0
 75 98  1  0
 76 99  1  0
 77100  1  0
 78101  1  0
 78102  1  0
 79103  1  0
M  END

