
     RDKit          3D

165183  0  0  0  0  0  0  0  0999 V2000
    7.3967   -3.1106   -6.0849 C   0  0  0  0  0  0  0  0  0  0  0  0
    7.6116   -2.1112   -6.9700 C   0  0  0  0  0  0  0  0  0  0  0  0
    7.2483   -0.7062   -6.7695 C   0  0  0  0  0  0  0  0  0  0  0  0
    6.8589   -0.2062   -5.6778 O   0  0  0  0  0  0  0  0  0  0  0  0
    7.5179    0.0347   -7.9862 C   0  0  0  0  0  0  0  0  0  0  0  0
    7.1716    1.3590   -8.2909 C   0  0  0  0  0  0  0  0  0  0  0  0
    6.5286    2.4278   -7.0513 Cl  0  0  0  0  0  0  0  0  0  0  0  0
    7.3271    1.8012   -9.6157 C   0  0  0  0  0  0  0  0  0  0  0  0
    6.9084    3.4629  -10.0389 Cl  0  0  0  0  0  0  0  0  0  0  0  0
    7.7103    0.8844  -10.6273 C   0  0  0  0  0  0  0  0  0  0  0  0
    7.7158    1.4036  -12.3161 Cl  0  0  0  0  0  0  0  0  0  0  0  0
    8.0141   -0.4528  -10.3033 C   0  0  0  0  0  0  0  0  0  0  0  0
    8.0680   -1.6499  -11.5946 Cl  0  0  0  0  0  0  0  0  0  0  0  0
    8.0426   -0.8312   -8.9388 C   0  0  0  0  0  0  0  0  0  0  0  0
    8.2849   -2.1674   -8.3076 C   0  0  0  0  0  0  0  0  0  0  0  0
    9.1503   -3.1192   -8.7490 C   0  0  0  0  0  0  0  0  0  0  0  0
   10.1306   -2.8490   -9.7684 C   0  0  0  0  0  0  0  0  0  0  0  0
   10.9113   -2.6602  -10.6063 N   0  0  0  0  0  0  0  0  0  0  0  0
    9.1187   -4.4781   -8.2754 C   0  0  0  0  0  0  0  0  0  0  0  0
    9.0765   -5.5838   -7.9381 N   0  0  0  0  0  0  0  0  0  0  0  0
    6.3468   -3.0482   -5.0542 C   0  0  0  0  0  0  0  0  0  0  0  0
    6.4210   -3.8858   -3.5655 S   0  0  0  0  0  0  0  0  0  0  0  0
    4.7930   -3.6306   -3.2456 C   0  0  0  0  0  0  0  0  0  0  0  0
    3.9555   -3.5996   -2.1668 C   0  0  0  0  0  0  0  0  0  0  0  0
    4.2299   -3.3399   -0.5158 S   0  0  0  0  0  0  0  0  0  0  0  0
    2.7990   -2.4345   -0.3494 C   0  0  0  0  0  0  0  0  0  0  0  0
    1.8938   -2.2563    0.7628 C   0  0  0  0  0  0  0  0  0  0  0  0
    2.1425   -1.7360    2.0459 C   0  0  0  0  0  0  0  0  0  0  0  0
    1.0119   -1.4404    2.8354 C   0  0  0  0  0  0  0  0  0  0  0  0
    0.9124   -0.5380    4.0773 C   0  0  0  0  0  0  0  0  0  0  0  0
    1.0990    0.9546    3.7609 C   0  0  0  0  0  0  0  0  0  0  0  0
    0.9747    1.9020    4.7975 C   0  0  0  0  0  0  0  0  0  0  0  0
    1.0372    3.2734    4.5327 C   0  0  0  0  0  0  0  0  0  0  0  0
    1.2578    3.7391    3.2311 C   0  0  0  0  0  0  0  0  0  0  0  0
    1.3288    5.2190    2.9523 C   0  0  0  0  0  0  0  0  0  0  0  0
    0.2012    5.6861    2.0343 C   0  0  0  0  0  0  0  0  0  0  0  0
    1.4416    2.8078    2.1932 C   0  0  0  0  0  0  0  0  0  0  0  0
    1.3272    1.4372    2.4495 C   0  0  0  0  0  0  0  0  0  0  0  0
    1.8500   -1.0217    5.1816 C   0  0  0  0  0  0  0  0  0  0  0  0
    1.4314   -1.9492    6.1607 C   0  0  0  0  0  0  0  0  0  0  0  0
    2.2865   -2.3377    7.1942 C   0  0  0  0  0  0  0  0  0  0  0  0
    3.5917   -1.8334    7.2650 C   0  0  0  0  0  0  0  0  0  0  0  0
    4.5118   -2.2670    8.3717 C   0  0  0  0  0  0  0  0  0  0  0  0
    4.7962   -1.1196    9.3495 C   0  0  0  0  0  0  0  0  0  0  0  0
    4.0336   -0.9491    6.2689 C   0  0  0  0  0  0  0  0  0  0  0  0
    3.1765   -0.5576    5.2362 C   0  0  0  0  0  0  0  0  0  0  0  0
   -0.5656   -0.7411    4.3806 C   0  0  0  0  0  0  0  0  0  0  0  0
   -1.1862   -1.4351    3.4101 C   0  0  0  0  0  0  0  0  0  0  0  0
   -0.2598   -1.8281    2.4032 C   0  0  0  0  0  0  0  0  0  0  0  0
   -0.5144   -2.2201    1.0907 C   0  0  0  0  0  0  0  0  0  0  0  0
    0.6016   -2.3281    0.2489 C   0  0  0  0  0  0  0  0  0  0  0  0
    0.5836   -2.4367   -1.2672 C   0  0  0  0  0  0  0  0  0  0  0  0
   -0.0823   -3.7829   -1.6086 C   0  0  0  0  0  0  0  0  0  0  0  0
   -1.3964   -3.8492   -2.1251 C   0  0  0  0  0  0  0  0  0  0  0  0
   -2.0434   -5.0673   -2.2939 C   0  0  0  0  0  0  0  0  0  0  0  0
   -1.4467   -6.2627   -1.8627 C   0  0  0  0  0  0  0  0  0  0  0  0
   -2.1776   -7.5700   -1.9898 C   0  0  0  0  0  0  0  0  0  0  0  0
   -3.4341   -7.5783   -1.1146 C   0  0  0  0  0  0  0  0  0  0  0  0
   -0.1501   -6.2184   -1.3363 C   0  0  0  0  0  0  0  0  0  0  0  0
    0.5249   -4.9924   -1.2102 C   0  0  0  0  0  0  0  0  0  0  0  0
   -0.0670   -1.2255   -1.9620 C   0  0  0  0  0  0  0  0  0  0  0  0
   -0.4565   -0.0568   -1.2683 C   0  0  0  0  0  0  0  0  0  0  0  0
   -1.0367    1.0211   -1.9408 C   0  0  0  0  0  0  0  0  0  0  0  0
   -1.2113    0.9814   -3.3320 C   0  0  0  0  0  0  0  0  0  0  0  0
   -1.7695    2.1730   -4.0542 C   0  0  0  0  0  0  0  0  0  0  0  0
   -3.1031    1.8541   -4.7284 C   0  0  0  0  0  0  0  0  0  0  0  0
   -0.7858   -0.1548   -4.0356 C   0  0  0  0  0  0  0  0  0  0  0  0
   -0.2315   -1.2445   -3.3582 C   0  0  0  0  0  0  0  0  0  0  0  0
    2.0858   -2.4093   -1.5216 C   0  0  0  0  0  0  0  0  0  0  0  0
    2.8237   -2.9280   -2.5938 C   0  0  0  0  0  0  0  0  0  0  0  0
    3.0352   -2.3417   -3.8048 N   0  0  0  0  0  0  0  0  0  0  0  0
    4.2117   -2.8810   -4.2118 C   0  0  0  0  0  0  0  0  0  0  0  0
    5.0609   -2.5191   -5.2503 C   0  0  0  0  0  0  0  0  0  0  0  0
    2.7250   -0.9578   -4.0740 C   0  0  0  0  0  0  0  0  0  0  0  0
    2.3458   -0.4125   -5.2948 C   0  0  0  0  0  0  0  0  0  0  0  0
    2.1357    0.9745   -5.2208 C   0  0  0  0  0  0  0  0  0  0  0  0
    2.4086    1.5152   -3.9659 C   0  0  0  0  0  0  0  0  0  0  0  0
    2.1132    2.9178   -3.5213 C   0  0  0  0  0  0  0  0  0  0  0  0
    3.2166    3.4667   -2.6123 C   0  0  0  0  0  0  0  0  0  0  0  0
    2.8778    0.2726   -2.9412 S   0  0  0  0  0  0  0  0  0  0  0  0
   -2.8304   -1.4711    3.6119 S   0  0  0  0  0  0  0  0  0  0  0  0
   -2.7731   -0.5964    5.0766 C   0  0  0  0  0  0  0  0  0  0  0  0
   -1.4472   -0.2465    5.3505 C   0  0  0  0  0  0  0  0  0  0  0  0
   -3.9239   -0.0550    5.8617 C   0  0  0  0  0  0  0  0  0  0  0  0
   -5.2124   -0.0205    5.4561 C   0  0  0  0  0  0  0  0  0  0  0  0
   -5.7538   -0.6810    4.2662 C   0  0  0  0  0  0  0  0  0  0  0  0
   -5.6679   -1.9038    3.9976 O   0  0  0  0  0  0  0  0  0  0  0  0
   -6.6252    0.2534    3.5861 C   0  0  0  0  0  0  0  0  0  0  0  0
   -7.0748    0.1777    2.2420 C   0  0  0  0  0  0  0  0  0  0  0  0
   -7.6901    1.3365    1.8063 C   0  0  0  0  0  0  0  0  0  0  0  0
   -7.8579    2.4991    2.6302 C   0  0  0  0  0  0  0  0  0  0  0  0
   -7.4278    2.5768    3.9399 C   0  0  0  0  0  0  0  0  0  0  0  0
   -6.8005    1.3932    4.4152 C   0  0  0  0  0  0  0  0  0  0  0  0
   -6.0791    1.1607    5.6934 C   0  0  0  0  0  0  0  0  0  0  0  0
   -6.2718    1.7956    6.8730 C   0  0  0  0  0  0  0  0  0  0  0  0
   -5.6951    1.3049    8.0995 C   0  0  0  0  0  0  0  0  0  0  0  0
   -5.2442    0.9038    9.0833 N   0  0  0  0  0  0  0  0  0  0  0  0
   -7.2256    2.8684    7.0101 C   0  0  0  0  0  0  0  0  0  0  0  0
   -7.9865    3.7309    7.1354 N   0  0  0  0  0  0  0  0  0  0  0  0
   -8.4272    3.2520    1.4710 C   0  0  0  0  0  0  0  0  0  0  0  0
   -7.4798    4.2996    0.7987 C   0  0  0  0  0  0  0  0  0  0  0  0
   -8.0967    4.6222   -0.5422 C   0  0  0  0  0  0  0  0  0  0  0  0
   -7.9404    3.5331   -1.3020 C   0  0  0  0  0  0  0  0  0  0  0  0
   -7.2268    2.5108   -0.4526 C   0  0  0  0  0  0  0  0  0  0  0  0
   -6.3072    3.4528    0.3158 C   0  0  0  0  0  0  0  0  0  0  0  0
   -8.2566    2.0580    0.6270 C   0  0  0  0  0  0  0  0  0  0  0  0
    7.8643   -4.0624   -6.1919 H   0  0  0  0  0  0  0  0  0  0  0  0
    3.1331   -1.4322    2.3399 H   0  0  0  0  0  0  0  0  0  0  0  0
    0.8116    1.5772    5.8149 H   0  0  0  0  0  0  0  0  0  0  0  0
    0.9069    3.9765    5.3494 H   0  0  0  0  0  0  0  0  0  0  0  0
    1.2659    5.8005    3.9030 H   0  0  0  0  0  0  0  0  0  0  0  0
    2.3077    5.4599    2.4871 H   0  0  0  0  0  0  0  0  0  0  0  0
    0.2856    5.1967    1.0376 H   0  0  0  0  0  0  0  0  0  0  0  0
    0.2749    6.7852    1.8813 H   0  0  0  0  0  0  0  0  0  0  0  0
   -0.7864    5.4427    2.4818 H   0  0  0  0  0  0  0  0  0  0  0  0
    1.6478    3.1507    1.1869 H   0  0  0  0  0  0  0  0  0  0  0  0
    1.4031    0.7729    1.6012 H   0  0  0  0  0  0  0  0  0  0  0  0
    0.4301   -2.3584    6.1417 H   0  0  0  0  0  0  0  0  0  0  0  0
    1.9291   -3.0320    7.9413 H   0  0  0  0  0  0  0  0  0  0  0  0
    4.0702   -3.1114    8.9414 H   0  0  0  0  0  0  0  0  0  0  0  0
    5.4775   -2.6225    7.9402 H   0  0  0  0  0  0  0  0  0  0  0  0
    5.3544   -1.5212   10.2112 H   0  0  0  0  0  0  0  0  0  0  0  0
    5.3983   -0.3322    8.8530 H   0  0  0  0  0  0  0  0  0  0  0  0
    3.8355   -0.6815    9.7100 H   0  0  0  0  0  0  0  0  0  0  0  0
    5.0527   -0.5786    6.2803 H   0  0  0  0  0  0  0  0  0  0  0  0
    3.5571    0.1176    4.4804 H   0  0  0  0  0  0  0  0  0  0  0  0
   -1.5292   -2.3150    0.7122 H   0  0  0  0  0  0  0  0  0  0  0  0
   -1.9528   -2.9617   -2.3940 H   0  0  0  0  0  0  0  0  0  0  0  0
   -3.0419   -5.0833   -2.7202 H   0  0  0  0  0  0  0  0  0  0  0  0
   -2.4763   -7.7316   -3.0504 H   0  0  0  0  0  0  0  0  0  0  0  0
   -1.5304   -8.4225   -1.6765 H   0  0  0  0  0  0  0  0  0  0  0  0
   -3.9265   -8.5724   -1.1908 H   0  0  0  0  0  0  0  0  0  0  0  0
   -3.1600   -7.3984   -0.0557 H   0  0  0  0  0  0  0  0  0  0  0  0
   -4.1563   -6.8062   -1.4631 H   0  0  0  0  0  0  0  0  0  0  0  0
    0.3392   -7.1204   -0.9939 H   0  0  0  0  0  0  0  0  0  0  0  0
    1.5118   -5.0084   -0.7747 H   0  0  0  0  0  0  0  0  0  0  0  0
   -0.3064    0.0517   -0.2043 H   0  0  0  0  0  0  0  0  0  0  0  0
   -1.3098    1.9045   -1.3748 H   0  0  0  0  0  0  0  0  0  0  0  0
   -1.0367    2.5084   -4.8247 H   0  0  0  0  0  0  0  0  0  0  0  0
   -1.9320    3.0248   -3.3571 H   0  0  0  0  0  0  0  0  0  0  0  0
   -3.8286    1.4560   -3.9842 H   0  0  0  0  0  0  0  0  0  0  0  0
   -3.5228    2.7779   -5.1776 H   0  0  0  0  0  0  0  0  0  0  0  0
   -2.9340    1.1078   -5.5466 H   0  0  0  0  0  0  0  0  0  0  0  0
   -0.8733   -0.1995   -5.1189 H   0  0  0  0  0  0  0  0  0  0  0  0
    0.0864   -2.1057   -3.9360 H   0  0  0  0  0  0  0  0  0  0  0  0
    4.7684   -1.9182   -6.1052 H   0  0  0  0  0  0  0  0  0  0  0  0
    2.1801   -0.9973   -6.1903 H   0  0  0  0  0  0  0  0  0  0  0  0
    1.7973    1.5684   -6.0633 H   0  0  0  0  0  0  0  0  0  0  0  0
    1.9944    3.5809   -4.4049 H   0  0  0  0  0  0  0  0  0  0  0  0
    1.1522    2.9181   -2.9566 H   0  0  0  0  0  0  0  0  0  0  0  0
    3.2851    2.8702   -1.6745 H   0  0  0  0  0  0  0  0  0  0  0  0
    4.1854    3.4611   -3.1432 H   0  0  0  0  0  0  0  0  0  0  0  0
    2.9776    4.5131   -2.3455 H   0  0  0  0  0  0  0  0  0  0  0  0
   -1.1483    0.3622    6.1902 H   0  0  0  0  0  0  0  0  0  0  0  0
   -3.6334    0.5831    6.6818 H   0  0  0  0  0  0  0  0  0  0  0  0
   -6.8517   -0.6525    1.5930 H   0  0  0  0  0  0  0  0  0  0  0  0
   -7.4857    3.4952    4.4997 H   0  0  0  0  0  0  0  0  0  0  0  0
   -9.4785    3.5715    1.6189 H   0  0  0  0  0  0  0  0  0  0  0  0
   -7.2167    5.1763    1.4216 H   0  0  0  0  0  0  0  0  0  0  0  0
   -8.4958    5.5715   -0.8734 H   0  0  0  0  0  0  0  0  0  0  0  0
   -8.2055    3.4521   -2.3509 H   0  0  0  0  0  0  0  0  0  0  0  0
   -6.7229    1.6940   -1.0025 H   0  0  0  0  0  0  0  0  0  0  0  0
   -5.7321    2.9680    1.1335 H   0  0  0  0  0  0  0  0  0  0  0  0
   -5.5975    4.0111   -0.3336 H   0  0  0  0  0  0  0  0  0  0  0  0
   -9.2104    1.6244    0.2409 H   0  0  0  0  0  0  0  0  0  0  0  0
  1  2  2  3
  2  3  1  0
  3  4  2  0
  3  5  1  0
  5  6  2  0
  6  7  1  0
  6  8  1  0
  8  9  1  0
  8 10  2  0
 10 11  1  0
 10 12  1  0
 12 13  1  0
 12 14  2  0
 14 15  1  0
 15 16  2  3
 16 17  1  0
 17 18  3  0
 16 19  1  0
 19 20  3  0
  1 21  1  0
 21 22  1  0
 22 23  1  0
 23 24  1  0
 24 25  1  0
 25 26  1  0
 26 27  1  0
 27 28  2  0
 28 29  1  0
 29 30  1  0
 30 31  1  0
 31 32  2  0
 32 33  1  0
 33 34  2  0
 34 35  1  0
 35 36  1  0
 34 37  1  0
 37 38  2  0
 30 39  1  0
 39 40  2  0
 40 41  1  0
 41 42  2  0
 42 43  1  0
 43 44  1  0
 42 45  1  0
 45 46  2  0
 30 47  1  0
 47 48  2  0
 48 49  1  0
 49 50  1  0
 50 51  2  0
 51 52  1  0
 52 53  1  0
 53 54  2  0
 54 55  1  0
 55 56  2  0
 56 57  1  0
 57 58  1  0
 56 59  1  0
 59 60  2  0
 52 61  1  0
 61 62  2  0
 62 63  1  0
 63 64  2  0
 64 65  1  0
 65 66  1  0
 64 67  1  0
 67 68  2  0
 52 69  1  0
 69 70  1  0
 70 71  1  0
 71 72  1  0
 72 73  1  0
 71 74  1  0
 74 75  2  0
 75 76  1  0
 76 77  2  0
 77 78  1  0
 78 79  1  0
 77 80  1  0
 48 81  1  0
 81 82  1  0
 82 83  2  0
 82 84  1  0
 84 85  2  3
 85 86  1  0
 86 87  2  0
 86 88  1  0
 88 89  2  0
 89 90  1  0
 90 91  2  0
 91 92  1  0
 92 93  2  0
 93 94  1  0
 94 95  2  3
 95 96  1  0
 96 97  3  0
 95 98  1  0
 98 99  3  0
 91100  1  0
100101  1  0
101102  1  0
102103  2  0
103104  1  0
104105  1  0
104106  1  0
 15  2  1  0
 73 21  2  0
 80 74  1  0
 94 85  1  0
106100  1  0
 14  5  1  0
 72 23  2  0
 93 88  1  0
105101  1  0
 70 24  2  0
106 90  1  0
 69 26  2  0
 51 27  1  0
 60 53  1  0
 68 61  1  0
 49 29  2  0
 38 31  1  0
 46 39  1  0
 83 47  1  0
  1107  1  0
 28108  1  0
 32109  1  0
 33110  1  0
 35111  1  0
 35112  1  0
 36113  1  0
 36114  1  0
 36115  1  0
 37116  1  0
 38117  1  0
 40118  1  0
 41119  1  0
 43120  1  0
 43121  1  0
 44122  1  0
 44123  1  0
 44124  1  0
 45125  1  0
 46126  1  0
 50127  1  0
 54128  1  0
 55129  1  0
 57130  1  0
 57131  1  0
 58132  1  0
 58133  1  0
 58134  1  0
 59135  1  0
 60136  1  0
 62137  1  0
 63138  1  0
 65139  1  0
 65140  1  0
 66141  1  0
 66142  1  0
 66143  1  0
 67144  1  0
 68145  1  0
 73146  1  0
 75147  1  0
 76148  1  0
 78149  1  0
 78150  1  0
 79151  1  0
 79152  1  0
 79153  1  0
 83154  1  0
 84155  1  0
 89156  1  0
 92157  1  0
100158  1  0
101159  1  0
102160  1  0
103161  1  0
104162  1  0
105163  1  0
105164  1  0
106165  1  0
M  END

