
     RDKit          3D

163179  0  0  0  0  0  0  0  0999 V2000
    4.7912   -6.3677    0.4866 C   0  0  0  0  0  0  0  0  0  0  0  0
    3.6920   -7.0198    0.0614 C   0  0  0  0  0  0  0  0  0  0  0  0
    2.4477   -6.3897   -0.4029 C   0  0  0  0  0  0  0  0  0  0  0  0
    2.1933   -5.1526   -0.3751 O   0  0  0  0  0  0  0  0  0  0  0  0
    1.4599   -7.4294   -0.6256 C   0  0  0  0  0  0  0  0  0  0  0  0
    0.1121   -7.2966   -0.9798 C   0  0  0  0  0  0  0  0  0  0  0  0
   -0.5446   -5.7329   -1.4651 Cl  0  0  0  0  0  0  0  0  0  0  0  0
   -0.7045   -8.4447   -0.9508 C   0  0  0  0  0  0  0  0  0  0  0  0
   -2.4018   -8.3253   -1.4172 Cl  0  0  0  0  0  0  0  0  0  0  0  0
   -0.1798   -9.6757   -0.4908 C   0  0  0  0  0  0  0  0  0  0  0  0
   -1.2294  -11.0879   -0.3680 Cl  0  0  0  0  0  0  0  0  0  0  0  0
    1.1785   -9.7784   -0.1179 C   0  0  0  0  0  0  0  0  0  0  0  0
    1.7311  -11.1990    0.7625 Cl  0  0  0  0  0  0  0  0  0  0  0  0
    2.0122   -8.6526   -0.2839 C   0  0  0  0  0  0  0  0  0  0  0  0
    3.4582   -8.4909    0.0325 C   0  0  0  0  0  0  0  0  0  0  0  0
    4.4164   -9.4053   -0.2475 C   0  0  0  0  0  0  0  0  0  0  0  0
    4.1343  -10.5994   -1.0107 C   0  0  0  0  0  0  0  0  0  0  0  0
    3.9140  -11.5532   -1.6300 N   0  0  0  0  0  0  0  0  0  0  0  0
    5.8076   -9.1757    0.0442 C   0  0  0  0  0  0  0  0  0  0  0  0
    6.9306   -9.0066    0.2847 N   0  0  0  0  0  0  0  0  0  0  0  0
    5.0618   -4.9725    0.1144 C   0  0  0  0  0  0  0  0  0  0  0  0
    4.9140   -4.3911   -1.4826 S   0  0  0  0  0  0  0  0  0  0  0  0
    5.2334   -2.8195   -1.0273 C   0  0  0  0  0  0  0  0  0  0  0  0
    4.8127   -1.6067   -1.4715 C   0  0  0  0  0  0  0  0  0  0  0  0
    3.7972   -1.1236   -2.7272 S   0  0  0  0  0  0  0  0  0  0  0  0
    3.4294    0.2938   -1.8734 C   0  0  0  0  0  0  0  0  0  0  0  0
    2.4200    1.2912   -2.0223 C   0  0  0  0  0  0  0  0  0  0  0  0
    1.3579    1.2917   -2.9348 C   0  0  0  0  0  0  0  0  0  0  0  0
    0.2882    2.1530   -2.6634 C   0  0  0  0  0  0  0  0  0  0  0  0
   -1.0696    2.1900   -3.3665 C   0  0  0  0  0  0  0  0  0  0  0  0
   -1.8621    0.8804   -3.2425 C   0  0  0  0  0  0  0  0  0  0  0  0
   -1.6242   -0.0241   -2.1831 C   0  0  0  0  0  0  0  0  0  0  0  0
   -2.4560   -1.1282   -1.9849 C   0  0  0  0  0  0  0  0  0  0  0  0
   -3.5554   -1.3498   -2.8259 C   0  0  0  0  0  0  0  0  0  0  0  0
   -4.5014   -2.4894   -2.5553 C   0  0  0  0  0  0  0  0  0  0  0  0
   -5.6034   -2.0570   -1.5940 C   0  0  0  0  0  0  0  0  0  0  0  0
   -3.8208   -0.4396   -3.8576 C   0  0  0  0  0  0  0  0  0  0  0  0
   -2.9894    0.6653   -4.0604 C   0  0  0  0  0  0  0  0  0  0  0  0
   -0.8803    2.6734   -4.8091 C   0  0  0  0  0  0  0  0  0  0  0  0
   -0.9629    4.0429   -5.1463 C   0  0  0  0  0  0  0  0  0  0  0  0
   -0.7694    4.4683   -6.4590 C   0  0  0  0  0  0  0  0  0  0  0  0
   -0.4613    3.5471   -7.4653 C   0  0  0  0  0  0  0  0  0  0  0  0
   -0.3206    4.0076   -8.8926 C   0  0  0  0  0  0  0  0  0  0  0  0
   -1.6606    3.9328   -9.6160 C   0  0  0  0  0  0  0  0  0  0  0  0
   -0.3426    2.1878   -7.1394 C   0  0  0  0  0  0  0  0  0  0  0  0
   -0.5379    1.7566   -5.8248 C   0  0  0  0  0  0  0  0  0  0  0  0
   -1.7517    3.2018   -2.4830 C   0  0  0  0  0  0  0  0  0  0  0  0
   -0.9653    3.6399   -1.4760 C   0  0  0  0  0  0  0  0  0  0  0  0
    0.3160    2.9881   -1.5414 C   0  0  0  0  0  0  0  0  0  0  0  0
    1.3510    2.9452   -0.6017 C   0  0  0  0  0  0  0  0  0  0  0  0
    2.4267    2.0706   -0.8602 C   0  0  0  0  0  0  0  0  0  0  0  0
    3.4972    1.5999    0.1391 C   0  0  0  0  0  0  0  0  0  0  0  0
    2.8205    1.2838    1.4809 C   0  0  0  0  0  0  0  0  0  0  0  0
    1.7065    0.4193    1.5036 C   0  0  0  0  0  0  0  0  0  0  0  0
    0.9020    0.3125    2.6406 C   0  0  0  0  0  0  0  0  0  0  0  0
    1.1960    1.0620    3.7873 C   0  0  0  0  0  0  0  0  0  0  0  0
    0.2719    1.0301    4.9771 C   0  0  0  0  0  0  0  0  0  0  0  0
    0.6997   -0.0316    5.9848 C   0  0  0  0  0  0  0  0  0  0  0  0
    2.3537    1.8534    3.8109 C   0  0  0  0  0  0  0  0  0  0  0  0
    3.1522    1.9738    2.6675 C   0  0  0  0  0  0  0  0  0  0  0  0
    4.6492    2.6233    0.2354 C   0  0  0  0  0  0  0  0  0  0  0  0
    4.4002    4.0150    0.1904 C   0  0  0  0  0  0  0  0  0  0  0  0
    5.4445    4.9392    0.2823 C   0  0  0  0  0  0  0  0  0  0  0  0
    6.7642    4.5009    0.4585 C   0  0  0  0  0  0  0  0  0  0  0  0
    7.8919    5.4937    0.5180 C   0  0  0  0  0  0  0  0  0  0  0  0
    8.4784    5.7290   -0.8725 C   0  0  0  0  0  0  0  0  0  0  0  0
    7.0250    3.1274    0.5354 C   0  0  0  0  0  0  0  0  0  0  0  0
    5.9799    2.2062    0.4351 C   0  0  0  0  0  0  0  0  0  0  0  0
    3.9677    0.3501   -0.6091 C   0  0  0  0  0  0  0  0  0  0  0  0
    4.7568   -0.7847   -0.3720 C   0  0  0  0  0  0  0  0  0  0  0  0
    5.1196   -1.4478    0.7619 N   0  0  0  0  0  0  0  0  0  0  0  0
    5.3842   -2.7085    0.3205 C   0  0  0  0  0  0  0  0  0  0  0  0
    5.3349   -3.9258    1.0055 C   0  0  0  0  0  0  0  0  0  0  0  0
    4.8259   -1.0989    2.1186 C   0  0  0  0  0  0  0  0  0  0  0  0
    5.6750   -0.3283    2.9270 C   0  0  0  0  0  0  0  0  0  0  0  0
    5.2664   -0.4055    4.2538 C   0  0  0  0  0  0  0  0  0  0  0  0
    5.9041    0.1531    5.7002 S   0  0  0  0  0  0  0  0  0  0  0  0
    4.7343   -0.6522    6.6522 C   0  0  0  0  0  0  0  0  0  0  0  0
    4.7356   -0.7050    8.1476 C   0  0  0  0  0  0  0  0  0  0  0  0
    5.5410   -1.9013    8.6426 C   0  0  0  0  0  0  0  0  0  0  0  0
    3.8696   -1.3863    5.8310 C   0  0  0  0  0  0  0  0  0  0  0  0
    4.1968   -1.2040    4.4940 C   0  0  0  0  0  0  0  0  0  0  0  0
    3.6517   -1.8905    3.0694 S   0  0  0  0  0  0  0  0  0  0  0  0
   -1.7465    4.7796   -0.5248 S   0  0  0  0  0  0  0  0  0  0  0  0
   -3.1755    4.6715   -1.4508 C   0  0  0  0  0  0  0  0  0  0  0  0
   -3.0204    3.7557   -2.4929 C   0  0  0  0  0  0  0  0  0  0  0  0
   -4.4190    5.4185   -1.2312 C   0  0  0  0  0  0  0  0  0  0  0  0
   -5.5102    4.7235   -0.8740 C   0  0  0  0  0  0  0  0  0  0  0  0
   -5.4414    3.7283    0.1979 C   0  0  0  0  0  0  0  0  0  0  0  0
   -4.7057    3.8049    1.2178 O   0  0  0  0  0  0  0  0  0  0  0  0
   -6.3481    2.6419   -0.0942 C   0  0  0  0  0  0  0  0  0  0  0  0
   -6.6038    1.5055    0.6702 C   0  0  0  0  0  0  0  0  0  0  0  0
   -7.5306    0.5576    0.1903 C   0  0  0  0  0  0  0  0  0  0  0  0
   -7.7951   -0.6256    0.8959 O   0  0  0  0  0  0  0  0  0  0  0  0
   -7.2386   -0.9523    2.1690 C   0  0  0  0  0  0  0  0  0  0  0  0
   -8.1835    0.7911   -1.0480 C   0  0  0  0  0  0  0  0  0  0  0  0
   -9.0954   -0.1232   -1.5947 O   0  0  0  0  0  0  0  0  0  0  0  0
  -10.1514   -0.7300   -0.8582 C   0  0  0  0  0  0  0  0  0  0  0  0
   -7.9099    1.9567   -1.7852 C   0  0  0  0  0  0  0  0  0  0  0  0
   -6.9715    2.8787   -1.2999 C   0  0  0  0  0  0  0  0  0  0  0  0
   -6.5150    4.1924   -1.8531 C   0  0  0  0  0  0  0  0  0  0  0  0
   -6.8368    4.7255   -3.0625 C   0  0  0  0  0  0  0  0  0  0  0  0
   -6.5201    6.0834   -3.4144 C   0  0  0  0  0  0  0  0  0  0  0  0
   -6.2652    7.1756   -3.7057 N   0  0  0  0  0  0  0  0  0  0  0  0
   -7.4511    3.9493   -4.1047 C   0  0  0  0  0  0  0  0  0  0  0  0
   -7.8970    3.2896   -4.9514 N   0  0  0  0  0  0  0  0  0  0  0  0
    5.5176   -6.8641    1.1075 H   0  0  0  0  0  0  0  0  0  0  0  0
    1.3140    0.5765   -3.7426 H   0  0  0  0  0  0  0  0  0  0  0  0
   -0.8216    0.1338   -1.4746 H   0  0  0  0  0  0  0  0  0  0  0  0
   -2.2579   -1.7963   -1.1543 H   0  0  0  0  0  0  0  0  0  0  0  0
   -3.9476   -3.3505   -2.1143 H   0  0  0  0  0  0  0  0  0  0  0  0
   -4.9591   -2.8443   -3.5082 H   0  0  0  0  0  0  0  0  0  0  0  0
   -6.2990   -2.9012   -1.4142 H   0  0  0  0  0  0  0  0  0  0  0  0
   -6.1789   -1.2106   -2.0234 H   0  0  0  0  0  0  0  0  0  0  0  0
   -5.1668   -1.7463   -0.6207 H   0  0  0  0  0  0  0  0  0  0  0  0
   -4.6873   -0.5729   -4.4921 H   0  0  0  0  0  0  0  0  0  0  0  0
   -3.2509    1.3769   -4.8306 H   0  0  0  0  0  0  0  0  0  0  0  0
   -1.1676    4.7919   -4.3981 H   0  0  0  0  0  0  0  0  0  0  0  0
   -0.8605    5.5232   -6.6920 H   0  0  0  0  0  0  0  0  0  0  0  0
    0.0506    5.0551   -8.9202 H   0  0  0  0  0  0  0  0  0  0  0  0
    0.4238    3.3760   -9.4297 H   0  0  0  0  0  0  0  0  0  0  0  0
   -1.9890    2.8762   -9.7135 H   0  0  0  0  0  0  0  0  0  0  0  0
   -2.4359    4.5056   -9.0618 H   0  0  0  0  0  0  0  0  0  0  0  0
   -1.5613    4.3695  -10.6315 H   0  0  0  0  0  0  0  0  0  0  0  0
   -0.0968    1.4622   -7.9038 H   0  0  0  0  0  0  0  0  0  0  0  0
   -0.4329    0.7029   -5.5961 H   0  0  0  0  0  0  0  0  0  0  0  0
    1.2755    3.4911    0.3264 H   0  0  0  0  0  0  0  0  0  0  0  0
    1.4215   -0.1272    0.6135 H   0  0  0  0  0  0  0  0  0  0  0  0
    0.0286   -0.3229    2.6151 H   0  0  0  0  0  0  0  0  0  0  0  0
   -0.7699    0.8191    4.6466 H   0  0  0  0  0  0  0  0  0  0  0  0
    0.2599    2.0239    5.4790 H   0  0  0  0  0  0  0  0  0  0  0  0
   -0.0584   -0.1037    6.7910 H   0  0  0  0  0  0  0  0  0  0  0  0
    0.7854   -1.0210    5.4878 H   0  0  0  0  0  0  0  0  0  0  0  0
    1.6730    0.2466    6.4382 H   0  0  0  0  0  0  0  0  0  0  0  0
    2.6197    2.4057    4.7018 H   0  0  0  0  0  0  0  0  0  0  0  0
    4.0077    2.6315    2.7187 H   0  0  0  0  0  0  0  0  0  0  0  0
    3.4022    4.4055    0.0830 H   0  0  0  0  0  0  0  0  0  0  0  0
    5.2258    5.9984    0.2188 H   0  0  0  0  0  0  0  0  0  0  0  0
    8.6943    5.1214    1.1944 H   0  0  0  0  0  0  0  0  0  0  0  0
    7.5322    6.4610    0.9309 H   0  0  0  0  0  0  0  0  0  0  0  0
    8.8968    4.7849   -1.2794 H   0  0  0  0  0  0  0  0  0  0  0  0
    7.6947    6.1156   -1.5598 H   0  0  0  0  0  0  0  0  0  0  0  0
    9.2938    6.4794   -0.8076 H   0  0  0  0  0  0  0  0  0  0  0  0
    8.0358    2.7731    0.6717 H   0  0  0  0  0  0  0  0  0  0  0  0
    6.2352    1.1631    0.5044 H   0  0  0  0  0  0  0  0  0  0  0  0
    5.3594   -4.0384    2.0820 H   0  0  0  0  0  0  0  0  0  0  0  0
    6.5692    0.1740    2.5885 H   0  0  0  0  0  0  0  0  0  0  0  0
    3.6895   -0.7872    8.5148 H   0  0  0  0  0  0  0  0  0  0  0  0
    5.1711    0.2316    8.5529 H   0  0  0  0  0  0  0  0  0  0  0  0
    5.4759   -1.9637    9.7465 H   0  0  0  0  0  0  0  0  0  0  0  0
    6.6077   -1.7925    8.3529 H   0  0  0  0  0  0  0  0  0  0  0  0
    5.1390   -2.8423    8.2115 H   0  0  0  0  0  0  0  0  0  0  0  0
    3.0845   -2.0374    6.1866 H   0  0  0  0  0  0  0  0  0  0  0  0
   -3.7848    3.5109   -3.2172 H   0  0  0  0  0  0  0  0  0  0  0  0
   -4.5195    6.2446   -1.9134 H   0  0  0  0  0  0  0  0  0  0  0  0
   -6.0769    1.3675    1.6036 H   0  0  0  0  0  0  0  0  0  0  0  0
   -7.5267   -0.1906    2.9234 H   0  0  0  0  0  0  0  0  0  0  0  0
   -6.1319   -1.0185    2.0971 H   0  0  0  0  0  0  0  0  0  0  0  0
   -7.6278   -1.9356    2.4944 H   0  0  0  0  0  0  0  0  0  0  0  0
  -10.6981    0.0370   -0.2643 H   0  0  0  0  0  0  0  0  0  0  0  0
   -9.7671   -1.5434   -0.2009 H   0  0  0  0  0  0  0  0  0  0  0  0
  -10.8553   -1.1886   -1.5860 H   0  0  0  0  0  0  0  0  0  0  0  0
   -8.4600    2.1231   -2.6953 H   0  0  0  0  0  0  0  0  0  0  0  0
  1  2  2  3
  2  3  1  0
  3  4  2  0
  3  5  1  0
  5  6  2  0
  6  7  1  0
  6  8  1  0
  8  9  1  0
  8 10  2  0
 10 11  1  0
 10 12  1  0
 12 13  1  0
 12 14  2  0
 14 15  1  0
 15 16  2  3
 16 17  1  0
 17 18  3  0
 16 19  1  0
 19 20  3  0
  1 21  1  0
 21 22  1  0
 22 23  1  0
 23 24  1  0
 24 25  1  0
 25 26  1  0
 26 27  1  0
 27 28  2  0
 28 29  1  0
 29 30  1  0
 30 31  1  0
 31 32  2  0
 32 33  1  0
 33 34  2  0
 34 35  1  0
 35 36  1  0
 34 37  1  0
 37 38  2  0
 30 39  1  0
 39 40  2  0
 40 41  1  0
 41 42  2  0
 42 43  1  0
 43 44  1  0
 42 45  1  0
 45 46  2  0
 30 47  1  0
 47 48  2  0
 48 49  1  0
 49 50  1  0
 50 51  2  0
 51 52  1  0
 52 53  1  0
 53 54  2  0
 54 55  1  0
 55 56  2  0
 56 57  1  0
 57 58  1  0
 56 59  1  0
 59 60  2  0
 52 61  1  0
 61 62  2  0
 62 63  1  0
 63 64  2  0
 64 65  1  0
 65 66  1  0
 64 67  1  0
 67 68  2  0
 52 69  1  0
 69 70  1  0
 70 71  1  0
 71 72  1  0
 72 73  1  0
 71 74  1  0
 74 75  2  0
 75 76  1  0
 76 77  1  0
 77 78  1  0
 78 79  1  0
 79 80  1  0
 78 81  2  0
 81 82  1  0
 82 83  1  0
 48 84  1  0
 84 85  1  0
 85 86  2  0
 85 87  1  0
 87 88  2  3
 88 89  1  0
 89 90  2  0
 89 91  1  0
 91 92  2  0
 92 93  1  0
 93 94  1  0
 94 95  1  0
 93 96  2  0
 96 97  1  0
 97 98  1  0
 96 99  1  0
 99100  2  0
100101  1  0
101102  2  3
102103  1  0
103104  3  0
102105  1  0
105106  3  0
 15  2  1  0
 73 21  2  0
 83 74  1  0
101 88  1  0
 14  5  1  0
 72 23  2  0
 82 76  2  0
100 91  1  0
 70 24  2  0
 69 26  2  0
 51 27  1  0
 60 53  1  0
 68 61  1  0
 49 29  2  0
 38 31  1  0
 46 39  1  0
 86 47  1  0
  1107  1  0
 28108  1  0
 32109  1  0
 33110  1  0
 35111  1  0
 35112  1  0
 36113  1  0
 36114  1  0
 36115  1  0
 37116  1  0
 38117  1  0
 40118  1  0
 41119  1  0
 43120  1  0
 43121  1  0
 44122  1  0
 44123  1  0
 44124  1  0
 45125  1  0
 46126  1  0
 50127  1  0
 54128  1  0
 55129  1  0
 57130  1  0
 57131  1  0
 58132  1  0
 58133  1  0
 58134  1  0
 59135  1  0
 60136  1  0
 62137  1  0
 63138  1  0
 65139  1  0
 65140  1  0
 66141  1  0
 66142  1  0
 66143  1  0
 67144  1  0
 68145  1  0
 73146  1  0
 75147  1  0
 79148  1  0
 79149  1  0
 80150  1  0
 80151  1  0
 80152  1  0
 81153  1  0
 86154  1  0
 87155  1  0
 92156  1  0
 95157  1  0
 95158  1  0
 95159  1  0
 98160  1  0
 98161  1  0
 98162  1  0
 99163  1  0
M  END

