
     RDKit          3D

171188  0  0  0  0  0  0  0  0999 V2000
    5.6446   -5.8313    5.8434 C   0  0  0  0  0  0  0  0  0  0  0  0
    6.4393   -4.7417    5.8474 C   0  0  0  0  0  0  0  0  0  0  0  0
    6.3618   -3.6170    4.9073 C   0  0  0  0  0  0  0  0  0  0  0  0
    5.4489   -3.4136    4.0637 O   0  0  0  0  0  0  0  0  0  0  0  0
    7.5314   -2.7794    5.0920 C   0  0  0  0  0  0  0  0  0  0  0  0
    7.9561   -1.6864    4.3277 C   0  0  0  0  0  0  0  0  0  0  0  0
    6.9310   -1.0152    3.0610 Cl  0  0  0  0  0  0  0  0  0  0  0  0
    9.2335   -1.1478    4.5791 C   0  0  0  0  0  0  0  0  0  0  0  0
    9.7918    0.2491    3.6599 Cl  0  0  0  0  0  0  0  0  0  0  0  0
   10.0918   -1.7695    5.5151 C   0  0  0  0  0  0  0  0  0  0  0  0
   11.7350   -1.1634    5.7325 Cl  0  0  0  0  0  0  0  0  0  0  0  0
    9.6501   -2.8930    6.2509 C   0  0  0  0  0  0  0  0  0  0  0  0
   10.8252   -3.8592    7.1421 Cl  0  0  0  0  0  0  0  0  0  0  0  0
    8.3146   -3.3160    6.1015 C   0  0  0  0  0  0  0  0  0  0  0  0
    7.6008   -4.4574    6.7350 C   0  0  0  0  0  0  0  0  0  0  0  0
    7.6985   -4.8051    8.0414 C   0  0  0  0  0  0  0  0  0  0  0  0
    7.0102   -5.9404    8.6056 C   0  0  0  0  0  0  0  0  0  0  0  0
    6.4742   -6.8546    9.0763 N   0  0  0  0  0  0  0  0  0  0  0  0
    8.4166   -3.9963    8.9903 C   0  0  0  0  0  0  0  0  0  0  0  0
    8.9813   -3.3352    9.7578 N   0  0  0  0  0  0  0  0  0  0  0  0
    4.5365   -5.9864    4.8913 C   0  0  0  0  0  0  0  0  0  0  0  0
    4.6951   -6.3583    3.5538 C   0  0  0  0  0  0  0  0  0  0  0  0
    3.5253   -6.1431    2.8339 C   0  0  0  0  0  0  0  0  0  0  0  0
    3.2439   -6.0120    1.1695 S   0  0  0  0  0  0  0  0  0  0  0  0
    1.7103   -5.3350    1.4379 C   0  0  0  0  0  0  0  0  0  0  0  0
    0.8086   -4.5408    0.6440 C   0  0  0  0  0  0  0  0  0  0  0  0
    0.9355   -4.0981   -0.6780 C   0  0  0  0  0  0  0  0  0  0  0  0
   -0.0490   -3.2097   -1.1446 C   0  0  0  0  0  0  0  0  0  0  0  0
    0.0319   -2.2390   -2.3213 C   0  0  0  0  0  0  0  0  0  0  0  0
    0.5057   -2.9010   -3.6113 C   0  0  0  0  0  0  0  0  0  0  0  0
   -0.3789   -3.2487   -4.6519 C   0  0  0  0  0  0  0  0  0  0  0  0
    0.1114   -3.6077   -5.9102 C   0  0  0  0  0  0  0  0  0  0  0  0
    1.4908   -3.6676   -6.1383 C   0  0  0  0  0  0  0  0  0  0  0  0
    2.0348   -3.8079   -7.5405 C   0  0  0  0  0  0  0  0  0  0  0  0
    2.8859   -2.7190   -7.8553 O   0  0  0  0  0  0  0  0  0  0  0  0
    2.1447   -1.5424   -8.1327 C   0  0  0  0  0  0  0  0  0  0  0  0
    2.8879   -0.4408   -7.6533 O   0  0  0  0  0  0  0  0  0  0  0  0
    2.1376    0.7482   -7.8132 C   0  0  0  0  0  0  0  0  0  0  0  0
    2.3736   -3.4544   -5.0750 C   0  0  0  0  0  0  0  0  0  0  0  0
    1.8857   -3.0788   -3.8204 C   0  0  0  0  0  0  0  0  0  0  0  0
    0.8586   -0.9831   -1.9770 C   0  0  0  0  0  0  0  0  0  0  0  0
    1.0043    0.0264   -2.9524 C   0  0  0  0  0  0  0  0  0  0  0  0
    1.2724    1.3458   -2.5788 C   0  0  0  0  0  0  0  0  0  0  0  0
    1.4491    1.6771   -1.2301 C   0  0  0  0  0  0  0  0  0  0  0  0
    1.4232    3.1205   -0.7907 C   0  0  0  0  0  0  0  0  0  0  0  0
    0.0968    3.6164   -0.7608 O   0  0  0  0  0  0  0  0  0  0  0  0
   -0.5986    3.1967    0.4029 C   0  0  0  0  0  0  0  0  0  0  0  0
   -1.1252    1.9011    0.1984 O   0  0  0  0  0  0  0  0  0  0  0  0
   -1.8268    1.4831    1.3485 C   0  0  0  0  0  0  0  0  0  0  0  0
    1.4719    0.6563   -0.2762 C   0  0  0  0  0  0  0  0  0  0  0  0
    1.1940   -0.6593   -0.6417 C   0  0  0  0  0  0  0  0  0  0  0  0
   -1.4061   -1.7732   -2.3038 C   0  0  0  0  0  0  0  0  0  0  0  0
   -2.0091   -2.0387   -1.1121 C   0  0  0  0  0  0  0  0  0  0  0  0
   -1.1584   -2.9030   -0.3395 C   0  0  0  0  0  0  0  0  0  0  0  0
   -1.1677   -3.1801    1.0290 C   0  0  0  0  0  0  0  0  0  0  0  0
   -0.1164   -3.9720    1.5233 C   0  0  0  0  0  0  0  0  0  0  0  0
    0.3693   -4.0919    2.9662 C   0  0  0  0  0  0  0  0  0  0  0  0
   -0.6896   -4.5578    3.9685 C   0  0  0  0  0  0  0  0  0  0  0  0
   -1.9178   -5.1142    3.5576 C   0  0  0  0  0  0  0  0  0  0  0  0
   -2.9254   -5.3826    4.4899 C   0  0  0  0  0  0  0  0  0  0  0  0
   -2.7085   -5.1437    5.8533 C   0  0  0  0  0  0  0  0  0  0  0  0
   -3.8162   -5.3621    6.8545 C   0  0  0  0  0  0  0  0  0  0  0  0
   -4.0028   -4.2104    7.6549 O   0  0  0  0  0  0  0  0  0  0  0  0
   -4.8590   -3.2910    7.0067 C   0  0  0  0  0  0  0  0  0  0  0  0
   -4.8878   -2.1002    7.7666 O   0  0  0  0  0  0  0  0  0  0  0  0
   -5.7332   -1.1614    7.1417 C   0  0  0  0  0  0  0  0  0  0  0  0
   -1.4546   -4.6964    6.2799 C   0  0  0  0  0  0  0  0  0  0  0  0
   -0.4562   -4.4016    5.3500 C   0  0  0  0  0  0  0  0  0  0  0  0
    0.9783   -2.7170    3.3279 C   0  0  0  0  0  0  0  0  0  0  0  0
    0.1402   -1.6607    3.7487 C   0  0  0  0  0  0  0  0  0  0  0  0
    0.6519   -0.3774    3.9716 C   0  0  0  0  0  0  0  0  0  0  0  0
    2.0176   -0.1135    3.7769 C   0  0  0  0  0  0  0  0  0  0  0  0
    2.5787    1.2746    3.9679 C   0  0  0  0  0  0  0  0  0  0  0  0
    2.7359    1.8956    2.7076 O   0  0  0  0  0  0  0  0  0  0  0  0
    4.0966    2.0096    2.3402 C   0  0  0  0  0  0  0  0  0  0  0  0
    4.1642    2.1269    0.9353 O   0  0  0  0  0  0  0  0  0  0  0  0
    5.4963    2.3594    0.5375 C   0  0  0  0  0  0  0  0  0  0  0  0
    2.8497   -1.1439    3.3323 C   0  0  0  0  0  0  0  0  0  0  0  0
    2.3373   -2.4150    3.0885 C   0  0  0  0  0  0  0  0  0  0  0  0
    1.4341   -5.1529    2.7690 C   0  0  0  0  0  0  0  0  0  0  0  0
    2.4821   -5.6210    3.5564 C   0  0  0  0  0  0  0  0  0  0  0  0
    2.9698   -5.3552    5.1406 S   0  0  0  0  0  0  0  0  0  0  0  0
   -3.5154   -1.2709   -0.9496 S   0  0  0  0  0  0  0  0  0  0  0  0
   -3.3583   -0.5646   -2.4919 C   0  0  0  0  0  0  0  0  0  0  0  0
   -4.1494    0.3069   -3.2374 C   0  0  0  0  0  0  0  0  0  0  0  0
   -3.5533    0.6022   -4.4830 C   0  0  0  0  0  0  0  0  0  0  0  0
   -2.0435   -0.1852   -4.5630 S   0  0  0  0  0  0  0  0  0  0  0  0
   -2.1805   -0.9192   -3.0726 C   0  0  0  0  0  0  0  0  0  0  0  0
   -3.9996    1.4436   -5.6190 C   0  0  0  0  0  0  0  0  0  0  0  0
   -5.1424    2.1339   -5.8119 C   0  0  0  0  0  0  0  0  0  0  0  0
   -6.2218    2.4018   -4.8500 C   0  0  0  0  0  0  0  0  0  0  0  0
   -6.7521    1.5723   -4.0704 O   0  0  0  0  0  0  0  0  0  0  0  0
   -6.7864    3.7058   -5.1535 C   0  0  0  0  0  0  0  0  0  0  0  0
   -7.5809    4.5101   -4.3088 C   0  0  0  0  0  0  0  0  0  0  0  0
   -7.7610    5.8038   -4.7718 C   0  0  0  0  0  0  0  0  0  0  0  0
   -7.2158    6.2776   -6.0077 C   0  0  0  0  0  0  0  0  0  0  0  0
   -6.4511    5.4888   -6.8468 C   0  0  0  0  0  0  0  0  0  0  0  0
   -6.2471    4.1579   -6.3830 C   0  0  0  0  0  0  0  0  0  0  0  0
   -5.3329    3.1271   -6.9140 C   0  0  0  0  0  0  0  0  0  0  0  0
   -4.9588    2.9879   -8.2156 C   0  0  0  0  0  0  0  0  0  0  0  0
   -5.4864    3.8448   -9.2517 C   0  0  0  0  0  0  0  0  0  0  0  0
   -5.9344    4.5008  -10.0934 N   0  0  0  0  0  0  0  0  0  0  0  0
   -4.1685    1.8769   -8.6760 C   0  0  0  0  0  0  0  0  0  0  0  0
   -3.5194    0.9973   -9.0443 N   0  0  0  0  0  0  0  0  0  0  0  0
   -7.7247    7.6578   -5.7271 C   0  0  0  0  0  0  0  0  0  0  0  0
   -6.6855    8.7338   -5.2934 C   0  0  0  0  0  0  0  0  0  0  0  0
   -5.5358    8.0799   -4.5598 C   0  0  0  0  0  0  0  0  0  0  0  0
   -6.0297    7.6357   -3.4064 C   0  0  0  0  0  0  0  0  0  0  0  0
   -7.4974    8.0084   -3.3877 C   0  0  0  0  0  0  0  0  0  0  0  0
   -7.4099    9.3383   -4.1064 C   0  0  0  0  0  0  0  0  0  0  0  0
   -8.2747    7.1780   -4.4557 C   0  0  0  0  0  0  0  0  0  0  0  0
    5.8317   -6.6640    6.4972 H   0  0  0  0  0  0  0  0  0  0  0  0
    5.6393   -6.6517    3.1083 H   0  0  0  0  0  0  0  0  0  0  0  0
    1.7998   -4.3583   -1.2728 H   0  0  0  0  0  0  0  0  0  0  0  0
   -1.4507   -3.1879   -4.5191 H   0  0  0  0  0  0  0  0  0  0  0  0
   -0.5887   -3.7948   -6.7165 H   0  0  0  0  0  0  0  0  0  0  0  0
    1.2248   -3.9186   -8.2968 H   0  0  0  0  0  0  0  0  0  0  0  0
    2.6338   -4.7397   -7.5825 H   0  0  0  0  0  0  0  0  0  0  0  0
    1.1294   -1.5502   -7.6638 H   0  0  0  0  0  0  0  0  0  0  0  0
    2.0166   -1.4638   -9.2366 H   0  0  0  0  0  0  0  0  0  0  0  0
    1.9540    0.9660   -8.8865 H   0  0  0  0  0  0  0  0  0  0  0  0
    2.7247    1.5895   -7.3932 H   0  0  0  0  0  0  0  0  0  0  0  0
    1.1776    0.7012   -7.2530 H   0  0  0  0  0  0  0  0  0  0  0  0
    3.4438   -3.5115   -5.2280 H   0  0  0  0  0  0  0  0  0  0  0  0
    2.5946   -2.8500   -3.0372 H   0  0  0  0  0  0  0  0  0  0  0  0
    0.7882   -0.1812   -3.9903 H   0  0  0  0  0  0  0  0  0  0  0  0
    1.2540    2.1236   -3.3311 H   0  0  0  0  0  0  0  0  0  0  0  0
    1.9974    3.7231   -1.5220 H   0  0  0  0  0  0  0  0  0  0  0  0
    1.9450    3.2610    0.1832 H   0  0  0  0  0  0  0  0  0  0  0  0
   -1.4308    3.9158    0.5676 H   0  0  0  0  0  0  0  0  0  0  0  0
    0.0487    3.2423    1.3113 H   0  0  0  0  0  0  0  0  0  0  0  0
   -1.2082    1.5730    2.2688 H   0  0  0  0  0  0  0  0  0  0  0  0
   -2.7732    2.0572    1.4598 H   0  0  0  0  0  0  0  0  0  0  0  0
   -2.0856    0.4102    1.2346 H   0  0  0  0  0  0  0  0  0  0  0  0
    1.5851    0.8904    0.7686 H   0  0  0  0  0  0  0  0  0  0  0  0
    1.1312   -1.3854    0.1549 H   0  0  0  0  0  0  0  0  0  0  0  0
   -1.9041   -2.7343    1.6856 H   0  0  0  0  0  0  0  0  0  0  0  0
   -2.1198   -5.3165    2.5159 H   0  0  0  0  0  0  0  0  0  0  0  0
   -3.8808   -5.7551    4.1424 H   0  0  0  0  0  0  0  0  0  0  0  0
   -4.7617   -5.6963    6.3633 H   0  0  0  0  0  0  0  0  0  0  0  0
   -3.5119   -6.1970    7.5210 H   0  0  0  0  0  0  0  0  0  0  0  0
   -4.4808   -3.0709    5.9777 H   0  0  0  0  0  0  0  0  0  0  0  0
   -5.8868   -3.7241    6.9453 H   0  0  0  0  0  0  0  0  0  0  0  0
   -6.7765   -1.5413    7.0683 H   0  0  0  0  0  0  0  0  0  0  0  0
   -5.7601   -0.2383    7.7574 H   0  0  0  0  0  0  0  0  0  0  0  0
   -5.3541   -0.8805    6.1327 H   0  0  0  0  0  0  0  0  0  0  0  0
   -1.2628   -4.5328    7.3340 H   0  0  0  0  0  0  0  0  0  0  0  0
    0.4848   -4.0101    5.7103 H   0  0  0  0  0  0  0  0  0  0  0  0
   -0.9209   -1.8254    3.8853 H   0  0  0  0  0  0  0  0  0  0  0  0
   -0.0164    0.4112    4.2841 H   0  0  0  0  0  0  0  0  0  0  0  0
    1.8683    1.8844    4.5665 H   0  0  0  0  0  0  0  0  0  0  0  0
    3.5135    1.2236    4.5765 H   0  0  0  0  0  0  0  0  0  0  0  0
    4.6847    1.1158    2.6510 H   0  0  0  0  0  0  0  0  0  0  0  0
    4.5152    2.9210    2.8290 H   0  0  0  0  0  0  0  0  0  0  0  0
    5.8419    3.3658    0.8646 H   0  0  0  0  0  0  0  0  0  0  0  0
    6.1842    1.5692    0.9131 H   0  0  0  0  0  0  0  0  0  0  0  0
    5.5377    2.3407   -0.5697 H   0  0  0  0  0  0  0  0  0  0  0  0
    3.9035   -0.9642    3.1574 H   0  0  0  0  0  0  0  0  0  0  0  0
    3.0197   -3.1459    2.6836 H   0  0  0  0  0  0  0  0  0  0  0  0
   -5.0661    0.6978   -2.8530 H   0  0  0  0  0  0  0  0  0  0  0  0
   -3.2332    1.5439   -6.3724 H   0  0  0  0  0  0  0  0  0  0  0  0
   -7.9339    4.1822   -3.3401 H   0  0  0  0  0  0  0  0  0  0  0  0
   -5.9661    5.9057   -7.7204 H   0  0  0  0  0  0  0  0  0  0  0  0
   -8.5011    8.0064   -6.4463 H   0  0  0  0  0  0  0  0  0  0  0  0
   -6.3848    9.4518   -6.0893 H   0  0  0  0  0  0  0  0  0  0  0  0
   -4.4949    8.0341   -4.8713 H   0  0  0  0  0  0  0  0  0  0  0  0
   -5.4612    7.1618   -2.6099 H   0  0  0  0  0  0  0  0  0  0  0  0
   -7.9635    8.0402   -2.3798 H   0  0  0  0  0  0  0  0  0  0  0  0
   -8.4033    9.7767   -4.3632 H   0  0  0  0  0  0  0  0  0  0  0  0
   -6.8015   10.0992   -3.5577 H   0  0  0  0  0  0  0  0  0  0  0  0
   -9.3816    7.2434   -4.3913 H   0  0  0  0  0  0  0  0  0  0  0  0
  1  2  2  3
  2  3  1  0
  3  4  2  0
  3  5  1  0
  5  6  2  0
  6  7  1  0
  6  8  1  0
  8  9  1  0
  8 10  2  0
 10 11  1  0
 10 12  1  0
 12 13  1  0
 12 14  2  0
 14 15  1  0
 15 16  2  3
 16 17  1  0
 17 18  3  0
 16 19  1  0
 19 20  3  0
  1 21  1  0
 21 22  2  0
 22 23  1  0
 23 24  1  0
 24 25  1  0
 25 26  1  0
 26 27  2  0
 27 28  1  0
 28 29  1  0
 29 30  1  0
 30 31  2  0
 31 32  1  0
 32 33  2  0
 33 34  1  0
 34 35  1  0
 35 36  1  0
 36 37  1  0
 37 38  1  0
 33 39  1  0
 39 40  2  0
 29 41  1  0
 41 42  2  0
 42 43  1  0
 43 44  2  0
 44 45  1  0
 45 46  1  0
 46 47  1  0
 47 48  1  0
 48 49  1  0
 44 50  1  0
 50 51  2  0
 29 52  1  0
 52 53  2  0
 53 54  1  0
 54 55  1  0
 55 56  2  0
 56 57  1  0
 57 58  1  0
 58 59  2  0
 59 60  1  0
 60 61  2  0
 61 62  1  0
 62 63  1  0
 63 64  1  0
 64 65  1  0
 65 66  1  0
 61 67  1  0
 67 68  2  0
 57 69  1  0
 69 70  2  0
 70 71  1  0
 71 72  2  0
 72 73  1  0
 73 74  1  0
 74 75  1  0
 75 76  1  0
 76 77  1  0
 72 78  1  0
 78 79  2  0
 57 80  1  0
 80 81  1  0
 81 82  1  0
 53 83  1  0
 83 84  1  0
 84 85  1  0
 85 86  2  0
 86 87  1  0
 87 88  1  0
 86 89  1  0
 89 90  2  3
 90 91  1  0
 91 92  2  0
 91 93  1  0
 93 94  2  0
 94 95  1  0
 95 96  2  0
 96 97  1  0
 97 98  2  0
 98 99  1  0
 99100  2  3
100101  1  0
101102  3  0
100103  1  0
103104  3  0
 96105  1  0
105106  1  0
106107  1  0
107108  2  0
108109  1  0
109110  1  0
109111  1  0
 15  2  1  0
 82 21  1  0
 88 84  2  0
 99 90  1  0
111105  1  0
 14  5  1  0
 81 23  2  0
 98 93  1  0
110106  1  0
 80 25  2  0
111 95  1  0
 56 26  1  0
 68 58  1  0
 79 69  1  0
 54 28  2  0
 40 30  1  0
 51 41  1  0
 88 52  1  0
  1112  1  0
 22113  1  0
 27114  1  0
 31115  1  0
 32116  1  0
 34117  1  0
 34118  1  0
 36119  1  0
 36120  1  0
 38121  1  0
 38122  1  0
 38123  1  0
 39124  1  0
 40125  1  0
 42126  1  0
 43127  1  0
 45128  1  0
 45129  1  0
 47130  1  0
 47131  1  0
 49132  1  0
 49133  1  0
 49134  1  0
 50135  1  0
 51136  1  0
 55137  1  0
 59138  1  0
 60139  1  0
 62140  1  0
 62141  1  0
 64142  1  0
 64143  1  0
 66144  1  0
 66145  1  0
 66146  1  0
 67147  1  0
 68148  1  0
 70149  1  0
 71150  1  0
 73151  1  0
 73152  1  0
 75153  1  0
 75154  1  0
 77155  1  0
 77156  1  0
 77157  1  0
 78158  1  0
 79159  1  0
 85160  1  0
 89161  1  0
 94162  1  0
 97163  1  0
105164  1  0
106165  1  0
107166  1  0
108167  1  0
109168  1  0
110169  1  0
110170  1  0
111171  1  0
M  END

