
     RDKit          3D

121134  0  0  0  0  0  0  0  0999 V2000
    6.0832   -4.1915   -0.4180 C   0  0  0  0  0  0  0  0  0  0  0  0
    6.4160   -2.8912   -0.3625 C   0  0  0  0  0  0  0  0  0  0  0  0
    5.5557   -1.7738   -0.7577 C   0  0  0  0  0  0  0  0  0  0  0  0
    4.6311   -1.8169   -1.6125 O   0  0  0  0  0  0  0  0  0  0  0  0
    5.9554   -0.5989    0.0011 C   0  0  0  0  0  0  0  0  0  0  0  0
    5.2949    0.6273    0.1193 C   0  0  0  0  0  0  0  0  0  0  0  0
    3.9169    1.0239   -0.9094 Cl  0  0  0  0  0  0  0  0  0  0  0  0
    5.7565    1.5434    1.0857 C   0  0  0  0  0  0  0  0  0  0  0  0
    4.9637    3.1116    1.2529 Cl  0  0  0  0  0  0  0  0  0  0  0  0
    6.7986    1.1758    1.9681 C   0  0  0  0  0  0  0  0  0  0  0  0
    7.2809    2.2766    3.2586 Cl  0  0  0  0  0  0  0  0  0  0  0  0
    7.4255   -0.0858    1.8497 C   0  0  0  0  0  0  0  0  0  0  0  0
    8.4359   -0.6785    3.1673 Cl  0  0  0  0  0  0  0  0  0  0  0  0
    7.0549   -0.9230    0.7786 C   0  0  0  0  0  0  0  0  0  0  0  0
    7.5228   -2.2946    0.4209 C   0  0  0  0  0  0  0  0  0  0  0  0
    8.8057   -2.7277    0.3806 C   0  0  0  0  0  0  0  0  0  0  0  0
    9.1642   -3.9655   -0.2637 C   0  0  0  0  0  0  0  0  0  0  0  0
    9.4614   -4.9588   -0.7815 N   0  0  0  0  0  0  0  0  0  0  0  0
    9.9092   -1.8922    0.7854 C   0  0  0  0  0  0  0  0  0  0  0  0
   10.7951   -1.2271    1.1332 N   0  0  0  0  0  0  0  0  0  0  0  0
    4.7203   -4.5934   -0.7789 C   0  0  0  0  0  0  0  0  0  0  0  0
    4.2507   -4.9932   -2.0494 C   0  0  0  0  0  0  0  0  0  0  0  0
    5.1042   -5.3764   -3.1995 C   0  0  0  0  0  0  0  0  0  0  0  0
    4.7700   -6.5060   -3.9657 C   0  0  0  0  0  0  0  0  0  0  0  0
    5.5899   -6.9201   -5.0174 C   0  0  0  0  0  0  0  0  0  0  0  0
    6.7595   -6.2183   -5.3114 C   0  0  0  0  0  0  0  0  0  0  0  0
    7.1130   -5.0877   -4.5604 C   0  0  0  0  0  0  0  0  0  0  0  0
    8.3701   -4.3202   -4.8820 C   0  0  0  0  0  0  0  0  0  0  0  0
    8.1326   -3.3450   -6.0319 C   0  0  0  0  0  0  0  0  0  0  0  0
    6.2653   -4.6525   -3.5313 C   0  0  0  0  0  0  0  0  0  0  0  0
    2.8466   -4.9688   -2.0794 C   0  0  0  0  0  0  0  0  0  0  0  0
    1.7117   -5.0083   -3.3501 S   0  0  0  0  0  0  0  0  0  0  0  0
    0.4495   -4.5581   -2.3044 C   0  0  0  0  0  0  0  0  0  0  0  0
   -0.7475   -3.9128   -2.4383 C   0  0  0  0  0  0  0  0  0  0  0  0
   -1.4632   -3.5313   -3.5846 C   0  0  0  0  0  0  0  0  0  0  0  0
   -2.5332   -2.5965   -3.4444 C   0  0  0  0  0  0  0  0  0  0  0  0
   -3.1916   -2.2411   -4.5779 N   0  0  0  0  0  0  0  0  0  0  0  0
   -2.3317   -3.1190   -5.6887 S   0  0  0  0  0  0  0  0  0  0  0  0
   -1.1657   -3.9443   -4.8414 N   0  0  0  0  0  0  0  0  0  0  0  0
   -2.8696   -2.1451   -2.1673 C   0  0  0  0  0  0  0  0  0  0  0  0
   -3.7912   -1.2388   -1.7123 C   0  0  0  0  0  0  0  0  0  0  0  0
   -4.7485    0.0276   -2.3135 S   0  0  0  0  0  0  0  0  0  0  0  0
   -4.9958    0.6402   -0.7324 C   0  0  0  0  0  0  0  0  0  0  0  0
   -5.4485    1.8744   -0.2509 C   0  0  0  0  0  0  0  0  0  0  0  0
   -6.1377    2.8920   -1.0815 C   0  0  0  0  0  0  0  0  0  0  0  0
   -7.1515    2.5008   -1.9720 C   0  0  0  0  0  0  0  0  0  0  0  0
   -7.8216    3.4538   -2.7455 C   0  0  0  0  0  0  0  0  0  0  0  0
   -7.4737    4.8057   -2.6499 C   0  0  0  0  0  0  0  0  0  0  0  0
   -6.4625    5.2127   -1.7691 C   0  0  0  0  0  0  0  0  0  0  0  0
   -6.0562    6.6612   -1.7005 C   0  0  0  0  0  0  0  0  0  0  0  0
   -5.0228    6.9802   -2.7787 C   0  0  0  0  0  0  0  0  0  0  0  0
   -5.7772    4.2491   -1.0095 C   0  0  0  0  0  0  0  0  0  0  0  0
   -5.0672    2.0433    1.0996 C   0  0  0  0  0  0  0  0  0  0  0  0
   -4.2367    0.6650    1.6663 S   0  0  0  0  0  0  0  0  0  0  0  0
   -4.3386   -0.1288    0.2009 C   0  0  0  0  0  0  0  0  0  0  0  0
   -3.6641   -1.1923   -0.3644 C   0  0  0  0  0  0  0  0  0  0  0  0
   -2.7152   -2.0268    0.1134 N   0  0  0  0  0  0  0  0  0  0  0  0
   -2.1717   -2.5596   -1.0213 C   0  0  0  0  0  0  0  0  0  0  0  0
   -1.0239   -3.3688   -1.1752 C   0  0  0  0  0  0  0  0  0  0  0  0
    0.0486   -3.5155   -0.3348 N   0  0  0  0  0  0  0  0  0  0  0  0
    0.8901   -4.3167   -1.0393 C   0  0  0  0  0  0  0  0  0  0  0  0
    2.2527   -4.5591   -0.9158 C   0  0  0  0  0  0  0  0  0  0  0  0
    3.4068   -4.2218    0.2360 S   0  0  0  0  0  0  0  0  0  0  0  0
    0.5183   -2.5176    0.6444 C   0  0  0  0  0  0  0  0  0  0  0  0
    1.2444   -1.3571   -0.0441 C   0  0  0  0  0  0  0  0  0  0  0  0
   -2.7209   -2.6121    1.4647 C   0  0  0  0  0  0  0  0  0  0  0  0
   -4.0733   -3.2432    1.7935 C   0  0  0  0  0  0  0  0  0  0  0  0
   -5.3281    3.2255    1.9338 C   0  0  0  0  0  0  0  0  0  0  0  0
   -4.3422    3.9445    2.5114 C   0  0  0  0  0  0  0  0  0  0  0  0
   -2.9066    3.6696    2.4043 C   0  0  0  0  0  0  0  0  0  0  0  0
   -2.3416    3.0232    1.4817 O   0  0  0  0  0  0  0  0  0  0  0  0
   -2.2356    4.3402    3.5037 C   0  0  0  0  0  0  0  0  0  0  0  0
   -0.8992    4.2218    3.9029 C   0  0  0  0  0  0  0  0  0  0  0  0
   -0.0106    3.4695    3.1200 O   0  0  0  0  0  0  0  0  0  0  0  0
    1.3628    3.2549    3.4390 C   0  0  0  0  0  0  0  0  0  0  0  0
   -0.5073    4.8740    5.0954 C   0  0  0  0  0  0  0  0  0  0  0  0
   -1.4505    5.5817    5.8584 C   0  0  0  0  0  0  0  0  0  0  0  0
   -2.7851    5.6802    5.4345 C   0  0  0  0  0  0  0  0  0  0  0  0
   -3.1627    5.0738    4.2242 C   0  0  0  0  0  0  0  0  0  0  0  0
   -4.4928    4.9924    3.5632 C   0  0  0  0  0  0  0  0  0  0  0  0
   -5.5127    5.8793    3.6882 C   0  0  0  0  0  0  0  0  0  0  0  0
   -5.4676    6.9735    4.6240 C   0  0  0  0  0  0  0  0  0  0  0  0
   -5.4431    7.8633    5.3650 N   0  0  0  0  0  0  0  0  0  0  0  0
   -6.6337    5.8908    2.7822 C   0  0  0  0  0  0  0  0  0  0  0  0
   -7.5303    5.9062    2.0486 N   0  0  0  0  0  0  0  0  0  0  0  0
    6.7252   -4.9436    0.0126 H   0  0  0  0  0  0  0  0  0  0  0  0
    3.8886   -7.0905   -3.7301 H   0  0  0  0  0  0  0  0  0  0  0  0
    5.3252   -7.7985   -5.5941 H   0  0  0  0  0  0  0  0  0  0  0  0
    7.3924   -6.5524   -6.1232 H   0  0  0  0  0  0  0  0  0  0  0  0
    9.1823   -5.0231   -5.1583 H   0  0  0  0  0  0  0  0  0  0  0  0
    8.7182   -3.7555   -3.9861 H   0  0  0  0  0  0  0  0  0  0  0  0
    7.8614   -3.8998   -6.9501 H   0  0  0  0  0  0  0  0  0  0  0  0
    7.3205   -2.6293   -5.7782 H   0  0  0  0  0  0  0  0  0  0  0  0
    9.0653   -2.7706   -6.2258 H   0  0  0  0  0  0  0  0  0  0  0  0
    6.5206   -3.7575   -2.9900 H   0  0  0  0  0  0  0  0  0  0  0  0
   -7.4432    1.4592   -2.0479 H   0  0  0  0  0  0  0  0  0  0  0  0
   -8.6075    3.1397   -3.4248 H   0  0  0  0  0  0  0  0  0  0  0  0
   -7.9875    5.5333   -3.2704 H   0  0  0  0  0  0  0  0  0  0  0  0
   -6.9435    7.3115   -1.8351 H   0  0  0  0  0  0  0  0  0  0  0  0
   -5.6213    6.8903   -0.7003 H   0  0  0  0  0  0  0  0  0  0  0  0
   -4.1482    6.3038   -2.6865 H   0  0  0  0  0  0  0  0  0  0  0  0
   -4.6759    8.0248   -2.6606 H   0  0  0  0  0  0  0  0  0  0  0  0
   -5.4762    6.8608   -3.7874 H   0  0  0  0  0  0  0  0  0  0  0  0
   -4.9621    4.5612   -0.3740 H   0  0  0  0  0  0  0  0  0  0  0  0
    1.1789   -3.0013    1.3914 H   0  0  0  0  0  0  0  0  0  0  0  0
   -0.3087   -2.0695    1.2107 H   0  0  0  0  0  0  0  0  0  0  0  0
    1.4725   -0.5706    0.6989 H   0  0  0  0  0  0  0  0  0  0  0  0
    2.1986   -1.7027   -0.4808 H   0  0  0  0  0  0  0  0  0  0  0  0
    0.6090   -0.9275   -0.8409 H   0  0  0  0  0  0  0  0  0  0  0  0
   -2.4886   -1.8254    2.2149 H   0  0  0  0  0  0  0  0  0  0  0  0
   -1.9691   -3.4221    1.5419 H   0  0  0  0  0  0  0  0  0  0  0  0
   -4.0108   -3.7790    2.7654 H   0  0  0  0  0  0  0  0  0  0  0  0
   -4.3565   -3.9689    1.0048 H   0  0  0  0  0  0  0  0  0  0  0  0
   -4.8596   -2.4645    1.8778 H   0  0  0  0  0  0  0  0  0  0  0  0
   -6.3638    3.4615    2.1230 H   0  0  0  0  0  0  0  0  0  0  0  0
    1.8176    2.6025    2.6655 H   0  0  0  0  0  0  0  0  0  0  0  0
    1.9058    4.2259    3.4526 H   0  0  0  0  0  0  0  0  0  0  0  0
    1.4544    2.7553    4.4285 H   0  0  0  0  0  0  0  0  0  0  0  0
    0.5122    4.8074    5.4533 H   0  0  0  0  0  0  0  0  0  0  0  0
   -1.1427    6.0506    6.7907 H   0  0  0  0  0  0  0  0  0  0  0  0
   -3.4948    6.1721    6.0738 H   0  0  0  0  0  0  0  0  0  0  0  0
  1  2  2  3
  2  3  1  0
  3  4  2  0
  3  5  1  0
  5  6  2  0
  6  7  1  0
  6  8  1  0
  8  9  1  0
  8 10  2  0
 10 11  1  0
 10 12  1  0
 12 13  1  0
 12 14  2  0
 14 15  1  0
 15 16  2  3
 16 17  1  0
 17 18  3  0
 16 19  1  0
 19 20  3  0
  1 21  1  0
 21 22  2  0
 22 23  1  0
 23 24  2  0
 24 25  1  0
 25 26  2  0
 26 27  1  0
 27 28  1  0
 28 29  1  0
 27 30  2  0
 22 31  1  0
 31 32  1  0
 32 33  1  0
 33 34  1  0
 34 35  1  0
 35 36  1  0
 36 37  2  0
 37 38  1  0
 38 39  1  0
 36 40  1  0
 40 41  1  0
 41 42  1  0
 42 43  1  0
 43 44  1  0
 44 45  1  0
 45 46  2  0
 46 47  1  0
 47 48  2  0
 48 49  1  0
 49 50  1  0
 50 51  1  0
 49 52  2  0
 44 53  2  0
 53 54  1  0
 54 55  1  0
 55 56  1  0
 56 57  1  0
 57 58  1  0
 58 59  1  0
 59 60  1  0
 60 61  1  0
 61 62  1  0
 62 63  1  0
 60 64  1  0
 64 65  1  0
 57 66  1  0
 66 67  1  0
 53 68  1  0
 68 69  2  3
 69 70  1  0
 70 71  2  0
 70 72  1  0
 72 73  2  0
 73 74  1  0
 74 75  1  0
 73 76  1  0
 76 77  2  0
 77 78  1  0
 78 79  2  0
 79 80  1  0
 80 81  2  3
 81 82  1  0
 82 83  3  0
 81 84  1  0
 84 85  3  0
 15  2  1  0
 63 21  1  0
 80 69  1  0
 14  5  1  0
 30 23  1  0
 62 31  2  0
 79 72  1  0
 61 33  2  0
 59 34  2  0
 39 35  2  0
 58 40  2  0
 56 41  2  0
 55 43  2  0
 52 45  1  0
  1 86  1  0
 24 87  1  0
 25 88  1  0
 26 89  1  0
 28 90  1  0
 28 91  1  0
 29 92  1  0
 29 93  1  0
 29 94  1  0
 30 95  1  0
 46 96  1  0
 47 97  1  0
 48 98  1  0
 50 99  1  0
 50100  1  0
 51101  1  0
 51102  1  0
 51103  1  0
 52104  1  0
 64105  1  0
 64106  1  0
 65107  1  0
 65108  1  0
 65109  1  0
 66110  1  0
 66111  1  0
 67112  1  0
 67113  1  0
 67114  1  0
 68115  1  0
 75116  1  0
 75117  1  0
 75118  1  0
 76119  1  0
 77120  1  0
 78121  1  0
M  END

