
     RDKit          3D

130146  0  0  0  0  0  0  0  0999 V2000
    8.3559    2.3805    0.8611 C   0  0  0  0  0  0  0  0  0  0  0  0
    9.5280    2.6879    0.2726 C   0  0  0  0  0  0  0  0  0  0  0  0
    9.6978    3.6484   -0.8212 C   0  0  0  0  0  0  0  0  0  0  0  0
    8.8713    4.5401   -1.1477 O   0  0  0  0  0  0  0  0  0  0  0  0
   11.0376    3.5094   -1.3617 C   0  0  0  0  0  0  0  0  0  0  0  0
   11.6331    4.2012   -2.4225 C   0  0  0  0  0  0  0  0  0  0  0  0
   10.6833    5.2850   -3.4407 Cl  0  0  0  0  0  0  0  0  0  0  0  0
   12.9995    3.9805   -2.6818 C   0  0  0  0  0  0  0  0  0  0  0  0
   13.7793    4.7953   -4.0416 Cl  0  0  0  0  0  0  0  0  0  0  0  0
   13.7539    3.1407   -1.8301 C   0  0  0  0  0  0  0  0  0  0  0  0
   15.4872    2.9502   -2.0999 Cl  0  0  0  0  0  0  0  0  0  0  0  0
   13.1299    2.4685   -0.7564 C   0  0  0  0  0  0  0  0  0  0  0  0
   14.1250    1.6837    0.4710 Cl  0  0  0  0  0  0  0  0  0  0  0  0
   11.7324    2.5827   -0.6078 C   0  0  0  0  0  0  0  0  0  0  0  0
   10.8264    1.9574    0.4003 C   0  0  0  0  0  0  0  0  0  0  0  0
   10.9546    0.6978    0.8784 C   0  0  0  0  0  0  0  0  0  0  0  0
   10.2255    0.2217    2.0262 C   0  0  0  0  0  0  0  0  0  0  0  0
    9.6509   -0.1614    2.9582 N   0  0  0  0  0  0  0  0  0  0  0  0
   11.8031   -0.2725    0.2304 C   0  0  0  0  0  0  0  0  0  0  0  0
   12.4770   -1.0569   -0.2896 N   0  0  0  0  0  0  0  0  0  0  0  0
    7.0358    2.6779    0.2716 C   0  0  0  0  0  0  0  0  0  0  0  0
    6.6573    2.4875   -1.0767 C   0  0  0  0  0  0  0  0  0  0  0  0
    7.5140    1.9118   -2.1340 C   0  0  0  0  0  0  0  0  0  0  0  0
    8.2284    0.7229   -1.9094 C   0  0  0  0  0  0  0  0  0  0  0  0
    9.0254    0.1771   -2.9202 C   0  0  0  0  0  0  0  0  0  0  0  0
    9.1060    0.8046   -4.1668 C   0  0  0  0  0  0  0  0  0  0  0  0
    8.3946    1.9925   -4.4062 C   0  0  0  0  0  0  0  0  0  0  0  0
    8.4411    2.6481   -5.7596 C   0  0  0  0  0  0  0  0  0  0  0  0
    7.2338    2.2352   -6.5970 C   0  0  0  0  0  0  0  0  0  0  0  0
    7.5897    2.5334   -3.3891 C   0  0  0  0  0  0  0  0  0  0  0  0
    5.2758    2.6154   -1.2324 C   0  0  0  0  0  0  0  0  0  0  0  0
    4.2573    2.0898   -2.4805 S   0  0  0  0  0  0  0  0  0  0  0  0
    2.8848    2.1981   -1.4936 C   0  0  0  0  0  0  0  0  0  0  0  0
    1.7760    1.4068   -1.4215 C   0  0  0  0  0  0  0  0  0  0  0  0
    1.3201    0.4559   -2.3430 C   0  0  0  0  0  0  0  0  0  0  0  0
    0.3859   -0.5241   -1.9132 C   0  0  0  0  0  0  0  0  0  0  0  0
   -0.0408   -1.4202   -2.8394 N   0  0  0  0  0  0  0  0  0  0  0  0
    0.8364   -0.9112   -4.1462 S   0  0  0  0  0  0  0  0  0  0  0  0
    1.7307    0.3872   -3.6350 N   0  0  0  0  0  0  0  0  0  0  0  0
   -0.0556   -0.4924   -0.5894 C   0  0  0  0  0  0  0  0  0  0  0  0
   -1.0658   -1.1709    0.0151 C   0  0  0  0  0  0  0  0  0  0  0  0
   -2.2722   -2.2584   -0.4631 S   0  0  0  0  0  0  0  0  0  0  0  0
   -3.1543   -1.9146    0.9505 C   0  0  0  0  0  0  0  0  0  0  0  0
   -4.4017   -2.3278    1.3983 C   0  0  0  0  0  0  0  0  0  0  0  0
   -5.2212   -3.3420    0.7191 C   0  0  0  0  0  0  0  0  0  0  0  0
   -6.0318   -2.9856   -0.3678 C   0  0  0  0  0  0  0  0  0  0  0  0
   -6.8111   -3.9528   -1.0081 C   0  0  0  0  0  0  0  0  0  0  0  0
   -6.7689   -5.2830   -0.5821 C   0  0  0  0  0  0  0  0  0  0  0  0
   -5.9551   -5.6513    0.5037 C   0  0  0  0  0  0  0  0  0  0  0  0
   -5.8606   -7.0932    0.9217 C   0  0  0  0  0  0  0  0  0  0  0  0
   -4.7906   -7.8219    0.1158 C   0  0  0  0  0  0  0  0  0  0  0  0
   -5.1778   -4.6767    1.1476 C   0  0  0  0  0  0  0  0  0  0  0  0
   -4.7719   -1.6456    2.5675 C   0  0  0  0  0  0  0  0  0  0  0  0
   -3.5532   -0.5397    3.0075 S   0  0  0  0  0  0  0  0  0  0  0  0
   -2.5450   -0.9558    1.7240 C   0  0  0  0  0  0  0  0  0  0  0  0
   -1.3232   -0.5470    1.1943 C   0  0  0  0  0  0  0  0  0  0  0  0
   -0.4839    0.5019    1.4236 N   0  0  0  0  0  0  0  0  0  0  0  0
    0.3496    0.4944    0.3252 C   0  0  0  0  0  0  0  0  0  0  0  0
    1.3676    1.4110   -0.0765 C   0  0  0  0  0  0  0  0  0  0  0  0
    2.2764    2.1038    0.6861 N   0  0  0  0  0  0  0  0  0  0  0  0
    3.1916    2.5685   -0.2130 C   0  0  0  0  0  0  0  0  0  0  0  0
    4.5649    2.8207   -0.0737 C   0  0  0  0  0  0  0  0  0  0  0  0
    5.6375    2.8759    1.2161 S   0  0  0  0  0  0  0  0  0  0  0  0
    2.5416    1.9406    2.1199 C   0  0  0  0  0  0  0  0  0  0  0  0
    2.5112    3.2876    2.8427 C   0  0  0  0  0  0  0  0  0  0  0  0
   -0.7969    1.6423    2.2950 C   0  0  0  0  0  0  0  0  0  0  0  0
   -0.6080    1.3008    3.7783 C   0  0  0  0  0  0  0  0  0  0  0  0
   -6.0703   -1.7909    3.2395 C   0  0  0  0  0  0  0  0  0  0  0  0
   -7.2018   -1.3095    2.6952 C   0  0  0  0  0  0  0  0  0  0  0  0
   -7.2700   -0.5142    1.4629 C   0  0  0  0  0  0  0  0  0  0  0  0
   -6.3465    0.1896    0.9750 O   0  0  0  0  0  0  0  0  0  0  0  0
   -8.5798   -0.6864    0.8795 C   0  0  0  0  0  0  0  0  0  0  0  0
   -9.0113   -0.2356   -0.3890 C   0  0  0  0  0  0  0  0  0  0  0  0
  -10.2735   -0.6717   -0.7369 C   0  0  0  0  0  0  0  0  0  0  0  0
  -11.0706   -1.5177    0.1033 C   0  0  0  0  0  0  0  0  0  0  0  0
  -10.6539   -1.9622    1.3478 C   0  0  0  0  0  0  0  0  0  0  0  0
   -9.3657   -1.4980    1.7389 C   0  0  0  0  0  0  0  0  0  0  0  0
   -8.5854   -1.7907    2.9738 C   0  0  0  0  0  0  0  0  0  0  0  0
   -9.0768   -2.1830    4.1748 C   0  0  0  0  0  0  0  0  0  0  0  0
   -8.2776   -2.1334    5.3732 C   0  0  0  0  0  0  0  0  0  0  0  0
   -7.6485   -2.0769    6.3409 N   0  0  0  0  0  0  0  0  0  0  0  0
  -10.4652   -2.5051    4.3711 C   0  0  0  0  0  0  0  0  0  0  0  0
  -11.5802   -2.7682    4.5431 N   0  0  0  0  0  0  0  0  0  0  0  0
  -12.1633   -1.5390   -0.9263 C   0  0  0  0  0  0  0  0  0  0  0  0
  -13.4412   -0.6907   -0.6534 C   0  0  0  0  0  0  0  0  0  0  0  0
  -13.0888    0.5161    0.1870 C   0  0  0  0  0  0  0  0  0  0  0  0
  -12.3457    1.3129   -0.5848 C   0  0  0  0  0  0  0  0  0  0  0  0
  -12.2185    0.6197   -1.9242 C   0  0  0  0  0  0  0  0  0  0  0  0
  -13.5982   -0.0087   -1.9998 C   0  0  0  0  0  0  0  0  0  0  0  0
  -11.3476   -0.6645   -1.7805 C   0  0  0  0  0  0  0  0  0  0  0  0
    8.3263    1.7825    1.7540 H   0  0  0  0  0  0  0  0  0  0  0  0
    8.1632    0.2120   -0.9582 H   0  0  0  0  0  0  0  0  0  0  0  0
    9.5716   -0.7389   -2.7389 H   0  0  0  0  0  0  0  0  0  0  0  0
    9.7143    0.3616   -4.9447 H   0  0  0  0  0  0  0  0  0  0  0  0
    9.3743    2.3713   -6.2978 H   0  0  0  0  0  0  0  0  0  0  0  0
    8.4420    3.7552   -5.6410 H   0  0  0  0  0  0  0  0  0  0  0  0
    6.2894    2.4951   -6.0673 H   0  0  0  0  0  0  0  0  0  0  0  0
    7.2496    2.7755   -7.5709 H   0  0  0  0  0  0  0  0  0  0  0  0
    7.2559    1.1391   -6.7932 H   0  0  0  0  0  0  0  0  0  0  0  0
    7.0288    3.4408   -3.5721 H   0  0  0  0  0  0  0  0  0  0  0  0
   -6.0591   -1.9620   -0.7219 H   0  0  0  0  0  0  0  0  0  0  0  0
   -7.4422   -3.6719   -1.8413 H   0  0  0  0  0  0  0  0  0  0  0  0
   -7.3711   -6.0253   -1.0946 H   0  0  0  0  0  0  0  0  0  0  0  0
   -6.8402   -7.5944    0.7719 H   0  0  0  0  0  0  0  0  0  0  0  0
   -5.6164   -7.1641    2.0054 H   0  0  0  0  0  0  0  0  0  0  0  0
   -4.7566   -8.8880    0.4239 H   0  0  0  0  0  0  0  0  0  0  0  0
   -3.7938   -7.3674    0.2949 H   0  0  0  0  0  0  0  0  0  0  0  0
   -5.0238   -7.7697   -0.9711 H   0  0  0  0  0  0  0  0  0  0  0  0
   -4.5316   -4.9562    1.9713 H   0  0  0  0  0  0  0  0  0  0  0  0
    1.8243    1.2469    2.5695 H   0  0  0  0  0  0  0  0  0  0  0  0
    3.5268    1.4572    2.2708 H   0  0  0  0  0  0  0  0  0  0  0  0
    3.2928    3.9652    2.4434 H   0  0  0  0  0  0  0  0  0  0  0  0
    2.6969    3.1325    3.9279 H   0  0  0  0  0  0  0  0  0  0  0  0
    1.5295    3.7904    2.7196 H   0  0  0  0  0  0  0  0  0  0  0  0
   -0.1685    2.5099    2.0228 H   0  0  0  0  0  0  0  0  0  0  0  0
   -1.8468    1.9634    2.1194 H   0  0  0  0  0  0  0  0  0  0  0  0
    0.2720    0.6502    3.9481 H   0  0  0  0  0  0  0  0  0  0  0  0
   -0.4852    2.2380    4.3585 H   0  0  0  0  0  0  0  0  0  0  0  0
   -1.4908    0.7697    4.1789 H   0  0  0  0  0  0  0  0  0  0  0  0
   -6.1085   -2.4938    4.0564 H   0  0  0  0  0  0  0  0  0  0  0  0
   -8.4000    0.3711   -1.0423 H   0  0  0  0  0  0  0  0  0  0  0  0
  -11.2629   -2.6358    1.9262 H   0  0  0  0  0  0  0  0  0  0  0  0
  -12.3486   -2.5444   -1.3693 H   0  0  0  0  0  0  0  0  0  0  0  0
  -14.3272   -1.2649   -0.3043 H   0  0  0  0  0  0  0  0  0  0  0  0
  -13.4207    0.7353    1.1957 H   0  0  0  0  0  0  0  0  0  0  0  0
  -11.9695    2.2930   -0.3117 H   0  0  0  0  0  0  0  0  0  0  0  0
  -11.9452    1.2820   -2.7741 H   0  0  0  0  0  0  0  0  0  0  0  0
  -14.4252    0.7410   -2.0209 H   0  0  0  0  0  0  0  0  0  0  0  0
  -13.7173   -0.7211   -2.8515 H   0  0  0  0  0  0  0  0  0  0  0  0
  -11.0412   -1.1383   -2.7432 H   0  0  0  0  0  0  0  0  0  0  0  0
  1  2  2  3
  2  3  1  0
  3  4  2  0
  3  5  1  0
  5  6  2  0
  6  7  1  0
  6  8  1  0
  8  9  1  0
  8 10  2  0
 10 11  1  0
 10 12  1  0
 12 13  1  0
 12 14  2  0
 14 15  1  0
 15 16  2  3
 16 17  1  0
 17 18  3  0
 16 19  1  0
 19 20  3  0
  1 21  1  0
 21 22  2  0
 22 23  1  0
 23 24  2  0
 24 25  1  0
 25 26  2  0
 26 27  1  0
 27 28  1  0
 28 29  1  0
 27 30  2  0
 22 31  1  0
 31 32  1  0
 32 33  1  0
 33 34  1  0
 34 35  1  0
 35 36  1  0
 36 37  2  0
 37 38  1  0
 38 39  1  0
 36 40  1  0
 40 41  1  0
 41 42  1  0
 42 43  1  0
 43 44  1  0
 44 45  1  0
 45 46  2  0
 46 47  1  0
 47 48  2  0
 48 49  1  0
 49 50  1  0
 50 51  1  0
 49 52  2  0
 44 53  2  0
 53 54  1  0
 54 55  1  0
 55 56  1  0
 56 57  1  0
 57 58  1  0
 58 59  1  0
 59 60  1  0
 60 61  1  0
 61 62  1  0
 62 63  1  0
 60 64  1  0
 64 65  1  0
 57 66  1  0
 66 67  1  0
 53 68  1  0
 68 69  2  3
 69 70  1  0
 70 71  2  0
 70 72  1  0
 72 73  2  0
 73 74  1  0
 74 75  2  0
 75 76  1  0
 76 77  2  0
 77 78  1  0
 78 79  2  3
 79 80  1  0
 80 81  3  0
 79 82  1  0
 82 83  3  0
 75 84  1  0
 84 85  1  0
 85 86  1  0
 86 87  2  0
 87 88  1  0
 88 89  1  0
 88 90  1  0
 15  2  1  0
 63 21  1  0
 78 69  1  0
 90 84  1  0
 14  5  1  0
 30 23  1  0
 62 31  2  0
 77 72  1  0
 89 85  1  0
 61 33  2  0
 90 74  1  0
 59 34  2  0
 39 35  2  0
 58 40  2  0
 56 41  2  0
 55 43  2  0
 52 45  1  0
  1 91  1  0
 24 92  1  0
 25 93  1  0
 26 94  1  0
 28 95  1  0
 28 96  1  0
 29 97  1  0
 29 98  1  0
 29 99  1  0
 30100  1  0
 46101  1  0
 47102  1  0
 48103  1  0
 50104  1  0
 50105  1  0
 51106  1  0
 51107  1  0
 51108  1  0
 52109  1  0
 64110  1  0
 64111  1  0
 65112  1  0
 65113  1  0
 65114  1  0
 66115  1  0
 66116  1  0
 67117  1  0
 67118  1  0
 67119  1  0
 68120  1  0
 73121  1  0
 76122  1  0
 84123  1  0
 85124  1  0
 86125  1  0
 87126  1  0
 88127  1  0
 89128  1  0
 89129  1  0
 90130  1  0
M  END

