
     RDKit          3D

103114  0  0  0  0  0  0  0  0999 V2000
   -2.5165   -2.5814   -5.3485 C   0  0  0  0  0  0  0  0  0  0  0  0
   -3.4193   -1.6434   -5.0119 C   0  0  0  0  0  0  0  0  0  0  0  0
   -3.3427   -0.7223   -3.8736 C   0  0  0  0  0  0  0  0  0  0  0  0
   -2.5820   -0.8354   -2.8780 O   0  0  0  0  0  0  0  0  0  0  0  0
   -4.2710    0.3715   -4.1091 C   0  0  0  0  0  0  0  0  0  0  0  0
   -4.4399    1.5498   -3.3744 C   0  0  0  0  0  0  0  0  0  0  0  0
   -3.6286    1.7768   -1.8260 Cl  0  0  0  0  0  0  0  0  0  0  0  0
   -5.2770    2.5513   -3.9058 C   0  0  0  0  0  0  0  0  0  0  0  0
   -5.5656    4.0338   -2.9930 Cl  0  0  0  0  0  0  0  0  0  0  0  0
   -5.8486    2.3889   -5.1906 C   0  0  0  0  0  0  0  0  0  0  0  0
   -6.7900    3.6989   -5.9049 Cl  0  0  0  0  0  0  0  0  0  0  0  0
   -5.6405    1.1970   -5.9222 C   0  0  0  0  0  0  0  0  0  0  0  0
   -6.0588    1.1407   -7.6367 Cl  0  0  0  0  0  0  0  0  0  0  0  0
   -4.9289    0.1503   -5.3076 C   0  0  0  0  0  0  0  0  0  0  0  0
   -4.5929   -1.2079   -5.8126 C   0  0  0  0  0  0  0  0  0  0  0  0
   -5.4529   -2.0513   -6.4383 C   0  0  0  0  0  0  0  0  0  0  0  0
   -6.8135   -1.6782   -6.7294 C   0  0  0  0  0  0  0  0  0  0  0  0
   -7.9116   -1.3857   -6.9580 N   0  0  0  0  0  0  0  0  0  0  0  0
   -5.1618   -3.4549   -6.6084 C   0  0  0  0  0  0  0  0  0  0  0  0
   -4.9423   -4.5847   -6.7351 N   0  0  0  0  0  0  0  0  0  0  0  0
   -1.3184   -2.8427   -4.5400 C   0  0  0  0  0  0  0  0  0  0  0  0
   -1.1733   -3.8921   -3.6140 C   0  0  0  0  0  0  0  0  0  0  0  0
   -2.2283   -4.9180   -3.3127 C   0  0  0  0  0  0  0  0  0  0  0  0
   -2.1759   -6.0618   -4.3153 C   0  0  0  0  0  0  0  0  0  0  0  0
    0.0388   -3.7799   -2.9297 C   0  0  0  0  0  0  0  0  0  0  0  0
    0.6246   -4.4989   -1.4939 S   0  0  0  0  0  0  0  0  0  0  0  0
    1.8831   -3.3593   -1.4099 C   0  0  0  0  0  0  0  0  0  0  0  0
    2.7017   -2.8487   -0.4441 C   0  0  0  0  0  0  0  0  0  0  0  0
    3.0589   -3.3660    0.8078 C   0  0  0  0  0  0  0  0  0  0  0  0
    3.8645   -2.5774    1.6519 C   0  0  0  0  0  0  0  0  0  0  0  0
    4.2078   -3.0575    2.8777 N   0  0  0  0  0  0  0  0  0  0  0  0
    3.8040   -4.2900    3.2861 C   0  0  0  0  0  0  0  0  0  0  0  0
    3.0204   -5.0789    2.4390 C   0  0  0  0  0  0  0  0  0  0  0  0
    2.6603   -4.5990    1.2183 N   0  0  0  0  0  0  0  0  0  0  0  0
    4.2109   -1.2798    1.2352 C   0  0  0  0  0  0  0  0  0  0  0  0
    4.6209   -0.2309    2.0133 C   0  0  0  0  0  0  0  0  0  0  0  0
    4.6533    0.0021    3.6953 S   0  0  0  0  0  0  0  0  0  0  0  0
    4.3061    1.6539    3.5358 C   0  0  0  0  0  0  0  0  0  0  0  0
    3.8464    2.5909    4.4634 C   0  0  0  0  0  0  0  0  0  0  0  0
    3.8759    2.3798    5.9550 C   0  0  0  0  0  0  0  0  0  0  0  0
    5.2487    2.7308    6.5174 C   0  0  0  0  0  0  0  0  0  0  0  0
    3.2816    3.7023    3.8104 C   0  0  0  0  0  0  0  0  0  0  0  0
    3.3403    3.4751    2.1269 S   0  0  0  0  0  0  0  0  0  0  0  0
    4.1144    1.9875    2.2170 C   0  0  0  0  0  0  0  0  0  0  0  0
    4.2997    0.9107    1.3440 C   0  0  0  0  0  0  0  0  0  0  0  0
    3.7775    0.6587    0.1146 N   0  0  0  0  0  0  0  0  0  0  0  0
    3.7553   -0.7163    0.0241 C   0  0  0  0  0  0  0  0  0  0  0  0
    3.0816   -1.5718   -0.8984 C   0  0  0  0  0  0  0  0  0  0  0  0
    2.5926   -1.3538   -2.1697 N   0  0  0  0  0  0  0  0  0  0  0  0
    1.8389   -2.4513   -2.4091 C   0  0  0  0  0  0  0  0  0  0  0  0
    0.7949   -2.6896   -3.2839 C   0  0  0  0  0  0  0  0  0  0  0  0
    0.0150   -1.7827   -4.4533 S   0  0  0  0  0  0  0  0  0  0  0  0
    3.0504   -0.4623   -3.2449 C   0  0  0  0  0  0  0  0  0  0  0  0
    4.5778   -0.3467   -3.2822 C   0  0  0  0  0  0  0  0  0  0  0  0
    3.0968    1.6678   -0.7054 C   0  0  0  0  0  0  0  0  0  0  0  0
    1.5780    1.5541   -0.5931 C   0  0  0  0  0  0  0  0  0  0  0  0
    2.4684    4.7505    4.4425 C   0  0  0  0  0  0  0  0  0  0  0  0
    1.2377    4.5121    4.9408 C   0  0  0  0  0  0  0  0  0  0  0  0
    0.4899    3.2560    4.7922 C   0  0  0  0  0  0  0  0  0  0  0  0
    0.9449    2.1535    4.3850 O   0  0  0  0  0  0  0  0  0  0  0  0
   -0.8957    3.5049    5.1188 C   0  0  0  0  0  0  0  0  0  0  0  0
   -1.9676    2.6198    5.0283 C   0  0  0  0  0  0  0  0  0  0  0  0
   -3.2624    3.0903    5.3112 C   0  0  0  0  0  0  0  0  0  0  0  0
   -4.4300    2.1355    5.2525 C   0  0  0  0  0  0  0  0  0  0  0  0
   -4.3270    1.3236    4.1340 F   0  0  0  0  0  0  0  0  0  0  0  0
   -4.4260    1.3423    6.3863 F   0  0  0  0  0  0  0  0  0  0  0  0
   -5.6366    2.8142    5.1903 F   0  0  0  0  0  0  0  0  0  0  0  0
   -3.4387    4.4439    5.6793 C   0  0  0  0  0  0  0  0  0  0  0  0
   -2.3424    5.3186    5.7613 C   0  0  0  0  0  0  0  0  0  0  0  0
   -1.0546    4.8251    5.4989 C   0  0  0  0  0  0  0  0  0  0  0  0
    0.2727    5.5064    5.5058 C   0  0  0  0  0  0  0  0  0  0  0  0
    0.5758    6.6829    6.1185 C   0  0  0  0  0  0  0  0  0  0  0  0
   -0.4165    7.5009    6.7624 C   0  0  0  0  0  0  0  0  0  0  0  0
   -1.1959    8.1730    7.2940 N   0  0  0  0  0  0  0  0  0  0  0  0
    1.9327    7.1461    6.2746 C   0  0  0  0  0  0  0  0  0  0  0  0
    3.0185    7.5278    6.3993 N   0  0  0  0  0  0  0  0  0  0  0  0
   -2.6257   -3.1329   -6.2709 H   0  0  0  0  0  0  0  0  0  0  0  0
   -3.2342   -4.4443   -3.3495 H   0  0  0  0  0  0  0  0  0  0  0  0
   -2.0855   -5.3196   -2.2893 H   0  0  0  0  0  0  0  0  0  0  0  0
   -1.2036   -6.5956   -4.2444 H   0  0  0  0  0  0  0  0  0  0  0  0
   -2.9943   -6.7763   -4.0941 H   0  0  0  0  0  0  0  0  0  0  0  0
   -2.3204   -5.6777   -5.3492 H   0  0  0  0  0  0  0  0  0  0  0  0
    4.0899   -4.6548    4.2617 H   0  0  0  0  0  0  0  0  0  0  0  0
    2.6944   -6.0615    2.7544 H   0  0  0  0  0  0  0  0  0  0  0  0
    3.6420    1.3192    6.1945 H   0  0  0  0  0  0  0  0  0  0  0  0
    3.1126    3.0095    6.4578 H   0  0  0  0  0  0  0  0  0  0  0  0
    5.2583    2.5554    7.6127 H   0  0  0  0  0  0  0  0  0  0  0  0
    5.4827    3.7991    6.3304 H   0  0  0  0  0  0  0  0  0  0  0  0
    6.0318    2.0971    6.0515 H   0  0  0  0  0  0  0  0  0  0  0  0
    2.5273    0.5087   -3.2094 H   0  0  0  0  0  0  0  0  0  0  0  0
    2.7587   -0.8916   -4.2299 H   0  0  0  0  0  0  0  0  0  0  0  0
    5.0265   -1.3552   -3.4319 H   0  0  0  0  0  0  0  0  0  0  0  0
    4.8725    0.2957   -4.1395 H   0  0  0  0  0  0  0  0  0  0  0  0
    4.9895    0.0895   -2.3525 H   0  0  0  0  0  0  0  0  0  0  0  0
    3.4558    1.6363   -1.7362 H   0  0  0  0  0  0  0  0  0  0  0  0
    3.3938    2.6863   -0.3960 H   0  0  0  0  0  0  0  0  0  0  0  0
    1.2645    1.6872    0.4630 H   0  0  0  0  0  0  0  0  0  0  0  0
    1.0961    2.3470   -1.2039 H   0  0  0  0  0  0  0  0  0  0  0  0
    1.2228    0.5671   -0.9463 H   0  0  0  0  0  0  0  0  0  0  0  0
    2.8466    5.7549    4.3685 H   0  0  0  0  0  0  0  0  0  0  0  0
   -1.7974    1.5897    4.7424 H   0  0  0  0  0  0  0  0  0  0  0  0
   -4.4262    4.8259    5.9000 H   0  0  0  0  0  0  0  0  0  0  0  0
   -2.5305    6.3501    6.0008 H   0  0  0  0  0  0  0  0  0  0  0  0
  1  2  2  3
  2  3  1  0
  3  4  2  0
  3  5  1  0
  5  6  2  0
  6  7  1  0
  6  8  1  0
  8  9  1  0
  8 10  2  0
 10 11  1  0
 10 12  1  0
 12 13  1  0
 12 14  2  0
 14 15  1  0
 15 16  2  3
 16 17  1  0
 17 18  3  0
 16 19  1  0
 19 20  3  0
  1 21  1  0
 21 22  2  0
 22 23  1  0
 23 24  1  0
 22 25  1  0
 25 26  1  0
 26 27  1  0
 27 28  1  0
 28 29  2  0
 29 30  1  0
 30 31  1  0
 31 32  2  0
 32 33  1  0
 33 34  2  0
 30 35  2  0
 35 36  1  0
 36 37  1  0
 37 38  1  0
 38 39  1  0
 39 40  1  0
 40 41  1  0
 39 42  2  0
 42 43  1  0
 43 44  1  0
 44 45  1  0
 45 46  1  0
 46 47  1  0
 47 48  2  0
 48 49  1  0
 49 50  1  0
 50 51  1  0
 51 52  1  0
 49 53  1  0
 53 54  1  0
 46 55  1  0
 55 56  1  0
 42 57  1  0
 57 58  2  3
 58 59  1  0
 59 60  2  0
 59 61  1  0
 61 62  2  0
 62 63  1  0
 63 64  1  0
 64 65  1  0
 64 66  1  0
 64 67  1  0
 63 68  2  0
 68 69  1  0
 69 70  2  0
 70 71  1  0
 71 72  2  3
 72 73  1  0
 73 74  3  0
 72 75  1  0
 75 76  3  0
 15  2  1  0
 52 21  1  0
 71 58  1  0
 14  5  1  0
 51 25  2  0
 70 61  1  0
 50 27  2  0
 48 28  1  0
 34 29  1  0
 47 35  1  0
 45 36  2  0
 44 38  2  0
  1 77  1  0
 23 78  1  0
 23 79  1  0
 24 80  1  0
 24 81  1  0
 24 82  1  0
 32 83  1  0
 33 84  1  0
 40 85  1  0
 40 86  1  0
 41 87  1  0
 41 88  1  0
 41 89  1  0
 53 90  1  0
 53 91  1  0
 54 92  1  0
 54 93  1  0
 54 94  1  0
 55 95  1  0
 55 96  1  0
 56 97  1  0
 56 98  1  0
 56 99  1  0
 57100  1  0
 62101  1  0
 68102  1  0
 69103  1  0
M  END

