
     RDKit          3D

120133  0  0  0  0  0  0  0  0999 V2000
   -1.0787   -3.5914   -6.5322 C   0  0  0  0  0  0  0  0  0  0  0  0
   -0.3230   -4.4420   -5.8176 C   0  0  0  0  0  0  0  0  0  0  0  0
    0.7140   -4.0604   -4.8493 C   0  0  0  0  0  0  0  0  0  0  0  0
    0.7781   -2.9678   -4.2233 O   0  0  0  0  0  0  0  0  0  0  0  0
    1.7188   -5.1125   -4.8188 C   0  0  0  0  0  0  0  0  0  0  0  0
    3.0077   -5.0679   -4.2738 C   0  0  0  0  0  0  0  0  0  0  0  0
    3.5072   -3.7197   -3.2521 Cl  0  0  0  0  0  0  0  0  0  0  0  0
    3.9128   -6.0910   -4.6124 C   0  0  0  0  0  0  0  0  0  0  0  0
    5.5529   -6.0590   -3.9620 Cl  0  0  0  0  0  0  0  0  0  0  0  0
    3.5293   -7.1097   -5.5176 C   0  0  0  0  0  0  0  0  0  0  0  0
    4.7055   -8.3232   -6.0210 Cl  0  0  0  0  0  0  0  0  0  0  0  0
    2.2251   -7.1239   -6.0647 C   0  0  0  0  0  0  0  0  0  0  0  0
    1.8627   -8.2048   -7.4122 Cl  0  0  0  0  0  0  0  0  0  0  0  0
    1.3022   -6.1494   -5.6390 C   0  0  0  0  0  0  0  0  0  0  0  0
   -0.0717   -5.8661   -6.1378 C   0  0  0  0  0  0  0  0  0  0  0  0
   -1.0484   -6.7818   -6.3371 C   0  0  0  0  0  0  0  0  0  0  0  0
   -2.4012   -6.3940   -6.6426 C   0  0  0  0  0  0  0  0  0  0  0  0
   -3.4943   -6.0962   -6.8897 N   0  0  0  0  0  0  0  0  0  0  0  0
   -0.8573   -8.1671   -5.9851 C   0  0  0  0  0  0  0  0  0  0  0  0
   -0.7077   -9.2765   -5.6800 N   0  0  0  0  0  0  0  0  0  0  0  0
   -1.0589   -2.1444   -6.2766 C   0  0  0  0  0  0  0  0  0  0  0  0
   -0.1924   -1.2094   -6.8755 C   0  0  0  0  0  0  0  0  0  0  0  0
    0.6895   -1.4755   -8.0320 C   0  0  0  0  0  0  0  0  0  0  0  0
    0.6180   -0.6459   -9.1597 C   0  0  0  0  0  0  0  0  0  0  0  0
    1.3843   -0.9308  -10.2945 C   0  0  0  0  0  0  0  0  0  0  0  0
    2.2281   -2.0462  -10.3127 C   0  0  0  0  0  0  0  0  0  0  0  0
    2.3398   -2.8629   -9.1768 C   0  0  0  0  0  0  0  0  0  0  0  0
    3.2134   -4.0899   -9.1988 C   0  0  0  0  0  0  0  0  0  0  0  0
    2.4139   -5.3069   -9.6563 C   0  0  0  0  0  0  0  0  0  0  0  0
    1.5721   -2.5675   -8.0392 C   0  0  0  0  0  0  0  0  0  0  0  0
   -0.2494    0.0166   -6.2057 C   0  0  0  0  0  0  0  0  0  0  0  0
    0.8185    1.3398   -6.1753 S   0  0  0  0  0  0  0  0  0  0  0  0
    0.0513    1.9923   -4.8076 C   0  0  0  0  0  0  0  0  0  0  0  0
    0.4865    2.7369   -3.7430 C   0  0  0  0  0  0  0  0  0  0  0  0
    1.7429    3.3225   -3.5050 C   0  0  0  0  0  0  0  0  0  0  0  0
    2.1024    3.6758   -2.1678 C   0  0  0  0  0  0  0  0  0  0  0  0
    3.3434    4.1794   -1.9715 N   0  0  0  0  0  0  0  0  0  0  0  0
    3.9096    4.1251   -3.5278 S   0  0  0  0  0  0  0  0  0  0  0  0
    2.6897    3.5053   -4.4593 N   0  0  0  0  0  0  0  0  0  0  0  0
    1.1632    3.4801   -1.1514 C   0  0  0  0  0  0  0  0  0  0  0  0
    1.1813    3.7348    0.1950 C   0  0  0  0  0  0  0  0  0  0  0  0
    2.2462    4.2196    1.4269 S   0  0  0  0  0  0  0  0  0  0  0  0
    1.0101    4.0442    2.6021 C   0  0  0  0  0  0  0  0  0  0  0  0
    0.9809    4.1060    3.9998 C   0  0  0  0  0  0  0  0  0  0  0  0
    2.1712    4.3163    4.8486 C   0  0  0  0  0  0  0  0  0  0  0  0
    3.0451    5.3856    4.6084 C   0  0  0  0  0  0  0  0  0  0  0  0
    4.1653    5.5724    5.4237 C   0  0  0  0  0  0  0  0  0  0  0  0
    4.4221    4.6946    6.4813 C   0  0  0  0  0  0  0  0  0  0  0  0
    3.5668    3.6092    6.7189 C   0  0  0  0  0  0  0  0  0  0  0  0
    3.8188    2.6744    7.8718 C   0  0  0  0  0  0  0  0  0  0  0  0
    3.0943    3.1637    9.1222 C   0  0  0  0  0  0  0  0  0  0  0  0
    2.4413    3.4288    5.9023 C   0  0  0  0  0  0  0  0  0  0  0  0
   -0.2913    3.7460    4.4894 C   0  0  0  0  0  0  0  0  0  0  0  0
   -1.3313    3.3502    3.1926 S   0  0  0  0  0  0  0  0  0  0  0  0
   -0.1681    3.6376    2.0268 C   0  0  0  0  0  0  0  0  0  0  0  0
   -0.0575    3.4455    0.6656 C   0  0  0  0  0  0  0  0  0  0  0  0
   -0.9000    2.9976   -0.2940 N   0  0  0  0  0  0  0  0  0  0  0  0
   -0.1080    2.9499   -1.4056 C   0  0  0  0  0  0  0  0  0  0  0  0
   -0.4009    2.4482   -2.6942 C   0  0  0  0  0  0  0  0  0  0  0  0
   -1.2535    1.4276   -3.0391 N   0  0  0  0  0  0  0  0  0  0  0  0
   -0.9615    1.1982   -4.3489 C   0  0  0  0  0  0  0  0  0  0  0  0
   -1.1159    0.0596   -5.1417 C   0  0  0  0  0  0  0  0  0  0  0  0
   -1.8463   -1.4372   -4.9483 S   0  0  0  0  0  0  0  0  0  0  0  0
   -1.7915    0.3991   -2.1314 C   0  0  0  0  0  0  0  0  0  0  0  0
   -3.2935    0.1827   -2.3372 C   0  0  0  0  0  0  0  0  0  0  0  0
   -2.3670    3.0434   -0.2539 C   0  0  0  0  0  0  0  0  0  0  0  0
   -2.8693    4.4564    0.0448 C   0  0  0  0  0  0  0  0  0  0  0  0
   -0.7080    3.8115    5.9044 C   0  0  0  0  0  0  0  0  0  0  0  0
   -1.4891    2.8941    6.4937 C   0  0  0  0  0  0  0  0  0  0  0  0
   -2.0402    1.4589    5.8126 S   0  0  0  0  0  0  0  0  0  0  0  0
   -2.8908    0.9535    7.1819 C   0  0  0  0  0  0  0  0  0  0  0  0
   -3.6071   -0.2000    7.2235 C   0  0  0  0  0  0  0  0  0  0  0  0
   -4.3816   -0.6227    8.3667 C   0  0  0  0  0  0  0  0  0  0  0  0
   -4.9866   -0.9714    9.2890 N   0  0  0  0  0  0  0  0  0  0  0  0
   -3.6186   -1.0918    6.0856 C   0  0  0  0  0  0  0  0  0  0  0  0
   -3.6246   -1.8089    5.1768 N   0  0  0  0  0  0  0  0  0  0  0  0
   -2.7483    1.8827    8.1815 N   0  0  0  0  0  0  0  0  0  0  0  0
   -3.3357    1.8196    9.4902 C   0  0  0  0  0  0  0  0  0  0  0  0
   -2.6466    1.2070   10.5457 C   0  0  0  0  0  0  0  0  0  0  0  0
   -3.2406    1.1184   11.8119 C   0  0  0  0  0  0  0  0  0  0  0  0
   -4.5031    1.6761   12.0335 C   0  0  0  0  0  0  0  0  0  0  0  0
   -5.1799    2.3142   10.9898 C   0  0  0  0  0  0  0  0  0  0  0  0
   -4.5964    2.3862    9.7187 C   0  0  0  0  0  0  0  0  0  0  0  0
   -1.9695    2.9418    7.8020 C   0  0  0  0  0  0  0  0  0  0  0  0
   -1.7187    3.9006    8.5870 O   0  0  0  0  0  0  0  0  0  0  0  0
   -1.6258   -3.9439   -7.3951 H   0  0  0  0  0  0  0  0  0  0  0  0
   -0.0575    0.2015   -9.1786 H   0  0  0  0  0  0  0  0  0  0  0  0
    1.3056   -0.2972  -11.1708 H   0  0  0  0  0  0  0  0  0  0  0  0
    2.7939   -2.2714  -11.2104 H   0  0  0  0  0  0  0  0  0  0  0  0
    3.6248   -4.2875   -8.1836 H   0  0  0  0  0  0  0  0  0  0  0  0
    4.0760   -3.9367   -9.8813 H   0  0  0  0  0  0  0  0  0  0  0  0
    2.0522   -5.1590  -10.6963 H   0  0  0  0  0  0  0  0  0  0  0  0
    1.5467   -5.4787   -8.9858 H   0  0  0  0  0  0  0  0  0  0  0  0
    3.0639   -6.2103   -9.6347 H   0  0  0  0  0  0  0  0  0  0  0  0
    1.6700   -3.1928   -7.1687 H   0  0  0  0  0  0  0  0  0  0  0  0
    2.8565    6.0791    3.7981 H   0  0  0  0  0  0  0  0  0  0  0  0
    4.8352    6.4037    5.2371 H   0  0  0  0  0  0  0  0  0  0  0  0
    5.2877    4.8608    7.1119 H   0  0  0  0  0  0  0  0  0  0  0  0
    3.4595    1.6525    7.6220 H   0  0  0  0  0  0  0  0  0  0  0  0
    4.9095    2.6007    8.0788 H   0  0  0  0  0  0  0  0  0  0  0  0
    2.0004    3.1990    8.9394 H   0  0  0  0  0  0  0  0  0  0  0  0
    3.2934    2.4656    9.9625 H   0  0  0  0  0  0  0  0  0  0  0  0
    3.4520    4.1775    9.4060 H   0  0  0  0  0  0  0  0  0  0  0  0
    1.7791    2.5888    6.0917 H   0  0  0  0  0  0  0  0  0  0  0  0
   -1.2519   -0.5563   -2.3046 H   0  0  0  0  0  0  0  0  0  0  0  0
   -1.5952    0.6402   -1.0704 H   0  0  0  0  0  0  0  0  0  0  0  0
   -3.8862    0.9454   -1.7975 H   0  0  0  0  0  0  0  0  0  0  0  0
   -3.5658    0.2215   -3.4123 H   0  0  0  0  0  0  0  0  0  0  0  0
   -3.5788   -0.8145   -1.9409 H   0  0  0  0  0  0  0  0  0  0  0  0
   -2.7495    2.3320    0.5076 H   0  0  0  0  0  0  0  0  0  0  0  0
   -2.7764    2.7794   -1.2460 H   0  0  0  0  0  0  0  0  0  0  0  0
   -2.7102    4.7181    1.1082 H   0  0  0  0  0  0  0  0  0  0  0  0
   -2.3466    5.1983   -0.5918 H   0  0  0  0  0  0  0  0  0  0  0  0
   -3.9573    4.5191   -0.1641 H   0  0  0  0  0  0  0  0  0  0  0  0
   -0.3267    4.6363    6.4933 H   0  0  0  0  0  0  0  0  0  0  0  0
   -1.6677    0.7750   10.3787 H   0  0  0  0  0  0  0  0  0  0  0  0
   -2.7151    0.6294   12.6211 H   0  0  0  0  0  0  0  0  0  0  0  0
   -4.9610    1.6124   13.0148 H   0  0  0  0  0  0  0  0  0  0  0  0
   -6.1566    2.7515   11.1584 H   0  0  0  0  0  0  0  0  0  0  0  0
   -5.1285    2.8706    8.9092 H   0  0  0  0  0  0  0  0  0  0  0  0
  1  2  2  3
  2  3  1  0
  3  4  2  0
  3  5  1  0
  5  6  2  0
  6  7  1  0
  6  8  1  0
  8  9  1  0
  8 10  2  0
 10 11  1  0
 10 12  1  0
 12 13  1  0
 12 14  2  0
 14 15  1  0
 15 16  2  3
 16 17  1  0
 17 18  3  0
 16 19  1  0
 19 20  3  0
  1 21  1  0
 21 22  2  0
 22 23  1  0
 23 24  2  0
 24 25  1  0
 25 26  2  0
 26 27  1  0
 27 28  1  0
 28 29  1  0
 27 30  2  0
 22 31  1  0
 31 32  1  0
 32 33  1  0
 33 34  1  0
 34 35  1  0
 35 36  1  0
 36 37  2  0
 37 38  1  0
 38 39  1  0
 36 40  1  0
 40 41  1  0
 41 42  1  0
 42 43  1  0
 43 44  1  0
 44 45  1  0
 45 46  2  0
 46 47  1  0
 47 48  2  0
 48 49  1  0
 49 50  1  0
 50 51  1  0
 49 52  2  0
 44 53  2  0
 53 54  1  0
 54 55  1  0
 55 56  1  0
 56 57  1  0
 57 58  1  0
 58 59  1  0
 59 60  1  0
 60 61  1  0
 61 62  1  0
 62 63  1  0
 60 64  1  0
 64 65  1  0
 57 66  1  0
 66 67  1  0
 53 68  1  0
 68 69  2  3
 69 70  1  0
 70 71  1  0
 71 72  2  3
 72 73  1  0
 73 74  3  0
 72 75  1  0
 75 76  3  0
 71 77  1  0
 77 78  1  0
 78 79  2  0
 79 80  1  0
 80 81  2  0
 81 82  1  0
 82 83  2  0
 77 84  1  0
 84 85  2  0
 15  2  1  0
 63 21  1  0
 84 69  1  0
 14  5  1  0
 30 23  1  0
 62 31  2  0
 83 78  1  0
 61 33  2  0
 59 34  2  0
 39 35  2  0
 58 40  2  0
 56 41  2  0
 55 43  2  0
 52 45  1  0
  1 86  1  0
 24 87  1  0
 25 88  1  0
 26 89  1  0
 28 90  1  0
 28 91  1  0
 29 92  1  0
 29 93  1  0
 29 94  1  0
 30 95  1  0
 46 96  1  0
 47 97  1  0
 48 98  1  0
 50 99  1  0
 50100  1  0
 51101  1  0
 51102  1  0
 51103  1  0
 52104  1  0
 64105  1  0
 64106  1  0
 65107  1  0
 65108  1  0
 65109  1  0
 66110  1  0
 66111  1  0
 67112  1  0
 67113  1  0
 67114  1  0
 68115  1  0
 79116  1  0
 80117  1  0
 81118  1  0
 82119  1  0
 83120  1  0
M  END

