
     RDKit          3D

 86 95  0  0  0  0  0  0  0  0999 V2000
    4.8498   -4.0510    1.4924 C   0  0  0  0  0  0  0  0  0  0  0  0
    4.9875   -4.1868    2.8238 C   0  0  0  0  0  0  0  0  0  0  0  0
    3.9285   -4.0582    3.8314 C   0  0  0  0  0  0  0  0  0  0  0  0
    2.7638   -3.6207    3.6298 O   0  0  0  0  0  0  0  0  0  0  0  0
    4.3882   -4.6858    5.0631 C   0  0  0  0  0  0  0  0  0  0  0  0
    3.6740   -4.9257    6.2427 C   0  0  0  0  0  0  0  0  0  0  0  0
    2.0677   -4.2402    6.4808 Cl  0  0  0  0  0  0  0  0  0  0  0  0
    4.2655   -5.7392    7.2287 C   0  0  0  0  0  0  0  0  0  0  0  0
    3.4176   -6.0392    8.7489 Cl  0  0  0  0  0  0  0  0  0  0  0  0
    5.5113   -6.3611    6.9789 C   0  0  0  0  0  0  0  0  0  0  0  0
    6.1873   -7.4802    8.1641 Cl  0  0  0  0  0  0  0  0  0  0  0  0
    6.1977   -6.1267    5.7689 C   0  0  0  0  0  0  0  0  0  0  0  0
    7.5540   -7.1666    5.3262 Cl  0  0  0  0  0  0  0  0  0  0  0  0
    5.6618   -5.1932    4.8617 C   0  0  0  0  0  0  0  0  0  0  0  0
    6.1664   -4.7446    3.5343 C   0  0  0  0  0  0  0  0  0  0  0  0
    7.4513   -4.4130    3.2486 C   0  0  0  0  0  0  0  0  0  0  0  0
    7.8070   -3.7155    2.0378 C   0  0  0  0  0  0  0  0  0  0  0  0
    8.0935   -3.1454    1.0739 N   0  0  0  0  0  0  0  0  0  0  0  0
    8.4888   -4.4681    4.2475 C   0  0  0  0  0  0  0  0  0  0  0  0
    9.3274   -4.4970    5.0459 N   0  0  0  0  0  0  0  0  0  0  0  0
    3.6909   -3.4087    0.8487 C   0  0  0  0  0  0  0  0  0  0  0  0
    2.9759   -3.9255   -0.2504 C   0  0  0  0  0  0  0  0  0  0  0  0
    3.2455   -5.2459   -0.9160 C   0  0  0  0  0  0  0  0  0  0  0  0
    4.2482   -5.0849   -2.0533 C   0  0  0  0  0  0  0  0  0  0  0  0
    2.0170   -3.0114   -0.6866 C   0  0  0  0  0  0  0  0  0  0  0  0
    0.8815   -3.0128   -1.9629 S   0  0  0  0  0  0  0  0  0  0  0  0
    0.3509   -1.4613   -1.5188 C   0  0  0  0  0  0  0  0  0  0  0  0
   -0.4268   -0.4506   -2.0144 C   0  0  0  0  0  0  0  0  0  0  0  0
   -1.1850   -0.3395   -3.1890 C   0  0  0  0  0  0  0  0  0  0  0  0
   -1.7882    0.9083   -3.4875 C   0  0  0  0  0  0  0  0  0  0  0  0
   -2.5403    1.0341   -4.6124 N   0  0  0  0  0  0  0  0  0  0  0  0
   -2.7026   -0.0152   -5.4628 C   0  0  0  0  0  0  0  0  0  0  0  0
   -2.0952   -1.2456   -5.1728 C   0  0  0  0  0  0  0  0  0  0  0  0
   -1.3504   -1.3843   -4.0424 N   0  0  0  0  0  0  0  0  0  0  0  0
   -1.6176    1.9702   -2.5819 C   0  0  0  0  0  0  0  0  0  0  0  0
   -2.2661    3.1703   -2.4738 C   0  0  0  0  0  0  0  0  0  0  0  0
   -3.6116    3.9214   -3.1928 S   0  0  0  0  0  0  0  0  0  0  0  0
   -3.7894    4.9569   -1.8496 C   0  0  0  0  0  0  0  0  0  0  0  0
   -4.7243    5.9343   -1.5084 C   0  0  0  0  0  0  0  0  0  0  0  0
   -5.8116    6.4234   -2.4241 C   0  0  0  0  0  0  0  0  0  0  0  0
   -5.3333    7.6273   -3.2267 C   0  0  0  0  0  0  0  0  0  0  0  0
   -4.4503    6.4554   -0.2319 C   0  0  0  0  0  0  0  0  0  0  0  0
   -3.1145    5.6535    0.4640 S   0  0  0  0  0  0  0  0  0  0  0  0
   -2.8663    4.6786   -0.8766 C   0  0  0  0  0  0  0  0  0  0  0  0
   -1.9943    3.6580   -1.2318 C   0  0  0  0  0  0  0  0  0  0  0  0
   -1.2073    2.8289   -0.4983 N   0  0  0  0  0  0  0  0  0  0  0  0
   -0.9000    1.8323   -1.3860 C   0  0  0  0  0  0  0  0  0  0  0  0
   -0.2110    0.6306   -1.1508 C   0  0  0  0  0  0  0  0  0  0  0  0
    0.7700    0.3566   -0.2353 N   0  0  0  0  0  0  0  0  0  0  0  0
    1.0317   -0.9546   -0.4617 C   0  0  0  0  0  0  0  0  0  0  0  0
    1.9895   -1.8317    0.0086 C   0  0  0  0  0  0  0  0  0  0  0  0
    3.1509   -1.8269    1.2133 S   0  0  0  0  0  0  0  0  0  0  0  0
    1.7523    1.3128    0.3033 C   0  0  0  0  0  0  0  0  0  0  0  0
    2.9558    1.4464   -0.6321 C   0  0  0  0  0  0  0  0  0  0  0  0
   -1.3281    2.6742    0.9618 C   0  0  0  0  0  0  0  0  0  0  0  0
   -2.6715    2.0458    1.3322 C   0  0  0  0  0  0  0  0  0  0  0  0
   -5.2035    7.5311    0.4354 C   0  0  0  0  0  0  0  0  0  0  0  0
   -4.6653    8.7265    0.7166 C   0  0  0  0  0  0  0  0  0  0  0  0
   -3.3282    9.0740    0.2953 C   0  0  0  0  0  0  0  0  0  0  0  0
   -2.2597    9.3499   -0.0656 N   0  0  0  0  0  0  0  0  0  0  0  0
   -5.4594    9.7336    1.3699 C   0  0  0  0  0  0  0  0  0  0  0  0
   -6.1006   10.5400    1.8967 N   0  0  0  0  0  0  0  0  0  0  0  0
    5.6105   -4.4538    0.8419 H   0  0  0  0  0  0  0  0  0  0  0  0
    3.6393   -5.9739   -0.1746 H   0  0  0  0  0  0  0  0  0  0  0  0
    2.2977   -5.6574   -1.3208 H   0  0  0  0  0  0  0  0  0  0  0  0
    5.2118   -4.6852   -1.6722 H   0  0  0  0  0  0  0  0  0  0  0  0
    4.4380   -6.0694   -2.5261 H   0  0  0  0  0  0  0  0  0  0  0  0
    3.8499   -4.3937   -2.8249 H   0  0  0  0  0  0  0  0  0  0  0  0
   -3.3025    0.1023   -6.3574 H   0  0  0  0  0  0  0  0  0  0  0  0
   -2.2181   -2.0859   -5.8432 H   0  0  0  0  0  0  0  0  0  0  0  0
   -6.1149    5.6122   -3.1205 H   0  0  0  0  0  0  0  0  0  0  0  0
   -6.7077    6.7055   -1.8292 H   0  0  0  0  0  0  0  0  0  0  0  0
   -4.4536    7.3498   -3.8506 H   0  0  0  0  0  0  0  0  0  0  0  0
   -6.1492    7.9759   -3.8944 H   0  0  0  0  0  0  0  0  0  0  0  0
   -5.0494    8.4579   -2.5438 H   0  0  0  0  0  0  0  0  0  0  0  0
    1.3201    2.3284    0.3985 H   0  0  0  0  0  0  0  0  0  0  0  0
    2.0922    0.9784    1.3056 H   0  0  0  0  0  0  0  0  0  0  0  0
    3.6648    2.2004   -0.2251 H   0  0  0  0  0  0  0  0  0  0  0  0
    2.6207    1.7836   -1.6355 H   0  0  0  0  0  0  0  0  0  0  0  0
    3.4883    0.4790   -0.7354 H   0  0  0  0  0  0  0  0  0  0  0  0
   -0.5495    2.0120    1.3754 H   0  0  0  0  0  0  0  0  0  0  0  0
   -1.2254    3.6622    1.4539 H   0  0  0  0  0  0  0  0  0  0  0  0
   -3.5172    2.6808    0.9938 H   0  0  0  0  0  0  0  0  0  0  0  0
   -2.7400    1.9294    2.4346 H   0  0  0  0  0  0  0  0  0  0  0  0
   -2.7655    1.0450    0.8615 H   0  0  0  0  0  0  0  0  0  0  0  0
   -6.2453    7.3404    0.6768 H   0  0  0  0  0  0  0  0  0  0  0  0
  1  2  2  3
  2  3  1  0
  3  4  2  0
  3  5  1  0
  5  6  2  0
  6  7  1  0
  6  8  1  0
  8  9  1  0
  8 10  2  0
 10 11  1  0
 10 12  1  0
 12 13  1  0
 12 14  2  0
 14 15  1  0
 15 16  2  3
 16 17  1  0
 17 18  3  0
 16 19  1  0
 19 20  3  0
  1 21  1  0
 21 22  2  0
 22 23  1  0
 23 24  1  0
 22 25  1  0
 25 26  1  0
 26 27  1  0
 27 28  1  0
 28 29  2  0
 29 30  1  0
 30 31  1  0
 31 32  2  0
 32 33  1  0
 33 34  2  0
 30 35  2  0
 35 36  1  0
 36 37  1  0
 37 38  1  0
 38 39  1  0
 39 40  1  0
 40 41  1  0
 39 42  2  0
 42 43  1  0
 43 44  1  0
 44 45  1  0
 45 46  1  0
 46 47  1  0
 47 48  2  0
 48 49  1  0
 49 50  1  0
 50 51  1  0
 51 52  1  0
 49 53  1  0
 53 54  1  0
 46 55  1  0
 55 56  1  0
 42 57  1  0
 57 58  2  3
 58 59  1  0
 59 60  3  0
 58 61  1  0
 61 62  3  0
 15  2  1  0
 52 21  1  0
 14  5  1  0
 51 25  2  0
 50 27  2  0
 48 28  1  0
 34 29  1  0
 47 35  1  0
 45 36  2  0
 44 38  2  0
  1 63  1  0
 23 64  1  0
 23 65  1  0
 24 66  1  0
 24 67  1  0
 24 68  1  0
 32 69  1  0
 33 70  1  0
 40 71  1  0
 40 72  1  0
 41 73  1  0
 41 74  1  0
 41 75  1  0
 53 76  1  0
 53 77  1  0
 54 78  1  0
 54 79  1  0
 54 80  1  0
 55 81  1  0
 55 82  1  0
 56 83  1  0
 56 84  1  0
 56 85  1  0
 57 86  1  0
M  END

