
     RDKit          3D

100111  0  0  0  0  0  0  0  0999 V2000
   -7.7427    0.4872   -0.2971 C   0  0  0  0  0  0  0  0  0  0  0  0
   -8.1051   -0.5594   -1.0653 C   0  0  0  0  0  0  0  0  0  0  0  0
   -7.6091   -1.9345   -0.9711 C   0  0  0  0  0  0  0  0  0  0  0  0
   -7.2594   -2.5209    0.0903 O   0  0  0  0  0  0  0  0  0  0  0  0
   -7.6588   -2.5304   -2.2995 C   0  0  0  0  0  0  0  0  0  0  0  0
   -7.0710   -3.7145   -2.7540 C   0  0  0  0  0  0  0  0  0  0  0  0
   -6.3603   -4.8579   -1.6171 Cl  0  0  0  0  0  0  0  0  0  0  0  0
   -7.0200   -3.9404   -4.1441 C   0  0  0  0  0  0  0  0  0  0  0  0
   -6.2766   -5.4100   -4.7634 Cl  0  0  0  0  0  0  0  0  0  0  0  0
   -7.4966   -2.9611   -5.0408 C   0  0  0  0  0  0  0  0  0  0  0  0
   -7.3116   -3.1973   -6.7824 Cl  0  0  0  0  0  0  0  0  0  0  0  0
   -8.0834   -1.7719   -4.5535 C   0  0  0  0  0  0  0  0  0  0  0  0
   -8.3507   -0.4217   -5.6544 Cl  0  0  0  0  0  0  0  0  0  0  0  0
   -8.2415   -1.6173   -3.1654 C   0  0  0  0  0  0  0  0  0  0  0  0
   -8.7542   -0.4589   -2.3898 C   0  0  0  0  0  0  0  0  0  0  0  0
   -9.9147    0.1995   -2.6248 C   0  0  0  0  0  0  0  0  0  0  0  0
  -10.7550   -0.1213   -3.7527 C   0  0  0  0  0  0  0  0  0  0  0  0
  -11.4353   -0.3730   -4.6580 N   0  0  0  0  0  0  0  0  0  0  0  0
  -10.4943    1.1016   -1.6585 C   0  0  0  0  0  0  0  0  0  0  0  0
  -10.9684    1.8057   -0.8683 N   0  0  0  0  0  0  0  0  0  0  0  0
   -6.6190    0.4455    0.6608 C   0  0  0  0  0  0  0  0  0  0  0  0
   -6.4242    1.3064    1.7661 C   0  0  0  0  0  0  0  0  0  0  0  0
   -7.4210    2.3074    2.2797 C   0  0  0  0  0  0  0  0  0  0  0  0
   -8.3688    1.6709    3.2873 C   0  0  0  0  0  0  0  0  0  0  0  0
   -5.1556    1.1170    2.3333 C   0  0  0  0  0  0  0  0  0  0  0  0
   -4.2863    1.9119    3.5663 S   0  0  0  0  0  0  0  0  0  0  0  0
   -2.8877    0.9975    3.2279 C   0  0  0  0  0  0  0  0  0  0  0  0
   -1.5386    1.1311    3.4247 C   0  0  0  0  0  0  0  0  0  0  0  0
   -0.8418    2.0571    4.2124 C   0  0  0  0  0  0  0  0  0  0  0  0
    0.5618    2.1249    4.0815 C   0  0  0  0  0  0  0  0  0  0  0  0
    1.2582    3.0293    4.8224 N   0  0  0  0  0  0  0  0  0  0  0  0
    0.6164    3.8638    5.6863 C   0  0  0  0  0  0  0  0  0  0  0  0
   -0.7761    3.8028    5.8092 C   0  0  0  0  0  0  0  0  0  0  0  0
   -1.4781    2.9010    5.0687 N   0  0  0  0  0  0  0  0  0  0  0  0
    1.1941    1.2514    3.1888 C   0  0  0  0  0  0  0  0  0  0  0  0
    2.5149    1.1002    2.8809 C   0  0  0  0  0  0  0  0  0  0  0  0
    3.9995    1.8640    3.1802 S   0  0  0  0  0  0  0  0  0  0  0  0
    4.7906    0.7843    2.1135 C   0  0  0  0  0  0  0  0  0  0  0  0
    6.0879    0.7179    1.6049 C   0  0  0  0  0  0  0  0  0  0  0  0
    7.1662    1.7164    1.9086 C   0  0  0  0  0  0  0  0  0  0  0  0
    7.1186    2.8725    0.9146 C   0  0  0  0  0  0  0  0  0  0  0  0
    6.1773   -0.2741    0.6117 C   0  0  0  0  0  0  0  0  0  0  0  0
    4.6767   -1.0603    0.4113 S   0  0  0  0  0  0  0  0  0  0  0  0
    3.9128   -0.1217    1.5719 C   0  0  0  0  0  0  0  0  0  0  0  0
    2.6141    0.0733    2.0126 C   0  0  0  0  0  0  0  0  0  0  0  0
    1.4166   -0.4943    1.7289 N   0  0  0  0  0  0  0  0  0  0  0  0
    0.5095    0.2861    2.4247 C   0  0  0  0  0  0  0  0  0  0  0  0
   -0.9186    0.2774    2.4893 C   0  0  0  0  0  0  0  0  0  0  0  0
   -1.8755   -0.2925    1.6684 N   0  0  0  0  0  0  0  0  0  0  0  0
   -3.0523    0.1489    2.1812 C   0  0  0  0  0  0  0  0  0  0  0  0
   -4.3518    0.2130    1.6829 C   0  0  0  0  0  0  0  0  0  0  0  0
   -5.1723   -0.4046    0.3664 S   0  0  0  0  0  0  0  0  0  0  0  0
   -1.7424   -0.8252    0.3095 C   0  0  0  0  0  0  0  0  0  0  0  0
   -1.1429    0.2049   -0.6380 C   0  0  0  0  0  0  0  0  0  0  0  0
    1.2714   -1.7786    1.0425 C   0  0  0  0  0  0  0  0  0  0  0  0
    0.5928   -2.8186    1.9344 C   0  0  0  0  0  0  0  0  0  0  0  0
    7.3793   -0.5779   -0.1705 C   0  0  0  0  0  0  0  0  0  0  0  0
    7.4656   -0.3689   -1.4958 C   0  0  0  0  0  0  0  0  0  0  0  0
    6.4461    0.2134   -2.3856 C   0  0  0  0  0  0  0  0  0  0  0  0
    5.2959    0.6026   -2.0602 O   0  0  0  0  0  0  0  0  0  0  0  0
    7.0465    0.3591   -3.6928 C   0  0  0  0  0  0  0  0  0  0  0  0
    6.5037    0.9321   -4.8425 C   0  0  0  0  0  0  0  0  0  0  0  0
    7.3241    1.0688   -5.9792 C   0  0  0  0  0  0  0  0  0  0  0  0
    8.6616    0.6254   -5.9382 C   0  0  0  0  0  0  0  0  0  0  0  0
    9.6796    0.8222   -7.3537 Cl  0  0  0  0  0  0  0  0  0  0  0  0
    9.1851    0.0357   -4.7687 C   0  0  0  0  0  0  0  0  0  0  0  0
    8.3547   -0.0851   -3.6482 C   0  0  0  0  0  0  0  0  0  0  0  0
    8.6850   -0.6247   -2.3131 C   0  0  0  0  0  0  0  0  0  0  0  0
    9.9130   -0.5417   -1.7927 C   0  0  0  0  0  0  0  0  0  0  0  0
   10.7794   -1.6825   -1.9022 C   0  0  0  0  0  0  0  0  0  0  0  0
   11.4766   -2.6048   -1.9764 N   0  0  0  0  0  0  0  0  0  0  0  0
   10.5339    0.7520   -1.6468 C   0  0  0  0  0  0  0  0  0  0  0  0
   11.0381    1.7891   -1.5256 N   0  0  0  0  0  0  0  0  0  0  0  0
   -8.1601    1.4635   -0.5081 H   0  0  0  0  0  0  0  0  0  0  0  0
   -8.0101    2.7225    1.4393 H   0  0  0  0  0  0  0  0  0  0  0  0
   -6.8913    3.1593    2.7639 H   0  0  0  0  0  0  0  0  0  0  0  0
   -7.8116    1.3690    4.1998 H   0  0  0  0  0  0  0  0  0  0  0  0
   -9.1619    2.4018    3.5709 H   0  0  0  0  0  0  0  0  0  0  0  0
   -8.8633    0.7720    2.8491 H   0  0  0  0  0  0  0  0  0  0  0  0
    1.1854    4.5724    6.2753 H   0  0  0  0  0  0  0  0  0  0  0  0
   -1.3001    4.4560    6.4972 H   0  0  0  0  0  0  0  0  0  0  0  0
    7.0330    2.1177    2.9360 H   0  0  0  0  0  0  0  0  0  0  0  0
    8.1622    1.2312    1.8534 H   0  0  0  0  0  0  0  0  0  0  0  0
    7.3014    2.5024   -0.1186 H   0  0  0  0  0  0  0  0  0  0  0  0
    7.9049    3.6167    1.1700 H   0  0  0  0  0  0  0  0  0  0  0  0
    6.1244    3.3756    0.9403 H   0  0  0  0  0  0  0  0  0  0  0  0
   -2.7193   -1.1237   -0.0997 H   0  0  0  0  0  0  0  0  0  0  0  0
   -1.2232   -1.7877    0.3069 H   0  0  0  0  0  0  0  0  0  0  0  0
   -0.2014    0.6190   -0.2210 H   0  0  0  0  0  0  0  0  0  0  0  0
   -1.8622    1.0455   -0.7843 H   0  0  0  0  0  0  0  0  0  0  0  0
   -0.9256   -0.2716   -1.6269 H   0  0  0  0  0  0  0  0  0  0  0  0
    0.8082   -1.6445    0.0459 H   0  0  0  0  0  0  0  0  0  0  0  0
    2.2688   -2.2026    0.8117 H   0  0  0  0  0  0  0  0  0  0  0  0
    1.2744   -3.0896    2.7743 H   0  0  0  0  0  0  0  0  0  0  0  0
   -0.3627   -2.4428    2.3573 H   0  0  0  0  0  0  0  0  0  0  0  0
    0.3923   -3.7284    1.3378 H   0  0  0  0  0  0  0  0  0  0  0  0
    8.2487   -0.9339    0.3724 H   0  0  0  0  0  0  0  0  0  0  0  0
    5.4825    1.2909   -4.8556 H   0  0  0  0  0  0  0  0  0  0  0  0
    6.9316    1.5203   -6.8784 H   0  0  0  0  0  0  0  0  0  0  0  0
   10.2148   -0.2966   -4.7291 H   0  0  0  0  0  0  0  0  0  0  0  0
  1  2  2  3
  2  3  1  0
  3  4  2  0
  3  5  1  0
  5  6  2  0
  6  7  1  0
  6  8  1  0
  8  9  1  0
  8 10  2  0
 10 11  1  0
 10 12  1  0
 12 13  1  0
 12 14  2  0
 14 15  1  0
 15 16  2  3
 16 17  1  0
 17 18  3  0
 16 19  1  0
 19 20  3  0
  1 21  1  0
 21 22  2  0
 22 23  1  0
 23 24  1  0
 22 25  1  0
 25 26  1  0
 26 27  1  0
 27 28  1  0
 28 29  2  0
 29 30  1  0
 30 31  1  0
 31 32  2  0
 32 33  1  0
 33 34  2  0
 30 35  2  0
 35 36  1  0
 36 37  1  0
 37 38  1  0
 38 39  1  0
 39 40  1  0
 40 41  1  0
 39 42  2  0
 42 43  1  0
 43 44  1  0
 44 45  1  0
 45 46  1  0
 46 47  1  0
 47 48  2  0
 48 49  1  0
 49 50  1  0
 50 51  1  0
 51 52  1  0
 49 53  1  0
 53 54  1  0
 46 55  1  0
 55 56  1  0
 42 57  1  0
 57 58  2  3
 58 59  1  0
 59 60  2  0
 59 61  1  0
 61 62  2  0
 62 63  1  0
 63 64  2  0
 64 65  1  0
 64 66  1  0
 66 67  2  0
 67 68  1  0
 68 69  2  3
 69 70  1  0
 70 71  3  0
 69 72  1  0
 72 73  3  0
 15  2  1  0
 52 21  1  0
 68 58  1  0
 14  5  1  0
 51 25  2  0
 67 61  1  0
 50 27  2  0
 48 28  1  0
 34 29  1  0
 47 35  1  0
 45 36  2  0
 44 38  2  0
  1 74  1  0
 23 75  1  0
 23 76  1  0
 24 77  1  0
 24 78  1  0
 24 79  1  0
 32 80  1  0
 33 81  1  0
 40 82  1  0
 40 83  1  0
 41 84  1  0
 41 85  1  0
 41 86  1  0
 53 87  1  0
 53 88  1  0
 54 89  1  0
 54 90  1  0
 54 91  1  0
 55 92  1  0
 55 93  1  0
 56 94  1  0
 56 95  1  0
 56 96  1  0
 57 97  1  0
 62 98  1  0
 63 99  1  0
 66100  1  0
M  END

