
     RDKit          3D

117132  0  0  0  0  0  0  0  0999 V2000
    6.8153   -6.8234   -2.5629 C   0  0  0  0  0  0  0  0  0  0  0  0
    7.2735   -5.6625   -3.0889 C   0  0  0  0  0  0  0  0  0  0  0  0
    7.6686   -4.4529   -2.3446 C   0  0  0  0  0  0  0  0  0  0  0  0
    7.7934   -4.3559   -1.0988 O   0  0  0  0  0  0  0  0  0  0  0  0
    7.8270   -3.3508   -3.2810 C   0  0  0  0  0  0  0  0  0  0  0  0
    8.2504   -2.0399   -3.0345 C   0  0  0  0  0  0  0  0  0  0  0  0
    8.4917   -1.4602   -1.3892 Cl  0  0  0  0  0  0  0  0  0  0  0  0
    8.4727   -1.1907   -4.1357 C   0  0  0  0  0  0  0  0  0  0  0  0
    8.9964    0.4680   -3.8629 Cl  0  0  0  0  0  0  0  0  0  0  0  0
    8.3389   -1.6838   -5.4543 C   0  0  0  0  0  0  0  0  0  0  0  0
    8.7168   -0.6413   -6.8343 Cl  0  0  0  0  0  0  0  0  0  0  0  0
    7.9376   -3.0162   -5.6788 C   0  0  0  0  0  0  0  0  0  0  0  0
    8.0084   -3.6989   -7.2983 Cl  0  0  0  0  0  0  0  0  0  0  0  0
    7.6069   -3.8152   -4.5663 C   0  0  0  0  0  0  0  0  0  0  0  0
    7.2122   -5.2532   -4.5256 C   0  0  0  0  0  0  0  0  0  0  0  0
    6.4261   -5.8513   -5.4425 C   0  0  0  0  0  0  0  0  0  0  0  0
    5.4829   -5.0974   -6.2299 C   0  0  0  0  0  0  0  0  0  0  0  0
    4.7245   -4.4784   -6.8476 N   0  0  0  0  0  0  0  0  0  0  0  0
    6.5041   -7.2642   -5.6957 C   0  0  0  0  0  0  0  0  0  0  0  0
    6.5853   -8.3957   -5.9125 N   0  0  0  0  0  0  0  0  0  0  0  0
    6.5417   -7.0401   -1.1271 C   0  0  0  0  0  0  0  0  0  0  0  0
    5.4582   -6.0573   -0.2756 S   0  0  0  0  0  0  0  0  0  0  0  0
    4.3939   -5.1236   -1.2192 C   0  0  0  0  0  0  0  0  0  0  0  0
    3.4522   -4.1657   -0.8294 C   0  0  0  0  0  0  0  0  0  0  0  0
    3.5994   -2.5252   -1.1643 S   0  0  0  0  0  0  0  0  0  0  0  0
    2.0491   -2.2104   -0.6038 C   0  0  0  0  0  0  0  0  0  0  0  0
    1.5286   -1.1242    0.0086 C   0  0  0  0  0  0  0  0  0  0  0  0
    2.1107    0.1352    0.1720 C   0  0  0  0  0  0  0  0  0  0  0  0
    1.5794    1.0031    1.1540 C   0  0  0  0  0  0  0  0  0  0  0  0
    2.1503    2.2261    1.2702 N   0  0  0  0  0  0  0  0  0  0  0  0
    3.3234    2.1019    0.1149 S   0  0  0  0  0  0  0  0  0  0  0  0
    3.1663    0.5940   -0.5454 N   0  0  0  0  0  0  0  0  0  0  0  0
    0.4659    0.5867    1.8856 C   0  0  0  0  0  0  0  0  0  0  0  0
   -0.4269    1.3539    2.5613 C   0  0  0  0  0  0  0  0  0  0  0  0
   -0.5870    3.0185    2.6939 S   0  0  0  0  0  0  0  0  0  0  0  0
   -2.2400    2.8867    2.9948 C   0  0  0  0  0  0  0  0  0  0  0  0
   -3.1342    3.9532    3.1096 C   0  0  0  0  0  0  0  0  0  0  0  0
   -4.4985    3.7371    3.2588 C   0  0  0  0  0  0  0  0  0  0  0  0
   -4.9398    2.4135    3.3398 C   0  0  0  0  0  0  0  0  0  0  0  0
   -6.1821    1.9561    3.5500 N   0  0  0  0  0  0  0  0  0  0  0  0
   -6.0542    0.6327    3.5528 N   0  0  0  0  0  0  0  0  0  0  0  0
   -7.1776   -0.2751    3.7405 C   0  0  0  0  0  0  0  0  0  0  0  0
   -7.2621   -0.7180    5.1922 C   0  0  0  0  0  0  0  0  0  0  0  0
   -4.7980    0.2241    3.3556 N   0  0  0  0  0  0  0  0  0  0  0  0
   -4.0771    1.3449    3.1928 C   0  0  0  0  0  0  0  0  0  0  0  0
   -2.6923    1.5404    2.9645 C   0  0  0  0  0  0  0  0  0  0  0  0
   -1.6003    0.6667    2.6769 C   0  0  0  0  0  0  0  0  0  0  0  0
   -1.4735   -0.5798    2.1120 N   0  0  0  0  0  0  0  0  0  0  0  0
   -0.1633   -0.6514    1.6786 C   0  0  0  0  0  0  0  0  0  0  0  0
    0.4644   -1.5851    0.7882 C   0  0  0  0  0  0  0  0  0  0  0  0
    0.4101   -2.9671    0.7570 N   0  0  0  0  0  0  0  0  0  0  0  0
    1.3929   -3.3161   -0.1467 C   0  0  0  0  0  0  0  0  0  0  0  0
    2.1715   -4.4873   -0.3251 C   0  0  0  0  0  0  0  0  0  0  0  0
    1.8548   -5.8532   -0.2541 C   0  0  0  0  0  0  0  0  0  0  0  0
    2.7984   -6.8166   -0.5113 C   0  0  0  0  0  0  0  0  0  0  0  0
    4.1639   -6.4611   -0.7918 C   0  0  0  0  0  0  0  0  0  0  0  0
    5.2259   -7.3920   -0.7466 C   0  0  0  0  0  0  0  0  0  0  0  0
    2.2403   -8.0278   -0.3551 N   0  0  0  0  0  0  0  0  0  0  0  0
    0.9646   -7.7706   -0.0683 N   0  0  0  0  0  0  0  0  0  0  0  0
   -0.0453   -8.8039    0.1016 C   0  0  0  0  0  0  0  0  0  0  0  0
   -0.4628   -9.3445   -1.2597 C   0  0  0  0  0  0  0  0  0  0  0  0
    0.6923   -6.4683   -0.0126 N   0  0  0  0  0  0  0  0  0  0  0  0
   -0.0391   -3.8257    1.8686 C   0  0  0  0  0  0  0  0  0  0  0  0
   -1.1554   -4.7940    1.4520 C   0  0  0  0  0  0  0  0  0  0  0  0
   -2.5713   -1.4387    1.6402 C   0  0  0  0  0  0  0  0  0  0  0  0
   -2.8386   -1.2428    0.1493 C   0  0  0  0  0  0  0  0  0  0  0  0
   -5.2624    4.9112    3.2234 C   0  0  0  0  0  0  0  0  0  0  0  0
   -4.4639    6.0399    2.9994 C   0  0  0  0  0  0  0  0  0  0  0  0
   -2.8369    5.5903    2.9127 S   0  0  0  0  0  0  0  0  0  0  0  0
   -4.9542    7.3803    2.6436 C   0  0  0  0  0  0  0  0  0  0  0  0
   -4.7419    7.9206    1.4253 C   0  0  0  0  0  0  0  0  0  0  0  0
   -4.3708    7.1662    0.2214 C   0  0  0  0  0  0  0  0  0  0  0  0
   -4.1304    5.9310    0.1502 O   0  0  0  0  0  0  0  0  0  0  0  0
   -4.4365    8.0528   -0.9133 C   0  0  0  0  0  0  0  0  0  0  0  0
   -4.1294    7.7542   -2.2367 C   0  0  0  0  0  0  0  0  0  0  0  0
   -4.1935    8.7811   -3.1857 C   0  0  0  0  0  0  0  0  0  0  0  0
   -4.5783   10.0849   -2.7976 C   0  0  0  0  0  0  0  0  0  0  0  0
   -4.6346   11.1506   -3.7146 O   0  0  0  0  0  0  0  0  0  0  0  0
   -4.2996   11.0424   -5.0986 C   0  0  0  0  0  0  0  0  0  0  0  0
   -4.9173   10.3448   -1.4604 C   0  0  0  0  0  0  0  0  0  0  0  0
   -4.8483    9.3084   -0.5144 C   0  0  0  0  0  0  0  0  0  0  0  0
   -5.0181    9.3203    0.9755 C   0  0  0  0  0  0  0  0  0  0  0  0
   -5.1255   10.4246    1.7663 C   0  0  0  0  0  0  0  0  0  0  0  0
   -4.8161   10.3957    3.1758 C   0  0  0  0  0  0  0  0  0  0  0  0
   -4.5607   10.3832    4.3035 N   0  0  0  0  0  0  0  0  0  0  0  0
   -5.5488   11.6977    1.2657 C   0  0  0  0  0  0  0  0  0  0  0  0
   -5.9075   12.7334    0.8855 N   0  0  0  0  0  0  0  0  0  0  0  0
    6.5245   -7.6348   -3.2105 H   0  0  0  0  0  0  0  0  0  0  0  0
   -7.0515   -1.1571    3.0812 H   0  0  0  0  0  0  0  0  0  0  0  0
   -8.1243    0.2353    3.4569 H   0  0  0  0  0  0  0  0  0  0  0  0
   -6.3158   -1.2156    5.5090 H   0  0  0  0  0  0  0  0  0  0  0  0
   -7.4532    0.1622    5.8457 H   0  0  0  0  0  0  0  0  0  0  0  0
   -8.1008   -1.4391    5.3146 H   0  0  0  0  0  0  0  0  0  0  0  0
    4.9843   -8.4774   -0.7005 H   0  0  0  0  0  0  0  0  0  0  0  0
   -0.9409   -8.3941    0.6186 H   0  0  0  0  0  0  0  0  0  0  0  0
    0.3649   -9.6382    0.7144 H   0  0  0  0  0  0  0  0  0  0  0  0
    0.4004   -9.8436   -1.7488 H   0  0  0  0  0  0  0  0  0  0  0  0
   -0.8253   -8.5136   -1.9066 H   0  0  0  0  0  0  0  0  0  0  0  0
   -1.2780  -10.0860   -1.1315 H   0  0  0  0  0  0  0  0  0  0  0  0
    0.8273   -4.4085    2.2519 H   0  0  0  0  0  0  0  0  0  0  0  0
   -0.3796   -3.2156    2.7301 H   0  0  0  0  0  0  0  0  0  0  0  0
   -2.1039   -4.6011    1.9934 H   0  0  0  0  0  0  0  0  0  0  0  0
   -0.8876   -5.8280    1.7490 H   0  0  0  0  0  0  0  0  0  0  0  0
   -1.3478   -4.7450    0.3602 H   0  0  0  0  0  0  0  0  0  0  0  0
   -2.3418   -2.4796    1.8299 H   0  0  0  0  0  0  0  0  0  0  0  0
   -3.4861   -1.2607    2.1934 H   0  0  0  0  0  0  0  0  0  0  0  0
   -2.0179   -1.6716   -0.4584 H   0  0  0  0  0  0  0  0  0  0  0  0
   -2.9624   -0.1614   -0.0866 H   0  0  0  0  0  0  0  0  0  0  0  0
   -3.7785   -1.7784   -0.1192 H   0  0  0  0  0  0  0  0  0  0  0  0
   -6.3448    4.9356    3.2622 H   0  0  0  0  0  0  0  0  0  0  0  0
   -5.4415    7.9470    3.4293 H   0  0  0  0  0  0  0  0  0  0  0  0
   -3.8024    6.7620   -2.5253 H   0  0  0  0  0  0  0  0  0  0  0  0
   -3.9191    8.5580   -4.2087 H   0  0  0  0  0  0  0  0  0  0  0  0
   -4.4577   12.0228   -5.5887 H   0  0  0  0  0  0  0  0  0  0  0  0
   -3.2333   10.7373   -5.2077 H   0  0  0  0  0  0  0  0  0  0  0  0
   -4.9548   10.2903   -5.5911 H   0  0  0  0  0  0  0  0  0  0  0  0
   -5.2155   11.3450   -1.2004 H   0  0  0  0  0  0  0  0  0  0  0  0
  1  2  2  3
  2  3  1  0
  3  4  2  0
  3  5  1  0
  5  6  2  0
  6  7  1  0
  6  8  1  0
  8  9  1  0
  8 10  2  0
 10 11  1  0
 10 12  1  0
 12 13  1  0
 12 14  2  0
 14 15  1  0
 15 16  2  3
 16 17  1  0
 17 18  3  0
 16 19  1  0
 19 20  3  0
  1 21  1  0
 21 22  1  0
 22 23  1  0
 23 24  1  0
 24 25  1  0
 25 26  1  0
 26 27  1  0
 27 28  1  0
 28 29  1  0
 29 30  2  0
 30 31  1  0
 31 32  1  0
 29 33  1  0
 33 34  1  0
 34 35  1  0
 35 36  1  0
 36 37  1  0
 37 38  2  0
 38 39  1  0
 39 40  2  0
 40 41  1  0
 41 42  1  0
 42 43  1  0
 41 44  1  0
 44 45  2  0
 45 46  1  0
 46 47  1  0
 47 48  1  0
 48 49  1  0
 49 50  1  0
 50 51  1  0
 51 52  1  0
 52 53  1  0
 53 54  1  0
 54 55  1  0
 55 56  1  0
 56 57  1  0
 55 58  2  0
 58 59  1  0
 59 60  1  0
 60 61  1  0
 59 62  1  0
 51 63  1  0
 63 64  1  0
 48 65  1  0
 65 66  1  0
 38 67  1  0
 67 68  2  0
 68 69  1  0
 68 70  1  0
 70 71  2  3
 71 72  1  0
 72 73  2  0
 72 74  1  0
 74 75  2  0
 75 76  1  0
 76 77  2  0
 77 78  1  0
 78 79  1  0
 77 80  1  0
 80 81  2  0
 81 82  1  0
 82 83  2  3
 83 84  1  0
 84 85  3  0
 83 86  1  0
 86 87  3  0
 15  2  1  0
 57 21  2  0
 82 71  1  0
 14  5  1  0
 56 23  2  0
 81 74  1  0
 53 24  2  0
 62 54  2  0
 52 26  2  0
 50 27  2  0
 32 28  2  0
 49 33  2  0
 47 34  2  0
 46 36  2  0
 69 37  1  0
 45 39  1  0
  1 88  1  0
 42 89  1  0
 42 90  1  0
 43 91  1  0
 43 92  1  0
 43 93  1  0
 57 94  1  0
 60 95  1  0
 60 96  1  0
 61 97  1  0
 61 98  1  0
 61 99  1  0
 63100  1  0
 63101  1  0
 64102  1  0
 64103  1  0
 64104  1  0
 65105  1  0
 65106  1  0
 66107  1  0
 66108  1  0
 66109  1  0
 67110  1  0
 70111  1  0
 75112  1  0
 76113  1  0
 79114  1  0
 79115  1  0
 79116  1  0
 80117  1  0
M  END

