
     RDKit          3D

106114  0  0  0  0  0  0  0  0999 V2000
    2.7994    5.1364    1.7654 C   0  0  0  0  0  0  0  0  0  0  0  0
    3.3632    4.8835    2.9590 C   0  0  0  0  0  0  0  0  0  0  0  0
    3.4792    3.5739    3.6082 C   0  0  0  0  0  0  0  0  0  0  0  0
    2.8672    2.5271    3.2744 O   0  0  0  0  0  0  0  0  0  0  0  0
    4.4864    3.6717    4.6575 C   0  0  0  0  0  0  0  0  0  0  0  0
    5.0420    2.6544    5.4429 C   0  0  0  0  0  0  0  0  0  0  0  0
    4.3849    1.0171    5.3871 Cl  0  0  0  0  0  0  0  0  0  0  0  0
    6.1459    2.9664    6.2597 C   0  0  0  0  0  0  0  0  0  0  0  0
    6.8578    1.7224    7.2894 Cl  0  0  0  0  0  0  0  0  0  0  0  0
    6.7165    4.2618    6.2136 C   0  0  0  0  0  0  0  0  0  0  0  0
    8.1686    4.6147    7.1525 Cl  0  0  0  0  0  0  0  0  0  0  0  0
    6.1549    5.2570    5.3870 C   0  0  0  0  0  0  0  0  0  0  0  0
    7.0638    6.7345    5.0733 Cl  0  0  0  0  0  0  0  0  0  0  0  0
    4.9663    4.9689    4.6949 C   0  0  0  0  0  0  0  0  0  0  0  0
    4.1646    5.8264    3.7833 C   0  0  0  0  0  0  0  0  0  0  0  0
    3.8383    7.1212    4.0092 C   0  0  0  0  0  0  0  0  0  0  0  0
    4.2194    7.7934    5.2242 C   0  0  0  0  0  0  0  0  0  0  0  0
    4.5072    8.3343    6.2051 N   0  0  0  0  0  0  0  0  0  0  0  0
    2.9168    7.8467    3.1700 C   0  0  0  0  0  0  0  0  0  0  0  0
    2.1771    8.4350    2.5019 N   0  0  0  0  0  0  0  0  0  0  0  0
    2.0331    4.1333    1.0256 C   0  0  0  0  0  0  0  0  0  0  0  0
    2.5364    3.3635   -0.0221 C   0  0  0  0  0  0  0  0  0  0  0  0
    1.5722    2.4782   -0.5100 C   0  0  0  0  0  0  0  0  0  0  0  0
    1.6697    1.2428   -1.3778 C   0  0  0  0  0  0  0  0  0  0  0  0
    2.7448    0.2990   -0.7554 C   0  0  0  0  0  0  0  0  0  0  0  0
    2.9145   -1.0591   -1.4371 C   0  0  0  0  0  0  0  0  0  0  0  0
    1.9118    1.6056   -2.8688 C   0  0  0  0  0  0  0  0  0  0  0  0
    3.2312    2.3208   -3.1572 C   0  0  0  0  0  0  0  0  0  0  0  0
    0.2486    0.6918   -1.1634 C   0  0  0  0  0  0  0  0  0  0  0  0
   -0.4596    1.4438   -0.2199 C   0  0  0  0  0  0  0  0  0  0  0  0
    0.3820    2.5523    0.1396 C   0  0  0  0  0  0  0  0  0  0  0  0
    0.4399    3.6663    1.3918 S   0  0  0  0  0  0  0  0  0  0  0  0
   -1.7394    1.0898    0.2393 C   0  0  0  0  0  0  0  0  0  0  0  0
   -2.4497    1.9375    1.0930 O   0  0  0  0  0  0  0  0  0  0  0  0
   -3.4126    2.8730    0.6097 C   0  0  0  0  0  0  0  0  0  0  0  0
   -2.7516    4.1777    0.1965 C   0  0  0  0  0  0  0  0  0  0  0  0
   -2.2528   -0.1546   -0.1943 C   0  0  0  0  0  0  0  0  0  0  0  0
   -1.5838   -0.8587   -1.2088 C   0  0  0  0  0  0  0  0  0  0  0  0
   -0.3716   -0.4198   -1.7717 C   0  0  0  0  0  0  0  0  0  0  0  0
    0.1873   -1.0355   -2.8982 O   0  0  0  0  0  0  0  0  0  0  0  0
   -0.5251   -1.1726   -4.1323 C   0  0  0  0  0  0  0  0  0  0  0  0
   -0.5978    0.1554   -4.8783 C   0  0  0  0  0  0  0  0  0  0  0  0
   -2.2886   -2.0996   -1.4004 C   0  0  0  0  0  0  0  0  0  0  0  0
   -3.3273   -2.1921   -0.5407 C   0  0  0  0  0  0  0  0  0  0  0  0
   -3.4471   -0.9715    0.3437 C   0  0  0  0  0  0  0  0  0  0  0  0
   -3.2369   -1.4509    1.8103 C   0  0  0  0  0  0  0  0  0  0  0  0
   -3.1692   -0.3632    2.8803 C   0  0  0  0  0  0  0  0  0  0  0  0
   -4.8288   -0.3003    0.1282 C   0  0  0  0  0  0  0  0  0  0  0  0
   -5.1300    0.0505   -1.3351 C   0  0  0  0  0  0  0  0  0  0  0  0
   -3.9726   -3.4315   -0.5535 C   0  0  0  0  0  0  0  0  0  0  0  0
   -3.3467   -4.3216   -1.4318 C   0  0  0  0  0  0  0  0  0  0  0  0
   -2.0380   -3.5490   -2.2044 S   0  0  0  0  0  0  0  0  0  0  0  0
   -3.8674   -5.6594   -1.7609 C   0  0  0  0  0  0  0  0  0  0  0  0
   -3.1053   -6.7401   -2.0208 C   0  0  0  0  0  0  0  0  0  0  0  0
   -1.6896   -6.9307   -1.6756 C   0  0  0  0  0  0  0  0  0  0  0  0
   -0.9147   -6.0591   -1.2043 O   0  0  0  0  0  0  0  0  0  0  0  0
   -1.3824   -8.3514   -1.7697 C   0  0  0  0  0  0  0  0  0  0  0  0
   -0.2005   -9.0151   -1.4230 C   0  0  0  0  0  0  0  0  0  0  0  0
    1.2632   -8.1098   -1.0494 Cl  0  0  0  0  0  0  0  0  0  0  0  0
   -0.2131  -10.4250   -1.3773 C   0  0  0  0  0  0  0  0  0  0  0  0
    1.2618  -11.3085   -0.9751 Cl  0  0  0  0  0  0  0  0  0  0  0  0
   -1.4242  -11.1301   -1.5865 C   0  0  0  0  0  0  0  0  0  0  0  0
   -1.4667  -12.8785   -1.3822 Cl  0  0  0  0  0  0  0  0  0  0  0  0
   -2.6007  -10.4306   -1.9332 C   0  0  0  0  0  0  0  0  0  0  0  0
   -4.1500  -11.2720   -1.8990 Cl  0  0  0  0  0  0  0  0  0  0  0  0
   -2.5282   -9.0363   -2.1281 C   0  0  0  0  0  0  0  0  0  0  0  0
   -3.5933   -8.0620   -2.4900 C   0  0  0  0  0  0  0  0  0  0  0  0
   -4.5154   -8.2354   -3.4701 C   0  0  0  0  0  0  0  0  0  0  0  0
   -5.3551   -7.1597   -3.9354 C   0  0  0  0  0  0  0  0  0  0  0  0
   -6.0329   -6.2994   -4.3124 N   0  0  0  0  0  0  0  0  0  0  0  0
   -4.5320   -9.4158   -4.2928 C   0  0  0  0  0  0  0  0  0  0  0  0
   -4.5467  -10.3527   -4.9706 N   0  0  0  0  0  0  0  0  0  0  0  0
    2.9633    6.0838    1.2769 H   0  0  0  0  0  0  0  0  0  0  0  0
    3.5632    3.3935   -0.3560 H   0  0  0  0  0  0  0  0  0  0  0  0
    3.7339    0.8052   -0.7519 H   0  0  0  0  0  0  0  0  0  0  0  0
    2.4938    0.1077    0.3132 H   0  0  0  0  0  0  0  0  0  0  0  0
    3.7715   -1.5907   -0.9715 H   0  0  0  0  0  0  0  0  0  0  0  0
    3.1370   -0.9502   -2.5187 H   0  0  0  0  0  0  0  0  0  0  0  0
    2.0109   -1.6838   -1.2882 H   0  0  0  0  0  0  0  0  0  0  0  0
    1.0786    2.2465   -3.2344 H   0  0  0  0  0  0  0  0  0  0  0  0
    1.8978    0.6876   -3.4831 H   0  0  0  0  0  0  0  0  0  0  0  0
    3.3325    2.4671   -4.2527 H   0  0  0  0  0  0  0  0  0  0  0  0
    3.2475    3.3196   -2.6809 H   0  0  0  0  0  0  0  0  0  0  0  0
    4.0970    1.7224   -2.8102 H   0  0  0  0  0  0  0  0  0  0  0  0
   -3.9661    2.4614   -0.2568 H   0  0  0  0  0  0  0  0  0  0  0  0
   -4.1400    3.0798    1.4214 H   0  0  0  0  0  0  0  0  0  0  0  0
   -2.2586    4.6466    1.0701 H   0  0  0  0  0  0  0  0  0  0  0  0
   -2.0030    3.9925   -0.6005 H   0  0  0  0  0  0  0  0  0  0  0  0
   -3.5204    4.8808   -0.1838 H   0  0  0  0  0  0  0  0  0  0  0  0
   -0.0000   -1.9130   -4.7684 H   0  0  0  0  0  0  0  0  0  0  0  0
   -1.5588   -1.5282   -3.9609 H   0  0  0  0  0  0  0  0  0  0  0  0
    0.4041    0.4566   -5.2357 H   0  0  0  0  0  0  0  0  0  0  0  0
   -1.2618    0.0491   -5.7604 H   0  0  0  0  0  0  0  0  0  0  0  0
   -1.0043    0.9498   -4.2211 H   0  0  0  0  0  0  0  0  0  0  0  0
   -2.2982   -2.0424    1.8767 H   0  0  0  0  0  0  0  0  0  0  0  0
   -4.0661   -2.1392    2.0752 H   0  0  0  0  0  0  0  0  0  0  0  0
   -3.2277   -0.8325    3.8858 H   0  0  0  0  0  0  0  0  0  0  0  0
   -4.0079    0.3494    2.7858 H   0  0  0  0  0  0  0  0  0  0  0  0
   -2.2008    0.1725    2.8277 H   0  0  0  0  0  0  0  0  0  0  0  0
   -5.6273   -0.9890    0.4807 H   0  0  0  0  0  0  0  0  0  0  0  0
   -4.9140    0.6169    0.7400 H   0  0  0  0  0  0  0  0  0  0  0  0
   -6.0890    0.6063   -1.3792 H   0  0  0  0  0  0  0  0  0  0  0  0
   -5.2311   -0.8712   -1.9461 H   0  0  0  0  0  0  0  0  0  0  0  0
   -4.3319    0.6873   -1.7753 H   0  0  0  0  0  0  0  0  0  0  0  0
   -4.8225   -3.6792    0.0687 H   0  0  0  0  0  0  0  0  0  0  0  0
   -4.9410   -5.7581   -1.7875 H   0  0  0  0  0  0  0  0  0  0  0  0
  1  2  2  3
  2  3  1  0
  3  4  2  0
  3  5  1  0
  5  6  2  0
  6  7  1  0
  6  8  1  0
  8  9  1  0
  8 10  2  0
 10 11  1  0
 10 12  1  0
 12 13  1  0
 12 14  2  0
 14 15  1  0
 15 16  2  3
 16 17  1  0
 17 18  3  0
 16 19  1  0
 19 20  3  0
  1 21  1  0
 21 22  2  0
 22 23  1  0
 23 24  1  0
 24 25  1  0
 25 26  1  0
 24 27  1  0
 27 28  1  0
 24 29  1  0
 29 30  2  0
 30 31  1  0
 31 32  1  0
 30 33  1  0
 33 34  1  0
 34 35  1  0
 35 36  1  0
 33 37  2  0
 37 38  1  0
 38 39  2  0
 39 40  1  0
 40 41  1  0
 41 42  1  0
 38 43  1  0
 43 44  2  0
 44 45  1  0
 45 46  1  0
 46 47  1  0
 45 48  1  0
 48 49  1  0
 44 50  1  0
 50 51  2  0
 51 52  1  0
 51 53  1  0
 53 54  2  3
 54 55  1  0
 55 56  2  0
 55 57  1  0
 57 58  2  0
 58 59  1  0
 58 60  1  0
 60 61  1  0
 60 62  2  0
 62 63  1  0
 62 64  1  0
 64 65  1  0
 64 66  2  0
 66 67  1  0
 67 68  2  3
 68 69  1  0
 69 70  3  0
 68 71  1  0
 71 72  3  0
 15  2  1  0
 32 21  1  0
 45 37  1  0
 67 54  1  0
 14  5  1  0
 31 23  2  0
 52 43  1  0
 66 57  1  0
 39 29  1  0
  1 73  1  0
 22 74  1  0
 25 75  1  0
 25 76  1  0
 26 77  1  0
 26 78  1  0
 26 79  1  0
 27 80  1  0
 27 81  1  0
 28 82  1  0
 28 83  1  0
 28 84  1  0
 35 85  1  0
 35 86  1  0
 36 87  1  0
 36 88  1  0
 36 89  1  0
 41 90  1  0
 41 91  1  0
 42 92  1  0
 42 93  1  0
 42 94  1  0
 46 95  1  0
 46 96  1  0
 47 97  1  0
 47 98  1  0
 47 99  1  0
 48100  1  0
 48101  1  0
 49102  1  0
 49103  1  0
 49104  1  0
 50105  1  0
 53106  1  0
M  END

