
     RDKit          3D

113128  0  0  0  0  0  0  0  0999 V2000
   -2.3237   -0.1122   -8.2764 C   0  0  0  0  0  0  0  0  0  0  0  0
   -1.2377   -0.5672   -8.9337 C   0  0  0  0  0  0  0  0  0  0  0  0
    0.0733   -0.7509   -8.3013 C   0  0  0  0  0  0  0  0  0  0  0  0
    0.3640   -0.4568   -7.1101 O   0  0  0  0  0  0  0  0  0  0  0  0
    0.8844   -1.5899   -9.1682 C   0  0  0  0  0  0  0  0  0  0  0  0
    2.1645   -2.1066   -8.9058 C   0  0  0  0  0  0  0  0  0  0  0  0
    3.0699   -1.6005   -7.4649 Cl  0  0  0  0  0  0  0  0  0  0  0  0
    2.6955   -3.0547   -9.8001 C   0  0  0  0  0  0  0  0  0  0  0  0
    4.3528   -3.6156   -9.5952 Cl  0  0  0  0  0  0  0  0  0  0  0  0
    1.9151   -3.5324  -10.8808 C   0  0  0  0  0  0  0  0  0  0  0  0
    2.5644   -4.7957  -11.9428 Cl  0  0  0  0  0  0  0  0  0  0  0  0
    0.6037   -3.0339  -11.0976 C   0  0  0  0  0  0  0  0  0  0  0  0
   -0.4410   -3.8603  -12.2603 Cl  0  0  0  0  0  0  0  0  0  0  0  0
    0.1325   -1.9936  -10.2661 C   0  0  0  0  0  0  0  0  0  0  0  0
   -1.2156   -1.3694  -10.2034 C   0  0  0  0  0  0  0  0  0  0  0  0
   -2.0339   -1.1038  -11.2546 C   0  0  0  0  0  0  0  0  0  0  0  0
   -1.5102   -1.0165  -12.5852 C   0  0  0  0  0  0  0  0  0  0  0  0
   -1.0798   -0.9191  -13.6548 N   0  0  0  0  0  0  0  0  0  0  0  0
   -3.3458   -0.5614  -11.0431 C   0  0  0  0  0  0  0  0  0  0  0  0
   -4.4147   -0.1364  -10.8128 N   0  0  0  0  0  0  0  0  0  0  0  0
   -2.2540    1.0497   -7.3720 C   0  0  0  0  0  0  0  0  0  0  0  0
   -3.2500    1.2779   -6.0176 S   0  0  0  0  0  0  0  0  0  0  0  0
   -2.2885    2.4692   -5.3164 C   0  0  0  0  0  0  0  0  0  0  0  0
   -2.3183    2.9742   -4.0042 C   0  0  0  0  0  0  0  0  0  0  0  0
   -3.5302    2.7156   -2.8392 S   0  0  0  0  0  0  0  0  0  0  0  0
   -2.5408    3.3823   -1.6380 C   0  0  0  0  0  0  0  0  0  0  0  0
   -2.5083    3.2561   -0.2868 C   0  0  0  0  0  0  0  0  0  0  0  0
   -3.5309    2.9153    0.6061 C   0  0  0  0  0  0  0  0  0  0  0  0
   -3.1977    2.7262    1.9762 C   0  0  0  0  0  0  0  0  0  0  0  0
   -4.1996    2.3688    2.8109 N   0  0  0  0  0  0  0  0  0  0  0  0
   -5.4565    2.3415    1.7333 S   0  0  0  0  0  0  0  0  0  0  0  0
   -4.8335    2.7465    0.2514 N   0  0  0  0  0  0  0  0  0  0  0  0
   -1.8548    2.8128    2.3539 C   0  0  0  0  0  0  0  0  0  0  0  0
   -1.2572    2.2688    3.4655 C   0  0  0  0  0  0  0  0  0  0  0  0
   -1.8190    1.2613    4.6991 S   0  0  0  0  0  0  0  0  0  0  0  0
   -0.2509    0.6439    4.9604 C   0  0  0  0  0  0  0  0  0  0  0  0
    0.0883   -0.3862    5.8393 C   0  0  0  0  0  0  0  0  0  0  0  0
    1.3621   -0.9612    5.8184 C   0  0  0  0  0  0  0  0  0  0  0  0
    2.3003   -0.4537    4.9304 C   0  0  0  0  0  0  0  0  0  0  0  0
    3.5575   -0.8716    4.6940 N   0  0  0  0  0  0  0  0  0  0  0  0
    3.9960   -0.0865    3.7151 N   0  0  0  0  0  0  0  0  0  0  0  0
    5.3267   -0.2020    3.1288 C   0  0  0  0  0  0  0  0  0  0  0  0
    5.2894    0.0167    1.6186 C   0  0  0  0  0  0  0  0  0  0  0  0
    3.0897    0.8121    3.3326 N   0  0  0  0  0  0  0  0  0  0  0  0
    2.0032    0.5830    4.0827 C   0  0  0  0  0  0  0  0  0  0  0  0
    0.7021    1.1639    4.0416 C   0  0  0  0  0  0  0  0  0  0  0  0
    0.0736    2.1097    3.1899 C   0  0  0  0  0  0  0  0  0  0  0  0
    0.3653    2.6261    1.9594 N   0  0  0  0  0  0  0  0  0  0  0  0
   -0.8232    3.0848    1.4376 C   0  0  0  0  0  0  0  0  0  0  0  0
   -1.1774    3.4373    0.0843 C   0  0  0  0  0  0  0  0  0  0  0  0
   -0.4175    3.8230   -1.0046 N   0  0  0  0  0  0  0  0  0  0  0  0
   -1.3064    3.7501   -2.0581 C   0  0  0  0  0  0  0  0  0  0  0  0
   -1.1645    3.6009   -3.4514 C   0  0  0  0  0  0  0  0  0  0  0  0
   -0.0876    3.8471   -4.3314 C   0  0  0  0  0  0  0  0  0  0  0  0
   -0.1091    3.4150   -5.6216 C   0  0  0  0  0  0  0  0  0  0  0  0
   -1.1758    2.6831   -6.1312 C   0  0  0  0  0  0  0  0  0  0  0  0
   -1.1878    1.9597   -7.3242 C   0  0  0  0  0  0  0  0  0  0  0  0
    1.0787    3.6600   -6.1950 N   0  0  0  0  0  0  0  0  0  0  0  0
    1.7845    4.2700   -5.2504 N   0  0  0  0  0  0  0  0  0  0  0  0
    3.1898    4.6076   -5.3987 C   0  0  0  0  0  0  0  0  0  0  0  0
    3.3971    6.1049   -5.2388 C   0  0  0  0  0  0  0  0  0  0  0  0
    1.1118    4.3970   -4.1106 N   0  0  0  0  0  0  0  0  0  0  0  0
    0.6683    4.8249   -0.9199 C   0  0  0  0  0  0  0  0  0  0  0  0
    2.0216    4.3319   -1.4624 C   0  0  0  0  0  0  0  0  0  0  0  0
    1.6274    2.4558    1.2573 C   0  0  0  0  0  0  0  0  0  0  0  0
    2.6896    3.4123    1.8242 C   0  0  0  0  0  0  0  0  0  0  0  0
    1.5040   -2.0622    6.6602 C   0  0  0  0  0  0  0  0  0  0  0  0
    0.2982   -2.3735    7.3081 C   0  0  0  0  0  0  0  0  0  0  0  0
   -0.8866   -1.2294    6.9041 S   0  0  0  0  0  0  0  0  0  0  0  0
    0.1407   -3.5159    8.2418 C   0  0  0  0  0  0  0  0  0  0  0  0
   -0.8429   -4.4365    8.1836 C   0  0  0  0  0  0  0  0  0  0  0  0
   -1.8355   -4.6186    7.1282 C   0  0  0  0  0  0  0  0  0  0  0  0
   -2.0646   -3.8132    6.1710 O   0  0  0  0  0  0  0  0  0  0  0  0
   -2.3705   -5.9665    7.2348 C   0  0  0  0  0  0  0  0  0  0  0  0
   -3.3154   -6.5700    6.3792 C   0  0  0  0  0  0  0  0  0  0  0  0
   -4.1025   -5.6485    5.0779 Cl  0  0  0  0  0  0  0  0  0  0  0  0
   -3.5951   -7.9269    6.5681 C   0  0  0  0  0  0  0  0  0  0  0  0
   -4.8206   -8.7271    5.5868 Cl  0  0  0  0  0  0  0  0  0  0  0  0
   -2.8871   -8.6703    7.5388 C   0  0  0  0  0  0  0  0  0  0  0  0
   -3.2264  -10.3975    7.7335 Cl  0  0  0  0  0  0  0  0  0  0  0  0
   -1.8912   -8.0653    8.3489 C   0  0  0  0  0  0  0  0  0  0  0  0
   -0.7447   -9.1245    9.1701 Cl  0  0  0  0  0  0  0  0  0  0  0  0
   -1.7188   -6.6591    8.2494 C   0  0  0  0  0  0  0  0  0  0  0  0
   -0.8572   -5.6747    9.0044 C   0  0  0  0  0  0  0  0  0  0  0  0
   -0.5812   -5.6955   10.3448 C   0  0  0  0  0  0  0  0  0  0  0  0
   -0.5212   -4.4665   11.0995 C   0  0  0  0  0  0  0  0  0  0  0  0
   -0.4613   -3.4764   11.6969 N   0  0  0  0  0  0  0  0  0  0  0  0
   -0.6327   -6.8676   11.1659 C   0  0  0  0  0  0  0  0  0  0  0  0
   -0.6826   -7.8019   11.8488 N   0  0  0  0  0  0  0  0  0  0  0  0
   -3.0675   -0.8683   -8.0551 H   0  0  0  0  0  0  0  0  0  0  0  0
    6.0047    0.5272    3.6107 H   0  0  0  0  0  0  0  0  0  0  0  0
    5.7155   -1.2182    3.3303 H   0  0  0  0  0  0  0  0  0  0  0  0
    5.0478    1.0731    1.3886 H   0  0  0  0  0  0  0  0  0  0  0  0
    6.2884   -0.1955    1.1774 H   0  0  0  0  0  0  0  0  0  0  0  0
    4.5356   -0.6499    1.1495 H   0  0  0  0  0  0  0  0  0  0  0  0
   -0.3538    1.9649   -8.0296 H   0  0  0  0  0  0  0  0  0  0  0  0
    3.5335    4.2938   -6.3999 H   0  0  0  0  0  0  0  0  0  0  0  0
    3.7659    4.0573   -4.6183 H   0  0  0  0  0  0  0  0  0  0  0  0
    2.8605    6.6553   -6.0440 H   0  0  0  0  0  0  0  0  0  0  0  0
    4.4811    6.3324   -5.3098 H   0  0  0  0  0  0  0  0  0  0  0  0
    3.0239    6.4509   -4.2487 H   0  0  0  0  0  0  0  0  0  0  0  0
    0.8113    5.1569    0.1348 H   0  0  0  0  0  0  0  0  0  0  0  0
    0.3746    5.7441   -1.5014 H   0  0  0  0  0  0  0  0  0  0  0  0
    2.7706    4.2453   -0.6623 H   0  0  0  0  0  0  0  0  0  0  0  0
    2.4639    5.0830   -2.1593 H   0  0  0  0  0  0  0  0  0  0  0  0
    1.9341    3.3519   -1.9575 H   0  0  0  0  0  0  0  0  0  0  0  0
    1.5014    2.5774    0.1850 H   0  0  0  0  0  0  0  0  0  0  0  0
    1.9595    1.3933    1.2961 H   0  0  0  0  0  0  0  0  0  0  0  0
    2.4091    4.4639    1.6301 H   0  0  0  0  0  0  0  0  0  0  0  0
    3.6718    3.2022    1.3618 H   0  0  0  0  0  0  0  0  0  0  0  0
    2.7978    3.2847    2.9285 H   0  0  0  0  0  0  0  0  0  0  0  0
    2.4102   -2.6480    6.7620 H   0  0  0  0  0  0  0  0  0  0  0  0
    0.9560   -3.6537    8.9429 H   0  0  0  0  0  0  0  0  0  0  0  0
  1  2  2  3
  2  3  1  0
  3  4  2  0
  3  5  1  0
  5  6  2  0
  6  7  1  0
  6  8  1  0
  8  9  1  0
  8 10  2  0
 10 11  1  0
 10 12  1  0
 12 13  1  0
 12 14  2  0
 14 15  1  0
 15 16  2  3
 16 17  1  0
 17 18  3  0
 16 19  1  0
 19 20  3  0
  1 21  1  0
 21 22  1  0
 22 23  1  0
 23 24  1  0
 24 25  1  0
 25 26  1  0
 26 27  1  0
 27 28  1  0
 28 29  1  0
 29 30  2  0
 30 31  1  0
 31 32  1  0
 29 33  1  0
 33 34  1  0
 34 35  1  0
 35 36  1  0
 36 37  1  0
 37 38  2  0
 38 39  1  0
 39 40  2  0
 40 41  1  0
 41 42  1  0
 42 43  1  0
 41 44  1  0
 44 45  2  0
 45 46  1  0
 46 47  1  0
 47 48  1  0
 48 49  1  0
 49 50  1  0
 50 51  1  0
 51 52  1  0
 52 53  1  0
 53 54  1  0
 54 55  1  0
 55 56  1  0
 56 57  1  0
 55 58  2  0
 58 59  1  0
 59 60  1  0
 60 61  1  0
 59 62  1  0
 51 63  1  0
 63 64  1  0
 48 65  1  0
 65 66  1  0
 38 67  1  0
 67 68  2  0
 68 69  1  0
 68 70  1  0
 70 71  2  3
 71 72  1  0
 72 73  2  0
 72 74  1  0
 74 75  2  0
 75 76  1  0
 75 77  1  0
 77 78  1  0
 77 79  2  0
 79 80  1  0
 79 81  1  0
 81 82  1  0
 81 83  2  0
 83 84  1  0
 84 85  2  3
 85 86  1  0
 86 87  3  0
 85 88  1  0
 88 89  3  0
 15  2  1  0
 57 21  2  0
 84 71  1  0
 14  5  1  0
 56 23  2  0
 83 74  1  0
 53 24  2  0
 62 54  2  0
 52 26  2  0
 50 27  2  0
 32 28  2  0
 49 33  2  0
 47 34  2  0
 46 36  2  0
 69 37  1  0
 45 39  1  0
  1 90  1  0
 42 91  1  0
 42 92  1  0
 43 93  1  0
 43 94  1  0
 43 95  1  0
 57 96  1  0
 60 97  1  0
 60 98  1  0
 61 99  1  0
 61100  1  0
 61101  1  0
 63102  1  0
 63103  1  0
 64104  1  0
 64105  1  0
 64106  1  0
 65107  1  0
 65108  1  0
 66109  1  0
 66110  1  0
 66111  1  0
 67112  1  0
 70113  1  0
M  END

