
     RDKit          3D

113128  0  0  0  0  0  0  0  0999 V2000
   -2.2021   -7.6380   -4.5801 C   0  0  0  0  0  0  0  0  0  0  0  0
   -3.3498   -8.3295   -4.7021 C   0  0  0  0  0  0  0  0  0  0  0  0
   -4.5617   -7.8627   -5.3695 C   0  0  0  0  0  0  0  0  0  0  0  0
   -4.6039   -7.0509   -6.3314 O   0  0  0  0  0  0  0  0  0  0  0  0
   -5.7086   -8.4723   -4.7107 C   0  0  0  0  0  0  0  0  0  0  0  0
   -7.0572   -8.1239   -4.8426 C   0  0  0  0  0  0  0  0  0  0  0  0
   -7.5904   -7.0388   -6.1285 Cl  0  0  0  0  0  0  0  0  0  0  0  0
   -7.9687   -8.6261   -3.8942 C   0  0  0  0  0  0  0  0  0  0  0  0
   -9.6726   -8.1847   -4.0032 Cl  0  0  0  0  0  0  0  0  0  0  0  0
   -7.5054   -9.3866   -2.7944 C   0  0  0  0  0  0  0  0  0  0  0  0
   -8.6363   -9.8705   -1.5211 Cl  0  0  0  0  0  0  0  0  0  0  0  0
   -6.1307   -9.7073   -2.6729 C   0  0  0  0  0  0  0  0  0  0  0  0
   -5.5232  -10.3034   -1.1269 Cl  0  0  0  0  0  0  0  0  0  0  0  0
   -5.2545   -9.3241   -3.7098 C   0  0  0  0  0  0  0  0  0  0  0  0
   -3.7719   -9.4463   -3.8188 C   0  0  0  0  0  0  0  0  0  0  0  0
   -3.0239  -10.5427   -3.5351 C   0  0  0  0  0  0  0  0  0  0  0  0
   -3.5896  -11.7517   -2.9946 C   0  0  0  0  0  0  0  0  0  0  0  0
   -4.0392  -12.7292   -2.5594 N   0  0  0  0  0  0  0  0  0  0  0  0
   -1.6531  -10.6403   -3.9557 C   0  0  0  0  0  0  0  0  0  0  0  0
   -0.5517  -10.7148   -4.3014 N   0  0  0  0  0  0  0  0  0  0  0  0
   -2.1075   -6.1956   -4.8647 C   0  0  0  0  0  0  0  0  0  0  0  0
   -0.6723   -5.3887   -5.2825 S   0  0  0  0  0  0  0  0  0  0  0  0
   -1.2475   -3.8465   -4.9273 C   0  0  0  0  0  0  0  0  0  0  0  0
   -0.5646   -2.6195   -4.8789 C   0  0  0  0  0  0  0  0  0  0  0  0
    1.0365   -2.3111   -5.3314 S   0  0  0  0  0  0  0  0  0  0  0  0
    0.9597   -0.7181   -4.7852 C   0  0  0  0  0  0  0  0  0  0  0  0
    1.9119    0.1271   -4.2977 C   0  0  0  0  0  0  0  0  0  0  0  0
    3.3033   -0.0518   -4.2561 C   0  0  0  0  0  0  0  0  0  0  0  0
    4.0673    0.6825   -3.3049 C   0  0  0  0  0  0  0  0  0  0  0  0
    5.3962    0.4312   -3.2501 N   0  0  0  0  0  0  0  0  0  0  0  0
    5.5090   -0.7209   -4.4333 S   0  0  0  0  0  0  0  0  0  0  0  0
    3.9770   -0.9488   -5.0197 N   0  0  0  0  0  0  0  0  0  0  0  0
    3.4025    1.5906   -2.4821 C   0  0  0  0  0  0  0  0  0  0  0  0
    3.8256    2.3540   -1.4331 C   0  0  0  0  0  0  0  0  0  0  0  0
    5.1819    2.4848   -0.4392 S   0  0  0  0  0  0  0  0  0  0  0  0
    4.3432    3.4893    0.6582 C   0  0  0  0  0  0  0  0  0  0  0  0
    4.7559    3.9163    1.9306 C   0  0  0  0  0  0  0  0  0  0  0  0
    3.8592    4.5463    2.8009 C   0  0  0  0  0  0  0  0  0  0  0  0
    2.5501    4.7635    2.3647 C   0  0  0  0  0  0  0  0  0  0  0  0
    1.4956    5.2368    3.0447 N   0  0  0  0  0  0  0  0  0  0  0  0
    0.4713    5.1180    2.2018 N   0  0  0  0  0  0  0  0  0  0  0  0
   -0.8979    5.4753    2.5439 C   0  0  0  0  0  0  0  0  0  0  0  0
   -1.6475    4.2513    3.0475 C   0  0  0  0  0  0  0  0  0  0  0  0
    0.8079    4.5636    1.0398 N   0  0  0  0  0  0  0  0  0  0  0  0
    2.1277    4.3447    1.1277 C   0  0  0  0  0  0  0  0  0  0  0  0
    3.0053    3.7024    0.2371 C   0  0  0  0  0  0  0  0  0  0  0  0
    2.7568    3.0438   -0.9719 C   0  0  0  0  0  0  0  0  0  0  0  0
    1.6379    2.8063   -1.7060 N   0  0  0  0  0  0  0  0  0  0  0  0
    2.0275    1.8259   -2.5777 C   0  0  0  0  0  0  0  0  0  0  0  0
    1.2376    1.0012   -3.4324 C   0  0  0  0  0  0  0  0  0  0  0  0
   -0.0917    0.6409   -3.3161 N   0  0  0  0  0  0  0  0  0  0  0  0
   -0.2320   -0.4122   -4.1854 C   0  0  0  0  0  0  0  0  0  0  0  0
   -1.1545   -1.4867   -4.2621 C   0  0  0  0  0  0  0  0  0  0  0  0
   -2.4830   -1.6249   -3.8086 C   0  0  0  0  0  0  0  0  0  0  0  0
   -3.1516   -2.8171   -3.9051 C   0  0  0  0  0  0  0  0  0  0  0  0
   -2.5490   -3.9548   -4.4385 C   0  0  0  0  0  0  0  0  0  0  0  0
   -3.0466   -5.2565   -4.4134 C   0  0  0  0  0  0  0  0  0  0  0  0
   -4.3808   -2.6781   -3.3780 N   0  0  0  0  0  0  0  0  0  0  0  0
   -4.4362   -1.4025   -3.0050 N   0  0  0  0  0  0  0  0  0  0  0  0
   -5.5846   -0.8112   -2.3322 C   0  0  0  0  0  0  0  0  0  0  0  0
   -5.4747   -1.0244   -0.8292 C   0  0  0  0  0  0  0  0  0  0  0  0
   -3.3122   -0.7354   -3.2459 N   0  0  0  0  0  0  0  0  0  0  0  0
   -0.9433    0.8764   -2.1403 C   0  0  0  0  0  0  0  0  0  0  0  0
   -2.1599    1.7520   -2.4648 C   0  0  0  0  0  0  0  0  0  0  0  0
    0.5604    3.7697   -1.9600 C   0  0  0  0  0  0  0  0  0  0  0  0
    1.0997    5.1769   -2.2280 C   0  0  0  0  0  0  0  0  0  0  0  0
    4.3758    4.7781    4.0770 C   0  0  0  0  0  0  0  0  0  0  0  0
    5.6810    4.2860    4.2129 C   0  0  0  0  0  0  0  0  0  0  0  0
    6.1995    3.6273    2.7361 S   0  0  0  0  0  0  0  0  0  0  0  0
    6.4860    4.2900    5.4437 C   0  0  0  0  0  0  0  0  0  0  0  0
    5.9894    4.1050    6.6808 C   0  0  0  0  0  0  0  0  0  0  0  0
    6.6967    4.5550    7.8915 C   0  0  0  0  0  0  0  0  0  0  0  0
    7.9184    4.8348    7.9884 O   0  0  0  0  0  0  0  0  0  0  0  0
    5.7170    4.6279    8.9529 C   0  0  0  0  0  0  0  0  0  0  0  0
    4.4954    4.1952    8.4987 C   0  0  0  0  0  0  0  0  0  0  0  0
    3.4904    4.1893    9.4588 C   0  0  0  0  0  0  0  0  0  0  0  0
    4.2116    4.7317   10.8953 S   0  0  0  0  0  0  0  0  0  0  0  0
    5.7725    4.9721   10.2929 C   0  0  0  0  0  0  0  0  0  0  0  0
    6.9763    5.3783   11.0744 C   0  0  0  0  0  0  0  0  0  0  0  0
    4.6033    3.7196    7.0994 C   0  0  0  0  0  0  0  0  0  0  0  0
    3.8142    2.7802    6.5324 C   0  0  0  0  0  0  0  0  0  0  0  0
    2.5293    2.4357    7.0816 C   0  0  0  0  0  0  0  0  0  0  0  0
    1.4880    2.1626    7.5148 N   0  0  0  0  0  0  0  0  0  0  0  0
    4.3136    1.9209    5.4878 C   0  0  0  0  0  0  0  0  0  0  0  0
    4.7206    1.2184    4.6654 N   0  0  0  0  0  0  0  0  0  0  0  0
   -1.3931   -8.0434   -3.9998 H   0  0  0  0  0  0  0  0  0  0  0  0
   -0.8967    6.2588    3.3270 H   0  0  0  0  0  0  0  0  0  0  0  0
   -1.4094    5.8788    1.6467 H   0  0  0  0  0  0  0  0  0  0  0  0
   -1.5911    3.4341    2.2971 H   0  0  0  0  0  0  0  0  0  0  0  0
   -2.7122    4.5086    3.2136 H   0  0  0  0  0  0  0  0  0  0  0  0
   -1.2069    3.9011    4.0035 H   0  0  0  0  0  0  0  0  0  0  0  0
   -3.9999   -5.5137   -3.9640 H   0  0  0  0  0  0  0  0  0  0  0  0
   -5.6265    0.2763   -2.5511 H   0  0  0  0  0  0  0  0  0  0  0  0
   -6.5174   -1.2773   -2.7113 H   0  0  0  0  0  0  0  0  0  0  0  0
   -6.3594   -0.5908   -0.3257 H   0  0  0  0  0  0  0  0  0  0  0  0
   -4.5631   -0.5222   -0.4419 H   0  0  0  0  0  0  0  0  0  0  0  0
   -5.4213   -2.1104   -0.5961 H   0  0  0  0  0  0  0  0  0  0  0  0
   -1.2779   -0.0979   -1.7312 H   0  0  0  0  0  0  0  0  0  0  0  0
   -0.3744    1.3222   -1.3035 H   0  0  0  0  0  0  0  0  0  0  0  0
   -3.0016    1.4915   -1.7887 H   0  0  0  0  0  0  0  0  0  0  0  0
   -2.4799    1.6213   -3.5202 H   0  0  0  0  0  0  0  0  0  0  0  0
   -1.9592    2.8237   -2.3103 H   0  0  0  0  0  0  0  0  0  0  0  0
    0.0245    3.4807   -2.8816 H   0  0  0  0  0  0  0  0  0  0  0  0
   -0.1556    3.7819   -1.1142 H   0  0  0  0  0  0  0  0  0  0  0  0
    0.2537    5.8540   -2.4825 H   0  0  0  0  0  0  0  0  0  0  0  0
    1.8147    5.1570   -3.0806 H   0  0  0  0  0  0  0  0  0  0  0  0
    1.6124    5.5895   -1.3358 H   0  0  0  0  0  0  0  0  0  0  0  0
    3.8127    5.2447    4.8769 H   0  0  0  0  0  0  0  0  0  0  0  0
    7.5365    4.5357    5.3288 H   0  0  0  0  0  0  0  0  0  0  0  0
    2.4619    3.8872    9.3382 H   0  0  0  0  0  0  0  0  0  0  0  0
    7.4618    6.2462   10.5872 H   0  0  0  0  0  0  0  0  0  0  0  0
    6.6825    5.6553   12.1100 H   0  0  0  0  0  0  0  0  0  0  0  0
    7.6948    4.5297   11.1131 H   0  0  0  0  0  0  0  0  0  0  0  0
  1  2  2  3
  2  3  1  0
  3  4  2  0
  3  5  1  0
  5  6  2  0
  6  7  1  0
  6  8  1  0
  8  9  1  0
  8 10  2  0
 10 11  1  0
 10 12  1  0
 12 13  1  0
 12 14  2  0
 14 15  1  0
 15 16  2  3
 16 17  1  0
 17 18  3  0
 16 19  1  0
 19 20  3  0
  1 21  1  0
 21 22  1  0
 22 23  1  0
 23 24  1  0
 24 25  1  0
 25 26  1  0
 26 27  1  0
 27 28  1  0
 28 29  1  0
 29 30  2  0
 30 31  1  0
 31 32  1  0
 29 33  1  0
 33 34  1  0
 34 35  1  0
 35 36  1  0
 36 37  1  0
 37 38  2  0
 38 39  1  0
 39 40  2  0
 40 41  1  0
 41 42  1  0
 42 43  1  0
 41 44  1  0
 44 45  2  0
 45 46  1  0
 46 47  1  0
 47 48  1  0
 48 49  1  0
 49 50  1  0
 50 51  1  0
 51 52  1  0
 52 53  1  0
 53 54  1  0
 54 55  1  0
 55 56  1  0
 56 57  1  0
 55 58  2  0
 58 59  1  0
 59 60  1  0
 60 61  1  0
 59 62  1  0
 51 63  1  0
 63 64  1  0
 48 65  1  0
 65 66  1  0
 38 67  1  0
 67 68  2  0
 68 69  1  0
 68 70  1  0
 70 71  2  3
 71 72  1  0
 72 73  2  0
 72 74  1  0
 74 75  1  0
 75 76  2  0
 76 77  1  0
 77 78  1  0
 78 79  1  0
 75 80  1  0
 80 81  2  3
 81 82  1  0
 82 83  3  0
 81 84  1  0
 84 85  3  0
 15  2  1  0
 57 21  2  0
 80 71  1  0
 14  5  1  0
 56 23  2  0
 78 74  2  0
 53 24  2  0
 62 54  2  0
 52 26  2  0
 50 27  2  0
 32 28  2  0
 49 33  2  0
 47 34  2  0
 46 36  2  0
 69 37  1  0
 45 39  1  0
  1 86  1  0
 42 87  1  0
 42 88  1  0
 43 89  1  0
 43 90  1  0
 43 91  1  0
 57 92  1  0
 60 93  1  0
 60 94  1  0
 61 95  1  0
 61 96  1  0
 61 97  1  0
 63 98  1  0
 63 99  1  0
 64100  1  0
 64101  1  0
 64102  1  0
 65103  1  0
 65104  1  0
 66105  1  0
 66106  1  0
 66107  1  0
 67108  1  0
 70109  1  0
 76110  1  0
 79111  1  0
 79112  1  0
 79113  1  0
M  END

