
     RDKit          3D

135149  0  0  0  0  0  0  0  0999 V2000
   -2.4279   -2.9003   -5.8101 C   0  0  0  0  0  0  0  0  0  0  0  0
   -1.1266   -2.6129   -6.0025 C   0  0  0  0  0  0  0  0  0  0  0  0
   -0.2359   -2.0015   -5.0069 C   0  0  0  0  0  0  0  0  0  0  0  0
   -0.5832   -1.3475   -3.9863 O   0  0  0  0  0  0  0  0  0  0  0  0
    1.1312   -2.2676   -5.3926 C   0  0  0  0  0  0  0  0  0  0  0  0
    2.2925   -2.0084   -4.6652 C   0  0  0  0  0  0  0  0  0  0  0  0
    3.5185   -2.4689   -5.1705 C   0  0  0  0  0  0  0  0  0  0  0  0
    4.7079   -2.2418   -4.4636 C   0  0  0  0  0  0  0  0  0  0  0  0
    5.9213   -2.7296   -4.9570 C   0  0  0  0  0  0  0  0  0  0  0  0
    7.0672   -2.5111   -4.2636 F   0  0  0  0  0  0  0  0  0  0  0  0
    5.9566   -3.4516   -6.1561 C   0  0  0  0  0  0  0  0  0  0  0  0
    7.1395   -3.9282   -6.6239 F   0  0  0  0  0  0  0  0  0  0  0  0
    4.7782   -3.6879   -6.8707 C   0  0  0  0  0  0  0  0  0  0  0  0
    3.5521   -3.1989   -6.3929 C   0  0  0  0  0  0  0  0  0  0  0  0
    2.3583   -3.4425   -7.1036 C   0  0  0  0  0  0  0  0  0  0  0  0
    1.1466   -2.9407   -6.6013 C   0  0  0  0  0  0  0  0  0  0  0  0
   -0.2468   -3.0810   -7.1165 C   0  0  0  0  0  0  0  0  0  0  0  0
   -0.6211   -3.3456   -8.3945 C   0  0  0  0  0  0  0  0  0  0  0  0
    0.3314   -3.6279   -9.4357 C   0  0  0  0  0  0  0  0  0  0  0  0
    1.0887   -3.8528  -10.2824 N   0  0  0  0  0  0  0  0  0  0  0  0
   -1.9851   -3.2263   -8.8364 C   0  0  0  0  0  0  0  0  0  0  0  0
   -3.0808   -3.1326   -9.2022 N   0  0  0  0  0  0  0  0  0  0  0  0
   -3.1079   -2.6105   -4.5433 C   0  0  0  0  0  0  0  0  0  0  0  0
   -3.8885   -1.4739   -4.2742 C   0  0  0  0  0  0  0  0  0  0  0  0
   -4.2824   -0.4460   -5.2980 C   0  0  0  0  0  0  0  0  0  0  0  0
   -5.4538   -0.9466   -6.1368 C   0  0  0  0  0  0  0  0  0  0  0  0
   -4.2047   -1.4014   -2.9139 C   0  0  0  0  0  0  0  0  0  0  0  0
   -4.8453   -0.1610   -1.9373 S   0  0  0  0  0  0  0  0  0  0  0  0
   -4.4844   -1.0341   -0.5229 C   0  0  0  0  0  0  0  0  0  0  0  0
   -4.2068   -0.6998    0.7757 C   0  0  0  0  0  0  0  0  0  0  0  0
   -4.2506    0.5558    1.4078 C   0  0  0  0  0  0  0  0  0  0  0  0
   -4.7764    1.6473    0.7980 N   0  0  0  0  0  0  0  0  0  0  0  0
   -4.7167    2.8874    1.3606 C   0  0  0  0  0  0  0  0  0  0  0  0
   -5.1181    4.0320    0.5164 C   0  0  0  0  0  0  0  0  0  0  0  0
   -5.9927    3.9548   -0.5662 C   0  0  0  0  0  0  0  0  0  0  0  0
   -6.0403    5.1229   -1.3388 C   0  0  0  0  0  0  0  0  0  0  0  0
   -5.1750    6.1132   -0.8908 C   0  0  0  0  0  0  0  0  0  0  0  0
   -4.9718    7.4584   -1.5227 C   0  0  0  0  0  0  0  0  0  0  0  0
   -3.5062    7.6793   -1.8897 C   0  0  0  0  0  0  0  0  0  0  0  0
   -4.3603    5.5369    0.4627 S   0  0  0  0  0  0  0  0  0  0  0  0
   -4.1296    3.0257    2.6480 C   0  0  0  0  0  0  0  0  0  0  0  0
   -4.1151    4.2867    3.4095 C   0  0  0  0  0  0  0  0  0  0  0  0
   -5.1598    5.2011    3.5364 C   0  0  0  0  0  0  0  0  0  0  0  0
   -4.8541    6.2809    4.3743 C   0  0  0  0  0  0  0  0  0  0  0  0
   -3.5853    6.1952    4.9390 C   0  0  0  0  0  0  0  0  0  0  0  0
   -2.9478    7.2103    5.8389 C   0  0  0  0  0  0  0  0  0  0  0  0
   -2.0919    8.1816    5.0345 C   0  0  0  0  0  0  0  0  0  0  0  0
   -2.8380    4.7964    4.3795 S   0  0  0  0  0  0  0  0  0  0  0  0
   -3.5625    1.9350    3.2319 N   0  0  0  0  0  0  0  0  0  0  0  0
   -3.5869    0.7146    2.6406 C   0  0  0  0  0  0  0  0  0  0  0  0
   -2.9362   -0.3927    3.2023 C   0  0  0  0  0  0  0  0  0  0  0  0
   -2.0801   -0.4780    4.2628 C   0  0  0  0  0  0  0  0  0  0  0  0
   -1.0092    0.6744    4.8898 S   0  0  0  0  0  0  0  0  0  0  0  0
    0.1926   -0.4942    5.1328 C   0  0  0  0  0  0  0  0  0  0  0  0
    1.5758   -0.3401    5.2466 C   0  0  0  0  0  0  0  0  0  0  0  0
    2.2453    0.9645    5.5960 C   0  0  0  0  0  0  0  0  0  0  0  0
    2.2291    1.1881    7.1028 C   0  0  0  0  0  0  0  0  0  0  0  0
    2.2460   -1.5187    4.8711 C   0  0  0  0  0  0  0  0  0  0  0  0
    1.1171   -2.6807    4.3606 S   0  0  0  0  0  0  0  0  0  0  0  0
   -0.2261   -1.7292    4.6943 C   0  0  0  0  0  0  0  0  0  0  0  0
   -1.5409   -1.7403    4.2291 C   0  0  0  0  0  0  0  0  0  0  0  0
   -2.0707   -2.5089    3.2416 N   0  0  0  0  0  0  0  0  0  0  0  0
   -2.5415   -3.8729    3.5416 C   0  0  0  0  0  0  0  0  0  0  0  0
   -1.3878   -4.8477    3.7668 C   0  0  0  0  0  0  0  0  0  0  0  0
   -2.8665   -1.6299    2.5649 C   0  0  0  0  0  0  0  0  0  0  0  0
   -3.4471   -1.7678    1.2826 C   0  0  0  0  0  0  0  0  0  0  0  0
   -3.1528   -2.6720    0.2917 N   0  0  0  0  0  0  0  0  0  0  0  0
   -3.8416   -2.2048   -0.7817 C   0  0  0  0  0  0  0  0  0  0  0  0
   -3.6856   -2.4147   -2.1470 C   0  0  0  0  0  0  0  0  0  0  0  0
   -2.7990   -3.4672   -3.1063 S   0  0  0  0  0  0  0  0  0  0  0  0
   -1.9607   -3.5256    0.1846 C   0  0  0  0  0  0  0  0  0  0  0  0
   -0.7312   -2.7028   -0.2009 C   0  0  0  0  0  0  0  0  0  0  0  0
    3.6861   -1.6193    4.6080 C   0  0  0  0  0  0  0  0  0  0  0  0
    4.2546   -1.0641    3.5181 C   0  0  0  0  0  0  0  0  0  0  0  0
    3.5488   -0.2877    2.4898 C   0  0  0  0  0  0  0  0  0  0  0  0
    2.3107   -0.3116    2.2492 O   0  0  0  0  0  0  0  0  0  0  0  0
    4.5168    0.5323    1.7964 C   0  0  0  0  0  0  0  0  0  0  0  0
    4.2795    1.5139    0.8380 C   0  0  0  0  0  0  0  0  0  0  0  0
    5.3644    2.2822    0.3735 C   0  0  0  0  0  0  0  0  0  0  0  0
    5.1516    3.3367   -0.6751 C   0  0  0  0  0  0  0  0  0  0  0  0
    6.6536    2.0561    0.9034 C   0  0  0  0  0  0  0  0  0  0  0  0
    7.7011    2.8148    0.4975 F   0  0  0  0  0  0  0  0  0  0  0  0
    6.8648    1.0615    1.8736 C   0  0  0  0  0  0  0  0  0  0  0  0
    5.7825    0.2741    2.2923 C   0  0  0  0  0  0  0  0  0  0  0  0
    5.7113   -0.8261    3.2949 C   0  0  0  0  0  0  0  0  0  0  0  0
    6.7339   -1.6062    3.7291 C   0  0  0  0  0  0  0  0  0  0  0  0
    6.5035   -2.8399    4.4353 C   0  0  0  0  0  0  0  0  0  0  0  0
    6.3162   -3.8360    4.9909 N   0  0  0  0  0  0  0  0  0  0  0  0
    8.1066   -1.3514    3.3745 C   0  0  0  0  0  0  0  0  0  0  0  0
    9.2121   -1.1578    3.0897 N   0  0  0  0  0  0  0  0  0  0  0  0
   -2.9810   -3.4809   -6.5279 H   0  0  0  0  0  0  0  0  0  0  0  0
    2.2354   -1.4833   -3.7177 H   0  0  0  0  0  0  0  0  0  0  0  0
    4.6999   -1.6910   -3.5302 H   0  0  0  0  0  0  0  0  0  0  0  0
    4.8253   -4.2525   -7.7940 H   0  0  0  0  0  0  0  0  0  0  0  0
    2.3882   -4.0482   -7.9951 H   0  0  0  0  0  0  0  0  0  0  0  0
   -3.4165   -0.2280   -5.9612 H   0  0  0  0  0  0  0  0  0  0  0  0
   -4.5756    0.5020   -4.7965 H   0  0  0  0  0  0  0  0  0  0  0  0
   -5.1565   -1.8504   -6.7096 H   0  0  0  0  0  0  0  0  0  0  0  0
   -5.7580   -0.1575   -6.8560 H   0  0  0  0  0  0  0  0  0  0  0  0
   -6.3217   -1.1891   -5.4850 H   0  0  0  0  0  0  0  0  0  0  0  0
   -6.5616    3.0679   -0.8108 H   0  0  0  0  0  0  0  0  0  0  0  0
   -6.6646    5.2261   -2.2156 H   0  0  0  0  0  0  0  0  0  0  0  0
   -5.5895    7.5412   -2.4451 H   0  0  0  0  0  0  0  0  0  0  0  0
   -5.2996    8.2473   -0.8114 H   0  0  0  0  0  0  0  0  0  0  0  0
   -3.1473    6.8613   -2.5534 H   0  0  0  0  0  0  0  0  0  0  0  0
   -3.3977    8.6459   -2.4259 H   0  0  0  0  0  0  0  0  0  0  0  0
   -2.8783    7.7085   -0.9702 H   0  0  0  0  0  0  0  0  0  0  0  0
   -6.1143    5.0925    3.0424 H   0  0  0  0  0  0  0  0  0  0  0  0
   -5.5430    7.0940    4.5685 H   0  0  0  0  0  0  0  0  0  0  0  0
   -2.3137    6.6883    6.5835 H   0  0  0  0  0  0  0  0  0  0  0  0
   -3.7312    7.7750    6.3868 H   0  0  0  0  0  0  0  0  0  0  0  0
   -2.7354    8.7935    4.3679 H   0  0  0  0  0  0  0  0  0  0  0  0
   -1.3473    7.6339    4.4183 H   0  0  0  0  0  0  0  0  0  0  0  0
   -1.5496    8.8588    5.7252 H   0  0  0  0  0  0  0  0  0  0  0  0
    1.7203    1.8055    5.0936 H   0  0  0  0  0  0  0  0  0  0  0  0
    3.3010    0.9781    5.2470 H   0  0  0  0  0  0  0  0  0  0  0  0
    2.7664    0.3624    7.6172 H   0  0  0  0  0  0  0  0  0  0  0  0
    1.1869    1.2408    7.4792 H   0  0  0  0  0  0  0  0  0  0  0  0
    2.7391    2.1458    7.3440 H   0  0  0  0  0  0  0  0  0  0  0  0
   -3.1764   -3.8534    4.4565 H   0  0  0  0  0  0  0  0  0  0  0  0
   -3.1946   -4.2557    2.7293 H   0  0  0  0  0  0  0  0  0  0  0  0
   -0.6020   -4.7248    2.9927 H   0  0  0  0  0  0  0  0  0  0  0  0
   -1.7683   -5.8908    3.7229 H   0  0  0  0  0  0  0  0  0  0  0  0
   -0.9400   -4.6919    4.7716 H   0  0  0  0  0  0  0  0  0  0  0  0
   -2.1299   -4.3253   -0.5635 H   0  0  0  0  0  0  0  0  0  0  0  0
   -1.7468   -4.0492    1.1200 H   0  0  0  0  0  0  0  0  0  0  0  0
    0.1545   -3.3702   -0.2751 H   0  0  0  0  0  0  0  0  0  0  0  0
   -0.8842   -2.2075   -1.1827 H   0  0  0  0  0  0  0  0  0  0  0  0
   -0.5301   -1.9282    0.5717 H   0  0  0  0  0  0  0  0  0  0  0  0
    4.2903   -2.0358    5.3992 H   0  0  0  0  0  0  0  0  0  0  0  0
    3.2736    1.6890    0.4741 H   0  0  0  0  0  0  0  0  0  0  0  0
    4.0684    3.4978   -0.8759 H   0  0  0  0  0  0  0  0  0  0  0  0
    5.6421    3.0246   -1.6206 H   0  0  0  0  0  0  0  0  0  0  0  0
    5.5857    4.3008   -0.3379 H   0  0  0  0  0  0  0  0  0  0  0  0
    7.8496    0.9523    2.2964 H   0  0  0  0  0  0  0  0  0  0  0  0
  1  2  2  3
  2  3  1  0
  3  4  2  0
  3  5  1  0
  5  6  2  0
  6  7  1  0
  7  8  2  0
  8  9  1  0
  9 10  1  0
  9 11  2  0
 11 12  1  0
 11 13  1  0
 13 14  2  0
 14 15  1  0
 15 16  2  0
 16 17  1  0
 17 18  2  3
 18 19  1  0
 19 20  3  0
 18 21  1  0
 21 22  3  0
  1 23  1  0
 23 24  2  0
 24 25  1  0
 25 26  1  0
 24 27  1  0
 27 28  1  0
 28 29  1  0
 29 30  1  0
 30 31  2  0
 31 32  1  0
 32 33  2  0
 33 34  1  0
 34 35  2  0
 35 36  1  0
 36 37  2  0
 37 38  1  0
 38 39  1  0
 37 40  1  0
 33 41  1  0
 41 42  1  0
 42 43  2  0
 43 44  1  0
 44 45  2  0
 45 46  1  0
 46 47  1  0
 45 48  1  0
 41 49  2  0
 49 50  1  0
 50 51  2  0
 51 52  1  0
 52 53  1  0
 53 54  1  0
 54 55  1  0
 55 56  1  0
 56 57  1  0
 55 58  2  0
 58 59  1  0
 59 60  1  0
 60 61  1  0
 61 62  1  0
 62 63  1  0
 63 64  1  0
 62 65  1  0
 65 66  2  0
 66 67  1  0
 67 68  1  0
 68 69  1  0
 69 70  1  0
 67 71  1  0
 71 72  1  0
 58 73  1  0
 73 74  2  3
 74 75  1  0
 75 76  2  0
 75 77  1  0
 77 78  2  0
 78 79  1  0
 79 80  1  0
 79 81  2  0
 81 82  1  0
 81 83  1  0
 83 84  2  0
 84 85  1  0
 85 86  2  3
 86 87  1  0
 87 88  3  0
 86 89  1  0
 89 90  3  0
 17  2  1  0
 70 23  1  0
 85 74  1  0
 16  5  1  0
 69 27  2  0
 84 77  1  0
 14  7  1  0
 68 29  2  0
 66 30  1  0
 50 31  1  0
 65 51  1  0
 40 34  1  0
 48 42  1  0
 61 52  2  0
 60 54  2  0
  1 91  1  0
  6 92  1  0
  8 93  1  0
 13 94  1  0
 15 95  1  0
 25 96  1  0
 25 97  1  0
 26 98  1  0
 26 99  1  0
 26100  1  0
 35101  1  0
 36102  1  0
 38103  1  0
 38104  1  0
 39105  1  0
 39106  1  0
 39107  1  0
 43108  1  0
 44109  1  0
 46110  1  0
 46111  1  0
 47112  1  0
 47113  1  0
 47114  1  0
 56115  1  0
 56116  1  0
 57117  1  0
 57118  1  0
 57119  1  0
 63120  1  0
 63121  1  0
 64122  1  0
 64123  1  0
 64124  1  0
 71125  1  0
 71126  1  0
 72127  1  0
 72128  1  0
 72129  1  0
 73130  1  0
 78131  1  0
 80132  1  0
 80133  1  0
 80134  1  0
 83135  1  0
M  END

