
     RDKit          3D

181199  0  0  0  0  0  0  0  0999 V2000
    4.8742    3.3923    4.2825 C   0  0  0  0  0  0  0  0  0  0  0  0
    5.3074    3.9947    3.1540 C   0  0  0  0  0  0  0  0  0  0  0  0
    5.0432    3.5229    1.7895 C   0  0  0  0  0  0  0  0  0  0  0  0
    4.0493    2.8428    1.4197 O   0  0  0  0  0  0  0  0  0  0  0  0
    6.1002    3.9978    0.9239 C   0  0  0  0  0  0  0  0  0  0  0  0
    6.3958    3.5921   -0.3771 C   0  0  0  0  0  0  0  0  0  0  0  0
    7.6233    3.9673   -0.9374 C   0  0  0  0  0  0  0  0  0  0  0  0
    7.9902    3.5066   -2.2133 C   0  0  0  0  0  0  0  0  0  0  0  0
    9.2466    3.8222   -2.7340 C   0  0  0  0  0  0  0  0  0  0  0  0
    9.6082    3.3489   -3.9506 F   0  0  0  0  0  0  0  0  0  0  0  0
   10.1488    4.5932   -1.9933 C   0  0  0  0  0  0  0  0  0  0  0  0
   11.3761    4.8694   -2.4934 F   0  0  0  0  0  0  0  0  0  0  0  0
    9.7913    5.0676   -0.7262 C   0  0  0  0  0  0  0  0  0  0  0  0
    8.5347    4.7657   -0.1866 C   0  0  0  0  0  0  0  0  0  0  0  0
    8.1864    5.1871    1.1163 C   0  0  0  0  0  0  0  0  0  0  0  0
    6.9433    4.8194    1.6471 C   0  0  0  0  0  0  0  0  0  0  0  0
    6.4082    4.9952    3.0277 C   0  0  0  0  0  0  0  0  0  0  0  0
    6.7025    6.0017    3.8833 C   0  0  0  0  0  0  0  0  0  0  0  0
    7.6091    7.0581    3.5265 C   0  0  0  0  0  0  0  0  0  0  0  0
    8.3295    7.9230    3.2510 N   0  0  0  0  0  0  0  0  0  0  0  0
    6.0842    6.1194    5.1792 C   0  0  0  0  0  0  0  0  0  0  0  0
    5.6189    6.2170    6.2321 N   0  0  0  0  0  0  0  0  0  0  0  0
    4.1883    2.0871    4.2537 C   0  0  0  0  0  0  0  0  0  0  0  0
    2.5060    1.8498    4.3736 S   0  0  0  0  0  0  0  0  0  0  0  0
    2.5805    0.1985    4.0372 C   0  0  0  0  0  0  0  0  0  0  0  0
    1.7192   -0.6596    3.2718 C   0  0  0  0  0  0  0  0  0  0  0  0
    2.4743   -1.4042    2.4174 C   0  0  0  0  0  0  0  0  0  0  0  0
    3.9255   -1.4149    2.8503 C   0  0  0  0  0  0  0  0  0  0  0  0
    3.8710   -0.1295    3.6808 C   0  0  0  0  0  0  0  0  0  0  0  0
    4.8029    0.8919    3.8770 C   0  0  0  0  0  0  0  0  0  0  0  0
    4.8602   -1.4606    1.6403 C   0  0  0  0  0  0  0  0  0  0  0  0
    5.2160   -2.7053    1.0791 C   0  0  0  0  0  0  0  0  0  0  0  0
    6.0537   -2.7797   -0.0353 C   0  0  0  0  0  0  0  0  0  0  0  0
    6.5787   -1.6105   -0.6080 C   0  0  0  0  0  0  0  0  0  0  0  0
    7.5173   -1.6832   -1.7866 C   0  0  0  0  0  0  0  0  0  0  0  0
    8.8642   -2.2748   -1.3821 C   0  0  0  0  0  0  0  0  0  0  0  0
    6.1830   -0.3700   -0.0933 C   0  0  0  0  0  0  0  0  0  0  0  0
    5.3125   -0.2970    0.9945 C   0  0  0  0  0  0  0  0  0  0  0  0
    4.2343   -2.5421    3.8579 C   0  0  0  0  0  0  0  0  0  0  0  0
    3.2961   -3.5436    4.2044 C   0  0  0  0  0  0  0  0  0  0  0  0
    3.5515   -4.4371    5.2422 C   0  0  0  0  0  0  0  0  0  0  0  0
    4.7490   -4.3615    5.9670 C   0  0  0  0  0  0  0  0  0  0  0  0
    4.9435   -5.2367    7.1837 C   0  0  0  0  0  0  0  0  0  0  0  0
    4.3042   -4.5934    8.4096 C   0  0  0  0  0  0  0  0  0  0  0  0
    5.7057   -3.4035    5.6115 C   0  0  0  0  0  0  0  0  0  0  0  0
    5.4556   -2.5140    4.5633 C   0  0  0  0  0  0  0  0  0  0  0  0
    1.7084   -2.1793    1.5592 C   0  0  0  0  0  0  0  0  0  0  0  0
    1.8052   -2.1765   -0.1365 S   0  0  0  0  0  0  0  0  0  0  0  0
    0.1532   -2.5007   -0.3327 C   0  0  0  0  0  0  0  0  0  0  0  0
   -0.8311   -2.1925   -1.3490 C   0  0  0  0  0  0  0  0  0  0  0  0
   -0.6787   -1.3184   -2.4377 C   0  0  0  0  0  0  0  0  0  0  0  0
   -1.8501   -0.7445   -2.9821 C   0  0  0  0  0  0  0  0  0  0  0  0
   -1.9677    0.5866   -3.7555 C   0  0  0  0  0  0  0  0  0  0  0  0
   -1.2252    1.6715   -2.9567 C   0  0  0  0  0  0  0  0  0  0  0  0
    0.1567    1.8671   -3.1557 C   0  0  0  0  0  0  0  0  0  0  0  0
    0.8627    2.8177   -2.4141 C   0  0  0  0  0  0  0  0  0  0  0  0
    0.2065    3.5855   -1.4464 C   0  0  0  0  0  0  0  0  0  0  0  0
    0.9592    4.6073   -0.6304 C   0  0  0  0  0  0  0  0  0  0  0  0
    1.1628    4.1134    0.7977 C   0  0  0  0  0  0  0  0  0  0  0  0
   -1.1580    3.3605   -1.2008 C   0  0  0  0  0  0  0  0  0  0  0  0
   -1.8597    2.4052   -1.9378 C   0  0  0  0  0  0  0  0  0  0  0  0
   -1.5405    0.5412   -5.2250 C   0  0  0  0  0  0  0  0  0  0  0  0
   -1.4169    1.7545   -5.9320 C   0  0  0  0  0  0  0  0  0  0  0  0
   -1.1243    1.7621   -7.2939 C   0  0  0  0  0  0  0  0  0  0  0  0
   -0.9769    0.5601   -7.9929 C   0  0  0  0  0  0  0  0  0  0  0  0
   -0.7135    0.5950   -9.4787 C   0  0  0  0  0  0  0  0  0  0  0  0
   -1.9921    0.9161  -10.2511 C   0  0  0  0  0  0  0  0  0  0  0  0
   -1.1354   -0.6547   -7.3091 C   0  0  0  0  0  0  0  0  0  0  0  0
   -1.4180   -0.6657   -5.9366 C   0  0  0  0  0  0  0  0  0  0  0  0
   -3.4736    0.7637   -3.7221 C   0  0  0  0  0  0  0  0  0  0  0  0
   -4.0711   -0.2225   -3.0223 C   0  0  0  0  0  0  0  0  0  0  0  0
   -3.1037   -1.1408   -2.5028 C   0  0  0  0  0  0  0  0  0  0  0  0
   -3.2531   -1.9339   -1.3745 C   0  0  0  0  0  0  0  0  0  0  0  0
   -2.0863   -2.3893   -0.7519 C   0  0  0  0  0  0  0  0  0  0  0  0
   -1.9720   -2.7379    0.7367 C   0  0  0  0  0  0  0  0  0  0  0  0
   -2.3503   -4.2174    0.9642 C   0  0  0  0  0  0  0  0  0  0  0  0
   -1.6288   -5.0344    1.8655 C   0  0  0  0  0  0  0  0  0  0  0  0
   -1.9156   -6.3938    1.9943 C   0  0  0  0  0  0  0  0  0  0  0  0
   -2.9361   -6.9776    1.2322 C   0  0  0  0  0  0  0  0  0  0  0  0
   -3.1892   -8.4654    1.3137 C   0  0  0  0  0  0  0  0  0  0  0  0
   -4.1359   -8.7949    2.4678 C   0  0  0  0  0  0  0  0  0  0  0  0
   -3.7238   -6.1663    0.4080 C   0  0  0  0  0  0  0  0  0  0  0  0
   -3.4453   -4.8030    0.2881 C   0  0  0  0  0  0  0  0  0  0  0  0
   -2.7340   -1.7584    1.6312 C   0  0  0  0  0  0  0  0  0  0  0  0
   -2.8001   -0.3895    1.2969 C   0  0  0  0  0  0  0  0  0  0  0  0
   -3.4882    0.5186    2.1106 C   0  0  0  0  0  0  0  0  0  0  0  0
   -4.0672    0.0903    3.3123 C   0  0  0  0  0  0  0  0  0  0  0  0
   -4.8250    1.0613    4.1766 C   0  0  0  0  0  0  0  0  0  0  0  0
   -6.3230    0.9426    3.9316 C   0  0  0  0  0  0  0  0  0  0  0  0
   -3.9695   -1.2581    3.6805 C   0  0  0  0  0  0  0  0  0  0  0  0
   -3.2954   -2.1670    2.8566 C   0  0  0  0  0  0  0  0  0  0  0  0
   -0.4797   -2.5671    0.8778 C   0  0  0  0  0  0  0  0  0  0  0  0
    0.3664   -2.1945    1.9214 C   0  0  0  0  0  0  0  0  0  0  0  0
    0.0782   -1.0660    3.1744 S   0  0  0  0  0  0  0  0  0  0  0  0
   -5.7219   -0.0002   -2.8956 S   0  0  0  0  0  0  0  0  0  0  0  0
   -5.6807    1.4651   -3.7850 C   0  0  0  0  0  0  0  0  0  0  0  0
   -4.3601    1.7407   -4.1906 C   0  0  0  0  0  0  0  0  0  0  0  0
   -6.8654    2.1971   -4.2716 C   0  0  0  0  0  0  0  0  0  0  0  0
   -8.0405    2.2880   -3.6157 C   0  0  0  0  0  0  0  0  0  0  0  0
   -8.2382    2.1672   -2.1626 C   0  0  0  0  0  0  0  0  0  0  0  0
   -7.3700    1.8424   -1.3104 O   0  0  0  0  0  0  0  0  0  0  0  0
   -9.5579    2.6673   -1.8371 C   0  0  0  0  0  0  0  0  0  0  0  0
  -10.1881    3.0967   -2.9917 C   0  0  0  0  0  0  0  0  0  0  0  0
  -11.4134    3.7790   -2.9083 C   0  0  0  0  0  0  0  0  0  0  0  0
  -12.0154    3.9517   -1.6527 C   0  0  0  0  0  0  0  0  0  0  0  0
  -13.2030    4.6030   -1.5573 F   0  0  0  0  0  0  0  0  0  0  0  0
  -11.3886    3.4630   -0.4898 C   0  0  0  0  0  0  0  0  0  0  0  0
  -11.9757    3.6362    0.7203 F   0  0  0  0  0  0  0  0  0  0  0  0
  -10.1408    2.8279   -0.5766 C   0  0  0  0  0  0  0  0  0  0  0  0
   -9.5144    2.3871    0.5459 F   0  0  0  0  0  0  0  0  0  0  0  0
   -9.3344    2.7944   -4.1740 C   0  0  0  0  0  0  0  0  0  0  0  0
   -9.7599    2.6802   -5.4592 C   0  0  0  0  0  0  0  0  0  0  0  0
   -8.9310    2.1189   -6.4957 C   0  0  0  0  0  0  0  0  0  0  0  0
   -8.2695    1.6709   -7.3343 N   0  0  0  0  0  0  0  0  0  0  0  0
  -11.1262    2.9115   -5.8358 C   0  0  0  0  0  0  0  0  0  0  0  0
  -12.2218    3.0811   -6.1589 N   0  0  0  0  0  0  0  0  0  0  0  0
    5.2242    3.7199    5.2471 H   0  0  0  0  0  0  0  0  0  0  0  0
    5.7015    2.9470   -0.9086 H   0  0  0  0  0  0  0  0  0  0  0  0
    7.3182    2.8838   -2.7900 H   0  0  0  0  0  0  0  0  0  0  0  0
   10.5016    5.6553   -0.1654 H   0  0  0  0  0  0  0  0  0  0  0  0
    8.9063    5.7371    1.7129 H   0  0  0  0  0  0  0  0  0  0  0  0
    5.8496    0.8121    3.6034 H   0  0  0  0  0  0  0  0  0  0  0  0
    4.8416   -3.6258    1.5039 H   0  0  0  0  0  0  0  0  0  0  0  0
    6.3085   -3.7467   -0.4439 H   0  0  0  0  0  0  0  0  0  0  0  0
    7.0681   -2.3111   -2.5827 H   0  0  0  0  0  0  0  0  0  0  0  0
    7.6999   -0.6764   -2.2119 H   0  0  0  0  0  0  0  0  0  0  0  0
    9.3868   -1.5954   -0.6724 H   0  0  0  0  0  0  0  0  0  0  0  0
    9.5080   -2.4060   -2.2770 H   0  0  0  0  0  0  0  0  0  0  0  0
    8.7314   -3.2740   -0.9022 H   0  0  0  0  0  0  0  0  0  0  0  0
    6.5407    0.5509   -0.5417 H   0  0  0  0  0  0  0  0  0  0  0  0
    4.9834    0.6689    1.3114 H   0  0  0  0  0  0  0  0  0  0  0  0
    2.3441   -3.6263    3.7043 H   0  0  0  0  0  0  0  0  0  0  0  0
    2.7935   -5.1651    5.5116 H   0  0  0  0  0  0  0  0  0  0  0  0
    4.4812   -6.2336    7.0167 H   0  0  0  0  0  0  0  0  0  0  0  0
    6.0232   -5.3987    7.3750 H   0  0  0  0  0  0  0  0  0  0  0  0
    4.8013   -3.6292    8.6490 H   0  0  0  0  0  0  0  0  0  0  0  0
    3.2225   -4.4036    8.2249 H   0  0  0  0  0  0  0  0  0  0  0  0
    4.4012   -5.2705    9.2835 H   0  0  0  0  0  0  0  0  0  0  0  0
    6.6223   -3.3144    6.1776 H   0  0  0  0  0  0  0  0  0  0  0  0
    6.2017   -1.7645    4.3362 H   0  0  0  0  0  0  0  0  0  0  0  0
    0.2999   -0.9611   -2.7170 H   0  0  0  0  0  0  0  0  0  0  0  0
    0.6915    1.2882   -3.8987 H   0  0  0  0  0  0  0  0  0  0  0  0
    1.9227    2.9488   -2.5950 H   0  0  0  0  0  0  0  0  0  0  0  0
    1.9504    4.8167   -1.0855 H   0  0  0  0  0  0  0  0  0  0  0  0
    0.3900    5.5613   -0.6172 H   0  0  0  0  0  0  0  0  0  0  0  0
    1.6794    3.1337    0.7844 H   0  0  0  0  0  0  0  0  0  0  0  0
    1.7734    4.8485    1.3622 H   0  0  0  0  0  0  0  0  0  0  0  0
    0.1842    3.9767    1.3082 H   0  0  0  0  0  0  0  0  0  0  0  0
   -1.6805    3.9223   -0.4352 H   0  0  0  0  0  0  0  0  0  0  0  0
   -2.8995    2.2461   -1.6918 H   0  0  0  0  0  0  0  0  0  0  0  0
   -1.5558    2.7083   -5.4312 H   0  0  0  0  0  0  0  0  0  0  0  0
   -1.0393    2.7143   -7.8084 H   0  0  0  0  0  0  0  0  0  0  0  0
   -0.3020   -0.3777   -9.8300 H   0  0  0  0  0  0  0  0  0  0  0  0
    0.0478    1.3726   -9.6966 H   0  0  0  0  0  0  0  0  0  0  0  0
   -2.6870    0.0503  -10.2161 H   0  0  0  0  0  0  0  0  0  0  0  0
   -2.5017    1.8098   -9.8245 H   0  0  0  0  0  0  0  0  0  0  0  0
   -1.7425    1.1338  -11.3071 H   0  0  0  0  0  0  0  0  0  0  0  0
   -1.0525   -1.5940   -7.8431 H   0  0  0  0  0  0  0  0  0  0  0  0
   -1.5563   -1.6186   -5.4461 H   0  0  0  0  0  0  0  0  0  0  0  0
   -4.2169   -2.0030   -0.8867 H   0  0  0  0  0  0  0  0  0  0  0  0
   -0.8201   -4.6222    2.4560 H   0  0  0  0  0  0  0  0  0  0  0  0
   -1.3259   -6.9955    2.6734 H   0  0  0  0  0  0  0  0  0  0  0  0
   -2.2341   -9.0077    1.4495 H   0  0  0  0  0  0  0  0  0  0  0  0
   -3.6329   -8.8289    0.3635 H   0  0  0  0  0  0  0  0  0  0  0  0
   -4.3059   -9.8934    2.5040 H   0  0  0  0  0  0  0  0  0  0  0  0
   -5.1101   -8.2890    2.3209 H   0  0  0  0  0  0  0  0  0  0  0  0
   -3.7016   -8.4662    3.4375 H   0  0  0  0  0  0  0  0  0  0  0  0
   -4.5414   -6.5915   -0.1605 H   0  0  0  0  0  0  0  0  0  0  0  0
   -4.0733   -4.2292   -0.3731 H   0  0  0  0  0  0  0  0  0  0  0  0
   -2.3306   -0.0113    0.3968 H   0  0  0  0  0  0  0  0  0  0  0  0
   -3.5427    1.5604    1.8069 H   0  0  0  0  0  0  0  0  0  0  0  0
   -4.5027    2.1031    3.9669 H   0  0  0  0  0  0  0  0  0  0  0  0
   -4.6083    0.8634    5.2446 H   0  0  0  0  0  0  0  0  0  0  0  0
   -6.6860   -0.0665    4.2209 H   0  0  0  0  0  0  0  0  0  0  0  0
   -6.8642    1.6997    4.5373 H   0  0  0  0  0  0  0  0  0  0  0  0
   -6.5594    1.1166    2.8611 H   0  0  0  0  0  0  0  0  0  0  0  0
   -4.4015   -1.6020    4.6147 H   0  0  0  0  0  0  0  0  0  0  0  0
   -3.2290   -3.1908    3.1928 H   0  0  0  0  0  0  0  0  0  0  0  0
   -4.0721    2.5979   -4.7840 H   0  0  0  0  0  0  0  0  0  0  0  0
   -6.7694    2.6525   -5.2440 H   0  0  0  0  0  0  0  0  0  0  0  0
  -11.8898    4.2150   -3.7712 H   0  0  0  0  0  0  0  0  0  0  0  0
  1  2  2  3
  2  3  1  0
  3  4  2  0
  3  5  1  0
  5  6  2  0
  6  7  1  0
  7  8  2  0
  8  9  1  0
  9 10  1  0
  9 11  2  0
 11 12  1  0
 11 13  1  0
 13 14  2  0
 14 15  1  0
 15 16  2  0
 16 17  1  0
 17 18  2  3
 18 19  1  0
 19 20  3  0
 18 21  1  0
 21 22  3  0
  1 23  1  0
 23 24  1  0
 24 25  1  0
 25 26  1  0
 26 27  2  0
 27 28  1  0
 28 29  1  0
 29 30  1  0
 28 31  1  0
 31 32  2  0
 32 33  1  0
 33 34  2  0
 34 35  1  0
 35 36  1  0
 34 37  1  0
 37 38  2  0
 28 39  1  0
 39 40  2  0
 40 41  1  0
 41 42  2  0
 42 43  1  0
 43 44  1  0
 42 45  1  0
 45 46  2  0
 27 47  1  0
 47 48  1  0
 48 49  1  0
 49 50  1  0
 50 51  2  0
 51 52  1  0
 52 53  1  0
 53 54  1  0
 54 55  2  0
 55 56  1  0
 56 57  2  0
 57 58  1  0
 58 59  1  0
 57 60  1  0
 60 61  2  0
 53 62  1  0
 62 63  2  0
 63 64  1  0
 64 65  2  0
 65 66  1  0
 66 67  1  0
 65 68  1  0
 68 69  2  0
 53 70  1  0
 70 71  2  0
 71 72  1  0
 72 73  1  0
 73 74  2  0
 74 75  1  0
 75 76  1  0
 76 77  2  0
 77 78  1  0
 78 79  2  0
 79 80  1  0
 80 81  1  0
 79 82  1  0
 82 83  2  0
 75 84  1  0
 84 85  2  0
 85 86  1  0
 86 87  2  0
 87 88  1  0
 88 89  1  0
 87 90  1  0
 90 91  2  0
 75 92  1  0
 92 93  1  0
 93 94  1  0
 71 95  1  0
 95 96  1  0
 96 97  2  0
 96 98  1  0
 98 99  2  3
 99100  1  0
100101  2  0
100102  1  0
102103  2  0
103104  1  0
104105  2  0
105106  1  0
105107  1  0
107108  1  0
107109  2  0
109110  1  0
103111  1  0
111112  2  3
112113  1  0
113114  3  0
112115  1  0
115116  3  0
 17  2  1  0
 30 23  2  0
 38 31  1  0
 46 39  1  0
 93 47  2  0
111 99  1  0
 16  5  1  0
 29 25  2  0
 92 49  2  0
109102  1  0
 14  7  1  0
 94 26  1  0
 74 50  1  0
 83 76  1  0
 91 84  1  0
 72 52  2  0
 61 54  1  0
 69 62  1  0
 97 70  1  0
  1117  1  0
  6118  1  0
  8119  1  0
 13120  1  0
 15121  1  0
 30122  1  0
 32123  1  0
 33124  1  0
 35125  1  0
 35126  1  0
 36127  1  0
 36128  1  0
 36129  1  0
 37130  1  0
 38131  1  0
 40132  1  0
 41133  1  0
 43134  1  0
 43135  1  0
 44136  1  0
 44137  1  0
 44138  1  0
 45139  1  0
 46140  1  0
 51141  1  0
 55142  1  0
 56143  1  0
 58144  1  0
 58145  1  0
 59146  1  0
 59147  1  0
 59148  1  0
 60149  1  0
 61150  1  0
 63151  1  0
 64152  1  0
 66153  1  0
 66154  1  0
 67155  1  0
 67156  1  0
 67157  1  0
 68158  1  0
 69159  1  0
 73160  1  0
 77161  1  0
 78162  1  0
 80163  1  0
 80164  1  0
 81165  1  0
 81166  1  0
 81167  1  0
 82168  1  0
 83169  1  0
 85170  1  0
 86171  1  0
 88172  1  0
 88173  1  0
 89174  1  0
 89175  1  0
 89176  1  0
 90177  1  0
 91178  1  0
 97179  1  0
 98180  1  0
104181  1  0
M  END

