
     RDKit          3D

184202  0  0  0  0  0  0  0  0999 V2000
   -0.9546    7.0873   -6.0610 C   0  0  0  0  0  0  0  0  0  0  0  0
   -0.6067    6.4165   -7.1709 C   0  0  0  0  0  0  0  0  0  0  0  0
    0.2340    5.2063   -7.2170 C   0  0  0  0  0  0  0  0  0  0  0  0
    1.1385    4.8904   -6.4032 O   0  0  0  0  0  0  0  0  0  0  0  0
   -0.1220    4.4457   -8.3841 C   0  0  0  0  0  0  0  0  0  0  0  0
    0.3446    3.1880   -8.7535 C   0  0  0  0  0  0  0  0  0  0  0  0
   -0.2049    2.5764   -9.8902 C   0  0  0  0  0  0  0  0  0  0  0  0
    0.2552    1.3230  -10.3093 C   0  0  0  0  0  0  0  0  0  0  0  0
   -0.3108    0.7104  -11.4358 C   0  0  0  0  0  0  0  0  0  0  0  0
    0.1428   -0.4959  -11.8372 F   0  0  0  0  0  0  0  0  0  0  0  0
   -1.3246    1.3572  -12.1556 C   0  0  0  0  0  0  0  0  0  0  0  0
   -1.8568    0.7622  -13.2504 F   0  0  0  0  0  0  0  0  0  0  0  0
   -1.7897    2.6159  -11.7536 C   0  0  0  0  0  0  0  0  0  0  0  0
   -1.2370    3.2389  -10.6233 C   0  0  0  0  0  0  0  0  0  0  0  0
   -1.6790    4.5178  -10.2279 C   0  0  0  0  0  0  0  0  0  0  0  0
   -1.0830    5.1318   -9.1102 C   0  0  0  0  0  0  0  0  0  0  0  0
   -1.3466    6.4539   -8.4695 C   0  0  0  0  0  0  0  0  0  0  0  0
   -1.9615    7.5295   -9.0217 C   0  0  0  0  0  0  0  0  0  0  0  0
   -1.9361    8.8261   -8.3957 C   0  0  0  0  0  0  0  0  0  0  0  0
   -1.9201    9.8727   -7.9025 N   0  0  0  0  0  0  0  0  0  0  0  0
   -2.5709    7.4970  -10.3199 C   0  0  0  0  0  0  0  0  0  0  0  0
   -3.0798    7.4793  -11.3643 N   0  0  0  0  0  0  0  0  0  0  0  0
   -0.6579    6.5712   -4.7218 C   0  0  0  0  0  0  0  0  0  0  0  0
    0.6119    6.4498   -4.1288 C   0  0  0  0  0  0  0  0  0  0  0  0
    0.5673    5.5540   -3.0553 C   0  0  0  0  0  0  0  0  0  0  0  0
    1.7709    4.6502   -2.2717 S   0  0  0  0  0  0  0  0  0  0  0  0
    0.6248    3.6052   -1.5549 C   0  0  0  0  0  0  0  0  0  0  0  0
    0.6749    2.2094   -1.1975 C   0  0  0  0  0  0  0  0  0  0  0  0
    1.7479    1.4611   -0.6917 C   0  0  0  0  0  0  0  0  0  0  0  0
    1.4820    0.1167   -0.3658 C   0  0  0  0  0  0  0  0  0  0  0  0
    2.3149   -0.8763    0.4690 C   0  0  0  0  0  0  0  0  0  0  0  0
    3.2075   -1.6633   -0.5265 C   0  0  0  0  0  0  0  0  0  0  0  0
    3.9146   -0.9763   -1.5438 C   0  0  0  0  0  0  0  0  0  0  0  0
    4.6912   -1.6722   -2.4794 C   0  0  0  0  0  0  0  0  0  0  0  0
    4.8317   -3.0628   -2.3920 C   0  0  0  0  0  0  0  0  0  0  0  0
    5.6063   -3.8168   -3.4451 C   0  0  0  0  0  0  0  0  0  0  0  0
    4.6986   -4.1693   -4.6173 C   0  0  0  0  0  0  0  0  0  0  0  0
    4.1968   -3.7531   -1.3555 C   0  0  0  0  0  0  0  0  0  0  0  0
    3.4216   -3.0608   -0.4210 C   0  0  0  0  0  0  0  0  0  0  0  0
    3.1733   -0.3244    1.6254 C   0  0  0  0  0  0  0  0  0  0  0  0
    4.1745   -1.1504    2.1929 C   0  0  0  0  0  0  0  0  0  0  0  0
    5.0975   -0.6460    3.1159 C   0  0  0  0  0  0  0  0  0  0  0  0
    5.0192    0.6945    3.5091 C   0  0  0  0  0  0  0  0  0  0  0  0
    6.1012    1.2805    4.3782 C   0  0  0  0  0  0  0  0  0  0  0  0
    7.4040    1.4615    3.5973 C   0  0  0  0  0  0  0  0  0  0  0  0
    3.9386    1.4840    3.0628 C   0  0  0  0  0  0  0  0  0  0  0  0
    3.0035    0.9693    2.1567 C   0  0  0  0  0  0  0  0  0  0  0  0
    1.1354   -1.6897    0.9861 C   0  0  0  0  0  0  0  0  0  0  0  0
    0.1877   -1.7032    0.0084 C   0  0  0  0  0  0  0  0  0  0  0  0
    0.2756   -0.4832   -0.7523 C   0  0  0  0  0  0  0  0  0  0  0  0
   -0.7881    0.2668   -1.2697 C   0  0  0  0  0  0  0  0  0  0  0  0
   -0.5930    1.6560   -1.4080 C   0  0  0  0  0  0  0  0  0  0  0  0
   -1.6073    2.7308   -1.8292 C   0  0  0  0  0  0  0  0  0  0  0  0
   -2.6238    3.0750   -0.7140 C   0  0  0  0  0  0  0  0  0  0  0  0
   -3.1220    2.1000    0.1681 C   0  0  0  0  0  0  0  0  0  0  0  0
   -4.0055    2.4367    1.2045 C   0  0  0  0  0  0  0  0  0  0  0  0
   -4.4314    3.7573    1.3709 C   0  0  0  0  0  0  0  0  0  0  0  0
   -5.3545    4.1150    2.5032 C   0  0  0  0  0  0  0  0  0  0  0  0
   -6.8163    3.9513    2.0848 C   0  0  0  0  0  0  0  0  0  0  0  0
   -4.0225    4.7249    0.4462 C   0  0  0  0  0  0  0  0  0  0  0  0
   -3.1431    4.3868   -0.5866 C   0  0  0  0  0  0  0  0  0  0  0  0
   -2.2392    2.3861   -3.1788 C   0  0  0  0  0  0  0  0  0  0  0  0
   -1.4091    2.1008   -4.2793 C   0  0  0  0  0  0  0  0  0  0  0  0
   -1.9477    1.8673   -5.5439 C   0  0  0  0  0  0  0  0  0  0  0  0
   -3.3313    1.9162   -5.7498 C   0  0  0  0  0  0  0  0  0  0  0  0
   -3.9051    1.6110   -7.1013 C   0  0  0  0  0  0  0  0  0  0  0  0
   -4.0008    0.1046   -7.3181 C   0  0  0  0  0  0  0  0  0  0  0  0
   -4.1707    2.2054   -4.6684 C   0  0  0  0  0  0  0  0  0  0  0  0
   -3.6312    2.4385   -3.3950 C   0  0  0  0  0  0  0  0  0  0  0  0
   -0.6452    3.8926   -1.9872 C   0  0  0  0  0  0  0  0  0  0  0  0
   -0.6663    5.0107   -2.8129 C   0  0  0  0  0  0  0  0  0  0  0  0
   -1.7782    5.5860   -3.9190 S   0  0  0  0  0  0  0  0  0  0  0  0
   -0.4014   -3.2741   -0.2258 S   0  0  0  0  0  0  0  0  0  0  0  0
    0.5340   -3.9007    1.0662 C   0  0  0  0  0  0  0  0  0  0  0  0
    0.2075   -4.9447    2.0180 C   0  0  0  0  0  0  0  0  0  0  0  0
    0.4145   -4.4087    3.2634 C   0  0  0  0  0  0  0  0  0  0  0  0
    0.5058   -2.9013    3.2010 C   0  0  0  0  0  0  0  0  0  0  0  0
    1.0847   -2.8378    1.7714 C   0  0  0  0  0  0  0  0  0  0  0  0
   -0.9730   -2.4066    3.3166 C   0  0  0  0  0  0  0  0  0  0  0  0
   -1.4597   -1.2808    2.6224 C   0  0  0  0  0  0  0  0  0  0  0  0
   -2.8352   -1.0398    2.5210 C   0  0  0  0  0  0  0  0  0  0  0  0
   -3.7518   -1.8400    3.2042 C   0  0  0  0  0  0  0  0  0  0  0  0
   -5.2319   -1.6087    3.0481 C   0  0  0  0  0  0  0  0  0  0  0  0
   -5.7700   -0.7147    4.1613 C   0  0  0  0  0  0  0  0  0  0  0  0
   -3.2722   -2.8388    4.0598 C   0  0  0  0  0  0  0  0  0  0  0  0
   -1.9005   -3.1017    4.1370 C   0  0  0  0  0  0  0  0  0  0  0  0
    1.4297   -2.2364    4.2346 C   0  0  0  0  0  0  0  0  0  0  0  0
    1.0619   -1.0151    4.8358 C   0  0  0  0  0  0  0  0  0  0  0  0
    1.8523   -0.4165    5.8078 C   0  0  0  0  0  0  0  0  0  0  0  0
    3.0904   -0.9722    6.1687 C   0  0  0  0  0  0  0  0  0  0  0  0
    3.9023   -0.3949    7.3103 C   0  0  0  0  0  0  0  0  0  0  0  0
    3.9313    1.1405    7.3251 C   0  0  0  0  0  0  0  0  0  0  0  0
    3.4895   -2.1710    5.5432 C   0  0  0  0  0  0  0  0  0  0  0  0
    2.6888   -2.7825    4.5642 C   0  0  0  0  0  0  0  0  0  0  0  0
    0.8243   -5.3025    4.2515 C   0  0  0  0  0  0  0  0  0  0  0  0
    1.0307   -6.5892    3.7485 C   0  0  0  0  0  0  0  0  0  0  0  0
    0.7391   -6.5417    2.0753 S   0  0  0  0  0  0  0  0  0  0  0  0
    1.8232   -7.6296    4.4223 C   0  0  0  0  0  0  0  0  0  0  0  0
    1.8410   -7.8039    5.7617 C   0  0  0  0  0  0  0  0  0  0  0  0
    0.9174   -7.1873    6.7197 C   0  0  0  0  0  0  0  0  0  0  0  0
   -0.2715   -6.8436    6.4821 O   0  0  0  0  0  0  0  0  0  0  0  0
    1.5719   -7.0778    7.9989 C   0  0  0  0  0  0  0  0  0  0  0  0
    1.1374   -6.4000    9.1320 C   0  0  0  0  0  0  0  0  0  0  0  0
    2.0011   -6.3087   10.2426 C   0  0  0  0  0  0  0  0  0  0  0  0
    1.5858   -5.5080   11.4509 C   0  0  0  0  0  0  0  0  0  0  0  0
    0.2330   -5.6800   11.7092 F   0  0  0  0  0  0  0  0  0  0  0  0
    1.8250   -4.1617   11.2217 F   0  0  0  0  0  0  0  0  0  0  0  0
    2.2889   -5.8947   12.5823 F   0  0  0  0  0  0  0  0  0  0  0  0
    3.3113   -6.8381   10.1428 C   0  0  0  0  0  0  0  0  0  0  0  0
    3.7255   -7.5181    8.9861 C   0  0  0  0  0  0  0  0  0  0  0  0
    2.8219   -7.6625    7.9189 C   0  0  0  0  0  0  0  0  0  0  0  0
    3.0059   -8.2669    6.5708 C   0  0  0  0  0  0  0  0  0  0  0  0
    3.9333   -9.1885    6.2113 C   0  0  0  0  0  0  0  0  0  0  0  0
    4.9436   -9.6696    7.1354 C   0  0  0  0  0  0  0  0  0  0  0  0
    5.7494  -10.0702    7.8569 N   0  0  0  0  0  0  0  0  0  0  0  0
    3.8960   -9.8707    4.9410 C   0  0  0  0  0  0  0  0  0  0  0  0
    3.8764  -10.4298    3.9245 N   0  0  0  0  0  0  0  0  0  0  0  0
   -1.7858    7.7676   -6.0982 H   0  0  0  0  0  0  0  0  0  0  0  0
    1.0976    2.6874   -8.1535 H   0  0  0  0  0  0  0  0  0  0  0  0
    1.0462    0.8128   -9.7616 H   0  0  0  0  0  0  0  0  0  0  0  0
   -2.5918    3.0934  -12.3165 H   0  0  0  0  0  0  0  0  0  0  0  0
   -2.4800    4.9948  -10.7696 H   0  0  0  0  0  0  0  0  0  0  0  0
    1.5257    6.8390   -4.5558 H   0  0  0  0  0  0  0  0  0  0  0  0
    2.7000    1.9355   -0.4622 H   0  0  0  0  0  0  0  0  0  0  0  0
    3.8537    0.0969   -1.6364 H   0  0  0  0  0  0  0  0  0  0  0  0
    5.1773   -1.1320   -3.2822 H   0  0  0  0  0  0  0  0  0  0  0  0
    6.0346   -4.7553   -3.0173 H   0  0  0  0  0  0  0  0  0  0  0  0
    6.4580   -3.2010   -3.8160 H   0  0  0  0  0  0  0  0  0  0  0  0
    3.8030   -4.7168   -4.2486 H   0  0  0  0  0  0  0  0  0  0  0  0
    4.3783   -3.2430   -5.1336 H   0  0  0  0  0  0  0  0  0  0  0  0
    5.2460   -4.8045   -5.3447 H   0  0  0  0  0  0  0  0  0  0  0  0
    4.3045   -4.8312   -1.2717 H   0  0  0  0  0  0  0  0  0  0  0  0
    3.0207   -3.6442    0.3941 H   0  0  0  0  0  0  0  0  0  0  0  0
    4.2588   -2.1933    1.9151 H   0  0  0  0  0  0  0  0  0  0  0  0
    5.8740   -1.3022    3.5051 H   0  0  0  0  0  0  0  0  0  0  0  0
    5.7942    2.2774    4.7689 H   0  0  0  0  0  0  0  0  0  0  0  0
    6.2788    0.6148    5.2598 H   0  0  0  0  0  0  0  0  0  0  0  0
    8.1443    1.9841    4.2310 H   0  0  0  0  0  0  0  0  0  0  0  0
    7.2240    2.0867    2.6917 H   0  0  0  0  0  0  0  0  0  0  0  0
    7.8149    0.4793    3.2832 H   0  0  0  0  0  0  0  0  0  0  0  0
    3.8224    2.4905    3.4290 H   0  0  0  0  0  0  0  0  0  0  0  0
    2.1690    1.5933    1.8711 H   0  0  0  0  0  0  0  0  0  0  0  0
   -1.7552   -0.1958   -1.4313 H   0  0  0  0  0  0  0  0  0  0  0  0
   -2.8320    1.0737    0.0826 H   0  0  0  0  0  0  0  0  0  0  0  0
   -4.3635    1.6742    1.8849 H   0  0  0  0  0  0  0  0  0  0  0  0
   -5.1511    3.4551    3.3807 H   0  0  0  0  0  0  0  0  0  0  0  0
   -5.1804    5.1606    2.8339 H   0  0  0  0  0  0  0  0  0  0  0  0
   -7.4776    4.1636    2.9517 H   0  0  0  0  0  0  0  0  0  0  0  0
   -7.0052    2.9082    1.7424 H   0  0  0  0  0  0  0  0  0  0  0  0
   -7.0619    4.6571    1.2626 H   0  0  0  0  0  0  0  0  0  0  0  0
   -4.3759    5.7474    0.5352 H   0  0  0  0  0  0  0  0  0  0  0  0
   -2.8602    5.1670   -1.2692 H   0  0  0  0  0  0  0  0  0  0  0  0
   -0.3285    2.0734   -4.1643 H   0  0  0  0  0  0  0  0  0  0  0  0
   -1.2807    1.6413   -6.3655 H   0  0  0  0  0  0  0  0  0  0  0  0
   -4.9279    2.0592   -7.1908 H   0  0  0  0  0  0  0  0  0  0  0  0
   -3.2676    2.0609   -7.8966 H   0  0  0  0  0  0  0  0  0  0  0  0
   -4.4687   -0.0941   -8.3004 H   0  0  0  0  0  0  0  0  0  0  0  0
   -4.6193   -0.3631   -6.5268 H   0  0  0  0  0  0  0  0  0  0  0  0
   -2.9871   -0.3493   -7.3057 H   0  0  0  0  0  0  0  0  0  0  0  0
   -5.2492    2.2356   -4.7903 H   0  0  0  0  0  0  0  0  0  0  0  0
   -4.3185    2.6524   -2.5860 H   0  0  0  0  0  0  0  0  0  0  0  0
   -0.7947   -0.5843    2.1341 H   0  0  0  0  0  0  0  0  0  0  0  0
   -3.1814   -0.2398    1.8904 H   0  0  0  0  0  0  0  0  0  0  0  0
   -5.7565   -2.5867    3.0652 H   0  0  0  0  0  0  0  0  0  0  0  0
   -5.4472   -1.1522    2.0546 H   0  0  0  0  0  0  0  0  0  0  0  0
   -6.8792   -0.6754    4.1000 H   0  0  0  0  0  0  0  0  0  0  0  0
   -5.4950   -1.1363    5.1545 H   0  0  0  0  0  0  0  0  0  0  0  0
   -5.3527    0.3141    4.0539 H   0  0  0  0  0  0  0  0  0  0  0  0
   -3.9646   -3.4354    4.6404 H   0  0  0  0  0  0  0  0  0  0  0  0
   -1.5730   -3.8907    4.8040 H   0  0  0  0  0  0  0  0  0  0  0  0
    0.1406   -0.5142    4.5939 H   0  0  0  0  0  0  0  0  0  0  0  0
    1.4834    0.4866    6.2779 H   0  0  0  0  0  0  0  0  0  0  0  0
    3.4583   -0.7464    8.2711 H   0  0  0  0  0  0  0  0  0  0  0  0
    4.9597   -0.7628    7.2687 H   0  0  0  0  0  0  0  0  0  0  0  0
    2.9244    1.5663    7.5367 H   0  0  0  0  0  0  0  0  0  0  0  0
    4.2778    1.5371    6.3530 H   0  0  0  0  0  0  0  0  0  0  0  0
    4.6141    1.5023    8.1263 H   0  0  0  0  0  0  0  0  0  0  0  0
    4.4376   -2.6328    5.7921 H   0  0  0  0  0  0  0  0  0  0  0  0
    3.0383   -3.6843    4.0797 H   0  0  0  0  0  0  0  0  0  0  0  0
    1.1388   -4.9876    5.2336 H   0  0  0  0  0  0  0  0  0  0  0  0
    2.5774   -8.0749    3.7978 H   0  0  0  0  0  0  0  0  0  0  0  0
    0.1596   -5.9376    9.1488 H   0  0  0  0  0  0  0  0  0  0  0  0
    4.0190   -6.7083   10.9485 H   0  0  0  0  0  0  0  0  0  0  0  0
    4.7439   -7.8703    8.9234 H   0  0  0  0  0  0  0  0  0  0  0  0
  1  2  2  3
  2  3  1  0
  3  4  2  0
  3  5  1  0
  5  6  2  0
  6  7  1  0
  7  8  2  0
  8  9  1  0
  9 10  1  0
  9 11  2  0
 11 12  1  0
 11 13  1  0
 13 14  2  0
 14 15  1  0
 15 16  2  0
 16 17  1  0
 17 18  2  3
 18 19  1  0
 19 20  3  0
 18 21  1  0
 21 22  3  0
  1 23  1  0
 23 24  2  0
 24 25  1  0
 25 26  1  0
 26 27  1  0
 27 28  1  0
 28 29  2  0
 29 30  1  0
 30 31  1  0
 31 32  1  0
 32 33  2  0
 33 34  1  0
 34 35  2  0
 35 36  1  0
 36 37  1  0
 35 38  1  0
 38 39  2  0
 31 40  1  0
 40 41  2  0
 41 42  1  0
 42 43  2  0
 43 44  1  0
 44 45  1  0
 43 46  1  0
 46 47  2  0
 31 48  1  0
 48 49  2  0
 49 50  1  0
 50 51  1  0
 51 52  2  0
 52 53  1  0
 53 54  1  0
 54 55  2  0
 55 56  1  0
 56 57  2  0
 57 58  1  0
 58 59  1  0
 57 60  1  0
 60 61  2  0
 53 62  1  0
 62 63  2  0
 63 64  1  0
 64 65  2  0
 65 66  1  0
 66 67  1  0
 65 68  1  0
 68 69  2  0
 53 70  1  0
 70 71  1  0
 71 72  1  0
 49 73  1  0
 73 74  1  0
 74 75  1  0
 75 76  2  0
 76 77  1  0
 77 78  1  0
 77 79  1  0
 79 80  2  0
 80 81  1  0
 81 82  2  0
 82 83  1  0
 83 84  1  0
 82 85  1  0
 85 86  2  0
 77 87  1  0
 87 88  2  0
 88 89  1  0
 89 90  2  0
 90 91  1  0
 91 92  1  0
 90 93  1  0
 93 94  2  0
 76 95  1  0
 95 96  2  0
 96 97  1  0
 96 98  1  0
 98 99  2  3
 99100  1  0
100101  2  0
100102  1  0
102103  2  0
103104  1  0
104105  1  0
105106  1  0
105107  1  0
105108  1  0
104109  2  0
109110  1  0
110111  2  0
111112  1  0
112113  2  3
113114  1  0
114115  3  0
113116  1  0
116117  3  0
 17  2  1  0
 72 23  1  0
 78 74  2  0
 86 79  1  0
 94 87  1  0
112 99  1  0
 16  5  1  0
 71 25  2  0
 97 75  1  0
111102  1  0
 14  7  1  0
 70 27  2  0
 52 28  1  0
 61 54  1  0
 69 62  1  0
 50 30  2  0
 39 32  1  0
 47 40  1  0
 78 48  1  0
  1118  1  0
  6119  1  0
  8120  1  0
 13121  1  0
 15122  1  0
 24123  1  0
 29124  1  0
 33125  1  0
 34126  1  0
 36127  1  0
 36128  1  0
 37129  1  0
 37130  1  0
 37131  1  0
 38132  1  0
 39133  1  0
 41134  1  0
 42135  1  0
 44136  1  0
 44137  1  0
 45138  1  0
 45139  1  0
 45140  1  0
 46141  1  0
 47142  1  0
 51143  1  0
 55144  1  0
 56145  1  0
 58146  1  0
 58147  1  0
 59148  1  0
 59149  1  0
 59150  1  0
 60151  1  0
 61152  1  0
 63153  1  0
 64154  1  0
 66155  1  0
 66156  1  0
 67157  1  0
 67158  1  0
 67159  1  0
 68160  1  0
 69161  1  0
 80162  1  0
 81163  1  0
 83164  1  0
 83165  1  0
 84166  1  0
 84167  1  0
 84168  1  0
 85169  1  0
 86170  1  0
 88171  1  0
 89172  1  0
 91173  1  0
 91174  1  0
 92175  1  0
 92176  1  0
 92177  1  0
 93178  1  0
 94179  1  0
 95180  1  0
 98181  1  0
103182  1  0
109183  1  0
110184  1  0
M  END

