
     RDKit          3D

123139  0  0  0  0  0  0  0  0999 V2000
    6.1674    5.1718   -2.6822 C   0  0  0  0  0  0  0  0  0  0  0  0
    7.3124    4.8107   -3.2966 C   0  0  0  0  0  0  0  0  0  0  0  0
    7.6241    3.4795   -3.8245 C   0  0  0  0  0  0  0  0  0  0  0  0
    7.0997    2.3887   -3.4719 O   0  0  0  0  0  0  0  0  0  0  0  0
    8.7014    3.6115   -4.7774 C   0  0  0  0  0  0  0  0  0  0  0  0
    9.2034    2.6365   -5.6352 C   0  0  0  0  0  0  0  0  0  0  0  0
   10.1785    3.0085   -6.5752 C   0  0  0  0  0  0  0  0  0  0  0  0
   10.6922    2.0648   -7.4797 C   0  0  0  0  0  0  0  0  0  0  0  0
   11.6374    2.4500   -8.4345 C   0  0  0  0  0  0  0  0  0  0  0  0
   12.1222    1.5353   -9.3093 F   0  0  0  0  0  0  0  0  0  0  0  0
   12.0790    3.7775   -8.4964 C   0  0  0  0  0  0  0  0  0  0  0  0
   12.9932    4.1475   -9.4278 F   0  0  0  0  0  0  0  0  0  0  0  0
   11.5777    4.7287   -7.6004 C   0  0  0  0  0  0  0  0  0  0  0  0
   10.6261    4.3615   -6.6366 C   0  0  0  0  0  0  0  0  0  0  0  0
   10.0981    5.3213   -5.7502 C   0  0  0  0  0  0  0  0  0  0  0  0
    9.1421    4.9237   -4.8017 C   0  0  0  0  0  0  0  0  0  0  0  0
    8.3964    5.7195   -3.7864 C   0  0  0  0  0  0  0  0  0  0  0  0
    8.7668    6.9176   -3.2599 C   0  0  0  0  0  0  0  0  0  0  0  0
    8.1251    7.4873   -2.1026 C   0  0  0  0  0  0  0  0  0  0  0  0
    7.6184    7.9559   -1.1726 N   0  0  0  0  0  0  0  0  0  0  0  0
    9.9149    7.6485   -3.7297 C   0  0  0  0  0  0  0  0  0  0  0  0
   10.8385    8.2436   -4.0970 N   0  0  0  0  0  0  0  0  0  0  0  0
    5.0233    4.2730   -2.4622 C   0  0  0  0  0  0  0  0  0  0  0  0
    4.4275    3.4498   -3.4343 C   0  0  0  0  0  0  0  0  0  0  0  0
    3.2743    2.8579   -2.9344 C   0  0  0  0  0  0  0  0  0  0  0  0
    2.0977    1.8225   -3.6018 S   0  0  0  0  0  0  0  0  0  0  0  0
    1.1775    1.8735   -2.1715 C   0  0  0  0  0  0  0  0  0  0  0  0
   -0.0242    1.3360   -1.7408 C   0  0  0  0  0  0  0  0  0  0  0  0
   -1.0879    0.4169   -2.3044 C   0  0  0  0  0  0  0  0  0  0  0  0
   -0.6002   -1.0200   -2.5298 C   0  0  0  0  0  0  0  0  0  0  0  0
    0.5660   -1.5194   -1.9053 C   0  0  0  0  0  0  0  0  0  0  0  0
    0.9389   -2.8585   -2.0543 C   0  0  0  0  0  0  0  0  0  0  0  0
    0.1501   -3.7244   -2.8112 C   0  0  0  0  0  0  0  0  0  0  0  0
   -1.0188   -3.2584   -3.4124 C   0  0  0  0  0  0  0  0  0  0  0  0
   -1.3954   -1.9204   -3.2699 C   0  0  0  0  0  0  0  0  0  0  0  0
   -1.6732    1.0612   -3.5651 C   0  0  0  0  0  0  0  0  0  0  0  0
   -1.0293    0.8795   -4.8073 C   0  0  0  0  0  0  0  0  0  0  0  0
   -1.5085    1.5077   -5.9593 C   0  0  0  0  0  0  0  0  0  0  0  0
   -2.6291    2.3365   -5.8892 C   0  0  0  0  0  0  0  0  0  0  0  0
   -3.2634    2.5521   -4.6656 C   0  0  0  0  0  0  0  0  0  0  0  0
   -2.7843    1.9339   -3.5085 C   0  0  0  0  0  0  0  0  0  0  0  0
   -2.0493    0.4134   -1.1089 C   0  0  0  0  0  0  0  0  0  0  0  0
   -1.5532    1.1803   -0.0492 C   0  0  0  0  0  0  0  0  0  0  0  0
   -0.3070    1.7411   -0.4700 C   0  0  0  0  0  0  0  0  0  0  0  0
    0.8634    2.7703    0.2084 S   0  0  0  0  0  0  0  0  0  0  0  0
    1.7716    2.6711   -1.2186 C   0  0  0  0  0  0  0  0  0  0  0  0
    2.9554    3.2209   -1.6573 C   0  0  0  0  0  0  0  0  0  0  0  0
    4.0746    4.3018   -1.0437 S   0  0  0  0  0  0  0  0  0  0  0  0
   -2.1656    1.2366    1.1998 C   0  0  0  0  0  0  0  0  0  0  0  0
   -3.3495    0.5015    1.3619 C   0  0  0  0  0  0  0  0  0  0  0  0
   -4.0927    0.2332    2.6674 C   0  0  0  0  0  0  0  0  0  0  0  0
   -3.1873   -0.4134    3.7264 C   0  0  0  0  0  0  0  0  0  0  0  0
   -2.1631   -1.3118    3.3507 C   0  0  0  0  0  0  0  0  0  0  0  0
   -1.3742   -1.9415    4.3175 C   0  0  0  0  0  0  0  0  0  0  0  0
   -1.6159   -1.7185    5.6737 C   0  0  0  0  0  0  0  0  0  0  0  0
   -2.6553   -0.8740    6.0677 C   0  0  0  0  0  0  0  0  0  0  0  0
   -3.4404   -0.2335    5.1060 C   0  0  0  0  0  0  0  0  0  0  0  0
   -4.7551    1.5403    3.1298 C   0  0  0  0  0  0  0  0  0  0  0  0
   -3.9615    2.5636    3.6936 C   0  0  0  0  0  0  0  0  0  0  0  0
   -4.5275    3.7820    4.0783 C   0  0  0  0  0  0  0  0  0  0  0  0
   -5.8919    4.0075    3.9047 C   0  0  0  0  0  0  0  0  0  0  0  0
   -6.6977    3.0081    3.3504 C   0  0  0  0  0  0  0  0  0  0  0  0
   -6.1378    1.7899    2.9538 C   0  0  0  0  0  0  0  0  0  0  0  0
   -5.0823   -0.7926    2.1566 C   0  0  0  0  0  0  0  0  0  0  0  0
   -4.9875   -1.0009    0.8043 C   0  0  0  0  0  0  0  0  0  0  0  0
   -3.8784   -0.2353    0.2938 C   0  0  0  0  0  0  0  0  0  0  0  0
   -3.2438   -0.3115   -0.9526 C   0  0  0  0  0  0  0  0  0  0  0  0
   -5.7214   -2.4621    0.3286 S   0  0  0  0  0  0  0  0  0  0  0  0
   -6.2406   -2.7812    1.9123 C   0  0  0  0  0  0  0  0  0  0  0  0
   -6.7501   -3.9254    2.5258 C   0  0  0  0  0  0  0  0  0  0  0  0
   -6.6110   -3.8364    3.9158 C   0  0  0  0  0  0  0  0  0  0  0  0
   -5.9220   -2.3439    4.3521 S   0  0  0  0  0  0  0  0  0  0  0  0
   -5.7884   -1.8173    2.7716 C   0  0  0  0  0  0  0  0  0  0  0  0
   -6.9168   -4.8960    4.8842 C   0  0  0  0  0  0  0  0  0  0  0  0
   -6.0188   -5.3129    5.7923 C   0  0  0  0  0  0  0  0  0  0  0  0
   -6.3896   -5.6922    7.1548 C   0  0  0  0  0  0  0  0  0  0  0  0
   -7.5463   -6.0059    7.5495 O   0  0  0  0  0  0  0  0  0  0  0  0
   -5.2274   -5.5008    8.0042 C   0  0  0  0  0  0  0  0  0  0  0  0
   -5.1408   -5.5808    9.3953 C   0  0  0  0  0  0  0  0  0  0  0  0
   -6.2118   -5.9448   10.1483 F   0  0  0  0  0  0  0  0  0  0  0  0
   -3.9226   -5.2475   10.0103 C   0  0  0  0  0  0  0  0  0  0  0  0
   -2.8258   -4.8278    9.2360 C   0  0  0  0  0  0  0  0  0  0  0  0
   -2.9346   -4.7400    7.8395 C   0  0  0  0  0  0  0  0  0  0  0  0
   -4.1476   -5.1001    7.2288 C   0  0  0  0  0  0  0  0  0  0  0  0
   -4.5429   -5.0886    5.7970 C   0  0  0  0  0  0  0  0  0  0  0  0
   -3.7132   -5.2674    4.7406 C   0  0  0  0  0  0  0  0  0  0  0  0
   -4.1965   -5.7099    3.4579 C   0  0  0  0  0  0  0  0  0  0  0  0
   -4.5599   -6.0804    2.4236 N   0  0  0  0  0  0  0  0  0  0  0  0
   -2.2777   -5.2337    4.8634 C   0  0  0  0  0  0  0  0  0  0  0  0
   -1.1196   -5.2141    4.9376 N   0  0  0  0  0  0  0  0  0  0  0  0
    6.0073    6.1909   -2.3778 H   0  0  0  0  0  0  0  0  0  0  0  0
    8.8269    1.6216   -5.5890 H   0  0  0  0  0  0  0  0  0  0  0  0
   10.3532    1.0377   -7.4537 H   0  0  0  0  0  0  0  0  0  0  0  0
   11.9298    5.7528   -7.6650 H   0  0  0  0  0  0  0  0  0  0  0  0
   10.4056    6.3478   -5.8454 H   0  0  0  0  0  0  0  0  0  0  0  0
    4.7814    3.3277   -4.4504 H   0  0  0  0  0  0  0  0  0  0  0  0
    1.1894   -0.8877   -1.2842 H   0  0  0  0  0  0  0  0  0  0  0  0
    1.8365   -3.2272   -1.5741 H   0  0  0  0  0  0  0  0  0  0  0  0
    0.4353   -4.7618   -2.9197 H   0  0  0  0  0  0  0  0  0  0  0  0
   -1.6382   -3.9352   -3.9863 H   0  0  0  0  0  0  0  0  0  0  0  0
   -2.3171   -1.5889   -3.7336 H   0  0  0  0  0  0  0  0  0  0  0  0
   -0.1503    0.2552   -4.8872 H   0  0  0  0  0  0  0  0  0  0  0  0
   -1.0100    1.3522   -6.9088 H   0  0  0  0  0  0  0  0  0  0  0  0
   -2.9991    2.8216   -6.7841 H   0  0  0  0  0  0  0  0  0  0  0  0
   -4.1192    3.2091   -4.6114 H   0  0  0  0  0  0  0  0  0  0  0  0
   -3.2836    2.1457   -2.5718 H   0  0  0  0  0  0  0  0  0  0  0  0
   -1.7003    1.7630    2.0207 H   0  0  0  0  0  0  0  0  0  0  0  0
   -1.9797   -1.5432    2.3078 H   0  0  0  0  0  0  0  0  0  0  0  0
   -0.5810   -2.6140    4.0134 H   0  0  0  0  0  0  0  0  0  0  0  0
   -1.0077   -2.2152    6.4167 H   0  0  0  0  0  0  0  0  0  0  0  0
   -2.8623   -0.7285    7.1205 H   0  0  0  0  0  0  0  0  0  0  0  0
   -4.2616    0.3881    5.4450 H   0  0  0  0  0  0  0  0  0  0  0  0
   -2.9019    2.4111    3.8562 H   0  0  0  0  0  0  0  0  0  0  0  0
   -3.9033    4.5544    4.5113 H   0  0  0  0  0  0  0  0  0  0  0  0
   -6.3253    4.9501    4.2095 H   0  0  0  0  0  0  0  0  0  0  0  0
   -7.7572    3.1866    3.2173 H   0  0  0  0  0  0  0  0  0  0  0  0
   -6.7964    1.0538    2.5126 H   0  0  0  0  0  0  0  0  0  0  0  0
   -3.6343   -0.9418   -1.7396 H   0  0  0  0  0  0  0  0  0  0  0  0
   -7.0805   -4.8088    1.9963 H   0  0  0  0  0  0  0  0  0  0  0  0
   -7.9629   -5.1317    5.0279 H   0  0  0  0  0  0  0  0  0  0  0  0
   -3.8329   -5.2979   11.0877 H   0  0  0  0  0  0  0  0  0  0  0  0
   -1.8981   -4.5539    9.7218 H   0  0  0  0  0  0  0  0  0  0  0  0
   -2.0950   -4.3696    7.2695 H   0  0  0  0  0  0  0  0  0  0  0  0
  1  2  2  3
  2  3  1  0
  3  4  2  0
  3  5  1  0
  5  6  2  0
  6  7  1  0
  7  8  2  0
  8  9  1  0
  9 10  1  0
  9 11  2  0
 11 12  1  0
 11 13  1  0
 13 14  2  0
 14 15  1  0
 15 16  2  0
 16 17  1  0
 17 18  2  3
 18 19  1  0
 19 20  3  0
 18 21  1  0
 21 22  3  0
  1 23  1  0
 23 24  2  0
 24 25  1  0
 25 26  1  0
 26 27  1  0
 27 28  1  0
 28 29  1  0
 29 30  1  0
 30 31  2  0
 31 32  1  0
 32 33  2  0
 33 34  1  0
 34 35  2  0
 29 36  1  0
 36 37  2  0
 37 38  1  0
 38 39  2  0
 39 40  1  0
 40 41  2  0
 29 42  1  0
 42 43  2  0
 43 44  1  0
 44 45  1  0
 45 46  1  0
 46 47  1  0
 47 48  1  0
 43 49  1  0
 49 50  2  0
 50 51  1  0
 51 52  1  0
 52 53  2  0
 53 54  1  0
 54 55  2  0
 55 56  1  0
 56 57  2  0
 51 58  1  0
 58 59  2  0
 59 60  1  0
 60 61  2  0
 61 62  1  0
 62 63  2  0
 51 64  1  0
 64 65  2  0
 65 66  1  0
 66 67  2  0
 65 68  1  0
 68 69  1  0
 69 70  1  0
 70 71  2  0
 71 72  1  0
 72 73  1  0
 71 74  1  0
 74 75  2  3
 75 76  1  0
 76 77  2  0
 76 78  1  0
 78 79  2  0
 79 80  1  0
 79 81  1  0
 81 82  2  0
 82 83  1  0
 83 84  2  0
 84 85  1  0
 85 86  2  3
 86 87  1  0
 87 88  3  0
 86 89  1  0
 89 90  3  0
 17  2  1  0
 48 23  1  0
 66 50  1  0
 73 69  2  0
 85 75  1  0
 16  5  1  0
 47 25  2  0
 57 52  1  0
 63 58  1  0
 73 64  1  0
 84 78  1  0
 14  7  1  0
 46 27  2  0
 44 28  2  0
 35 30  1  0
 41 36  1  0
 67 42  1  0
  1 91  1  0
  6 92  1  0
  8 93  1  0
 13 94  1  0
 15 95  1  0
 24 96  1  0
 31 97  1  0
 32 98  1  0
 33 99  1  0
 34100  1  0
 35101  1  0
 37102  1  0
 38103  1  0
 39104  1  0
 40105  1  0
 41106  1  0
 49107  1  0
 53108  1  0
 54109  1  0
 55110  1  0
 56111  1  0
 57112  1  0
 59113  1  0
 60114  1  0
 61115  1  0
 62116  1  0
 63117  1  0
 67118  1  0
 70119  1  0
 74120  1  0
 81121  1  0
 82122  1  0
 83123  1  0
M  END

