
     RDKit          3D

170187  0  0  0  0  0  0  0  0999 V2000
   -1.6432    5.9181   -5.8221 C   0  0  0  0  0  0  0  0  0  0  0  0
   -2.7401    5.6511   -6.5619 C   0  0  0  0  0  0  0  0  0  0  0  0
   -3.7589    4.6624   -6.2112 C   0  0  0  0  0  0  0  0  0  0  0  0
   -4.0572    4.2852   -5.0456 O   0  0  0  0  0  0  0  0  0  0  0  0
   -4.3869    4.1993   -7.4244 C   0  0  0  0  0  0  0  0  0  0  0  0
   -5.2907    3.1460   -7.5653 C   0  0  0  0  0  0  0  0  0  0  0  0
   -5.6430    2.7364   -8.8626 C   0  0  0  0  0  0  0  0  0  0  0  0
   -6.4965    1.6376   -9.0477 C   0  0  0  0  0  0  0  0  0  0  0  0
   -6.7938    1.1987  -10.3433 C   0  0  0  0  0  0  0  0  0  0  0  0
   -7.5954    0.1095  -10.5115 F   0  0  0  0  0  0  0  0  0  0  0  0
   -6.2489    1.8455  -11.4567 C   0  0  0  0  0  0  0  0  0  0  0  0
   -6.5147    1.3811  -12.7057 F   0  0  0  0  0  0  0  0  0  0  0  0
   -5.4094    2.9491  -11.2888 C   0  0  0  0  0  0  0  0  0  0  0  0
   -5.0961    3.4074   -9.9959 C   0  0  0  0  0  0  0  0  0  0  0  0
   -4.2021    4.4893   -9.8160 C   0  0  0  0  0  0  0  0  0  0  0  0
   -3.8731    4.8971   -8.5091 C   0  0  0  0  0  0  0  0  0  0  0  0
   -2.9242    5.9416   -8.0156 C   0  0  0  0  0  0  0  0  0  0  0  0
   -2.4690    7.0279   -8.6939 C   0  0  0  0  0  0  0  0  0  0  0  0
   -1.8432    8.1353   -8.0208 C   0  0  0  0  0  0  0  0  0  0  0  0
   -1.3674    9.0474   -7.4925 N   0  0  0  0  0  0  0  0  0  0  0  0
   -2.7804    7.2475  -10.0783 C   0  0  0  0  0  0  0  0  0  0  0  0
   -3.0197    7.4291  -11.2011 N   0  0  0  0  0  0  0  0  0  0  0  0
   -1.2143    5.0111   -4.7441 C   0  0  0  0  0  0  0  0  0  0  0  0
   -0.9932    3.3356   -4.9662 S   0  0  0  0  0  0  0  0  0  0  0  0
   -0.4635    3.1194   -3.3951 C   0  0  0  0  0  0  0  0  0  0  0  0
   -0.1185    2.0444   -2.5371 C   0  0  0  0  0  0  0  0  0  0  0  0
    0.0613    2.5000   -1.2593 C   0  0  0  0  0  0  0  0  0  0  0  0
   -0.0981    4.0353   -1.2184 C   0  0  0  0  0  0  0  0  0  0  0  0
   -0.4733    4.2724   -2.6845 C   0  0  0  0  0  0  0  0  0  0  0  0
   -0.8567    5.3883   -3.4433 C   0  0  0  0  0  0  0  0  0  0  0  0
    1.2715    4.6700   -0.9198 C   0  0  0  0  0  0  0  0  0  0  0  0
    2.3356    4.4696   -1.8254 C   0  0  0  0  0  0  0  0  0  0  0  0
    3.6138    4.9706   -1.5742 C   0  0  0  0  0  0  0  0  0  0  0  0
    3.8732    5.6733   -0.3970 C   0  0  0  0  0  0  0  0  0  0  0  0
    5.2499    6.2175   -0.1285 C   0  0  0  0  0  0  0  0  0  0  0  0
    5.4070    7.6178   -0.7147 C   0  0  0  0  0  0  0  0  0  0  0  0
    2.8296    5.8928    0.5149 C   0  0  0  0  0  0  0  0  0  0  0  0
    1.5482    5.3905    0.2649 C   0  0  0  0  0  0  0  0  0  0  0  0
   -1.2885    4.5242   -0.3742 C   0  0  0  0  0  0  0  0  0  0  0  0
   -2.3090    3.6457    0.0564 C   0  0  0  0  0  0  0  0  0  0  0  0
   -3.3807    4.1178    0.8190 C   0  0  0  0  0  0  0  0  0  0  0  0
   -3.5001    5.4836    1.1106 C   0  0  0  0  0  0  0  0  0  0  0  0
   -4.6114    5.9807    2.0023 C   0  0  0  0  0  0  0  0  0  0  0  0
   -4.0723    6.3510    3.3761 C   0  0  0  0  0  0  0  0  0  0  0  0
   -2.5528    6.3741    0.5954 C   0  0  0  0  0  0  0  0  0  0  0  0
   -1.4755    5.9045   -0.1634 C   0  0  0  0  0  0  0  0  0  0  0  0
    0.1836    1.4324   -0.3297 C   0  0  0  0  0  0  0  0  0  0  0  0
    0.1963    1.4783    1.0897 C   0  0  0  0  0  0  0  0  0  0  0  0
    0.4845    2.6878    1.8695 C   0  0  0  0  0  0  0  0  0  0  0  0
    1.7611    3.0139    2.3164 C   0  0  0  0  0  0  0  0  0  0  0  0
    1.7717    3.9552    3.3559 C   0  0  0  0  0  0  0  0  0  0  0  0
    0.4995    4.3599    3.7437 C   0  0  0  0  0  0  0  0  0  0  0  0
    0.1595    5.2593    4.8926 C   0  0  0  0  0  0  0  0  0  0  0  0
    0.9676    6.5585    4.8655 C   0  0  0  0  0  0  0  0  0  0  0  0
   -0.6253    3.4910    2.8475 S   0  0  0  0  0  0  0  0  0  0  0  0
    0.0970    0.2541    1.7708 C   0  0  0  0  0  0  0  0  0  0  0  0
   -0.1461    0.0052    3.4417 S   0  0  0  0  0  0  0  0  0  0  0  0
   -0.1342   -1.6711    3.2913 C   0  0  0  0  0  0  0  0  0  0  0  0
    0.1799   -2.7401    4.1921 C   0  0  0  0  0  0  0  0  0  0  0  0
    0.8053   -3.7296    3.5104 C   0  0  0  0  0  0  0  0  0  0  0  0
    1.1784   -3.2787    2.1103 C   0  0  0  0  0  0  0  0  0  0  0  0
    0.9144   -4.3411    1.0368 C   0  0  0  0  0  0  0  0  0  0  0  0
   -0.0730   -5.3346    1.1999 C   0  0  0  0  0  0  0  0  0  0  0  0
   -0.2213   -6.3438    0.2411 C   0  0  0  0  0  0  0  0  0  0  0  0
    0.6016   -6.3785   -0.9035 C   0  0  0  0  0  0  0  0  0  0  0  0
    0.3890   -7.4448   -1.9533 C   0  0  0  0  0  0  0  0  0  0  0  0
    1.6819   -8.1817   -2.3097 C   0  0  0  0  0  0  0  0  0  0  0  0
    1.5509   -5.3653   -1.0922 C   0  0  0  0  0  0  0  0  0  0  0  0
    1.7026   -4.3604   -0.1290 C   0  0  0  0  0  0  0  0  0  0  0  0
    2.6792   -2.9084    2.2258 C   0  0  0  0  0  0  0  0  0  0  0  0
    3.1321   -1.5976    2.4948 C   0  0  0  0  0  0  0  0  0  0  0  0
    4.4764   -1.3335    2.7971 C   0  0  0  0  0  0  0  0  0  0  0  0
    5.4130   -2.3734    2.8204 C   0  0  0  0  0  0  0  0  0  0  0  0
    6.8552   -2.0868    3.1473 C   0  0  0  0  0  0  0  0  0  0  0  0
    7.6063   -1.6180    1.9057 C   0  0  0  0  0  0  0  0  0  0  0  0
    4.9897   -3.6789    2.5395 C   0  0  0  0  0  0  0  0  0  0  0  0
    3.6447   -3.9413    2.2559 C   0  0  0  0  0  0  0  0  0  0  0  0
    0.2343   -2.0579    2.0190 C   0  0  0  0  0  0  0  0  0  0  0  0
    0.2027   -0.9814    1.1088 C   0  0  0  0  0  0  0  0  0  0  0  0
    0.0810   -1.0506   -0.2906 C   0  0  0  0  0  0  0  0  0  0  0  0
    0.0912    0.1768   -0.9852 C   0  0  0  0  0  0  0  0  0  0  0  0
   -0.1937    0.3885   -2.6476 S   0  0  0  0  0  0  0  0  0  0  0  0
   -0.5012   -2.2498   -0.9265 C   0  0  0  0  0  0  0  0  0  0  0  0
   -0.1606   -2.7890   -2.1663 C   0  0  0  0  0  0  0  0  0  0  0  0
   -1.0641   -3.7615   -2.6161 C   0  0  0  0  0  0  0  0  0  0  0  0
   -2.1228   -3.9889   -1.7435 C   0  0  0  0  0  0  0  0  0  0  0  0
   -3.3430   -4.8167   -2.0168 C   0  0  0  0  0  0  0  0  0  0  0  0
   -2.9923   -6.2478   -2.4007 C   0  0  0  0  0  0  0  0  0  0  0  0
   -1.9519   -2.9543   -0.4319 S   0  0  0  0  0  0  0  0  0  0  0  0
    1.2029   -4.8004    4.3072 C   0  0  0  0  0  0  0  0  0  0  0  0
    0.8117   -4.6217    5.6378 C   0  0  0  0  0  0  0  0  0  0  0  0
    0.0755   -3.0859    5.8281 S   0  0  0  0  0  0  0  0  0  0  0  0
    1.2193   -5.5472    6.7108 C   0  0  0  0  0  0  0  0  0  0  0  0
    0.5341   -5.7976    7.8403 C   0  0  0  0  0  0  0  0  0  0  0  0
   -0.7207   -5.1823    8.2781 C   0  0  0  0  0  0  0  0  0  0  0  0
   -1.6347   -4.7398    7.5273 O   0  0  0  0  0  0  0  0  0  0  0  0
   -0.8351   -5.3398    9.7089 C   0  0  0  0  0  0  0  0  0  0  0  0
   -1.7597   -4.7646   10.5866 C   0  0  0  0  0  0  0  0  0  0  0  0
   -2.7856   -4.0048   10.1348 F   0  0  0  0  0  0  0  0  0  0  0  0
   -1.5854   -4.9775   11.9677 C   0  0  0  0  0  0  0  0  0  0  0  0
   -0.5002   -5.7452   12.4345 C   0  0  0  0  0  0  0  0  0  0  0  0
    0.4096   -6.3242   11.5336 C   0  0  0  0  0  0  0  0  0  0  0  0
    0.2116   -6.1315   10.1586 C   0  0  0  0  0  0  0  0  0  0  0  0
    1.0265   -6.5931    9.0040 C   0  0  0  0  0  0  0  0  0  0  0  0
    1.7970   -7.7176    8.9633 C   0  0  0  0  0  0  0  0  0  0  0  0
    1.9848   -8.5583   10.1161 C   0  0  0  0  0  0  0  0  0  0  0  0
    2.1272   -9.2368   11.0381 N   0  0  0  0  0  0  0  0  0  0  0  0
    2.3031   -8.2523    7.7222 C   0  0  0  0  0  0  0  0  0  0  0  0
    2.7047   -8.6896    6.7289 N   0  0  0  0  0  0  0  0  0  0  0  0
   -0.9074    6.6296   -6.1667 H   0  0  0  0  0  0  0  0  0  0  0  0
   -5.6834    2.6493   -6.6814 H   0  0  0  0  0  0  0  0  0  0  0  0
   -6.9266    1.1199   -8.1958 H   0  0  0  0  0  0  0  0  0  0  0  0
   -4.9853    3.4363  -12.1606 H   0  0  0  0  0  0  0  0  0  0  0  0
   -3.7439    4.9425  -10.6839 H   0  0  0  0  0  0  0  0  0  0  0  0
   -0.9143    6.4006   -3.0603 H   0  0  0  0  0  0  0  0  0  0  0  0
    2.1880    3.9142   -2.7421 H   0  0  0  0  0  0  0  0  0  0  0  0
    4.4014    4.7975   -2.2996 H   0  0  0  0  0  0  0  0  0  0  0  0
    6.0193    5.5440   -0.5778 H   0  0  0  0  0  0  0  0  0  0  0  0
    5.4461    6.2608    0.9688 H   0  0  0  0  0  0  0  0  0  0  0  0
    4.7058    8.3214   -0.2159 H   0  0  0  0  0  0  0  0  0  0  0  0
    5.2007    7.6152   -1.8065 H   0  0  0  0  0  0  0  0  0  0  0  0
    6.4423    7.9748   -0.5520 H   0  0  0  0  0  0  0  0  0  0  0  0
    3.0188    6.4327    1.4381 H   0  0  0  0  0  0  0  0  0  0  0  0
    0.7862    5.5473    1.0180 H   0  0  0  0  0  0  0  0  0  0  0  0
   -2.2823    2.5864   -0.1699 H   0  0  0  0  0  0  0  0  0  0  0  0
   -4.1180    3.4142    1.1934 H   0  0  0  0  0  0  0  0  0  0  0  0
   -5.0971    6.8631    1.5330 H   0  0  0  0  0  0  0  0  0  0  0  0
   -5.3908    5.1958    2.1237 H   0  0  0  0  0  0  0  0  0  0  0  0
   -3.2683    7.1138    3.2823 H   0  0  0  0  0  0  0  0  0  0  0  0
   -3.6655    5.4458    3.8826 H   0  0  0  0  0  0  0  0  0  0  0  0
   -4.8865    6.7833    4.0012 H   0  0  0  0  0  0  0  0  0  0  0  0
   -2.6419    7.4404    0.7813 H   0  0  0  0  0  0  0  0  0  0  0  0
   -0.7663    6.6240   -0.5704 H   0  0  0  0  0  0  0  0  0  0  0  0
    2.6607    2.5351    1.9590 H   0  0  0  0  0  0  0  0  0  0  0  0
    2.6777    4.2933    3.8400 H   0  0  0  0  0  0  0  0  0  0  0  0
    0.3469    4.7212    5.8517 H   0  0  0  0  0  0  0  0  0  0  0  0
   -0.9216    5.5272    4.8434 H   0  0  0  0  0  0  0  0  0  0  0  0
    0.8448    7.0645    3.8821 H   0  0  0  0  0  0  0  0  0  0  0  0
    0.6040    7.2373    5.6595 H   0  0  0  0  0  0  0  0  0  0  0  0
    2.0466    6.3565    5.0335 H   0  0  0  0  0  0  0  0  0  0  0  0
   -0.7278   -5.3448    2.0601 H   0  0  0  0  0  0  0  0  0  0  0  0
   -0.9907   -7.0948    0.3858 H   0  0  0  0  0  0  0  0  0  0  0  0
   -0.0275   -6.9732   -2.8698 H   0  0  0  0  0  0  0  0  0  0  0  0
   -0.3481   -8.1987   -1.5978 H   0  0  0  0  0  0  0  0  0  0  0  0
    1.4405   -9.0187   -2.9981 H   0  0  0  0  0  0  0  0  0  0  0  0
    2.3930   -7.4976   -2.8303 H   0  0  0  0  0  0  0  0  0  0  0  0
    2.1559   -8.5895   -1.3914 H   0  0  0  0  0  0  0  0  0  0  0  0
    2.1732   -5.3258   -1.9814 H   0  0  0  0  0  0  0  0  0  0  0  0
    2.4345   -3.5811   -0.3109 H   0  0  0  0  0  0  0  0  0  0  0  0
    2.4580   -0.7581    2.5306 H   0  0  0  0  0  0  0  0  0  0  0  0
    4.7782   -0.3147    3.0239 H   0  0  0  0  0  0  0  0  0  0  0  0
    6.9220   -1.3027    3.9354 H   0  0  0  0  0  0  0  0  0  0  0  0
    7.3518   -2.9979    3.5454 H   0  0  0  0  0  0  0  0  0  0  0  0
    7.5566   -2.3928    1.1115 H   0  0  0  0  0  0  0  0  0  0  0  0
    8.6788   -1.4384    2.1608 H   0  0  0  0  0  0  0  0  0  0  0  0
    7.1697   -0.6704    1.5237 H   0  0  0  0  0  0  0  0  0  0  0  0
    5.7016   -4.4977    2.5522 H   0  0  0  0  0  0  0  0  0  0  0  0
    3.3465   -4.9751    2.1013 H   0  0  0  0  0  0  0  0  0  0  0  0
    0.6993   -2.4712   -2.7374 H   0  0  0  0  0  0  0  0  0  0  0  0
   -0.9647   -4.2533   -3.5761 H   0  0  0  0  0  0  0  0  0  0  0  0
   -3.9821   -4.8557   -1.1018 H   0  0  0  0  0  0  0  0  0  0  0  0
   -3.9342   -4.3389   -2.8302 H   0  0  0  0  0  0  0  0  0  0  0  0
   -2.3571   -6.2606   -3.3129 H   0  0  0  0  0  0  0  0  0  0  0  0
   -2.4800   -6.7585   -1.5674 H   0  0  0  0  0  0  0  0  0  0  0  0
   -3.9275   -6.8126   -2.6203 H   0  0  0  0  0  0  0  0  0  0  0  0
    1.7771   -5.6411    3.9515 H   0  0  0  0  0  0  0  0  0  0  0  0
    2.1717   -6.0338    6.5451 H   0  0  0  0  0  0  0  0  0  0  0  0
   -2.2679   -4.5270   12.6761 H   0  0  0  0  0  0  0  0  0  0  0  0
   -0.3572   -5.8703   13.5015 H   0  0  0  0  0  0  0  0  0  0  0  0
    1.2679   -6.8599   11.9141 H   0  0  0  0  0  0  0  0  0  0  0  0
  1  2  2  3
  2  3  1  0
  3  4  2  0
  3  5  1  0
  5  6  2  0
  6  7  1  0
  7  8  2  0
  8  9  1  0
  9 10  1  0
  9 11  2  0
 11 12  1  0
 11 13  1  0
 13 14  2  0
 14 15  1  0
 15 16  2  0
 16 17  1  0
 17 18  2  3
 18 19  1  0
 19 20  3  0
 18 21  1  0
 21 22  3  0
  1 23  1  0
 23 24  1  0
 24 25  1  0
 25 26  1  0
 26 27  2  0
 27 28  1  0
 28 29  1  0
 29 30  1  0
 28 31  1  0
 31 32  2  0
 32 33  1  0
 33 34  2  0
 34 35  1  0
 35 36  1  0
 34 37  1  0
 37 38  2  0
 28 39  1  0
 39 40  2  0
 40 41  1  0
 41 42  2  0
 42 43  1  0
 43 44  1  0
 42 45  1  0
 45 46  2  0
 27 47  1  0
 47 48  2  0
 48 49  1  0
 49 50  2  0
 50 51  1  0
 51 52  2  0
 52 53  1  0
 53 54  1  0
 52 55  1  0
 48 56  1  0
 56 57  1  0
 57 58  1  0
 58 59  1  0
 59 60  2  0
 60 61  1  0
 61 62  1  0
 62 63  2  0
 63 64  1  0
 64 65  2  0
 65 66  1  0
 66 67  1  0
 65 68  1  0
 68 69  2  0
 61 70  1  0
 70 71  2  0
 71 72  1  0
 72 73  2  0
 73 74  1  0
 74 75  1  0
 73 76  1  0
 76 77  2  0
 61 78  1  0
 78 79  1  0
 79 80  1  0
 80 81  2  0
 81 82  1  0
 80 83  1  0
 83 84  2  0
 84 85  1  0
 85 86  2  0
 86 87  1  0
 87 88  1  0
 86 89  1  0
 60 90  1  0
 90 91  2  0
 91 92  1  0
 91 93  1  0
 93 94  2  3
 94 95  1  0
 95 96  2  0
 95 97  1  0
 97 98  2  0
 98 99  1  0
 98100  1  0
100101  2  0
101102  1  0
102103  2  0
103104  1  0
104105  2  3
105106  1  0
106107  3  0
105108  1  0
108109  3  0
 17  2  1  0
 30 23  2  0
 38 31  1  0
 46 39  1  0
 81 47  1  0
 89 83  1  0
104 94  1  0
 16  5  1  0
 29 25  2  0
 55 49  1  0
 79 56  2  0
103 97  1  0
 14  7  1  0
 82 26  1  0
 78 58  2  0
 92 59  1  0
 69 62  1  0
 77 70  1  0
  1110  1  0
  6111  1  0
  8112  1  0
 13113  1  0
 15114  1  0
 30115  1  0
 32116  1  0
 33117  1  0
 35118  1  0
 35119  1  0
 36120  1  0
 36121  1  0
 36122  1  0
 37123  1  0
 38124  1  0
 40125  1  0
 41126  1  0
 43127  1  0
 43128  1  0
 44129  1  0
 44130  1  0
 44131  1  0
 45132  1  0
 46133  1  0
 50134  1  0
 51135  1  0
 53136  1  0
 53137  1  0
 54138  1  0
 54139  1  0
 54140  1  0
 63141  1  0
 64142  1  0
 66143  1  0
 66144  1  0
 67145  1  0
 67146  1  0
 67147  1  0
 68148  1  0
 69149  1  0
 71150  1  0
 72151  1  0
 74152  1  0
 74153  1  0
 75154  1  0
 75155  1  0
 75156  1  0
 76157  1  0
 77158  1  0
 84159  1  0
 85160  1  0
 87161  1  0
 87162  1  0
 88163  1  0
 88164  1  0
 88165  1  0
 90166  1  0
 93167  1  0
100168  1  0
101169  1  0
102170  1  0
M  END

