
     RDKit          3D

147162  0  0  0  0  0  0  0  0999 V2000
   -7.0166   -3.2436   -3.3317 C   0  0  0  0  0  0  0  0  0  0  0  0
   -7.4146   -2.9222   -2.0326 C   0  0  0  0  0  0  0  0  0  0  0  0
   -6.6183   -2.1999   -1.0591 C   0  0  0  0  0  0  0  0  0  0  0  0
   -5.5972   -1.4718   -1.2406 O   0  0  0  0  0  0  0  0  0  0  0  0
   -7.1443   -2.3902    0.2812 C   0  0  0  0  0  0  0  0  0  0  0  0
   -6.6025   -2.0585    1.5210 C   0  0  0  0  0  0  0  0  0  0  0  0
   -7.1312   -2.5029    2.7205 C   0  0  0  0  0  0  0  0  0  0  0  0
   -6.4941   -2.2258    3.9316 C   0  0  0  0  0  0  0  0  0  0  0  0
   -7.0192   -2.7786    5.0820 C   0  0  0  0  0  0  0  0  0  0  0  0
   -6.4130   -2.5304    6.2800 F   0  0  0  0  0  0  0  0  0  0  0  0
   -8.1418   -3.5779    5.0223 C   0  0  0  0  0  0  0  0  0  0  0  0
   -8.7210   -4.1481    6.1073 F   0  0  0  0  0  0  0  0  0  0  0  0
   -8.7474   -3.8348    3.7899 C   0  0  0  0  0  0  0  0  0  0  0  0
   -8.2329   -3.2921    2.6214 C   0  0  0  0  0  0  0  0  0  0  0  0
   -8.7911   -3.6291    1.3604 C   0  0  0  0  0  0  0  0  0  0  0  0
   -8.2491   -3.1875    0.1849 C   0  0  0  0  0  0  0  0  0  0  0  0
   -8.4776   -3.5646   -1.2784 C   0  0  0  0  0  0  0  0  0  0  0  0
   -9.2700   -4.5275   -1.6239 C   0  0  0  0  0  0  0  0  0  0  0  0
  -10.3264   -4.9954   -0.7046 C   0  0  0  0  0  0  0  0  0  0  0  0
  -11.1922   -5.3805    0.0359 N   0  0  0  0  0  0  0  0  0  0  0  0
   -9.0357   -5.4861   -2.6374 C   0  0  0  0  0  0  0  0  0  0  0  0
   -8.8488   -6.3282   -3.5307 N   0  0  0  0  0  0  0  0  0  0  0  0
   -5.5964   -2.7591   -3.5238 C   0  0  0  0  0  0  0  0  0  0  0  0
   -4.6887   -3.3190   -2.5948 C   0  0  0  0  0  0  0  0  0  0  0  0
   -3.4839   -2.7718   -2.6070 C   0  0  0  0  0  0  0  0  0  0  0  0
   -1.9787   -2.8932   -1.2974 Se  0  0  0  0  0  2  0  0  0  0  0  0
   -1.1313   -1.4871   -2.1883 C   0  0  0  0  0  0  0  0  0  0  0  0
    0.0312   -0.6286   -1.9950 C   0  0  0  0  0  0  0  0  0  0  0  0
    0.8258   -0.6465   -0.8621 C   0  0  0  0  0  0  0  0  0  0  0  0
    1.6921    0.4144   -0.7468 C   0  0  0  0  0  0  0  0  0  0  0  0
    2.3808    0.9555    0.4402 C   0  0  0  0  0  0  0  0  0  0  0  0
    1.3727    2.1098    0.8292 C   0  0  0  0  0  0  0  0  0  0  0  0
    0.0775    1.7360    0.9612 C   0  0  0  0  0  0  0  0  0  0  0  0
   -0.8889    2.7092    1.2727 C   0  0  0  0  0  0  0  0  0  0  0  0
   -0.4610    4.0086    1.4278 C   0  0  0  0  0  0  0  0  0  0  0  0
   -1.5075    5.0359    1.7587 C   0  0  0  0  0  0  0  0  0  0  0  0
   -2.1050    5.5551    0.4856 C   0  0  0  0  0  0  0  0  0  0  0  0
    0.8658    4.3693    1.2885 C   0  0  0  0  0  0  0  0  0  0  0  0
    1.7833    3.3719    0.9790 C   0  0  0  0  0  0  0  0  0  0  0  0
    2.4401    0.0417    1.5325 C   0  0  0  0  0  0  0  0  0  0  0  0
    2.8222   -1.2711    1.4486 C   0  0  0  0  0  0  0  0  0  0  0  0
    2.6974   -2.1619    2.5240 C   0  0  0  0  0  0  0  0  0  0  0  0
    2.1615   -1.7354    3.7446 C   0  0  0  0  0  0  0  0  0  0  0  0
    1.9404   -2.7068    4.8335 C   0  0  0  0  0  0  0  0  0  0  0  0
    3.0535   -2.8952    5.7793 C   0  0  0  0  0  0  0  0  0  0  0  0
    1.7889   -0.4332    3.8299 C   0  0  0  0  0  0  0  0  0  0  0  0
    1.9093    0.4483    2.7767 C   0  0  0  0  0  0  0  0  0  0  0  0
    3.5114    1.7111   -0.1528 C   0  0  0  0  0  0  0  0  0  0  0  0
    2.9413    2.1786   -1.3140 C   0  0  0  0  0  0  0  0  0  0  0  0
    1.7675    1.3864   -1.7132 C   0  0  0  0  0  0  0  0  0  0  0  0
    0.9299    1.3425   -2.8251 C   0  0  0  0  0  0  0  0  0  0  0  0
    0.0297    0.3010   -2.9657 C   0  0  0  0  0  0  0  0  0  0  0  0
   -1.0825   -0.0549   -3.9103 C   0  0  0  0  0  0  0  0  0  0  0  0
   -1.8489    1.1412   -4.1849 C   0  0  0  0  0  0  0  0  0  0  0  0
   -2.4588    1.3450   -5.3988 C   0  0  0  0  0  0  0  0  0  0  0  0
   -3.1781    2.5109   -5.6380 C   0  0  0  0  0  0  0  0  0  0  0  0
   -3.2782    3.4903   -4.6215 C   0  0  0  0  0  0  0  0  0  0  0  0
   -4.0229    4.7552   -4.8640 C   0  0  0  0  0  0  0  0  0  0  0  0
   -5.4757    4.5332   -4.4790 C   0  0  0  0  0  0  0  0  0  0  0  0
   -2.6710    3.2756   -3.4337 C   0  0  0  0  0  0  0  0  0  0  0  0
   -1.9618    2.1091   -3.2181 C   0  0  0  0  0  0  0  0  0  0  0  0
   -0.3961   -0.5969   -5.1013 C   0  0  0  0  0  0  0  0  0  0  0  0
    0.0651    0.3024   -6.0366 C   0  0  0  0  0  0  0  0  0  0  0  0
    0.7812   -0.1288   -7.1315 C   0  0  0  0  0  0  0  0  0  0  0  0
    1.0650   -1.4708   -7.3515 C   0  0  0  0  0  0  0  0  0  0  0  0
    1.8374   -1.9427   -8.5270 C   0  0  0  0  0  0  0  0  0  0  0  0
    3.3303   -2.0264   -8.0616 C   0  0  0  0  0  0  0  0  0  0  0  0
    0.5824   -2.3689   -6.3953 C   0  0  0  0  0  0  0  0  0  0  0  0
   -0.1328   -1.9167   -5.2882 C   0  0  0  0  0  0  0  0  0  0  0  0
   -1.9045   -1.1436   -3.2067 C   0  0  0  0  0  0  0  0  0  0  0  0
   -3.1009   -1.8089   -3.3899 C   0  0  0  0  0  0  0  0  0  0  0  0
   -4.6692   -1.6156   -4.2665 S   0  0  0  0  0  0  0  0  0  0  0  0
    4.1727    3.4024   -1.8933 Se  0  0  0  0  0  2  0  0  0  0  0  0
    5.4628    3.0450   -0.2735 C   0  0  0  0  0  0  0  0  0  0  0  0
    6.6289    3.4963    0.1686 C   0  0  0  0  0  0  0  0  0  0  0  0
    7.0203    2.9596    1.3144 C   0  0  0  0  0  0  0  0  0  0  0  0
    5.7015    1.8222    1.7010 S   0  0  0  0  0  0  0  0  0  0  0  0
    4.7149    2.1785    0.2673 C   0  0  0  0  0  0  0  0  0  0  0  0
    8.0717    3.0655    2.3321 C   0  0  0  0  0  0  0  0  0  0  0  0
    8.6188    1.9441    2.7052 C   0  0  0  0  0  0  0  0  0  0  0  0
    8.3287    0.6175    2.1841 C   0  0  0  0  0  0  0  0  0  0  0  0
    7.6979    0.3377    1.1040 O   0  0  0  0  0  0  0  0  0  0  0  0
    8.8850   -0.3890    3.0732 C   0  0  0  0  0  0  0  0  0  0  0  0
    8.8651   -1.7859    3.0287 C   0  0  0  0  0  0  0  0  0  0  0  0
    9.4354   -2.5756    3.9920 C   0  0  0  0  0  0  0  0  0  0  0  0
    9.3792   -4.0617    3.9189 C   0  0  0  0  0  0  0  0  0  0  0  0
   10.0719   -1.9351    5.0688 C   0  0  0  0  0  0  0  0  0  0  0  0
   10.6400   -2.6842    6.0377 F   0  0  0  0  0  0  0  0  0  0  0  0
   10.0814   -0.5408    5.1063 C   0  0  0  0  0  0  0  0  0  0  0  0
    9.5200    0.2586    4.1479 C   0  0  0  0  0  0  0  0  0  0  0  0
    9.3598    1.7143    3.9394 C   0  0  0  0  0  0  0  0  0  0  0  0
    9.6722    2.5975    4.8863 C   0  0  0  0  0  0  0  0  0  0  0  0
   10.3694    2.2925    6.0055 C   0  0  0  0  0  0  0  0  0  0  0  0
   11.0460    2.0184    7.0613 N   0  0  0  0  0  0  0  0  0  0  0  0
    9.1043    3.9715    4.8802 C   0  0  0  0  0  0  0  0  0  0  0  0
    8.6591    5.0524    4.8630 N   0  0  0  0  0  0  0  0  0  0  0  0
   -7.5645   -3.7159   -4.0249 H   0  0  0  0  0  0  0  0  0  0  0  0
   -5.7245   -1.4172    1.5935 H   0  0  0  0  0  0  0  0  0  0  0  0
   -5.5945   -1.5911    3.9033 H   0  0  0  0  0  0  0  0  0  0  0  0
   -9.6310   -4.4614    3.7466 H   0  0  0  0  0  0  0  0  0  0  0  0
   -9.6631   -4.2369    1.4342 H   0  0  0  0  0  0  0  0  0  0  0  0
   -5.0133   -4.1551   -1.9819 H   0  0  0  0  0  0  0  0  0  0  0  0
    0.8207   -1.3860   -0.0790 H   0  0  0  0  0  0  0  0  0  0  0  0
   -0.3004    0.7225    0.8446 H   0  0  0  0  0  0  0  0  0  0  0  0
   -1.9362    2.4720    1.3901 H   0  0  0  0  0  0  0  0  0  0  0  0
   -1.0748    5.8856    2.3125 H   0  0  0  0  0  0  0  0  0  0  0  0
   -2.3046    4.6053    2.4045 H   0  0  0  0  0  0  0  0  0  0  0  0
   -3.2323    5.5996    0.6044 H   0  0  0  0  0  0  0  0  0  0  0  0
   -1.8281    4.9421   -0.3995 H   0  0  0  0  0  0  0  0  0  0  0  0
   -1.8158    6.6299    0.3749 H   0  0  0  0  0  0  0  0  0  0  0  0
    1.1711    5.3875    1.4060 H   0  0  0  0  0  0  0  0  0  0  0  0
    2.8043    3.6590    0.8631 H   0  0  0  0  0  0  0  0  0  0  0  0
    3.2519   -1.5864    0.5125 H   0  0  0  0  0  0  0  0  0  0  0  0
    3.0044   -3.2058    2.4176 H   0  0  0  0  0  0  0  0  0  0  0  0
    1.6328   -3.7303    4.4471 H   0  0  0  0  0  0  0  0  0  0  0  0
    1.0222   -2.3659    5.3842 H   0  0  0  0  0  0  0  0  0  0  0  0
    3.3760   -4.0115    5.7903 H   0  0  0  0  0  0  0  0  0  0  0  0
    3.8916   -2.2161    5.5776 H   0  0  0  0  0  0  0  0  0  0  0  0
    2.6550   -2.7548    6.8419 H   0  0  0  0  0  0  0  0  0  0  0  0
    1.3537   -0.0791    4.7802 H   0  0  0  0  0  0  0  0  0  0  0  0
    1.6152    1.4900    2.8501 H   0  0  0  0  0  0  0  0  0  0  0  0
    1.0012    2.1221   -3.5470 H   0  0  0  0  0  0  0  0  0  0  0  0
   -2.3758    0.6019   -6.1971 H   0  0  0  0  0  0  0  0  0  0  0  0
   -3.6650    2.6841   -6.5777 H   0  0  0  0  0  0  0  0  0  0  0  0
   -3.5685    5.5254   -4.2191 H   0  0  0  0  0  0  0  0  0  0  0  0
   -3.9321    4.9928   -5.9318 H   0  0  0  0  0  0  0  0  0  0  0  0
   -5.5610    3.5092   -4.1113 H   0  0  0  0  0  0  0  0  0  0  0  0
   -5.7510    5.2380   -3.6555 H   0  0  0  0  0  0  0  0  0  0  0  0
   -6.0942    4.6713   -5.4051 H   0  0  0  0  0  0  0  0  0  0  0  0
   -2.7098    3.9947   -2.6290 H   0  0  0  0  0  0  0  0  0  0  0  0
   -1.4633    1.9805   -2.2418 H   0  0  0  0  0  0  0  0  0  0  0  0
   -0.0923    1.3659   -5.9230 H   0  0  0  0  0  0  0  0  0  0  0  0
    1.1498    0.5775   -7.8968 H   0  0  0  0  0  0  0  0  0  0  0  0
    1.7933   -1.2504   -9.3795 H   0  0  0  0  0  0  0  0  0  0  0  0
    1.6204   -2.9855   -8.7930 H   0  0  0  0  0  0  0  0  0  0  0  0
    3.9544   -2.1696   -8.9488 H   0  0  0  0  0  0  0  0  0  0  0  0
    3.5750   -1.0485   -7.5822 H   0  0  0  0  0  0  0  0  0  0  0  0
    3.4306   -2.8917   -7.3715 H   0  0  0  0  0  0  0  0  0  0  0  0
    0.7679   -3.3986   -6.5287 H   0  0  0  0  0  0  0  0  0  0  0  0
   -0.4780   -2.6266   -4.5584 H   0  0  0  0  0  0  0  0  0  0  0  0
    7.2273    4.2471   -0.3357 H   0  0  0  0  0  0  0  0  0  0  0  0
    8.3317    4.0290    2.6407 H   0  0  0  0  0  0  0  0  0  0  0  0
    8.3636   -2.2628    2.2163 H   0  0  0  0  0  0  0  0  0  0  0  0
    9.1112   -4.3269    2.8692 H   0  0  0  0  0  0  0  0  0  0  0  0
   10.3877   -4.4962    4.1074 H   0  0  0  0  0  0  0  0  0  0  0  0
    8.6424   -4.4786    4.6128 H   0  0  0  0  0  0  0  0  0  0  0  0
   10.5838   -0.1334    5.9709 H   0  0  0  0  0  0  0  0  0  0  0  0
  1  2  2  3
  2  3  1  0
  3  4  2  0
  3  5  1  0
  5  6  2  0
  6  7  1  0
  7  8  2  0
  8  9  1  0
  9 10  1  0
  9 11  2  0
 11 12  1  0
 11 13  1  0
 13 14  2  0
 14 15  1  0
 15 16  2  0
 16 17  1  0
 17 18  2  3
 18 19  1  0
 19 20  3  0
 18 21  1  0
 21 22  3  0
  1 23  1  0
 23 24  2  0
 24 25  1  0
 25 26  1  0
 26 27  1  0
 27 28  1  0
 28 29  2  0
 29 30  1  0
 30 31  1  0
 31 32  1  0
 32 33  2  0
 33 34  1  0
 34 35  2  0
 35 36  1  0
 36 37  1  0
 35 38  1  0
 38 39  2  0
 31 40  1  0
 40 41  2  0
 41 42  1  0
 42 43  2  0
 43 44  1  0
 44 45  1  0
 43 46  1  0
 46 47  2  0
 31 48  1  0
 48 49  2  0
 49 50  1  0
 50 51  1  0
 51 52  2  0
 52 53  1  0
 53 54  1  0
 54 55  2  0
 55 56  1  0
 56 57  2  0
 57 58  1  0
 58 59  1  0
 57 60  1  0
 60 61  2  0
 53 62  1  0
 62 63  2  0
 63 64  1  0
 64 65  2  0
 65 66  1  0
 66 67  1  0
 65 68  1  0
 68 69  2  0
 53 70  1  0
 70 71  1  0
 71 72  1  0
 49 73  1  0
 73 74  1  0
 74 75  1  0
 75 76  2  0
 76 77  1  0
 77 78  1  0
 76 79  1  0
 79 80  2  3
 80 81  1  0
 81 82  2  0
 81 83  1  0
 83 84  2  0
 84 85  1  0
 85 86  1  0
 85 87  2  0
 87 88  1  0
 87 89  1  0
 89 90  2  0
 90 91  1  0
 91 92  2  3
 92 93  1  0
 93 94  3  0
 92 95  1  0
 95 96  3  0
 17  2  1  0
 72 23  1  0
 78 74  2  0
 91 80  1  0
 16  5  1  0
 71 25  2  0
 90 83  1  0
 14  7  1  0
 70 27  2  0
 52 28  1  0
 61 54  1  0
 69 62  1  0
 50 30  2  0
 39 32  1  0
 47 40  1  0
 78 48  1  0
  1 97  1  0
  6 98  1  0
  8 99  1  0
 13100  1  0
 15101  1  0
 24102  1  0
 29103  1  0
 33104  1  0
 34105  1  0
 36106  1  0
 36107  1  0
 37108  1  0
 37109  1  0
 37110  1  0
 38111  1  0
 39112  1  0
 41113  1  0
 42114  1  0
 44115  1  0
 44116  1  0
 45117  1  0
 45118  1  0
 45119  1  0
 46120  1  0
 47121  1  0
 51122  1  0
 55123  1  0
 56124  1  0
 58125  1  0
 58126  1  0
 59127  1  0
 59128  1  0
 59129  1  0
 60130  1  0
 61131  1  0
 63132  1  0
 64133  1  0
 66134  1  0
 66135  1  0
 67136  1  0
 67137  1  0
 67138  1  0
 68139  1  0
 69140  1  0
 75141  1  0
 79142  1  0
 84143  1  0
 86144  1  0
 86145  1  0
 86146  1  0
 89147  1  0
M  END

