
     RDKit          3D

 94105  0  0  0  0  0  0  0  0999 V2000
   -4.2710   -2.3449    0.1393 C   0  0  0  0  0  0  0  0  0  0  0  0
   -5.2624   -2.9181   -0.5947 C   0  0  0  0  0  0  0  0  0  0  0  0
   -5.3867   -2.5758   -2.0100 C   0  0  0  0  0  0  0  0  0  0  0  0
   -4.7095   -1.8428   -2.6760 O   0  0  0  0  0  0  0  0  0  0  0  0
   -6.5711   -3.3757   -2.4201 C   0  0  0  0  0  0  0  0  0  0  0  0
   -7.1747   -3.3194   -3.6570 C   0  0  0  0  0  0  0  0  0  0  0  0
   -8.4007   -4.0111   -3.8440 C   0  0  0  0  0  0  0  0  0  0  0  0
   -8.9940   -3.8486   -5.0878 C   0  0  0  0  0  0  0  0  0  0  0  0
  -10.2992   -4.4599   -5.2363 C   0  0  0  0  0  0  0  0  0  0  0  0
  -10.9673   -4.3089   -6.3916 F   0  0  0  0  0  0  0  0  0  0  0  0
  -10.7611   -5.0925   -4.1817 C   0  0  0  0  0  0  0  0  0  0  0  0
  -12.0633   -5.6307   -4.2871 F   0  0  0  0  0  0  0  0  0  0  0  0
  -10.2040   -5.2891   -2.9466 C   0  0  0  0  0  0  0  0  0  0  0  0
   -8.9030   -4.6732   -2.8093 C   0  0  0  0  0  0  0  0  0  0  0  0
   -8.2755   -4.7402   -1.5682 C   0  0  0  0  0  0  0  0  0  0  0  0
   -7.0899   -4.0826   -1.3821 C   0  0  0  0  0  0  0  0  0  0  0  0
   -6.2430   -3.8208   -0.1221 C   0  0  0  0  0  0  0  0  0  0  0  0
   -6.7019   -4.1938    1.0537 C   0  0  0  0  0  0  0  0  0  0  0  0
   -6.0782   -3.4742    2.3052 C   0  0  0  0  0  0  0  0  0  0  0  0
   -5.6455   -2.9649    3.1846 N   0  0  0  0  0  0  0  0  0  0  0  0
   -7.6130   -5.1239    1.4174 C   0  0  0  0  0  0  0  0  0  0  0  0
   -8.4704   -5.9979    1.7649 N   0  0  0  0  0  0  0  0  0  0  0  0
   -3.3383   -1.4097   -0.3557 C   0  0  0  0  0  0  0  0  0  0  0  0
   -2.3604   -1.4553   -2.0981 Se  0  0  0  0  0  2  0  0  0  0  0  0
   -1.3764    0.1648   -1.6224 C   0  0  0  0  0  0  0  0  0  0  0  0
   -0.2877    0.8721   -2.0085 C   0  0  0  0  0  0  0  0  0  0  0  0
    0.5330    0.9226   -3.1308 C   0  0  0  0  0  0  0  0  0  0  0  0
    1.6080    1.7257   -3.1477 C   0  0  0  0  0  0  0  0  0  0  0  0
    2.3630    1.7146   -4.2450 N   0  0  0  0  0  0  0  0  0  0  0  0
    1.5622    0.5949   -5.2609 S   0  0  0  0  0  0  0  0  0  0  0  0
    0.3060    0.1745   -4.2483 N   0  0  0  0  0  0  0  0  0  0  0  0
    1.9078    2.4756   -1.9759 C   0  0  0  0  0  0  0  0  0  0  0  0
    3.1625    2.9506   -1.4937 C   0  0  0  0  0  0  0  0  0  0  0  0
    4.7977    3.1205   -1.9004 S   0  0  0  0  0  0  0  0  0  0  0  0
    5.4416    3.4761   -0.3112 C   0  0  0  0  0  0  0  0  0  0  0  0
    6.6596    3.6235    0.3378 C   0  0  0  0  0  0  0  0  0  0  0  0
    8.0144    3.4732   -0.3473 C   0  0  0  0  0  0  0  0  0  0  0  0
    8.7079    2.1984    0.0331 C   0  0  0  0  0  0  0  0  0  0  0  0
    6.6565    3.7297    1.6479 C   0  0  0  0  0  0  0  0  0  0  0  0
    4.9199    3.6385    2.0199 S   0  0  0  0  0  0  0  0  0  0  0  0
    4.3466    3.4499    0.4422 C   0  0  0  0  0  0  0  0  0  0  0  0
    3.1204    3.1559   -0.2079 C   0  0  0  0  0  0  0  0  0  0  0  0
    1.8420    2.8468    0.2271 N   0  0  0  0  0  0  0  0  0  0  0  0
    1.1250    2.4410   -0.8743 C   0  0  0  0  0  0  0  0  0  0  0  0
   -0.0419    1.6487   -0.8879 C   0  0  0  0  0  0  0  0  0  0  0  0
   -0.9464    1.4342    0.0335 N   0  0  0  0  0  0  0  0  0  0  0  0
   -1.8540    0.4380   -0.4040 C   0  0  0  0  0  0  0  0  0  0  0  0
   -2.7562   -0.2795    0.1791 C   0  0  0  0  0  0  0  0  0  0  0  0
   -1.3126    2.3801    1.1175 C   0  0  0  0  0  0  0  0  0  0  0  0
   -2.7012    2.9693    0.7216 C   0  0  0  0  0  0  0  0  0  0  0  0
    1.5625    2.5048    1.6250 C   0  0  0  0  0  0  0  0  0  0  0  0
    1.5147    0.9597    1.7437 C   0  0  0  0  0  0  0  0  0  0  0  0
    7.4678    3.8638    2.8416 C   0  0  0  0  0  0  0  0  0  0  0  0
    7.3727    2.9964    3.8717 C   0  0  0  0  0  0  0  0  0  0  0  0
    8.1058    3.1871    5.0709 C   0  0  0  0  0  0  0  0  0  0  0  0
    8.8637    4.2423    5.3174 O   0  0  0  0  0  0  0  0  0  0  0  0
    7.8907    2.1035    5.9693 C   0  0  0  0  0  0  0  0  0  0  0  0
    7.0671    1.1944    5.3965 C   0  0  0  0  0  0  0  0  0  0  0  0
    6.7519    0.0447    6.1040 C   0  0  0  0  0  0  0  0  0  0  0  0
    7.2548   -0.1740    7.4153 C   0  0  0  0  0  0  0  0  0  0  0  0
    8.0601    0.8286    7.9062 C   0  0  0  0  0  0  0  0  0  0  0  0
    8.8844    0.4676    9.6108 Br  0  0  0  0  0  0  0  0  0  0  0  0
    8.4003    1.9276    7.2731 C   0  0  0  0  0  0  0  0  0  0  0  0
    9.3666    3.2144    7.9698 Cl  0  0  0  0  0  0  0  0  0  0  0  0
    6.6947    1.6926    4.0354 C   0  0  0  0  0  0  0  0  0  0  0  0
    6.2692    0.9479    3.0777 C   0  0  0  0  0  0  0  0  0  0  0  0
    6.1819    0.8289    1.8459 C   0  0  0  0  0  0  0  0  0  0  0  0
    6.0569    0.6744    0.3668 N   0  0  0  0  0  0  0  0  0  0  0  0
    5.3633   -0.3341    3.5175 C   0  0  0  0  0  0  0  0  0  0  0  0
    4.6914   -1.3093    3.8620 N   0  0  0  0  0  0  0  0  0  0  0  0
   -4.1697   -2.6839    1.1475 H   0  0  0  0  0  0  0  0  0  0  0  0
   -6.7499   -2.7431   -4.4941 H   0  0  0  0  0  0  0  0  0  0  0  0
   -8.6157   -3.3466   -5.9231 H   0  0  0  0  0  0  0  0  0  0  0  0
  -10.6540   -5.7715   -2.1460 H   0  0  0  0  0  0  0  0  0  0  0  0
   -8.7769   -5.3164   -0.8089 H   0  0  0  0  0  0  0  0  0  0  0  0
    7.8191    3.3499   -1.4830 H   0  0  0  0  0  0  0  0  0  0  0  0
    8.5281    4.4255   -0.2773 H   0  0  0  0  0  0  0  0  0  0  0  0
    8.4181    1.3885   -0.6574 H   0  0  0  0  0  0  0  0  0  0  0  0
    9.8119    2.3433   -0.1793 H   0  0  0  0  0  0  0  0  0  0  0  0
    8.6336    1.9350    1.1258 H   0  0  0  0  0  0  0  0  0  0  0  0
   -3.2224   -0.0305    1.1875 H   0  0  0  0  0  0  0  0  0  0  0  0
   -1.3706    1.9515    2.0601 H   0  0  0  0  0  0  0  0  0  0  0  0
   -0.7010    3.3459    0.9894 H   0  0  0  0  0  0  0  0  0  0  0  0
   -3.5097    2.2685    0.8372 H   0  0  0  0  0  0  0  0  0  0  0  0
   -2.6181    3.1384   -0.3996 H   0  0  0  0  0  0  0  0  0  0  0  0
   -2.8874    3.9448    1.1423 H   0  0  0  0  0  0  0  0  0  0  0  0
    2.5643    2.6166    2.2585 H   0  0  0  0  0  0  0  0  0  0  0  0
    0.9391    3.1020    2.2051 H   0  0  0  0  0  0  0  0  0  0  0  0
    0.6886    0.7900    2.4596 H   0  0  0  0  0  0  0  0  0  0  0  0
    1.4234    0.4716    0.7846 H   0  0  0  0  0  0  0  0  0  0  0  0
    2.4120    0.4958    2.2186 H   0  0  0  0  0  0  0  0  0  0  0  0
    8.1970    4.6179    2.8690 H   0  0  0  0  0  0  0  0  0  0  0  0
    6.1099   -0.7078    5.6903 H   0  0  0  0  0  0  0  0  0  0  0  0
    6.9929   -1.0350    7.9517 H   0  0  0  0  0  0  0  0  0  0  0  0
  1  2  2  3
  2  3  1  0
  3  4  2  0
  3  5  1  0
  5  6  2  0
  6  7  1  0
  7  8  2  0
  8  9  1  0
  9 10  1  0
  9 11  2  0
 11 12  1  0
 11 13  1  0
 13 14  2  0
 14 15  1  0
 15 16  2  0
 16 17  1  0
 17 18  2  3
 18 19  1  0
 19 20  3  0
 18 21  1  0
 21 22  3  0
  1 23  1  0
 23 24  1  0
 24 25  1  0
 25 26  1  0
 26 27  1  0
 27 28  1  0
 28 29  2  0
 29 30  1  0
 30 31  1  0
 28 32  1  0
 32 33  1  0
 33 34  1  0
 34 35  1  0
 35 36  1  0
 36 37  1  0
 37 38  1  0
 36 39  2  0
 39 40  1  0
 40 41  1  0
 41 42  1  0
 42 43  1  0
 43 44  1  0
 44 45  1  0
 45 46  1  0
 46 47  1  0
 47 48  1  0
 46 49  1  0
 49 50  1  0
 43 51  1  0
 51 52  1  0
 39 53  1  0
 53 54  2  3
 54 55  1  0
 55 56  2  0
 55 57  1  0
 57 58  2  0
 58 59  1  0
 59 60  2  0
 60 61  1  0
 61 62  1  0
 61 63  2  0
 63 64  1  0
 58 65  1  0
 65 66  2  3
 66 67  1  0
 67 68  3  0
 66 69  1  0
 69 70  3  0
 17  2  1  0
 48 23  2  0
 65 54  1  0
 16  5  1  0
 47 25  2  0
 63 57  1  0
 14  7  1  0
 45 26  2  0
 31 27  2  0
 44 32  2  0
 42 33  2  0
 41 35  2  0
  1 71  1  0
  6 72  1  0
  8 73  1  0
 13 74  1  0
 15 75  1  0
 37 76  1  0
 37 77  1  0
 38 78  1  0
 38 79  1  0
 38 80  1  0
 48 81  1  0
 49 82  1  0
 49 83  1  0
 50 84  1  0
 50 85  1  0
 50 86  1  0
 51 87  1  0
 51 88  1  0
 52 89  1  0
 52 90  1  0
 52 91  1  0
 53 92  1  0
 59 93  1  0
 60 94  1  0
M  END

