
     RDKit          3D

 75 83  0  0  0  0  0  0  0  0999 V2000
    4.3414   -0.8215   -0.4162 C   0  0  0  0  0  0  0  0  0  0  0  0
    4.5734   -0.7537    0.9075 C   0  0  0  0  0  0  0  0  0  0  0  0
    5.4470   -1.6953    1.6061 C   0  0  0  0  0  0  0  0  0  0  0  0
    6.3086   -2.4451    1.0736 O   0  0  0  0  0  0  0  0  0  0  0  0
    5.0768   -1.6977    3.0080 C   0  0  0  0  0  0  0  0  0  0  0  0
    5.5347   -2.5389    4.0212 C   0  0  0  0  0  0  0  0  0  0  0  0
    4.9565   -2.4288    5.2982 C   0  0  0  0  0  0  0  0  0  0  0  0
    5.3875   -3.2532    6.3489 C   0  0  0  0  0  0  0  0  0  0  0  0
    4.7976   -3.1466    7.6122 C   0  0  0  0  0  0  0  0  0  0  0  0
    5.2242   -3.9423    8.6234 F   0  0  0  0  0  0  0  0  0  0  0  0
    3.7720   -2.2231    7.8363 C   0  0  0  0  0  0  0  0  0  0  0  0
    3.2030   -2.1293    9.0628 F   0  0  0  0  0  0  0  0  0  0  0  0
    3.3268   -1.3979    6.7984 C   0  0  0  0  0  0  0  0  0  0  0  0
    3.9111   -1.4875    5.5257 C   0  0  0  0  0  0  0  0  0  0  0  0
    3.4628   -0.6616    4.4759 C   0  0  0  0  0  0  0  0  0  0  0  0
    4.0780   -0.7624    3.2203 C   0  0  0  0  0  0  0  0  0  0  0  0
    3.8185   -0.0159    1.9617 C   0  0  0  0  0  0  0  0  0  0  0  0
    3.3913    1.2677    1.8741 C   0  0  0  0  0  0  0  0  0  0  0  0
    2.8150    1.9700    2.9912 C   0  0  0  0  0  0  0  0  0  0  0  0
    2.3460    2.5448    3.8812 N   0  0  0  0  0  0  0  0  0  0  0  0
    3.6277    2.0645    0.6959 C   0  0  0  0  0  0  0  0  0  0  0  0
    3.8212    2.7103   -0.2450 N   0  0  0  0  0  0  0  0  0  0  0  0
    3.1159   -0.3388   -1.0760 C   0  0  0  0  0  0  0  0  0  0  0  0
    1.5567   -0.3447   -0.3997 S   0  0  0  0  0  0  0  0  0  0  0  0
    0.7955    0.1993   -1.7899 C   0  0  0  0  0  0  0  0  0  0  0  0
   -0.5537    0.4761   -2.0152 C   0  0  0  0  0  0  0  0  0  0  0  0
   -0.9917    0.9281   -3.2612 C   0  0  0  0  0  0  0  0  0  0  0  0
   -0.0513    1.1073   -4.2961 C   0  0  0  0  0  0  0  0  0  0  0  0
   -0.2987    1.5696   -5.5945 C   0  0  0  0  0  0  0  0  0  0  0  0
    0.8633    1.6505   -6.3667 C   0  0  0  0  0  0  0  0  0  0  0  0
    0.9193    2.1340   -7.7598 C   0  0  0  0  0  0  0  0  0  0  0  0
   -0.1453    2.4805   -8.3388 O   0  0  0  0  0  0  0  0  0  0  0  0
    2.2244    2.2711   -8.4913 C   0  0  0  0  0  0  0  0  0  0  0  0
    2.9283    3.5688   -8.1054 C   0  0  0  0  0  0  0  0  0  0  0  0
    2.1924    1.1425   -5.4419 S   0  0  0  0  0  0  0  0  0  0  0  0
    1.2985    0.8214   -4.0575 C   0  0  0  0  0  0  0  0  0  0  0  0
    1.7345    0.3659   -2.8047 C   0  0  0  0  0  0  0  0  0  0  0  0
    3.0417    0.0494   -2.4159 C   0  0  0  0  0  0  0  0  0  0  0  0
   -2.3703    1.1805   -3.3041 C   0  0  0  0  0  0  0  0  0  0  0  0
   -3.0052    0.8934   -2.0933 C   0  0  0  0  0  0  0  0  0  0  0  0
   -1.8478    0.3980   -0.9539 S   0  0  0  0  0  0  0  0  0  0  0  0
   -4.4099    1.2303   -1.7995 C   0  0  0  0  0  0  0  0  0  0  0  0
   -5.2301    0.4936   -1.0236 C   0  0  0  0  0  0  0  0  0  0  0  0
   -4.9017   -0.7841   -0.3806 C   0  0  0  0  0  0  0  0  0  0  0  0
   -4.0230   -1.6066   -0.7528 O   0  0  0  0  0  0  0  0  0  0  0  0
   -5.8480   -1.0120    0.6870 C   0  0  0  0  0  0  0  0  0  0  0  0
   -5.8273   -2.0117    1.6589 C   0  0  0  0  0  0  0  0  0  0  0  0
   -6.7929   -1.9773    2.6765 C   0  0  0  0  0  0  0  0  0  0  0  0
   -6.7830   -3.2112    3.9244 Cl  0  0  0  0  0  0  0  0  0  0  0  0
   -7.7444   -0.9398    2.7115 C   0  0  0  0  0  0  0  0  0  0  0  0
   -8.6578   -0.8861    3.7156 F   0  0  0  0  0  0  0  0  0  0  0  0
   -7.7448    0.0574    1.7211 C   0  0  0  0  0  0  0  0  0  0  0  0
   -6.7986   -0.0069    0.6847 C   0  0  0  0  0  0  0  0  0  0  0  0
   -6.5544    0.9102   -0.4644 C   0  0  0  0  0  0  0  0  0  0  0  0
   -7.4486    1.7721   -1.0167 C   0  0  0  0  0  0  0  0  0  0  0  0
   -8.7594    1.9888   -0.4602 C   0  0  0  0  0  0  0  0  0  0  0  0
   -9.8183    2.1703   -0.0279 N   0  0  0  0  0  0  0  0  0  0  0  0
   -7.2114    2.4323   -2.2735 C   0  0  0  0  0  0  0  0  0  0  0  0
   -7.0280    2.9644   -3.2839 N   0  0  0  0  0  0  0  0  0  0  0  0
    5.0257   -1.3926   -1.0346 H   0  0  0  0  0  0  0  0  0  0  0  0
    6.3089   -3.2700    3.8162 H   0  0  0  0  0  0  0  0  0  0  0  0
    6.1774   -3.9780    6.1914 H   0  0  0  0  0  0  0  0  0  0  0  0
    2.5291   -0.6889    6.9900 H   0  0  0  0  0  0  0  0  0  0  0  0
    2.6338    0.0096    4.6398 H   0  0  0  0  0  0  0  0  0  0  0  0
   -1.2800    1.8417   -5.9607 H   0  0  0  0  0  0  0  0  0  0  0  0
    2.8852    1.4054   -8.2683 H   0  0  0  0  0  0  0  0  0  0  0  0
    2.0342    2.2731   -9.5876 H   0  0  0  0  0  0  0  0  0  0  0  0
    2.2633    4.4400   -8.2870 H   0  0  0  0  0  0  0  0  0  0  0  0
    3.8495    3.6848   -8.7140 H   0  0  0  0  0  0  0  0  0  0  0  0
    3.2160    3.5495   -7.0343 H   0  0  0  0  0  0  0  0  0  0  0  0
    3.8987    0.1020   -3.0745 H   0  0  0  0  0  0  0  0  0  0  0  0
   -2.8897    1.5704   -4.1698 H   0  0  0  0  0  0  0  0  0  0  0  0
   -4.7350    2.1786   -2.1905 H   0  0  0  0  0  0  0  0  0  0  0  0
   -5.0702   -2.7827    1.6401 H   0  0  0  0  0  0  0  0  0  0  0  0
   -8.4483    0.8681    1.8054 H   0  0  0  0  0  0  0  0  0  0  0  0
  1  2  2  3
  2  3  1  0
  3  4  2  0
  3  5  1  0
  5  6  2  0
  6  7  1  0
  7  8  2  0
  8  9  1  0
  9 10  1  0
  9 11  2  0
 11 12  1  0
 11 13  1  0
 13 14  2  0
 14 15  1  0
 15 16  2  0
 16 17  1  0
 17 18  2  3
 18 19  1  0
 19 20  3  0
 18 21  1  0
 21 22  3  0
  1 23  1  0
 23 24  1  0
 24 25  1  0
 25 26  2  0
 26 27  1  0
 27 28  2  0
 28 29  1  0
 29 30  2  0
 30 31  1  0
 31 32  2  0
 31 33  1  0
 33 34  1  0
 30 35  1  0
 35 36  1  0
 36 37  2  0
 37 38  1  0
 27 39  1  0
 39 40  2  0
 40 41  1  0
 40 42  1  0
 42 43  2  3
 43 44  1  0
 44 45  2  0
 44 46  1  0
 46 47  2  0
 47 48  1  0
 48 49  1  0
 48 50  2  0
 50 51  1  0
 50 52  1  0
 52 53  2  0
 53 54  1  0
 54 55  2  3
 55 56  1  0
 56 57  3  0
 55 58  1  0
 58 59  3  0
 17  2  1  0
 38 23  2  0
 54 43  1  0
 16  5  1  0
 37 25  1  0
 53 46  1  0
 14  7  1  0
 41 26  1  0
 36 28  1  0
  1 60  1  0
  6 61  1  0
  8 62  1  0
 13 63  1  0
 15 64  1  0
 29 65  1  0
 33 66  1  0
 33 67  1  0
 34 68  1  0
 34 69  1  0
 34 70  1  0
 38 71  1  0
 39 72  1  0
 42 73  1  0
 47 74  1  0
 52 75  1  0
M  END

