
     RDKit          3D

150166  0  0  0  0  0  0  0  0999 V2000
    4.3973    4.3552    5.2578 C   0  0  0  0  0  0  0  0  0  0  0  0
    5.6030    3.7774    5.0485 C   0  0  0  0  0  0  0  0  0  0  0  0
    5.9141    2.8935    3.9179 C   0  0  0  0  0  0  0  0  0  0  0  0
    5.3106    2.8626    2.8117 O   0  0  0  0  0  0  0  0  0  0  0  0
    7.1049    2.1465    4.2354 C   0  0  0  0  0  0  0  0  0  0  0  0
    7.6573    1.0910    3.5153 C   0  0  0  0  0  0  0  0  0  0  0  0
    8.7384    0.3920    4.0764 C   0  0  0  0  0  0  0  0  0  0  0  0
    9.3094   -0.6964    3.4036 C   0  0  0  0  0  0  0  0  0  0  0  0
   10.3583   -1.4146    3.9846 C   0  0  0  0  0  0  0  0  0  0  0  0
   10.8866   -2.4801    3.3350 F   0  0  0  0  0  0  0  0  0  0  0  0
   10.8505   -1.0440    5.2433 C   0  0  0  0  0  0  0  0  0  0  0  0
   11.8630   -1.7476    5.8089 F   0  0  0  0  0  0  0  0  0  0  0  0
   10.2973    0.0471    5.9260 C   0  0  0  0  0  0  0  0  0  0  0  0
    9.2388    0.7721    5.3568 C   0  0  0  0  0  0  0  0  0  0  0  0
    8.6610    1.8563    6.0494 C   0  0  0  0  0  0  0  0  0  0  0  0
    7.5972    2.5602    5.4630 C   0  0  0  0  0  0  0  0  0  0  0  0
    6.7670    3.6877    5.9892 C   0  0  0  0  0  0  0  0  0  0  0  0
    7.0748    4.5227    7.0144 C   0  0  0  0  0  0  0  0  0  0  0  0
    6.2729    5.6629    7.3662 C   0  0  0  0  0  0  0  0  0  0  0  0
    5.6355    6.5815    7.6767 N   0  0  0  0  0  0  0  0  0  0  0  0
    8.2862    4.3926    7.7843 C   0  0  0  0  0  0  0  0  0  0  0  0
    9.2553    4.3068    8.4136 N   0  0  0  0  0  0  0  0  0  0  0  0
    3.1999    3.9491    4.5031 C   0  0  0  0  0  0  0  0  0  0  0  0
    2.0816    4.9963    3.7468 S   0  0  0  0  0  0  0  0  0  0  0  0
    1.1278    3.7103    3.2222 C   0  0  0  0  0  0  0  0  0  0  0  0
   -0.0655    3.4743    2.4579 C   0  0  0  0  0  0  0  0  0  0  0  0
   -0.3061    2.1213    2.4421 C   0  0  0  0  0  0  0  0  0  0  0  0
    0.8983    1.3467    2.9902 C   0  0  0  0  0  0  0  0  0  0  0  0
    1.6208    2.5158    3.6310 C   0  0  0  0  0  0  0  0  0  0  0  0
    2.7951    2.6153    4.3558 C   0  0  0  0  0  0  0  0  0  0  0  0
    1.8587    0.8400    1.8899 C   0  0  0  0  0  0  0  0  0  0  0  0
    1.8176    1.3467    0.5702 C   0  0  0  0  0  0  0  0  0  0  0  0
    2.8399    1.0732   -0.3384 C   0  0  0  0  0  0  0  0  0  0  0  0
    3.9345    0.2949    0.0368 C   0  0  0  0  0  0  0  0  0  0  0  0
    5.0741    0.0816   -0.9201 C   0  0  0  0  0  0  0  0  0  0  0  0
    6.0764    1.2322   -0.8277 C   0  0  0  0  0  0  0  0  0  0  0  0
    3.9961   -0.2164    1.3451 C   0  0  0  0  0  0  0  0  0  0  0  0
    2.9750    0.0570    2.2588 C   0  0  0  0  0  0  0  0  0  0  0  0
    0.4640    0.2644    3.9801 C   0  0  0  0  0  0  0  0  0  0  0  0
    0.1453    0.5832    5.3178 C   0  0  0  0  0  0  0  0  0  0  0  0
   -0.2729   -0.4141    6.2079 C   0  0  0  0  0  0  0  0  0  0  0  0
   -0.4218   -1.7412    5.7685 C   0  0  0  0  0  0  0  0  0  0  0  0
   -0.8676   -2.8226    6.7186 C   0  0  0  0  0  0  0  0  0  0  0  0
    0.3211   -3.6150    7.2534 C   0  0  0  0  0  0  0  0  0  0  0  0
   -0.1346   -2.0581    4.4338 C   0  0  0  0  0  0  0  0  0  0  0  0
    0.2987   -1.0681    3.5519 C   0  0  0  0  0  0  0  0  0  0  0  0
   -1.3272    1.7815    1.5512 C   0  0  0  0  0  0  0  0  0  0  0  0
   -1.9896    0.5497    1.4544 C   0  0  0  0  0  0  0  0  0  0  0  0
   -3.0349    0.4664    0.5339 C   0  0  0  0  0  0  0  0  0  0  0  0
   -4.0422   -0.8528    0.2647 S   0  0  0  0  0  0  0  0  0  0  0  0
   -4.8395   -0.1113   -1.0243 C   0  0  0  0  0  0  0  0  0  0  0  0
   -5.3488   -0.7111   -2.2204 C   0  0  0  0  0  0  0  0  0  0  0  0
   -4.9428    0.0113   -3.3007 C   0  0  0  0  0  0  0  0  0  0  0  0
   -4.1177    1.2262   -2.8764 C   0  0  0  0  0  0  0  0  0  0  0  0
   -4.7598    2.4833   -3.4712 C   0  0  0  0  0  0  0  0  0  0  0  0
   -4.7878    2.6416   -4.8722 C   0  0  0  0  0  0  0  0  0  0  0  0
   -5.3820    3.7663   -5.4524 C   0  0  0  0  0  0  0  0  0  0  0  0
   -5.9951    4.7431   -4.6477 C   0  0  0  0  0  0  0  0  0  0  0  0
   -6.6239    5.9670   -5.2699 C   0  0  0  0  0  0  0  0  0  0  0  0
   -7.6922    5.6022   -6.3042 C   0  0  0  0  0  0  0  0  0  0  0  0
   -5.9188    4.6180   -3.2549 C   0  0  0  0  0  0  0  0  0  0  0  0
   -5.2990    3.5062   -2.6687 C   0  0  0  0  0  0  0  0  0  0  0  0
   -2.6336    1.0366   -3.2557 C   0  0  0  0  0  0  0  0  0  0  0  0
   -1.8118    2.1328   -3.5936 C   0  0  0  0  0  0  0  0  0  0  0  0
   -0.4403    1.9619   -3.8117 C   0  0  0  0  0  0  0  0  0  0  0  0
    0.1548    0.6945   -3.6701 C   0  0  0  0  0  0  0  0  0  0  0  0
    1.6297    0.4982   -3.9114 C   0  0  0  0  0  0  0  0  0  0  0  0
    1.8773   -0.1144   -5.2852 C   0  0  0  0  0  0  0  0  0  0  0  0
   -0.6484   -0.3902   -3.2922 C   0  0  0  0  0  0  0  0  0  0  0  0
   -2.0173   -0.2225   -3.0768 C   0  0  0  0  0  0  0  0  0  0  0  0
   -4.2453    1.0917   -1.3482 C   0  0  0  0  0  0  0  0  0  0  0  0
   -3.3042    1.4824   -0.3865 C   0  0  0  0  0  0  0  0  0  0  0  0
   -2.6488    2.7226   -0.2898 C   0  0  0  0  0  0  0  0  0  0  0  0
   -1.7232    2.8703    0.7541 C   0  0  0  0  0  0  0  0  0  0  0  0
   -0.8933    4.2770    1.2303 S   0  0  0  0  0  0  0  0  0  0  0  0
   -4.9336   -0.7333   -4.4933 C   0  0  0  0  0  0  0  0  0  0  0  0
   -5.3438   -2.0588   -4.3058 C   0  0  0  0  0  0  0  0  0  0  0  0
   -5.5803   -2.3042   -2.6415 S   0  0  0  0  0  0  0  0  0  0  0  0
   -5.1674   -3.1315   -5.3171 C   0  0  0  0  0  0  0  0  0  0  0  0
   -5.4422   -4.4345   -5.1026 C   0  0  0  0  0  0  0  0  0  0  0  0
   -4.5182   -5.4821   -5.5407 C   0  0  0  0  0  0  0  0  0  0  0  0
   -3.7784   -5.4419   -6.5633 O   0  0  0  0  0  0  0  0  0  0  0  0
   -4.4886   -6.5157   -4.5205 C   0  0  0  0  0  0  0  0  0  0  0  0
   -3.4915   -7.4673   -4.3013 C   0  0  0  0  0  0  0  0  0  0  0  0
   -3.4336   -8.1085   -3.0493 C   0  0  0  0  0  0  0  0  0  0  0  0
   -2.3694   -8.9714   -2.7405 C   0  0  0  0  0  0  0  0  0  0  0  0
   -2.2464   -9.5069   -1.4539 C   0  0  0  0  0  0  0  0  0  0  0  0
   -1.1813  -10.2730   -1.1455 F   0  0  0  0  0  0  0  0  0  0  0  0
   -3.1683   -9.1594   -0.4558 C   0  0  0  0  0  0  0  0  0  0  0  0
   -3.0220   -9.6443    0.7968 F   0  0  0  0  0  0  0  0  0  0  0  0
   -4.2475   -8.3339   -0.7551 C   0  0  0  0  0  0  0  0  0  0  0  0
   -4.3862   -7.7821   -2.0389 C   0  0  0  0  0  0  0  0  0  0  0  0
   -5.4087   -6.8557   -2.3070 C   0  0  0  0  0  0  0  0  0  0  0  0
   -5.4435   -6.2271   -3.5608 C   0  0  0  0  0  0  0  0  0  0  0  0
   -6.2049   -5.0282   -3.9762 C   0  0  0  0  0  0  0  0  0  0  0  0
   -7.4840   -4.7297   -3.6588 C   0  0  0  0  0  0  0  0  0  0  0  0
   -8.2094   -5.4595   -2.6480 C   0  0  0  0  0  0  0  0  0  0  0  0
   -8.7863   -6.0486   -1.8318 N   0  0  0  0  0  0  0  0  0  0  0  0
   -8.1996   -3.6987   -4.3638 C   0  0  0  0  0  0  0  0  0  0  0  0
   -8.7808   -2.8736   -4.9286 N   0  0  0  0  0  0  0  0  0  0  0  0
    4.2145    4.9806    6.1178 H   0  0  0  0  0  0  0  0  0  0  0  0
    7.2264    0.7918    2.5685 H   0  0  0  0  0  0  0  0  0  0  0  0
    8.9384   -0.9973    2.4300 H   0  0  0  0  0  0  0  0  0  0  0  0
   10.6934    0.3213    6.8941 H   0  0  0  0  0  0  0  0  0  0  0  0
    9.0209    2.0941    7.0376 H   0  0  0  0  0  0  0  0  0  0  0  0
    3.3472    1.7675    4.7343 H   0  0  0  0  0  0  0  0  0  0  0  0
    1.0236    2.0020    0.2374 H   0  0  0  0  0  0  0  0  0  0  0  0
    2.8022    1.5270   -1.3234 H   0  0  0  0  0  0  0  0  0  0  0  0
    4.6881    0.0135   -1.9575 H   0  0  0  0  0  0  0  0  0  0  0  0
    5.5860   -0.8814   -0.7061 H   0  0  0  0  0  0  0  0  0  0  0  0
    6.9125    1.0580   -1.5393 H   0  0  0  0  0  0  0  0  0  0  0  0
    5.5828    2.1913   -1.0847 H   0  0  0  0  0  0  0  0  0  0  0  0
    6.4900    1.2989    0.2010 H   0  0  0  0  0  0  0  0  0  0  0  0
    4.8575   -0.7886    1.6700 H   0  0  0  0  0  0  0  0  0  0  0  0
    3.0836   -0.2997    3.2711 H   0  0  0  0  0  0  0  0  0  0  0  0
    0.2263    1.6007    5.6820 H   0  0  0  0  0  0  0  0  0  0  0  0
   -0.5086   -0.1477    7.2302 H   0  0  0  0  0  0  0  0  0  0  0  0
   -1.5665   -3.5151    6.1884 H   0  0  0  0  0  0  0  0  0  0  0  0
   -1.4175   -2.3816    7.5840 H   0  0  0  0  0  0  0  0  0  0  0  0
    0.8550   -4.1395    6.4253 H   0  0  0  0  0  0  0  0  0  0  0  0
   -0.0235   -4.3807    7.9811 H   0  0  0  0  0  0  0  0  0  0  0  0
    1.0370   -2.9342    7.7713 H   0  0  0  0  0  0  0  0  0  0  0  0
   -0.2423   -3.0750    4.0709 H   0  0  0  0  0  0  0  0  0  0  0  0
    0.4938   -1.3524    2.5270 H   0  0  0  0  0  0  0  0  0  0  0  0
   -1.7599   -0.2867    2.1002 H   0  0  0  0  0  0  0  0  0  0  0  0
   -4.3253    1.9111   -5.5220 H   0  0  0  0  0  0  0  0  0  0  0  0
   -5.3575    3.8698   -6.5260 H   0  0  0  0  0  0  0  0  0  0  0  0
   -5.8250    6.5805   -5.7503 H   0  0  0  0  0  0  0  0  0  0  0  0
   -7.1158    6.5880   -4.4876 H   0  0  0  0  0  0  0  0  0  0  0  0
   -8.4477    4.9173   -5.8611 H   0  0  0  0  0  0  0  0  0  0  0  0
   -8.2072    6.5225   -6.6491 H   0  0  0  0  0  0  0  0  0  0  0  0
   -7.2382    5.1104   -7.1899 H   0  0  0  0  0  0  0  0  0  0  0  0
   -6.3263    5.3838   -2.6101 H   0  0  0  0  0  0  0  0  0  0  0  0
   -5.2518    3.4602   -1.5916 H   0  0  0  0  0  0  0  0  0  0  0  0
   -2.2193    3.1356   -3.6696 H   0  0  0  0  0  0  0  0  0  0  0  0
    0.1724    2.8251   -4.0639 H   0  0  0  0  0  0  0  0  0  0  0  0
    2.1626    1.4719   -3.8426 H   0  0  0  0  0  0  0  0  0  0  0  0
    2.0567   -0.1625   -3.1258 H   0  0  0  0  0  0  0  0  0  0  0  0
    1.3322   -1.0812   -5.3948 H   0  0  0  0  0  0  0  0  0  0  0  0
    2.9601   -0.3125   -5.4128 H   0  0  0  0  0  0  0  0  0  0  0  0
    1.5414    0.5881   -6.0793 H   0  0  0  0  0  0  0  0  0  0  0  0
   -0.2068   -1.3649   -3.1428 H   0  0  0  0  0  0  0  0  0  0  0  0
   -2.5817   -1.0791   -2.7443 H   0  0  0  0  0  0  0  0  0  0  0  0
   -2.8727    3.5467   -0.9556 H   0  0  0  0  0  0  0  0  0  0  0  0
   -4.4928   -0.3756   -5.4206 H   0  0  0  0  0  0  0  0  0  0  0  0
   -4.5458   -2.8783   -6.1698 H   0  0  0  0  0  0  0  0  0  0  0  0
   -2.7251   -7.6346   -5.0530 H   0  0  0  0  0  0  0  0  0  0  0  0
   -1.6227   -9.2119   -3.4901 H   0  0  0  0  0  0  0  0  0  0  0  0
   -4.9374   -8.0596    0.0400 H   0  0  0  0  0  0  0  0  0  0  0  0
   -6.0988   -6.5652   -1.5297 H   0  0  0  0  0  0  0  0  0  0  0  0
  1  2  2  3
  2  3  1  0
  3  4  2  0
  3  5  1  0
  5  6  2  0
  6  7  1  0
  7  8  2  0
  8  9  1  0
  9 10  1  0
  9 11  2  0
 11 12  1  0
 11 13  1  0
 13 14  2  0
 14 15  1  0
 15 16  2  0
 16 17  1  0
 17 18  2  3
 18 19  1  0
 19 20  3  0
 18 21  1  0
 21 22  3  0
  1 23  1  0
 23 24  1  0
 24 25  1  0
 25 26  1  0
 26 27  2  0
 27 28  1  0
 28 29  1  0
 29 30  1  0
 28 31  1  0
 31 32  2  0
 32 33  1  0
 33 34  2  0
 34 35  1  0
 35 36  1  0
 34 37  1  0
 37 38  2  0
 28 39  1  0
 39 40  2  0
 40 41  1  0
 41 42  2  0
 42 43  1  0
 43 44  1  0
 42 45  1  0
 45 46  2  0
 27 47  1  0
 47 48  2  0
 48 49  1  0
 49 50  1  0
 50 51  1  0
 51 52  1  0
 52 53  2  0
 53 54  1  0
 54 55  1  0
 55 56  2  0
 56 57  1  0
 57 58  2  0
 58 59  1  0
 59 60  1  0
 58 61  1  0
 61 62  2  0
 54 63  1  0
 63 64  2  0
 64 65  1  0
 65 66  2  0
 66 67  1  0
 67 68  1  0
 66 69  1  0
 69 70  2  0
 54 71  1  0
 71 72  1  0
 72 73  1  0
 73 74  2  0
 74 75  1  0
 53 76  1  0
 76 77  2  0
 77 78  1  0
 77 79  1  0
 79 80  2  3
 80 81  1  0
 81 82  2  0
 81 83  1  0
 83 84  2  0
 84 85  1  0
 85 86  2  0
 86 87  1  0
 87 88  1  0
 87 89  2  0
 89 90  1  0
 89 91  1  0
 91 92  2  0
 92 93  1  0
 93 94  2  0
 94 95  1  0
 95 96  2  3
 96 97  1  0
 97 98  3  0
 96 99  1  0
 99100  3  0
 17  2  1  0
 30 23  2  0
 38 31  1  0
 46 39  1  0
 74 47  1  0
 95 80  1  0
 16  5  1  0
 29 25  2  0
 72 49  2  0
 94 83  1  0
 14  7  1  0
 75 26  1  0
 92 85  1  0
 71 51  2  0
 78 52  1  0
 62 55  1  0
 70 63  1  0
  1101  1  0
  6102  1  0
  8103  1  0
 13104  1  0
 15105  1  0
 30106  1  0
 32107  1  0
 33108  1  0
 35109  1  0
 35110  1  0
 36111  1  0
 36112  1  0
 36113  1  0
 37114  1  0
 38115  1  0
 40116  1  0
 41117  1  0
 43118  1  0
 43119  1  0
 44120  1  0
 44121  1  0
 44122  1  0
 45123  1  0
 46124  1  0
 48125  1  0
 56126  1  0
 57127  1  0
 59128  1  0
 59129  1  0
 60130  1  0
 60131  1  0
 60132  1  0
 61133  1  0
 62134  1  0
 64135  1  0
 65136  1  0
 67137  1  0
 67138  1  0
 68139  1  0
 68140  1  0
 68141  1  0
 69142  1  0
 70143  1  0
 73144  1  0
 76145  1  0
 79146  1  0
 84147  1  0
 86148  1  0
 91149  1  0
 93150  1  0
M  END

