
     RDKit          3D

107119  0  0  0  0  0  0  0  0999 V2000
    7.3548   -0.4493    2.0806 C   0  0  0  0  0  0  0  0  0  0  0  0
    7.6660   -0.7581    3.3563 C   0  0  0  0  0  0  0  0  0  0  0  0
    6.7858   -1.4279    4.3203 C   0  0  0  0  0  0  0  0  0  0  0  0
    5.8174   -2.1863    4.0492 O   0  0  0  0  0  0  0  0  0  0  0  0
    7.2806   -1.1588    5.6511 C   0  0  0  0  0  0  0  0  0  0  0  0
    6.6530   -1.4357    6.8655 C   0  0  0  0  0  0  0  0  0  0  0  0
    7.2542   -0.9825    8.0505 C   0  0  0  0  0  0  0  0  0  0  0  0
    6.6386   -1.2072    9.2915 C   0  0  0  0  0  0  0  0  0  0  0  0
    7.2385   -0.7454   10.4670 C   0  0  0  0  0  0  0  0  0  0  0  0
    6.6343   -0.9628   11.6634 F   0  0  0  0  0  0  0  0  0  0  0  0
    8.4540   -0.0555   10.4115 C   0  0  0  0  0  0  0  0  0  0  0  0
    9.0374    0.3770   11.5574 F   0  0  0  0  0  0  0  0  0  0  0  0
    9.0712    0.1900    9.1800 C   0  0  0  0  0  0  0  0  0  0  0  0
    8.4835   -0.2658    7.9904 C   0  0  0  0  0  0  0  0  0  0  0  0
    9.0896   -0.0008    6.7453 C   0  0  0  0  0  0  0  0  0  0  0  0
    8.4759   -0.4642    5.5713 C   0  0  0  0  0  0  0  0  0  0  0  0
    8.8496   -0.2816    4.1373 C   0  0  0  0  0  0  0  0  0  0  0  0
   10.0735    0.0548    3.6502 C   0  0  0  0  0  0  0  0  0  0  0  0
   10.4039   -0.0442    2.2530 C   0  0  0  0  0  0  0  0  0  0  0  0
   10.6837   -0.1262    1.1340 N   0  0  0  0  0  0  0  0  0  0  0  0
   11.1764    0.4144    4.5024 C   0  0  0  0  0  0  0  0  0  0  0  0
   12.0757    0.7071    5.1732 N   0  0  0  0  0  0  0  0  0  0  0  0
    6.0409   -0.7020    1.4629 C   0  0  0  0  0  0  0  0  0  0  0  0
    5.8431   -1.2986   -0.1301 S   0  0  0  0  0  0  0  0  0  0  0  0
    4.1746   -1.2043   -0.0307 C   0  0  0  0  0  0  0  0  0  0  0  0
    3.0682   -1.6977   -0.6524 C   0  0  0  0  0  0  0  0  0  0  0  0
    2.6667   -2.6421   -2.0008 S   0  0  0  0  0  0  0  0  0  0  0  0
    1.0646   -2.7526   -1.4212 C   0  0  0  0  0  0  0  0  0  0  0  0
   -0.1536   -2.9767   -1.9975 C   0  0  0  0  0  0  0  0  0  0  0  0
   -0.4962   -3.2844   -3.3266 C   0  0  0  0  0  0  0  0  0  0  0  0
   -1.8499   -3.1042   -3.7457 C   0  0  0  0  0  0  0  0  0  0  0  0
   -2.1380   -3.3737   -5.0439 N   0  0  0  0  0  0  0  0  0  0  0  0
   -0.6306   -3.8114   -5.5728 S   0  0  0  0  0  0  0  0  0  0  0  0
    0.3886   -3.6885   -4.2702 N   0  0  0  0  0  0  0  0  0  0  0  0
   -2.7887   -2.6695   -2.8039 C   0  0  0  0  0  0  0  0  0  0  0  0
   -4.1245   -2.4053   -2.8770 C   0  0  0  0  0  0  0  0  0  0  0  0
   -5.3257   -2.2605   -4.0299 S   0  0  0  0  0  0  0  0  0  0  0  0
   -6.4754   -1.7590   -2.8666 C   0  0  0  0  0  0  0  0  0  0  0  0
   -5.9141   -1.7363   -1.5696 C   0  0  0  0  0  0  0  0  0  0  0  0
   -6.6429   -1.2420   -0.3445 C   0  0  0  0  0  0  0  0  0  0  0  0
   -6.2131    0.1762    0.0258 C   0  0  0  0  0  0  0  0  0  0  0  0
   -4.5583   -2.0958   -1.6346 C   0  0  0  0  0  0  0  0  0  0  0  0
   -3.5553   -2.1574   -0.7149 N   0  0  0  0  0  0  0  0  0  0  0  0
   -2.4490   -2.4205   -1.4740 C   0  0  0  0  0  0  0  0  0  0  0  0
   -1.0905   -2.4664   -1.0892 C   0  0  0  0  0  0  0  0  0  0  0  0
   -0.4774   -1.7985   -0.0585 N   0  0  0  0  0  0  0  0  0  0  0  0
    0.8448   -2.0854   -0.2430 C   0  0  0  0  0  0  0  0  0  0  0  0
    2.0207   -1.4791    0.2032 C   0  0  0  0  0  0  0  0  0  0  0  0
    2.4280   -0.9185    1.3787 N   0  0  0  0  0  0  0  0  0  0  0  0
    3.7629   -0.7506    1.1773 C   0  0  0  0  0  0  0  0  0  0  0  0
    4.7908   -0.4407    2.0578 C   0  0  0  0  0  0  0  0  0  0  0  0
    1.7698   -0.9478    2.6857 C   0  0  0  0  0  0  0  0  0  0  0  0
    1.4972    0.4667    3.1852 C   0  0  0  0  0  0  0  0  0  0  0  0
   -0.9854   -0.5368    0.5175 C   0  0  0  0  0  0  0  0  0  0  0  0
   -0.4796    0.6826   -0.2555 C   0  0  0  0  0  0  0  0  0  0  0  0
   -3.7058   -2.5110    0.7063 C   0  0  0  0  0  0  0  0  0  0  0  0
   -4.2860   -3.9163    0.8543 C   0  0  0  0  0  0  0  0  0  0  0  0
   -7.8046   -1.2418   -3.2194 C   0  0  0  0  0  0  0  0  0  0  0  0
   -8.0381    0.0573   -3.4584 C   0  0  0  0  0  0  0  0  0  0  0  0
   -9.5654    0.7061   -3.7012 S   0  0  0  0  0  0  0  0  0  0  0  0
   -9.0386    2.3097   -3.8277 C   0  0  0  0  0  0  0  0  0  0  0  0
   -9.8804    3.3627   -3.9912 C   0  0  0  0  0  0  0  0  0  0  0  0
  -11.3034    3.1550   -4.1108 C   0  0  0  0  0  0  0  0  0  0  0  0
  -12.4465    2.9951   -4.2092 N   0  0  0  0  0  0  0  0  0  0  0  0
   -9.4471    4.7358   -4.0098 C   0  0  0  0  0  0  0  0  0  0  0  0
   -9.1062    5.8429   -4.0222 N   0  0  0  0  0  0  0  0  0  0  0  0
   -7.6741    2.3564   -3.7031 N   0  0  0  0  0  0  0  0  0  0  0  0
   -6.8508    3.5332   -3.7675 C   0  0  0  0  0  0  0  0  0  0  0  0
   -6.4122    4.1463   -2.5861 C   0  0  0  0  0  0  0  0  0  0  0  0
   -5.6205    5.2971   -2.6440 C   0  0  0  0  0  0  0  0  0  0  0  0
   -5.2495    5.8312   -3.8814 C   0  0  0  0  0  0  0  0  0  0  0  0
   -5.6665    5.2095   -5.0637 C   0  0  0  0  0  0  0  0  0  0  0  0
   -6.4613    4.0590   -5.0092 C   0  0  0  0  0  0  0  0  0  0  0  0
   -7.1228    1.1174   -3.5069 C   0  0  0  0  0  0  0  0  0  0  0  0
   -5.8770    0.9571   -3.3926 O   0  0  0  0  0  0  0  0  0  0  0  0
    8.0491    0.0849    1.4606 H   0  0  0  0  0  0  0  0  0  0  0  0
    5.7065   -1.9640    6.8808 H   0  0  0  0  0  0  0  0  0  0  0  0
    5.6912   -1.7344    9.3500 H   0  0  0  0  0  0  0  0  0  0  0  0
   10.0080    0.7296    9.1606 H   0  0  0  0  0  0  0  0  0  0  0  0
    9.9878    0.5905    6.7196 H   0  0  0  0  0  0  0  0  0  0  0  0
   -6.4697   -1.9261    0.5066 H   0  0  0  0  0  0  0  0  0  0  0  0
   -7.7385   -1.2459   -0.5245 H   0  0  0  0  0  0  0  0  0  0  0  0
   -6.7177    0.4794    0.9685 H   0  0  0  0  0  0  0  0  0  0  0  0
   -5.1131    0.2281    0.1742 H   0  0  0  0  0  0  0  0  0  0  0  0
   -6.5038    0.8884   -0.7729 H   0  0  0  0  0  0  0  0  0  0  0  0
    4.6435   -0.0710    3.0619 H   0  0  0  0  0  0  0  0  0  0  0  0
    2.4271   -1.4648    3.4175 H   0  0  0  0  0  0  0  0  0  0  0  0
    0.8347   -1.5375    2.6450 H   0  0  0  0  0  0  0  0  0  0  0  0
    2.4402    1.0527    3.2313 H   0  0  0  0  0  0  0  0  0  0  0  0
    0.7884    0.9872    2.5149 H   0  0  0  0  0  0  0  0  0  0  0  0
    1.0628    0.4212    4.2060 H   0  0  0  0  0  0  0  0  0  0  0  0
   -0.7250   -0.4585    1.5829 H   0  0  0  0  0  0  0  0  0  0  0  0
   -2.0864   -0.4868    0.4741 H   0  0  0  0  0  0  0  0  0  0  0  0
   -1.0186    1.5919    0.0879 H   0  0  0  0  0  0  0  0  0  0  0  0
   -0.6642    0.5454   -1.3406 H   0  0  0  0  0  0  0  0  0  0  0  0
    0.6010    0.8403   -0.0820 H   0  0  0  0  0  0  0  0  0  0  0  0
   -2.7214   -2.5184    1.2187 H   0  0  0  0  0  0  0  0  0  0  0  0
   -4.3409   -1.7712    1.2304 H   0  0  0  0  0  0  0  0  0  0  0  0
   -3.6126   -4.6591    0.3718 H   0  0  0  0  0  0  0  0  0  0  0  0
   -5.2879   -3.9812    0.3821 H   0  0  0  0  0  0  0  0  0  0  0  0
   -4.3818   -4.1716    1.9296 H   0  0  0  0  0  0  0  0  0  0  0  0
   -8.6354   -1.9364   -3.2085 H   0  0  0  0  0  0  0  0  0  0  0  0
   -6.6946    3.7416   -1.6245 H   0  0  0  0  0  0  0  0  0  0  0  0
   -5.2931    5.7804   -1.7356 H   0  0  0  0  0  0  0  0  0  0  0  0
   -4.6407    6.7238   -3.9335 H   0  0  0  0  0  0  0  0  0  0  0  0
   -5.3849    5.6193   -6.0278 H   0  0  0  0  0  0  0  0  0  0  0  0
   -6.7904    3.5806   -5.9273 H   0  0  0  0  0  0  0  0  0  0  0  0
  1  2  2  3
  2  3  1  0
  3  4  2  0
  3  5  1  0
  5  6  2  0
  6  7  1  0
  7  8  2  0
  8  9  1  0
  9 10  1  0
  9 11  2  0
 11 12  1  0
 11 13  1  0
 13 14  2  0
 14 15  1  0
 15 16  2  0
 16 17  1  0
 17 18  2  3
 18 19  1  0
 19 20  3  0
 18 21  1  0
 21 22  3  0
  1 23  1  0
 23 24  1  0
 24 25  1  0
 25 26  1  0
 26 27  1  0
 27 28  1  0
 28 29  1  0
 29 30  1  0
 30 31  1  0
 31 32  2  0
 32 33  1  0
 33 34  1  0
 31 35  1  0
 35 36  1  0
 36 37  1  0
 37 38  1  0
 38 39  2  0
 39 40  1  0
 40 41  1  0
 39 42  1  0
 42 43  1  0
 43 44  1  0
 44 45  1  0
 45 46  1  0
 46 47  1  0
 47 48  1  0
 48 49  1  0
 49 50  1  0
 50 51  1  0
 49 52  1  0
 52 53  1  0
 46 54  1  0
 54 55  1  0
 43 56  1  0
 56 57  1  0
 38 58  1  0
 58 59  2  3
 59 60  1  0
 60 61  1  0
 61 62  2  3
 62 63  1  0
 63 64  3  0
 62 65  1  0
 65 66  3  0
 61 67  1  0
 67 68  1  0
 68 69  2  0
 69 70  1  0
 70 71  2  0
 71 72  1  0
 72 73  2  0
 67 74  1  0
 74 75  2  0
 17  2  1  0
 51 23  2  0
 74 59  1  0
 16  5  1  0
 50 25  2  0
 73 68  1  0
 14  7  1  0
 48 26  2  0
 47 28  2  0
 45 29  2  0
 34 30  2  0
 44 35  2  0
 42 36  2  0
  1 76  1  0
  6 77  1  0
  8 78  1  0
 13 79  1  0
 15 80  1  0
 40 81  1  0
 40 82  1  0
 41 83  1  0
 41 84  1  0
 41 85  1  0
 51 86  1  0
 52 87  1  0
 52 88  1  0
 53 89  1  0
 53 90  1  0
 53 91  1  0
 54 92  1  0
 54 93  1  0
 55 94  1  0
 55 95  1  0
 55 96  1  0
 56 97  1  0
 56 98  1  0
 57 99  1  0
 57100  1  0
 57101  1  0
 58102  1  0
 69103  1  0
 70104  1  0
 71105  1  0
 72106  1  0
 73107  1  0
M  END

