
     RDKit          3D

179198  0  0  0  0  0  0  0  0999 V2000
    2.9195   -6.6878   -3.8041 C   0  0  0  0  0  0  0  0  0  0  0  0
    3.9265   -7.5716   -3.9316 C   0  0  0  0  0  0  0  0  0  0  0  0
    4.6878   -8.1651   -2.8236 C   0  0  0  0  0  0  0  0  0  0  0  0
    4.7623   -7.7356   -1.6408 O   0  0  0  0  0  0  0  0  0  0  0  0
    5.3044   -9.3876   -3.2907 C   0  0  0  0  0  0  0  0  0  0  0  0
    6.0577  -10.2988   -2.5561 C   0  0  0  0  0  0  0  0  0  0  0  0
    6.5219  -11.4586   -3.1966 C   0  0  0  0  0  0  0  0  0  0  0  0
    7.2756  -12.4065   -2.4904 C   0  0  0  0  0  0  0  0  0  0  0  0
    7.7155  -13.5710   -3.1288 C   0  0  0  0  0  0  0  0  0  0  0  0
    8.4234  -14.4928   -2.4328 F   0  0  0  0  0  0  0  0  0  0  0  0
    7.4138  -13.7922   -4.4764 C   0  0  0  0  0  0  0  0  0  0  0  0
    7.8347  -14.9270   -5.0861 F   0  0  0  0  0  0  0  0  0  0  0  0
    6.6640  -12.8540   -5.1942 C   0  0  0  0  0  0  0  0  0  0  0  0
    6.2160  -11.6799   -4.5694 C   0  0  0  0  0  0  0  0  0  0  0  0
    5.4596  -10.7320   -5.2875 C   0  0  0  0  0  0  0  0  0  0  0  0
    5.0067   -9.5747   -4.6314 C   0  0  0  0  0  0  0  0  0  0  0  0
    4.2104   -8.4160   -5.1337 C   0  0  0  0  0  0  0  0  0  0  0  0
    3.9229   -8.1021   -6.4266 C   0  0  0  0  0  0  0  0  0  0  0  0
    3.4119   -6.8137   -6.8080 C   0  0  0  0  0  0  0  0  0  0  0  0
    3.0139   -5.7726   -7.1258 N   0  0  0  0  0  0  0  0  0  0  0  0
    4.1370   -9.0119   -7.5226 C   0  0  0  0  0  0  0  0  0  0  0  0
    4.2850   -9.7403   -8.4136 N   0  0  0  0  0  0  0  0  0  0  0  0
    2.5437   -6.0490   -2.5359 C   0  0  0  0  0  0  0  0  0  0  0  0
    3.3665   -5.2653   -1.7122 C   0  0  0  0  0  0  0  0  0  0  0  0
    2.6642   -4.7950   -0.5977 C   0  0  0  0  0  0  0  0  0  0  0  0
    2.9731   -3.8024    0.5161 C   0  0  0  0  0  0  0  0  0  0  0  0
    3.3287   -2.4056   -0.0150 C   0  0  0  0  0  0  0  0  0  0  0  0
    4.0914   -1.5138    0.7701 C   0  0  0  0  0  0  0  0  0  0  0  0
    4.2811   -0.1888    0.3751 C   0  0  0  0  0  0  0  0  0  0  0  0
    3.7033    0.2853   -0.8104 C   0  0  0  0  0  0  0  0  0  0  0  0
    3.8255    1.7355   -1.1885 C   0  0  0  0  0  0  0  0  0  0  0  0
    2.6323    2.5315   -0.6721 C   0  0  0  0  0  0  0  0  0  0  0  0
    2.9249   -0.5818   -1.5891 C   0  0  0  0  0  0  0  0  0  0  0  0
    2.7322   -1.9079   -1.1930 C   0  0  0  0  0  0  0  0  0  0  0  0
    4.0645   -4.4096    1.4042 C   0  0  0  0  0  0  0  0  0  0  0  0
    3.7897   -4.9766    2.6645 C   0  0  0  0  0  0  0  0  0  0  0  0
    4.8092   -5.5766    3.4117 C   0  0  0  0  0  0  0  0  0  0  0  0
    6.1164   -5.6391    2.9058 C   0  0  0  0  0  0  0  0  0  0  0  0
    7.2160   -6.2984    3.6949 C   0  0  0  0  0  0  0  0  0  0  0  0
    8.1549   -5.2617    4.3048 C   0  0  0  0  0  0  0  0  0  0  0  0
    6.3977   -5.0745    1.6560 C   0  0  0  0  0  0  0  0  0  0  0  0
    5.3842   -4.4732    0.9120 C   0  0  0  0  0  0  0  0  0  0  0  0
    1.5780   -3.7398    1.1592 C   0  0  0  0  0  0  0  0  0  0  0  0
    0.6667   -4.5299    0.4801 C   0  0  0  0  0  0  0  0  0  0  0  0
    1.3632   -5.1860   -0.5809 C   0  0  0  0  0  0  0  0  0  0  0  0
    0.9512   -6.0740   -1.9346 S   0  0  0  0  0  0  0  0  0  0  0  0
   -0.8977   -3.8954    0.5225 S   0  0  0  0  0  0  0  0  0  0  0  0
   -0.4305   -2.6375    1.5503 C   0  0  0  0  0  0  0  0  0  0  0  0
    0.9131   -2.7021    1.8156 C   0  0  0  0  0  0  0  0  0  0  0  0
    1.3959   -1.3552    2.7058 S   0  0  0  0  0  0  0  0  0  0  0  0
   -0.1649   -0.6616    2.7309 C   0  0  0  0  0  0  0  0  0  0  0  0
   -0.5687    0.5719    3.2945 C   0  0  0  0  0  0  0  0  0  0  0  0
    0.2778    1.2880    4.2775 C   0  0  0  0  0  0  0  0  0  0  0  0
   -0.1589    1.7123    5.5329 C   0  0  0  0  0  0  0  0  0  0  0  0
    0.8546    2.2683    6.3244 C   0  0  0  0  0  0  0  0  0  0  0  0
    2.0913    2.2906    5.6910 C   0  0  0  0  0  0  0  0  0  0  0  0
    3.3761    2.7358    6.3197 C   0  0  0  0  0  0  0  0  0  0  0  0
    3.9852    1.6097    7.1483 C   0  0  0  0  0  0  0  0  0  0  0  0
    1.9332    1.6013    4.1614 S   0  0  0  0  0  0  0  0  0  0  0  0
   -1.8855    1.0014    3.0047 C   0  0  0  0  0  0  0  0  0  0  0  0
   -2.7609    0.1883    2.2558 C   0  0  0  0  0  0  0  0  0  0  0  0
   -2.3773   -1.0579    1.7473 C   0  0  0  0  0  0  0  0  0  0  0  0
   -3.2660   -1.7838    0.8318 C   0  0  0  0  0  0  0  0  0  0  0  0
   -3.2205   -1.7112   -0.5540 C   0  0  0  0  0  0  0  0  0  0  0  0
   -4.1887   -2.5079   -1.1771 C   0  0  0  0  0  0  0  0  0  0  0  0
   -5.0056   -3.1810   -0.2741 C   0  0  0  0  0  0  0  0  0  0  0  0
   -6.0636   -4.1715   -0.6328 C   0  0  0  0  0  0  0  0  0  0  0  0
   -5.4664   -5.5666   -0.7661 C   0  0  0  0  0  0  0  0  0  0  0  0
   -4.5125   -2.8126    1.2932 S   0  0  0  0  0  0  0  0  0  0  0  0
   -1.0598   -1.4793    2.0084 C   0  0  0  0  0  0  0  0  0  0  0  0
   -4.1803    1.0318    1.8669 S   0  0  0  0  0  0  0  0  0  0  0  0
   -3.6990    2.4289    2.6583 C   0  0  0  0  0  0  0  0  0  0  0  0
   -4.0823    3.7555    2.4895 C   0  0  0  0  0  0  0  0  0  0  0  0
   -3.1496    4.6258    3.0293 C   0  0  0  0  0  0  0  0  0  0  0  0
   -1.7622    3.7913    3.5395 S   0  0  0  0  0  0  0  0  0  0  0  0
   -2.4508    2.2682    3.2189 C   0  0  0  0  0  0  0  0  0  0  0  0
   -3.3274    5.8970    2.3808 C   0  0  0  0  0  0  0  0  0  0  0  0
   -2.5275    7.3651    2.2679 S   0  0  0  0  0  0  0  0  0  0  0  0
   -3.5551    7.9229    1.0197 C   0  0  0  0  0  0  0  0  0  0  0  0
   -4.5075    6.9508    0.7014 C   0  0  0  0  0  0  0  0  0  0  0  0
   -4.3386    5.8061    1.4754 C   0  0  0  0  0  0  0  0  0  0  0  0
   -4.9110    4.4105    1.3851 C   0  0  0  0  0  0  0  0  0  0  0  0
   -4.5740    3.8656   -0.0144 C   0  0  0  0  0  0  0  0  0  0  0  0
   -3.2714    3.4102   -0.3206 C   0  0  0  0  0  0  0  0  0  0  0  0
   -2.9814    2.8451   -1.5613 C   0  0  0  0  0  0  0  0  0  0  0  0
   -3.9649    2.7775   -2.5558 C   0  0  0  0  0  0  0  0  0  0  0  0
   -3.6502    2.1382   -3.8797 C   0  0  0  0  0  0  0  0  0  0  0  0
   -2.9555    3.1205   -4.8178 C   0  0  0  0  0  0  0  0  0  0  0  0
   -5.2190    3.3591   -2.3166 C   0  0  0  0  0  0  0  0  0  0  0  0
   -5.5142    3.9131   -1.0654 C   0  0  0  0  0  0  0  0  0  0  0  0
   -6.3898    4.3156    1.7729 C   0  0  0  0  0  0  0  0  0  0  0  0
   -7.0373    5.3411    2.4959 C   0  0  0  0  0  0  0  0  0  0  0  0
   -8.3695    5.2034    2.8963 C   0  0  0  0  0  0  0  0  0  0  0  0
   -9.0802    4.0270    2.6107 C   0  0  0  0  0  0  0  0  0  0  0  0
  -10.5167    3.8777    3.0243 C   0  0  0  0  0  0  0  0  0  0  0  0
  -11.4523    4.4005    1.9372 C   0  0  0  0  0  0  0  0  0  0  0  0
   -8.4414    2.9992    1.9055 C   0  0  0  0  0  0  0  0  0  0  0  0
   -7.1063    3.1298    1.5139 C   0  0  0  0  0  0  0  0  0  0  0  0
   -3.5399    9.2716    0.4329 C   0  0  0  0  0  0  0  0  0  0  0  0
   -2.4458    9.8591   -0.0921 C   0  0  0  0  0  0  0  0  0  0  0  0
   -1.0987    9.2769   -0.1335 C   0  0  0  0  0  0  0  0  0  0  0  0
   -0.8136    8.0509   -0.1302 O   0  0  0  0  0  0  0  0  0  0  0  0
   -0.1518   10.3550   -0.3177 C   0  0  0  0  0  0  0  0  0  0  0  0
    1.2366   10.3036   -0.2336 C   0  0  0  0  0  0  0  0  0  0  0  0
    1.9646   11.5049   -0.2992 C   0  0  0  0  0  0  0  0  0  0  0  0
    3.4572   11.4577   -0.1448 C   0  0  0  0  0  0  0  0  0  0  0  0
    1.2710   12.7320   -0.4310 C   0  0  0  0  0  0  0  0  0  0  0  0
    1.9492   13.9065   -0.4339 F   0  0  0  0  0  0  0  0  0  0  0  0
   -0.1299   12.7548   -0.5170 C   0  0  0  0  0  0  0  0  0  0  0  0
   -0.8390   11.5443   -0.4936 C   0  0  0  0  0  0  0  0  0  0  0  0
   -2.3008   11.2899   -0.4930 C   0  0  0  0  0  0  0  0  0  0  0  0
   -3.2651   12.1069   -0.9947 C   0  0  0  0  0  0  0  0  0  0  0  0
   -4.6240   11.6732   -1.1733 C   0  0  0  0  0  0  0  0  0  0  0  0
   -5.7193   11.3328   -1.3258 N   0  0  0  0  0  0  0  0  0  0  0  0
   -2.9779   13.4170   -1.5154 C   0  0  0  0  0  0  0  0  0  0  0  0
   -2.7760   14.4753   -1.9457 N   0  0  0  0  0  0  0  0  0  0  0  0
    2.2173   -6.5610   -4.6108 H   0  0  0  0  0  0  0  0  0  0  0  0
    6.2632  -10.1169   -1.5098 H   0  0  0  0  0  0  0  0  0  0  0  0
    7.5182  -12.2561   -1.4462 H   0  0  0  0  0  0  0  0  0  0  0  0
    6.4355  -13.0401   -6.2365 H   0  0  0  0  0  0  0  0  0  0  0  0
    5.2298  -10.9258   -6.3192 H   0  0  0  0  0  0  0  0  0  0  0  0
    4.3955   -5.0233   -1.9309 H   0  0  0  0  0  0  0  0  0  0  0  0
    4.5052   -1.8286    1.7181 H   0  0  0  0  0  0  0  0  0  0  0  0
    4.8535    0.4766    1.0100 H   0  0  0  0  0  0  0  0  0  0  0  0
    3.8759    1.8330   -2.2932 H   0  0  0  0  0  0  0  0  0  0  0  0
    4.7645    2.1669   -0.7771 H   0  0  0  0  0  0  0  0  0  0  0  0
    1.6870    2.1387   -1.1052 H   0  0  0  0  0  0  0  0  0  0  0  0
    2.7385    3.5959   -0.9673 H   0  0  0  0  0  0  0  0  0  0  0  0
    2.5783    2.4762    0.4382 H   0  0  0  0  0  0  0  0  0  0  0  0
    2.4449   -0.2229   -2.4904 H   0  0  0  0  0  0  0  0  0  0  0  0
    2.0807   -2.5296   -1.7924 H   0  0  0  0  0  0  0  0  0  0  0  0
    2.7898   -4.9747    3.0757 H   0  0  0  0  0  0  0  0  0  0  0  0
    4.5727   -6.0104    4.3734 H   0  0  0  0  0  0  0  0  0  0  0  0
    6.7934   -6.9279    4.5089 H   0  0  0  0  0  0  0  0  0  0  0  0
    7.7962   -6.9738    3.0285 H   0  0  0  0  0  0  0  0  0  0  0  0
    7.5886   -4.5669    4.9614 H   0  0  0  0  0  0  0  0  0  0  0  0
    8.6614   -4.6805    3.5046 H   0  0  0  0  0  0  0  0  0  0  0  0
    8.9320   -5.7722    4.9135 H   0  0  0  0  0  0  0  0  0  0  0  0
    7.4022   -5.1041    1.2534 H   0  0  0  0  0  0  0  0  0  0  0  0
    5.6298   -4.0507   -0.0535 H   0  0  0  0  0  0  0  0  0  0  0  0
   -1.1782    1.5970    5.8786 H   0  0  0  0  0  0  0  0  0  0  0  0
    0.6887    2.6169    7.3345 H   0  0  0  0  0  0  0  0  0  0  0  0
    3.1876    3.6121    6.9794 H   0  0  0  0  0  0  0  0  0  0  0  0
    4.0950    3.0415    5.5303 H   0  0  0  0  0  0  0  0  0  0  0  0
    3.2831    1.3003    7.9538 H   0  0  0  0  0  0  0  0  0  0  0  0
    4.9283    1.9593    7.6196 H   0  0  0  0  0  0  0  0  0  0  0  0
    4.2062    0.7309    6.5010 H   0  0  0  0  0  0  0  0  0  0  0  0
   -2.4965   -1.1187   -1.0978 H   0  0  0  0  0  0  0  0  0  0  0  0
   -4.2772   -2.5986   -2.2491 H   0  0  0  0  0  0  0  0  0  0  0  0
   -6.5417   -3.8816   -1.5937 H   0  0  0  0  0  0  0  0  0  0  0  0
   -6.8476   -4.1762    0.1533 H   0  0  0  0  0  0  0  0  0  0  0  0
   -4.9560   -5.8611    0.1779 H   0  0  0  0  0  0  0  0  0  0  0  0
   -6.2713   -6.3007   -0.9718 H   0  0  0  0  0  0  0  0  0  0  0  0
   -4.7311   -5.5937   -1.6008 H   0  0  0  0  0  0  0  0  0  0  0  0
   -5.2529    7.0524   -0.0770 H   0  0  0  0  0  0  0  0  0  0  0  0
   -2.4778    3.4631    0.4111 H   0  0  0  0  0  0  0  0  0  0  0  0
   -1.9875    2.4559   -1.7448 H   0  0  0  0  0  0  0  0  0  0  0  0
   -2.9876    1.2568   -3.7215 H   0  0  0  0  0  0  0  0  0  0  0  0
   -4.5819    1.7652   -4.3607 H   0  0  0  0  0  0  0  0  0  0  0  0
   -3.5965    4.0088   -4.9923 H   0  0  0  0  0  0  0  0  0  0  0  0
   -1.9845    3.4414   -4.3901 H   0  0  0  0  0  0  0  0  0  0  0  0
   -2.7638    2.6247   -5.7915 H   0  0  0  0  0  0  0  0  0  0  0  0
   -5.9745    3.3682   -3.0905 H   0  0  0  0  0  0  0  0  0  0  0  0
   -6.4835    4.3660   -0.9161 H   0  0  0  0  0  0  0  0  0  0  0  0
   -6.5207    6.2493    2.7651 H   0  0  0  0  0  0  0  0  0  0  0  0
   -8.8464    6.0096    3.4380 H   0  0  0  0  0  0  0  0  0  0  0  0
  -10.7468    2.8048    3.2210 H   0  0  0  0  0  0  0  0  0  0  0  0
  -10.7042    4.4325    3.9714 H   0  0  0  0  0  0  0  0  0  0  0  0
  -11.2259    3.9158    0.9618 H   0  0  0  0  0  0  0  0  0  0  0  0
  -11.3420    5.5012    1.8362 H   0  0  0  0  0  0  0  0  0  0  0  0
  -12.5022    4.1696    2.2140 H   0  0  0  0  0  0  0  0  0  0  0  0
   -8.9740    2.0852    1.6668 H   0  0  0  0  0  0  0  0  0  0  0  0
   -6.6412    2.3079    0.9895 H   0  0  0  0  0  0  0  0  0  0  0  0
   -4.4649    9.8140    0.5027 H   0  0  0  0  0  0  0  0  0  0  0  0
    1.7375    9.3553   -0.0770 H   0  0  0  0  0  0  0  0  0  0  0  0
    3.9242   12.4523   -0.2967 H   0  0  0  0  0  0  0  0  0  0  0  0
    3.8916   10.7523   -0.8857 H   0  0  0  0  0  0  0  0  0  0  0  0
    3.7048   11.1079    0.8793 H   0  0  0  0  0  0  0  0  0  0  0  0
   -0.6309   13.7088   -0.5524 H   0  0  0  0  0  0  0  0  0  0  0  0
  1  2  2  3
  2  3  1  0
  3  4  2  0
  3  5  1  0
  5  6  2  0
  6  7  1  0
  7  8  2  0
  8  9  1  0
  9 10  1  0
  9 11  2  0
 11 12  1  0
 11 13  1  0
 13 14  2  0
 14 15  1  0
 15 16  2  0
 16 17  1  0
 17 18  2  3
 18 19  1  0
 19 20  3  0
 18 21  1  0
 21 22  3  0
  1 23  1  0
 23 24  2  0
 24 25  1  0
 25 26  1  0
 26 27  1  0
 27 28  2  0
 28 29  1  0
 29 30  2  0
 30 31  1  0
 31 32  1  0
 30 33  1  0
 33 34  2  0
 26 35  1  0
 35 36  2  0
 36 37  1  0
 37 38  2  0
 38 39  1  0
 39 40  1  0
 38 41  1  0
 41 42  2  0
 26 43  1  0
 43 44  2  0
 44 45  1  0
 45 46  1  0
 44 47  1  0
 47 48  1  0
 48 49  2  0
 49 50  1  0
 50 51  1  0
 51 52  2  0
 52 53  1  0
 53 54  2  0
 54 55  1  0
 55 56  2  0
 56 57  1  0
 57 58  1  0
 56 59  1  0
 52 60  1  0
 60 61  2  0
 61 62  1  0
 62 63  1  0
 63 64  2  0
 64 65  1  0
 65 66  2  0
 66 67  1  0
 67 68  1  0
 66 69  1  0
 62 70  2  0
 61 71  1  0
 71 72  1  0
 72 73  1  0
 73 74  2  0
 74 75  1  0
 75 76  1  0
 74 77  1  0
 77 78  1  0
 78 79  1  0
 79 80  2  0
 80 81  1  0
 81 82  1  0
 82 83  1  0
 83 84  2  0
 84 85  1  0
 85 86  2  0
 86 87  1  0
 87 88  1  0
 86 89  1  0
 89 90  2  0
 82 91  1  0
 91 92  2  0
 92 93  1  0
 93 94  2  0
 94 95  1  0
 95 96  1  0
 94 97  1  0
 97 98  2  0
 79 99  1  0
 99100  2  3
100101  1  0
101102  2  0
101103  1  0
103104  2  0
104105  1  0
105106  1  0
105107  2  0
107108  1  0
107109  1  0
109110  2  0
110111  1  0
111112  2  3
112113  1  0
113114  3  0
112115  1  0
115116  3  0
 17  2  1  0
 46 23  1  0
 70 48  1  0
 76 72  2  0
 81 77  2  0
 90 83  1  0
 98 91  1  0
111100  1  0
 16  5  1  0
 45 25  2  0
 70 51  1  0
 82 73  1  0
110103  1  0
 14  7  1  0
 34 27  1  0
 42 35  1  0
 49 43  1  0
 59 53  1  0
 76 60  1  0
 69 63  1  0
  1117  1  0
  6118  1  0
  8119  1  0
 13120  1  0
 15121  1  0
 24122  1  0
 28123  1  0
 29124  1  0
 31125  1  0
 31126  1  0
 32127  1  0
 32128  1  0
 32129  1  0
 33130  1  0
 34131  1  0
 36132  1  0
 37133  1  0
 39134  1  0
 39135  1  0
 40136  1  0
 40137  1  0
 40138  1  0
 41139  1  0
 42140  1  0
 54141  1  0
 55142  1  0
 57143  1  0
 57144  1  0
 58145  1  0
 58146  1  0
 58147  1  0
 64148  1  0
 65149  1  0
 67150  1  0
 67151  1  0
 68152  1  0
 68153  1  0
 68154  1  0
 80155  1  0
 84156  1  0
 85157  1  0
 87158  1  0
 87159  1  0
 88160  1  0
 88161  1  0
 88162  1  0
 89163  1  0
 90164  1  0
 92165  1  0
 93166  1  0
 95167  1  0
 95168  1  0
 96169  1  0
 96170  1  0
 96171  1  0
 97172  1  0
 98173  1  0
 99174  1  0
104175  1  0
106176  1  0
106177  1  0
106178  1  0
109179  1  0
M  END

