
     RDKit          3D

197217  0  0  0  0  0  0  0  0999 V2000
   -8.4092    1.5301   -0.4616 C   0  0  0  0  0  0  0  0  0  0  0  0
   -8.1356    2.2467   -1.5710 C   0  0  0  0  0  0  0  0  0  0  0  0
   -6.8973    2.1490   -2.3563 C   0  0  0  0  0  0  0  0  0  0  0  0
   -5.8294    1.5794   -2.0101 O   0  0  0  0  0  0  0  0  0  0  0  0
   -7.0966    2.8258   -3.6160 C   0  0  0  0  0  0  0  0  0  0  0  0
   -6.2230    2.8836   -4.7000 C   0  0  0  0  0  0  0  0  0  0  0  0
   -6.6509    3.5257   -5.8730 C   0  0  0  0  0  0  0  0  0  0  0  0
   -5.8009    3.6109   -6.9860 C   0  0  0  0  0  0  0  0  0  0  0  0
   -6.2348    4.2411   -8.1553 C   0  0  0  0  0  0  0  0  0  0  0  0
   -5.4046    4.3235   -9.2245 F   0  0  0  0  0  0  0  0  0  0  0  0
   -7.5219    4.7877   -8.2250 C   0  0  0  0  0  0  0  0  0  0  0  0
   -7.9363    5.3993   -9.3628 F   0  0  0  0  0  0  0  0  0  0  0  0
   -8.3835    4.7014   -7.1282 C   0  0  0  0  0  0  0  0  0  0  0  0
   -7.9603    4.0776   -5.9437 C   0  0  0  0  0  0  0  0  0  0  0  0
   -8.8229    3.9921   -4.8307 C   0  0  0  0  0  0  0  0  0  0  0  0
   -8.3619    3.3851   -3.6492 C   0  0  0  0  0  0  0  0  0  0  0  0
   -9.0503    3.1513   -2.3429 C   0  0  0  0  0  0  0  0  0  0  0  0
  -10.1571    3.7933   -1.8838 C   0  0  0  0  0  0  0  0  0  0  0  0
  -10.6548    3.6259   -0.5435 C   0  0  0  0  0  0  0  0  0  0  0  0
  -11.0710    3.5008    0.5312 N   0  0  0  0  0  0  0  0  0  0  0  0
  -10.8554    4.7843   -2.6596 C   0  0  0  0  0  0  0  0  0  0  0  0
  -11.4243    5.5877   -3.2687 N   0  0  0  0  0  0  0  0  0  0  0  0
   -7.4462    0.5872    0.1157 C   0  0  0  0  0  0  0  0  0  0  0  0
   -7.1353   -0.6558   -0.4189 C   0  0  0  0  0  0  0  0  0  0  0  0
   -5.9894   -1.2215    0.1588 C   0  0  0  0  0  0  0  0  0  0  0  0
   -5.4093   -2.4271   -0.2477 C   0  0  0  0  0  0  0  0  0  0  0  0
   -6.0268   -3.2257   -1.2164 O   0  0  0  0  0  0  0  0  0  0  0  0
   -6.5185   -4.5318   -0.9227 C   0  0  0  0  0  0  0  0  0  0  0  0
   -7.7729   -4.4471   -0.0587 C   0  0  0  0  0  0  0  0  0  0  0  0
   -4.1872   -2.7802    0.3335 C   0  0  0  0  0  0  0  0  0  0  0  0
   -3.1509   -4.0308   -0.1663 S   0  0  0  0  0  0  0  0  0  0  0  0
   -1.9914   -3.6385    0.9819 C   0  0  0  0  0  0  0  0  0  0  0  0
   -0.6001   -3.9482    1.1522 C   0  0  0  0  0  0  0  0  0  0  0  0
   -0.1294   -3.1124    2.1712 C   0  0  0  0  0  0  0  0  0  0  0  0
   -1.1514   -2.0181    2.5122 C   0  0  0  0  0  0  0  0  0  0  0  0
   -2.3419   -2.5462    1.7229 C   0  0  0  0  0  0  0  0  0  0  0  0
   -3.5884   -2.0083    1.3485 C   0  0  0  0  0  0  0  0  0  0  0  0
   -4.1927   -0.8185    1.8104 C   0  0  0  0  0  0  0  0  0  0  0  0
   -5.4040   -0.4397    1.1680 C   0  0  0  0  0  0  0  0  0  0  0  0
   -6.3225    0.9718    1.3077 S   0  0  0  0  0  0  0  0  0  0  0  0
   -3.5670   -0.1049    2.8488 O   0  0  0  0  0  0  0  0  0  0  0  0
   -4.0817    1.0095    3.5772 C   0  0  0  0  0  0  0  0  0  0  0  0
   -3.7113    2.3293    2.9012 C   0  0  0  0  0  0  0  0  0  0  0  0
   -1.3857   -1.9776    4.0358 C   0  0  0  0  0  0  0  0  0  0  0  0
   -0.3784   -1.4924    4.8993 C   0  0  0  0  0  0  0  0  0  0  0  0
   -0.5537   -1.4842    6.2844 C   0  0  0  0  0  0  0  0  0  0  0  0
   -1.7400   -1.9615    6.8499 C   0  0  0  0  0  0  0  0  0  0  0  0
   -1.9137   -1.9767    8.3459 C   0  0  0  0  0  0  0  0  0  0  0  0
   -1.2373   -3.1975    8.9613 C   0  0  0  0  0  0  0  0  0  0  0  0
   -2.7370   -2.4795    6.0127 C   0  0  0  0  0  0  0  0  0  0  0  0
   -2.5624   -2.4947    4.6259 C   0  0  0  0  0  0  0  0  0  0  0  0
   -0.6947   -0.6930    1.8514 C   0  0  0  0  0  0  0  0  0  0  0  0
   -0.3783   -0.6859    0.4704 C   0  0  0  0  0  0  0  0  0  0  0  0
    0.0351    0.4768   -0.1747 C   0  0  0  0  0  0  0  0  0  0  0  0
    0.1827    1.6664    0.5382 C   0  0  0  0  0  0  0  0  0  0  0  0
    0.6414    2.9097   -0.1706 C   0  0  0  0  0  0  0  0  0  0  0  0
   -0.5487    3.7273   -0.6624 C   0  0  0  0  0  0  0  0  0  0  0  0
   -0.1586    1.6959    1.8975 C   0  0  0  0  0  0  0  0  0  0  0  0
   -0.6116    0.5376    2.5424 C   0  0  0  0  0  0  0  0  0  0  0  0
    1.2427   -3.0832    2.4651 C   0  0  0  0  0  0  0  0  0  0  0  0
    2.1076   -3.7621    1.6062 C   0  0  0  0  0  0  0  0  0  0  0  0
    3.5016   -3.4819    1.4490 C   0  0  0  0  0  0  0  0  0  0  0  0
    3.8622   -3.5472    0.1328 C   0  0  0  0  0  0  0  0  0  0  0  0
    2.7618   -4.2674   -0.6589 C   0  0  0  0  0  0  0  0  0  0  0  0
    1.6549   -4.3004    0.4054 C   0  0  0  0  0  0  0  0  0  0  0  0
    0.2744   -4.5022    0.2029 C   0  0  0  0  0  0  0  0  0  0  0  0
    3.2758   -5.6818   -0.9926 C   0  0  0  0  0  0  0  0  0  0  0  0
    4.0198   -5.9145   -2.1642 C   0  0  0  0  0  0  0  0  0  0  0  0
    4.5973   -7.1557   -2.4279 C   0  0  0  0  0  0  0  0  0  0  0  0
    4.4722   -8.2032   -1.5089 C   0  0  0  0  0  0  0  0  0  0  0  0
    5.1020   -9.5408   -1.7942 C   0  0  0  0  0  0  0  0  0  0  0  0
    4.1640  -10.4190   -2.6139 C   0  0  0  0  0  0  0  0  0  0  0  0
    3.7308   -7.9973   -0.3381 C   0  0  0  0  0  0  0  0  0  0  0  0
    3.1541   -6.7496   -0.0730 C   0  0  0  0  0  0  0  0  0  0  0  0
    2.2285   -3.4668   -1.8578 C   0  0  0  0  0  0  0  0  0  0  0  0
    2.2302   -2.0534   -1.8491 C   0  0  0  0  0  0  0  0  0  0  0  0
    1.7131   -1.3339   -2.9283 C   0  0  0  0  0  0  0  0  0  0  0  0
    1.1149   -1.9994   -4.0057 C   0  0  0  0  0  0  0  0  0  0  0  0
    0.5074   -1.2183   -5.1414 C   0  0  0  0  0  0  0  0  0  0  0  0
   -1.0018   -1.0878   -4.9596 C   0  0  0  0  0  0  0  0  0  0  0  0
    1.0184   -3.3976   -3.9807 C   0  0  0  0  0  0  0  0  0  0  0  0
    1.5627   -4.1211   -2.9164 C   0  0  0  0  0  0  0  0  0  0  0  0
    4.9858   -2.7200   -0.1481 C   0  0  0  0  0  0  0  0  0  0  0  0
    5.4965   -2.2972   -1.4043 C   0  0  0  0  0  0  0  0  0  0  0  0
    4.9458   -2.7813   -2.6003 O   0  0  0  0  0  0  0  0  0  0  0  0
    5.6729   -3.0924   -3.7903 C   0  0  0  0  0  0  0  0  0  0  0  0
    4.7069   -3.1513   -4.9669 C   0  0  0  0  0  0  0  0  0  0  0  0
    6.4823   -1.2755   -1.3752 C   0  0  0  0  0  0  0  0  0  0  0  0
    6.9928   -0.7527   -0.1806 C   0  0  0  0  0  0  0  0  0  0  0  0
    6.5007   -1.1749    1.0515 C   0  0  0  0  0  0  0  0  0  0  0  0
    6.9653   -0.6011    2.2416 O   0  0  0  0  0  0  0  0  0  0  0  0
    6.2015    0.3235    3.0166 C   0  0  0  0  0  0  0  0  0  0  0  0
    6.2965    1.7293    2.4359 C   0  0  0  0  0  0  0  0  0  0  0  0
    5.4882   -2.1401    1.0426 C   0  0  0  0  0  0  0  0  0  0  0  0
    4.5252   -2.5384    2.3692 S   0  0  0  0  0  0  0  0  0  0  0  0
    7.8240    0.3606   -0.3453 C   0  0  0  0  0  0  0  0  0  0  0  0
    7.8909    0.7981   -1.6592 C   0  0  0  0  0  0  0  0  0  0  0  0
    6.9885   -0.2544   -2.6164 S   0  0  0  0  0  0  0  0  0  0  0  0
    8.4198    2.1240   -2.0162 C   0  0  0  0  0  0  0  0  0  0  0  0
    7.6163    3.2072   -1.9753 C   0  0  0  0  0  0  0  0  0  0  0  0
    7.9186    4.3467   -1.1063 C   0  0  0  0  0  0  0  0  0  0  0  0
    9.0667    4.6949   -0.7182 O   0  0  0  0  0  0  0  0  0  0  0  0
    6.6672    4.9262   -0.6480 C   0  0  0  0  0  0  0  0  0  0  0  0
    6.4986    5.9383    0.3226 C   0  0  0  0  0  0  0  0  0  0  0  0
    5.1771    6.2205    0.6159 C   0  0  0  0  0  0  0  0  0  0  0  0
    4.0763    5.5457   -0.0076 C   0  0  0  0  0  0  0  0  0  0  0  0
    4.2351    4.5383   -0.9436 C   0  0  0  0  0  0  0  0  0  0  0  0
    5.5894    4.2416   -1.2640 C   0  0  0  0  0  0  0  0  0  0  0  0
    6.1441    3.2377   -2.2123 C   0  0  0  0  0  0  0  0  0  0  0  0
    5.5335    2.7527   -3.3168 C   0  0  0  0  0  0  0  0  0  0  0  0
    6.3070    2.2274   -4.4179 C   0  0  0  0  0  0  0  0  0  0  0  0
    6.9184    1.7929   -5.2989 N   0  0  0  0  0  0  0  0  0  0  0  0
    4.1228    2.8943   -3.5612 C   0  0  0  0  0  0  0  0  0  0  0  0
    2.9869    2.9910   -3.7745 N   0  0  0  0  0  0  0  0  0  0  0  0
    3.1015    6.3699    0.7876 C   0  0  0  0  0  0  0  0  0  0  0  0
    2.3512    5.6846    1.9736 C   0  0  0  0  0  0  0  0  0  0  0  0
    3.2074    4.5796    2.5509 C   0  0  0  0  0  0  0  0  0  0  0  0
    4.2456    5.1764    3.1376 C   0  0  0  0  0  0  0  0  0  0  0  0
    4.0587    6.6650    2.9475 C   0  0  0  0  0  0  0  0  0  0  0  0
    2.5467    6.7296    3.0564 C   0  0  0  0  0  0  0  0  0  0  0  0
    4.2326    7.0399    1.4422 C   0  0  0  0  0  0  0  0  0  0  0  0
   -9.3771    1.5632    0.0070 H   0  0  0  0  0  0  0  0  0  0  0  0
   -5.2407    2.4310   -4.6341 H   0  0  0  0  0  0  0  0  0  0  0  0
   -4.8038    3.1872   -6.9483 H   0  0  0  0  0  0  0  0  0  0  0  0
   -9.3774    5.1284   -7.2025 H   0  0  0  0  0  0  0  0  0  0  0  0
   -9.8305    4.3590   -4.9231 H   0  0  0  0  0  0  0  0  0  0  0  0
   -7.6750   -1.0974   -1.2456 H   0  0  0  0  0  0  0  0  0  0  0  0
   -5.7490   -5.1367   -0.4010 H   0  0  0  0  0  0  0  0  0  0  0  0
   -6.7745   -5.0392   -1.8777 H   0  0  0  0  0  0  0  0  0  0  0  0
   -7.5413   -3.9475    0.9067 H   0  0  0  0  0  0  0  0  0  0  0  0
   -8.1525   -5.4664    0.1525 H   0  0  0  0  0  0  0  0  0  0  0  0
   -8.5585   -3.8669   -0.5873 H   0  0  0  0  0  0  0  0  0  0  0  0
   -3.6155    1.0010    4.5866 H   0  0  0  0  0  0  0  0  0  0  0  0
   -5.1754    0.9139    3.7406 H   0  0  0  0  0  0  0  0  0  0  0  0
   -4.2806    3.1540    3.3727 H   0  0  0  0  0  0  0  0  0  0  0  0
   -2.6329    2.5264    3.0393 H   0  0  0  0  0  0  0  0  0  0  0  0
   -3.9196    2.2932    1.8116 H   0  0  0  0  0  0  0  0  0  0  0  0
    0.5394   -1.0804    4.5064 H   0  0  0  0  0  0  0  0  0  0  0  0
    0.2389   -1.1002    6.9176 H   0  0  0  0  0  0  0  0  0  0  0  0
   -2.9939   -1.9870    8.6079 H   0  0  0  0  0  0  0  0  0  0  0  0
   -1.4762   -1.0551    8.7850 H   0  0  0  0  0  0  0  0  0  0  0  0
   -1.4401   -3.2250   10.0525 H   0  0  0  0  0  0  0  0  0  0  0  0
   -1.6333   -4.1285    8.5047 H   0  0  0  0  0  0  0  0  0  0  0  0
   -0.1373   -3.1490    8.8047 H   0  0  0  0  0  0  0  0  0  0  0  0
   -3.6513   -2.8752    6.4373 H   0  0  0  0  0  0  0  0  0  0  0  0
   -3.3565   -2.9167    4.0270 H   0  0  0  0  0  0  0  0  0  0  0  0
   -0.4599   -1.5817   -0.1282 H   0  0  0  0  0  0  0  0  0  0  0  0
    0.2386    0.4510   -1.2367 H   0  0  0  0  0  0  0  0  0  0  0  0
    1.2575    3.5209    0.5105 H   0  0  0  0  0  0  0  0  0  0  0  0
    1.2831    2.6438   -1.0373 H   0  0  0  0  0  0  0  0  0  0  0  0
   -0.1852    4.6579   -1.1484 H   0  0  0  0  0  0  0  0  0  0  0  0
   -1.2034    4.0094    0.1915 H   0  0  0  0  0  0  0  0  0  0  0  0
   -1.1373    3.1425   -1.4026 H   0  0  0  0  0  0  0  0  0  0  0  0
   -0.0887    2.6226    2.4544 H   0  0  0  0  0  0  0  0  0  0  0  0
   -0.9139    0.6286    3.5736 H   0  0  0  0  0  0  0  0  0  0  0  0
    1.6493   -2.4047    3.1975 H   0  0  0  0  0  0  0  0  0  0  0  0
   -0.1036   -4.8948   -0.7315 H   0  0  0  0  0  0  0  0  0  0  0  0
    4.1485   -5.1362   -2.8883 H   0  0  0  0  0  0  0  0  0  0  0  0
    5.1533   -7.2981   -3.3473 H   0  0  0  0  0  0  0  0  0  0  0  0
    6.0505   -9.3985   -2.3561 H   0  0  0  0  0  0  0  0  0  0  0  0
    5.3557  -10.0571   -0.8441 H   0  0  0  0  0  0  0  0  0  0  0  0
    3.2243  -10.6073   -2.0521 H   0  0  0  0  0  0  0  0  0  0  0  0
    3.9216   -9.9289   -3.5812 H   0  0  0  0  0  0  0  0  0  0  0  0
    4.6547  -11.3927   -2.8242 H   0  0  0  0  0  0  0  0  0  0  0  0
    3.6140   -8.7992    0.3828 H   0  0  0  0  0  0  0  0  0  0  0  0
    2.6308   -6.6253    0.8651 H   0  0  0  0  0  0  0  0  0  0  0  0
    2.6319   -1.5003   -1.0099 H   0  0  0  0  0  0  0  0  0  0  0  0
    1.7751   -0.2528   -2.9214 H   0  0  0  0  0  0  0  0  0  0  0  0
    0.9541   -0.2018   -5.1934 H   0  0  0  0  0  0  0  0  0  0  0  0
    0.7276   -1.7236   -6.1063 H   0  0  0  0  0  0  0  0  0  0  0  0
   -1.4837   -2.0887   -4.9891 H   0  0  0  0  0  0  0  0  0  0  0  0
   -1.4238   -0.4682   -5.7798 H   0  0  0  0  0  0  0  0  0  0  0  0
   -1.2327   -0.5985   -3.9885 H   0  0  0  0  0  0  0  0  0  0  0  0
    0.5103   -3.9284   -4.7790 H   0  0  0  0  0  0  0  0  0  0  0  0
    1.4505   -5.1970   -2.9217 H   0  0  0  0  0  0  0  0  0  0  0  0
    6.4454   -2.3454   -4.0269 H   0  0  0  0  0  0  0  0  0  0  0  0
    6.1755   -4.0753   -3.6685 H   0  0  0  0  0  0  0  0  0  0  0  0
    5.2580   -3.3952   -5.8987 H   0  0  0  0  0  0  0  0  0  0  0  0
    3.9345   -3.9261   -4.7954 H   0  0  0  0  0  0  0  0  0  0  0  0
    4.2024   -2.1667   -5.0828 H   0  0  0  0  0  0  0  0  0  0  0  0
    5.1349    0.0261    3.0680 H   0  0  0  0  0  0  0  0  0  0  0  0
    6.6077    0.3352    4.0509 H   0  0  0  0  0  0  0  0  0  0  0  0
    5.7379    2.4349    3.0865 H   0  0  0  0  0  0  0  0  0  0  0  0
    5.8580    1.7576    1.4164 H   0  0  0  0  0  0  0  0  0  0  0  0
    7.3595    2.0520    2.3932 H   0  0  0  0  0  0  0  0  0  0  0  0
    8.2611    0.9128    0.4755 H   0  0  0  0  0  0  0  0  0  0  0  0
    9.4478    2.2734   -1.7176 H   0  0  0  0  0  0  0  0  0  0  0  0
    7.3260    6.4344    0.8140 H   0  0  0  0  0  0  0  0  0  0  0  0
    3.3832    4.0191   -1.3538 H   0  0  0  0  0  0  0  0  0  0  0  0
    2.4786    7.0537    0.1698 H   0  0  0  0  0  0  0  0  0  0  0  0
    1.2929    5.4214    1.7823 H   0  0  0  0  0  0  0  0  0  0  0  0
    2.9974    3.5157    2.5524 H   0  0  0  0  0  0  0  0  0  0  0  0
    5.0220    4.6820    3.7110 H   0  0  0  0  0  0  0  0  0  0  0  0
    4.6167    7.3031    3.6626 H   0  0  0  0  0  0  0  0  0  0  0  0
    2.1248    7.7281    2.7933 H   0  0  0  0  0  0  0  0  0  0  0  0
    2.1612    6.4097    4.0529 H   0  0  0  0  0  0  0  0  0  0  0  0
    4.2802    8.1320    1.2362 H   0  0  0  0  0  0  0  0  0  0  0  0
  1  2  2  3
  2  3  1  0
  3  4  2  0
  3  5  1  0
  5  6  2  0
  6  7  1  0
  7  8  2  0
  8  9  1  0
  9 10  1  0
  9 11  2  0
 11 12  1  0
 11 13  1  0
 13 14  2  0
 14 15  1  0
 15 16  2  0
 16 17  1  0
 17 18  2  3
 18 19  1  0
 19 20  3  0
 18 21  1  0
 21 22  3  0
  1 23  1  0
 23 24  2  0
 24 25  1  0
 25 26  2  0
 26 27  1  0
 27 28  1  0
 28 29  1  0
 26 30  1  0
 30 31  1  0
 31 32  1  0
 32 33  1  0
 33 34  2  0
 34 35  1  0
 35 36  1  0
 36 37  1  0
 37 38  1  0
 38 39  2  0
 39 40  1  0
 38 41  1  0
 41 42  1  0
 42 43  1  0
 35 44  1  0
 44 45  2  0
 45 46  1  0
 46 47  2  0
 47 48  1  0
 48 49  1  0
 47 50  1  0
 50 51  2  0
 35 52  1  0
 52 53  2  0
 53 54  1  0
 54 55  2  0
 55 56  1  0
 56 57  1  0
 55 58  1  0
 58 59  2  0
 34 60  1  0
 60 61  2  0
 61 62  1  0
 62 63  2  0
 63 64  1  0
 64 65  1  0
 65 66  2  0
 64 67  1  0
 67 68  2  0
 68 69  1  0
 69 70  2  0
 70 71  1  0
 71 72  1  0
 70 73  1  0
 73 74  2  0
 64 75  1  0
 75 76  2  0
 76 77  1  0
 77 78  2  0
 78 79  1  0
 79 80  1  0
 78 81  1  0
 81 82  2  0
 63 83  1  0
 83 84  2  0
 84 85  1  0
 85 86  1  0
 86 87  1  0
 84 88  1  0
 88 89  2  0
 89 90  1  0
 90 91  1  0
 91 92  1  0
 92 93  1  0
 90 94  2  0
 94 95  1  0
 89 96  1  0
 96 97  2  0
 97 98  1  0
 97 99  1  0
 99100  2  3
100101  1  0
101102  2  0
101103  1  0
103104  2  0
104105  1  0
105106  2  0
106107  1  0
107108  2  0
108109  1  0
109110  2  3
110111  1  0
111112  3  0
110113  1  0
113114  3  0
106115  1  0
115116  1  0
116117  1  0
117118  2  0
118119  1  0
119120  1  0
119121  1  0
 17  2  1  0
 40 23  1  0
 51 44  1  0
 59 52  1  0
 65 61  1  0
 74 67  1  0
 82 75  1  0
 94 83  1  0
109100  1  0
121115  1  0
 16  5  1  0
 39 25  1  0
 95 62  1  0
108103  1  0
120116  1  0
 14  7  1  0
 37 30  2  0
 98 88  1  0
121105  1  0
 36 32  2  0
 66 33  1  0
  1122  1  0
  6123  1  0
  8124  1  0
 13125  1  0
 15126  1  0
 24127  1  0
 28128  1  0
 28129  1  0
 29130  1  0
 29131  1  0
 29132  1  0
 42133  1  0
 42134  1  0
 43135  1  0
 43136  1  0
 43137  1  0
 45138  1  0
 46139  1  0
 48140  1  0
 48141  1  0
 49142  1  0
 49143  1  0
 49144  1  0
 50145  1  0
 51146  1  0
 53147  1  0
 54148  1  0
 56149  1  0
 56150  1  0
 57151  1  0
 57152  1  0
 57153  1  0
 58154  1  0
 59155  1  0
 60156  1  0
 66157  1  0
 68158  1  0
 69159  1  0
 71160  1  0
 71161  1  0
 72162  1  0
 72163  1  0
 72164  1  0
 73165  1  0
 74166  1  0
 76167  1  0
 77168  1  0
 79169  1  0
 79170  1  0
 80171  1  0
 80172  1  0
 80173  1  0
 81174  1  0
 82175  1  0
 86176  1  0
 86177  1  0
 87178  1  0
 87179  1  0
 87180  1  0
 92181  1  0
 92182  1  0
 93183  1  0
 93184  1  0
 93185  1  0
 96186  1  0
 99187  1  0
104188  1  0
107189  1  0
115190  1  0
116191  1  0
117192  1  0
118193  1  0
119194  1  0
120195  1  0
120196  1  0
121197  1  0
M  END

