
     RDKit          3D

105117  0  0  0  0  0  0  0  0999 V2000
    3.7674   -3.6222   -4.6471 C   0  0  0  0  0  0  0  0  0  0  0  0
    2.5552   -3.4219   -5.1439 C   0  0  0  0  0  0  0  0  0  0  0  0
    1.4015   -3.0859   -4.3161 C   0  0  0  0  0  0  0  0  0  0  0  0
    0.9352   -3.7076   -3.2902 O   0  0  0  0  0  0  0  0  0  0  0  0
    0.4500   -2.3299   -5.1416 C   0  0  0  0  0  0  0  0  0  0  0  0
   -0.7102   -1.6254   -4.8219 C   0  0  0  0  0  0  0  0  0  0  0  0
   -1.5725   -1.1693   -5.8472 C   0  0  0  0  0  0  0  0  0  0  0  0
   -2.7855   -0.5052   -5.5547 C   0  0  0  0  0  0  0  0  0  0  0  0
   -3.6525   -0.0922   -6.5687 C   0  0  0  0  0  0  0  0  0  0  0  0
   -4.7647    0.6000   -6.2247 F   0  0  0  0  0  0  0  0  0  0  0  0
   -3.3424   -0.3307   -7.8630 C   0  0  0  0  0  0  0  0  0  0  0  0
   -4.1770    0.1267   -8.8617 F   0  0  0  0  0  0  0  0  0  0  0  0
   -2.1456   -1.0213   -8.2307 C   0  0  0  0  0  0  0  0  0  0  0  0
   -1.2507   -1.4182   -7.2119 C   0  0  0  0  0  0  0  0  0  0  0  0
   -0.0705   -2.1177   -7.5151 C   0  0  0  0  0  0  0  0  0  0  0  0
    0.8393   -2.4944   -6.4572 C   0  0  0  0  0  0  0  0  0  0  0  0
    2.1765   -3.1853   -6.5429 C   0  0  0  0  0  0  0  0  0  0  0  0
    2.8651   -3.2654   -7.6806 C   0  0  0  0  0  0  0  0  0  0  0  0
    3.7219   -4.3907   -8.0306 C   0  0  0  0  0  0  0  0  0  0  0  0
    4.3764   -5.2575   -8.4487 N   0  0  0  0  0  0  0  0  0  0  0  0
    2.7001   -2.1893   -8.7125 C   0  0  0  0  0  0  0  0  0  0  0  0
    2.5573   -1.4601   -9.5707 N   0  0  0  0  0  0  0  0  0  0  0  0
    4.1094   -3.2296   -3.2129 C   0  0  0  0  0  0  0  0  0  0  0  0
    4.7246   -4.0608   -2.1832 C   0  0  0  0  0  0  0  0  0  0  0  0
    5.0478   -5.3849   -2.3198 O   0  0  0  0  0  0  0  0  0  0  0  0
    4.1015   -6.4417   -1.9962 C   0  0  0  0  0  0  0  0  0  0  0  0
    4.7837   -7.7805   -1.9913 C   0  0  0  0  0  0  0  0  0  0  0  0
    4.5789   -3.4141   -0.8818 C   0  0  0  0  0  0  0  0  0  0  0  0
    4.5677   -4.0283    0.7434 S   0  0  0  0  0  0  0  0  0  0  0  0
    3.8083   -2.6469    1.3763 C   0  0  0  0  0  0  0  0  0  0  0  0
    3.2722   -2.0705    2.5034 C   0  0  0  0  0  0  0  0  0  0  0  0
    3.5109   -2.2928    3.8635 C   0  0  0  0  0  0  0  0  0  0  0  0
    2.8704   -1.4936    4.8261 C   0  0  0  0  0  0  0  0  0  0  0  0
    3.1028   -1.7789    6.1648 N   0  0  0  0  0  0  0  0  0  0  0  0
    4.0771   -3.1043    6.0035 S   0  0  0  0  0  0  0  0  0  0  0  0
    4.3013   -3.2799    4.3572 N   0  0  0  0  0  0  0  0  0  0  0  0
    2.0402   -0.4594    4.3929 C   0  0  0  0  0  0  0  0  0  0  0  0
    1.2092    0.3992    5.0838 C   0  0  0  0  0  0  0  0  0  0  0  0
    0.6273    0.7565    6.6400 S   0  0  0  0  0  0  0  0  0  0  0  0
   -0.6454    1.7239    6.0628 C   0  0  0  0  0  0  0  0  0  0  0  0
   -1.6526    2.5452    6.6441 C   0  0  0  0  0  0  0  0  0  0  0  0
   -1.6673    2.9683    7.9551 O   0  0  0  0  0  0  0  0  0  0  0  0
   -0.8761    4.1136    8.3305 C   0  0  0  0  0  0  0  0  0  0  0  0
   -0.8508    4.2815    9.8376 C   0  0  0  0  0  0  0  0  0  0  0  0
   -2.5192    3.0693    5.6521 C   0  0  0  0  0  0  0  0  0  0  0  0
   -2.0092    2.5394    4.1459 S   0  0  0  0  0  0  0  0  0  0  0  0
   -0.6629    1.7090    4.7155 C   0  0  0  0  0  0  0  0  0  0  0  0
    0.4040    0.9930    4.1658 C   0  0  0  0  0  0  0  0  0  0  0  0
    0.7307    0.6713    2.8972 N   0  0  0  0  0  0  0  0  0  0  0  0
    1.8041   -0.2011    3.0271 C   0  0  0  0  0  0  0  0  0  0  0  0
    2.5008   -0.9649    2.0490 C   0  0  0  0  0  0  0  0  0  0  0  0
    2.7164   -0.7838    0.7244 N   0  0  0  0  0  0  0  0  0  0  0  0
    3.5132   -1.7994    0.3488 C   0  0  0  0  0  0  0  0  0  0  0  0
    3.9777   -2.2291   -0.8855 C   0  0  0  0  0  0  0  0  0  0  0  0
    3.6812   -1.8054   -2.4074 S   0  0  0  0  0  0  0  0  0  0  0  0
    2.4973    0.4382   -0.0747 C   0  0  0  0  0  0  0  0  0  0  0  0
    3.7679    0.9305   -0.7633 C   0  0  0  0  0  0  0  0  0  0  0  0
   -0.0959    1.0164    1.7427 C   0  0  0  0  0  0  0  0  0  0  0  0
    0.1017    2.4901    1.3432 C   0  0  0  0  0  0  0  0  0  0  0  0
   -3.7743    3.8476    5.9551 C   0  0  0  0  0  0  0  0  0  0  0  0
   -4.4249    4.7168    5.1420 C   0  0  0  0  0  0  0  0  0  0  0  0
   -3.9230    5.3213    3.8930 C   0  0  0  0  0  0  0  0  0  0  0  0
   -2.7703    5.1528    3.3951 O   0  0  0  0  0  0  0  0  0  0  0  0
   -4.8542    6.3326    3.4010 C   0  0  0  0  0  0  0  0  0  0  0  0
   -4.8437    7.0514    2.2116 C   0  0  0  0  0  0  0  0  0  0  0  0
   -3.5232    6.8922    1.0541 Cl  0  0  0  0  0  0  0  0  0  0  0  0
   -5.9229    7.9092    1.8989 C   0  0  0  0  0  0  0  0  0  0  0  0
   -6.9831    8.0563    2.8238 C   0  0  0  0  0  0  0  0  0  0  0  0
   -6.9634    7.3305    4.0329 C   0  0  0  0  0  0  0  0  0  0  0  0
   -5.8976    6.4621    4.3271 C   0  0  0  0  0  0  0  0  0  0  0  0
   -5.7099    5.4784    5.4422 C   0  0  0  0  0  0  0  0  0  0  0  0
   -6.6661    5.1601    6.3076 C   0  0  0  0  0  0  0  0  0  0  0  0
   -7.8651    5.9990    6.5705 C   0  0  0  0  0  0  0  0  0  0  0  0
   -8.8386    6.5145    6.8755 N   0  0  0  0  0  0  0  0  0  0  0  0
   -6.7139    3.8185    6.9545 C   0  0  0  0  0  0  0  0  0  0  0  0
   -6.6562    2.8714    7.5982 N   0  0  0  0  0  0  0  0  0  0  0  0
    4.5461   -4.0231   -5.2508 H   0  0  0  0  0  0  0  0  0  0  0  0
   -1.0151   -1.4698   -3.7919 H   0  0  0  0  0  0  0  0  0  0  0  0
   -3.0234   -0.3210   -4.5272 H   0  0  0  0  0  0  0  0  0  0  0  0
   -1.9065   -1.1767   -9.3011 H   0  0  0  0  0  0  0  0  0  0  0  0
    0.1108   -2.3907   -8.5501 H   0  0  0  0  0  0  0  0  0  0  0  0
    3.3031   -6.4837   -2.7129 H   0  0  0  0  0  0  0  0  0  0  0  0
    3.6960   -6.3053   -0.9940 H   0  0  0  0  0  0  0  0  0  0  0  0
    5.7319   -7.7547   -1.4389 H   0  0  0  0  0  0  0  0  0  0  0  0
    5.0359   -8.0856   -3.0426 H   0  0  0  0  0  0  0  0  0  0  0  0
    4.1459   -8.5277   -1.5320 H   0  0  0  0  0  0  0  0  0  0  0  0
    0.1495    4.0490    7.9582 H   0  0  0  0  0  0  0  0  0  0  0  0
   -1.3677    4.9948    7.8735 H   0  0  0  0  0  0  0  0  0  0  0  0
   -1.7001    4.9160   10.1851 H   0  0  0  0  0  0  0  0  0  0  0  0
    0.1173    4.7834   10.0651 H   0  0  0  0  0  0  0  0  0  0  0  0
   -0.8551    3.2819   10.3744 H   0  0  0  0  0  0  0  0  0  0  0  0
    1.6606    0.2729   -0.8104 H   0  0  0  0  0  0  0  0  0  0  0  0
    2.2190    1.2210    0.6465 H   0  0  0  0  0  0  0  0  0  0  0  0
    3.6725    0.8594   -1.8655 H   0  0  0  0  0  0  0  0  0  0  0  0
    4.7045    0.3951   -0.4508 H   0  0  0  0  0  0  0  0  0  0  0  0
    3.9375    1.9923   -0.4710 H   0  0  0  0  0  0  0  0  0  0  0  0
    0.0786    0.3608    0.8852 H   0  0  0  0  0  0  0  0  0  0  0  0
   -1.1870    0.8762    1.9668 H   0  0  0  0  0  0  0  0  0  0  0  0
   -0.8416    3.0915    1.4257 H   0  0  0  0  0  0  0  0  0  0  0  0
    0.4532    2.5898    0.2993 H   0  0  0  0  0  0  0  0  0  0  0  0
    0.8467    2.9917    2.0163 H   0  0  0  0  0  0  0  0  0  0  0  0
   -4.1019    3.7561    6.9597 H   0  0  0  0  0  0  0  0  0  0  0  0
   -5.9558    8.4388    0.9513 H   0  0  0  0  0  0  0  0  0  0  0  0
   -7.8212    8.7210    2.5759 H   0  0  0  0  0  0  0  0  0  0  0  0
   -7.7984    7.4961    4.6875 H   0  0  0  0  0  0  0  0  0  0  0  0
  1  2  2  3
  2  3  1  0
  3  4  2  0
  3  5  1  0
  5  6  2  0
  6  7  1  0
  7  8  2  0
  8  9  1  0
  9 10  1  0
  9 11  2  0
 11 12  1  0
 11 13  1  0
 13 14  2  0
 14 15  1  0
 15 16  2  0
 16 17  1  0
 17 18  2  3
 18 19  1  0
 19 20  3  0
 18 21  1  0
 21 22  3  0
  1 23  1  0
 23 24  2  0
 24 25  1  0
 25 26  1  0
 26 27  1  0
 24 28  1  0
 28 29  1  0
 29 30  1  0
 30 31  1  0
 31 32  1  0
 32 33  1  0
 33 34  2  0
 34 35  1  0
 35 36  1  0
 33 37  1  0
 37 38  1  0
 38 39  1  0
 39 40  1  0
 40 41  1  0
 41 42  1  0
 42 43  1  0
 43 44  1  0
 41 45  2  0
 45 46  1  0
 46 47  1  0
 47 48  1  0
 48 49  1  0
 49 50  1  0
 50 51  1  0
 51 52  1  0
 52 53  1  0
 53 54  1  0
 54 55  1  0
 52 56  1  0
 56 57  1  0
 49 58  1  0
 58 59  1  0
 45 60  1  0
 60 61  2  3
 61 62  1  0
 62 63  2  0
 62 64  1  0
 64 65  2  0
 65 66  1  0
 65 67  1  0
 67 68  2  0
 68 69  1  0
 69 70  2  0
 70 71  1  0
 71 72  2  3
 72 73  1  0
 73 74  3  0
 72 75  1  0
 75 76  3  0
 17  2  1  0
 55 23  1  0
 71 61  1  0
 16  5  1  0
 54 28  2  0
 70 64  1  0
 14  7  1  0
 53 30  2  0
 51 31  2  0
 36 32  2  0
 50 37  2  0
 48 38  2  0
 47 40  2  0
  1 77  1  0
  6 78  1  0
  8 79  1  0
 13 80  1  0
 15 81  1  0
 26 82  1  0
 26 83  1  0
 27 84  1  0
 27 85  1  0
 27 86  1  0
 43 87  1  0
 43 88  1  0
 44 89  1  0
 44 90  1  0
 44 91  1  0
 56 92  1  0
 56 93  1  0
 57 94  1  0
 57 95  1  0
 57 96  1  0
 58 97  1  0
 58 98  1  0
 59 99  1  0
 59100  1  0
 59101  1  0
 60102  1  0
 67103  1  0
 68104  1  0
 69105  1  0
M  END

