
     RDKit          3D

 96106  0  0  0  0  0  0  0  0999 V2000
   -0.0156    2.0146   -4.7840 C   0  0  0  0  0  0  0  0  0  0  0  0
   -0.0262    3.1935   -4.1298 C   0  0  0  0  0  0  0  0  0  0  0  0
   -0.2248    3.3581   -2.6830 C   0  0  0  0  0  0  0  0  0  0  0  0
   -0.1442    2.4585   -1.8044 O   0  0  0  0  0  0  0  0  0  0  0  0
   -0.5641    4.7366   -2.4187 C   0  0  0  0  0  0  0  0  0  0  0  0
   -0.9273    5.3051   -1.1991 C   0  0  0  0  0  0  0  0  0  0  0  0
   -1.2605    6.6659   -1.1660 C   0  0  0  0  0  0  0  0  0  0  0  0
   -1.6203    7.2794    0.0431 C   0  0  0  0  0  0  0  0  0  0  0  0
   -1.9416    8.6404    0.0718 C   0  0  0  0  0  0  0  0  0  0  0  0
   -2.2865    9.2262    1.2451 F   0  0  0  0  0  0  0  0  0  0  0  0
   -1.9192    9.3928   -1.1065 C   0  0  0  0  0  0  0  0  0  0  0  0
   -2.2335   10.7108   -1.0719 F   0  0  0  0  0  0  0  0  0  0  0  0
   -1.5737    8.7925   -2.3223 C   0  0  0  0  0  0  0  0  0  0  0  0
   -1.2372    7.4294   -2.3663 C   0  0  0  0  0  0  0  0  0  0  0  0
   -0.8893    6.8163   -3.5888 C   0  0  0  0  0  0  0  0  0  0  0  0
   -0.5253    5.4609   -3.5974 C   0  0  0  0  0  0  0  0  0  0  0  0
   -0.0885    4.5684   -4.7178 C   0  0  0  0  0  0  0  0  0  0  0  0
    0.3718    4.9501   -5.9377 C   0  0  0  0  0  0  0  0  0  0  0  0
    1.0258    4.0378   -6.8417 C   0  0  0  0  0  0  0  0  0  0  0  0
    1.5619    3.3262   -7.5828 N   0  0  0  0  0  0  0  0  0  0  0  0
    0.3690    6.3217   -6.3759 C   0  0  0  0  0  0  0  0  0  0  0  0
    0.3754    7.4209   -6.7504 N   0  0  0  0  0  0  0  0  0  0  0  0
   -0.0845    0.7362   -4.0698 C   0  0  0  0  0  0  0  0  0  0  0  0
   -1.4904    0.1019   -3.3995 S   0  0  0  0  0  0  0  0  0  0  0  0
   -0.7069   -1.0297   -2.4268 C   0  0  0  0  0  0  0  0  0  0  0  0
   -1.2690   -1.8910   -1.4756 C   0  0  0  0  0  0  0  0  0  0  0  0
   -0.3894   -2.6646   -0.6678 C   0  0  0  0  0  0  0  0  0  0  0  0
    1.0069   -2.5900   -0.8876 C   0  0  0  0  0  0  0  0  0  0  0  0
    1.5511   -1.7192   -1.8528 C   0  0  0  0  0  0  0  0  0  0  0  0
    3.0256   -1.6464   -1.9930 C   0  0  0  0  0  0  0  0  0  0  0  0
    3.8881   -2.7382   -1.9773 C   0  0  0  0  0  0  0  0  0  0  0  0
    5.2450   -2.3829   -1.9535 C   0  0  0  0  0  0  0  0  0  0  0  0
    5.4474   -1.0086   -1.9316 C   0  0  0  0  0  0  0  0  0  0  0  0
    6.7782   -0.3214   -1.9008 C   0  0  0  0  0  0  0  0  0  0  0  0
    7.4015   -0.2737   -3.2879 C   0  0  0  0  0  0  0  0  0  0  0  0
    3.9536   -0.2380   -1.9505 S   0  0  0  0  0  0  0  0  0  0  0  0
    0.6705   -0.9202   -2.6111 C   0  0  0  0  0  0  0  0  0  0  0  0
    1.0195    0.0664   -3.5516 C   0  0  0  0  0  0  0  0  0  0  0  0
   -0.9441   -3.4316    0.3759 C   0  0  0  0  0  0  0  0  0  0  0  0
   -0.2364   -4.1102    1.3841 C   0  0  0  0  0  0  0  0  0  0  0  0
   -1.0669   -4.6319    2.3706 C   0  0  0  0  0  0  0  0  0  0  0  0
   -2.6688   -4.3126    1.9811 S   0  0  0  0  0  0  0  0  0  0  0  0
   -2.3268   -3.4653    0.5642 C   0  0  0  0  0  0  0  0  0  0  0  0
   -3.2142   -2.7503   -0.2561 C   0  0  0  0  0  0  0  0  0  0  0  0
   -4.6765   -2.7621   -0.0410 C   0  0  0  0  0  0  0  0  0  0  0  0
   -5.4509   -3.8702    0.2957 C   0  0  0  0  0  0  0  0  0  0  0  0
   -6.8209   -3.5799    0.4064 C   0  0  0  0  0  0  0  0  0  0  0  0
   -7.1218   -2.2491    0.1484 C   0  0  0  0  0  0  0  0  0  0  0  0
   -8.4893   -1.6555    0.0987 C   0  0  0  0  0  0  0  0  0  0  0  0
   -9.0947   -1.7921   -1.2957 C   0  0  0  0  0  0  0  0  0  0  0  0
   -5.6998   -1.4370   -0.2364 S   0  0  0  0  0  0  0  0  0  0  0  0
   -2.6643   -1.9535   -1.2747 C   0  0  0  0  0  0  0  0  0  0  0  0
   -0.6168   -5.3006    3.6016 C   0  0  0  0  0  0  0  0  0  0  0  0
    0.2093   -4.7172    4.4978 C   0  0  0  0  0  0  0  0  0  0  0  0
    0.7574   -3.3550    4.3973 C   0  0  0  0  0  0  0  0  0  0  0  0
    0.3261   -2.4237    3.6651 O   0  0  0  0  0  0  0  0  0  0  0  0
    1.8397   -3.2246    5.3445 C   0  0  0  0  0  0  0  0  0  0  0  0
    1.9542   -4.3947    6.0772 C   0  0  0  0  0  0  0  0  0  0  0  0
    3.0228   -4.5476    6.9776 C   0  0  0  0  0  0  0  0  0  0  0  0
    3.9146   -3.4784    7.1674 C   0  0  0  0  0  0  0  0  0  0  0  0
    4.9392   -3.6080    8.0390 F   0  0  0  0  0  0  0  0  0  0  0  0
    3.7618   -2.2838    6.4433 C   0  0  0  0  0  0  0  0  0  0  0  0
    4.6509   -1.2736    6.6152 F   0  0  0  0  0  0  0  0  0  0  0  0
    2.7217   -2.1547    5.5126 C   0  0  0  0  0  0  0  0  0  0  0  0
    2.5943   -1.0166    4.7854 F   0  0  0  0  0  0  0  0  0  0  0  0
    0.8751   -5.3500    5.6840 C   0  0  0  0  0  0  0  0  0  0  0  0
    0.4384   -6.4181    6.4068 C   0  0  0  0  0  0  0  0  0  0  0  0
   -0.7558   -7.1505    6.0718 C   0  0  0  0  0  0  0  0  0  0  0  0
   -1.7116   -7.7515    5.8216 N   0  0  0  0  0  0  0  0  0  0  0  0
    1.0598   -6.8188    7.6445 C   0  0  0  0  0  0  0  0  0  0  0  0
    1.5447   -7.1442    8.6418 N   0  0  0  0  0  0  0  0  0  0  0  0
   -0.0289    1.9658   -5.8602 H   0  0  0  0  0  0  0  0  0  0  0  0
   -0.9548    4.7007   -0.2992 H   0  0  0  0  0  0  0  0  0  0  0  0
   -1.6533    6.7055    0.9622 H   0  0  0  0  0  0  0  0  0  0  0  0
   -1.5604    9.3948   -3.2244 H   0  0  0  0  0  0  0  0  0  0  0  0
   -0.9331    7.3972   -4.4918 H   0  0  0  0  0  0  0  0  0  0  0  0
    1.6911   -3.1759   -0.2895 H   0  0  0  0  0  0  0  0  0  0  0  0
    3.5478   -3.7684   -1.9703 H   0  0  0  0  0  0  0  0  0  0  0  0
    6.0508   -3.1067   -1.9348 H   0  0  0  0  0  0  0  0  0  0  0  0
    7.4561   -0.8610   -1.2073 H   0  0  0  0  0  0  0  0  0  0  0  0
    6.6552    0.7144   -1.5257 H   0  0  0  0  0  0  0  0  0  0  0  0
    8.3882    0.2237   -3.2249 H   0  0  0  0  0  0  0  0  0  0  0  0
    6.7578    0.3191   -3.9706 H   0  0  0  0  0  0  0  0  0  0  0  0
    7.5121   -1.3051   -3.6935 H   0  0  0  0  0  0  0  0  0  0  0  0
    2.0300    0.3402   -3.8104 H   0  0  0  0  0  0  0  0  0  0  0  0
    0.8385   -4.1724    1.4504 H   0  0  0  0  0  0  0  0  0  0  0  0
   -5.0571   -4.8700    0.4209 H   0  0  0  0  0  0  0  0  0  0  0  0
   -7.5700   -4.3203    0.6477 H   0  0  0  0  0  0  0  0  0  0  0  0
   -8.4348   -0.5806    0.3624 H   0  0  0  0  0  0  0  0  0  0  0  0
   -9.1374   -2.1671    0.8412 H   0  0  0  0  0  0  0  0  0  0  0  0
  -10.0870   -1.3010   -1.3170 H   0  0  0  0  0  0  0  0  0  0  0  0
   -8.4420   -1.3123   -2.0558 H   0  0  0  0  0  0  0  0  0  0  0  0
   -9.2406   -2.8644   -1.5599 H   0  0  0  0  0  0  0  0  0  0  0  0
   -3.3311   -1.3830   -1.9114 H   0  0  0  0  0  0  0  0  0  0  0  0
   -0.9425   -6.3159    3.7216 H   0  0  0  0  0  0  0  0  0  0  0  0
    3.2087   -5.4726    7.5009 H   0  0  0  0  0  0  0  0  0  0  0  0
  1  2  2  3
  2  3  1  0
  3  4  2  0
  3  5  1  0
  5  6  2  0
  6  7  1  0
  7  8  2  0
  8  9  1  0
  9 10  1  0
  9 11  2  0
 11 12  1  0
 11 13  1  0
 13 14  2  0
 14 15  1  0
 15 16  2  0
 16 17  1  0
 17 18  2  3
 18 19  1  0
 19 20  3  0
 18 21  1  0
 21 22  3  0
  1 23  1  0
 23 24  1  0
 24 25  1  0
 25 26  2  0
 26 27  1  0
 27 28  2  0
 28 29  1  0
 29 30  1  0
 30 31  2  0
 31 32  1  0
 32 33  2  0
 33 34  1  0
 34 35  1  0
 33 36  1  0
 29 37  2  0
 37 38  1  0
 27 39  1  0
 39 40  1  0
 40 41  2  0
 41 42  1  0
 42 43  1  0
 43 44  1  0
 44 45  1  0
 45 46  2  0
 46 47  1  0
 47 48  2  0
 48 49  1  0
 49 50  1  0
 48 51  1  0
 44 52  2  0
 41 53  1  0
 53 54  2  3
 54 55  1  0
 55 56  2  0
 55 57  1  0
 57 58  2  0
 58 59  1  0
 59 60  2  0
 60 61  1  0
 60 62  1  0
 62 63  1  0
 62 64  2  0
 64 65  1  0
 58 66  1  0
 66 67  2  3
 67 68  1  0
 68 69  3  0
 67 70  1  0
 70 71  3  0
 17  2  1  0
 38 23  2  0
 43 39  2  0
 51 45  1  0
 66 54  1  0
 16  5  1  0
 37 25  1  0
 64 57  1  0
 14  7  1  0
 52 26  1  0
 36 30  1  0
  1 72  1  0
  6 73  1  0
  8 74  1  0
 13 75  1  0
 15 76  1  0
 28 77  1  0
 31 78  1  0
 32 79  1  0
 34 80  1  0
 34 81  1  0
 35 82  1  0
 35 83  1  0
 35 84  1  0
 38 85  1  0
 40 86  1  0
 46 87  1  0
 47 88  1  0
 49 89  1  0
 49 90  1  0
 50 91  1  0
 50 92  1  0
 50 93  1  0
 52 94  1  0
 53 95  1  0
 59 96  1  0
M  END

