
     RDKit          3D

103115  0  0  0  0  0  0  0  0999 V2000
   -3.4407    5.5005    2.4877 C   0  0  0  0  0  0  0  0  0  0  0  0
   -4.2425    4.4524    2.7521 C   0  0  0  0  0  0  0  0  0  0  0  0
   -4.3834    3.2690    1.8882 C   0  0  0  0  0  0  0  0  0  0  0  0
   -3.7345    3.0208    0.8342 O   0  0  0  0  0  0  0  0  0  0  0  0
   -5.4443    2.4442    2.4053 C   0  0  0  0  0  0  0  0  0  0  0  0
   -5.9578    1.2778    1.8415 C   0  0  0  0  0  0  0  0  0  0  0  0
   -7.0217    0.6305    2.4962 C   0  0  0  0  0  0  0  0  0  0  0  0
   -7.5669   -0.5503    1.9721 C   0  0  0  0  0  0  0  0  0  0  0  0
   -8.6243   -1.1949    2.6293 C   0  0  0  0  0  0  0  0  0  0  0  0
   -9.1359   -2.3445    2.1194 F   0  0  0  0  0  0  0  0  0  0  0  0
   -9.1435   -0.6644    3.8180 C   0  0  0  0  0  0  0  0  0  0  0  0
  -10.1509   -1.3047    4.4720 F   0  0  0  0  0  0  0  0  0  0  0  0
   -8.6150    0.5173    4.3494 C   0  0  0  0  0  0  0  0  0  0  0  0
   -7.5607    1.1790    3.6956 C   0  0  0  0  0  0  0  0  0  0  0  0
   -7.0455    2.3854    4.2202 C   0  0  0  0  0  0  0  0  0  0  0  0
   -5.9540    3.0022    3.5732 C   0  0  0  0  0  0  0  0  0  0  0  0
   -5.2027    4.2597    3.8969 C   0  0  0  0  0  0  0  0  0  0  0  0
   -5.2149    4.9276    5.0825 C   0  0  0  0  0  0  0  0  0  0  0  0
   -6.0386    4.5250    6.1925 C   0  0  0  0  0  0  0  0  0  0  0  0
   -6.6875    4.2054    7.0989 N   0  0  0  0  0  0  0  0  0  0  0  0
   -4.3133    6.0053    5.3847 C   0  0  0  0  0  0  0  0  0  0  0  0
   -3.5937    6.8729    5.6495 N   0  0  0  0  0  0  0  0  0  0  0  0
   -2.3791    5.4263    1.4794 C   0  0  0  0  0  0  0  0  0  0  0  0
   -2.5320    5.6417    0.0926 C   0  0  0  0  0  0  0  0  0  0  0  0
   -3.7809    6.1682   -0.5601 C   0  0  0  0  0  0  0  0  0  0  0  0
   -3.6314    7.6491   -0.8910 C   0  0  0  0  0  0  0  0  0  0  0  0
   -1.4269    5.1422   -0.6041 C   0  0  0  0  0  0  0  0  0  0  0  0
   -1.1033    4.8716   -2.2637 S   0  0  0  0  0  0  0  0  0  0  0  0
    0.2715    3.9532   -1.8791 C   0  0  0  0  0  0  0  0  0  0  0  0
    1.2443    3.1970   -2.4708 C   0  0  0  0  0  0  0  0  0  0  0  0
    1.6307    3.0096   -3.8011 C   0  0  0  0  0  0  0  0  0  0  0  0
    2.7667    2.1843   -4.0804 C   0  0  0  0  0  0  0  0  0  0  0  0
    3.1001    2.0202   -5.3861 N   0  0  0  0  0  0  0  0  0  0  0  0
    1.9275    2.9614   -6.0885 S   0  0  0  0  0  0  0  0  0  0  0  0
    0.9906    3.5608   -4.8607 N   0  0  0  0  0  0  0  0  0  0  0  0
    3.4148    1.5482   -3.0096 C   0  0  0  0  0  0  0  0  0  0  0  0
    4.3021    0.5062   -2.9899 C   0  0  0  0  0  0  0  0  0  0  0  0
    4.9891   -0.5450   -4.1380 S   0  0  0  0  0  0  0  0  0  0  0  0
    5.2910   -1.7143   -2.9307 C   0  0  0  0  0  0  0  0  0  0  0  0
    5.7372   -3.0359   -2.9718 C   0  0  0  0  0  0  0  0  0  0  0  0
    6.2733   -3.7088   -4.2031 C   0  0  0  0  0  0  0  0  0  0  0  0
    7.7791   -3.9252   -4.0837 C   0  0  0  0  0  0  0  0  0  0  0  0
    5.5600   -3.6565   -1.7230 C   0  0  0  0  0  0  0  0  0  0  0  0
    4.8707   -2.5683   -0.6109 S   0  0  0  0  0  0  0  0  0  0  0  0
    4.7976   -1.3099   -1.7164 C   0  0  0  0  0  0  0  0  0  0  0  0
    4.2554   -0.0319   -1.7389 C   0  0  0  0  0  0  0  0  0  0  0  0
    3.3760    0.6093   -0.9242 N   0  0  0  0  0  0  0  0  0  0  0  0
    2.9492    1.6635   -1.6915 C   0  0  0  0  0  0  0  0  0  0  0  0
    1.9314    2.5978   -1.4099 C   0  0  0  0  0  0  0  0  0  0  0  0
    1.4995    3.0602   -0.2026 N   0  0  0  0  0  0  0  0  0  0  0  0
    0.4632    3.8571   -0.5428 C   0  0  0  0  0  0  0  0  0  0  0  0
   -0.4768    4.5543    0.1892 C   0  0  0  0  0  0  0  0  0  0  0  0
   -0.9304    4.5915    1.7951 S   0  0  0  0  0  0  0  0  0  0  0  0
    2.2915    3.1944    1.0320 C   0  0  0  0  0  0  0  0  0  0  0  0
    2.8994    4.5898    1.1483 C   0  0  0  0  0  0  0  0  0  0  0  0
    2.5785   -0.0797    0.1082 C   0  0  0  0  0  0  0  0  0  0  0  0
    1.5266   -0.9923   -0.5274 C   0  0  0  0  0  0  0  0  0  0  0  0
    5.7520   -5.0831   -1.4363 C   0  0  0  0  0  0  0  0  0  0  0  0
    4.7543   -5.9803   -1.5578 C   0  0  0  0  0  0  0  0  0  0  0  0
    3.4647   -5.7260   -2.2111 C   0  0  0  0  0  0  0  0  0  0  0  0
    3.0369   -4.6031   -2.6033 O   0  0  0  0  0  0  0  0  0  0  0  0
    2.7976   -6.9954   -2.4219 C   0  0  0  0  0  0  0  0  0  0  0  0
    1.5733   -7.2530   -3.0583 C   0  0  0  0  0  0  0  0  0  0  0  0
    0.5643   -5.9645   -3.7001 Cl  0  0  0  0  0  0  0  0  0  0  0  0
    1.1694   -8.5840   -3.2043 C   0  0  0  0  0  0  0  0  0  0  0  0
    1.9801   -9.6295   -2.7325 C   0  0  0  0  0  0  0  0  0  0  0  0
    1.4212  -11.4372   -2.9725 Br  0  0  0  0  0  0  0  0  0  0  0  0
    3.1956   -9.3521   -2.0904 C   0  0  0  0  0  0  0  0  0  0  0  0
    3.5909   -8.0160   -1.9156 C   0  0  0  0  0  0  0  0  0  0  0  0
    4.8049   -7.4435   -1.2636 C   0  0  0  0  0  0  0  0  0  0  0  0
    5.6407   -8.0750   -0.3917 C   0  0  0  0  0  0  0  0  0  0  0  0
    6.6352   -7.3717    0.3801 C   0  0  0  0  0  0  0  0  0  0  0  0
    7.4328   -6.8165    1.0092 N   0  0  0  0  0  0  0  0  0  0  0  0
    5.5101   -9.4706   -0.0676 C   0  0  0  0  0  0  0  0  0  0  0  0
    5.4171  -10.5898    0.2102 N   0  0  0  0  0  0  0  0  0  0  0  0
   -3.4796    6.4026    3.0684 H   0  0  0  0  0  0  0  0  0  0  0  0
   -5.5421    0.8813    0.9172 H   0  0  0  0  0  0  0  0  0  0  0  0
   -7.1732   -0.9806    1.0516 H   0  0  0  0  0  0  0  0  0  0  0  0
   -9.0232    0.9105    5.2834 H   0  0  0  0  0  0  0  0  0  0  0  0
   -7.5103    2.8213    5.0944 H   0  0  0  0  0  0  0  0  0  0  0  0
   -3.9757    5.5977   -1.4871 H   0  0  0  0  0  0  0  0  0  0  0  0
   -4.6654    6.0222    0.1050 H   0  0  0  0  0  0  0  0  0  0  0  0
   -4.5502    8.0008   -1.4002 H   0  0  0  0  0  0  0  0  0  0  0  0
   -3.4912    8.2412    0.0400 H   0  0  0  0  0  0  0  0  0  0  0  0
   -2.7585    7.8136   -1.5655 H   0  0  0  0  0  0  0  0  0  0  0  0
    6.0573   -3.0950   -5.0994 H   0  0  0  0  0  0  0  0  0  0  0  0
    5.7608   -4.6833   -4.3478 H   0  0  0  0  0  0  0  0  0  0  0  0
    8.1682   -4.3677   -5.0271 H   0  0  0  0  0  0  0  0  0  0  0  0
    8.0113   -4.6191   -3.2445 H   0  0  0  0  0  0  0  0  0  0  0  0
    8.2893   -2.9539   -3.9142 H   0  0  0  0  0  0  0  0  0  0  0  0
    1.6480    2.9954    1.9141 H   0  0  0  0  0  0  0  0  0  0  0  0
    3.1417    2.4852    1.0419 H   0  0  0  0  0  0  0  0  0  0  0  0
    3.5430    4.6488    2.0528 H   0  0  0  0  0  0  0  0  0  0  0  0
    2.1019    5.3590    1.2306 H   0  0  0  0  0  0  0  0  0  0  0  0
    3.5232    4.8122    0.2560 H   0  0  0  0  0  0  0  0  0  0  0  0
    2.0420    0.6300    0.7562 H   0  0  0  0  0  0  0  0  0  0  0  0
    3.2523   -0.6662    0.7712 H   0  0  0  0  0  0  0  0  0  0  0  0
    0.9441   -0.4312   -1.2917 H   0  0  0  0  0  0  0  0  0  0  0  0
    0.8399   -1.3717    0.2534 H   0  0  0  0  0  0  0  0  0  0  0  0
    2.0163   -1.8573   -1.0161 H   0  0  0  0  0  0  0  0  0  0  0  0
    6.7446   -5.3759   -1.1322 H   0  0  0  0  0  0  0  0  0  0  0  0
    0.2362   -8.8145   -3.6988 H   0  0  0  0  0  0  0  0  0  0  0  0
    3.8122  -10.1777   -1.7815 H   0  0  0  0  0  0  0  0  0  0  0  0
  1  2  2  3
  2  3  1  0
  3  4  2  0
  3  5  1  0
  5  6  2  0
  6  7  1  0
  7  8  2  0
  8  9  1  0
  9 10  1  0
  9 11  2  0
 11 12  1  0
 11 13  1  0
 13 14  2  0
 14 15  1  0
 15 16  2  0
 16 17  1  0
 17 18  2  3
 18 19  1  0
 19 20  3  0
 18 21  1  0
 21 22  3  0
  1 23  1  0
 23 24  2  0
 24 25  1  0
 25 26  1  0
 24 27  1  0
 27 28  1  0
 28 29  1  0
 29 30  1  0
 30 31  1  0
 31 32  1  0
 32 33  2  0
 33 34  1  0
 34 35  1  0
 32 36  1  0
 36 37  1  0
 37 38  1  0
 38 39  1  0
 39 40  1  0
 40 41  1  0
 41 42  1  0
 40 43  2  0
 43 44  1  0
 44 45  1  0
 45 46  1  0
 46 47  1  0
 47 48  1  0
 48 49  1  0
 49 50  1  0
 50 51  1  0
 51 52  1  0
 52 53  1  0
 50 54  1  0
 54 55  1  0
 47 56  1  0
 56 57  1  0
 43 58  1  0
 58 59  2  3
 59 60  1  0
 60 61  2  0
 60 62  1  0
 62 63  2  0
 63 64  1  0
 63 65  1  0
 65 66  2  0
 66 67  1  0
 66 68  1  0
 68 69  2  0
 69 70  1  0
 70 71  2  3
 71 72  1  0
 72 73  3  0
 71 74  1  0
 74 75  3  0
 17  2  1  0
 53 23  1  0
 70 59  1  0
 16  5  1  0
 52 27  2  0
 69 62  1  0
 14  7  1  0
 51 29  2  0
 49 30  2  0
 35 31  2  0
 48 36  2  0
 46 37  2  0
 45 39  2  0
  1 76  1  0
  6 77  1  0
  8 78  1  0
 13 79  1  0
 15 80  1  0
 25 81  1  0
 25 82  1  0
 26 83  1  0
 26 84  1  0
 26 85  1  0
 41 86  1  0
 41 87  1  0
 42 88  1  0
 42 89  1  0
 42 90  1  0
 54 91  1  0
 54 92  1  0
 55 93  1  0
 55 94  1  0
 55 95  1  0
 56 96  1  0
 56 97  1  0
 57 98  1  0
 57 99  1  0
 57100  1  0
 58101  1  0
 65102  1  0
 68103  1  0
M  END

