
     RDKit          3D

103115  0  0  0  0  0  0  0  0999 V2000
   -4.5565   -2.8545    4.1873 C   0  0  0  0  0  0  0  0  0  0  0  0
   -4.2922   -4.1764    4.1365 C   0  0  0  0  0  0  0  0  0  0  0  0
   -3.0420   -4.7877    4.6094 C   0  0  0  0  0  0  0  0  0  0  0  0
   -2.0605   -4.1880    5.1293 O   0  0  0  0  0  0  0  0  0  0  0  0
   -3.1715   -6.2204    4.5220 C   0  0  0  0  0  0  0  0  0  0  0  0
   -2.2232   -7.1759    4.8772 C   0  0  0  0  0  0  0  0  0  0  0  0
   -2.5336   -8.5306    4.6937 C   0  0  0  0  0  0  0  0  0  0  0  0
   -1.6033   -9.5255    5.0318 C   0  0  0  0  0  0  0  0  0  0  0  0
   -1.9089  -10.8747    4.8213 C   0  0  0  0  0  0  0  0  0  0  0  0
   -0.9986  -11.8300    5.1315 F   0  0  0  0  0  0  0  0  0  0  0  0
   -3.1425  -11.2398    4.2712 C   0  0  0  0  0  0  0  0  0  0  0  0
   -3.4223  -12.5476    4.0411 F   0  0  0  0  0  0  0  0  0  0  0  0
   -4.0865  -10.2611    3.9416 C   0  0  0  0  0  0  0  0  0  0  0  0
   -3.7978   -8.9011    4.1554 C   0  0  0  0  0  0  0  0  0  0  0  0
   -4.7458   -7.9105    3.8294 C   0  0  0  0  0  0  0  0  0  0  0  0
   -4.4217   -6.5544    4.0233 C   0  0  0  0  0  0  0  0  0  0  0  0
   -5.2057   -5.3046    3.7532 C   0  0  0  0  0  0  0  0  0  0  0  0
   -6.4179   -5.2137    3.1401 C   0  0  0  0  0  0  0  0  0  0  0  0
   -7.0314   -3.9576    2.8009 C   0  0  0  0  0  0  0  0  0  0  0  0
   -7.5309   -2.9530    2.5167 N   0  0  0  0  0  0  0  0  0  0  0  0
   -7.1694   -6.3598    2.7065 C   0  0  0  0  0  0  0  0  0  0  0  0
   -7.7925   -7.2683    2.3441 N   0  0  0  0  0  0  0  0  0  0  0  0
   -3.4899   -1.8341    4.1957 C   0  0  0  0  0  0  0  0  0  0  0  0
   -3.5339   -0.5960    4.8669 C   0  0  0  0  0  0  0  0  0  0  0  0
   -4.7043   -0.0949    5.6687 C   0  0  0  0  0  0  0  0  0  0  0  0
   -5.6543    0.7097    4.7856 C   0  0  0  0  0  0  0  0  0  0  0  0
   -2.4432    0.2057    4.5046 C   0  0  0  0  0  0  0  0  0  0  0  0
   -2.0772    1.8427    4.7710 S   0  0  0  0  0  0  0  0  0  0  0  0
   -0.7714    1.7732    3.6872 C   0  0  0  0  0  0  0  0  0  0  0  0
   -0.1723    2.6873    2.8693 C   0  0  0  0  0  0  0  0  0  0  0  0
   -0.3112    4.0776    2.8378 C   0  0  0  0  0  0  0  0  0  0  0  0
    0.1401    4.7877    1.6917 C   0  0  0  0  0  0  0  0  0  0  0  0
   -0.0052    6.1361    1.7020 N   0  0  0  0  0  0  0  0  0  0  0  0
   -0.7308    6.3253    3.1777 S   0  0  0  0  0  0  0  0  0  0  0  0
   -0.8765    4.8097    3.8289 N   0  0  0  0  0  0  0  0  0  0  0  0
    0.7216    4.0672    0.6474 C   0  0  0  0  0  0  0  0  0  0  0  0
    1.3774    4.4940   -0.4670 C   0  0  0  0  0  0  0  0  0  0  0  0
    1.8622    5.9668   -1.1540 S   0  0  0  0  0  0  0  0  0  0  0  0
    2.9012    5.1388   -2.2230 C   0  0  0  0  0  0  0  0  0  0  0  0
    3.7802    5.5681   -3.2154 C   0  0  0  0  0  0  0  0  0  0  0  0
    3.9910    7.0072   -3.5868 C   0  0  0  0  0  0  0  0  0  0  0  0
    5.0297    7.6528   -2.6792 C   0  0  0  0  0  0  0  0  0  0  0  0
    4.4566    4.4735   -3.7870 C   0  0  0  0  0  0  0  0  0  0  0  0
    3.9799    3.0255   -3.0149 S   0  0  0  0  0  0  0  0  0  0  0  0
    2.8878    3.7843   -2.0002 C   0  0  0  0  0  0  0  0  0  0  0  0
    1.9977    3.4139   -1.0028 C   0  0  0  0  0  0  0  0  0  0  0  0
    1.7772    2.2694   -0.2975 N   0  0  0  0  0  0  0  0  0  0  0  0
    0.9151    2.6760    0.6973 C   0  0  0  0  0  0  0  0  0  0  0  0
    0.3682    1.9549    1.7993 C   0  0  0  0  0  0  0  0  0  0  0  0
    0.0079    0.6326    1.8952 N   0  0  0  0  0  0  0  0  0  0  0  0
   -0.6554    0.5610    3.0818 C   0  0  0  0  0  0  0  0  0  0  0  0
   -1.6027   -0.3381    3.5642 C   0  0  0  0  0  0  0  0  0  0  0  0
   -2.1614   -1.8521    3.1184 S   0  0  0  0  0  0  0  0  0  0  0  0
   -0.2002   -0.3155    0.7920 C   0  0  0  0  0  0  0  0  0  0  0  0
   -1.4897   -0.0020    0.0338 C   0  0  0  0  0  0  0  0  0  0  0  0
    2.7240    1.1452   -0.2434 C   0  0  0  0  0  0  0  0  0  0  0  0
    2.5960    0.2374   -1.4707 C   0  0  0  0  0  0  0  0  0  0  0  0
    5.5027    4.5576   -4.8184 C   0  0  0  0  0  0  0  0  0  0  0  0
    5.6551    3.6490   -5.7966 C   0  0  0  0  0  0  0  0  0  0  0  0
    6.9395    3.3700   -6.4346 C   0  0  0  0  0  0  0  0  0  0  0  0
    7.9601    4.1120   -6.4118 O   0  0  0  0  0  0  0  0  0  0  0  0
    6.8855    2.0322   -6.9881 C   0  0  0  0  0  0  0  0  0  0  0  0
    7.9241    1.2789   -7.5370 C   0  0  0  0  0  0  0  0  0  0  0  0
    7.6619   -0.0528   -7.8941 C   0  0  0  0  0  0  0  0  0  0  0  0
    6.3828   -0.6062   -7.6784 C   0  0  0  0  0  0  0  0  0  0  0  0
    6.1543   -1.9073   -7.9903 F   0  0  0  0  0  0  0  0  0  0  0  0
    5.3499    0.1708   -7.1241 C   0  0  0  0  0  0  0  0  0  0  0  0
    5.6146    1.5089   -6.8000 C   0  0  0  0  0  0  0  0  0  0  0  0
    4.7374    2.5431   -6.1929 C   0  0  0  0  0  0  0  0  0  0  0  0
    3.3982    2.6484   -6.3596 C   0  0  0  0  0  0  0  0  0  0  0  0
    2.5977    1.5772   -6.8973 C   0  0  0  0  0  0  0  0  0  0  0  0
    1.9396    0.7242   -7.3297 N   0  0  0  0  0  0  0  0  0  0  0  0
    2.7106    3.9011   -6.1747 C   0  0  0  0  0  0  0  0  0  0  0  0
    2.1571    4.9084   -6.0365 N   0  0  0  0  0  0  0  0  0  0  0  0
   -5.5685   -2.4914    4.1499 H   0  0  0  0  0  0  0  0  0  0  0  0
   -1.2616   -6.8726    5.2740 H   0  0  0  0  0  0  0  0  0  0  0  0
   -0.6391   -9.2582    5.4546 H   0  0  0  0  0  0  0  0  0  0  0  0
   -5.0332  -10.5620    3.5021 H   0  0  0  0  0  0  0  0  0  0  0  0
   -5.7051   -8.2199    3.4520 H   0  0  0  0  0  0  0  0  0  0  0  0
   -4.3443    0.5519    6.5000 H   0  0  0  0  0  0  0  0  0  0  0  0
   -5.2511   -0.9511    6.1165 H   0  0  0  0  0  0  0  0  0  0  0  0
   -5.1427    1.6138    4.3907 H   0  0  0  0  0  0  0  0  0  0  0  0
   -6.0068    0.0870    3.9341 H   0  0  0  0  0  0  0  0  0  0  0  0
   -6.5316    1.0337    5.3839 H   0  0  0  0  0  0  0  0  0  0  0  0
    4.3257    7.0849   -4.6418 H   0  0  0  0  0  0  0  0  0  0  0  0
    3.0314    7.5611   -3.4988 H   0  0  0  0  0  0  0  0  0  0  0  0
    4.6808    7.6415   -1.6255 H   0  0  0  0  0  0  0  0  0  0  0  0
    5.1874    8.7091   -2.9919 H   0  0  0  0  0  0  0  0  0  0  0  0
    5.9977    7.1098   -2.7469 H   0  0  0  0  0  0  0  0  0  0  0  0
    0.6266   -0.2942    0.0831 H   0  0  0  0  0  0  0  0  0  0  0  0
   -0.2296   -1.3539    1.1775 H   0  0  0  0  0  0  0  0  0  0  0  0
   -1.5545   -0.6470   -0.8646 H   0  0  0  0  0  0  0  0  0  0  0  0
   -1.5006    1.0597   -0.2920 H   0  0  0  0  0  0  0  0  0  0  0  0
   -2.3734   -0.2011    0.6723 H   0  0  0  0  0  0  0  0  0  0  0  0
    2.5749    0.5561    0.6880 H   0  0  0  0  0  0  0  0  0  0  0  0
    3.7671    1.5291   -0.1875 H   0  0  0  0  0  0  0  0  0  0  0  0
    2.7566   -0.8240   -1.1766 H   0  0  0  0  0  0  0  0  0  0  0  0
    3.3625    0.4843   -2.2316 H   0  0  0  0  0  0  0  0  0  0  0  0
    1.5923    0.3301   -1.9384 H   0  0  0  0  0  0  0  0  0  0  0  0
    6.2638    5.3165   -4.6858 H   0  0  0  0  0  0  0  0  0  0  0  0
    8.9182    1.7007   -7.6517 H   0  0  0  0  0  0  0  0  0  0  0  0
    8.4489   -0.6642   -8.3131 H   0  0  0  0  0  0  0  0  0  0  0  0
    4.3943   -0.2843   -6.9182 H   0  0  0  0  0  0  0  0  0  0  0  0
  1  2  2  3
  2  3  1  0
  3  4  2  0
  3  5  1  0
  5  6  2  0
  6  7  1  0
  7  8  2  0
  8  9  1  0
  9 10  1  0
  9 11  2  0
 11 12  1  0
 11 13  1  0
 13 14  2  0
 14 15  1  0
 15 16  2  0
 16 17  1  0
 17 18  2  3
 18 19  1  0
 19 20  3  0
 18 21  1  0
 21 22  3  0
  1 23  1  0
 23 24  2  0
 24 25  1  0
 25 26  1  0
 24 27  1  0
 27 28  1  0
 28 29  1  0
 29 30  1  0
 30 31  1  0
 31 32  1  0
 32 33  2  0
 33 34  1  0
 34 35  1  0
 32 36  1  0
 36 37  1  0
 37 38  1  0
 38 39  1  0
 39 40  1  0
 40 41  1  0
 41 42  1  0
 40 43  2  0
 43 44  1  0
 44 45  1  0
 45 46  1  0
 46 47  1  0
 47 48  1  0
 48 49  1  0
 49 50  1  0
 50 51  1  0
 51 52  1  0
 52 53  1  0
 50 54  1  0
 54 55  1  0
 47 56  1  0
 56 57  1  0
 43 58  1  0
 58 59  2  3
 59 60  1  0
 60 61  2  0
 60 62  1  0
 62 63  2  0
 63 64  1  0
 64 65  2  0
 65 66  1  0
 65 67  1  0
 67 68  2  0
 68 69  1  0
 69 70  2  3
 70 71  1  0
 71 72  3  0
 70 73  1  0
 73 74  3  0
 17  2  1  0
 53 23  1  0
 69 59  1  0
 16  5  1  0
 52 27  2  0
 68 62  1  0
 14  7  1  0
 51 29  2  0
 49 30  2  0
 35 31  2  0
 48 36  2  0
 46 37  2  0
 45 39  2  0
  1 75  1  0
  6 76  1  0
  8 77  1  0
 13 78  1  0
 15 79  1  0
 25 80  1  0
 25 81  1  0
 26 82  1  0
 26 83  1  0
 26 84  1  0
 41 85  1  0
 41 86  1  0
 42 87  1  0
 42 88  1  0
 42 89  1  0
 54 90  1  0
 54 91  1  0
 55 92  1  0
 55 93  1  0
 55 94  1  0
 56 95  1  0
 56 96  1  0
 57 97  1  0
 57 98  1  0
 57 99  1  0
 58100  1  0
 63101  1  0
 64102  1  0
 67103  1  0
M  END

