
     RDKit          3D

106118  0  0  0  0  0  0  0  0999 V2000
   -1.0089   -6.4093   -3.6841 C   0  0  0  0  0  0  0  0  0  0  0  0
   -1.4700   -5.4844   -4.5575 C   0  0  0  0  0  0  0  0  0  0  0  0
   -1.7849   -4.0658   -4.3088 C   0  0  0  0  0  0  0  0  0  0  0  0
   -2.2000   -3.5506   -3.2349 O   0  0  0  0  0  0  0  0  0  0  0  0
   -1.6838   -3.3431   -5.5572 C   0  0  0  0  0  0  0  0  0  0  0  0
   -1.8390   -1.9744   -5.7705 C   0  0  0  0  0  0  0  0  0  0  0  0
   -1.6625   -1.4723   -7.0714 C   0  0  0  0  0  0  0  0  0  0  0  0
   -1.8411   -0.1068   -7.3388 C   0  0  0  0  0  0  0  0  0  0  0  0
   -1.6515    0.3873   -8.6326 C   0  0  0  0  0  0  0  0  0  0  0  0
   -1.8401    1.7058   -8.8865 F   0  0  0  0  0  0  0  0  0  0  0  0
   -1.2640   -0.4745   -9.6641 C   0  0  0  0  0  0  0  0  0  0  0  0
   -1.0735    0.0091  -10.9159 F   0  0  0  0  0  0  0  0  0  0  0  0
   -1.0819   -1.8384   -9.4136 C   0  0  0  0  0  0  0  0  0  0  0  0
   -1.2900   -2.3539   -8.1252 C   0  0  0  0  0  0  0  0  0  0  0  0
   -1.1416   -3.7326   -7.8736 C   0  0  0  0  0  0  0  0  0  0  0  0
   -1.3920   -4.2218   -6.5816 C   0  0  0  0  0  0  0  0  0  0  0  0
   -1.3853   -5.6134   -6.0483 C   0  0  0  0  0  0  0  0  0  0  0  0
   -1.5362   -6.7550   -6.7719 C   0  0  0  0  0  0  0  0  0  0  0  0
   -1.5411   -6.7662   -8.2131 C   0  0  0  0  0  0  0  0  0  0  0  0
   -1.5465   -6.7902   -9.3701 N   0  0  0  0  0  0  0  0  0  0  0  0
   -1.8347   -8.0233   -6.1576 C   0  0  0  0  0  0  0  0  0  0  0  0
   -2.0820   -9.0486   -5.6771 N   0  0  0  0  0  0  0  0  0  0  0  0
   -0.7511   -6.2459   -2.2311 C   0  0  0  0  0  0  0  0  0  0  0  0
    0.3296   -6.8464   -1.5450 C   0  0  0  0  0  0  0  0  0  0  0  0
    1.4098   -7.6754   -2.1892 C   0  0  0  0  0  0  0  0  0  0  0  0
    2.4080   -6.7923   -2.9290 C   0  0  0  0  0  0  0  0  0  0  0  0
    0.3778   -6.4367   -0.2078 C   0  0  0  0  0  0  0  0  0  0  0  0
    1.6307   -6.4702    0.9394 S   0  0  0  0  0  0  0  0  0  0  0  0
    0.7927   -5.4000    1.9577 C   0  0  0  0  0  0  0  0  0  0  0  0
    1.2099   -4.4218    2.8152 C   0  0  0  0  0  0  0  0  0  0  0  0
    2.5064   -4.1748    3.2871 C   0  0  0  0  0  0  0  0  0  0  0  0
    2.8070   -2.8987    3.8339 C   0  0  0  0  0  0  0  0  0  0  0  0
    4.0840   -2.6814    4.2332 N   0  0  0  0  0  0  0  0  0  0  0  0
    4.7516   -4.1476    3.8495 S   0  0  0  0  0  0  0  0  0  0  0  0
    3.5318   -5.0597    3.1993 N   0  0  0  0  0  0  0  0  0  0  0  0
    1.7873   -1.9535    3.9180 C   0  0  0  0  0  0  0  0  0  0  0  0
    1.8083   -0.6657    4.3580 C   0  0  0  0  0  0  0  0  0  0  0  0
    2.9289    0.5148    4.8405 S   0  0  0  0  0  0  0  0  0  0  0  0
    1.6840    1.6844    4.9220 C   0  0  0  0  0  0  0  0  0  0  0  0
    1.6808    3.0656    5.1181 C   0  0  0  0  0  0  0  0  0  0  0  0
    2.9170    3.8856    5.3537 C   0  0  0  0  0  0  0  0  0  0  0  0
    3.4976    4.3734    4.0306 C   0  0  0  0  0  0  0  0  0  0  0  0
    0.3990    3.5956    4.8811 C   0  0  0  0  0  0  0  0  0  0  0  0
   -0.6960    2.3506    4.4697 S   0  0  0  0  0  0  0  0  0  0  0  0
    0.4656    1.1482    4.5848 C   0  0  0  0  0  0  0  0  0  0  0  0
    0.5496   -0.1960    4.2579 C   0  0  0  0  0  0  0  0  0  0  0  0
   -0.3320   -1.1115    3.7856 N   0  0  0  0  0  0  0  0  0  0  0  0
    0.4639   -2.2034    3.4979 C   0  0  0  0  0  0  0  0  0  0  0  0
    0.1888   -3.4468    2.8371 C   0  0  0  0  0  0  0  0  0  0  0  0
   -0.7997   -3.7933    1.9376 N   0  0  0  0  0  0  0  0  0  0  0  0
   -0.3879   -4.9844    1.4229 C   0  0  0  0  0  0  0  0  0  0  0  0
   -0.6270   -5.5904    0.1855 C   0  0  0  0  0  0  0  0  0  0  0  0
   -1.6268   -5.2944   -1.1254 S   0  0  0  0  0  0  0  0  0  0  0  0
   -1.8625   -2.9749    1.3442 C   0  0  0  0  0  0  0  0  0  0  0  0
   -1.2870   -1.8436    0.4969 C   0  0  0  0  0  0  0  0  0  0  0  0
   -1.7825   -1.0001    3.9905 C   0  0  0  0  0  0  0  0  0  0  0  0
   -2.3386   -2.1822    4.7856 C   0  0  0  0  0  0  0  0  0  0  0  0
    0.0477    5.0219    4.9518 C   0  0  0  0  0  0  0  0  0  0  0  0
   -0.3547    5.7387    3.8863 C   0  0  0  0  0  0  0  0  0  0  0  0
   -0.2630    5.3061    2.4835 C   0  0  0  0  0  0  0  0  0  0  0  0
   -0.0287    4.1410    2.0659 O   0  0  0  0  0  0  0  0  0  0  0  0
   -0.3766    6.4762    1.6397 C   0  0  0  0  0  0  0  0  0  0  0  0
   -0.2412    6.5501    0.2533 C   0  0  0  0  0  0  0  0  0  0  0  0
   -0.2687    7.8128   -0.3677 C   0  0  0  0  0  0  0  0  0  0  0  0
   -0.1652    7.9110   -1.8694 C   0  0  0  0  0  0  0  0  0  0  0  0
   -1.3905    7.5996   -2.4288 F   0  0  0  0  0  0  0  0  0  0  0  0
    0.1992    9.1862   -2.2621 F   0  0  0  0  0  0  0  0  0  0  0  0
    0.7889    7.0256   -2.3398 F   0  0  0  0  0  0  0  0  0  0  0  0
   -0.4489    8.9670    0.4290 C   0  0  0  0  0  0  0  0  0  0  0  0
   -0.5806    8.8687    1.8227 C   0  0  0  0  0  0  0  0  0  0  0  0
   -0.5692    7.6000    2.4233 C   0  0  0  0  0  0  0  0  0  0  0  0
   -0.6625    7.2008    3.8579 C   0  0  0  0  0  0  0  0  0  0  0  0
   -1.1483    7.9490    4.8831 C   0  0  0  0  0  0  0  0  0  0  0  0
   -1.4018    7.3967    6.1878 C   0  0  0  0  0  0  0  0  0  0  0  0
   -1.6057    6.9627    7.2415 N   0  0  0  0  0  0  0  0  0  0  0  0
   -1.5573    9.3178    4.7200 C   0  0  0  0  0  0  0  0  0  0  0  0
   -1.8948   10.4195    4.6019 N   0  0  0  0  0  0  0  0  0  0  0  0
   -0.6123   -7.3206   -4.0969 H   0  0  0  0  0  0  0  0  0  0  0  0
   -2.0968   -1.3196   -4.9486 H   0  0  0  0  0  0  0  0  0  0  0  0
   -2.1309    0.5756   -6.5493 H   0  0  0  0  0  0  0  0  0  0  0  0
   -0.7873   -2.4919  -10.2279 H   0  0  0  0  0  0  0  0  0  0  0  0
   -0.8173   -4.3823   -8.6708 H   0  0  0  0  0  0  0  0  0  0  0  0
    0.9640   -8.4094   -2.8912 H   0  0  0  0  0  0  0  0  0  0  0  0
    1.9505   -8.2653   -1.4166 H   0  0  0  0  0  0  0  0  0  0  0  0
    3.1611   -7.4330   -3.4333 H   0  0  0  0  0  0  0  0  0  0  0  0
    2.9313   -6.1211   -2.2144 H   0  0  0  0  0  0  0  0  0  0  0  0
    1.8946   -6.1798   -3.7012 H   0  0  0  0  0  0  0  0  0  0  0  0
    3.6768    3.2785    5.8896 H   0  0  0  0  0  0  0  0  0  0  0  0
    2.6716    4.7584    5.9959 H   0  0  0  0  0  0  0  0  0  0  0  0
    4.3804    5.0181    4.2261 H   0  0  0  0  0  0  0  0  0  0  0  0
    3.8172    3.5090    3.4071 H   0  0  0  0  0  0  0  0  0  0  0  0
    2.7420    4.9656    3.4726 H   0  0  0  0  0  0  0  0  0  0  0  0
   -2.5649   -2.6330    2.1070 H   0  0  0  0  0  0  0  0  0  0  0  0
   -2.5146   -3.5932    0.7025 H   0  0  0  0  0  0  0  0  0  0  0  0
   -2.1124   -1.2708    0.0259 H   0  0  0  0  0  0  0  0  0  0  0  0
   -0.6429   -2.2637   -0.3042 H   0  0  0  0  0  0  0  0  0  0  0  0
   -0.6832   -1.1496    1.1133 H   0  0  0  0  0  0  0  0  0  0  0  0
   -2.0081   -0.1012    4.5999 H   0  0  0  0  0  0  0  0  0  0  0  0
   -2.3045   -0.8078    3.0377 H   0  0  0  0  0  0  0  0  0  0  0  0
   -2.1210   -3.1519    4.2975 H   0  0  0  0  0  0  0  0  0  0  0  0
   -1.8930   -2.1932    5.8048 H   0  0  0  0  0  0  0  0  0  0  0  0
   -3.4410   -2.0769    4.8807 H   0  0  0  0  0  0  0  0  0  0  0  0
    0.2471    5.5135    5.8880 H   0  0  0  0  0  0  0  0  0  0  0  0
   -0.1034    5.6469   -0.3252 H   0  0  0  0  0  0  0  0  0  0  0  0
   -0.4768    9.9500   -0.0249 H   0  0  0  0  0  0  0  0  0  0  0  0
   -0.6651    9.7785    2.3935 H   0  0  0  0  0  0  0  0  0  0  0  0
  1  2  2  3
  2  3  1  0
  3  4  2  0
  3  5  1  0
  5  6  2  0
  6  7  1  0
  7  8  2  0
  8  9  1  0
  9 10  1  0
  9 11  2  0
 11 12  1  0
 11 13  1  0
 13 14  2  0
 14 15  1  0
 15 16  2  0
 16 17  1  0
 17 18  2  3
 18 19  1  0
 19 20  3  0
 18 21  1  0
 21 22  3  0
  1 23  1  0
 23 24  2  0
 24 25  1  0
 25 26  1  0
 24 27  1  0
 27 28  1  0
 28 29  1  0
 29 30  1  0
 30 31  1  0
 31 32  1  0
 32 33  2  0
 33 34  1  0
 34 35  1  0
 32 36  1  0
 36 37  1  0
 37 38  1  0
 38 39  1  0
 39 40  1  0
 40 41  1  0
 41 42  1  0
 40 43  2  0
 43 44  1  0
 44 45  1  0
 45 46  1  0
 46 47  1  0
 47 48  1  0
 48 49  1  0
 49 50  1  0
 50 51  1  0
 51 52  1  0
 52 53  1  0
 50 54  1  0
 54 55  1  0
 47 56  1  0
 56 57  1  0
 43 58  1  0
 58 59  2  3
 59 60  1  0
 60 61  2  0
 60 62  1  0
 62 63  2  0
 63 64  1  0
 64 65  1  0
 65 66  1  0
 65 67  1  0
 65 68  1  0
 64 69  2  0
 69 70  1  0
 70 71  2  0
 71 72  1  0
 72 73  2  3
 73 74  1  0
 74 75  3  0
 73 76  1  0
 76 77  3  0
 17  2  1  0
 53 23  1  0
 72 59  1  0
 16  5  1  0
 52 27  2  0
 71 62  1  0
 14  7  1  0
 51 29  2  0
 49 30  2  0
 35 31  2  0
 48 36  2  0
 46 37  2  0
 45 39  2  0
  1 78  1  0
  6 79  1  0
  8 80  1  0
 13 81  1  0
 15 82  1  0
 25 83  1  0
 25 84  1  0
 26 85  1  0
 26 86  1  0
 26 87  1  0
 41 88  1  0
 41 89  1  0
 42 90  1  0
 42 91  1  0
 42 92  1  0
 54 93  1  0
 54 94  1  0
 55 95  1  0
 55 96  1  0
 55 97  1  0
 56 98  1  0
 56 99  1  0
 57100  1  0
 57101  1  0
 57102  1  0
 58103  1  0
 63104  1  0
 69105  1  0
 70106  1  0
M  END

