
     RDKit          3D

103115  0  0  0  0  0  0  0  0999 V2000
   -3.9627    1.6579    5.2287 C   0  0  0  0  0  0  0  0  0  0  0  0
   -3.1021    0.7569    5.7426 C   0  0  0  0  0  0  0  0  0  0  0  0
   -2.1603   -0.0574    4.9654 C   0  0  0  0  0  0  0  0  0  0  0  0
   -2.2284   -0.3136    3.7344 O   0  0  0  0  0  0  0  0  0  0  0  0
   -1.1389   -0.5533    5.8584 C   0  0  0  0  0  0  0  0  0  0  0  0
    0.0180   -1.2573    5.5295 C   0  0  0  0  0  0  0  0  0  0  0  0
    0.9366   -1.5521    6.5497 C   0  0  0  0  0  0  0  0  0  0  0  0
    2.1220   -2.2454    6.2603 C   0  0  0  0  0  0  0  0  0  0  0  0
    3.0445   -2.5158    7.2758 C   0  0  0  0  0  0  0  0  0  0  0  0
    4.1905   -3.1805    6.9876 F   0  0  0  0  0  0  0  0  0  0  0  0
    2.7951   -2.0882    8.5831 C   0  0  0  0  0  0  0  0  0  0  0  0
    3.6972   -2.3461    9.5644 F   0  0  0  0  0  0  0  0  0  0  0  0
    1.6189   -1.3993    8.8889 C   0  0  0  0  0  0  0  0  0  0  0  0
    0.6784   -1.1241    7.8829 C   0  0  0  0  0  0  0  0  0  0  0  0
   -0.5038   -0.4136    8.1808 C   0  0  0  0  0  0  0  0  0  0  0  0
   -1.4257   -0.1564    7.1534 C   0  0  0  0  0  0  0  0  0  0  0  0
   -2.7314    0.5714    7.1777 C   0  0  0  0  0  0  0  0  0  0  0  0
   -3.5251    0.7956    8.2572 C   0  0  0  0  0  0  0  0  0  0  0  0
   -3.1249    0.4448    9.5937 C   0  0  0  0  0  0  0  0  0  0  0  0
   -2.8178    0.1695   10.6776 N   0  0  0  0  0  0  0  0  0  0  0  0
   -4.8886    1.2515    8.1336 C   0  0  0  0  0  0  0  0  0  0  0  0
   -5.9874    1.6065    8.0375 N   0  0  0  0  0  0  0  0  0  0  0  0
   -4.0605    1.9196    3.7874 C   0  0  0  0  0  0  0  0  0  0  0  0
   -5.0908    1.4608    2.9466 C   0  0  0  0  0  0  0  0  0  0  0  0
   -6.3221    0.7399    3.4142 C   0  0  0  0  0  0  0  0  0  0  0  0
   -7.4000    1.7343    3.8315 C   0  0  0  0  0  0  0  0  0  0  0  0
   -4.7900    1.7308    1.6100 C   0  0  0  0  0  0  0  0  0  0  0  0
   -5.4601    1.2030    0.1236 S   0  0  0  0  0  0  0  0  0  0  0  0
   -4.1167    1.8033   -0.7255 C   0  0  0  0  0  0  0  0  0  0  0  0
   -3.5594    1.7605   -1.9746 C   0  0  0  0  0  0  0  0  0  0  0  0
   -4.0374    1.3270   -3.2144 C   0  0  0  0  0  0  0  0  0  0  0  0
   -3.1691    1.4056   -4.3473 C   0  0  0  0  0  0  0  0  0  0  0  0
   -3.6622    0.9597   -5.5284 N   0  0  0  0  0  0  0  0  0  0  0  0
   -5.1854    0.5199   -5.0466 S   0  0  0  0  0  0  0  0  0  0  0  0
   -5.2834    0.8372   -3.4228 N   0  0  0  0  0  0  0  0  0  0  0  0
   -1.8520    1.8574   -4.1624 C   0  0  0  0  0  0  0  0  0  0  0  0
   -0.7467    1.7012   -4.9540 C   0  0  0  0  0  0  0  0  0  0  0  0
   -0.4078    0.8116   -6.3611 S   0  0  0  0  0  0  0  0  0  0  0  0
    1.2307    0.6646   -5.9268 C   0  0  0  0  0  0  0  0  0  0  0  0
    2.2946   -0.0759   -6.4478 C   0  0  0  0  0  0  0  0  0  0  0  0
    2.2499   -0.8251   -7.7511 C   0  0  0  0  0  0  0  0  0  0  0  0
    2.7333    0.0581   -8.8945 C   0  0  0  0  0  0  0  0  0  0  0  0
    3.3946   -0.0510   -5.5713 C   0  0  0  0  0  0  0  0  0  0  0  0
    3.0295    0.8947   -4.2014 S   0  0  0  0  0  0  0  0  0  0  0  0
    1.4715    1.2452   -4.7101 C   0  0  0  0  0  0  0  0  0  0  0  0
    0.3445    1.8333   -4.1464 C   0  0  0  0  0  0  0  0  0  0  0  0
    0.0092    2.0649   -2.8495 N   0  0  0  0  0  0  0  0  0  0  0  0
   -1.3556    2.1891   -2.8919 C   0  0  0  0  0  0  0  0  0  0  0  0
   -2.2597    2.2569   -1.8103 C   0  0  0  0  0  0  0  0  0  0  0  0
   -2.0558    2.7142   -0.5388 N   0  0  0  0  0  0  0  0  0  0  0  0
   -3.2008    2.3708    0.0932 C   0  0  0  0  0  0  0  0  0  0  0  0
   -3.5830    2.3554    1.4177 C   0  0  0  0  0  0  0  0  0  0  0  0
   -2.7975    2.6142    2.8699 S   0  0  0  0  0  0  0  0  0  0  0  0
   -1.1526    3.7920   -0.1081 C   0  0  0  0  0  0  0  0  0  0  0  0
   -1.9063    5.1136    0.0456 C   0  0  0  0  0  0  0  0  0  0  0  0
    0.7921    1.5379   -1.7148 C   0  0  0  0  0  0  0  0  0  0  0  0
    0.6282    0.0225   -1.5937 C   0  0  0  0  0  0  0  0  0  0  0  0
    4.6917   -0.7016   -5.8088 C   0  0  0  0  0  0  0  0  0  0  0  0
    5.2891   -1.5318   -4.9325 C   0  0  0  0  0  0  0  0  0  0  0  0
    4.6517   -2.1638   -3.7664 C   0  0  0  0  0  0  0  0  0  0  0  0
    3.5143   -1.9037   -3.2948 O   0  0  0  0  0  0  0  0  0  0  0  0
    5.4834   -3.2662   -3.3320 C   0  0  0  0  0  0  0  0  0  0  0  0
    5.2088   -4.2125   -2.3438 C   0  0  0  0  0  0  0  0  0  0  0  0
    6.0922   -5.2898   -2.1815 C   0  0  0  0  0  0  0  0  0  0  0  0
    5.7502   -6.4874   -0.9387 Cl  0  0  0  0  0  0  0  0  0  0  0  0
    7.2113   -5.4193   -3.0335 C   0  0  0  0  0  0  0  0  0  0  0  0
    8.2965   -6.7947   -2.8946 Cl  0  0  0  0  0  0  0  0  0  0  0  0
    7.4595   -4.4555   -4.0293 C   0  0  0  0  0  0  0  0  0  0  0  0
    6.6009   -3.3503   -4.1419 C   0  0  0  0  0  0  0  0  0  0  0  0
    6.6068   -2.2147   -5.1056 C   0  0  0  0  0  0  0  0  0  0  0  0
    7.6801   -1.7491   -5.7972 C   0  0  0  0  0  0  0  0  0  0  0  0
    7.6447   -0.5188   -6.5443 C   0  0  0  0  0  0  0  0  0  0  0  0
    7.6353    0.4700   -7.1457 N   0  0  0  0  0  0  0  0  0  0  0  0
    8.9777   -2.3669   -5.7128 C   0  0  0  0  0  0  0  0  0  0  0  0
   10.0267   -2.8471   -5.6476 N   0  0  0  0  0  0  0  0  0  0  0  0
   -4.5404    2.3034    5.8659 H   0  0  0  0  0  0  0  0  0  0  0  0
    0.2093   -1.5421    4.5014 H   0  0  0  0  0  0  0  0  0  0  0  0
    2.3357   -2.5805    5.2523 H   0  0  0  0  0  0  0  0  0  0  0  0
    1.4448   -1.0733    9.9080 H   0  0  0  0  0  0  0  0  0  0  0  0
   -0.6623   -0.0442    9.1808 H   0  0  0  0  0  0  0  0  0  0  0  0
   -6.0678    0.0843    4.2730 H   0  0  0  0  0  0  0  0  0  0  0  0
   -6.7114    0.0935    2.6015 H   0  0  0  0  0  0  0  0  0  0  0  0
   -7.6802    2.3793    2.9694 H   0  0  0  0  0  0  0  0  0  0  0  0
   -8.2985    1.1801    4.1758 H   0  0  0  0  0  0  0  0  0  0  0  0
   -7.0350    2.3712    4.6659 H   0  0  0  0  0  0  0  0  0  0  0  0
    1.2111   -1.1607   -7.9624 H   0  0  0  0  0  0  0  0  0  0  0  0
    2.8860   -1.7351   -7.6902 H   0  0  0  0  0  0  0  0  0  0  0  0
    3.7797    0.3869   -8.7111 H   0  0  0  0  0  0  0  0  0  0  0  0
    2.0784    0.9503   -8.9943 H   0  0  0  0  0  0  0  0  0  0  0  0
    2.6976   -0.5134   -9.8463 H   0  0  0  0  0  0  0  0  0  0  0  0
   -0.6823    3.5185    0.8590 H   0  0  0  0  0  0  0  0  0  0  0  0
   -0.3579    3.9641   -0.8615 H   0  0  0  0  0  0  0  0  0  0  0  0
   -1.1939    5.9201    0.3194 H   0  0  0  0  0  0  0  0  0  0  0  0
   -2.4040    5.3828   -0.9115 H   0  0  0  0  0  0  0  0  0  0  0  0
   -2.6718    5.0359    0.8447 H   0  0  0  0  0  0  0  0  0  0  0  0
    0.4796    1.9683   -0.7547 H   0  0  0  0  0  0  0  0  0  0  0  0
    1.8655    1.7964   -1.8358 H   0  0  0  0  0  0  0  0  0  0  0  0
   -0.4315   -0.2315   -1.3651 H   0  0  0  0  0  0  0  0  0  0  0  0
    0.9198   -0.4857   -2.5356 H   0  0  0  0  0  0  0  0  0  0  0  0
    1.2724   -0.3564   -0.7716 H   0  0  0  0  0  0  0  0  0  0  0  0
    5.1286   -0.5439   -6.7807 H   0  0  0  0  0  0  0  0  0  0  0  0
    4.3207   -4.1257   -1.7292 H   0  0  0  0  0  0  0  0  0  0  0  0
    8.2823   -4.6080   -4.7066 H   0  0  0  0  0  0  0  0  0  0  0  0
  1  2  2  3
  2  3  1  0
  3  4  2  0
  3  5  1  0
  5  6  2  0
  6  7  1  0
  7  8  2  0
  8  9  1  0
  9 10  1  0
  9 11  2  0
 11 12  1  0
 11 13  1  0
 13 14  2  0
 14 15  1  0
 15 16  2  0
 16 17  1  0
 17 18  2  3
 18 19  1  0
 19 20  3  0
 18 21  1  0
 21 22  3  0
  1 23  1  0
 23 24  2  0
 24 25  1  0
 25 26  1  0
 24 27  1  0
 27 28  1  0
 28 29  1  0
 29 30  1  0
 30 31  1  0
 31 32  1  0
 32 33  2  0
 33 34  1  0
 34 35  1  0
 32 36  1  0
 36 37  1  0
 37 38  1  0
 38 39  1  0
 39 40  1  0
 40 41  1  0
 41 42  1  0
 40 43  2  0
 43 44  1  0
 44 45  1  0
 45 46  1  0
 46 47  1  0
 47 48  1  0
 48 49  1  0
 49 50  1  0
 50 51  1  0
 51 52  1  0
 52 53  1  0
 50 54  1  0
 54 55  1  0
 47 56  1  0
 56 57  1  0
 43 58  1  0
 58 59  2  3
 59 60  1  0
 60 61  2  0
 60 62  1  0
 62 63  2  0
 63 64  1  0
 64 65  1  0
 64 66  2  0
 66 67  1  0
 66 68  1  0
 68 69  2  0
 69 70  1  0
 70 71  2  3
 71 72  1  0
 72 73  3  0
 71 74  1  0
 74 75  3  0
 17  2  1  0
 53 23  1  0
 70 59  1  0
 16  5  1  0
 52 27  2  0
 69 62  1  0
 14  7  1  0
 51 29  2  0
 49 30  2  0
 35 31  2  0
 48 36  2  0
 46 37  2  0
 45 39  2  0
  1 76  1  0
  6 77  1  0
  8 78  1  0
 13 79  1  0
 15 80  1  0
 25 81  1  0
 25 82  1  0
 26 83  1  0
 26 84  1  0
 26 85  1  0
 41 86  1  0
 41 87  1  0
 42 88  1  0
 42 89  1  0
 42 90  1  0
 54 91  1  0
 54 92  1  0
 55 93  1  0
 55 94  1  0
 55 95  1  0
 56 96  1  0
 56 97  1  0
 57 98  1  0
 57 99  1  0
 57100  1  0
 58101  1  0
 63102  1  0
 68103  1  0
M  END

