
     RDKit          3D

103115  0  0  0  0  0  0  0  0999 V2000
    3.8744   -3.9297    4.9674 C   0  0  0  0  0  0  0  0  0  0  0  0
    5.0738   -3.3173    4.8970 C   0  0  0  0  0  0  0  0  0  0  0  0
    5.6619   -2.6866    3.7065 C   0  0  0  0  0  0  0  0  0  0  0  0
    5.4474   -3.0039    2.5104 O   0  0  0  0  0  0  0  0  0  0  0  0
    6.6623   -1.7327    4.1390 C   0  0  0  0  0  0  0  0  0  0  0  0
    7.3789   -0.8270    3.3599 C   0  0  0  0  0  0  0  0  0  0  0  0
    8.3025    0.0225    3.9961 C   0  0  0  0  0  0  0  0  0  0  0  0
    9.0172    0.9752    3.2565 C   0  0  0  0  0  0  0  0  0  0  0  0
    9.9103    1.8384    3.8936 C   0  0  0  0  0  0  0  0  0  0  0  0
   10.5872    2.7626    3.1696 F   0  0  0  0  0  0  0  0  0  0  0  0
   10.1248    1.7358    5.2681 C   0  0  0  0  0  0  0  0  0  0  0  0
   11.0139    2.5660    5.8826 F   0  0  0  0  0  0  0  0  0  0  0  0
    9.4286    0.7871    6.0202 C   0  0  0  0  0  0  0  0  0  0  0  0
    8.5054   -0.0706    5.4011 C   0  0  0  0  0  0  0  0  0  0  0  0
    7.7651   -0.9993    6.1595 C   0  0  0  0  0  0  0  0  0  0  0  0
    6.8206   -1.8183    5.5148 C   0  0  0  0  0  0  0  0  0  0  0  0
    5.9036   -2.8698    6.0597 C   0  0  0  0  0  0  0  0  0  0  0  0
    5.9078   -3.3933    7.3120 C   0  0  0  0  0  0  0  0  0  0  0  0
    6.5954   -2.7917    8.4217 C   0  0  0  0  0  0  0  0  0  0  0  0
    7.1341   -2.3117    9.3274 N   0  0  0  0  0  0  0  0  0  0  0  0
    5.2785   -4.6546    7.6090 C   0  0  0  0  0  0  0  0  0  0  0  0
    4.7904   -5.6791    7.8431 N   0  0  0  0  0  0  0  0  0  0  0  0
    2.9326   -4.0920    3.8388 C   0  0  0  0  0  0  0  0  0  0  0  0
    2.0250   -5.1625    3.7019 C   0  0  0  0  0  0  0  0  0  0  0  0
    1.9833   -6.3709    4.5931 C   0  0  0  0  0  0  0  0  0  0  0  0
    0.9951   -6.1700    5.7345 C   0  0  0  0  0  0  0  0  0  0  0  0
    1.1023   -4.9137    2.6816 C   0  0  0  0  0  0  0  0  0  0  0  0
   -0.2967   -5.7357    2.1459 S   0  0  0  0  0  0  0  0  0  0  0  0
   -0.6117   -4.5071    1.0201 C   0  0  0  0  0  0  0  0  0  0  0  0
   -1.6419   -4.0926    0.2283 C   0  0  0  0  0  0  0  0  0  0  0  0
   -2.9168   -4.6366    0.0578 C   0  0  0  0  0  0  0  0  0  0  0  0
   -3.8843   -3.8895   -0.6690 C   0  0  0  0  0  0  0  0  0  0  0  0
   -5.1181   -4.4339   -0.7935 N   0  0  0  0  0  0  0  0  0  0  0  0
   -4.8882   -5.8381    0.0580 S   0  0  0  0  0  0  0  0  0  0  0  0
   -3.3164   -5.8248    0.5790 N   0  0  0  0  0  0  0  0  0  0  0  0
   -3.5126   -2.6609   -1.2146 C   0  0  0  0  0  0  0  0  0  0  0  0
   -4.1922   -1.8093   -2.0355 C   0  0  0  0  0  0  0  0  0  0  0  0
   -5.7086   -1.6840   -2.7891 S   0  0  0  0  0  0  0  0  0  0  0  0
   -5.1743   -0.3112   -3.6610 C   0  0  0  0  0  0  0  0  0  0  0  0
   -5.7871    0.5404   -4.5791 C   0  0  0  0  0  0  0  0  0  0  0  0
   -7.2093    0.3902   -5.0434 C   0  0  0  0  0  0  0  0  0  0  0  0
   -7.2988   -0.6133   -6.1876 C   0  0  0  0  0  0  0  0  0  0  0  0
   -4.8991    1.5444   -5.0007 C   0  0  0  0  0  0  0  0  0  0  0  0
   -3.3800    1.3448   -4.2521 S   0  0  0  0  0  0  0  0  0  0  0  0
   -3.8678   -0.0043   -3.3789 C   0  0  0  0  0  0  0  0  0  0  0  0
   -3.3120   -0.8675   -2.4450 C   0  0  0  0  0  0  0  0  0  0  0  0
   -2.0652   -1.0480   -1.9379 N   0  0  0  0  0  0  0  0  0  0  0  0
   -2.2093   -2.1385   -1.1051 C   0  0  0  0  0  0  0  0  0  0  0  0
   -1.2765   -2.8240   -0.2654 C   0  0  0  0  0  0  0  0  0  0  0  0
   -0.0934   -2.4145    0.3209 N   0  0  0  0  0  0  0  0  0  0  0  0
    0.2779   -3.4869    1.0750 C   0  0  0  0  0  0  0  0  0  0  0  0
    1.2567   -3.7145    2.0354 C   0  0  0  0  0  0  0  0  0  0  0  0
    2.5218   -2.8598    2.7281 S   0  0  0  0  0  0  0  0  0  0  0  0
    0.5049   -1.0783    0.4309 C   0  0  0  0  0  0  0  0  0  0  0  0
   -0.4759   -0.0670    1.0238 C   0  0  0  0  0  0  0  0  0  0  0  0
   -0.8527   -0.4781   -2.5328 C   0  0  0  0  0  0  0  0  0  0  0  0
    0.0662   -1.5603   -3.1062 C   0  0  0  0  0  0  0  0  0  0  0  0
   -5.1735    2.5447   -6.0403 C   0  0  0  0  0  0  0  0  0  0  0  0
   -5.0717    3.8651   -5.8231 C   0  0  0  0  0  0  0  0  0  0  0  0
   -5.0319    4.5059   -4.5041 C   0  0  0  0  0  0  0  0  0  0  0  0
   -4.8251    3.9423   -3.3978 O   0  0  0  0  0  0  0  0  0  0  0  0
   -5.3428    5.9094   -4.6668 C   0  0  0  0  0  0  0  0  0  0  0  0
   -5.5042    6.8801   -3.6732 C   0  0  0  0  0  0  0  0  0  0  0  0
   -5.3324    6.5747   -2.3622 F   0  0  0  0  0  0  0  0  0  0  0  0
   -5.8773    8.1712   -4.0519 C   0  0  0  0  0  0  0  0  0  0  0  0
   -6.1076    8.4649   -5.4069 C   0  0  0  0  0  0  0  0  0  0  0  0
   -5.9406    7.4772   -6.3952 C   0  0  0  0  0  0  0  0  0  0  0  0
   -5.5370    6.1873   -6.0098 C   0  0  0  0  0  0  0  0  0  0  0  0
   -5.2878    4.9571   -6.8163 C   0  0  0  0  0  0  0  0  0  0  0  0
   -5.0667    4.8849   -8.1533 C   0  0  0  0  0  0  0  0  0  0  0  0
   -4.5650    3.6934   -8.7821 C   0  0  0  0  0  0  0  0  0  0  0  0
   -4.1555    2.7383   -9.2920 N   0  0  0  0  0  0  0  0  0  0  0  0
   -5.1860    6.0222   -9.0277 C   0  0  0  0  0  0  0  0  0  0  0  0
   -5.2793    6.9252   -9.7490 N   0  0  0  0  0  0  0  0  0  0  0  0
    3.4971   -4.2673    5.9177 H   0  0  0  0  0  0  0  0  0  0  0  0
    7.2057   -0.7834    2.2949 H   0  0  0  0  0  0  0  0  0  0  0  0
    8.8916    1.0500    2.1875 H   0  0  0  0  0  0  0  0  0  0  0  0
    9.5965    0.7340    7.0875 H   0  0  0  0  0  0  0  0  0  0  0  0
    7.9422   -1.0632    7.2213 H   0  0  0  0  0  0  0  0  0  0  0  0
    2.9932   -6.5749    5.0111 H   0  0  0  0  0  0  0  0  0  0  0  0
    1.6779   -7.2652    4.0076 H   0  0  0  0  0  0  0  0  0  0  0  0
   -0.0277   -5.9921    5.3338 H   0  0  0  0  0  0  0  0  0  0  0  0
    0.9757   -7.0775    6.3701 H   0  0  0  0  0  0  0  0  0  0  0  0
    1.2929   -5.2944    6.3515 H   0  0  0  0  0  0  0  0  0  0  0  0
   -7.8333    0.0334   -4.1935 H   0  0  0  0  0  0  0  0  0  0  0  0
   -7.6182    1.3722   -5.3788 H   0  0  0  0  0  0  0  0  0  0  0  0
   -6.9303   -1.6142   -5.8553 H   0  0  0  0  0  0  0  0  0  0  0  0
   -8.3629   -0.7201   -6.5030 H   0  0  0  0  0  0  0  0  0  0  0  0
   -6.7068   -0.2625   -7.0685 H   0  0  0  0  0  0  0  0  0  0  0  0
    0.9466   -0.7635   -0.5268 H   0  0  0  0  0  0  0  0  0  0  0  0
    1.3769   -1.1066    1.1047 H   0  0  0  0  0  0  0  0  0  0  0  0
   -1.3735    0.0527    0.3835 H   0  0  0  0  0  0  0  0  0  0  0  0
    0.0242    0.9201    1.1225 H   0  0  0  0  0  0  0  0  0  0  0  0
   -0.8006   -0.4050    2.0301 H   0  0  0  0  0  0  0  0  0  0  0  0
   -1.1197    0.1757   -3.3788 H   0  0  0  0  0  0  0  0  0  0  0  0
   -0.3529    0.2063   -1.8332 H   0  0  0  0  0  0  0  0  0  0  0  0
    0.9253   -1.0883   -3.6250 H   0  0  0  0  0  0  0  0  0  0  0  0
    0.4674   -2.2267   -2.3209 H   0  0  0  0  0  0  0  0  0  0  0  0
   -0.4868   -2.1859   -3.8373 H   0  0  0  0  0  0  0  0  0  0  0  0
   -5.5187    2.1761   -6.9930 H   0  0  0  0  0  0  0  0  0  0  0  0
   -6.0168    8.9376   -3.2958 H   0  0  0  0  0  0  0  0  0  0  0  0
   -6.4152    9.4631   -5.6886 H   0  0  0  0  0  0  0  0  0  0  0  0
   -6.1571    7.7378   -7.4201 H   0  0  0  0  0  0  0  0  0  0  0  0
  1  2  2  3
  2  3  1  0
  3  4  2  0
  3  5  1  0
  5  6  2  0
  6  7  1  0
  7  8  2  0
  8  9  1  0
  9 10  1  0
  9 11  2  0
 11 12  1  0
 11 13  1  0
 13 14  2  0
 14 15  1  0
 15 16  2  0
 16 17  1  0
 17 18  2  3
 18 19  1  0
 19 20  3  0
 18 21  1  0
 21 22  3  0
  1 23  1  0
 23 24  2  0
 24 25  1  0
 25 26  1  0
 24 27  1  0
 27 28  1  0
 28 29  1  0
 29 30  1  0
 30 31  1  0
 31 32  1  0
 32 33  2  0
 33 34  1  0
 34 35  1  0
 32 36  1  0
 36 37  1  0
 37 38  1  0
 38 39  1  0
 39 40  1  0
 40 41  1  0
 41 42  1  0
 40 43  2  0
 43 44  1  0
 44 45  1  0
 45 46  1  0
 46 47  1  0
 47 48  1  0
 48 49  1  0
 49 50  1  0
 50 51  1  0
 51 52  1  0
 52 53  1  0
 50 54  1  0
 54 55  1  0
 47 56  1  0
 56 57  1  0
 43 58  1  0
 58 59  2  3
 59 60  1  0
 60 61  2  0
 60 62  1  0
 62 63  2  0
 63 64  1  0
 63 65  1  0
 65 66  2  0
 66 67  1  0
 67 68  2  0
 68 69  1  0
 69 70  2  3
 70 71  1  0
 71 72  3  0
 70 73  1  0
 73 74  3  0
 17  2  1  0
 53 23  1  0
 69 59  1  0
 16  5  1  0
 52 27  2  0
 68 62  1  0
 14  7  1  0
 51 29  2  0
 49 30  2  0
 35 31  2  0
 48 36  2  0
 46 37  2  0
 45 39  2  0
  1 75  1  0
  6 76  1  0
  8 77  1  0
 13 78  1  0
 15 79  1  0
 25 80  1  0
 25 81  1  0
 26 82  1  0
 26 83  1  0
 26 84  1  0
 41 85  1  0
 41 86  1  0
 42 87  1  0
 42 88  1  0
 42 89  1  0
 54 90  1  0
 54 91  1  0
 55 92  1  0
 55 93  1  0
 55 94  1  0
 56 95  1  0
 56 96  1  0
 57 97  1  0
 57 98  1  0
 57 99  1  0
 58100  1  0
 65101  1  0
 66102  1  0
 67103  1  0
M  END

