
     RDKit          3D

103115  0  0  0  0  0  0  0  0999 V2000
   -6.6733    2.7686   -0.1619 C   0  0  0  0  0  0  0  0  0  0  0  0
   -6.4160    3.8890    0.5405 C   0  0  0  0  0  0  0  0  0  0  0  0
   -5.3064    4.8187    0.2958 C   0  0  0  0  0  0  0  0  0  0  0  0
   -4.3620    4.6663   -0.5203 O   0  0  0  0  0  0  0  0  0  0  0  0
   -5.5569    6.0360    1.0346 C   0  0  0  0  0  0  0  0  0  0  0  0
   -4.7520    7.1734    1.0932 C   0  0  0  0  0  0  0  0  0  0  0  0
   -5.1874    8.2639    1.8666 C   0  0  0  0  0  0  0  0  0  0  0  0
   -4.4044    9.4246    1.9653 C   0  0  0  0  0  0  0  0  0  0  0  0
   -4.8308   10.4961    2.7538 C   0  0  0  0  0  0  0  0  0  0  0  0
   -4.0584   11.6063    2.8544 F   0  0  0  0  0  0  0  0  0  0  0  0
   -6.0491   10.4262    3.4398 C   0  0  0  0  0  0  0  0  0  0  0  0
   -6.4508   11.4619    4.2147 F   0  0  0  0  0  0  0  0  0  0  0  0
   -6.8424    9.2793    3.3450 C   0  0  0  0  0  0  0  0  0  0  0  0
   -6.4241    8.1881    2.5667 C   0  0  0  0  0  0  0  0  0  0  0  0
   -7.2125    7.0213    2.4852 C   0  0  0  0  0  0  0  0  0  0  0  0
   -6.7625    5.9379    1.7098 C   0  0  0  0  0  0  0  0  0  0  0  0
   -7.3467    4.5789    1.4903 C   0  0  0  0  0  0  0  0  0  0  0  0
   -8.3961    4.0177    2.1497 C   0  0  0  0  0  0  0  0  0  0  0  0
   -8.6698    2.6052    2.1051 C   0  0  0  0  0  0  0  0  0  0  0  0
   -8.8900    1.4685    2.0789 N   0  0  0  0  0  0  0  0  0  0  0  0
   -9.2899    4.7661    2.9976 C   0  0  0  0  0  0  0  0  0  0  0  0
  -10.0244    5.3452    3.6812 N   0  0  0  0  0  0  0  0  0  0  0  0
   -5.6837    2.0401   -0.9799 C   0  0  0  0  0  0  0  0  0  0  0  0
   -5.9801    1.2916   -2.1383 C   0  0  0  0  0  0  0  0  0  0  0  0
   -7.3443    1.1651   -2.7630 C   0  0  0  0  0  0  0  0  0  0  0  0
   -8.1096   -0.0050   -2.1512 C   0  0  0  0  0  0  0  0  0  0  0  0
   -4.8573    0.5859   -2.5806 C   0  0  0  0  0  0  0  0  0  0  0  0
   -4.6126   -0.5767   -3.8068 S   0  0  0  0  0  0  0  0  0  0  0  0
   -2.9961   -0.7826   -3.3282 C   0  0  0  0  0  0  0  0  0  0  0  0
   -2.0247   -1.7340   -3.4674 C   0  0  0  0  0  0  0  0  0  0  0  0
   -2.0302   -2.9515   -4.1649 C   0  0  0  0  0  0  0  0  0  0  0  0
   -1.0064   -3.9093   -3.8859 C   0  0  0  0  0  0  0  0  0  0  0  0
   -1.0616   -5.0857   -4.5566 N   0  0  0  0  0  0  0  0  0  0  0  0
   -2.4387   -4.8331   -5.4448 S   0  0  0  0  0  0  0  0  0  0  0  0
   -2.9856   -3.3159   -5.0557 N   0  0  0  0  0  0  0  0  0  0  0  0
   -0.0195   -3.5822   -2.9513 C   0  0  0  0  0  0  0  0  0  0  0  0
    1.1193   -4.2289   -2.5560 C   0  0  0  0  0  0  0  0  0  0  0  0
    1.9941   -5.6451   -2.8984 S   0  0  0  0  0  0  0  0  0  0  0  0
    3.2936   -5.1006   -1.9277 C   0  0  0  0  0  0  0  0  0  0  0  0
    4.5028   -5.6674   -1.5265 C   0  0  0  0  0  0  0  0  0  0  0  0
    4.9324   -7.0599   -1.8999 C   0  0  0  0  0  0  0  0  0  0  0  0
    4.3200   -8.0911   -0.9574 C   0  0  0  0  0  0  0  0  0  0  0  0
    5.1975   -4.8034   -0.6547 C   0  0  0  0  0  0  0  0  0  0  0  0
    4.2746   -3.3872   -0.3829 S   0  0  0  0  0  0  0  0  0  0  0  0
    3.0399   -3.8644   -1.4008 C   0  0  0  0  0  0  0  0  0  0  0  0
    1.7932   -3.3786   -1.7490 C   0  0  0  0  0  0  0  0  0  0  0  0
    1.1810   -2.1787   -1.6035 N   0  0  0  0  0  0  0  0  0  0  0  0
    0.0081   -2.3434   -2.2917 C   0  0  0  0  0  0  0  0  0  0  0  0
   -1.0700   -1.4412   -2.4788 C   0  0  0  0  0  0  0  0  0  0  0  0
   -1.5009   -0.4161   -1.6719 N   0  0  0  0  0  0  0  0  0  0  0  0
   -2.6657   -0.0269   -2.2499 C   0  0  0  0  0  0  0  0  0  0  0  0
   -3.7336    0.7474   -1.8141 C   0  0  0  0  0  0  0  0  0  0  0  0
   -4.0677    1.7377   -0.5061 S   0  0  0  0  0  0  0  0  0  0  0  0
   -1.1531   -0.1744   -0.2660 C   0  0  0  0  0  0  0  0  0  0  0  0
   -0.6372    1.2530   -0.0486 C   0  0  0  0  0  0  0  0  0  0  0  0
    1.9006   -0.9160   -1.3914 C   0  0  0  0  0  0  0  0  0  0  0  0
    2.8420   -0.6175   -2.5575 C   0  0  0  0  0  0  0  0  0  0  0  0
    6.3949   -5.1733    0.1234 C   0  0  0  0  0  0  0  0  0  0  0  0
    7.3420   -4.3099    0.5329 C   0  0  0  0  0  0  0  0  0  0  0  0
    7.6354   -3.0040   -0.0749 C   0  0  0  0  0  0  0  0  0  0  0  0
    7.0031   -2.4513   -1.0120 O   0  0  0  0  0  0  0  0  0  0  0  0
    8.9055   -2.5376    0.4418 C   0  0  0  0  0  0  0  0  0  0  0  0
    9.5992   -1.3755    0.0958 C   0  0  0  0  0  0  0  0  0  0  0  0
   10.8506   -1.1479    0.6805 C   0  0  0  0  0  0  0  0  0  0  0  0
   11.5428   -0.0225    0.3777 F   0  0  0  0  0  0  0  0  0  0  0  0
   11.4020   -2.0946    1.5602 C   0  0  0  0  0  0  0  0  0  0  0  0
   10.6978   -3.2640    1.8823 C   0  0  0  0  0  0  0  0  0  0  0  0
    9.4219   -3.4694    1.3274 C   0  0  0  0  0  0  0  0  0  0  0  0
    8.4534   -4.5913    1.4957 C   0  0  0  0  0  0  0  0  0  0  0  0
    8.4612   -5.5310    2.4788 C   0  0  0  0  0  0  0  0  0  0  0  0
    7.3423   -6.4028    2.7252 C   0  0  0  0  0  0  0  0  0  0  0  0
    6.4477   -7.1067    2.9299 N   0  0  0  0  0  0  0  0  0  0  0  0
    9.5402   -5.6664    3.4213 C   0  0  0  0  0  0  0  0  0  0  0  0
   10.3976   -5.7841    4.1888 N   0  0  0  0  0  0  0  0  0  0  0  0
   -7.6663    2.3553   -0.1535 H   0  0  0  0  0  0  0  0  0  0  0  0
   -3.8058    7.2025    0.5583 H   0  0  0  0  0  0  0  0  0  0  0  0
   -3.4645    9.5038    1.4358 H   0  0  0  0  0  0  0  0  0  0  0  0
   -7.7819    9.2413    3.8845 H   0  0  0  0  0  0  0  0  0  0  0  0
   -8.1429    6.9868    3.0215 H   0  0  0  0  0  0  0  0  0  0  0  0
   -7.2443    0.9986   -3.8579 H   0  0  0  0  0  0  0  0  0  0  0  0
   -7.9214    2.1037   -2.6163 H   0  0  0  0  0  0  0  0  0  0  0  0
   -8.2771    0.1658   -1.0661 H   0  0  0  0  0  0  0  0  0  0  0  0
   -9.0956   -0.1092   -2.6516 H   0  0  0  0  0  0  0  0  0  0  0  0
   -7.5433   -0.9505   -2.2877 H   0  0  0  0  0  0  0  0  0  0  0  0
    6.0379   -7.1432   -1.8679 H   0  0  0  0  0  0  0  0  0  0  0  0
    4.6156   -7.2829   -2.9426 H   0  0  0  0  0  0  0  0  0  0  0  0
    3.2104   -8.0560   -1.0167 H   0  0  0  0  0  0  0  0  0  0  0  0
    4.6353   -7.8980    0.0905 H   0  0  0  0  0  0  0  0  0  0  0  0
    4.6597   -9.1094   -1.2486 H   0  0  0  0  0  0  0  0  0  0  0  0
   -2.0470   -0.3409    0.3728 H   0  0  0  0  0  0  0  0  0  0  0  0
   -0.4053   -0.9128    0.0876 H   0  0  0  0  0  0  0  0  0  0  0  0
   -0.3420    1.7229   -1.0107 H   0  0  0  0  0  0  0  0  0  0  0  0
   -1.4148    1.8730    0.4279 H   0  0  0  0  0  0  0  0  0  0  0  0
    0.2358    1.2349    0.6296 H   0  0  0  0  0  0  0  0  0  0  0  0
    2.4781   -0.9612   -0.4444 H   0  0  0  0  0  0  0  0  0  0  0  0
    1.2068   -0.0675   -1.3383 H   0  0  0  0  0  0  0  0  0  0  0  0
    3.6350   -1.3858   -2.6364 H   0  0  0  0  0  0  0  0  0  0  0  0
    2.2674   -0.5915   -3.5062 H   0  0  0  0  0  0  0  0  0  0  0  0
    3.3274    0.3688   -2.4072 H   0  0  0  0  0  0  0  0  0  0  0  0
    6.4766   -6.2120    0.3905 H   0  0  0  0  0  0  0  0  0  0  0  0
    9.1800   -0.6699   -0.6129 H   0  0  0  0  0  0  0  0  0  0  0  0
   12.3823   -1.9257    1.9860 H   0  0  0  0  0  0  0  0  0  0  0  0
   11.1758   -3.9857    2.5209 H   0  0  0  0  0  0  0  0  0  0  0  0
  1  2  2  3
  2  3  1  0
  3  4  2  0
  3  5  1  0
  5  6  2  0
  6  7  1  0
  7  8  2  0
  8  9  1  0
  9 10  1  0
  9 11  2  0
 11 12  1  0
 11 13  1  0
 13 14  2  0
 14 15  1  0
 15 16  2  0
 16 17  1  0
 17 18  2  3
 18 19  1  0
 19 20  3  0
 18 21  1  0
 21 22  3  0
  1 23  1  0
 23 24  2  0
 24 25  1  0
 25 26  1  0
 24 27  1  0
 27 28  1  0
 28 29  1  0
 29 30  1  0
 30 31  1  0
 31 32  1  0
 32 33  2  0
 33 34  1  0
 34 35  1  0
 32 36  1  0
 36 37  1  0
 37 38  1  0
 38 39  1  0
 39 40  1  0
 40 41  1  0
 41 42  1  0
 40 43  2  0
 43 44  1  0
 44 45  1  0
 45 46  1  0
 46 47  1  0
 47 48  1  0
 48 49  1  0
 49 50  1  0
 50 51  1  0
 51 52  1  0
 52 53  1  0
 50 54  1  0
 54 55  1  0
 47 56  1  0
 56 57  1  0
 43 58  1  0
 58 59  2  3
 59 60  1  0
 60 61  2  0
 60 62  1  0
 62 63  2  0
 63 64  1  0
 64 65  1  0
 64 66  2  0
 66 67  1  0
 67 68  2  0
 68 69  1  0
 69 70  2  3
 70 71  1  0
 71 72  3  0
 70 73  1  0
 73 74  3  0
 17  2  1  0
 53 23  1  0
 69 59  1  0
 16  5  1  0
 52 27  2  0
 68 62  1  0
 14  7  1  0
 51 29  2  0
 49 30  2  0
 35 31  2  0
 48 36  2  0
 46 37  2  0
 45 39  2  0
  1 75  1  0
  6 76  1  0
  8 77  1  0
 13 78  1  0
 15 79  1  0
 25 80  1  0
 25 81  1  0
 26 82  1  0
 26 83  1  0
 26 84  1  0
 41 85  1  0
 41 86  1  0
 42 87  1  0
 42 88  1  0
 42 89  1  0
 54 90  1  0
 54 91  1  0
 55 92  1  0
 55 93  1  0
 55 94  1  0
 56 95  1  0
 56 96  1  0
 57 97  1  0
 57 98  1  0
 57 99  1  0
 58100  1  0
 63101  1  0
 66102  1  0
 67103  1  0
M  END

