
     RDKit          3D

103115  0  0  0  0  0  0  0  0999 V2000
   -3.0390    1.2581    6.6279 C   0  0  0  0  0  0  0  0  0  0  0  0
   -1.6996    1.3074    6.9245 C   0  0  0  0  0  0  0  0  0  0  0  0
   -0.7762    2.2090    6.2168 C   0  0  0  0  0  0  0  0  0  0  0  0
   -1.0382    3.1342    5.4146 O   0  0  0  0  0  0  0  0  0  0  0  0
    0.5539    1.8614    6.5726 C   0  0  0  0  0  0  0  0  0  0  0  0
    1.7542    2.2713    6.0483 C   0  0  0  0  0  0  0  0  0  0  0  0
    2.9160    1.5994    6.4712 C   0  0  0  0  0  0  0  0  0  0  0  0
    4.1143    1.7268    5.7597 C   0  0  0  0  0  0  0  0  0  0  0  0
    5.2552    1.0024    6.1055 C   0  0  0  0  0  0  0  0  0  0  0  0
    6.3551    1.0950    5.3139 F   0  0  0  0  0  0  0  0  0  0  0  0
    5.2436    0.2036    7.2423 C   0  0  0  0  0  0  0  0  0  0  0  0
    6.3354   -0.4997    7.5941 F   0  0  0  0  0  0  0  0  0  0  0  0
    4.0774    0.0985    8.0219 C   0  0  0  0  0  0  0  0  0  0  0  0
    2.8850    0.6855    7.5874 C   0  0  0  0  0  0  0  0  0  0  0  0
    1.6578    0.4178    8.1797 C   0  0  0  0  0  0  0  0  0  0  0  0
    0.5231    0.8749    7.5488 C   0  0  0  0  0  0  0  0  0  0  0  0
   -0.8445    0.3046    7.6258 C   0  0  0  0  0  0  0  0  0  0  0  0
   -0.9995   -1.1023    7.6055 C   0  0  0  0  0  0  0  0  0  0  0  0
    0.0550   -1.9375    7.1421 C   0  0  0  0  0  0  0  0  0  0  0  0
    1.0391   -2.5867    7.3610 N   0  0  0  0  0  0  0  0  0  0  0  0
   -2.2869   -1.7241    7.7783 C   0  0  0  0  0  0  0  0  0  0  0  0
   -3.2897   -2.2577    7.9733 N   0  0  0  0  0  0  0  0  0  0  0  0
   -3.4708    1.4975    5.2063 C   0  0  0  0  0  0  0  0  0  0  0  0
   -4.1779    2.6110    4.6639 C   0  0  0  0  0  0  0  0  0  0  0  0
   -4.8147    3.6966    5.5368 C   0  0  0  0  0  0  0  0  0  0  0  0
   -3.7908    4.6081    6.1884 C   0  0  0  0  0  0  0  0  0  0  0  0
   -4.1191    2.6355    3.2514 C   0  0  0  0  0  0  0  0  0  0  0  0
   -4.6711    3.7083    1.9974 S   0  0  0  0  0  0  0  0  0  0  0  0
   -3.8755    2.7142    0.8125 C   0  0  0  0  0  0  0  0  0  0  0  0
   -3.5976    2.6335   -0.5642 C   0  0  0  0  0  0  0  0  0  0  0  0
   -4.0123    3.4164   -1.6859 C   0  0  0  0  0  0  0  0  0  0  0  0
   -3.5171    3.0710   -3.0235 C   0  0  0  0  0  0  0  0  0  0  0  0
   -3.9313    3.8577   -4.0628 N   0  0  0  0  0  0  0  0  0  0  0  0
   -4.8252    4.9502   -3.1636 S   0  0  0  0  0  0  0  0  0  0  0  0
   -4.7547    4.5401   -1.5685 N   0  0  0  0  0  0  0  0  0  0  0  0
   -2.6781    1.9422   -3.1685 C   0  0  0  0  0  0  0  0  0  0  0  0
   -2.0662    1.3322   -4.2663 C   0  0  0  0  0  0  0  0  0  0  0  0
   -1.7328    1.6302   -5.9294 S   0  0  0  0  0  0  0  0  0  0  0  0
   -0.6292    0.3094   -6.0072 C   0  0  0  0  0  0  0  0  0  0  0  0
    0.1487   -0.3816   -6.9734 C   0  0  0  0  0  0  0  0  0  0  0  0
    0.4235    0.1192   -8.3770 C   0  0  0  0  0  0  0  0  0  0  0  0
    1.5716    1.1209   -8.3737 C   0  0  0  0  0  0  0  0  0  0  0  0
    0.8054   -1.4607   -6.3760 C   0  0  0  0  0  0  0  0  0  0  0  0
   -0.0231   -1.8270   -4.8783 S   0  0  0  0  0  0  0  0  0  0  0  0
   -0.6090   -0.2594   -4.7736 C   0  0  0  0  0  0  0  0  0  0  0  0
   -1.3651    0.3005   -3.8079 C   0  0  0  0  0  0  0  0  0  0  0  0
   -1.3641    0.1621   -2.4657 N   0  0  0  0  0  0  0  0  0  0  0  0
   -2.2582    1.1280   -2.0528 C   0  0  0  0  0  0  0  0  0  0  0  0
   -2.7431    1.4952   -0.7216 C   0  0  0  0  0  0  0  0  0  0  0  0
   -2.5695    0.8433    0.5173 N   0  0  0  0  0  0  0  0  0  0  0  0
   -3.2823    1.6064    1.3719 C   0  0  0  0  0  0  0  0  0  0  0  0
   -3.3989    1.5797    2.7402 C   0  0  0  0  0  0  0  0  0  0  0  0
   -2.7738    0.5720    3.9537 S   0  0  0  0  0  0  0  0  0  0  0  0
   -1.8868   -0.3779    0.8805 C   0  0  0  0  0  0  0  0  0  0  0  0
   -2.6381   -1.5949    0.3700 C   0  0  0  0  0  0  0  0  0  0  0  0
   -0.1803   -0.3473   -1.7769 C   0  0  0  0  0  0  0  0  0  0  0  0
    0.6408    0.7802   -1.1087 C   0  0  0  0  0  0  0  0  0  0  0  0
    1.9215   -2.3321   -6.9415 C   0  0  0  0  0  0  0  0  0  0  0  0
    2.9739   -2.8480   -6.1839 C   0  0  0  0  0  0  0  0  0  0  0  0
    3.4035   -2.4226   -4.8028 C   0  0  0  0  0  0  0  0  0  0  0  0
    2.8816   -1.6170   -3.9725 O   0  0  0  0  0  0  0  0  0  0  0  0
    4.6090   -3.0627   -4.4804 C   0  0  0  0  0  0  0  0  0  0  0  0
    5.1890   -3.0159   -3.2379 C   0  0  0  0  0  0  0  0  0  0  0  0
    6.1894   -3.9103   -2.9674 C   0  0  0  0  0  0  0  0  0  0  0  0
    6.6428   -4.7981   -3.9778 C   0  0  0  0  0  0  0  0  0  0  0  0
    6.0395   -4.7802   -5.2424 C   0  0  0  0  0  0  0  0  0  0  0  0
    5.0170   -3.8838   -5.5043 C   0  0  0  0  0  0  0  0  0  0  0  0
    4.0769   -3.7851   -6.6678 C   0  0  0  0  0  0  0  0  0  0  0  0
    4.2145   -4.4472   -7.8393 C   0  0  0  0  0  0  0  0  0  0  0  0
    3.1215   -4.6961   -8.7728 C   0  0  0  0  0  0  0  0  0  0  0  0
    2.2272   -4.9300   -9.4345 N   0  0  0  0  0  0  0  0  0  0  0  0
    5.4554   -4.9964   -8.2253 C   0  0  0  0  0  0  0  0  0  0  0  0
    6.5079   -5.4374   -8.4989 N   0  0  0  0  0  0  0  0  0  0  0  0
   -3.6561    0.5451    7.1882 H   0  0  0  0  0  0  0  0  0  0  0  0
    1.7593    2.9256    5.1930 H   0  0  0  0  0  0  0  0  0  0  0  0
    4.0950    2.3244    4.8683 H   0  0  0  0  0  0  0  0  0  0  0  0
    4.0760   -0.5950    8.8916 H   0  0  0  0  0  0  0  0  0  0  0  0
    1.6177   -0.3823    8.9802 H   0  0  0  0  0  0  0  0  0  0  0  0
   -5.4315    3.1899    6.3343 H   0  0  0  0  0  0  0  0  0  0  0  0
   -5.4921    4.2884    4.9010 H   0  0  0  0  0  0  0  0  0  0  0  0
   -4.3058    5.5026    6.6141 H   0  0  0  0  0  0  0  0  0  0  0  0
   -3.2802    4.0662    7.0059 H   0  0  0  0  0  0  0  0  0  0  0  0
   -3.0502    4.9470    5.4535 H   0  0  0  0  0  0  0  0  0  0  0  0
    0.6476   -0.7566   -9.0421 H   0  0  0  0  0  0  0  0  0  0  0  0
   -0.5302    0.5581   -8.7044 H   0  0  0  0  0  0  0  0  0  0  0  0
    2.4591    0.6681   -8.9218 H   0  0  0  0  0  0  0  0  0  0  0  0
    1.2175    2.0709   -8.9072 H   0  0  0  0  0  0  0  0  0  0  0  0
    1.9030    1.4158   -7.3494 H   0  0  0  0  0  0  0  0  0  0  0  0
   -1.7572   -0.4125    1.9359 H   0  0  0  0  0  0  0  0  0  0  0  0
   -0.8178   -0.2909    0.6133 H   0  0  0  0  0  0  0  0  0  0  0  0
   -3.6440   -1.6418    0.8687 H   0  0  0  0  0  0  0  0  0  0  0  0
   -2.0021   -2.4610    0.6009 H   0  0  0  0  0  0  0  0  0  0  0  0
   -2.7782   -1.5613   -0.7607 H   0  0  0  0  0  0  0  0  0  0  0  0
    0.5085   -0.8186   -2.4753 H   0  0  0  0  0  0  0  0  0  0  0  0
   -0.4742   -1.2260   -1.1605 H   0  0  0  0  0  0  0  0  0  0  0  0
    1.4329    0.3106   -0.4663 H   0  0  0  0  0  0  0  0  0  0  0  0
    1.0786    1.3738   -1.9499 H   0  0  0  0  0  0  0  0  0  0  0  0
    0.0191    1.4464   -0.4893 H   0  0  0  0  0  0  0  0  0  0  0  0
    1.8892   -2.5863   -8.0393 H   0  0  0  0  0  0  0  0  0  0  0  0
    4.7715   -2.3983   -2.4473 H   0  0  0  0  0  0  0  0  0  0  0  0
    6.6254   -3.9608   -1.9667 H   0  0  0  0  0  0  0  0  0  0  0  0
    7.4275   -5.5230   -3.7563 H   0  0  0  0  0  0  0  0  0  0  0  0
    6.3028   -5.5766   -5.9245 H   0  0  0  0  0  0  0  0  0  0  0  0
  1  2  2  3
  2  3  1  0
  3  4  2  0
  3  5  1  0
  5  6  2  0
  6  7  1  0
  7  8  2  0
  8  9  1  0
  9 10  1  0
  9 11  2  0
 11 12  1  0
 11 13  1  0
 13 14  2  0
 14 15  1  0
 15 16  2  0
 16 17  1  0
 17 18  2  3
 18 19  1  0
 19 20  3  0
 18 21  1  0
 21 22  3  0
  1 23  1  0
 23 24  2  0
 24 25  1  0
 25 26  1  0
 24 27  1  0
 27 28  1  0
 28 29  1  0
 29 30  1  0
 30 31  1  0
 31 32  1  0
 32 33  2  0
 33 34  1  0
 34 35  1  0
 32 36  1  0
 36 37  1  0
 37 38  1  0
 38 39  1  0
 39 40  1  0
 40 41  1  0
 41 42  1  0
 40 43  2  0
 43 44  1  0
 44 45  1  0
 45 46  1  0
 46 47  1  0
 47 48  1  0
 48 49  1  0
 49 50  1  0
 50 51  1  0
 51 52  1  0
 52 53  1  0
 50 54  1  0
 54 55  1  0
 47 56  1  0
 56 57  1  0
 43 58  1  0
 58 59  2  3
 59 60  1  0
 60 61  2  0
 60 62  1  0
 62 63  2  0
 63 64  1  0
 64 65  2  0
 65 66  1  0
 66 67  2  0
 67 68  1  0
 68 69  2  3
 69 70  1  0
 70 71  3  0
 69 72  1  0
 72 73  3  0
 17  2  1  0
 53 23  1  0
 68 59  1  0
 16  5  1  0
 52 27  2  0
 67 62  1  0
 14  7  1  0
 51 29  2  0
 49 30  2  0
 35 31  2  0
 48 36  2  0
 46 37  2  0
 45 39  2  0
  1 74  1  0
  6 75  1  0
  8 76  1  0
 13 77  1  0
 15 78  1  0
 25 79  1  0
 25 80  1  0
 26 81  1  0
 26 82  1  0
 26 83  1  0
 41 84  1  0
 41 85  1  0
 42 86  1  0
 42 87  1  0
 42 88  1  0
 54 89  1  0
 54 90  1  0
 55 91  1  0
 55 92  1  0
 55 93  1  0
 56 94  1  0
 56 95  1  0
 57 96  1  0
 57 97  1  0
 57 98  1  0
 58 99  1  0
 63100  1  0
 64101  1  0
 65102  1  0
 66103  1  0
M  END

