
     RDKit          3D

116131  0  0  0  0  0  0  0  0999 V2000
    3.8438   -4.3442   -6.1425 C   0  0  0  0  0  0  0  0  0  0  0  0
    4.2654   -5.5531   -6.5725 C   0  0  0  0  0  0  0  0  0  0  0  0
    4.0910   -6.8125   -5.8340 C   0  0  0  0  0  0  0  0  0  0  0  0
    3.5091   -6.9605   -4.7255 O   0  0  0  0  0  0  0  0  0  0  0  0
    4.7801   -7.8622   -6.5392 C   0  0  0  0  0  0  0  0  0  0  0  0
    4.8275   -9.2139   -6.2025 C   0  0  0  0  0  0  0  0  0  0  0  0
    5.5229  -10.0921   -7.0468 C   0  0  0  0  0  0  0  0  0  0  0  0
    5.5667  -11.4643   -6.7602 C   0  0  0  0  0  0  0  0  0  0  0  0
    6.2437  -12.3369   -7.6156 C   0  0  0  0  0  0  0  0  0  0  0  0
    6.2720  -13.6631   -7.3353 F   0  0  0  0  0  0  0  0  0  0  0  0
    6.8888  -11.8466   -8.7571 C   0  0  0  0  0  0  0  0  0  0  0  0
    7.5342  -12.7010   -9.5881 F   0  0  0  0  0  0  0  0  0  0  0  0
    6.8559  -10.4794   -9.0525 C   0  0  0  0  0  0  0  0  0  0  0  0
    6.1734   -9.5903   -8.2083 C   0  0  0  0  0  0  0  0  0  0  0  0
    6.1162   -8.2148   -8.5134 C   0  0  0  0  0  0  0  0  0  0  0  0
    5.3990   -7.3473   -7.6659 C   0  0  0  0  0  0  0  0  0  0  0  0
    5.1012   -5.8823   -7.7757 C   0  0  0  0  0  0  0  0  0  0  0  0
    5.4078   -5.0592   -8.8184 C   0  0  0  0  0  0  0  0  0  0  0  0
    4.8827   -3.7243   -8.9396 C   0  0  0  0  0  0  0  0  0  0  0  0
    4.4699   -2.6479   -9.0552 N   0  0  0  0  0  0  0  0  0  0  0  0
    6.2451   -5.4579   -9.9194 C   0  0  0  0  0  0  0  0  0  0  0  0
    6.9144   -5.7542  -10.8161 N   0  0  0  0  0  0  0  0  0  0  0  0
    2.9205   -4.1807   -5.0069 C   0  0  0  0  0  0  0  0  0  0  0  0
    1.6280   -4.7338   -4.8966 C   0  0  0  0  0  0  0  0  0  0  0  0
    0.8674   -5.4108   -6.0061 C   0  0  0  0  0  0  0  0  0  0  0  0
    0.1103   -4.3844   -6.8393 C   0  0  0  0  0  0  0  0  0  0  0  0
    1.0824   -4.4547   -3.6458 C   0  0  0  0  0  0  0  0  0  0  0  0
   -0.4188   -4.8127   -2.9297 S   0  0  0  0  0  0  0  0  0  0  0  0
    0.0493   -4.0130   -1.5094 C   0  0  0  0  0  0  0  0  0  0  0  0
   -0.5690   -3.4828   -0.4176 C   0  0  0  0  0  0  0  0  0  0  0  0
   -1.9274   -3.4670   -0.0765 C   0  0  0  0  0  0  0  0  0  0  0  0
   -2.3689   -2.5537    0.9187 C   0  0  0  0  0  0  0  0  0  0  0  0
   -3.6994   -2.5214    1.1825 N   0  0  0  0  0  0  0  0  0  0  0  0
   -4.2242   -3.6673    0.1055 S   0  0  0  0  0  0  0  0  0  0  0  0
   -2.8788   -4.2122   -0.6925 N   0  0  0  0  0  0  0  0  0  0  0  0
   -1.4187   -1.7527    1.5579 C   0  0  0  0  0  0  0  0  0  0  0  0
   -1.5505   -0.7587    2.4735 C   0  0  0  0  0  0  0  0  0  0  0  0
   -2.7949    0.2966    2.9157 S   0  0  0  0  0  0  0  0  0  0  0  0
   -1.6614    1.4382    3.4743 C   0  0  0  0  0  0  0  0  0  0  0  0
   -1.7999    2.7969    3.7548 C   0  0  0  0  0  0  0  0  0  0  0  0
   -3.1382    3.5044    3.7125 C   0  0  0  0  0  0  0  0  0  0  0  0
   -4.0535    3.0621    4.8567 C   0  0  0  0  0  0  0  0  0  0  0  0
   -0.5352    3.4275    3.8107 C   0  0  0  0  0  0  0  0  0  0  0  0
    0.6799    2.3062    3.4131 S   0  0  0  0  0  0  0  0  0  0  0  0
   -0.3680    1.0061    3.2817 C   0  0  0  0  0  0  0  0  0  0  0  0
   -0.3072   -0.2641    2.7144 C   0  0  0  0  0  0  0  0  0  0  0  0
    0.6651   -0.9088    2.0126 N   0  0  0  0  0  0  0  0  0  0  0  0
   -0.0533   -1.7933    1.2466 C   0  0  0  0  0  0  0  0  0  0  0  0
    0.3731   -2.6204    0.1741 C   0  0  0  0  0  0  0  0  0  0  0  0
    1.5080   -2.5416   -0.6035 N   0  0  0  0  0  0  0  0  0  0  0  0
    1.2758   -3.4415   -1.5936 C   0  0  0  0  0  0  0  0  0  0  0  0
    1.8739   -3.6968   -2.8206 C   0  0  0  0  0  0  0  0  0  0  0  0
    3.3172   -3.3224   -3.5898 S   0  0  0  0  0  0  0  0  0  0  0  0
    2.4461   -1.4158   -0.7229 C   0  0  0  0  0  0  0  0  0  0  0  0
    1.7312   -0.1461   -1.1855 C   0  0  0  0  0  0  0  0  0  0  0  0
    1.9623   -1.2432    2.6233 C   0  0  0  0  0  0  0  0  0  0  0  0
    2.9332   -0.0671    2.6230 C   0  0  0  0  0  0  0  0  0  0  0  0
   -0.2945    4.8797    3.8878 C   0  0  0  0  0  0  0  0  0  0  0  0
   -0.7612    5.6418    4.8915 C   0  0  0  0  0  0  0  0  0  0  0  0
   -1.4704    5.1325    6.0668 C   0  0  0  0  0  0  0  0  0  0  0  0
   -1.2484    4.0350    6.6479 O   0  0  0  0  0  0  0  0  0  0  0  0
   -2.4873    6.0920    6.4396 C   0  0  0  0  0  0  0  0  0  0  0  0
   -3.5808    5.8755    7.3089 C   0  0  0  0  0  0  0  0  0  0  0  0
   -4.5292    6.8806    7.2680 C   0  0  0  0  0  0  0  0  0  0  0  0
   -4.4206    8.0298    6.4181 C   0  0  0  0  0  0  0  0  0  0  0  0
   -3.3487    8.2492    5.5662 C   0  0  0  0  0  0  0  0  0  0  0  0
   -2.3501    7.2398    5.6144 C   0  0  0  0  0  0  0  0  0  0  0  0
   -1.1576    7.0675    4.7443 C   0  0  0  0  0  0  0  0  0  0  0  0
   -0.4469    8.0410    4.1311 C   0  0  0  0  0  0  0  0  0  0  0  0
   -0.8655    9.4205    4.1345 C   0  0  0  0  0  0  0  0  0  0  0  0
   -1.1925   10.5315    4.1253 N   0  0  0  0  0  0  0  0  0  0  0  0
    0.8517    7.7715    3.5654 C   0  0  0  0  0  0  0  0  0  0  0  0
    1.8994    7.5582    3.1163 N   0  0  0  0  0  0  0  0  0  0  0  0
   -5.7694    8.5065    6.8667 C   0  0  0  0  0  0  0  0  0  0  0  0
   -6.9418    8.3223    5.8574 C   0  0  0  0  0  0  0  0  0  0  0  0
   -8.2105    8.4945    6.6598 C   0  0  0  0  0  0  0  0  0  0  0  0
   -8.3074    7.4209    7.4550 C   0  0  0  0  0  0  0  0  0  0  0  0
   -7.1022    6.5596    7.1614 C   0  0  0  0  0  0  0  0  0  0  0  0
   -6.9964    6.8147    5.6657 C   0  0  0  0  0  0  0  0  0  0  0  0
   -5.8781    7.3301    7.7378 C   0  0  0  0  0  0  0  0  0  0  0  0
    4.2250   -3.4340   -6.5709 H   0  0  0  0  0  0  0  0  0  0  0  0
    4.3222   -9.5714   -5.3135 H   0  0  0  0  0  0  0  0  0  0  0  0
    5.0642  -11.8605   -5.8822 H   0  0  0  0  0  0  0  0  0  0  0  0
    7.3530  -10.1180   -9.9460 H   0  0  0  0  0  0  0  0  0  0  0  0
    6.6209   -7.8649   -9.3950 H   0  0  0  0  0  0  0  0  0  0  0  0
    1.5515   -5.9790   -6.6674 H   0  0  0  0  0  0  0  0  0  0  0  0
    0.1465   -6.1412   -5.5791 H   0  0  0  0  0  0  0  0  0  0  0  0
    0.8169   -3.6532   -7.2874 H   0  0  0  0  0  0  0  0  0  0  0  0
   -0.6257   -3.8458   -6.2064 H   0  0  0  0  0  0  0  0  0  0  0  0
   -0.4361   -4.8984   -7.6568 H   0  0  0  0  0  0  0  0  0  0  0  0
   -3.0146    4.6055    3.7542 H   0  0  0  0  0  0  0  0  0  0  0  0
   -3.6387    3.2751    2.7444 H   0  0  0  0  0  0  0  0  0  0  0  0
   -3.5738    3.2339    5.8429 H   0  0  0  0  0  0  0  0  0  0  0  0
   -4.3024    1.9859    4.7634 H   0  0  0  0  0  0  0  0  0  0  0  0
   -4.9986    3.6487    4.8142 H   0  0  0  0  0  0  0  0  0  0  0  0
    3.2432   -1.6567   -1.4507 H   0  0  0  0  0  0  0  0  0  0  0  0
    2.9813   -1.2327    0.2169 H   0  0  0  0  0  0  0  0  0  0  0  0
    1.1422   -0.3526   -2.1012 H   0  0  0  0  0  0  0  0  0  0  0  0
    2.4854    0.6400   -1.4084 H   0  0  0  0  0  0  0  0  0  0  0  0
    1.0555    0.2339   -0.3943 H   0  0  0  0  0  0  0  0  0  0  0  0
    1.8019   -1.5794    3.6719 H   0  0  0  0  0  0  0  0  0  0  0  0
    2.4190   -2.1154    2.1130 H   0  0  0  0  0  0  0  0  0  0  0  0
    3.9777   -0.4491    2.6013 H   0  0  0  0  0  0  0  0  0  0  0  0
    2.8136    0.5244    3.5513 H   0  0  0  0  0  0  0  0  0  0  0  0
    2.7736    0.5856    1.7398 H   0  0  0  0  0  0  0  0  0  0  0  0
    0.1081    5.3418    2.9988 H   0  0  0  0  0  0  0  0  0  0  0  0
   -3.7063    4.9717    7.8899 H   0  0  0  0  0  0  0  0  0  0  0  0
   -3.3402    9.0802    4.8756 H   0  0  0  0  0  0  0  0  0  0  0  0
   -5.7451    9.4783    7.4069 H   0  0  0  0  0  0  0  0  0  0  0  0
   -6.8772    8.9281    4.9280 H   0  0  0  0  0  0  0  0  0  0  0  0
   -8.9586    9.2712    6.5489 H   0  0  0  0  0  0  0  0  0  0  0  0
   -9.1452    7.1823    8.0995 H   0  0  0  0  0  0  0  0  0  0  0  0
   -7.1926    5.4954    7.4706 H   0  0  0  0  0  0  0  0  0  0  0  0
   -7.8912    6.4730    5.0920 H   0  0  0  0  0  0  0  0  0  0  0  0
   -6.0903    6.3812    5.1901 H   0  0  0  0  0  0  0  0  0  0  0  0
   -5.9215    7.5581    8.8254 H   0  0  0  0  0  0  0  0  0  0  0  0
  1  2  2  3
  2  3  1  0
  3  4  2  0
  3  5  1  0
  5  6  2  0
  6  7  1  0
  7  8  2  0
  8  9  1  0
  9 10  1  0
  9 11  2  0
 11 12  1  0
 11 13  1  0
 13 14  2  0
 14 15  1  0
 15 16  2  0
 16 17  1  0
 17 18  2  3
 18 19  1  0
 19 20  3  0
 18 21  1  0
 21 22  3  0
  1 23  1  0
 23 24  2  0
 24 25  1  0
 25 26  1  0
 24 27  1  0
 27 28  1  0
 28 29  1  0
 29 30  1  0
 30 31  1  0
 31 32  1  0
 32 33  2  0
 33 34  1  0
 34 35  1  0
 32 36  1  0
 36 37  1  0
 37 38  1  0
 38 39  1  0
 39 40  1  0
 40 41  1  0
 41 42  1  0
 40 43  2  0
 43 44  1  0
 44 45  1  0
 45 46  1  0
 46 47  1  0
 47 48  1  0
 48 49  1  0
 49 50  1  0
 50 51  1  0
 51 52  1  0
 52 53  1  0
 50 54  1  0
 54 55  1  0
 47 56  1  0
 56 57  1  0
 43 58  1  0
 58 59  2  3
 59 60  1  0
 60 61  2  0
 60 62  1  0
 62 63  2  0
 63 64  1  0
 64 65  2  0
 65 66  1  0
 66 67  2  0
 67 68  1  0
 68 69  2  3
 69 70  1  0
 70 71  3  0
 69 72  1  0
 72 73  3  0
 65 74  1  0
 74 75  1  0
 75 76  1  0
 76 77  2  0
 77 78  1  0
 78 79  1  0
 78 80  1  0
 17  2  1  0
 53 23  1  0
 68 59  1  0
 80 74  1  0
 16  5  1  0
 52 27  2  0
 67 62  1  0
 79 75  1  0
 14  7  1  0
 51 29  2  0
 80 64  1  0
 49 30  2  0
 35 31  2  0
 48 36  2  0
 46 37  2  0
 45 39  2  0
  1 81  1  0
  6 82  1  0
  8 83  1  0
 13 84  1  0
 15 85  1  0
 25 86  1  0
 25 87  1  0
 26 88  1  0
 26 89  1  0
 26 90  1  0
 41 91  1  0
 41 92  1  0
 42 93  1  0
 42 94  1  0
 42 95  1  0
 54 96  1  0
 54 97  1  0
 55 98  1  0
 55 99  1  0
 55100  1  0
 56101  1  0
 56102  1  0
 57103  1  0
 57104  1  0
 57105  1  0
 58106  1  0
 63107  1  0
 66108  1  0
 74109  1  0
 75110  1  0
 76111  1  0
 77112  1  0
 78113  1  0
 79114  1  0
 79115  1  0
 80116  1  0
M  END

