
     RDKit          3D

109121  0  0  0  0  0  0  0  0999 V2000
    3.1679    3.5421    5.4505 C   0  0  0  0  0  0  0  0  0  0  0  0
    3.5464    4.1500    4.3092 C   0  0  0  0  0  0  0  0  0  0  0  0
    3.3973    3.6059    2.9536 C   0  0  0  0  0  0  0  0  0  0  0  0
    3.2503    2.3940    2.6427 O   0  0  0  0  0  0  0  0  0  0  0  0
    3.5114    4.6956    2.0110 C   0  0  0  0  0  0  0  0  0  0  0  0
    3.2941    4.6633    0.6349 C   0  0  0  0  0  0  0  0  0  0  0  0
    3.3559    5.8693   -0.0831 C   0  0  0  0  0  0  0  0  0  0  0  0
    3.1370    5.8842   -1.4689 C   0  0  0  0  0  0  0  0  0  0  0  0
    3.1741    7.0913   -2.1735 C   0  0  0  0  0  0  0  0  0  0  0  0
    2.9579    7.0972   -3.5123 F   0  0  0  0  0  0  0  0  0  0  0  0
    3.4302    8.2912   -1.5024 C   0  0  0  0  0  0  0  0  0  0  0  0
    3.4625    9.4594   -2.1908 F   0  0  0  0  0  0  0  0  0  0  0  0
    3.6515    8.2927   -0.1218 C   0  0  0  0  0  0  0  0  0  0  0  0
    3.6197    7.0897    0.6012 C   0  0  0  0  0  0  0  0  0  0  0  0
    3.8336    7.0864    1.9952 C   0  0  0  0  0  0  0  0  0  0  0  0
    3.8042    5.8657    2.6892 C   0  0  0  0  0  0  0  0  0  0  0  0
    3.9784    5.5707    4.1415 C   0  0  0  0  0  0  0  0  0  0  0  0
    4.6292    6.3393    5.0539 C   0  0  0  0  0  0  0  0  0  0  0  0
    5.1392    7.6480    4.7388 C   0  0  0  0  0  0  0  0  0  0  0  0
    5.5572    8.7010    4.4995 N   0  0  0  0  0  0  0  0  0  0  0  0
    5.0003    5.8434    6.3544 C   0  0  0  0  0  0  0  0  0  0  0  0
    5.3096    5.4496    7.3977 N   0  0  0  0  0  0  0  0  0  0  0  0
    2.5425    2.2117    5.4819 C   0  0  0  0  0  0  0  0  0  0  0  0
    3.0729    1.0726    6.1123 C   0  0  0  0  0  0  0  0  0  0  0  0
    4.4145    1.0173    6.7872 C   0  0  0  0  0  0  0  0  0  0  0  0
    5.5220    0.7815    5.7663 C   0  0  0  0  0  0  0  0  0  0  0  0
    2.2664   -0.0434    5.8739 C   0  0  0  0  0  0  0  0  0  0  0  0
    2.5117   -1.7152    6.0797 S   0  0  0  0  0  0  0  0  0  0  0  0
    1.0823   -2.0731    5.2324 C   0  0  0  0  0  0  0  0  0  0  0  0
    0.6679   -3.1217    4.4575 C   0  0  0  0  0  0  0  0  0  0  0  0
    1.2752   -4.3668    4.2327 C   0  0  0  0  0  0  0  0  0  0  0  0
    0.8772   -5.1327    3.0964 C   0  0  0  0  0  0  0  0  0  0  0  0
    1.5223   -6.3046    2.8828 N   0  0  0  0  0  0  0  0  0  0  0  0
    2.5752   -6.2766    4.1616 S   0  0  0  0  0  0  0  0  0  0  0  0
    2.2812   -4.8711    4.9880 N   0  0  0  0  0  0  0  0  0  0  0  0
   -0.1360   -4.6319    2.2761 C   0  0  0  0  0  0  0  0  0  0  0  0
   -0.7279   -5.1208    1.1506 C   0  0  0  0  0  0  0  0  0  0  0  0
   -0.5111   -6.3680    0.0220 S   0  0  0  0  0  0  0  0  0  0  0  0
   -1.7576   -5.7243   -0.9546 C   0  0  0  0  0  0  0  0  0  0  0  0
   -2.1574   -5.9837   -2.2680 C   0  0  0  0  0  0  0  0  0  0  0  0
   -1.5690   -7.0634   -3.1317 C   0  0  0  0  0  0  0  0  0  0  0  0
   -0.3117   -6.5681   -3.8387 C   0  0  0  0  0  0  0  0  0  0  0  0
   -3.0328   -4.9837   -2.7249 C   0  0  0  0  0  0  0  0  0  0  0  0
   -3.3102   -3.8344   -1.4980 S   0  0  0  0  0  0  0  0  0  0  0  0
   -2.3115   -4.5975   -0.3928 C   0  0  0  0  0  0  0  0  0  0  0  0
   -1.7066   -4.2495    0.8043 C   0  0  0  0  0  0  0  0  0  0  0  0
   -1.8022   -3.1865    1.6438 N   0  0  0  0  0  0  0  0  0  0  0  0
   -0.7697   -3.4058    2.5214 C   0  0  0  0  0  0  0  0  0  0  0  0
   -0.2870   -2.5877    3.5744 C   0  0  0  0  0  0  0  0  0  0  0  0
   -0.3502   -1.2218    3.6985 N   0  0  0  0  0  0  0  0  0  0  0  0
    0.4670   -0.9557    4.7518 C   0  0  0  0  0  0  0  0  0  0  0  0
    1.1447    0.2020    5.1233 C   0  0  0  0  0  0  0  0  0  0  0  0
    1.0857    1.8206    4.6887 S   0  0  0  0  0  0  0  0  0  0  0  0
   -0.6079   -0.2606    2.6171 C   0  0  0  0  0  0  0  0  0  0  0  0
    0.5768   -0.1927    1.6541 C   0  0  0  0  0  0  0  0  0  0  0  0
   -3.0752   -2.5286    1.9842 C   0  0  0  0  0  0  0  0  0  0  0  0
   -3.5598   -1.5801    0.8833 C   0  0  0  0  0  0  0  0  0  0  0  0
   -3.4978   -4.8255   -4.1094 C   0  0  0  0  0  0  0  0  0  0  0  0
   -3.0447   -3.8477   -4.9180 C   0  0  0  0  0  0  0  0  0  0  0  0
   -2.0833   -2.8011   -4.5423 C   0  0  0  0  0  0  0  0  0  0  0  0
   -1.2730   -2.8338   -3.5773 O   0  0  0  0  0  0  0  0  0  0  0  0
   -2.1921   -1.7211   -5.4979 C   0  0  0  0  0  0  0  0  0  0  0  0
   -1.5868   -0.4659   -5.4461 C   0  0  0  0  0  0  0  0  0  0  0  0
   -1.9262    0.4927   -6.4220 C   0  0  0  0  0  0  0  0  0  0  0  0
   -1.3306    1.8472   -6.3808 C   0  0  0  0  0  0  0  0  0  0  0  0
   -0.4700    2.1338   -5.5029 O   0  0  0  0  0  0  0  0  0  0  0  0
   -1.7230    2.8113   -7.3154 O   0  0  0  0  0  0  0  0  0  0  0  0
   -1.2311    4.1471   -7.2919 C   0  0  0  0  0  0  0  0  0  0  0  0
   -2.8741    0.1583   -7.4158 C   0  0  0  0  0  0  0  0  0  0  0  0
   -3.4700   -1.1137   -7.4457 C   0  0  0  0  0  0  0  0  0  0  0  0
   -3.0986   -2.0645   -6.4836 C   0  0  0  0  0  0  0  0  0  0  0  0
   -3.5830   -3.4568   -6.2567 C   0  0  0  0  0  0  0  0  0  0  0  0
   -4.1685   -4.2729   -7.1701 C   0  0  0  0  0  0  0  0  0  0  0  0
   -4.5202   -3.8270   -8.4923 C   0  0  0  0  0  0  0  0  0  0  0  0
   -4.8048   -3.4823   -9.5597 N   0  0  0  0  0  0  0  0  0  0  0  0
   -4.3481   -5.6831   -6.9367 C   0  0  0  0  0  0  0  0  0  0  0  0
   -4.4895   -6.8185   -6.7603 N   0  0  0  0  0  0  0  0  0  0  0  0
    3.2444    4.0461    6.3994 H   0  0  0  0  0  0  0  0  0  0  0  0
    3.0634    3.7268    0.1414 H   0  0  0  0  0  0  0  0  0  0  0  0
    2.9301    4.9655   -2.0046 H   0  0  0  0  0  0  0  0  0  0  0  0
    3.8467    9.2319    0.3810 H   0  0  0  0  0  0  0  0  0  0  0  0
    3.9754    8.0227    2.5107 H   0  0  0  0  0  0  0  0  0  0  0  0
    4.4256    0.1989    7.5384 H   0  0  0  0  0  0  0  0  0  0  0  0
    4.6069    1.9707    7.3247 H   0  0  0  0  0  0  0  0  0  0  0  0
    5.3684   -0.1897    5.2488 H   0  0  0  0  0  0  0  0  0  0  0  0
    5.5357    1.5995    5.0141 H   0  0  0  0  0  0  0  0  0  0  0  0
    6.5043    0.7572    6.2826 H   0  0  0  0  0  0  0  0  0  0  0  0
   -2.3140   -7.3909   -3.8887 H   0  0  0  0  0  0  0  0  0  0  0  0
   -1.3149   -7.9455   -2.5055 H   0  0  0  0  0  0  0  0  0  0  0  0
    0.1025   -7.3822   -4.4707 H   0  0  0  0  0  0  0  0  0  0  0  0
   -0.5487   -5.6991   -4.4898 H   0  0  0  0  0  0  0  0  0  0  0  0
    0.4557   -6.2678   -3.0925 H   0  0  0  0  0  0  0  0  0  0  0  0
   -0.8163    0.7436    3.0368 H   0  0  0  0  0  0  0  0  0  0  0  0
   -1.4983   -0.5259    2.0447 H   0  0  0  0  0  0  0  0  0  0  0  0
    0.7367   -1.1816    1.1762 H   0  0  0  0  0  0  0  0  0  0  0  0
    0.3720    0.5550    0.8610 H   0  0  0  0  0  0  0  0  0  0  0  0
    1.5011    0.1005    2.1933 H   0  0  0  0  0  0  0  0  0  0  0  0
   -3.8490   -3.3052    2.1702 H   0  0  0  0  0  0  0  0  0  0  0  0
   -2.9756   -1.9702    2.9390 H   0  0  0  0  0  0  0  0  0  0  0  0
   -2.7477   -1.3491    0.1611 H   0  0  0  0  0  0  0  0  0  0  0  0
   -4.4198   -2.0256    0.3434 H   0  0  0  0  0  0  0  0  0  0  0  0
   -3.9101   -0.6286    1.3358 H   0  0  0  0  0  0  0  0  0  0  0  0
   -4.2821   -5.4917   -4.4251 H   0  0  0  0  0  0  0  0  0  0  0  0
   -0.8920   -0.2352   -4.6471 H   0  0  0  0  0  0  0  0  0  0  0  0
   -1.6851    4.7186   -8.1269 H   0  0  0  0  0  0  0  0  0  0  0  0
   -1.5037    4.6343   -6.3316 H   0  0  0  0  0  0  0  0  0  0  0  0
   -0.1265    4.1491   -7.4120 H   0  0  0  0  0  0  0  0  0  0  0  0
   -3.1710    0.8866   -8.1603 H   0  0  0  0  0  0  0  0  0  0  0  0
   -4.2278   -1.3116   -8.1848 H   0  0  0  0  0  0  0  0  0  0  0  0
  1  2  2  3
  2  3  1  0
  3  4  2  0
  3  5  1  0
  5  6  2  0
  6  7  1  0
  7  8  2  0
  8  9  1  0
  9 10  1  0
  9 11  2  0
 11 12  1  0
 11 13  1  0
 13 14  2  0
 14 15  1  0
 15 16  2  0
 16 17  1  0
 17 18  2  3
 18 19  1  0
 19 20  3  0
 18 21  1  0
 21 22  3  0
  1 23  1  0
 23 24  2  0
 24 25  1  0
 25 26  1  0
 24 27  1  0
 27 28  1  0
 28 29  1  0
 29 30  1  0
 30 31  1  0
 31 32  1  0
 32 33  2  0
 33 34  1  0
 34 35  1  0
 32 36  1  0
 36 37  1  0
 37 38  1  0
 38 39  1  0
 39 40  1  0
 40 41  1  0
 41 42  1  0
 40 43  2  0
 43 44  1  0
 44 45  1  0
 45 46  1  0
 46 47  1  0
 47 48  1  0
 48 49  1  0
 49 50  1  0
 50 51  1  0
 51 52  1  0
 52 53  1  0
 50 54  1  0
 54 55  1  0
 47 56  1  0
 56 57  1  0
 43 58  1  0
 58 59  2  3
 59 60  1  0
 60 61  2  0
 60 62  1  0
 62 63  2  0
 63 64  1  0
 64 65  1  0
 65 66  2  0
 65 67  1  0
 67 68  1  0
 64 69  2  0
 69 70  1  0
 70 71  2  0
 71 72  1  0
 72 73  2  3
 73 74  1  0
 74 75  3  0
 73 76  1  0
 76 77  3  0
 17  2  1  0
 53 23  1  0
 72 59  1  0
 16  5  1  0
 52 27  2  0
 71 62  1  0
 14  7  1  0
 51 29  2  0
 49 30  2  0
 35 31  2  0
 48 36  2  0
 46 37  2  0
 45 39  2  0
  1 78  1  0
  6 79  1  0
  8 80  1  0
 13 81  1  0
 15 82  1  0
 25 83  1  0
 25 84  1  0
 26 85  1  0
 26 86  1  0
 26 87  1  0
 41 88  1  0
 41 89  1  0
 42 90  1  0
 42 91  1  0
 42 92  1  0
 54 93  1  0
 54 94  1  0
 55 95  1  0
 55 96  1  0
 55 97  1  0
 56 98  1  0
 56 99  1  0
 57100  1  0
 57101  1  0
 57102  1  0
 58103  1  0
 63104  1  0
 68105  1  0
 68106  1  0
 68107  1  0
 69108  1  0
 70109  1  0
M  END

