
     RDKit          3D

102113  0  0  0  0  0  0  0  0999 V2000
    4.2013   -1.6255   -4.9857 C   0  0  0  0  0  0  0  0  0  0  0  0
    4.7800   -0.7434   -5.8282 C   0  0  0  0  0  0  0  0  0  0  0  0
    4.8330    0.7040   -5.6110 C   0  0  0  0  0  0  0  0  0  0  0  0
    4.0569    1.3762   -4.8748 O   0  0  0  0  0  0  0  0  0  0  0  0
    5.9361    1.2505   -6.3695 C   0  0  0  0  0  0  0  0  0  0  0  0
    6.4395    2.5503   -6.3244 C   0  0  0  0  0  0  0  0  0  0  0  0
    7.5741    2.8585   -7.0937 C   0  0  0  0  0  0  0  0  0  0  0  0
    8.1259    4.1459   -7.0548 C   0  0  0  0  0  0  0  0  0  0  0  0
    9.2670    4.4403   -7.8032 C   0  0  0  0  0  0  0  0  0  0  0  0
    9.8068    5.6833   -7.7365 F   0  0  0  0  0  0  0  0  0  0  0  0
    9.8603    3.4592   -8.6029 C   0  0  0  0  0  0  0  0  0  0  0  0
   10.9590    3.7610   -9.3374 F   0  0  0  0  0  0  0  0  0  0  0  0
    9.3370    2.1619   -8.6331 C   0  0  0  0  0  0  0  0  0  0  0  0
    8.1867    1.8490   -7.8887 C   0  0  0  0  0  0  0  0  0  0  0  0
    7.6548    0.5410   -7.9044 C   0  0  0  0  0  0  0  0  0  0  0  0
    6.5265    0.2456   -7.1172 C   0  0  0  0  0  0  0  0  0  0  0  0
    5.7871   -1.0417   -6.8951 C   0  0  0  0  0  0  0  0  0  0  0  0
    5.9668   -2.2309   -7.5392 C   0  0  0  0  0  0  0  0  0  0  0  0
    7.0734   -2.4797   -8.4311 C   0  0  0  0  0  0  0  0  0  0  0  0
    7.9670   -2.7052   -9.1356 N   0  0  0  0  0  0  0  0  0  0  0  0
    5.0218   -3.3116   -7.4282 C   0  0  0  0  0  0  0  0  0  0  0  0
    4.2596   -4.1836   -7.3439 N   0  0  0  0  0  0  0  0  0  0  0  0
    3.6192   -1.2168   -3.6996 C   0  0  0  0  0  0  0  0  0  0  0  0
    4.3540   -0.7272   -2.6009 C   0  0  0  0  0  0  0  0  0  0  0  0
    5.8596   -0.6320   -2.5405 C   0  0  0  0  0  0  0  0  0  0  0  0
    6.4780   -2.0029   -2.2901 C   0  0  0  0  0  0  0  0  0  0  0  0
    3.5045   -0.4463   -1.5340 C   0  0  0  0  0  0  0  0  0  0  0  0
    3.7662    0.2096    0.0183 S   0  0  0  0  0  0  0  0  0  0  0  0
    2.1074    0.1130    0.3492 C   0  0  0  0  0  0  0  0  0  0  0  0
    1.2207    0.5824    1.2730 C   0  0  0  0  0  0  0  0  0  0  0  0
    1.3886    1.3988    2.3963 C   0  0  0  0  0  0  0  0  0  0  0  0
    0.2276    1.8814    3.0650 C   0  0  0  0  0  0  0  0  0  0  0  0
    0.4286    2.6625    4.1559 N   0  0  0  0  0  0  0  0  0  0  0  0
    2.0860    2.6887    4.1845 S   0  0  0  0  0  0  0  0  0  0  0  0
    2.5921    1.7707    2.9015 N   0  0  0  0  0  0  0  0  0  0  0  0
   -1.0310    1.4989    2.5859 C   0  0  0  0  0  0  0  0  0  0  0  0
   -2.2581    1.5608    3.1770 C   0  0  0  0  0  0  0  0  0  0  0  0
   -2.8263    1.9498    4.7274 S   0  0  0  0  0  0  0  0  0  0  0  0
   -4.2045    0.9757    4.4994 C   0  0  0  0  0  0  0  0  0  0  0  0
   -5.2214    0.5635    5.3616 C   0  0  0  0  0  0  0  0  0  0  0  0
   -5.3218    1.0127    6.7963 C   0  0  0  0  0  0  0  0  0  0  0  0
   -4.2579    0.3433    7.6631 C   0  0  0  0  0  0  0  0  0  0  0  0
   -6.0146   -0.4325    4.7544 C   0  0  0  0  0  0  0  0  0  0  0  0
   -5.4069   -0.7907    3.2034 S   0  0  0  0  0  0  0  0  0  0  0  0
   -4.1775    0.3431    3.2845 C   0  0  0  0  0  0  0  0  0  0  0  0
   -3.0599    0.6749    2.5252 C   0  0  0  0  0  0  0  0  0  0  0  0
   -2.4207    0.0377    1.5116 N   0  0  0  0  0  0  0  0  0  0  0  0
   -1.1856    0.6304    1.4954 C   0  0  0  0  0  0  0  0  0  0  0  0
   -0.0426    0.2590    0.7630 C   0  0  0  0  0  0  0  0  0  0  0  0
    0.0451   -0.2556   -0.5037 N   0  0  0  0  0  0  0  0  0  0  0  0
    1.3817   -0.3752   -0.6895 C   0  0  0  0  0  0  0  0  0  0  0  0
    2.1767   -0.6894   -1.7754 C   0  0  0  0  0  0  0  0  0  0  0  0
    1.9550   -1.2981   -3.3236 S   0  0  0  0  0  0  0  0  0  0  0  0
   -0.9368   -0.1052   -1.5866 C   0  0  0  0  0  0  0  0  0  0  0  0
   -0.6760    1.1668   -2.3886 C   0  0  0  0  0  0  0  0  0  0  0  0
   -2.7273   -1.3422    1.0967 C   0  0  0  0  0  0  0  0  0  0  0  0
   -2.3078   -2.3408    2.1750 C   0  0  0  0  0  0  0  0  0  0  0  0
   -7.1500   -1.1369    5.3783 C   0  0  0  0  0  0  0  0  0  0  0  0
   -8.2776   -0.5425    5.7551 C   0  0  0  0  0  0  0  0  0  0  0  0
   -8.5999    0.8430    5.5097 C   0  0  0  0  0  0  0  0  0  0  0  0
   -8.8638    1.9493    5.3073 N   0  0  0  0  0  0  0  0  0  0  0  0
   -9.1091   -1.5405    6.4264 C   0  0  0  0  0  0  0  0  0  0  0  0
  -10.3058   -1.3788    7.0176 C   0  0  0  0  0  0  0  0  0  0  0  0
  -10.9953   -0.1157    7.0400 C   0  0  0  0  0  0  0  0  0  0  0  0
  -11.5559    0.8979    7.0652 N   0  0  0  0  0  0  0  0  0  0  0  0
  -10.9461   -2.5009    7.6607 C   0  0  0  0  0  0  0  0  0  0  0  0
  -11.4472   -3.4088    8.1750 N   0  0  0  0  0  0  0  0  0  0  0  0
   -8.4418   -2.7569    6.3894 O   0  0  0  0  0  0  0  0  0  0  0  0
   -7.1841   -2.6152    5.7298 C   0  0  0  0  0  0  0  0  0  0  0  0
   -7.1600   -3.4983    4.4784 C   0  0  0  0  0  0  0  0  0  0  0  0
   -6.0514   -2.9972    6.6893 C   0  0  0  0  0  0  0  0  0  0  0  0
    4.3131   -2.6859   -5.1170 H   0  0  0  0  0  0  0  0  0  0  0  0
    5.9786    3.2963   -5.6816 H   0  0  0  0  0  0  0  0  0  0  0  0
    7.6803    4.9204   -6.4389 H   0  0  0  0  0  0  0  0  0  0  0  0
    9.8260    1.4051   -9.2360 H   0  0  0  0  0  0  0  0  0  0  0  0
    8.1279   -0.2068   -8.5148 H   0  0  0  0  0  0  0  0  0  0  0  0
    6.1644    0.0611   -1.7321 H   0  0  0  0  0  0  0  0  0  0  0  0
    6.2576   -0.2256   -3.4906 H   0  0  0  0  0  0  0  0  0  0  0  0
    6.1121   -2.4227   -1.3256 H   0  0  0  0  0  0  0  0  0  0  0  0
    6.2117   -2.6970   -3.1190 H   0  0  0  0  0  0  0  0  0  0  0  0
    7.5870   -1.9060   -2.2533 H   0  0  0  0  0  0  0  0  0  0  0  0
   -6.3195    0.7832    7.2165 H   0  0  0  0  0  0  0  0  0  0  0  0
   -5.1812    2.1137    6.8504 H   0  0  0  0  0  0  0  0  0  0  0  0
   -4.4100    0.6281    8.7234 H   0  0  0  0  0  0  0  0  0  0  0  0
   -3.2374    0.6577    7.3594 H   0  0  0  0  0  0  0  0  0  0  0  0
   -4.3223   -0.7596    7.5868 H   0  0  0  0  0  0  0  0  0  0  0  0
   -0.8983   -0.9913   -2.2520 H   0  0  0  0  0  0  0  0  0  0  0  0
   -1.9594   -0.0013   -1.1870 H   0  0  0  0  0  0  0  0  0  0  0  0
   -1.4758    1.3054   -3.1437 H   0  0  0  0  0  0  0  0  0  0  0  0
    0.2943    1.1050   -2.9187 H   0  0  0  0  0  0  0  0  0  0  0  0
   -0.6513    2.0497   -1.7168 H   0  0  0  0  0  0  0  0  0  0  0  0
   -2.1844   -1.6221    0.1834 H   0  0  0  0  0  0  0  0  0  0  0  0
   -3.8102   -1.4358    0.8864 H   0  0  0  0  0  0  0  0  0  0  0  0
   -2.6107   -3.3640    1.8652 H   0  0  0  0  0  0  0  0  0  0  0  0
   -2.7827   -2.1066    3.1442 H   0  0  0  0  0  0  0  0  0  0  0  0
   -1.2096   -2.3148    2.3251 H   0  0  0  0  0  0  0  0  0  0  0  0
   -7.3651   -4.5539    4.7493 H   0  0  0  0  0  0  0  0  0  0  0  0
   -6.1654   -3.4634    3.9924 H   0  0  0  0  0  0  0  0  0  0  0  0
   -7.9279   -3.1721    3.7458 H   0  0  0  0  0  0  0  0  0  0  0  0
   -6.1224   -4.0736    6.9587 H   0  0  0  0  0  0  0  0  0  0  0  0
   -6.1206   -2.3929    7.6191 H   0  0  0  0  0  0  0  0  0  0  0  0
   -5.0665   -2.8158    6.2093 H   0  0  0  0  0  0  0  0  0  0  0  0
  1  2  2  3
  2  3  1  0
  3  4  2  0
  3  5  1  0
  5  6  2  0
  6  7  1  0
  7  8  2  0
  8  9  1  0
  9 10  1  0
  9 11  2  0
 11 12  1  0
 11 13  1  0
 13 14  2  0
 14 15  1  0
 15 16  2  0
 16 17  1  0
 17 18  2  3
 18 19  1  0
 19 20  3  0
 18 21  1  0
 21 22  3  0
  1 23  1  0
 23 24  2  0
 24 25  1  0
 25 26  1  0
 24 27  1  0
 27 28  1  0
 28 29  1  0
 29 30  1  0
 30 31  1  0
 31 32  1  0
 32 33  2  0
 33 34  1  0
 34 35  1  0
 32 36  1  0
 36 37  1  0
 37 38  1  0
 38 39  1  0
 39 40  1  0
 40 41  1  0
 41 42  1  0
 40 43  2  0
 43 44  1  0
 44 45  1  0
 45 46  1  0
 46 47  1  0
 47 48  1  0
 48 49  1  0
 49 50  1  0
 50 51  1  0
 51 52  1  0
 52 53  1  0
 50 54  1  0
 54 55  1  0
 47 56  1  0
 56 57  1  0
 43 58  1  0
 58 59  2  0
 59 60  1  0
 60 61  3  0
 59 62  1  0
 62 63  2  3
 63 64  1  0
 64 65  3  0
 63 66  1  0
 66 67  3  0
 62 68  1  0
 68 69  1  0
 69 70  1  0
 69 71  1  0
 17  2  1  0
 53 23  1  0
 69 58  1  0
 16  5  1  0
 52 27  2  0
 14  7  1  0
 51 29  2  0
 49 30  2  0
 35 31  2  0
 48 36  2  0
 46 37  2  0
 45 39  2  0
  1 72  1  0
  6 73  1  0
  8 74  1  0
 13 75  1  0
 15 76  1  0
 25 77  1  0
 25 78  1  0
 26 79  1  0
 26 80  1  0
 26 81  1  0
 41 82  1  0
 41 83  1  0
 42 84  1  0
 42 85  1  0
 42 86  1  0
 54 87  1  0
 54 88  1  0
 55 89  1  0
 55 90  1  0
 55 91  1  0
 56 92  1  0
 56 93  1  0
 57 94  1  0
 57 95  1  0
 57 96  1  0
 70 97  1  0
 70 98  1  0
 70 99  1  0
 71100  1  0
 71101  1  0
 71102  1  0
M  END

