
     RDKit          3D

103115  0  0  0  0  0  0  0  0999 V2000
   -0.5448    2.9126    6.4319 C   0  0  0  0  0  0  0  0  0  0  0  0
    0.7157    2.4516    6.3295 C   0  0  0  0  0  0  0  0  0  0  0  0
    1.4079    2.1310    5.0726 C   0  0  0  0  0  0  0  0  0  0  0  0
    1.0831    2.5105    3.9161 O   0  0  0  0  0  0  0  0  0  0  0  0
    2.5347    1.2793    5.3790 C   0  0  0  0  0  0  0  0  0  0  0  0
    3.3763    0.6168    4.4866 C   0  0  0  0  0  0  0  0  0  0  0  0
    4.3336   -0.2736    5.0010 C   0  0  0  0  0  0  0  0  0  0  0  0
    5.1912   -0.9745    4.1387 C   0  0  0  0  0  0  0  0  0  0  0  0
    6.1160   -1.8863    4.6546 C   0  0  0  0  0  0  0  0  0  0  0  0
    6.9407   -2.5574    3.8125 F   0  0  0  0  0  0  0  0  0  0  0  0
    6.1872   -2.1128    6.0332 C   0  0  0  0  0  0  0  0  0  0  0  0
    7.0838   -3.0019    6.5268 F   0  0  0  0  0  0  0  0  0  0  0  0
    5.3416   -1.4190    6.9055 C   0  0  0  0  0  0  0  0  0  0  0  0
    4.4109   -0.4949    6.4052 C   0  0  0  0  0  0  0  0  0  0  0  0
    3.5459    0.1950    7.2803 C   0  0  0  0  0  0  0  0  0  0  0  0
    2.6231    1.1076    6.7488 C   0  0  0  0  0  0  0  0  0  0  0  0
    1.5793    1.9254    7.4275 C   0  0  0  0  0  0  0  0  0  0  0  0
    1.5747    2.3212    8.7271 C   0  0  0  0  0  0  0  0  0  0  0  0
    0.6487    3.3025    9.2286 C   0  0  0  0  0  0  0  0  0  0  0  0
   -0.0904    4.0943    9.6401 N   0  0  0  0  0  0  0  0  0  0  0  0
    2.5982    1.9269    9.6571 C   0  0  0  0  0  0  0  0  0  0  0  0
    3.4197    1.6260   10.4128 N   0  0  0  0  0  0  0  0  0  0  0  0
   -1.3451    3.2493    5.2493 C   0  0  0  0  0  0  0  0  0  0  0  0
   -1.3105    4.4764    4.5659 C   0  0  0  0  0  0  0  0  0  0  0  0
   -0.5780    5.6991    5.0476 C   0  0  0  0  0  0  0  0  0  0  0  0
   -1.3983    6.4337    6.1027 C   0  0  0  0  0  0  0  0  0  0  0  0
   -1.9678    4.3779    3.3359 C   0  0  0  0  0  0  0  0  0  0  0  0
   -1.9429    5.3642    1.9529 S   0  0  0  0  0  0  0  0  0  0  0  0
   -2.6738    4.1541    1.0105 C   0  0  0  0  0  0  0  0  0  0  0  0
   -2.5495    3.8003   -0.3053 C   0  0  0  0  0  0  0  0  0  0  0  0
   -1.8857    4.4758   -1.3416 C   0  0  0  0  0  0  0  0  0  0  0  0
   -1.4887    3.7450   -2.4982 C   0  0  0  0  0  0  0  0  0  0  0  0
   -0.8046    4.4216   -3.4535 N   0  0  0  0  0  0  0  0  0  0  0  0
   -0.7375    5.9164   -2.7423 S   0  0  0  0  0  0  0  0  0  0  0  0
   -1.5212    5.7811   -1.2892 N   0  0  0  0  0  0  0  0  0  0  0  0
   -1.8167    2.3906   -2.5749 C   0  0  0  0  0  0  0  0  0  0  0  0
   -1.5896    1.4541   -3.5347 C   0  0  0  0  0  0  0  0  0  0  0  0
   -0.7427    1.2931   -4.9951 S   0  0  0  0  0  0  0  0  0  0  0  0
   -1.2160   -0.3440   -5.0959 C   0  0  0  0  0  0  0  0  0  0  0  0
   -0.8395   -1.3845   -5.9450 C   0  0  0  0  0  0  0  0  0  0  0  0
   -0.0183   -1.1897   -7.1903 C   0  0  0  0  0  0  0  0  0  0  0  0
   -0.9165   -0.8624   -8.3769 C   0  0  0  0  0  0  0  0  0  0  0  0
   -1.3974   -2.6043   -5.5110 C   0  0  0  0  0  0  0  0  0  0  0  0
   -2.3419   -2.3544   -4.1156 S   0  0  0  0  0  0  0  0  0  0  0  0
   -2.0200   -0.7130   -4.0442 C   0  0  0  0  0  0  0  0  0  0  0  0
   -2.2134    0.3188   -3.1396 C   0  0  0  0  0  0  0  0  0  0  0  0
   -2.8473    0.4435   -1.9434 N   0  0  0  0  0  0  0  0  0  0  0  0
   -2.5289    1.7255   -1.5677 C   0  0  0  0  0  0  0  0  0  0  0  0
   -2.8027    2.4173   -0.3585 C   0  0  0  0  0  0  0  0  0  0  0  0
   -2.9408    1.9064    0.9088 N   0  0  0  0  0  0  0  0  0  0  0  0
   -2.8791    3.0015    1.7140 C   0  0  0  0  0  0  0  0  0  0  0  0
   -2.4812    3.1372    3.0458 C   0  0  0  0  0  0  0  0  0  0  0  0
   -2.1431    2.0807    4.3078 S   0  0  0  0  0  0  0  0  0  0  0  0
   -2.5933    0.5503    1.3548 C   0  0  0  0  0  0  0  0  0  0  0  0
   -1.0805    0.3409    1.3485 C   0  0  0  0  0  0  0  0  0  0  0  0
   -4.0969   -0.2531   -1.6064 C   0  0  0  0  0  0  0  0  0  0  0  0
   -3.8622   -1.7146   -1.2165 C   0  0  0  0  0  0  0  0  0  0  0  0
   -1.1230   -3.9365   -6.0696 C   0  0  0  0  0  0  0  0  0  0  0  0
    0.1075   -4.4798   -6.1000 C   0  0  0  0  0  0  0  0  0  0  0  0
    0.4523   -5.6712   -6.8576 C   0  0  0  0  0  0  0  0  0  0  0  0
   -0.3645   -6.4235   -7.4529 O   0  0  0  0  0  0  0  0  0  0  0  0
    1.8995   -5.8107   -6.8493 C   0  0  0  0  0  0  0  0  0  0  0  0
    2.6811   -6.8058   -7.4450 C   0  0  0  0  0  0  0  0  0  0  0  0
    1.9330   -8.0933   -8.3865 Cl  0  0  0  0  0  0  0  0  0  0  0  0
    4.0761   -6.7587   -7.2718 C   0  0  0  0  0  0  0  0  0  0  0  0
    5.0934   -7.9988   -8.0095 Cl  0  0  0  0  0  0  0  0  0  0  0  0
    4.6619   -5.7212   -6.5124 C   0  0  0  0  0  0  0  0  0  0  0  0
    6.4127   -5.6788   -6.2997 Cl  0  0  0  0  0  0  0  0  0  0  0  0
    3.8560   -4.7244   -5.9159 C   0  0  0  0  0  0  0  0  0  0  0  0
    4.6354   -3.4390   -4.9987 Cl  0  0  0  0  0  0  0  0  0  0  0  0
    2.4561   -4.7815   -6.0987 C   0  0  0  0  0  0  0  0  0  0  0  0
    1.3701   -3.9132   -5.5495 C   0  0  0  0  0  0  0  0  0  0  0  0
    1.4489   -3.3583   -4.3266 C   0  0  0  0  0  0  0  0  0  0  0  0
    2.0673   -2.0695   -4.1695 C   0  0  0  0  0  0  0  0  0  0  0  0
    2.5574   -1.0285   -4.0377 N   0  0  0  0  0  0  0  0  0  0  0  0
    0.5896   -3.7998   -3.2572 C   0  0  0  0  0  0  0  0  0  0  0  0
   -0.0913   -4.1591   -2.3926 N   0  0  0  0  0  0  0  0  0  0  0  0
   -1.0512    2.9478    7.3836 H   0  0  0  0  0  0  0  0  0  0  0  0
    3.2695    0.7731    3.4198 H   0  0  0  0  0  0  0  0  0  0  0  0
    5.1452   -0.8160    3.0668 H   0  0  0  0  0  0  0  0  0  0  0  0
    5.4160   -1.6054    7.9696 H   0  0  0  0  0  0  0  0  0  0  0  0
    3.5794   -0.0187    8.3366 H   0  0  0  0  0  0  0  0  0  0  0  0
   -0.3748    6.3877    4.1999 H   0  0  0  0  0  0  0  0  0  0  0  0
    0.4038    5.4071    5.4785 H   0  0  0  0  0  0  0  0  0  0  0  0
   -0.8387    7.3230    6.4581 H   0  0  0  0  0  0  0  0  0  0  0  0
   -1.5961    5.7734    6.9737 H   0  0  0  0  0  0  0  0  0  0  0  0
   -2.3636    6.7735    5.6709 H   0  0  0  0  0  0  0  0  0  0  0  0
    0.5701   -2.0981   -7.4243 H   0  0  0  0  0  0  0  0  0  0  0  0
    0.7059   -0.3615   -7.0349 H   0  0  0  0  0  0  0  0  0  0  0  0
   -1.5008    0.0617   -8.1751 H   0  0  0  0  0  0  0  0  0  0  0  0
   -1.6160   -1.7032   -8.5733 H   0  0  0  0  0  0  0  0  0  0  0  0
   -0.2905   -0.7043   -9.2797 H   0  0  0  0  0  0  0  0  0  0  0  0
   -3.0538   -0.2088    0.7240 H   0  0  0  0  0  0  0  0  0  0  0  0
   -3.0031    0.3624    2.3677 H   0  0  0  0  0  0  0  0  0  0  0  0
   -0.5736    1.1108    1.9654 H   0  0  0  0  0  0  0  0  0  0  0  0
   -0.6899    0.4009    0.3107 H   0  0  0  0  0  0  0  0  0  0  0  0
   -0.8421   -0.6608    1.7633 H   0  0  0  0  0  0  0  0  0  0  0  0
   -4.6238    0.2763   -0.7838 H   0  0  0  0  0  0  0  0  0  0  0  0
   -4.7851   -0.2087   -2.4789 H   0  0  0  0  0  0  0  0  0  0  0  0
   -4.4781   -1.9717   -0.3288 H   0  0  0  0  0  0  0  0  0  0  0  0
   -4.1762   -2.3901   -2.0387 H   0  0  0  0  0  0  0  0  0  0  0  0
   -2.7951   -1.9001   -0.9717 H   0  0  0  0  0  0  0  0  0  0  0  0
   -1.9552   -4.4802   -6.4945 H   0  0  0  0  0  0  0  0  0  0  0  0
  1  2  2  3
  2  3  1  0
  3  4  2  0
  3  5  1  0
  5  6  2  0
  6  7  1  0
  7  8  2  0
  8  9  1  0
  9 10  1  0
  9 11  2  0
 11 12  1  0
 11 13  1  0
 13 14  2  0
 14 15  1  0
 15 16  2  0
 16 17  1  0
 17 18  2  3
 18 19  1  0
 19 20  3  0
 18 21  1  0
 21 22  3  0
  1 23  1  0
 23 24  2  0
 24 25  1  0
 25 26  1  0
 24 27  1  0
 27 28  1  0
 28 29  1  0
 29 30  1  0
 30 31  1  0
 31 32  1  0
 32 33  2  0
 33 34  1  0
 34 35  1  0
 32 36  1  0
 36 37  1  0
 37 38  1  0
 38 39  1  0
 39 40  1  0
 40 41  1  0
 41 42  1  0
 40 43  2  0
 43 44  1  0
 44 45  1  0
 45 46  1  0
 46 47  1  0
 47 48  1  0
 48 49  1  0
 49 50  1  0
 50 51  1  0
 51 52  1  0
 52 53  1  0
 50 54  1  0
 54 55  1  0
 47 56  1  0
 56 57  1  0
 43 58  1  0
 58 59  2  3
 59 60  1  0
 60 61  2  0
 60 62  1  0
 62 63  2  0
 63 64  1  0
 63 65  1  0
 65 66  1  0
 65 67  2  0
 67 68  1  0
 67 69  1  0
 69 70  1  0
 69 71  2  0
 71 72  1  0
 72 73  2  3
 73 74  1  0
 74 75  3  0
 73 76  1  0
 76 77  3  0
 17  2  1  0
 53 23  1  0
 72 59  1  0
 16  5  1  0
 52 27  2  0
 71 62  1  0
 14  7  1  0
 51 29  2  0
 49 30  2  0
 35 31  2  0
 48 36  2  0
 46 37  2  0
 45 39  2  0
  1 78  1  0
  6 79  1  0
  8 80  1  0
 13 81  1  0
 15 82  1  0
 25 83  1  0
 25 84  1  0
 26 85  1  0
 26 86  1  0
 26 87  1  0
 41 88  1  0
 41 89  1  0
 42 90  1  0
 42 91  1  0
 42 92  1  0
 54 93  1  0
 54 94  1  0
 55 95  1  0
 55 96  1  0
 55 97  1  0
 56 98  1  0
 56 99  1  0
 57100  1  0
 57101  1  0
 57102  1  0
 58103  1  0
M  END

