
     RDKit          3D

107119  0  0  0  0  0  0  0  0999 V2000
    3.6348   -6.3769    2.7175 C   0  0  0  0  0  0  0  0  0  0  0  0
    4.4059   -5.3314    3.0691 C   0  0  0  0  0  0  0  0  0  0  0  0
    5.8638   -5.4204    3.1649 C   0  0  0  0  0  0  0  0  0  0  0  0
    6.5375   -6.4773    3.3048 O   0  0  0  0  0  0  0  0  0  0  0  0
    6.4102   -4.0940    2.9358 C   0  0  0  0  0  0  0  0  0  0  0  0
    7.7438   -3.7293    2.7500 C   0  0  0  0  0  0  0  0  0  0  0  0
    8.0360   -2.3987    2.4016 C   0  0  0  0  0  0  0  0  0  0  0  0
    9.3624   -1.9898    2.1983 C   0  0  0  0  0  0  0  0  0  0  0  0
    9.6437   -0.6670    1.8351 C   0  0  0  0  0  0  0  0  0  0  0  0
   10.9294   -0.2759    1.6472 F   0  0  0  0  0  0  0  0  0  0  0  0
    8.6040    0.2542    1.6738 C   0  0  0  0  0  0  0  0  0  0  0  0
    8.8820    1.5386    1.3288 F   0  0  0  0  0  0  0  0  0  0  0  0
    7.2757   -0.1386    1.8646 C   0  0  0  0  0  0  0  0  0  0  0  0
    6.9773   -1.4602    2.2301 C   0  0  0  0  0  0  0  0  0  0  0  0
    5.6408   -1.8615    2.4130 C   0  0  0  0  0  0  0  0  0  0  0  0
    5.3734   -3.1877    2.7854 C   0  0  0  0  0  0  0  0  0  0  0  0
    4.0771   -3.8777    3.0053 C   0  0  0  0  0  0  0  0  0  0  0  0
    2.9241   -3.3084    3.4360 C   0  0  0  0  0  0  0  0  0  0  0  0
    2.7257   -1.8814    3.4709 C   0  0  0  0  0  0  0  0  0  0  0  0
    2.5490   -0.7369    3.5034 N   0  0  0  0  0  0  0  0  0  0  0  0
    1.8679   -4.0934    4.0263 C   0  0  0  0  0  0  0  0  0  0  0  0
    1.0208   -4.7174    4.5099 N   0  0  0  0  0  0  0  0  0  0  0  0
    2.3883   -6.2265    1.9460 C   0  0  0  0  0  0  0  0  0  0  0  0
    1.2065   -6.9716    2.1100 C   0  0  0  0  0  0  0  0  0  0  0  0
    0.9954   -8.0362    3.1485 C   0  0  0  0  0  0  0  0  0  0  0  0
    1.2699   -9.4171    2.5660 C   0  0  0  0  0  0  0  0  0  0  0  0
    0.2230   -6.5460    1.2109 C   0  0  0  0  0  0  0  0  0  0  0  0
   -1.4471   -6.8521    1.0870 S   0  0  0  0  0  0  0  0  0  0  0  0
   -1.6119   -5.6719   -0.1255 C   0  0  0  0  0  0  0  0  0  0  0  0
   -2.6231   -4.8743   -0.5752 C   0  0  0  0  0  0  0  0  0  0  0  0
   -3.9798   -4.8876   -0.2300 C   0  0  0  0  0  0  0  0  0  0  0  0
   -4.7796   -3.7512   -0.5407 C   0  0  0  0  0  0  0  0  0  0  0  0
   -6.0781   -3.7816   -0.1490 N   0  0  0  0  0  0  0  0  0  0  0  0
   -6.1092   -5.2664    0.5882 S   0  0  0  0  0  0  0  0  0  0  0  0
   -4.5842   -5.8971    0.4495 N   0  0  0  0  0  0  0  0  0  0  0  0
   -4.1871   -2.6795   -1.2088 C   0  0  0  0  0  0  0  0  0  0  0  0
   -4.6961   -1.4735   -1.5923 C   0  0  0  0  0  0  0  0  0  0  0  0
   -6.1093   -0.5436   -1.4322 S   0  0  0  0  0  0  0  0  0  0  0  0
   -5.3613    0.7650   -2.2412 C   0  0  0  0  0  0  0  0  0  0  0  0
   -5.7409    2.0840   -2.4964 C   0  0  0  0  0  0  0  0  0  0  0  0
   -7.0708    2.6730   -2.1187 C   0  0  0  0  0  0  0  0  0  0  0  0
   -6.9896    3.3754   -0.7690 C   0  0  0  0  0  0  0  0  0  0  0  0
   -4.6683    2.8061   -3.0524 C   0  0  0  0  0  0  0  0  0  0  0  0
   -3.3015    1.8040   -3.2427 S   0  0  0  0  0  0  0  0  0  0  0  0
   -4.0773    0.4574   -2.6147 C   0  0  0  0  0  0  0  0  0  0  0  0
   -3.7077   -0.8212   -2.2374 C   0  0  0  0  0  0  0  0  0  0  0  0
   -2.5606   -1.5337   -2.3302 N   0  0  0  0  0  0  0  0  0  0  0  0
   -2.8355   -2.6762   -1.6097 C   0  0  0  0  0  0  0  0  0  0  0  0
   -2.0050   -3.7666   -1.1954 C   0  0  0  0  0  0  0  0  0  0  0  0
   -0.6363   -3.8412   -1.0342 N   0  0  0  0  0  0  0  0  0  0  0  0
   -0.4490   -5.0252   -0.3926 C   0  0  0  0  0  0  0  0  0  0  0  0
    0.6008   -5.5289    0.3696 C   0  0  0  0  0  0  0  0  0  0  0  0
    2.1826   -5.0948    0.6900 S   0  0  0  0  0  0  0  0  0  0  0  0
    0.3678   -2.7723   -1.0855 C   0  0  0  0  0  0  0  0  0  0  0  0
    0.0816   -1.6853   -0.0530 C   0  0  0  0  0  0  0  0  0  0  0  0
   -1.5292   -1.2566   -3.3409 C   0  0  0  0  0  0  0  0  0  0  0  0
   -1.2683   -2.4624   -4.2468 C   0  0  0  0  0  0  0  0  0  0  0  0
   -4.6792    4.2347   -3.3874 C   0  0  0  0  0  0  0  0  0  0  0  0
   -4.0428    5.1659   -2.6493 C   0  0  0  0  0  0  0  0  0  0  0  0
   -3.2559    4.8913   -1.4416 C   0  0  0  0  0  0  0  0  0  0  0  0
   -3.2113    3.8050   -0.8047 O   0  0  0  0  0  0  0  0  0  0  0  0
   -2.5330    6.0875   -1.0810 C   0  0  0  0  0  0  0  0  0  0  0  0
   -1.6289    6.2547   -0.0329 C   0  0  0  0  0  0  0  0  0  0  0  0
   -1.0277    7.5063    0.1381 C   0  0  0  0  0  0  0  0  0  0  0  0
   -1.3246    8.5693   -0.7466 C   0  0  0  0  0  0  0  0  0  0  0  0
   -0.7474    9.8407   -0.6098 O   0  0  0  0  0  0  0  0  0  0  0  0
    0.1154   10.2204    0.4588 C   0  0  0  0  0  0  0  0  0  0  0  0
   -2.2274    8.3628   -1.8063 C   0  0  0  0  0  0  0  0  0  0  0  0
   -2.8487    7.1098   -1.9591 C   0  0  0  0  0  0  0  0  0  0  0  0
   -3.8655    6.6278   -2.9463 C   0  0  0  0  0  0  0  0  0  0  0  0
   -4.5803    7.3887   -3.8224 C   0  0  0  0  0  0  0  0  0  0  0  0
   -5.7017    6.8763   -4.5625 C   0  0  0  0  0  0  0  0  0  0  0  0
   -6.6086    6.4857   -5.1658 N   0  0  0  0  0  0  0  0  0  0  0  0
   -4.3404    8.7928   -4.0171 C   0  0  0  0  0  0  0  0  0  0  0  0
   -4.1658    9.9240   -4.1869 N   0  0  0  0  0  0  0  0  0  0  0  0
    4.0230   -7.3808    2.8376 H   0  0  0  0  0  0  0  0  0  0  0  0
    8.5302   -4.4668    2.8526 H   0  0  0  0  0  0  0  0  0  0  0  0
   10.1794   -2.6893    2.3208 H   0  0  0  0  0  0  0  0  0  0  0  0
    6.4815    0.5897    1.7322 H   0  0  0  0  0  0  0  0  0  0  0  0
    4.8426   -1.1621    2.2208 H   0  0  0  0  0  0  0  0  0  0  0  0
    1.6644   -7.8635    4.0192 H   0  0  0  0  0  0  0  0  0  0  0  0
   -0.0503   -7.9966    3.5188 H   0  0  0  0  0  0  0  0  0  0  0  0
    2.3301   -9.4945    2.2447 H   0  0  0  0  0  0  0  0  0  0  0  0
    1.0720  -10.1919    3.3358 H   0  0  0  0  0  0  0  0  0  0  0  0
    0.6097   -9.6073    1.6945 H   0  0  0  0  0  0  0  0  0  0  0  0
   -7.8373    1.8709   -2.0669 H   0  0  0  0  0  0  0  0  0  0  0  0
   -7.3955    3.3963   -2.8946 H   0  0  0  0  0  0  0  0  0  0  0  0
   -7.9830    3.7932   -0.5079 H   0  0  0  0  0  0  0  0  0  0  0  0
   -6.2564    4.2113   -0.8034 H   0  0  0  0  0  0  0  0  0  0  0  0
   -6.6912    2.6579    0.0254 H   0  0  0  0  0  0  0  0  0  0  0  0
    0.4809   -2.3852   -2.1020 H   0  0  0  0  0  0  0  0  0  0  0  0
    1.3761   -3.1686   -0.8878 H   0  0  0  0  0  0  0  0  0  0  0  0
    0.0369   -2.1337    0.9626 H   0  0  0  0  0  0  0  0  0  0  0  0
    0.8958   -0.9292   -0.0696 H   0  0  0  0  0  0  0  0  0  0  0  0
   -0.8783   -1.1718   -0.2718 H   0  0  0  0  0  0  0  0  0  0  0  0
   -1.8738   -0.4531   -4.0211 H   0  0  0  0  0  0  0  0  0  0  0  0
   -0.6237   -0.8292   -2.8775 H   0  0  0  0  0  0  0  0  0  0  0  0
   -2.2100   -2.7654   -4.7539 H   0  0  0  0  0  0  0  0  0  0  0  0
   -0.8766   -3.3296   -3.6799 H   0  0  0  0  0  0  0  0  0  0  0  0
   -0.5182   -2.1890   -5.0188 H   0  0  0  0  0  0  0  0  0  0  0  0
   -5.1651    4.4812   -4.3123 H   0  0  0  0  0  0  0  0  0  0  0  0
   -1.3916    5.4371    0.6354 H   0  0  0  0  0  0  0  0  0  0  0  0
   -0.3263    7.6365    0.9507 H   0  0  0  0  0  0  0  0  0  0  0  0
    0.3958   11.2858    0.3415 H   0  0  0  0  0  0  0  0  0  0  0  0
   -0.4044   10.0956    1.4338 H   0  0  0  0  0  0  0  0  0  0  0  0
    1.0397    9.6051    0.4403 H   0  0  0  0  0  0  0  0  0  0  0  0
   -2.4096    9.1807   -2.4764 H   0  0  0  0  0  0  0  0  0  0  0  0
  1  2  2  3
  2  3  1  0
  3  4  2  0
  3  5  1  0
  5  6  2  0
  6  7  1  0
  7  8  2  0
  8  9  1  0
  9 10  1  0
  9 11  2  0
 11 12  1  0
 11 13  1  0
 13 14  2  0
 14 15  1  0
 15 16  2  0
 16 17  1  0
 17 18  2  3
 18 19  1  0
 19 20  3  0
 18 21  1  0
 21 22  3  0
  1 23  1  0
 23 24  2  0
 24 25  1  0
 25 26  1  0
 24 27  1  0
 27 28  1  0
 28 29  1  0
 29 30  1  0
 30 31  1  0
 31 32  1  0
 32 33  2  0
 33 34  1  0
 34 35  1  0
 32 36  1  0
 36 37  1  0
 37 38  1  0
 38 39  1  0
 39 40  1  0
 40 41  1  0
 41 42  1  0
 40 43  2  0
 43 44  1  0
 44 45  1  0
 45 46  1  0
 46 47  1  0
 47 48  1  0
 48 49  1  0
 49 50  1  0
 50 51  1  0
 51 52  1  0
 52 53  1  0
 50 54  1  0
 54 55  1  0
 47 56  1  0
 56 57  1  0
 43 58  1  0
 58 59  2  3
 59 60  1  0
 60 61  2  0
 60 62  1  0
 62 63  2  0
 63 64  1  0
 64 65  2  0
 65 66  1  0
 66 67  1  0
 65 68  1  0
 68 69  2  0
 69 70  1  0
 70 71  2  3
 71 72  1  0
 72 73  3  0
 71 74  1  0
 74 75  3  0
 17  2  1  0
 53 23  1  0
 70 59  1  0
 16  5  1  0
 52 27  2  0
 69 62  1  0
 14  7  1  0
 51 29  2  0
 49 30  2  0
 35 31  2  0
 48 36  2  0
 46 37  2  0
 45 39  2  0
  1 76  1  0
  6 77  1  0
  8 78  1  0
 13 79  1  0
 15 80  1  0
 25 81  1  0
 25 82  1  0
 26 83  1  0
 26 84  1  0
 26 85  1  0
 41 86  1  0
 41 87  1  0
 42 88  1  0
 42 89  1  0
 42 90  1  0
 54 91  1  0
 54 92  1  0
 55 93  1  0
 55 94  1  0
 55 95  1  0
 56 96  1  0
 56 97  1  0
 57 98  1  0
 57 99  1  0
 57100  1  0
 58101  1  0
 63102  1  0
 64103  1  0
 67104  1  0
 67105  1  0
 67106  1  0
 68107  1  0
M  END

