
     RDKit          3D

 98109  0  0  0  0  0  0  0  0999 V2000
    6.1894    1.1832    2.8821 C   0  0  0  0  0  0  0  0  0  0  0  0
    6.0503    0.1888    3.7886 C   0  0  0  0  0  0  0  0  0  0  0  0
    5.3747   -1.1057    3.6223 C   0  0  0  0  0  0  0  0  0  0  0  0
    5.4262   -1.8525    2.6089 O   0  0  0  0  0  0  0  0  0  0  0  0
    4.8241   -1.4925    4.9048 C   0  0  0  0  0  0  0  0  0  0  0  0
    3.9258   -2.5227    5.1865 C   0  0  0  0  0  0  0  0  0  0  0  0
    3.4135   -2.6253    6.4908 C   0  0  0  0  0  0  0  0  0  0  0  0
    2.4829   -3.6259    6.8109 C   0  0  0  0  0  0  0  0  0  0  0  0
    1.9569   -3.7131    8.1040 C   0  0  0  0  0  0  0  0  0  0  0  0
    1.0568   -4.6883    8.3996 F   0  0  0  0  0  0  0  0  0  0  0  0
    2.3490   -2.7974    9.0870 C   0  0  0  0  0  0  0  0  0  0  0  0
    1.8199   -2.8753   10.3357 F   0  0  0  0  0  0  0  0  0  0  0  0
    3.2777   -1.7953    8.7852 C   0  0  0  0  0  0  0  0  0  0  0  0
    3.8185   -1.6958    7.4912 C   0  0  0  0  0  0  0  0  0  0  0  0
    4.7423   -0.6804    7.1783 C   0  0  0  0  0  0  0  0  0  0  0  0
    5.2566   -0.6062    5.8750 C   0  0  0  0  0  0  0  0  0  0  0  0
    6.1796    0.3822    5.2620 C   0  0  0  0  0  0  0  0  0  0  0  0
    7.1279    1.1133    5.8982 C   0  0  0  0  0  0  0  0  0  0  0  0
    7.2667    1.1166    7.3300 C   0  0  0  0  0  0  0  0  0  0  0  0
    7.3890    1.1210    8.4819 N   0  0  0  0  0  0  0  0  0  0  0  0
    8.1649    1.8066    5.1769 C   0  0  0  0  0  0  0  0  0  0  0  0
    8.9984    2.3708    4.6031 N   0  0  0  0  0  0  0  0  0  0  0  0
    5.6922    1.2141    1.4796 C   0  0  0  0  0  0  0  0  0  0  0  0
    5.8891    2.2982    0.5862 C   0  0  0  0  0  0  0  0  0  0  0  0
    6.6791    3.5458    0.8891 C   0  0  0  0  0  0  0  0  0  0  0  0
    5.8041    4.5860    1.5846 C   0  0  0  0  0  0  0  0  0  0  0  0
    5.1163    2.1551   -0.5717 C   0  0  0  0  0  0  0  0  0  0  0  0
    4.6677    3.2596   -1.7892 S   0  0  0  0  0  0  0  0  0  0  0  0
    3.5395    2.1591   -2.4178 C   0  0  0  0  0  0  0  0  0  0  0  0
    2.3905    2.2481   -3.1482 C   0  0  0  0  0  0  0  0  0  0  0  0
    1.8014    3.3683   -3.7453 C   0  0  0  0  0  0  0  0  0  0  0  0
    0.4479    3.2822   -4.1751 C   0  0  0  0  0  0  0  0  0  0  0  0
   -0.0993    4.3972   -4.7209 N   0  0  0  0  0  0  0  0  0  0  0  0
    1.1917    5.4274   -4.5972 S   0  0  0  0  0  0  0  0  0  0  0  0
    2.4180    4.5675   -3.8916 N   0  0  0  0  0  0  0  0  0  0  0  0
   -0.2255    2.0675   -4.0253 C   0  0  0  0  0  0  0  0  0  0  0  0
   -1.4773    1.6924   -4.4093 C   0  0  0  0  0  0  0  0  0  0  0  0
   -2.8685    2.3618   -5.1213 S   0  0  0  0  0  0  0  0  0  0  0  0
   -3.6321    0.8306   -5.0975 C   0  0  0  0  0  0  0  0  0  0  0  0
   -4.9023    0.3865   -5.4713 C   0  0  0  0  0  0  0  0  0  0  0  0
   -5.9958    1.2969   -5.9562 C   0  0  0  0  0  0  0  0  0  0  0  0
   -6.8418    1.7743   -4.7828 C   0  0  0  0  0  0  0  0  0  0  0  0
   -5.0574   -0.9879   -5.1878 C   0  0  0  0  0  0  0  0  0  0  0  0
   -3.6082   -1.6089   -4.5219 S   0  0  0  0  0  0  0  0  0  0  0  0
   -2.8100   -0.1371   -4.5764 C   0  0  0  0  0  0  0  0  0  0  0  0
   -1.5847    0.3669   -4.1689 C   0  0  0  0  0  0  0  0  0  0  0  0
   -0.4536   -0.1769   -3.6500 N   0  0  0  0  0  0  0  0  0  0  0  0
    0.3791    0.9141   -3.4870 C   0  0  0  0  0  0  0  0  0  0  0  0
    1.6931    1.0393   -2.9353 C   0  0  0  0  0  0  0  0  0  0  0  0
    2.3538    0.2822   -1.9876 N   0  0  0  0  0  0  0  0  0  0  0  0
    3.4691    1.0059   -1.7061 C   0  0  0  0  0  0  0  0  0  0  0  0
    4.3568    1.0134   -0.6336 C   0  0  0  0  0  0  0  0  0  0  0  0
    4.5454    0.1558    0.7884 S   0  0  0  0  0  0  0  0  0  0  0  0
    1.8961   -0.8652   -1.1942 C   0  0  0  0  0  0  0  0  0  0  0  0
    0.6931   -0.5047   -0.3248 C   0  0  0  0  0  0  0  0  0  0  0  0
   -0.1508   -1.6138   -3.7003 C   0  0  0  0  0  0  0  0  0  0  0  0
    1.0946   -1.9092   -4.5362 C   0  0  0  0  0  0  0  0  0  0  0  0
   -6.2579   -1.7872   -5.5117 C   0  0  0  0  0  0  0  0  0  0  0  0
   -6.7287   -2.7933   -4.7608 C   0  0  0  0  0  0  0  0  0  0  0  0
   -6.0850   -3.2580   -3.1400 S   0  0  0  0  0  0  0  0  0  0  0  0
   -7.5138   -4.3245   -2.9445 C   0  0  0  0  0  0  0  0  0  0  0  0
   -7.7568   -4.9186   -1.8601 O   0  0  0  0  0  0  0  0  0  0  0  0
   -8.3691   -4.4327   -4.0791 N   0  0  0  0  0  0  0  0  0  0  0  0
   -9.6542   -5.1325   -4.0839 C   0  0  0  0  0  0  0  0  0  0  0  0
  -10.7627   -4.2067   -3.5989 C   0  0  0  0  0  0  0  0  0  0  0  0
   -7.9359   -3.5462   -5.1018 C   0  0  0  0  0  0  0  0  0  0  0  0
   -8.5609   -3.4129   -6.1902 O   0  0  0  0  0  0  0  0  0  0  0  0
    6.5800    2.1228    3.2393 H   0  0  0  0  0  0  0  0  0  0  0  0
    3.6082   -3.2042    4.4029 H   0  0  0  0  0  0  0  0  0  0  0  0
    2.1547   -4.3353    6.0602 H   0  0  0  0  0  0  0  0  0  0  0  0
    3.5690   -1.0985    9.5606 H   0  0  0  0  0  0  0  0  0  0  0  0
    5.0026    0.0499    7.9281 H   0  0  0  0  0  0  0  0  0  0  0  0
    7.0686    3.9775   -0.0578 H   0  0  0  0  0  0  0  0  0  0  0  0
    7.5587    3.3042    1.5240 H   0  0  0  0  0  0  0  0  0  0  0  0
    6.4007    5.5003    1.7794 H   0  0  0  0  0  0  0  0  0  0  0  0
    5.4270    4.1960    2.5543 H   0  0  0  0  0  0  0  0  0  0  0  0
    4.9375    4.8529    0.9408 H   0  0  0  0  0  0  0  0  0  0  0  0
   -6.6389    0.7731   -6.6915 H   0  0  0  0  0  0  0  0  0  0  0  0
   -5.5593    2.1807   -6.4711 H   0  0  0  0  0  0  0  0  0  0  0  0
   -7.2573    0.9092   -4.2220 H   0  0  0  0  0  0  0  0  0  0  0  0
   -6.2211    2.3889   -4.0959 H   0  0  0  0  0  0  0  0  0  0  0  0
   -7.6823    2.3982   -5.1525 H   0  0  0  0  0  0  0  0  0  0  0  0
    2.7050   -1.2205   -0.5286 H   0  0  0  0  0  0  0  0  0  0  0  0
    1.7312   -1.7419   -1.8304 H   0  0  0  0  0  0  0  0  0  0  0  0
   -0.1747   -0.2049   -0.9459 H   0  0  0  0  0  0  0  0  0  0  0  0
    0.4074   -1.3822    0.2932 H   0  0  0  0  0  0  0  0  0  0  0  0
    0.9552    0.3356    0.3537 H   0  0  0  0  0  0  0  0  0  0  0  0
   -0.1280   -2.0487   -2.6869 H   0  0  0  0  0  0  0  0  0  0  0  0
   -0.9769   -2.1605   -4.1976 H   0  0  0  0  0  0  0  0  0  0  0  0
    0.9408   -1.5453   -5.5744 H   0  0  0  0  0  0  0  0  0  0  0  0
    1.9971   -1.4232   -4.1224 H   0  0  0  0  0  0  0  0  0  0  0  0
    1.2695   -3.0041   -4.5649 H   0  0  0  0  0  0  0  0  0  0  0  0
   -6.8017   -1.5164   -6.4071 H   0  0  0  0  0  0  0  0  0  0  0  0
   -9.5999   -6.0264   -3.4265 H   0  0  0  0  0  0  0  0  0  0  0  0
   -9.8909   -5.4840   -5.1119 H   0  0  0  0  0  0  0  0  0  0  0  0
  -10.5424   -3.8522   -2.5697 H   0  0  0  0  0  0  0  0  0  0  0  0
  -10.8490   -3.3332   -4.2793 H   0  0  0  0  0  0  0  0  0  0  0  0
  -11.7305   -4.7538   -3.5937 H   0  0  0  0  0  0  0  0  0  0  0  0
  1  2  2  3
  2  3  1  0
  3  4  2  0
  3  5  1  0
  5  6  2  0
  6  7  1  0
  7  8  2  0
  8  9  1  0
  9 10  1  0
  9 11  2  0
 11 12  1  0
 11 13  1  0
 13 14  2  0
 14 15  1  0
 15 16  2  0
 16 17  1  0
 17 18  2  3
 18 19  1  0
 19 20  3  0
 18 21  1  0
 21 22  3  0
  1 23  1  0
 23 24  2  0
 24 25  1  0
 25 26  1  0
 24 27  1  0
 27 28  1  0
 28 29  1  0
 29 30  1  0
 30 31  1  0
 31 32  1  0
 32 33  2  0
 33 34  1  0
 34 35  1  0
 32 36  1  0
 36 37  1  0
 37 38  1  0
 38 39  1  0
 39 40  1  0
 40 41  1  0
 41 42  1  0
 40 43  2  0
 43 44  1  0
 44 45  1  0
 45 46  1  0
 46 47  1  0
 47 48  1  0
 48 49  1  0
 49 50  1  0
 50 51  1  0
 51 52  1  0
 52 53  1  0
 50 54  1  0
 54 55  1  0
 47 56  1  0
 56 57  1  0
 43 58  1  0
 58 59  2  3
 59 60  1  0
 60 61  1  0
 61 62  2  0
 61 63  1  0
 63 64  1  0
 64 65  1  0
 63 66  1  0
 66 67  2  0
 17  2  1  0
 53 23  1  0
 66 59  1  0
 16  5  1  0
 52 27  2  0
 14  7  1  0
 51 29  2  0
 49 30  2  0
 35 31  2  0
 48 36  2  0
 46 37  2  0
 45 39  2  0
  1 68  1  0
  6 69  1  0
  8 70  1  0
 13 71  1  0
 15 72  1  0
 25 73  1  0
 25 74  1  0
 26 75  1  0
 26 76  1  0
 26 77  1  0
 41 78  1  0
 41 79  1  0
 42 80  1  0
 42 81  1  0
 42 82  1  0
 54 83  1  0
 54 84  1  0
 55 85  1  0
 55 86  1  0
 55 87  1  0
 56 88  1  0
 56 89  1  0
 57 90  1  0
 57 91  1  0
 57 92  1  0
 58 93  1  0
 64 94  1  0
 64 95  1  0
 65 96  1  0
 65 97  1  0
 65 98  1  0
M  END

