
     RDKit          3D

103115  0  0  0  0  0  0  0  0999 V2000
    0.1424   -0.2006    6.8342 C   0  0  0  0  0  0  0  0  0  0  0  0
    1.4810   -0.3452    6.8911 C   0  0  0  0  0  0  0  0  0  0  0  0
    2.4225    0.1181    5.8606 C   0  0  0  0  0  0  0  0  0  0  0  0
    2.1602    0.8761    4.8864 O   0  0  0  0  0  0  0  0  0  0  0  0
    3.7033   -0.5028    6.0951 C   0  0  0  0  0  0  0  0  0  0  0  0
    4.8607   -0.3745    5.3287 C   0  0  0  0  0  0  0  0  0  0  0  0
    6.0132   -1.0671    5.7322 C   0  0  0  0  0  0  0  0  0  0  0  0
    7.1978   -0.9665    4.9872 C   0  0  0  0  0  0  0  0  0  0  0  0
    8.3447   -1.6517    5.4009 C   0  0  0  0  0  0  0  0  0  0  0  0
    9.4870   -1.5484    4.6795 F   0  0  0  0  0  0  0  0  0  0  0  0
    8.3196   -2.4409    6.5543 C   0  0  0  0  0  0  0  0  0  0  0  0
    9.4379   -3.0985    6.9497 F   0  0  0  0  0  0  0  0  0  0  0  0
    7.1421   -2.5577    7.3027 C   0  0  0  0  0  0  0  0  0  0  0  0
    5.9785   -1.8820    6.8992 C   0  0  0  0  0  0  0  0  0  0  0  0
    4.7831   -2.0022    7.6423 C   0  0  0  0  0  0  0  0  0  0  0  0
    3.6363   -1.3040    7.2235 C   0  0  0  0  0  0  0  0  0  0  0  0
    2.2671   -1.2164    7.8210 C   0  0  0  0  0  0  0  0  0  0  0  0
    1.8512   -1.7181    9.0138 C   0  0  0  0  0  0  0  0  0  0  0  0
    0.6161   -1.3067    9.6359 C   0  0  0  0  0  0  0  0  0  0  0  0
   -0.3737   -0.9777   10.1374 N   0  0  0  0  0  0  0  0  0  0  0  0
    2.6224   -2.6597    9.7796 C   0  0  0  0  0  0  0  0  0  0  0  0
    3.2336   -3.4235   10.4046 N   0  0  0  0  0  0  0  0  0  0  0  0
   -0.5151    0.6559    5.8384 C   0  0  0  0  0  0  0  0  0  0  0  0
   -0.4248    2.0601    5.7691 C   0  0  0  0  0  0  0  0  0  0  0  0
    0.2503    2.9363    6.7827 C   0  0  0  0  0  0  0  0  0  0  0  0
   -0.7081    3.2784    7.9171 C   0  0  0  0  0  0  0  0  0  0  0  0
   -1.0637    2.5358    4.6240 C   0  0  0  0  0  0  0  0  0  0  0  0
   -1.0644    4.0514    3.8488 S   0  0  0  0  0  0  0  0  0  0  0  0
   -1.8717    3.4073    2.5011 C   0  0  0  0  0  0  0  0  0  0  0  0
   -1.9038    3.7039    1.1660 C   0  0  0  0  0  0  0  0  0  0  0  0
   -1.3217    4.7757    0.4715 C   0  0  0  0  0  0  0  0  0  0  0  0
   -1.1348    4.6587   -0.9390 C   0  0  0  0  0  0  0  0  0  0  0  0
   -0.5273    5.6943   -1.5703 N   0  0  0  0  0  0  0  0  0  0  0  0
   -0.2642    6.6928   -0.2750 S   0  0  0  0  0  0  0  0  0  0  0  0
   -0.8618    5.9076    1.0589 N   0  0  0  0  0  0  0  0  0  0  0  0
   -1.5818    3.5010   -1.5794 C   0  0  0  0  0  0  0  0  0  0  0  0
   -1.5679    3.1148   -2.8870 C   0  0  0  0  0  0  0  0  0  0  0  0
   -0.9378    3.6089   -4.3815 S   0  0  0  0  0  0  0  0  0  0  0  0
   -1.5799    2.2102   -5.1337 C   0  0  0  0  0  0  0  0  0  0  0  0
   -1.4432    1.6601   -6.4071 C   0  0  0  0  0  0  0  0  0  0  0  0
   -0.6178    2.2702   -7.5052 C   0  0  0  0  0  0  0  0  0  0  0  0
    0.8131    1.7447   -7.4614 C   0  0  0  0  0  0  0  0  0  0  0  0
   -2.0232    0.3818   -6.4584 C   0  0  0  0  0  0  0  0  0  0  0  0
   -2.7272   -0.0163   -4.9536 S   0  0  0  0  0  0  0  0  0  0  0  0
   -2.2675    1.4275   -4.2436 C   0  0  0  0  0  0  0  0  0  0  0  0
   -2.2322    1.9379   -2.9599 C   0  0  0  0  0  0  0  0  0  0  0  0
   -2.7219    1.5203   -1.7691 N   0  0  0  0  0  0  0  0  0  0  0  0
   -2.2195    2.4550   -0.8929 C   0  0  0  0  0  0  0  0  0  0  0  0
   -2.2672    2.5067    0.5224 C   0  0  0  0  0  0  0  0  0  0  0  0
   -2.3065    1.4698    1.4181 N   0  0  0  0  0  0  0  0  0  0  0  0
   -2.0960    2.0682    2.6177 C   0  0  0  0  0  0  0  0  0  0  0  0
   -1.6294    1.5708    3.8304 C   0  0  0  0  0  0  0  0  0  0  0  0
   -1.3605    0.0502    4.4910 S   0  0  0  0  0  0  0  0  0  0  0  0
   -1.9699    0.0680    1.1423 C   0  0  0  0  0  0  0  0  0  0  0  0
   -0.4717   -0.0993    0.9065 C   0  0  0  0  0  0  0  0  0  0  0  0
   -3.9324    0.6786   -1.6663 C   0  0  0  0  0  0  0  0  0  0  0  0
   -4.9490    1.1953   -0.6435 C   0  0  0  0  0  0  0  0  0  0  0  0
   -1.9986   -0.5123   -7.6241 C   0  0  0  0  0  0  0  0  0  0  0  0
   -1.4048   -1.7215   -7.6151 C   0  0  0  0  0  0  0  0  0  0  0  0
   -0.4780   -2.2160   -6.5851 C   0  0  0  0  0  0  0  0  0  0  0  0
   -0.2538   -1.6937   -5.4612 O   0  0  0  0  0  0  0  0  0  0  0  0
    0.2395   -3.3508   -7.1286 C   0  0  0  0  0  0  0  0  0  0  0  0
    1.2669   -4.0836   -6.5303 C   0  0  0  0  0  0  0  0  0  0  0  0
    1.8882   -5.0988   -7.2737 C   0  0  0  0  0  0  0  0  0  0  0  0
    3.2969   -6.1053   -6.4555 Br  0  0  0  0  0  0  0  0  0  0  0  0
    1.4816   -5.3461   -8.6051 C   0  0  0  0  0  0  0  0  0  0  0  0
    2.3315   -6.6909   -9.6720 Br  0  0  0  0  0  0  0  0  0  0  0  0
    0.4435   -4.5937   -9.1814 C   0  0  0  0  0  0  0  0  0  0  0  0
   -0.1978   -3.6054   -8.4156 C   0  0  0  0  0  0  0  0  0  0  0  0
   -1.3122   -2.6756   -8.7633 C   0  0  0  0  0  0  0  0  0  0  0  0
   -2.2092   -2.8244   -9.7739 C   0  0  0  0  0  0  0  0  0  0  0  0
   -2.1057   -3.8684  -10.7600 C   0  0  0  0  0  0  0  0  0  0  0  0
   -2.0439   -4.7008  -11.5615 N   0  0  0  0  0  0  0  0  0  0  0  0
   -3.4158   -2.0427   -9.8529 C   0  0  0  0  0  0  0  0  0  0  0  0
   -4.3897   -1.4207   -9.9229 N   0  0  0  0  0  0  0  0  0  0  0  0
   -0.5079   -0.7941    7.4569 H   0  0  0  0  0  0  0  0  0  0  0  0
    4.8597    0.2554    4.4458 H   0  0  0  0  0  0  0  0  0  0  0  0
    7.2326   -0.3680    4.0849 H   0  0  0  0  0  0  0  0  0  0  0  0
    7.1426   -3.1796    8.1925 H   0  0  0  0  0  0  0  0  0  0  0  0
    4.7757   -2.6316    8.5148 H   0  0  0  0  0  0  0  0  0  0  0  0
    0.5980    3.8740    6.2984 H   0  0  0  0  0  0  0  0  0  0  0  0
    1.1450    2.4269    7.2005 H   0  0  0  0  0  0  0  0  0  0  0  0
   -1.0810    2.3532    8.4092 H   0  0  0  0  0  0  0  0  0  0  0  0
   -1.5749    3.8565    7.5330 H   0  0  0  0  0  0  0  0  0  0  0  0
   -0.1794    3.8978    8.6681 H   0  0  0  0  0  0  0  0  0  0  0  0
   -1.0656    2.0318   -8.4929 H   0  0  0  0  0  0  0  0  0  0  0  0
   -0.6062    3.3737   -7.3896 H   0  0  0  0  0  0  0  0  0  0  0  0
    1.2766    1.9836   -6.4783 H   0  0  0  0  0  0  0  0  0  0  0  0
    1.4094    2.2204   -8.2696 H   0  0  0  0  0  0  0  0  0  0  0  0
    0.8155    0.6458   -7.6101 H   0  0  0  0  0  0  0  0  0  0  0  0
   -2.2985   -0.5668    1.9851 H   0  0  0  0  0  0  0  0  0  0  0  0
   -2.5027   -0.3069    0.2647 H   0  0  0  0  0  0  0  0  0  0  0  0
   -0.1717    0.4285   -0.0252 H   0  0  0  0  0  0  0  0  0  0  0  0
   -0.2223   -1.1777    0.7996 H   0  0  0  0  0  0  0  0  0  0  0  0
    0.1076    0.3180    1.7561 H   0  0  0  0  0  0  0  0  0  0  0  0
   -4.4586    0.6894   -2.6447 H   0  0  0  0  0  0  0  0  0  0  0  0
   -3.6649   -0.3821   -1.4877 H   0  0  0  0  0  0  0  0  0  0  0  0
   -5.9284    0.6980   -0.8137 H   0  0  0  0  0  0  0  0  0  0  0  0
   -5.0920    2.2897   -0.7542 H   0  0  0  0  0  0  0  0  0  0  0  0
   -4.6360    0.9567    0.3860 H   0  0  0  0  0  0  0  0  0  0  0  0
   -2.4031   -0.1094   -8.5384 H   0  0  0  0  0  0  0  0  0  0  0  0
    1.5815   -3.8604   -5.5182 H   0  0  0  0  0  0  0  0  0  0  0  0
    0.1904   -4.7714  -10.2112 H   0  0  0  0  0  0  0  0  0  0  0  0
  1  2  2  3
  2  3  1  0
  3  4  2  0
  3  5  1  0
  5  6  2  0
  6  7  1  0
  7  8  2  0
  8  9  1  0
  9 10  1  0
  9 11  2  0
 11 12  1  0
 11 13  1  0
 13 14  2  0
 14 15  1  0
 15 16  2  0
 16 17  1  0
 17 18  2  3
 18 19  1  0
 19 20  3  0
 18 21  1  0
 21 22  3  0
  1 23  1  0
 23 24  2  0
 24 25  1  0
 25 26  1  0
 24 27  1  0
 27 28  1  0
 28 29  1  0
 29 30  1  0
 30 31  1  0
 31 32  1  0
 32 33  2  0
 33 34  1  0
 34 35  1  0
 32 36  1  0
 36 37  1  0
 37 38  1  0
 38 39  1  0
 39 40  1  0
 40 41  1  0
 41 42  1  0
 40 43  2  0
 43 44  1  0
 44 45  1  0
 45 46  1  0
 46 47  1  0
 47 48  1  0
 48 49  1  0
 49 50  1  0
 50 51  1  0
 51 52  1  0
 52 53  1  0
 50 54  1  0
 54 55  1  0
 47 56  1  0
 56 57  1  0
 43 58  1  0
 58 59  2  3
 59 60  1  0
 60 61  2  0
 60 62  1  0
 62 63  2  0
 63 64  1  0
 64 65  1  0
 64 66  2  0
 66 67  1  0
 66 68  1  0
 68 69  2  0
 69 70  1  0
 70 71  2  3
 71 72  1  0
 72 73  3  0
 71 74  1  0
 74 75  3  0
 17  2  1  0
 53 23  1  0
 70 59  1  0
 16  5  1  0
 52 27  2  0
 69 62  1  0
 14  7  1  0
 51 29  2  0
 49 30  2  0
 35 31  2  0
 48 36  2  0
 46 37  2  0
 45 39  2  0
  1 76  1  0
  6 77  1  0
  8 78  1  0
 13 79  1  0
 15 80  1  0
 25 81  1  0
 25 82  1  0
 26 83  1  0
 26 84  1  0
 26 85  1  0
 41 86  1  0
 41 87  1  0
 42 88  1  0
 42 89  1  0
 42 90  1  0
 54 91  1  0
 54 92  1  0
 55 93  1  0
 55 94  1  0
 55 95  1  0
 56 96  1  0
 56 97  1  0
 57 98  1  0
 57 99  1  0
 57100  1  0
 58101  1  0
 63102  1  0
 68103  1  0
M  END

