
     RDKit          3D

109122  0  0  0  0  0  0  0  0999 V2000
    3.5416    4.3146    0.2085 C   0  0  0  0  0  0  0  0  0  0  0  0
    4.3810    5.1517    0.8470 C   0  0  0  0  0  0  0  0  0  0  0  0
    4.3839    5.4227    2.2884 C   0  0  0  0  0  0  0  0  0  0  0  0
    3.8300    4.7332    3.1846 O   0  0  0  0  0  0  0  0  0  0  0  0
    5.1358    6.6349    2.5188 C   0  0  0  0  0  0  0  0  0  0  0  0
    5.2733    7.3404    3.7128 C   0  0  0  0  0  0  0  0  0  0  0  0
    5.9741    8.5573    3.6966 C   0  0  0  0  0  0  0  0  0  0  0  0
    6.1304    9.3049    4.8736 C   0  0  0  0  0  0  0  0  0  0  0  0
    6.8104   10.5258    4.8476 C   0  0  0  0  0  0  0  0  0  0  0  0
    6.9544   11.2414    5.9905 F   0  0  0  0  0  0  0  0  0  0  0  0
    7.3399   11.0105    3.6473 C   0  0  0  0  0  0  0  0  0  0  0  0
    8.0009   12.1946    3.6288 F   0  0  0  0  0  0  0  0  0  0  0  0
    7.1908   10.2795    2.4648 C   0  0  0  0  0  0  0  0  0  0  0  0
    6.5080    9.0521    2.4737 C   0  0  0  0  0  0  0  0  0  0  0  0
    6.3384    8.3197    1.2817 C   0  0  0  0  0  0  0  0  0  0  0  0
    5.6643    7.0896    1.3228 C   0  0  0  0  0  0  0  0  0  0  0  0
    5.3268    6.1315    0.2296 C   0  0  0  0  0  0  0  0  0  0  0  0
    5.9393    6.0261   -0.9788 C   0  0  0  0  0  0  0  0  0  0  0  0
    6.9499    6.9499   -1.4194 C   0  0  0  0  0  0  0  0  0  0  0  0
    7.7673    7.6825   -1.7877 N   0  0  0  0  0  0  0  0  0  0  0  0
    5.7335    4.9019   -1.8551 C   0  0  0  0  0  0  0  0  0  0  0  0
    5.5802    3.9987   -2.5643 N   0  0  0  0  0  0  0  0  0  0  0  0
    2.5774    3.4526    0.9055 C   0  0  0  0  0  0  0  0  0  0  0  0
    1.4078    3.8718    1.5755 C   0  0  0  0  0  0  0  0  0  0  0  0
    0.8864    5.2808    1.5948 C   0  0  0  0  0  0  0  0  0  0  0  0
    0.1963    5.6175    0.2779 C   0  0  0  0  0  0  0  0  0  0  0  0
    0.6899    2.7687    2.0419 C   0  0  0  0  0  0  0  0  0  0  0  0
   -0.8340    2.5823    2.8019 S   0  0  0  0  0  0  0  0  0  0  0  0
   -0.7059    0.8917    2.6882 C   0  0  0  0  0  0  0  0  0  0  0  0
   -1.4399   -0.2338    2.9289 C   0  0  0  0  0  0  0  0  0  0  0  0
   -2.6511   -0.4265    3.5946 C   0  0  0  0  0  0  0  0  0  0  0  0
   -3.1847   -1.7456    3.6696 C   0  0  0  0  0  0  0  0  0  0  0  0
   -4.3767   -1.8870    4.3015 N   0  0  0  0  0  0  0  0  0  0  0  0
   -4.6516   -0.3142    4.7422 S   0  0  0  0  0  0  0  0  0  0  0  0
   -3.3673    0.5666    4.1769 N   0  0  0  0  0  0  0  0  0  0  0  0
   -2.5107   -2.7910    3.0189 C   0  0  0  0  0  0  0  0  0  0  0  0
   -3.0079   -3.9961    2.5991 C   0  0  0  0  0  0  0  0  0  0  0  0
   -4.5706   -4.6587    2.5465 S   0  0  0  0  0  0  0  0  0  0  0  0
   -4.2230   -5.5193    1.1214 C   0  0  0  0  0  0  0  0  0  0  0  0
   -5.0725   -6.0981    0.1701 C   0  0  0  0  0  0  0  0  0  0  0  0
   -6.4960   -6.4969    0.4390 C   0  0  0  0  0  0  0  0  0  0  0  0
   -6.5484   -7.9174    0.9867 C   0  0  0  0  0  0  0  0  0  0  0  0
   -4.4412   -6.1757   -1.0819 C   0  0  0  0  0  0  0  0  0  0  0  0
   -2.8510   -5.5825   -0.9586 S   0  0  0  0  0  0  0  0  0  0  0  0
   -2.9543   -5.2274    0.6771 C   0  0  0  0  0  0  0  0  0  0  0  0
   -2.2456   -4.3848    1.5376 C   0  0  0  0  0  0  0  0  0  0  0  0
   -1.2014   -3.5462    1.3129 N   0  0  0  0  0  0  0  0  0  0  0  0
   -1.3326   -2.5719    2.2755 C   0  0  0  0  0  0  0  0  0  0  0  0
   -0.7144   -1.2902    2.3511 C   0  0  0  0  0  0  0  0  0  0  0  0
    0.5066   -0.8439    1.9019 N   0  0  0  0  0  0  0  0  0  0  0  0
    0.4346    0.4939    2.0853 C   0  0  0  0  0  0  0  0  0  0  0  0
    1.2472    1.5542    1.7309 C   0  0  0  0  0  0  0  0  0  0  0  0
    2.6556    1.7540    0.8516 S   0  0  0  0  0  0  0  0  0  0  0  0
    1.7769   -1.5601    1.6992 C   0  0  0  0  0  0  0  0  0  0  0  0
    1.9649   -2.7101    2.6918 C   0  0  0  0  0  0  0  0  0  0  0  0
   -0.4006   -3.5402    0.0808 C   0  0  0  0  0  0  0  0  0  0  0  0
   -0.8448   -2.4283   -0.8695 C   0  0  0  0  0  0  0  0  0  0  0  0
   -5.0864   -6.5424   -2.3542 C   0  0  0  0  0  0  0  0  0  0  0  0
   -5.0095   -5.7824   -3.4625 C   0  0  0  0  0  0  0  0  0  0  0  0
   -5.1466   -6.3222   -4.8131 C   0  0  0  0  0  0  0  0  0  0  0  0
   -5.6680   -7.4268   -5.1226 O   0  0  0  0  0  0  0  0  0  0  0  0
   -4.5127   -5.3951   -5.7352 C   0  0  0  0  0  0  0  0  0  0  0  0
   -4.3143   -5.5439   -7.1091 C   0  0  0  0  0  0  0  0  0  0  0  0
   -3.6131   -4.5382   -7.7997 C   0  0  0  0  0  0  0  0  0  0  0  0
   -3.4010   -4.6352   -9.1867 C   0  0  0  0  0  0  0  0  0  0  0  0
   -2.7076   -3.6257   -9.8624 C   0  0  0  0  0  0  0  0  0  0  0  0
   -2.2149   -2.5211   -9.1646 C   0  0  0  0  0  0  0  0  0  0  0  0
   -1.5576   -1.5376   -9.8314 F   0  0  0  0  0  0  0  0  0  0  0  0
   -2.4029   -2.4164   -7.7834 C   0  0  0  0  0  0  0  0  0  0  0  0
   -3.1059   -3.4120   -7.0888 C   0  0  0  0  0  0  0  0  0  0  0  0
   -3.3155   -3.2979   -5.7006 C   0  0  0  0  0  0  0  0  0  0  0  0
   -4.0394   -4.2968   -5.0369 C   0  0  0  0  0  0  0  0  0  0  0  0
   -4.4515   -4.4030   -3.6115 C   0  0  0  0  0  0  0  0  0  0  0  0
   -4.6884   -3.3577   -2.7825 C   0  0  0  0  0  0  0  0  0  0  0  0
   -4.1073   -2.0528   -2.9807 C   0  0  0  0  0  0  0  0  0  0  0  0
   -3.6457   -0.9982   -3.1185 N   0  0  0  0  0  0  0  0  0  0  0  0
   -5.6446   -3.4437   -1.7080 C   0  0  0  0  0  0  0  0  0  0  0  0
   -6.4297   -3.4889   -0.8561 N   0  0  0  0  0  0  0  0  0  0  0  0
    3.5321    4.2467   -0.8660 H   0  0  0  0  0  0  0  0  0  0  0  0
    4.8335    6.9569    4.6269 H   0  0  0  0  0  0  0  0  0  0  0  0
    5.7206    8.9470    5.8101 H   0  0  0  0  0  0  0  0  0  0  0  0
    7.6055   10.6723    1.5455 H   0  0  0  0  0  0  0  0  0  0  0  0
    6.6979    8.7339    0.3548 H   0  0  0  0  0  0  0  0  0  0  0  0
    0.1636    5.4102    2.4284 H   0  0  0  0  0  0  0  0  0  0  0  0
    1.7163    5.9971    1.7598 H   0  0  0  0  0  0  0  0  0  0  0  0
    0.9052    5.5085   -0.5719 H   0  0  0  0  0  0  0  0  0  0  0  0
   -0.6753    4.9429    0.1122 H   0  0  0  0  0  0  0  0  0  0  0  0
   -0.1659    6.6682    0.3005 H   0  0  0  0  0  0  0  0  0  0  0  0
   -7.0938   -6.4457   -0.4989 H   0  0  0  0  0  0  0  0  0  0  0  0
   -6.9569   -5.7991    1.1710 H   0  0  0  0  0  0  0  0  0  0  0  0
   -6.0120   -7.9741    1.9614 H   0  0  0  0  0  0  0  0  0  0  0  0
   -6.0830   -8.6298    0.2700 H   0  0  0  0  0  0  0  0  0  0  0  0
   -7.6076   -8.2150    1.1459 H   0  0  0  0  0  0  0  0  0  0  0  0
    2.6243   -0.8673    1.8893 H   0  0  0  0  0  0  0  0  0  0  0  0
    1.9013   -1.8562    0.6437 H   0  0  0  0  0  0  0  0  0  0  0  0
    2.9901   -3.1240    2.5831 H   0  0  0  0  0  0  0  0  0  0  0  0
    1.8401   -2.3394    3.7309 H   0  0  0  0  0  0  0  0  0  0  0  0
    1.2427   -3.5306    2.5166 H   0  0  0  0  0  0  0  0  0  0  0  0
    0.6689   -3.4930    0.3057 H   0  0  0  0  0  0  0  0  0  0  0  0
   -0.4811   -4.5144   -0.4364 H   0  0  0  0  0  0  0  0  0  0  0  0
   -0.3610   -2.5669   -1.8573 H   0  0  0  0  0  0  0  0  0  0  0  0
   -0.5547   -1.4378   -0.4725 H   0  0  0  0  0  0  0  0  0  0  0  0
   -1.9470   -2.4650   -1.0023 H   0  0  0  0  0  0  0  0  0  0  0  0
   -5.5311   -7.5291   -2.4146 H   0  0  0  0  0  0  0  0  0  0  0  0
   -4.6979   -6.4152   -7.6241 H   0  0  0  0  0  0  0  0  0  0  0  0
   -3.7735   -5.4856   -9.7458 H   0  0  0  0  0  0  0  0  0  0  0  0
   -2.5537   -3.6990  -10.9350 H   0  0  0  0  0  0  0  0  0  0  0  0
   -2.0078   -1.5532   -7.2633 H   0  0  0  0  0  0  0  0  0  0  0  0
   -2.8798   -2.4683   -5.1686 H   0  0  0  0  0  0  0  0  0  0  0  0
  1  2  2  3
  2  3  1  0
  3  4  2  0
  3  5  1  0
  5  6  2  0
  6  7  1  0
  7  8  2  0
  8  9  1  0
  9 10  1  0
  9 11  2  0
 11 12  1  0
 11 13  1  0
 13 14  2  0
 14 15  1  0
 15 16  2  0
 16 17  1  0
 17 18  2  3
 18 19  1  0
 19 20  3  0
 18 21  1  0
 21 22  3  0
  1 23  1  0
 23 24  2  0
 24 25  1  0
 25 26  1  0
 24 27  1  0
 27 28  1  0
 28 29  1  0
 29 30  1  0
 30 31  1  0
 31 32  1  0
 32 33  2  0
 33 34  1  0
 34 35  1  0
 32 36  1  0
 36 37  1  0
 37 38  1  0
 38 39  1  0
 39 40  1  0
 40 41  1  0
 41 42  1  0
 40 43  2  0
 43 44  1  0
 44 45  1  0
 45 46  1  0
 46 47  1  0
 47 48  1  0
 48 49  1  0
 49 50  1  0
 50 51  1  0
 51 52  1  0
 52 53  1  0
 50 54  1  0
 54 55  1  0
 47 56  1  0
 56 57  1  0
 43 58  1  0
 58 59  2  3
 59 60  1  0
 60 61  2  0
 60 62  1  0
 62 63  2  0
 63 64  1  0
 64 65  2  0
 65 66  1  0
 66 67  2  0
 67 68  1  0
 67 69  1  0
 69 70  2  0
 70 71  1  0
 71 72  2  0
 72 73  1  0
 73 74  2  3
 74 75  1  0
 75 76  3  0
 74 77  1  0
 77 78  3  0
 17  2  1  0
 53 23  1  0
 73 59  1  0
 16  5  1  0
 52 27  2  0
 72 62  1  0
 14  7  1  0
 51 29  2  0
 70 64  1  0
 49 30  2  0
 35 31  2  0
 48 36  2  0
 46 37  2  0
 45 39  2  0
  1 79  1  0
  6 80  1  0
  8 81  1  0
 13 82  1  0
 15 83  1  0
 25 84  1  0
 25 85  1  0
 26 86  1  0
 26 87  1  0
 26 88  1  0
 41 89  1  0
 41 90  1  0
 42 91  1  0
 42 92  1  0
 42 93  1  0
 54 94  1  0
 54 95  1  0
 55 96  1  0
 55 97  1  0
 55 98  1  0
 56 99  1  0
 56100  1  0
 57101  1  0
 57102  1  0
 57103  1  0
 58104  1  0
 63105  1  0
 65106  1  0
 66107  1  0
 69108  1  0
 71109  1  0
M  END

