
     RDKit          3D

100112  0  0  0  0  0  0  0  0999 V2000
   -0.5966    0.1411   -6.2911 C   0  0  0  0  0  0  0  0  0  0  0  0
   -1.3442   -0.9565   -6.0893 C   0  0  0  0  0  0  0  0  0  0  0  0
   -2.2766   -1.4654   -7.0948 C   0  0  0  0  0  0  0  0  0  0  0  0
   -2.2313   -1.2322   -8.3342 O   0  0  0  0  0  0  0  0  0  0  0  0
   -3.3215   -2.2002   -6.4040 C   0  0  0  0  0  0  0  0  0  0  0  0
   -4.5082   -2.7146   -6.9227 C   0  0  0  0  0  0  0  0  0  0  0  0
   -5.4519   -3.2572   -6.0307 C   0  0  0  0  0  0  0  0  0  0  0  0
   -6.6650   -3.7752   -6.5078 C   0  0  0  0  0  0  0  0  0  0  0  0
   -7.6209   -4.2608   -5.6124 C   0  0  0  0  0  0  0  0  0  0  0  0
   -8.7932   -4.7543   -6.0832 F   0  0  0  0  0  0  0  0  0  0  0  0
   -7.3752   -4.2380   -4.2349 C   0  0  0  0  0  0  0  0  0  0  0  0
   -8.3110   -4.7022   -3.3718 F   0  0  0  0  0  0  0  0  0  0  0  0
   -6.1612   -3.7480   -3.7439 C   0  0  0  0  0  0  0  0  0  0  0  0
   -5.1919   -3.2490   -4.6284 C   0  0  0  0  0  0  0  0  0  0  0  0
   -3.9807   -2.7269   -4.1387 C   0  0  0  0  0  0  0  0  0  0  0  0
   -3.0395   -2.2281   -5.0498 C   0  0  0  0  0  0  0  0  0  0  0  0
   -1.7102   -1.6187   -4.8058 C   0  0  0  0  0  0  0  0  0  0  0  0
   -0.8456   -1.9725   -3.8273 C   0  0  0  0  0  0  0  0  0  0  0  0
   -1.2506   -2.7321   -2.6745 C   0  0  0  0  0  0  0  0  0  0  0  0
   -1.5678   -3.3358   -1.7388 N   0  0  0  0  0  0  0  0  0  0  0  0
    0.5669   -1.7243   -3.9442 C   0  0  0  0  0  0  0  0  0  0  0  0
    1.7108   -1.5545   -4.0340 N   0  0  0  0  0  0  0  0  0  0  0  0
   -0.1067    1.0406   -5.2222 C   0  0  0  0  0  0  0  0  0  0  0  0
    0.9930    1.9135   -5.3321 C   0  0  0  0  0  0  0  0  0  0  0  0
    1.9573    1.9634   -6.4896 C   0  0  0  0  0  0  0  0  0  0  0  0
    2.9490    0.8104   -6.4044 C   0  0  0  0  0  0  0  0  0  0  0  0
    1.1666    2.6528   -4.1588 C   0  0  0  0  0  0  0  0  0  0  0  0
    2.4088    3.6798   -3.6076 S   0  0  0  0  0  0  0  0  0  0  0  0
    1.6792    3.7886   -2.0746 C   0  0  0  0  0  0  0  0  0  0  0  0
    2.1091    4.0542   -0.8071 C   0  0  0  0  0  0  0  0  0  0  0  0
    3.3602    4.5104   -0.3815 C   0  0  0  0  0  0  0  0  0  0  0  0
    3.7008    4.3843    0.9919 C   0  0  0  0  0  0  0  0  0  0  0  0
    4.9427    4.7839    1.3625 N   0  0  0  0  0  0  0  0  0  0  0  0
    5.5284    5.2636   -0.1133 S   0  0  0  0  0  0  0  0  0  0  0  0
    4.3137    5.0060   -1.2108 N   0  0  0  0  0  0  0  0  0  0  0  0
    2.7505    3.8685    1.8698 C   0  0  0  0  0  0  0  0  0  0  0  0
    2.8301    3.6134    3.2057 C   0  0  0  0  0  0  0  0  0  0  0  0
    4.0229    3.4802    4.4036 S   0  0  0  0  0  0  0  0  0  0  0  0
    2.9072    2.7285    5.4565 C   0  0  0  0  0  0  0  0  0  0  0  0
    3.0601    2.0392    6.6605 C   0  0  0  0  0  0  0  0  0  0  0  0
    4.3623    1.9176    7.4027 C   0  0  0  0  0  0  0  0  0  0  0  0
    5.1872    0.7534    6.8641 C   0  0  0  0  0  0  0  0  0  0  0  0
    1.8985    1.3119    6.9643 C   0  0  0  0  0  0  0  0  0  0  0  0
    0.7076    1.5583    5.7662 S   0  0  0  0  0  0  0  0  0  0  0  0
    1.6736    2.5928    4.8710 C   0  0  0  0  0  0  0  0  0  0  0  0
    1.6420    3.1050    3.5828 C   0  0  0  0  0  0  0  0  0  0  0  0
    0.7465    3.0315    2.5692 N   0  0  0  0  0  0  0  0  0  0  0  0
    1.4669    3.4470    1.4668 C   0  0  0  0  0  0  0  0  0  0  0  0
    1.1622    3.4679    0.0645 C   0  0  0  0  0  0  0  0  0  0  0  0
    0.2070    2.7978   -0.6734 N   0  0  0  0  0  0  0  0  0  0  0  0
    0.5587    3.0381   -1.9645 C   0  0  0  0  0  0  0  0  0  0  0  0
    0.2586    2.3951   -3.1651 C   0  0  0  0  0  0  0  0  0  0  0  0
   -0.8414    1.2523   -3.6948 S   0  0  0  0  0  0  0  0  0  0  0  0
   -0.7313    1.7450   -0.2666 C   0  0  0  0  0  0  0  0  0  0  0  0
    0.0046    0.5121    0.2538 C   0  0  0  0  0  0  0  0  0  0  0  0
   -0.6998    2.9498    2.8009 C   0  0  0  0  0  0  0  0  0  0  0  0
   -1.4351    4.1689    2.2360 C   0  0  0  0  0  0  0  0  0  0  0  0
    1.7684    0.3525    8.0706 C   0  0  0  0  0  0  0  0  0  0  0  0
    1.7356   -0.9797    7.8878 C   0  0  0  0  0  0  0  0  0  0  0  0
    2.0032   -1.6842    6.6074 C   0  0  0  0  0  0  0  0  0  0  0  0
    2.1211   -1.1744    5.4623 O   0  0  0  0  0  0  0  0  0  0  0  0
    2.1688   -3.0823    6.9099 C   0  0  0  0  0  0  0  0  0  0  0  0
    2.4260   -4.2178    6.1526 C   0  0  0  0  0  0  0  0  0  0  0  0
    2.4548   -5.3502    6.9695 C   0  0  0  0  0  0  0  0  0  0  0  0
    2.7393   -6.9835    6.4079 Cl  0  0  0  0  0  0  0  0  0  0  0  0
    2.1507   -4.9215    8.5874 S   0  0  0  0  0  0  0  0  0  0  0  0
    2.0101   -3.2825    8.2368 C   0  0  0  0  0  0  0  0  0  0  0  0
    1.6913   -2.0382    8.9531 C   0  0  0  0  0  0  0  0  0  0  0  0
    1.3005   -1.9465   10.2412 C   0  0  0  0  0  0  0  0  0  0  0  0
    0.7444   -0.7401   10.7869 C   0  0  0  0  0  0  0  0  0  0  0  0
    0.2918    0.2332   11.2249 N   0  0  0  0  0  0  0  0  0  0  0  0
    1.3182   -3.0944   11.1112 C   0  0  0  0  0  0  0  0  0  0  0  0
    1.3288   -4.0148   11.8132 N   0  0  0  0  0  0  0  0  0  0  0  0
   -0.4551    0.4800   -7.3113 H   0  0  0  0  0  0  0  0  0  0  0  0
   -4.7025   -2.6714   -7.9880 H   0  0  0  0  0  0  0  0  0  0  0  0
   -6.8746   -3.7964   -7.5715 H   0  0  0  0  0  0  0  0  0  0  0  0
   -5.9863   -3.7431   -2.6731 H   0  0  0  0  0  0  0  0  0  0  0  0
   -3.8009   -2.6735   -3.0724 H   0  0  0  0  0  0  0  0  0  0  0  0
    2.5205    2.9231   -6.4756 H   0  0  0  0  0  0  0  0  0  0  0  0
    1.4037    1.9175   -7.4502 H   0  0  0  0  0  0  0  0  0  0  0  0
    2.4215   -0.1611   -6.5190 H   0  0  0  0  0  0  0  0  0  0  0  0
    3.7026    0.9087   -7.2101 H   0  0  0  0  0  0  0  0  0  0  0  0
    3.4718    0.8244   -5.4227 H   0  0  0  0  0  0  0  0  0  0  0  0
    4.1722    1.7658    8.4877 H   0  0  0  0  0  0  0  0  0  0  0  0
    4.9399    2.8619    7.2950 H   0  0  0  0  0  0  0  0  0  0  0  0
    6.1443    0.6898    7.4216 H   0  0  0  0  0  0  0  0  0  0  0  0
    4.6395   -0.2050    6.9879 H   0  0  0  0  0  0  0  0  0  0  0  0
    5.4154    0.9135    5.7894 H   0  0  0  0  0  0  0  0  0  0  0  0
   -1.4768    2.1331    0.4325 H   0  0  0  0  0  0  0  0  0  0  0  0
   -1.3574    1.4304   -1.1246 H   0  0  0  0  0  0  0  0  0  0  0  0
    0.6958    0.1300   -0.5238 H   0  0  0  0  0  0  0  0  0  0  0  0
   -0.7295   -0.2807    0.5080 H   0  0  0  0  0  0  0  0  0  0  0  0
    0.5927    0.7517    1.1623 H   0  0  0  0  0  0  0  0  0  0  0  0
   -0.9064    2.9534    3.8940 H   0  0  0  0  0  0  0  0  0  0  0  0
   -1.1002    1.9780    2.4705 H   0  0  0  0  0  0  0  0  0  0  0  0
   -1.1017    5.0829    2.7757 H   0  0  0  0  0  0  0  0  0  0  0  0
   -2.5305    4.0451    2.3920 H   0  0  0  0  0  0  0  0  0  0  0  0
   -1.2369    4.3030    1.1535 H   0  0  0  0  0  0  0  0  0  0  0  0
    1.8154    0.7610    9.0602 H   0  0  0  0  0  0  0  0  0  0  0  0
    2.5692   -4.2254    5.0819 H   0  0  0  0  0  0  0  0  0  0  0  0
  1  2  2  3
  2  3  1  0
  3  4  2  0
  3  5  1  0
  5  6  2  0
  6  7  1  0
  7  8  2  0
  8  9  1  0
  9 10  1  0
  9 11  2  0
 11 12  1  0
 11 13  1  0
 13 14  2  0
 14 15  1  0
 15 16  2  0
 16 17  1  0
 17 18  2  3
 18 19  1  0
 19 20  3  0
 18 21  1  0
 21 22  3  0
  1 23  1  0
 23 24  2  0
 24 25  1  0
 25 26  1  0
 24 27  1  0
 27 28  1  0
 28 29  1  0
 29 30  1  0
 30 31  1  0
 31 32  1  0
 32 33  2  0
 33 34  1  0
 34 35  1  0
 32 36  1  0
 36 37  1  0
 37 38  1  0
 38 39  1  0
 39 40  1  0
 40 41  1  0
 41 42  1  0
 40 43  2  0
 43 44  1  0
 44 45  1  0
 45 46  1  0
 46 47  1  0
 47 48  1  0
 48 49  1  0
 49 50  1  0
 50 51  1  0
 51 52  1  0
 52 53  1  0
 50 54  1  0
 54 55  1  0
 47 56  1  0
 56 57  1  0
 43 58  1  0
 58 59  2  3
 59 60  1  0
 60 61  2  0
 60 62  1  0
 62 63  1  0
 63 64  2  0
 64 65  1  0
 64 66  1  0
 66 67  1  0
 67 68  1  0
 68 69  2  3
 69 70  1  0
 70 71  3  0
 69 72  1  0
 72 73  3  0
 17  2  1  0
 53 23  1  0
 68 59  1  0
 16  5  1  0
 52 27  2  0
 67 62  2  0
 14  7  1  0
 51 29  2  0
 49 30  2  0
 35 31  2  0
 48 36  2  0
 46 37  2  0
 45 39  2  0
  1 74  1  0
  6 75  1  0
  8 76  1  0
 13 77  1  0
 15 78  1  0
 25 79  1  0
 25 80  1  0
 26 81  1  0
 26 82  1  0
 26 83  1  0
 41 84  1  0
 41 85  1  0
 42 86  1  0
 42 87  1  0
 42 88  1  0
 54 89  1  0
 54 90  1  0
 55 91  1  0
 55 92  1  0
 55 93  1  0
 56 94  1  0
 56 95  1  0
 57 96  1  0
 57 97  1  0
 57 98  1  0
 58 99  1  0
 63100  1  0
M  END

