
     RDKit          3D

103115  0  0  0  0  0  0  0  0999 V2000
    5.9122   -3.3249    4.3376 C   0  0  0  0  0  0  0  0  0  0  0  0
    5.0575   -3.8102    5.2563 C   0  0  0  0  0  0  0  0  0  0  0  0
    3.6578   -3.3998    5.4205 C   0  0  0  0  0  0  0  0  0  0  0  0
    3.1284   -2.3415    4.9889 O   0  0  0  0  0  0  0  0  0  0  0  0
    2.9758   -4.4112    6.1937 C   0  0  0  0  0  0  0  0  0  0  0  0
    1.6152   -4.4921    6.4816 C   0  0  0  0  0  0  0  0  0  0  0  0
    1.1406   -5.6192    7.1710 C   0  0  0  0  0  0  0  0  0  0  0  0
   -0.2225   -5.7431    7.4776 C   0  0  0  0  0  0  0  0  0  0  0  0
   -0.6937   -6.8800    8.1404 C   0  0  0  0  0  0  0  0  0  0  0  0
   -2.0135   -6.9900    8.4338 F   0  0  0  0  0  0  0  0  0  0  0  0
    0.1907   -7.9014    8.5028 C   0  0  0  0  0  0  0  0  0  0  0  0
   -0.2727   -9.0044    9.1410 F   0  0  0  0  0  0  0  0  0  0  0  0
    1.5524   -7.7924    8.2035 C   0  0  0  0  0  0  0  0  0  0  0  0
    2.0428   -6.6561    7.5397 C   0  0  0  0  0  0  0  0  0  0  0  0
    3.4148   -6.5424    7.2338 C   0  0  0  0  0  0  0  0  0  0  0  0
    3.8765   -5.3907    6.5755 C   0  0  0  0  0  0  0  0  0  0  0  0
    5.2479   -5.0106    6.1246 C   0  0  0  0  0  0  0  0  0  0  0  0
    6.4251   -5.4930    6.6001 C   0  0  0  0  0  0  0  0  0  0  0  0
    6.4948   -6.5917    7.5263 C   0  0  0  0  0  0  0  0  0  0  0  0
    6.5663   -7.4770    8.2707 N   0  0  0  0  0  0  0  0  0  0  0  0
    7.6864   -4.8566    6.3206 C   0  0  0  0  0  0  0  0  0  0  0  0
    8.7042   -4.3484    6.1053 N   0  0  0  0  0  0  0  0  0  0  0  0
    5.5352   -2.2724    3.3865 C   0  0  0  0  0  0  0  0  0  0  0  0
    5.9520   -0.9314    3.4455 C   0  0  0  0  0  0  0  0  0  0  0  0
    6.8272   -0.3548    4.5222 C   0  0  0  0  0  0  0  0  0  0  0  0
    5.9952    0.0477    5.7352 C   0  0  0  0  0  0  0  0  0  0  0  0
    5.2972   -0.1727    2.4744 C   0  0  0  0  0  0  0  0  0  0  0  0
    5.1892    1.5065    2.1747 S   0  0  0  0  0  0  0  0  0  0  0  0
    3.9944    1.2363    0.9983 C   0  0  0  0  0  0  0  0  0  0  0  0
    3.1546    1.9385    0.1859 C   0  0  0  0  0  0  0  0  0  0  0  0
    3.0816    3.3049   -0.0846 C   0  0  0  0  0  0  0  0  0  0  0  0
    2.0948    3.7650   -0.9966 C   0  0  0  0  0  0  0  0  0  0  0  0
    2.0465    5.1008   -1.2266 N   0  0  0  0  0  0  0  0  0  0  0  0
    3.2930    5.5983   -0.2564 S   0  0  0  0  0  0  0  0  0  0  0  0
    3.9009    4.2364    0.4632 N   0  0  0  0  0  0  0  0  0  0  0  0
    1.2076    2.8372   -1.5531 C   0  0  0  0  0  0  0  0  0  0  0  0
    0.0402    3.0504   -2.2229 C   0  0  0  0  0  0  0  0  0  0  0  0
   -0.9307    4.3857   -2.6133 S   0  0  0  0  0  0  0  0  0  0  0  0
   -2.2718    3.3694   -2.8751 C   0  0  0  0  0  0  0  0  0  0  0  0
   -3.6198    3.6275   -3.1309 C   0  0  0  0  0  0  0  0  0  0  0  0
   -4.1945    5.0127   -3.2483 C   0  0  0  0  0  0  0  0  0  0  0  0
   -4.6660    5.5165   -1.8894 C   0  0  0  0  0  0  0  0  0  0  0  0
   -4.3738    2.4401   -3.0601 C   0  0  0  0  0  0  0  0  0  0  0  0
   -3.3680    1.1359   -2.6365 S   0  0  0  0  0  0  0  0  0  0  0  0
   -1.9678    2.0581   -2.6027 C   0  0  0  0  0  0  0  0  0  0  0  0
   -0.6358    1.8777   -2.2354 C   0  0  0  0  0  0  0  0  0  0  0  0
    0.0453    0.8723   -1.6242 N   0  0  0  0  0  0  0  0  0  0  0  0
    1.2326    1.4624   -1.2363 C   0  0  0  0  0  0  0  0  0  0  0  0
    2.3012    0.9860   -0.4100 C   0  0  0  0  0  0  0  0  0  0  0  0
    2.6969   -0.2870   -0.0529 N   0  0  0  0  0  0  0  0  0  0  0  0
    3.6948   -0.0684    0.8374 C   0  0  0  0  0  0  0  0  0  0  0  0
    4.4396   -0.8835    1.6725 C   0  0  0  0  0  0  0  0  0  0  0  0
    4.4010   -2.4929    2.1317 S   0  0  0  0  0  0  0  0  0  0  0  0
    2.4760   -1.5828   -0.7104 C   0  0  0  0  0  0  0  0  0  0  0  0
    2.6570   -1.4898   -2.2267 C   0  0  0  0  0  0  0  0  0  0  0  0
   -0.5685   -0.3867   -1.1854 C   0  0  0  0  0  0  0  0  0  0  0  0
   -0.7798   -0.4093    0.3267 C   0  0  0  0  0  0  0  0  0  0  0  0
   -5.8368    2.3361   -3.1335 C   0  0  0  0  0  0  0  0  0  0  0  0
   -6.5478    2.6474   -4.2317 C   0  0  0  0  0  0  0  0  0  0  0  0
   -5.9924    2.8506   -5.5754 C   0  0  0  0  0  0  0  0  0  0  0  0
   -4.7739    2.9840   -5.8648 O   0  0  0  0  0  0  0  0  0  0  0  0
   -7.0791    2.7801   -6.5361 C   0  0  0  0  0  0  0  0  0  0  0  0
   -7.0207    2.8202   -7.9361 C   0  0  0  0  0  0  0  0  0  0  0  0
   -5.5134    3.0829   -8.8007 Cl  0  0  0  0  0  0  0  0  0  0  0  0
   -8.2077    2.6312   -8.6580 C   0  0  0  0  0  0  0  0  0  0  0  0
   -9.4144    2.3825   -7.9851 C   0  0  0  0  0  0  0  0  0  0  0  0
   -9.4534    2.3358   -6.5837 C   0  0  0  0  0  0  0  0  0  0  0  0
   -8.2721    2.5667   -5.8595 C   0  0  0  0  0  0  0  0  0  0  0  0
   -8.0303    2.5722   -4.3887 C   0  0  0  0  0  0  0  0  0  0  0  0
   -8.9583    2.7328   -3.4083 C   0  0  0  0  0  0  0  0  0  0  0  0
   -8.5946    2.9874   -2.0379 C   0  0  0  0  0  0  0  0  0  0  0  0
   -8.3098    3.1967   -0.9352 N   0  0  0  0  0  0  0  0  0  0  0  0
  -10.3700    2.8033   -3.6766 C   0  0  0  0  0  0  0  0  0  0  0  0
  -11.5086    2.8649   -3.8742 N   0  0  0  0  0  0  0  0  0  0  0  0
    6.8911   -3.7538    4.2050 H   0  0  0  0  0  0  0  0  0  0  0  0
    0.9416   -3.7053    6.1638 H   0  0  0  0  0  0  0  0  0  0  0  0
   -0.9224   -4.9637    7.1991 H   0  0  0  0  0  0  0  0  0  0  0  0
    2.2223   -8.5934    8.4928 H   0  0  0  0  0  0  0  0  0  0  0  0
    4.0762   -7.3584    7.4750 H   0  0  0  0  0  0  0  0  0  0  0  0
    7.5889   -1.1047    4.8291 H   0  0  0  0  0  0  0  0  0  0  0  0
    7.3666    0.5358    4.1331 H   0  0  0  0  0  0  0  0  0  0  0  0
    5.4667   -0.8354    6.1511 H   0  0  0  0  0  0  0  0  0  0  0  0
    6.6582    0.4674    6.5194 H   0  0  0  0  0  0  0  0  0  0  0  0
    5.2484    0.8187    5.4503 H   0  0  0  0  0  0  0  0  0  0  0  0
   -5.0473    5.0194   -3.9574 H   0  0  0  0  0  0  0  0  0  0  0  0
   -3.4256    5.7074   -3.6506 H   0  0  0  0  0  0  0  0  0  0  0  0
   -3.8282    5.5058   -1.1618 H   0  0  0  0  0  0  0  0  0  0  0  0
   -5.0381    6.5565   -1.9864 H   0  0  0  0  0  0  0  0  0  0  0  0
   -5.4903    4.8785   -1.5092 H   0  0  0  0  0  0  0  0  0  0  0  0
    1.5175   -2.0302   -0.3954 H   0  0  0  0  0  0  0  0  0  0  0  0
    3.2347   -2.3152   -0.3662 H   0  0  0  0  0  0  0  0  0  0  0  0
    3.6886   -1.1473   -2.4606 H   0  0  0  0  0  0  0  0  0  0  0  0
    1.9390   -0.7833   -2.6877 H   0  0  0  0  0  0  0  0  0  0  0  0
    2.5015   -2.4922   -2.6788 H   0  0  0  0  0  0  0  0  0  0  0  0
   -0.0079   -1.2499   -1.5599 H   0  0  0  0  0  0  0  0  0  0  0  0
   -1.5535   -0.5269   -1.6615 H   0  0  0  0  0  0  0  0  0  0  0  0
   -1.2726   -1.3607    0.6197 H   0  0  0  0  0  0  0  0  0  0  0  0
    0.1840   -0.3323    0.8677 H   0  0  0  0  0  0  0  0  0  0  0  0
   -1.4307    0.4398    0.6260 H   0  0  0  0  0  0  0  0  0  0  0  0
   -6.3248    1.9066   -2.2730 H   0  0  0  0  0  0  0  0  0  0  0  0
   -8.1961    2.6605   -9.7404 H   0  0  0  0  0  0  0  0  0  0  0  0
  -10.3188    2.2081   -8.5537 H   0  0  0  0  0  0  0  0  0  0  0  0
  -10.3864    2.0902   -6.1051 H   0  0  0  0  0  0  0  0  0  0  0  0
  1  2  2  3
  2  3  1  0
  3  4  2  0
  3  5  1  0
  5  6  2  0
  6  7  1  0
  7  8  2  0
  8  9  1  0
  9 10  1  0
  9 11  2  0
 11 12  1  0
 11 13  1  0
 13 14  2  0
 14 15  1  0
 15 16  2  0
 16 17  1  0
 17 18  2  3
 18 19  1  0
 19 20  3  0
 18 21  1  0
 21 22  3  0
  1 23  1  0
 23 24  2  0
 24 25  1  0
 25 26  1  0
 24 27  1  0
 27 28  1  0
 28 29  1  0
 29 30  1  0
 30 31  1  0
 31 32  1  0
 32 33  2  0
 33 34  1  0
 34 35  1  0
 32 36  1  0
 36 37  1  0
 37 38  1  0
 38 39  1  0
 39 40  1  0
 40 41  1  0
 41 42  1  0
 40 43  2  0
 43 44  1  0
 44 45  1  0
 45 46  1  0
 46 47  1  0
 47 48  1  0
 48 49  1  0
 49 50  1  0
 50 51  1  0
 51 52  1  0
 52 53  1  0
 50 54  1  0
 54 55  1  0
 47 56  1  0
 56 57  1  0
 43 58  1  0
 58 59  2  3
 59 60  1  0
 60 61  2  0
 60 62  1  0
 62 63  2  0
 63 64  1  0
 63 65  1  0
 65 66  2  0
 66 67  1  0
 67 68  2  0
 68 69  1  0
 69 70  2  3
 70 71  1  0
 71 72  3  0
 70 73  1  0
 73 74  3  0
 17  2  1  0
 53 23  1  0
 69 59  1  0
 16  5  1  0
 52 27  2  0
 68 62  1  0
 14  7  1  0
 51 29  2  0
 49 30  2  0
 35 31  2  0
 48 36  2  0
 46 37  2  0
 45 39  2  0
  1 75  1  0
  6 76  1  0
  8 77  1  0
 13 78  1  0
 15 79  1  0
 25 80  1  0
 25 81  1  0
 26 82  1  0
 26 83  1  0
 26 84  1  0
 41 85  1  0
 41 86  1  0
 42 87  1  0
 42 88  1  0
 42 89  1  0
 54 90  1  0
 54 91  1  0
 55 92  1  0
 55 93  1  0
 55 94  1  0
 56 95  1  0
 56 96  1  0
 57 97  1  0
 57 98  1  0
 57 99  1  0
 58100  1  0
 65101  1  0
 66102  1  0
 67103  1  0
M  END

