
     RDKit          3D

106118  0  0  0  0  0  0  0  0999 V2000
   -2.6659    5.6514   -4.9123 C   0  0  0  0  0  0  0  0  0  0  0  0
   -2.7104    4.7938   -5.9516 C   0  0  0  0  0  0  0  0  0  0  0  0
   -2.7293    3.3304   -5.8738 C   0  0  0  0  0  0  0  0  0  0  0  0
   -3.2227    2.6400   -4.9419 O   0  0  0  0  0  0  0  0  0  0  0  0
   -2.2134    2.8012   -7.1183 C   0  0  0  0  0  0  0  0  0  0  0  0
   -1.9138    1.4755   -7.4279 C   0  0  0  0  0  0  0  0  0  0  0  0
   -1.3145    1.1950   -8.6679 C   0  0  0  0  0  0  0  0  0  0  0  0
   -0.9770   -0.1218   -9.0137 C   0  0  0  0  0  0  0  0  0  0  0  0
   -0.3470   -0.3906  -10.2307 C   0  0  0  0  0  0  0  0  0  0  0  0
   -0.0225   -1.6665  -10.5578 F   0  0  0  0  0  0  0  0  0  0  0  0
   -0.0511    0.6526  -11.1160 C   0  0  0  0  0  0  0  0  0  0  0  0
    0.5788    0.3880  -12.2886 F   0  0  0  0  0  0  0  0  0  0  0  0
   -0.3804    1.9730  -10.7857 C   0  0  0  0  0  0  0  0  0  0  0  0
   -1.0145    2.2593   -9.5665 C   0  0  0  0  0  0  0  0  0  0  0  0
   -1.3408    3.5876   -9.2256 C   0  0  0  0  0  0  0  0  0  0  0  0
   -1.9724    3.8425   -7.9962 C   0  0  0  0  0  0  0  0  0  0  0  0
   -2.4133    5.1261   -7.3761 C   0  0  0  0  0  0  0  0  0  0  0  0
   -2.7068    6.2817   -8.0217 C   0  0  0  0  0  0  0  0  0  0  0  0
   -2.4434    6.4721   -9.4254 C   0  0  0  0  0  0  0  0  0  0  0  0
   -2.2301    6.6427  -10.5518 N   0  0  0  0  0  0  0  0  0  0  0  0
   -3.4133    7.3630   -7.3770 C   0  0  0  0  0  0  0  0  0  0  0  0
   -3.9827    8.2351   -6.8681 N   0  0  0  0  0  0  0  0  0  0  0  0
   -2.4960    5.2570   -3.4952 C   0  0  0  0  0  0  0  0  0  0  0  0
   -2.9016    6.0268   -2.3822 C   0  0  0  0  0  0  0  0  0  0  0  0
   -3.7298    7.2805   -2.4524 C   0  0  0  0  0  0  0  0  0  0  0  0
   -2.8456    8.5191   -2.5095 C   0  0  0  0  0  0  0  0  0  0  0  0
   -2.3847    5.5020   -1.1933 C   0  0  0  0  0  0  0  0  0  0  0  0
   -2.5053    5.9283    0.4586 S   0  0  0  0  0  0  0  0  0  0  0  0
   -1.4931    4.6306    0.9012 C   0  0  0  0  0  0  0  0  0  0  0  0
   -1.1459    3.9172    2.0171 C   0  0  0  0  0  0  0  0  0  0  0  0
   -1.4551    4.0856    3.3724 C   0  0  0  0  0  0  0  0  0  0  0  0
   -1.0609    3.0688    4.2976 C   0  0  0  0  0  0  0  0  0  0  0  0
   -1.3677    3.2732    5.6016 N   0  0  0  0  0  0  0  0  0  0  0  0
   -2.1460    4.7328    5.4791 S   0  0  0  0  0  0  0  0  0  0  0  0
   -2.1216    5.1534    3.8765 N   0  0  0  0  0  0  0  0  0  0  0  0
   -0.3594    1.9543    3.8163 C   0  0  0  0  0  0  0  0  0  0  0  0
    0.3044    0.9483    4.4638 C   0  0  0  0  0  0  0  0  0  0  0  0
    0.7130    0.4963    6.0519 S   0  0  0  0  0  0  0  0  0  0  0  0
    1.8366   -0.6477    5.4614 C   0  0  0  0  0  0  0  0  0  0  0  0
    2.6970   -1.5632    6.0707 C   0  0  0  0  0  0  0  0  0  0  0  0
    2.8675   -1.7162    7.5579 C   0  0  0  0  0  0  0  0  0  0  0  0
    4.0276   -0.8627    8.0613 C   0  0  0  0  0  0  0  0  0  0  0  0
    3.4246   -2.2815    5.1038 C   0  0  0  0  0  0  0  0  0  0  0  0
    3.0345   -1.7256    3.5401 S   0  0  0  0  0  0  0  0  0  0  0  0
    1.9053   -0.6216    4.0932 C   0  0  0  0  0  0  0  0  0  0  0  0
    1.0269    0.2848    3.5263 C   0  0  0  0  0  0  0  0  0  0  0  0
    0.8909    0.8012    2.2788 N   0  0  0  0  0  0  0  0  0  0  0  0
   -0.0297    1.8043    2.4587 C   0  0  0  0  0  0  0  0  0  0  0  0
   -0.5051    2.7627    1.5360 C   0  0  0  0  0  0  0  0  0  0  0  0
   -0.5663    2.6940    0.1706 N   0  0  0  0  0  0  0  0  0  0  0  0
   -1.1054    3.8910   -0.1676 C   0  0  0  0  0  0  0  0  0  0  0  0
   -1.6171    4.3808   -1.3530 C   0  0  0  0  0  0  0  0  0  0  0  0
   -1.4880    3.9796   -2.9647 S   0  0  0  0  0  0  0  0  0  0  0  0
   -0.7551    1.4783   -0.6330 C   0  0  0  0  0  0  0  0  0  0  0  0
   -2.2191    1.0387   -0.6285 C   0  0  0  0  0  0  0  0  0  0  0  0
    1.9445    0.7392    1.2513 C   0  0  0  0  0  0  0  0  0  0  0  0
    1.9982   -0.6324    0.5695 C   0  0  0  0  0  0  0  0  0  0  0  0
    4.4080   -3.3407    5.3747 C   0  0  0  0  0  0  0  0  0  0  0  0
    4.2326   -4.6132    4.9705 C   0  0  0  0  0  0  0  0  0  0  0  0
    3.0692   -5.1192    4.2310 C   0  0  0  0  0  0  0  0  0  0  0  0
    1.9412   -4.5629    4.1275 O   0  0  0  0  0  0  0  0  0  0  0  0
    3.4122   -6.3986    3.6560 C   0  0  0  0  0  0  0  0  0  0  0  0
    2.6607   -7.1693    2.7703 C   0  0  0  0  0  0  0  0  0  0  0  0
    3.2217   -8.3546    2.2598 C   0  0  0  0  0  0  0  0  0  0  0  0
    2.4492   -9.1691    1.2617 C   0  0  0  0  0  0  0  0  0  0  0  0
    4.5398   -8.7121    2.6182 C   0  0  0  0  0  0  0  0  0  0  0  0
    5.1198   -9.8220    2.0905 F   0  0  0  0  0  0  0  0  0  0  0  0
    5.2777   -7.9125    3.5097 C   0  0  0  0  0  0  0  0  0  0  0  0
    4.6890   -6.7553    4.0473 C   0  0  0  0  0  0  0  0  0  0  0  0
    5.2361   -5.7251    4.9801 C   0  0  0  0  0  0  0  0  0  0  0  0
    6.3135   -5.8550    5.8019 C   0  0  0  0  0  0  0  0  0  0  0  0
    6.6230   -4.9000    6.8371 C   0  0  0  0  0  0  0  0  0  0  0  0
    6.8863   -4.1394    7.6708 N   0  0  0  0  0  0  0  0  0  0  0  0
    7.1659   -7.0129    5.7882 C   0  0  0  0  0  0  0  0  0  0  0  0
    7.8673   -7.9356    5.7881 N   0  0  0  0  0  0  0  0  0  0  0  0
   -2.5936    6.7112   -5.0993 H   0  0  0  0  0  0  0  0  0  0  0  0
   -2.1246    0.6880   -6.7111 H   0  0  0  0  0  0  0  0  0  0  0  0
   -1.1956   -0.9403   -8.3401 H   0  0  0  0  0  0  0  0  0  0  0  0
   -0.1279    2.7685  -11.4774 H   0  0  0  0  0  0  0  0  0  0  0  0
   -1.0613    4.3921   -9.8873 H   0  0  0  0  0  0  0  0  0  0  0  0
   -4.3858    7.2515   -3.3461 H   0  0  0  0  0  0  0  0  0  0  0  0
   -4.3828    7.3447   -1.5544 H   0  0  0  0  0  0  0  0  0  0  0  0
   -3.4867    9.4236   -2.5753 H   0  0  0  0  0  0  0  0  0  0  0  0
   -2.1881    8.4860   -3.4031 H   0  0  0  0  0  0  0  0  0  0  0  0
   -2.2158    8.5889   -1.5948 H   0  0  0  0  0  0  0  0  0  0  0  0
    3.0609   -2.7836    7.8030 H   0  0  0  0  0  0  0  0  0  0  0  0
    1.9356   -1.4105    8.0803 H   0  0  0  0  0  0  0  0  0  0  0  0
    4.9497   -1.0643    7.4777 H   0  0  0  0  0  0  0  0  0  0  0  0
    4.2285   -1.0989    9.1258 H   0  0  0  0  0  0  0  0  0  0  0  0
    3.7755    0.2153    7.9775 H   0  0  0  0  0  0  0  0  0  0  0  0
   -0.4262    1.6642   -1.6747 H   0  0  0  0  0  0  0  0  0  0  0  0
   -0.1661    0.6411   -0.2423 H   0  0  0  0  0  0  0  0  0  0  0  0
   -2.3877    0.3177   -1.4540 H   0  0  0  0  0  0  0  0  0  0  0  0
   -2.4674    0.5481    0.3346 H   0  0  0  0  0  0  0  0  0  0  0  0
   -2.9020    1.9023   -0.7675 H   0  0  0  0  0  0  0  0  0  0  0  0
    1.8057    1.5329    0.4905 H   0  0  0  0  0  0  0  0  0  0  0  0
    2.9284    0.9531    1.7258 H   0  0  0  0  0  0  0  0  0  0  0  0
    1.2476   -1.3360    0.9964 H   0  0  0  0  0  0  0  0  0  0  0  0
    1.8106   -0.5281   -0.5184 H   0  0  0  0  0  0  0  0  0  0  0  0
    3.0085   -1.0809    0.6909 H   0  0  0  0  0  0  0  0  0  0  0  0
    5.3195   -3.0222    5.8473 H   0  0  0  0  0  0  0  0  0  0  0  0
    1.6698   -6.8502    2.4730 H   0  0  0  0  0  0  0  0  0  0  0  0
    2.5739   -8.7324    0.2464 H   0  0  0  0  0  0  0  0  0  0  0  0
    2.8010  -10.2233    1.2498 H   0  0  0  0  0  0  0  0  0  0  0  0
    1.3689   -9.1743    1.5229 H   0  0  0  0  0  0  0  0  0  0  0  0
    6.2943   -8.1964    3.7270 H   0  0  0  0  0  0  0  0  0  0  0  0
  1  2  2  3
  2  3  1  0
  3  4  2  0
  3  5  1  0
  5  6  2  0
  6  7  1  0
  7  8  2  0
  8  9  1  0
  9 10  1  0
  9 11  2  0
 11 12  1  0
 11 13  1  0
 13 14  2  0
 14 15  1  0
 15 16  2  0
 16 17  1  0
 17 18  2  3
 18 19  1  0
 19 20  3  0
 18 21  1  0
 21 22  3  0
  1 23  1  0
 23 24  2  0
 24 25  1  0
 25 26  1  0
 24 27  1  0
 27 28  1  0
 28 29  1  0
 29 30  1  0
 30 31  1  0
 31 32  1  0
 32 33  2  0
 33 34  1  0
 34 35  1  0
 32 36  1  0
 36 37  1  0
 37 38  1  0
 38 39  1  0
 39 40  1  0
 40 41  1  0
 41 42  1  0
 40 43  2  0
 43 44  1  0
 44 45  1  0
 45 46  1  0
 46 47  1  0
 47 48  1  0
 48 49  1  0
 49 50  1  0
 50 51  1  0
 51 52  1  0
 52 53  1  0
 50 54  1  0
 54 55  1  0
 47 56  1  0
 56 57  1  0
 43 58  1  0
 58 59  2  3
 59 60  1  0
 60 61  2  0
 60 62  1  0
 62 63  2  0
 63 64  1  0
 64 65  1  0
 64 66  2  0
 66 67  1  0
 66 68  1  0
 68 69  2  0
 69 70  1  0
 70 71  2  3
 71 72  1  0
 72 73  3  0
 71 74  1  0
 74 75  3  0
 17  2  1  0
 53 23  1  0
 70 59  1  0
 16  5  1  0
 52 27  2  0
 69 62  1  0
 14  7  1  0
 51 29  2  0
 49 30  2  0
 35 31  2  0
 48 36  2  0
 46 37  2  0
 45 39  2  0
  1 76  1  0
  6 77  1  0
  8 78  1  0
 13 79  1  0
 15 80  1  0
 25 81  1  0
 25 82  1  0
 26 83  1  0
 26 84  1  0
 26 85  1  0
 41 86  1  0
 41 87  1  0
 42 88  1  0
 42 89  1  0
 42 90  1  0
 54 91  1  0
 54 92  1  0
 55 93  1  0
 55 94  1  0
 55 95  1  0
 56 96  1  0
 56 97  1  0
 57 98  1  0
 57 99  1  0
 57100  1  0
 58101  1  0
 63102  1  0
 65103  1  0
 65104  1  0
 65105  1  0
 68106  1  0
M  END

