
     RDKit          3D

100112  0  0  0  0  0  0  0  0999 V2000
   -5.3413    0.7139    3.6103 C   0  0  0  0  0  0  0  0  0  0  0  0
   -5.5358    1.5356    2.5518 C   0  0  0  0  0  0  0  0  0  0  0  0
   -4.4623    2.0952    1.7241 C   0  0  0  0  0  0  0  0  0  0  0  0
   -3.2672    2.2815    2.0841 O   0  0  0  0  0  0  0  0  0  0  0  0
   -5.0131    2.4633    0.4408 C   0  0  0  0  0  0  0  0  0  0  0  0
   -4.3245    2.8755   -0.6976 C   0  0  0  0  0  0  0  0  0  0  0  0
   -5.0432    3.0459   -1.8906 C   0  0  0  0  0  0  0  0  0  0  0  0
   -4.3882    3.4412   -3.0663 C   0  0  0  0  0  0  0  0  0  0  0  0
   -5.1048    3.5782   -4.2602 C   0  0  0  0  0  0  0  0  0  0  0  0
   -4.4596    3.9573   -5.3935 F   0  0  0  0  0  0  0  0  0  0  0  0
   -6.4769    3.3134   -4.2938 C   0  0  0  0  0  0  0  0  0  0  0  0
   -7.1634    3.4277   -5.4621 F   0  0  0  0  0  0  0  0  0  0  0  0
   -7.1465    2.9185   -3.1312 C   0  0  0  0  0  0  0  0  0  0  0  0
   -6.4440    2.7879   -1.9188 C   0  0  0  0  0  0  0  0  0  0  0  0
   -7.1107    2.3786   -0.7469 C   0  0  0  0  0  0  0  0  0  0  0  0
   -6.3804    2.2440    0.4462 C   0  0  0  0  0  0  0  0  0  0  0  0
   -6.8112    1.7754    1.7993 C   0  0  0  0  0  0  0  0  0  0  0  0
   -8.0835    1.7083    2.2768 C   0  0  0  0  0  0  0  0  0  0  0  0
   -8.3709    1.4152    3.6553 C   0  0  0  0  0  0  0  0  0  0  0  0
   -8.6121    1.1900    4.7653 N   0  0  0  0  0  0  0  0  0  0  0  0
   -9.2327    2.0529    1.4795 C   0  0  0  0  0  0  0  0  0  0  0  0
  -10.1681    2.3299    0.8543 N   0  0  0  0  0  0  0  0  0  0  0  0
   -4.0436    0.0614    3.8623 C   0  0  0  0  0  0  0  0  0  0  0  0
   -3.3888   -0.0924    5.0942 C   0  0  0  0  0  0  0  0  0  0  0  0
   -3.9233    0.3684    6.4203 C   0  0  0  0  0  0  0  0  0  0  0  0
   -4.6921   -0.7566    7.0932 C   0  0  0  0  0  0  0  0  0  0  0  0
   -2.1919   -0.8002    4.9327 C   0  0  0  0  0  0  0  0  0  0  0  0
   -0.8106   -0.9799    5.9088 S   0  0  0  0  0  0  0  0  0  0  0  0
    0.0501   -1.7222    4.6383 C   0  0  0  0  0  0  0  0  0  0  0  0
    1.3684   -1.7657    4.2627 C   0  0  0  0  0  0  0  0  0  0  0  0
    2.4954   -1.2432    4.9183 C   0  0  0  0  0  0  0  0  0  0  0  0
    3.6763   -0.9824    4.1569 C   0  0  0  0  0  0  0  0  0  0  0  0
    4.7241   -0.4273    4.8136 N   0  0  0  0  0  0  0  0  0  0  0  0
    4.0627   -0.2793    6.3267 S   0  0  0  0  0  0  0  0  0  0  0  0
    2.5194   -0.8745    6.2251 N   0  0  0  0  0  0  0  0  0  0  0  0
    3.6961   -1.3405    2.8062 C   0  0  0  0  0  0  0  0  0  0  0  0
    4.6317   -1.1664    1.8203 C   0  0  0  0  0  0  0  0  0  0  0  0
    5.8573   -0.0349    1.5008 S   0  0  0  0  0  0  0  0  0  0  0  0
    5.7309   -0.3292   -0.1826 C   0  0  0  0  0  0  0  0  0  0  0  0
    6.1404    0.4117   -1.2956 C   0  0  0  0  0  0  0  0  0  0  0  0
    6.9821    1.6540   -1.2006 C   0  0  0  0  0  0  0  0  0  0  0  0
    6.1156    2.9116   -1.1013 C   0  0  0  0  0  0  0  0  0  0  0  0
    5.4918   -0.0314   -2.4645 C   0  0  0  0  0  0  0  0  0  0  0  0
    4.3683   -1.2538   -2.0785 S   0  0  0  0  0  0  0  0  0  0  0  0
    4.7680   -1.2690   -0.4536 C   0  0  0  0  0  0  0  0  0  0  0  0
    4.1157   -1.7086    0.6866 C   0  0  0  0  0  0  0  0  0  0  0  0
    2.8734   -2.2097    0.8653 N   0  0  0  0  0  0  0  0  0  0  0  0
    2.5916   -1.9206    2.1722 C   0  0  0  0  0  0  0  0  0  0  0  0
    1.3631   -2.0056    2.8761 C   0  0  0  0  0  0  0  0  0  0  0  0
    0.0820   -1.9592    2.3780 N   0  0  0  0  0  0  0  0  0  0  0  0
   -0.6859   -1.7985    3.4872 C   0  0  0  0  0  0  0  0  0  0  0  0
   -1.9482   -1.2448    3.6574 C   0  0  0  0  0  0  0  0  0  0  0  0
   -3.1714   -0.7329    2.6405 S   0  0  0  0  0  0  0  0  0  0  0  0
   -0.3438   -1.5465    1.0320 C   0  0  0  0  0  0  0  0  0  0  0  0
   -1.2875   -2.5786    0.3981 C   0  0  0  0  0  0  0  0  0  0  0  0
    2.2583   -3.2389    0.0212 C   0  0  0  0  0  0  0  0  0  0  0  0
    3.1878   -4.4339   -0.1662 C   0  0  0  0  0  0  0  0  0  0  0  0
    5.4060    0.7078   -3.7288 C   0  0  0  0  0  0  0  0  0  0  0  0
    5.5500    0.1380   -4.9329 C   0  0  0  0  0  0  0  0  0  0  0  0
    4.7147    0.5585   -6.0677 C   0  0  0  0  0  0  0  0  0  0  0  0
    4.0319    1.6116   -6.1407 O   0  0  0  0  0  0  0  0  0  0  0  0
    4.6220   -0.5597   -6.9792 C   0  0  0  0  0  0  0  0  0  0  0  0
    5.4019   -1.6011   -6.5327 C   0  0  0  0  0  0  0  0  0  0  0  0
    5.5041   -2.6580   -7.4296 C   0  0  0  0  0  0  0  0  0  0  0  0
    4.5240   -2.2472   -8.7574 S   0  0  0  0  0  0  0  0  0  0  0  0
    3.9997   -0.7482   -8.1996 C   0  0  0  0  0  0  0  0  0  0  0  0
    2.9397    0.3825   -9.0467 Cl  0  0  0  0  0  0  0  0  0  0  0  0
    6.0454   -1.2445   -5.2517 C   0  0  0  0  0  0  0  0  0  0  0  0
    7.0239   -1.9479   -4.6388 C   0  0  0  0  0  0  0  0  0  0  0  0
    7.8935   -1.3615   -3.6505 C   0  0  0  0  0  0  0  0  0  0  0  0
    8.6192   -0.9142   -2.8631 N   0  0  0  0  0  0  0  0  0  0  0  0
    7.2721   -3.3350   -4.9594 C   0  0  0  0  0  0  0  0  0  0  0  0
    7.4560   -4.4527   -5.2100 N   0  0  0  0  0  0  0  0  0  0  0  0
   -6.1644    0.3428    4.1843 H   0  0  0  0  0  0  0  0  0  0  0  0
   -3.2532    3.0221   -0.6605 H   0  0  0  0  0  0  0  0  0  0  0  0
   -3.3253    3.6362   -3.0655 H   0  0  0  0  0  0  0  0  0  0  0  0
   -8.2111    2.7218   -3.1829 H   0  0  0  0  0  0  0  0  0  0  0  0
   -8.1567    2.1343   -0.8037 H   0  0  0  0  0  0  0  0  0  0  0  0
   -4.5884    1.2462    6.2869 H   0  0  0  0  0  0  0  0  0  0  0  0
   -3.0837    0.6785    7.0733 H   0  0  0  0  0  0  0  0  0  0  0  0
   -5.5542   -1.0601    6.4644 H   0  0  0  0  0  0  0  0  0  0  0  0
   -5.0633   -0.4326    8.0825 H   0  0  0  0  0  0  0  0  0  0  0  0
   -4.0392   -1.6435    7.2430 H   0  0  0  0  0  0  0  0  0  0  0  0
    7.6391    1.5799   -0.3067 H   0  0  0  0  0  0  0  0  0  0  0  0
    7.6480    1.7187   -2.0896 H   0  0  0  0  0  0  0  0  0  0  0  0
    5.1111    2.6809   -0.6780 H   0  0  0  0  0  0  0  0  0  0  0  0
    6.0157    3.3872   -2.1104 H   0  0  0  0  0  0  0  0  0  0  0  0
    6.6167    3.6515   -0.4347 H   0  0  0  0  0  0  0  0  0  0  0  0
   -0.8428   -0.5599    1.0835 H   0  0  0  0  0  0  0  0  0  0  0  0
    0.5181   -1.3714    0.3668 H   0  0  0  0  0  0  0  0  0  0  0  0
   -0.8281   -3.5841    0.3507 H   0  0  0  0  0  0  0  0  0  0  0  0
   -2.2275   -2.6762    0.9726 H   0  0  0  0  0  0  0  0  0  0  0  0
   -1.5321   -2.2613   -0.6345 H   0  0  0  0  0  0  0  0  0  0  0  0
    1.3483   -3.6244    0.5072 H   0  0  0  0  0  0  0  0  0  0  0  0
    1.9813   -2.8084   -0.9648 H   0  0  0  0  0  0  0  0  0  0  0  0
    4.0807   -4.1577   -0.7674 H   0  0  0  0  0  0  0  0  0  0  0  0
    2.6440   -5.2385   -0.7010 H   0  0  0  0  0  0  0  0  0  0  0  0
    3.5089   -4.8308    0.8228 H   0  0  0  0  0  0  0  0  0  0  0  0
    4.9393    1.6825   -3.6675 H   0  0  0  0  0  0  0  0  0  0  0  0
    6.1473   -3.5177   -7.3615 H   0  0  0  0  0  0  0  0  0  0  0  0
  1  2  2  3
  2  3  1  0
  3  4  2  0
  3  5  1  0
  5  6  2  0
  6  7  1  0
  7  8  2  0
  8  9  1  0
  9 10  1  0
  9 11  2  0
 11 12  1  0
 11 13  1  0
 13 14  2  0
 14 15  1  0
 15 16  2  0
 16 17  1  0
 17 18  2  3
 18 19  1  0
 19 20  3  0
 18 21  1  0
 21 22  3  0
  1 23  1  0
 23 24  2  0
 24 25  1  0
 25 26  1  0
 24 27  1  0
 27 28  1  0
 28 29  1  0
 29 30  1  0
 30 31  1  0
 31 32  1  0
 32 33  2  0
 33 34  1  0
 34 35  1  0
 32 36  1  0
 36 37  1  0
 37 38  1  0
 38 39  1  0
 39 40  1  0
 40 41  1  0
 41 42  1  0
 40 43  2  0
 43 44  1  0
 44 45  1  0
 45 46  1  0
 46 47  1  0
 47 48  1  0
 48 49  1  0
 49 50  1  0
 50 51  1  0
 51 52  1  0
 52 53  1  0
 50 54  1  0
 54 55  1  0
 47 56  1  0
 56 57  1  0
 43 58  1  0
 58 59  2  3
 59 60  1  0
 60 61  2  0
 60 62  1  0
 62 63  1  0
 63 64  2  0
 64 65  1  0
 65 66  1  0
 66 67  1  0
 63 68  1  0
 68 69  2  3
 69 70  1  0
 70 71  3  0
 69 72  1  0
 72 73  3  0
 17  2  1  0
 53 23  1  0
 68 59  1  0
 16  5  1  0
 52 27  2  0
 66 62  2  0
 14  7  1  0
 51 29  2  0
 49 30  2  0
 35 31  2  0
 48 36  2  0
 46 37  2  0
 45 39  2  0
  1 74  1  0
  6 75  1  0
  8 76  1  0
 13 77  1  0
 15 78  1  0
 25 79  1  0
 25 80  1  0
 26 81  1  0
 26 82  1  0
 26 83  1  0
 41 84  1  0
 41 85  1  0
 42 86  1  0
 42 87  1  0
 42 88  1  0
 54 89  1  0
 54 90  1  0
 55 91  1  0
 55 92  1  0
 55 93  1  0
 56 94  1  0
 56 95  1  0
 57 96  1  0
 57 97  1  0
 57 98  1  0
 58 99  1  0
 64100  1  0
M  END

