
     RDKit          3D

103115  0  0  0  0  0  0  0  0999 V2000
   -3.7139   -5.5106    0.8832 C   0  0  0  0  0  0  0  0  0  0  0  0
   -4.6835   -4.5807    0.7784 C   0  0  0  0  0  0  0  0  0  0  0  0
   -4.6096   -3.3656   -0.0431 C   0  0  0  0  0  0  0  0  0  0  0  0
   -3.5768   -2.8846   -0.5798 O   0  0  0  0  0  0  0  0  0  0  0  0
   -5.9400   -2.8153   -0.1686 C   0  0  0  0  0  0  0  0  0  0  0  0
   -6.3414   -1.7160   -0.9231 C   0  0  0  0  0  0  0  0  0  0  0  0
   -7.7022   -1.3710   -0.9407 C   0  0  0  0  0  0  0  0  0  0  0  0
   -8.1505   -0.2591   -1.6715 C   0  0  0  0  0  0  0  0  0  0  0  0
   -9.5110    0.0668   -1.6918 C   0  0  0  0  0  0  0  0  0  0  0  0
   -9.9334    1.1474   -2.3959 F   0  0  0  0  0  0  0  0  0  0  0  0
  -10.4333   -0.7204   -0.9956 C   0  0  0  0  0  0  0  0  0  0  0  0
  -11.7524   -0.3972   -1.0199 F   0  0  0  0  0  0  0  0  0  0  0  0
  -10.0013   -1.8362   -0.2704 C   0  0  0  0  0  0  0  0  0  0  0  0
   -8.6391   -2.1701   -0.2268 C   0  0  0  0  0  0  0  0  0  0  0  0
   -8.2045   -3.2889    0.5122 C   0  0  0  0  0  0  0  0  0  0  0  0
   -6.8317   -3.5888    0.5563 C   0  0  0  0  0  0  0  0  0  0  0  0
   -6.0920   -4.6734    1.2745 C   0  0  0  0  0  0  0  0  0  0  0  0
   -6.5416   -5.4219    2.3158 C   0  0  0  0  0  0  0  0  0  0  0  0
   -5.6663   -6.2386    3.1201 C   0  0  0  0  0  0  0  0  0  0  0  0
   -4.9774   -6.8960    3.7788 N   0  0  0  0  0  0  0  0  0  0  0  0
   -7.9004   -5.3654    2.7832 C   0  0  0  0  0  0  0  0  0  0  0  0
   -8.9933   -5.3320    3.1684 N   0  0  0  0  0  0  0  0  0  0  0  0
   -2.3853   -5.3392    0.2826 C   0  0  0  0  0  0  0  0  0  0  0  0
   -2.0449   -5.6266   -1.0518 C   0  0  0  0  0  0  0  0  0  0  0  0
   -2.9779   -6.2206   -2.0696 C   0  0  0  0  0  0  0  0  0  0  0  0
   -2.9897   -7.7423   -1.9742 C   0  0  0  0  0  0  0  0  0  0  0  0
   -0.7327   -5.2329   -1.3220 C   0  0  0  0  0  0  0  0  0  0  0  0
    0.1208   -5.0288   -2.7749 S   0  0  0  0  0  0  0  0  0  0  0  0
    1.3967   -4.2403   -1.9709 C   0  0  0  0  0  0  0  0  0  0  0  0
    2.2405   -3.2294   -2.3429 C   0  0  0  0  0  0  0  0  0  0  0  0
    2.3746   -2.6317   -3.6076 C   0  0  0  0  0  0  0  0  0  0  0  0
    2.8949   -1.3073   -3.6920 C   0  0  0  0  0  0  0  0  0  0  0  0
    2.9318   -0.7317   -4.9213 N   0  0  0  0  0  0  0  0  0  0  0  0
    2.2863   -1.9629   -5.8200 S   0  0  0  0  0  0  0  0  0  0  0  0
    1.9477   -3.1944   -4.7643 N   0  0  0  0  0  0  0  0  0  0  0  0
    3.3221   -0.6828   -2.5195 C   0  0  0  0  0  0  0  0  0  0  0  0
    3.7680    0.5846   -2.2713 C   0  0  0  0  0  0  0  0  0  0  0  0
    3.7234    2.1114   -3.0179 S   0  0  0  0  0  0  0  0  0  0  0  0
    4.0883    2.8704   -1.5293 C   0  0  0  0  0  0  0  0  0  0  0  0
    3.9934    4.1974   -1.0978 C   0  0  0  0  0  0  0  0  0  0  0  0
    3.6307    5.3520   -1.9872 C   0  0  0  0  0  0  0  0  0  0  0  0
    2.1320    5.3727   -2.2705 C   0  0  0  0  0  0  0  0  0  0  0  0
    4.0967    4.2712    0.3045 C   0  0  0  0  0  0  0  0  0  0  0  0
    4.2445    2.7119    0.9748 S   0  0  0  0  0  0  0  0  0  0  0  0
    4.2269    1.9521   -0.5160 C   0  0  0  0  0  0  0  0  0  0  0  0
    4.0229    0.6567   -0.9453 C   0  0  0  0  0  0  0  0  0  0  0  0
    3.7619   -0.4953   -0.2853 N   0  0  0  0  0  0  0  0  0  0  0  0
    3.2622   -1.3103   -1.2647 C   0  0  0  0  0  0  0  0  0  0  0  0
    2.5874   -2.5564   -1.1550 C   0  0  0  0  0  0  0  0  0  0  0  0
    1.8740   -3.0640   -0.0936 N   0  0  0  0  0  0  0  0  0  0  0  0
    1.1596   -4.0874   -0.6358 C   0  0  0  0  0  0  0  0  0  0  0  0
   -0.0648   -4.6521   -0.2702 C   0  0  0  0  0  0  0  0  0  0  0  0
   -1.0818   -4.5737    1.0655 S   0  0  0  0  0  0  0  0  0  0  0  0
    1.5337   -2.4133    1.1802 C   0  0  0  0  0  0  0  0  0  0  0  0
    1.9754   -3.2716    2.3611 C   0  0  0  0  0  0  0  0  0  0  0  0
    4.4943   -0.9185    0.9148 C   0  0  0  0  0  0  0  0  0  0  0  0
    5.9965   -0.9813    0.6424 C   0  0  0  0  0  0  0  0  0  0  0  0
    3.8313    5.4616    1.1178 C   0  0  0  0  0  0  0  0  0  0  0  0
    4.7967    6.1416    1.7546 C   0  0  0  0  0  0  0  0  0  0  0  0
    6.2385    5.9838    1.5276 C   0  0  0  0  0  0  0  0  0  0  0  0
    6.8007    5.0570    0.8791 O   0  0  0  0  0  0  0  0  0  0  0  0
    6.9070    7.1537    2.0616 C   0  0  0  0  0  0  0  0  0  0  0  0
    8.2556    7.4960    1.9579 C   0  0  0  0  0  0  0  0  0  0  0  0
    8.6703    8.7330    2.4710 C   0  0  0  0  0  0  0  0  0  0  0  0
   10.3586    9.1971    2.3560 Cl  0  0  0  0  0  0  0  0  0  0  0  0
    7.7332    9.6094    3.0468 C   0  0  0  0  0  0  0  0  0  0  0  0
    8.1303   10.8182    3.5080 F   0  0  0  0  0  0  0  0  0  0  0  0
    6.3796    9.2497    3.1281 C   0  0  0  0  0  0  0  0  0  0  0  0
    5.9764    7.9960    2.6475 C   0  0  0  0  0  0  0  0  0  0  0  0
    4.6260    7.3689    2.5889 C   0  0  0  0  0  0  0  0  0  0  0  0
    3.5410    7.6908    3.3423 C   0  0  0  0  0  0  0  0  0  0  0  0
    2.3771    6.8387    3.4194 C   0  0  0  0  0  0  0  0  0  0  0  0
    1.4466    6.1536    3.4924 N   0  0  0  0  0  0  0  0  0  0  0  0
    3.5244    8.8217    4.2307 C   0  0  0  0  0  0  0  0  0  0  0  0
    3.4914    9.7293    4.9480 N   0  0  0  0  0  0  0  0  0  0  0  0
   -3.8964   -6.4581    1.3619 H   0  0  0  0  0  0  0  0  0  0  0  0
   -5.6057   -1.1474   -1.4760 H   0  0  0  0  0  0  0  0  0  0  0  0
   -7.4502    0.3605   -2.2233 H   0  0  0  0  0  0  0  0  0  0  0  0
  -10.7287   -2.4280    0.2679 H   0  0  0  0  0  0  0  0  0  0  0  0
   -8.9410   -3.8948    1.0123 H   0  0  0  0  0  0  0  0  0  0  0  0
   -2.6664   -5.9193   -3.0944 H   0  0  0  0  0  0  0  0  0  0  0  0
   -4.0078   -5.8363   -1.9075 H   0  0  0  0  0  0  0  0  0  0  0  0
   -1.9637   -8.1458   -2.1037 H   0  0  0  0  0  0  0  0  0  0  0  0
   -3.3939   -8.0659   -0.9894 H   0  0  0  0  0  0  0  0  0  0  0  0
   -3.6382   -8.1544   -2.7771 H   0  0  0  0  0  0  0  0  0  0  0  0
    4.1853    5.2794   -2.9488 H   0  0  0  0  0  0  0  0  0  0  0  0
    3.9244    6.3072   -1.5047 H   0  0  0  0  0  0  0  0  0  0  0  0
    1.8518    6.3315   -2.7628 H   0  0  0  0  0  0  0  0  0  0  0  0
    1.5550    5.2623   -1.3288 H   0  0  0  0  0  0  0  0  0  0  0  0
    1.8659    4.5471   -2.9588 H   0  0  0  0  0  0  0  0  0  0  0  0
    1.9670   -1.4043    1.2586 H   0  0  0  0  0  0  0  0  0  0  0  0
    0.4398   -2.2428    1.2343 H   0  0  0  0  0  0  0  0  0  0  0  0
    1.4005   -4.2149    2.3933 H   0  0  0  0  0  0  0  0  0  0  0  0
    3.0506   -3.5257    2.2864 H   0  0  0  0  0  0  0  0  0  0  0  0
    1.8111   -2.7163    3.3040 H   0  0  0  0  0  0  0  0  0  0  0  0
    4.2961   -0.2082    1.7472 H   0  0  0  0  0  0  0  0  0  0  0  0
    4.1839   -1.9271    1.2254 H   0  0  0  0  0  0  0  0  0  0  0  0
    6.1968   -1.7118   -0.1758 H   0  0  0  0  0  0  0  0  0  0  0  0
    6.3821    0.0139    0.3444 H   0  0  0  0  0  0  0  0  0  0  0  0
    6.5336   -1.3074    1.5612 H   0  0  0  0  0  0  0  0  0  0  0  0
    2.8126    5.8048    1.1477 H   0  0  0  0  0  0  0  0  0  0  0  0
    8.9601    6.8319    1.4762 H   0  0  0  0  0  0  0  0  0  0  0  0
    5.6809    9.9641    3.5240 H   0  0  0  0  0  0  0  0  0  0  0  0
  1  2  2  3
  2  3  1  0
  3  4  2  0
  3  5  1  0
  5  6  2  0
  6  7  1  0
  7  8  2  0
  8  9  1  0
  9 10  1  0
  9 11  2  0
 11 12  1  0
 11 13  1  0
 13 14  2  0
 14 15  1  0
 15 16  2  0
 16 17  1  0
 17 18  2  3
 18 19  1  0
 19 20  3  0
 18 21  1  0
 21 22  3  0
  1 23  1  0
 23 24  2  0
 24 25  1  0
 25 26  1  0
 24 27  1  0
 27 28  1  0
 28 29  1  0
 29 30  1  0
 30 31  1  0
 31 32  1  0
 32 33  2  0
 33 34  1  0
 34 35  1  0
 32 36  1  0
 36 37  1  0
 37 38  1  0
 38 39  1  0
 39 40  1  0
 40 41  1  0
 41 42  1  0
 40 43  2  0
 43 44  1  0
 44 45  1  0
 45 46  1  0
 46 47  1  0
 47 48  1  0
 48 49  1  0
 49 50  1  0
 50 51  1  0
 51 52  1  0
 52 53  1  0
 50 54  1  0
 54 55  1  0
 47 56  1  0
 56 57  1  0
 43 58  1  0
 58 59  2  3
 59 60  1  0
 60 61  2  0
 60 62  1  0
 62 63  2  0
 63 64  1  0
 64 65  1  0
 64 66  2  0
 66 67  1  0
 66 68  1  0
 68 69  2  0
 69 70  1  0
 70 71  2  3
 71 72  1  0
 72 73  3  0
 71 74  1  0
 74 75  3  0
 17  2  1  0
 53 23  1  0
 70 59  1  0
 16  5  1  0
 52 27  2  0
 69 62  1  0
 14  7  1  0
 51 29  2  0
 49 30  2  0
 35 31  2  0
 48 36  2  0
 46 37  2  0
 45 39  2  0
  1 76  1  0
  6 77  1  0
  8 78  1  0
 13 79  1  0
 15 80  1  0
 25 81  1  0
 25 82  1  0
 26 83  1  0
 26 84  1  0
 26 85  1  0
 41 86  1  0
 41 87  1  0
 42 88  1  0
 42 89  1  0
 42 90  1  0
 54 91  1  0
 54 92  1  0
 55 93  1  0
 55 94  1  0
 55 95  1  0
 56 96  1  0
 56 97  1  0
 57 98  1  0
 57 99  1  0
 57100  1  0
 58101  1  0
 63102  1  0
 68103  1  0
M  END

