
     RDKit          3D

106118  0  0  0  0  0  0  0  0999 V2000
    0.7185   -4.6349    3.6376 C   0  0  0  0  0  0  0  0  0  0  0  0
    0.7220   -5.9244    4.0160 C   0  0  0  0  0  0  0  0  0  0  0  0
   -0.2036   -6.9541    3.5338 C   0  0  0  0  0  0  0  0  0  0  0  0
   -0.9913   -6.8526    2.5539 O   0  0  0  0  0  0  0  0  0  0  0  0
   -0.0988   -8.1081    4.3960 C   0  0  0  0  0  0  0  0  0  0  0  0
   -0.8580   -9.2769    4.3656 C   0  0  0  0  0  0  0  0  0  0  0  0
   -0.6487  -10.2409    5.3644 C   0  0  0  0  0  0  0  0  0  0  0  0
   -1.3754  -11.4434    5.3563 C   0  0  0  0  0  0  0  0  0  0  0  0
   -1.1786  -12.3899    6.3661 C   0  0  0  0  0  0  0  0  0  0  0  0
   -1.8731  -13.5540    6.3414 F   0  0  0  0  0  0  0  0  0  0  0  0
   -0.2611  -12.1439    7.3929 C   0  0  0  0  0  0  0  0  0  0  0  0
   -0.0771  -13.0702    8.3698 F   0  0  0  0  0  0  0  0  0  0  0  0
    0.4684  -10.9484    7.4163 C   0  0  0  0  0  0  0  0  0  0  0  0
    0.2921   -9.9902    6.4043 C   0  0  0  0  0  0  0  0  0  0  0  0
    1.0309   -8.7890    6.4170 C   0  0  0  0  0  0  0  0  0  0  0  0
    0.8557   -7.8665    5.3710 C   0  0  0  0  0  0  0  0  0  0  0  0
    1.4976   -6.5412    5.1346 C   0  0  0  0  0  0  0  0  0  0  0  0
    2.6738   -6.1075    5.6551 C   0  0  0  0  0  0  0  0  0  0  0  0
    3.3327   -4.9181    5.1879 C   0  0  0  0  0  0  0  0  0  0  0  0
    3.8773   -3.9634    4.8182 N   0  0  0  0  0  0  0  0  0  0  0  0
    3.4285   -6.8781    6.6094 C   0  0  0  0  0  0  0  0  0  0  0  0
    4.0464   -7.4902    7.3735 N   0  0  0  0  0  0  0  0  0  0  0  0
   -0.1784   -4.1112    2.6016 C   0  0  0  0  0  0  0  0  0  0  0  0
   -1.4961   -3.6659    2.8206 C   0  0  0  0  0  0  0  0  0  0  0  0
   -2.1973   -3.6806    4.1505 C   0  0  0  0  0  0  0  0  0  0  0  0
   -1.8360   -2.4438    4.9661 C   0  0  0  0  0  0  0  0  0  0  0  0
   -1.9903   -3.0104    1.6889 C   0  0  0  0  0  0  0  0  0  0  0  0
   -3.3393   -1.9953    1.4377 S   0  0  0  0  0  0  0  0  0  0  0  0
   -2.7186   -1.5065   -0.0624 C   0  0  0  0  0  0  0  0  0  0  0  0
   -2.9241   -0.5297   -0.9916 C   0  0  0  0  0  0  0  0  0  0  0  0
   -3.9811    0.3630   -1.1798 C   0  0  0  0  0  0  0  0  0  0  0  0
   -3.8946    1.3120   -2.2413 C   0  0  0  0  0  0  0  0  0  0  0  0
   -4.9325    2.1762   -2.3796 N   0  0  0  0  0  0  0  0  0  0  0  0
   -5.8986    1.6468   -1.1430 S   0  0  0  0  0  0  0  0  0  0  0  0
   -5.0967    0.3939   -0.4094 N   0  0  0  0  0  0  0  0  0  0  0  0
   -2.7344    1.3453   -3.0255 C   0  0  0  0  0  0  0  0  0  0  0  0
   -2.2794    2.3273   -3.8615 C   0  0  0  0  0  0  0  0  0  0  0  0
   -2.7248    3.9433   -4.1406 S   0  0  0  0  0  0  0  0  0  0  0  0
   -1.1309    4.3485   -4.5851 C   0  0  0  0  0  0  0  0  0  0  0  0
   -0.4892    5.5699   -4.8199 C   0  0  0  0  0  0  0  0  0  0  0  0
   -1.1835    6.9019   -4.8181 C   0  0  0  0  0  0  0  0  0  0  0  0
   -1.2067    7.5052   -3.4152 C   0  0  0  0  0  0  0  0  0  0  0  0
    0.9071    5.4045   -4.8456 C   0  0  0  0  0  0  0  0  0  0  0  0
    1.3085    3.7688   -4.6012 S   0  0  0  0  0  0  0  0  0  0  0  0
   -0.2906    3.2706   -4.4571 C   0  0  0  0  0  0  0  0  0  0  0  0
   -0.9451    2.1160   -4.0311 C   0  0  0  0  0  0  0  0  0  0  0  0
   -0.4988    1.0250   -3.3498 N   0  0  0  0  0  0  0  0  0  0  0  0
   -1.6338    0.4982   -2.7816 C   0  0  0  0  0  0  0  0  0  0  0  0
   -1.7725   -0.5273   -1.7995 C   0  0  0  0  0  0  0  0  0  0  0  0
   -0.9268   -1.5503   -1.4404 N   0  0  0  0  0  0  0  0  0  0  0  0
   -1.5360   -2.0847   -0.3560 C   0  0  0  0  0  0  0  0  0  0  0  0
   -1.1114   -2.9436    0.6383 C   0  0  0  0  0  0  0  0  0  0  0  0
    0.3498   -3.6506    1.0483 S   0  0  0  0  0  0  0  0  0  0  0  0
    0.0047   -2.3174   -2.2852 C   0  0  0  0  0  0  0  0  0  0  0  0
   -0.6656   -2.7619   -3.5814 C   0  0  0  0  0  0  0  0  0  0  0  0
    0.8844    0.8681   -2.8916 C   0  0  0  0  0  0  0  0  0  0  0  0
    1.7448    0.2572   -3.9964 C   0  0  0  0  0  0  0  0  0  0  0  0
    1.8989    6.4831   -4.9494 C   0  0  0  0  0  0  0  0  0  0  0  0
    2.6617    6.8839   -3.9070 C   0  0  0  0  0  0  0  0  0  0  0  0
    2.6269    6.2930   -2.5604 C   0  0  0  0  0  0  0  0  0  0  0  0
    1.7518    5.5105   -2.1024 O   0  0  0  0  0  0  0  0  0  0  0  0
    3.7731    6.7728   -1.8220 C   0  0  0  0  0  0  0  0  0  0  0  0
    4.2080    6.3687   -0.5605 C   0  0  0  0  0  0  0  0  0  0  0  0
    5.4134    6.8900   -0.0633 C   0  0  0  0  0  0  0  0  0  0  0  0
    5.9499    6.4178    1.2517 C   0  0  0  0  0  0  0  0  0  0  0  0
    6.1638    7.7794   -0.8569 C   0  0  0  0  0  0  0  0  0  0  0  0
    5.7116    8.1684   -2.1279 C   0  0  0  0  0  0  0  0  0  0  0  0
    4.4780    7.6815   -2.5950 C   0  0  0  0  0  0  0  0  0  0  0  0
    3.7873    7.8770   -3.9071 C   0  0  0  0  0  0  0  0  0  0  0  0
    4.0239    8.8647   -4.8119 C   0  0  0  0  0  0  0  0  0  0  0  0
    5.0362    9.8687   -4.6143 C   0  0  0  0  0  0  0  0  0  0  0  0
    5.8409   10.6871   -4.4739 N   0  0  0  0  0  0  0  0  0  0  0  0
    3.2081    9.0736   -5.9828 C   0  0  0  0  0  0  0  0  0  0  0  0
    2.5757    9.2448   -6.9363 N   0  0  0  0  0  0  0  0  0  0  0  0
    1.3265   -3.9024    4.1413 H   0  0  0  0  0  0  0  0  0  0  0  0
   -1.5919   -9.4241    3.5831 H   0  0  0  0  0  0  0  0  0  0  0  0
   -2.0927  -11.6504    4.5666 H   0  0  0  0  0  0  0  0  0  0  0  0
    1.1806  -10.7848    8.2152 H   0  0  0  0  0  0  0  0  0  0  0  0
    1.6965   -8.5960    7.2430 H   0  0  0  0  0  0  0  0  0  0  0  0
   -1.9238   -4.5966    4.7156 H   0  0  0  0  0  0  0  0  0  0  0  0
   -3.2963   -3.7028    3.9885 H   0  0  0  0  0  0  0  0  0  0  0  0
   -2.3866   -2.4573    5.9308 H   0  0  0  0  0  0  0  0  0  0  0  0
   -2.1301   -1.5238    4.4074 H   0  0  0  0  0  0  0  0  0  0  0  0
   -0.7431   -2.4143    5.1742 H   0  0  0  0  0  0  0  0  0  0  0  0
   -0.6604    7.5983   -5.5076 H   0  0  0  0  0  0  0  0  0  0  0  0
   -2.2250    6.7836   -5.1857 H   0  0  0  0  0  0  0  0  0  0  0  0
   -0.1795    7.8033   -3.1128 H   0  0  0  0  0  0  0  0  0  0  0  0
   -1.6165    6.7741   -2.6811 H   0  0  0  0  0  0  0  0  0  0  0  0
   -1.8491    8.4133   -3.4132 H   0  0  0  0  0  0  0  0  0  0  0  0
    0.9294   -1.7652   -2.4922 H   0  0  0  0  0  0  0  0  0  0  0  0
    0.3341   -3.2349   -1.7531 H   0  0  0  0  0  0  0  0  0  0  0  0
    0.0409   -3.3812   -4.1725 H   0  0  0  0  0  0  0  0  0  0  0  0
   -0.9632   -1.8804   -4.1927 H   0  0  0  0  0  0  0  0  0  0  0  0
   -1.5636   -3.3704   -3.3567 H   0  0  0  0  0  0  0  0  0  0  0  0
    1.3077    1.8555   -2.6084 H   0  0  0  0  0  0  0  0  0  0  0  0
    0.9272    0.2884   -1.9531 H   0  0  0  0  0  0  0  0  0  0  0  0
    1.2516   -0.6429   -4.4288 H   0  0  0  0  0  0  0  0  0  0  0  0
    2.7433   -0.0178   -3.5872 H   0  0  0  0  0  0  0  0  0  0  0  0
    1.8848    0.9878   -4.8187 H   0  0  0  0  0  0  0  0  0  0  0  0
    2.0107    6.9021   -5.9347 H   0  0  0  0  0  0  0  0  0  0  0  0
    3.6464    5.6352    0.0022 H   0  0  0  0  0  0  0  0  0  0  0  0
    6.5308    5.4872    1.0939 H   0  0  0  0  0  0  0  0  0  0  0  0
    5.1231    6.2150    1.9646 H   0  0  0  0  0  0  0  0  0  0  0  0
    6.6185    7.1808    1.7033 H   0  0  0  0  0  0  0  0  0  0  0  0
    7.1160    8.1509   -0.5025 H   0  0  0  0  0  0  0  0  0  0  0  0
    6.3447    8.8096   -2.7198 H   0  0  0  0  0  0  0  0  0  0  0  0
  1  2  2  3
  2  3  1  0
  3  4  2  0
  3  5  1  0
  5  6  2  0
  6  7  1  0
  7  8  2  0
  8  9  1  0
  9 10  1  0
  9 11  2  0
 11 12  1  0
 11 13  1  0
 13 14  2  0
 14 15  1  0
 15 16  2  0
 16 17  1  0
 17 18  2  3
 18 19  1  0
 19 20  3  0
 18 21  1  0
 21 22  3  0
  1 23  1  0
 23 24  2  0
 24 25  1  0
 25 26  1  0
 24 27  1  0
 27 28  1  0
 28 29  1  0
 29 30  1  0
 30 31  1  0
 31 32  1  0
 32 33  2  0
 33 34  1  0
 34 35  1  0
 32 36  1  0
 36 37  1  0
 37 38  1  0
 38 39  1  0
 39 40  1  0
 40 41  1  0
 41 42  1  0
 40 43  2  0
 43 44  1  0
 44 45  1  0
 45 46  1  0
 46 47  1  0
 47 48  1  0
 48 49  1  0
 49 50  1  0
 50 51  1  0
 51 52  1  0
 52 53  1  0
 50 54  1  0
 54 55  1  0
 47 56  1  0
 56 57  1  0
 43 58  1  0
 58 59  2  3
 59 60  1  0
 60 61  2  0
 60 62  1  0
 62 63  2  0
 63 64  1  0
 64 65  1  0
 64 66  2  0
 66 67  1  0
 67 68  2  0
 68 69  1  0
 69 70  2  3
 70 71  1  0
 71 72  3  0
 70 73  1  0
 73 74  3  0
 17  2  1  0
 53 23  1  0
 69 59  1  0
 16  5  1  0
 52 27  2  0
 68 62  1  0
 14  7  1  0
 51 29  2  0
 49 30  2  0
 35 31  2  0
 48 36  2  0
 46 37  2  0
 45 39  2  0
  1 75  1  0
  6 76  1  0
  8 77  1  0
 13 78  1  0
 15 79  1  0
 25 80  1  0
 25 81  1  0
 26 82  1  0
 26 83  1  0
 26 84  1  0
 41 85  1  0
 41 86  1  0
 42 87  1  0
 42 88  1  0
 42 89  1  0
 54 90  1  0
 54 91  1  0
 55 92  1  0
 55 93  1  0
 55 94  1  0
 56 95  1  0
 56 96  1  0
 57 97  1  0
 57 98  1  0
 57 99  1  0
 58100  1  0
 63101  1  0
 65102  1  0
 65103  1  0
 65104  1  0
 66105  1  0
 67106  1  0
M  END

