
     RDKit          3D

104116  0  0  0  0  0  0  0  0999 V2000
   -1.1167    3.9702    5.6074 C   0  0  0  0  0  0  0  0  0  0  0  0
   -0.1720    4.7121    4.9822 C   0  0  0  0  0  0  0  0  0  0  0  0
    0.1888    4.5934    3.5605 C   0  0  0  0  0  0  0  0  0  0  0  0
   -0.5051    4.0650    2.6483 O   0  0  0  0  0  0  0  0  0  0  0  0
    1.5124    5.1336    3.3639 C   0  0  0  0  0  0  0  0  0  0  0  0
    2.3072    5.0457    2.2250 C   0  0  0  0  0  0  0  0  0  0  0  0
    3.6426    5.4955    2.3105 C   0  0  0  0  0  0  0  0  0  0  0  0
    4.5038    5.3332    1.2124 C   0  0  0  0  0  0  0  0  0  0  0  0
    5.8527    5.6794    1.3327 C   0  0  0  0  0  0  0  0  0  0  0  0
    6.6848    5.4493    0.2849 F   0  0  0  0  0  0  0  0  0  0  0  0
    6.3416    6.1982    2.5379 C   0  0  0  0  0  0  0  0  0  0  0  0
    7.6624    6.4747    2.6618 F   0  0  0  0  0  0  0  0  0  0  0  0
    5.4816    6.4185    3.6198 C   0  0  0  0  0  0  0  0  0  0  0  0
    4.1323    6.0598    3.5249 C   0  0  0  0  0  0  0  0  0  0  0  0
    3.2837    6.1723    4.6418 C   0  0  0  0  0  0  0  0  0  0  0  0
    1.9872    5.6354    4.5593 C   0  0  0  0  0  0  0  0  0  0  0  0
    0.9663    5.4652    5.6346 C   0  0  0  0  0  0  0  0  0  0  0  0
    1.2400    5.4933    6.9564 C   0  0  0  0  0  0  0  0  0  0  0  0
    0.2080    5.6620    7.9556 C   0  0  0  0  0  0  0  0  0  0  0  0
   -0.5934    5.8146    8.7854 N   0  0  0  0  0  0  0  0  0  0  0  0
    2.5341    5.0840    7.4385 C   0  0  0  0  0  0  0  0  0  0  0  0
    3.5540    4.6906    7.8235 N   0  0  0  0  0  0  0  0  0  0  0  0
   -1.7248    2.8294    4.8911 C   0  0  0  0  0  0  0  0  0  0  0  0
   -2.9850    2.2862    5.2736 C   0  0  0  0  0  0  0  0  0  0  0  0
   -4.2392    3.3048    5.2727 C   0  0  0  0  0  0  0  0  0  0  0  0
   -5.0027    3.2104    6.5917 C   0  0  0  0  0  0  0  0  0  0  0  0
   -3.1250    0.8793    5.0616 C   0  0  0  0  0  0  0  0  0  0  0  0
   -4.6799    0.1273    4.4836 S   0  0  0  0  0  0  0  0  0  0  0  0
   -3.8964   -1.2525    3.9806 C   0  0  0  0  0  0  0  0  0  0  0  0
   -4.1129   -2.0506    2.8791 C   0  0  0  0  0  0  0  0  0  0  0  0
   -5.2290   -2.0603    2.0277 C   0  0  0  0  0  0  0  0  0  0  0  0
   -5.0848   -2.5643    0.7079 C   0  0  0  0  0  0  0  0  0  0  0  0
   -6.1706   -2.4930   -0.1000 N   0  0  0  0  0  0  0  0  0  0  0  0
   -7.2520   -1.7960    0.9455 S   0  0  0  0  0  0  0  0  0  0  0  0
   -6.4437   -1.5537    2.3671 N   0  0  0  0  0  0  0  0  0  0  0  0
   -3.8558   -3.0862    0.3179 C   0  0  0  0  0  0  0  0  0  0  0  0
   -3.4247   -3.5357   -0.8927 C   0  0  0  0  0  0  0  0  0  0  0  0
   -3.9367   -3.5006   -2.5065 S   0  0  0  0  0  0  0  0  0  0  0  0
   -2.3790   -3.9403   -3.0460 C   0  0  0  0  0  0  0  0  0  0  0  0
   -1.7785   -3.8439   -4.3097 C   0  0  0  0  0  0  0  0  0  0  0  0
   -2.5521   -3.5142   -5.5607 C   0  0  0  0  0  0  0  0  0  0  0  0
   -2.7027   -2.0034   -5.7141 C   0  0  0  0  0  0  0  0  0  0  0  0
   -0.3648   -3.8876   -4.2261 C   0  0  0  0  0  0  0  0  0  0  0  0
    0.0647   -3.9727   -2.5741 S   0  0  0  0  0  0  0  0  0  0  0  0
   -1.5105   -4.0750   -1.9915 C   0  0  0  0  0  0  0  0  0  0  0  0
   -2.1180   -3.8426   -0.7593 C   0  0  0  0  0  0  0  0  0  0  0  0
   -1.6555   -3.6570    0.5020 N   0  0  0  0  0  0  0  0  0  0  0  0
   -2.7348   -3.1253    1.1651 C   0  0  0  0  0  0  0  0  0  0  0  0
   -2.8534   -2.5224    2.4671 C   0  0  0  0  0  0  0  0  0  0  0  0
   -1.8855   -1.9699    3.2788 N   0  0  0  0  0  0  0  0  0  0  0  0
   -2.5523   -1.1698    4.1600 C   0  0  0  0  0  0  0  0  0  0  0  0
   -1.9845   -0.0118    4.7394 C   0  0  0  0  0  0  0  0  0  0  0  0
   -2.4212    1.4134    5.5116 S   0  0  0  0  0  0  0  0  0  0  0  0
   -0.4535   -1.7927    3.0118 C   0  0  0  0  0  0  0  0  0  0  0  0
   -0.2111   -0.7619    1.9084 C   0  0  0  0  0  0  0  0  0  0  0  0
   -0.5815   -4.4996    1.0615 C   0  0  0  0  0  0  0  0  0  0  0  0
    0.8153   -3.9985    0.6708 C   0  0  0  0  0  0  0  0  0  0  0  0
    0.5664   -3.5016   -5.3218 C   0  0  0  0  0  0  0  0  0  0  0  0
    1.9015   -3.6735   -5.3011 C   0  0  0  0  0  0  0  0  0  0  0  0
    2.6142   -4.7144   -4.5562 C   0  0  0  0  0  0  0  0  0  0  0  0
    2.0686   -5.6697   -3.9437 O   0  0  0  0  0  0  0  0  0  0  0  0
    4.0403   -4.5931   -4.8239 C   0  0  0  0  0  0  0  0  0  0  0  0
    5.1142   -5.3278   -4.2815 C   0  0  0  0  0  0  0  0  0  0  0  0
    4.9481   -6.3367   -3.3334 O   0  0  0  0  0  0  0  0  0  0  0  0
    6.4119   -5.0237   -4.7136 C   0  0  0  0  0  0  0  0  0  0  0  0
    6.6273   -4.0003   -5.6428 C   0  0  0  0  0  0  0  0  0  0  0  0
    5.5547   -3.2777   -6.1703 C   0  0  0  0  0  0  0  0  0  0  0  0
    4.2387   -3.5913   -5.7655 C   0  0  0  0  0  0  0  0  0  0  0  0
    2.9398   -2.9461   -6.1190 C   0  0  0  0  0  0  0  0  0  0  0  0
    2.7596   -1.8455   -6.8922 C   0  0  0  0  0  0  0  0  0  0  0  0
    3.8328   -1.1648   -7.5783 C   0  0  0  0  0  0  0  0  0  0  0  0
    4.6870   -0.6048   -8.1262 N   0  0  0  0  0  0  0  0  0  0  0  0
    1.5187   -1.1225   -6.9444 C   0  0  0  0  0  0  0  0  0  0  0  0
    0.5490   -0.4876   -6.9581 N   0  0  0  0  0  0  0  0  0  0  0  0
   -1.3242    4.0884    6.6692 H   0  0  0  0  0  0  0  0  0  0  0  0
    1.9285    4.6378    1.2988 H   0  0  0  0  0  0  0  0  0  0  0  0
    4.1472    4.8955    0.2836 H   0  0  0  0  0  0  0  0  0  0  0  0
    5.8771    6.8034    4.5553 H   0  0  0  0  0  0  0  0  0  0  0  0
    3.6356    6.5954    5.5678 H   0  0  0  0  0  0  0  0  0  0  0  0
   -4.9148    3.0706    4.4192 H   0  0  0  0  0  0  0  0  0  0  0  0
   -3.8713    4.3480    5.1505 H   0  0  0  0  0  0  0  0  0  0  0  0
   -4.3063    3.2010    7.4561 H   0  0  0  0  0  0  0  0  0  0  0  0
   -5.6644    4.0912    6.6663 H   0  0  0  0  0  0  0  0  0  0  0  0
   -5.6243    2.2985    6.6182 H   0  0  0  0  0  0  0  0  0  0  0  0
   -3.5594   -3.9840   -5.5072 H   0  0  0  0  0  0  0  0  0  0  0  0
   -2.0412   -3.9385   -6.4510 H   0  0  0  0  0  0  0  0  0  0  0  0
   -3.2681   -1.5908   -4.8572 H   0  0  0  0  0  0  0  0  0  0  0  0
   -1.7127   -1.5062   -5.7568 H   0  0  0  0  0  0  0  0  0  0  0  0
   -3.2540   -1.7881   -6.6551 H   0  0  0  0  0  0  0  0  0  0  0  0
    0.0395   -2.7324    2.7790 H   0  0  0  0  0  0  0  0  0  0  0  0
    0.0765   -1.4500    3.9312 H   0  0  0  0  0  0  0  0  0  0  0  0
    0.8814   -0.6726    1.7172 H   0  0  0  0  0  0  0  0  0  0  0  0
   -0.7187   -1.0524    0.9635 H   0  0  0  0  0  0  0  0  0  0  0  0
   -0.5897    0.2282    2.2304 H   0  0  0  0  0  0  0  0  0  0  0  0
   -0.6976   -4.6098    2.1609 H   0  0  0  0  0  0  0  0  0  0  0  0
   -0.6987   -5.5432    0.6840 H   0  0  0  0  0  0  0  0  0  0  0  0
    0.7840   -2.9519    0.2958 H   0  0  0  0  0  0  0  0  0  0  0  0
    1.2499   -4.6516   -0.1167 H   0  0  0  0  0  0  0  0  0  0  0  0
    1.4915   -4.0449    1.5492 H   0  0  0  0  0  0  0  0  0  0  0  0
    0.1190   -2.9702   -6.1352 H   0  0  0  0  0  0  0  0  0  0  0  0
    4.0399   -6.6263   -2.9946 H   0  0  0  0  0  0  0  0  0  0  0  0
    7.2650   -5.5750   -4.3298 H   0  0  0  0  0  0  0  0  0  0  0  0
    7.6298   -3.7823   -5.9861 H   0  0  0  0  0  0  0  0  0  0  0  0
    5.7739   -2.5183   -6.8860 H   0  0  0  0  0  0  0  0  0  0  0  0
  1  2  2  3
  2  3  1  0
  3  4  2  0
  3  5  1  0
  5  6  2  0
  6  7  1  0
  7  8  2  0
  8  9  1  0
  9 10  1  0
  9 11  2  0
 11 12  1  0
 11 13  1  0
 13 14  2  0
 14 15  1  0
 15 16  2  0
 16 17  1  0
 17 18  2  3
 18 19  1  0
 19 20  3  0
 18 21  1  0
 21 22  3  0
  1 23  1  0
 23 24  2  0
 24 25  1  0
 25 26  1  0
 24 27  1  0
 27 28  1  0
 28 29  1  0
 29 30  1  0
 30 31  1  0
 31 32  1  0
 32 33  2  0
 33 34  1  0
 34 35  1  0
 32 36  1  0
 36 37  1  0
 37 38  1  0
 38 39  1  0
 39 40  1  0
 40 41  1  0
 41 42  1  0
 40 43  2  0
 43 44  1  0
 44 45  1  0
 45 46  1  0
 46 47  1  0
 47 48  1  0
 48 49  1  0
 49 50  1  0
 50 51  1  0
 51 52  1  0
 52 53  1  0
 50 54  1  0
 54 55  1  0
 47 56  1  0
 56 57  1  0
 43 58  1  0
 58 59  2  3
 59 60  1  0
 60 61  2  0
 60 62  1  0
 62 63  2  0
 63 64  1  0
 63 65  1  0
 65 66  2  0
 66 67  1  0
 67 68  2  0
 68 69  1  0
 69 70  2  3
 70 71  1  0
 71 72  3  0
 70 73  1  0
 73 74  3  0
 17  2  1  0
 53 23  1  0
 69 59  1  0
 16  5  1  0
 52 27  2  0
 68 62  1  0
 14  7  1  0
 51 29  2  0
 49 30  2  0
 35 31  2  0
 48 36  2  0
 46 37  2  0
 45 39  2  0
  1 75  1  0
  6 76  1  0
  8 77  1  0
 13 78  1  0
 15 79  1  0
 25 80  1  0
 25 81  1  0
 26 82  1  0
 26 83  1  0
 26 84  1  0
 41 85  1  0
 41 86  1  0
 42 87  1  0
 42 88  1  0
 42 89  1  0
 54 90  1  0
 54 91  1  0
 55 92  1  0
 55 93  1  0
 55 94  1  0
 56 95  1  0
 56 96  1  0
 57 97  1  0
 57 98  1  0
 57 99  1  0
 58100  1  0
 64101  1  0
 65102  1  0
 66103  1  0
 67104  1  0
M  END

