
     RDKit          3D

154169  0  0  0  0  0  0  0  0999 V2000
    1.8989   -2.0839    6.1074 C   0  0  0  0  0  0  0  0  0  0  0  0
    3.2358   -2.0790    6.2672 C   0  0  0  0  0  0  0  0  0  0  0  0
    4.1935   -2.9003    5.5228 C   0  0  0  0  0  0  0  0  0  0  0  0
    4.0037   -4.0734    5.1020 O   0  0  0  0  0  0  0  0  0  0  0  0
    5.4350   -2.1686    5.4176 C   0  0  0  0  0  0  0  0  0  0  0  0
    6.5248   -2.4517    4.6007 C   0  0  0  0  0  0  0  0  0  0  0  0
    7.5437   -1.4930    4.4853 C   0  0  0  0  0  0  0  0  0  0  0  0
    8.6396   -1.7200    3.6392 C   0  0  0  0  0  0  0  0  0  0  0  0
    9.6203   -0.7378    3.4816 C   0  0  0  0  0  0  0  0  0  0  0  0
   10.6633   -0.9612    2.6455 F   0  0  0  0  0  0  0  0  0  0  0  0
    9.5201    0.4749    4.1711 C   0  0  0  0  0  0  0  0  0  0  0  0
   10.4694    1.4276    4.0013 F   0  0  0  0  0  0  0  0  0  0  0  0
    8.4398    0.7137    5.0262 C   0  0  0  0  0  0  0  0  0  0  0  0
    7.4422   -0.2612    5.1941 C   0  0  0  0  0  0  0  0  0  0  0  0
    6.3344   -0.0166    6.0313 C   0  0  0  0  0  0  0  0  0  0  0  0
    5.3397   -0.9997    6.1495 C   0  0  0  0  0  0  0  0  0  0  0  0
    4.0298   -0.9621    6.8546 C   0  0  0  0  0  0  0  0  0  0  0  0
    3.7131   -0.2230    7.9459 C   0  0  0  0  0  0  0  0  0  0  0  0
    4.6320    0.7244    8.5202 C   0  0  0  0  0  0  0  0  0  0  0  0
    5.3642    1.4898    8.9880 N   0  0  0  0  0  0  0  0  0  0  0  0
    2.5134   -0.4638    8.7077 C   0  0  0  0  0  0  0  0  0  0  0  0
    1.5588   -0.6565    9.3359 N   0  0  0  0  0  0  0  0  0  0  0  0
    1.2000   -2.8031    5.0221 C   0  0  0  0  0  0  0  0  0  0  0  0
    1.7933   -2.9518    3.4357 S   0  0  0  0  0  0  0  0  0  0  0  0
    0.3368   -3.4432    2.7900 C   0  0  0  0  0  0  0  0  0  0  0  0
   -0.2227   -3.2796    1.4806 C   0  0  0  0  0  0  0  0  0  0  0  0
   -1.6093   -3.2040    1.6163 C   0  0  0  0  0  0  0  0  0  0  0  0
   -2.0210   -3.2302    3.0920 C   0  0  0  0  0  0  0  0  0  0  0  0
   -2.9601   -4.4158    3.3378 C   0  0  0  0  0  0  0  0  0  0  0  0
   -2.5106   -5.6287    3.9036 C   0  0  0  0  0  0  0  0  0  0  0  0
   -3.4021   -6.6820    4.1299 C   0  0  0  0  0  0  0  0  0  0  0  0
   -4.7515   -6.5616    3.7694 C   0  0  0  0  0  0  0  0  0  0  0  0
   -5.7241   -7.6666    4.0815 C   0  0  0  0  0  0  0  0  0  0  0  0
   -6.3648   -7.4474    5.4483 C   0  0  0  0  0  0  0  0  0  0  0  0
   -5.2018   -5.3688    3.1875 C   0  0  0  0  0  0  0  0  0  0  0  0
   -4.3144   -4.3134    2.9647 C   0  0  0  0  0  0  0  0  0  0  0  0
   -2.6060   -1.8941    3.5775 C   0  0  0  0  0  0  0  0  0  0  0  0
   -3.3210   -1.8410    4.7914 C   0  0  0  0  0  0  0  0  0  0  0  0
   -3.7102   -0.6192    5.3449 C   0  0  0  0  0  0  0  0  0  0  0  0
   -3.3857    0.5833    4.7034 C   0  0  0  0  0  0  0  0  0  0  0  0
   -3.7139    1.8999    5.3530 C   0  0  0  0  0  0  0  0  0  0  0  0
   -2.6257    2.2953    6.3478 C   0  0  0  0  0  0  0  0  0  0  0  0
   -2.6686    0.5487    3.5014 C   0  0  0  0  0  0  0  0  0  0  0  0
   -2.2744   -0.6739    2.9484 C   0  0  0  0  0  0  0  0  0  0  0  0
   -0.6465   -3.3884    3.7294 C   0  0  0  0  0  0  0  0  0  0  0  0
   -0.1835   -3.0309    5.0059 C   0  0  0  0  0  0  0  0  0  0  0  0
   -2.4116   -2.9226    0.4970 C   0  0  0  0  0  0  0  0  0  0  0  0
   -1.7480   -2.6454   -0.7054 C   0  0  0  0  0  0  0  0  0  0  0  0
   -2.2753   -2.1817   -1.9559 C   0  0  0  0  0  0  0  0  0  0  0  0
   -1.2531   -1.7581   -2.7750 C   0  0  0  0  0  0  0  0  0  0  0  0
    0.1050   -1.9127   -2.0987 C   0  0  0  0  0  0  0  0  0  0  0  0
   -0.3566   -2.5773   -0.7984 C   0  0  0  0  0  0  0  0  0  0  0  0
    0.4376   -2.9497    0.2953 C   0  0  0  0  0  0  0  0  0  0  0  0
    0.9928   -2.8749   -2.9136 C   0  0  0  0  0  0  0  0  0  0  0  0
    0.6016   -4.2249   -3.0647 C   0  0  0  0  0  0  0  0  0  0  0  0
    1.3983   -5.1328   -3.7678 C   0  0  0  0  0  0  0  0  0  0  0  0
    2.6035   -4.7169   -4.3500 C   0  0  0  0  0  0  0  0  0  0  0  0
    3.4791   -5.6952   -5.0899 C   0  0  0  0  0  0  0  0  0  0  0  0
    3.2752   -5.5863   -6.5992 C   0  0  0  0  0  0  0  0  0  0  0  0
    2.9744   -3.3712   -4.2580 C   0  0  0  0  0  0  0  0  0  0  0  0
    2.1786   -2.4599   -3.5610 C   0  0  0  0  0  0  0  0  0  0  0  0
    0.7347   -0.5646   -1.6884 C   0  0  0  0  0  0  0  0  0  0  0  0
   -0.0396    0.6172   -1.6255 C   0  0  0  0  0  0  0  0  0  0  0  0
    0.4844    1.7965   -1.0928 C   0  0  0  0  0  0  0  0  0  0  0  0
    1.7816    1.8223   -0.5649 C   0  0  0  0  0  0  0  0  0  0  0  0
    2.3359    3.0855    0.0384 C   0  0  0  0  0  0  0  0  0  0  0  0
    3.1800    3.8490   -0.9759 C   0  0  0  0  0  0  0  0  0  0  0  0
    2.5576    0.6564   -0.6015 C   0  0  0  0  0  0  0  0  0  0  0  0
    2.0359   -0.5214   -1.1405 C   0  0  0  0  0  0  0  0  0  0  0  0
   -1.7842   -1.1995   -3.9426 C   0  0  0  0  0  0  0  0  0  0  0  0
   -3.1516   -1.2643   -3.9694 C   0  0  0  0  0  0  0  0  0  0  0  0
   -3.8418   -1.9060   -2.5673 S   0  0  0  0  0  0  0  0  0  0  0  0
   -3.5435   -0.5630   -5.0676 C   0  0  0  0  0  0  0  0  0  0  0  0
   -4.9252    0.0885   -5.7504 S   0  0  0  0  0  0  0  0  0  0  0  0
   -4.0110    0.9989   -6.8775 C   0  0  0  0  0  0  0  0  0  0  0  0
   -2.6310    0.7969   -6.6975 C   0  0  0  0  0  0  0  0  0  0  0  0
   -2.4150   -0.0917   -5.6469 C   0  0  0  0  0  0  0  0  0  0  0  0
   -1.2905   -0.4476   -4.9662 N   0  0  0  0  0  0  0  0  0  0  0  0
    0.0681    0.0444   -5.1900 C   0  0  0  0  0  0  0  0  0  0  0  0
    0.1649    1.5550   -4.9622 C   0  0  0  0  0  0  0  0  0  0  0  0
   -4.6014    1.9453   -7.8284 C   0  0  0  0  0  0  0  0  0  0  0  0
   -4.4964    3.2778   -7.7072 C   0  0  0  0  0  0  0  0  0  0  0  0
   -5.1677    4.3692   -8.7891 S   0  0  0  0  0  0  0  0  0  0  0  0
   -4.6769    5.7500   -7.9424 C   0  0  0  0  0  0  0  0  0  0  0  0
   -5.0105    7.0087   -8.3197 C   0  0  0  0  0  0  0  0  0  0  0  0
   -4.7792    8.1688   -7.5007 C   0  0  0  0  0  0  0  0  0  0  0  0
   -4.6107    9.1077   -6.8417 N   0  0  0  0  0  0  0  0  0  0  0  0
   -5.7307    7.2409   -9.5476 C   0  0  0  0  0  0  0  0  0  0  0  0
   -6.3142    7.4274  -10.5302 N   0  0  0  0  0  0  0  0  0  0  0  0
   -3.9813    5.3828   -6.8213 N   0  0  0  0  0  0  0  0  0  0  0  0
   -3.3025    6.2643   -5.9110 C   0  0  0  0  0  0  0  0  0  0  0  0
   -2.1344    6.9293   -6.3148 C   0  0  0  0  0  0  0  0  0  0  0  0
   -1.4466    7.7491   -5.4137 C   0  0  0  0  0  0  0  0  0  0  0  0
   -1.9187    7.9041   -4.1066 C   0  0  0  0  0  0  0  0  0  0  0  0
   -3.0769    7.2353   -3.6962 C   0  0  0  0  0  0  0  0  0  0  0  0
   -3.7653    6.4103   -4.5938 C   0  0  0  0  0  0  0  0  0  0  0  0
   -3.8832    4.0240   -6.6904 C   0  0  0  0  0  0  0  0  0  0  0  0
   -3.2852    3.4950   -5.7125 O   0  0  0  0  0  0  0  0  0  0  0  0
    1.2926   -1.3825    6.6610 H   0  0  0  0  0  0  0  0  0  0  0  0
    6.5528   -3.3731    4.0299 H   0  0  0  0  0  0  0  0  0  0  0  0
    8.7279   -2.6523    3.0926 H   0  0  0  0  0  0  0  0  0  0  0  0
    8.3760    1.6594    5.5472 H   0  0  0  0  0  0  0  0  0  0  0  0
    6.2341    0.9445    6.5147 H   0  0  0  0  0  0  0  0  0  0  0  0
   -1.4768   -5.7692    4.1861 H   0  0  0  0  0  0  0  0  0  0  0  0
   -3.0400   -7.5921    4.5916 H   0  0  0  0  0  0  0  0  0  0  0  0
   -5.2058   -8.6500    4.0720 H   0  0  0  0  0  0  0  0  0  0  0  0
   -6.5188   -7.7045    3.3047 H   0  0  0  0  0  0  0  0  0  0  0  0
   -5.5855   -7.4324    6.2399 H   0  0  0  0  0  0  0  0  0  0  0  0
   -7.0749   -8.2726    5.6624 H   0  0  0  0  0  0  0  0  0  0  0  0
   -6.9223   -6.4854    5.4643 H   0  0  0  0  0  0  0  0  0  0  0  0
   -6.2441   -5.2529    2.9149 H   0  0  0  0  0  0  0  0  0  0  0  0
   -4.6957   -3.4037    2.5230 H   0  0  0  0  0  0  0  0  0  0  0  0
   -3.5409   -2.7467    5.3428 H   0  0  0  0  0  0  0  0  0  0  0  0
   -4.2339   -0.6089    6.2920 H   0  0  0  0  0  0  0  0  0  0  0  0
   -4.6881    1.8301    5.8851 H   0  0  0  0  0  0  0  0  0  0  0  0
   -3.8138    2.6959    4.5850 H   0  0  0  0  0  0  0  0  0  0  0  0
   -1.6439    2.3757    5.8350 H   0  0  0  0  0  0  0  0  0  0  0  0
   -2.8740    3.2785    6.8030 H   0  0  0  0  0  0  0  0  0  0  0  0
   -2.5498    1.5369    7.1569 H   0  0  0  0  0  0  0  0  0  0  0  0
   -2.3833    1.4688    3.0085 H   0  0  0  0  0  0  0  0  0  0  0  0
   -1.6760   -0.6503    2.0476 H   0  0  0  0  0  0  0  0  0  0  0  0
   -0.8366   -2.8013    5.8387 H   0  0  0  0  0  0  0  0  0  0  0  0
   -3.4850   -2.8255    0.5726 H   0  0  0  0  0  0  0  0  0  0  0  0
    1.5162   -2.9042    0.2601 H   0  0  0  0  0  0  0  0  0  0  0  0
   -0.3221   -4.5804   -2.6264 H   0  0  0  0  0  0  0  0  0  0  0  0
    1.0739   -6.1639   -3.8547 H   0  0  0  0  0  0  0  0  0  0  0  0
    4.5475   -5.4964   -4.8479 H   0  0  0  0  0  0  0  0  0  0  0  0
    3.2605   -6.7356   -4.7641 H   0  0  0  0  0  0  0  0  0  0  0  0
    3.5317   -4.5666   -6.9553 H   0  0  0  0  0  0  0  0  0  0  0  0
    2.2201   -5.8119   -6.8596 H   0  0  0  0  0  0  0  0  0  0  0  0
    3.9332   -6.3172   -7.1135 H   0  0  0  0  0  0  0  0  0  0  0  0
    3.8899   -3.0256   -4.7243 H   0  0  0  0  0  0  0  0  0  0  0  0
    2.5126   -1.4351   -3.5279 H   0  0  0  0  0  0  0  0  0  0  0  0
   -1.0673    0.6396   -1.9618 H   0  0  0  0  0  0  0  0  0  0  0  0
   -0.1327    2.6863   -1.0687 H   0  0  0  0  0  0  0  0  0  0  0  0
    1.5084    3.7404    0.3924 H   0  0  0  0  0  0  0  0  0  0  0  0
    2.9598    2.8374    0.9266 H   0  0  0  0  0  0  0  0  0  0  0  0
    4.0454    3.2308   -1.3004 H   0  0  0  0  0  0  0  0  0  0  0  0
    3.5681    4.7796   -0.5117 H   0  0  0  0  0  0  0  0  0  0  0  0
    2.5662    4.1214   -1.8604 H   0  0  0  0  0  0  0  0  0  0  0  0
    3.5603    0.6552   -0.1921 H   0  0  0  0  0  0  0  0  0  0  0  0
    2.6503   -1.4126   -1.1015 H   0  0  0  0  0  0  0  0  0  0  0  0
   -1.8586    1.2944   -7.2670 H   0  0  0  0  0  0  0  0  0  0  0  0
    0.3886   -0.1945   -6.2272 H   0  0  0  0  0  0  0  0  0  0  0  0
    0.7624   -0.4544   -4.5019 H   0  0  0  0  0  0  0  0  0  0  0  0
   -0.3882    1.8527   -4.0494 H   0  0  0  0  0  0  0  0  0  0  0  0
   -0.2510    2.1136   -5.8234 H   0  0  0  0  0  0  0  0  0  0  0  0
    1.2314    1.8469   -4.8465 H   0  0  0  0  0  0  0  0  0  0  0  0
   -5.1976    1.5385   -8.6357 H   0  0  0  0  0  0  0  0  0  0  0  0
   -1.7622    6.8106   -7.3245 H   0  0  0  0  0  0  0  0  0  0  0  0
   -0.5432    8.2577   -5.7283 H   0  0  0  0  0  0  0  0  0  0  0  0
   -1.3898    8.5396   -3.4105 H   0  0  0  0  0  0  0  0  0  0  0  0
   -3.4395    7.3557   -2.6827 H   0  0  0  0  0  0  0  0  0  0  0  0
   -4.6577    5.8921   -4.2696 H   0  0  0  0  0  0  0  0  0  0  0  0
  1  2  2  3
  2  3  1  0
  3  4  2  0
  3  5  1  0
  5  6  2  0
  6  7  1  0
  7  8  2  0
  8  9  1  0
  9 10  1  0
  9 11  2  0
 11 12  1  0
 11 13  1  0
 13 14  2  0
 14 15  1  0
 15 16  2  0
 16 17  1  0
 17 18  2  3
 18 19  1  0
 19 20  3  0
 18 21  1  0
 21 22  3  0
  1 23  1  0
 23 24  1  0
 24 25  1  0
 25 26  1  0
 26 27  2  0
 27 28  1  0
 28 29  1  0
 29 30  2  0
 30 31  1  0
 31 32  2  0
 32 33  1  0
 33 34  1  0
 32 35  1  0
 35 36  2  0
 28 37  1  0
 37 38  2  0
 38 39  1  0
 39 40  2  0
 40 41  1  0
 41 42  1  0
 40 43  1  0
 43 44  2  0
 28 45  1  0
 45 46  1  0
 27 47  1  0
 47 48  2  0
 48 49  1  0
 49 50  2  0
 50 51  1  0
 51 52  1  0
 52 53  2  0
 51 54  1  0
 54 55  2  0
 55 56  1  0
 56 57  2  0
 57 58  1  0
 58 59  1  0
 57 60  1  0
 60 61  2  0
 51 62  1  0
 62 63  2  0
 63 64  1  0
 64 65  2  0
 65 66  1  0
 66 67  1  0
 65 68  1  0
 68 69  2  0
 50 70  1  0
 70 71  2  0
 71 72  1  0
 71 73  1  0
 73 74  1  0
 74 75  1  0
 75 76  2  0
 76 77  1  0
 77 78  1  0
 78 79  1  0
 79 80  1  0
 75 81  1  0
 81 82  2  3
 82 83  1  0
 83 84  1  0
 84 85  2  3
 85 86  1  0
 86 87  3  0
 85 88  1  0
 88 89  3  0
 84 90  1  0
 90 91  1  0
 91 92  2  0
 92 93  1  0
 93 94  2  0
 94 95  1  0
 95 96  2  0
 90 97  1  0
 97 98  2  0
 17  2  1  0
 46 23  2  0
 52 48  1  0
 61 54  1  0
 69 62  1  0
 78 70  1  0
 97 82  1  0
 16  5  1  0
 45 25  2  0
 72 49  1  0
 77 73  2  0
 96 91  1  0
 14  7  1  0
 53 26  1  0
 36 29  1  0
 44 37  1  0
  1 99  1  0
  6100  1  0
  8101  1  0
 13102  1  0
 15103  1  0
 30104  1  0
 31105  1  0
 33106  1  0
 33107  1  0
 34108  1  0
 34109  1  0
 34110  1  0
 35111  1  0
 36112  1  0
 38113  1  0
 39114  1  0
 41115  1  0
 41116  1  0
 42117  1  0
 42118  1  0
 42119  1  0
 43120  1  0
 44121  1  0
 46122  1  0
 47123  1  0
 53124  1  0
 55125  1  0
 56126  1  0
 58127  1  0
 58128  1  0
 59129  1  0
 59130  1  0
 59131  1  0
 60132  1  0
 61133  1  0
 63134  1  0
 64135  1  0
 66136  1  0
 66137  1  0
 67138  1  0
 67139  1  0
 67140  1  0
 68141  1  0
 69142  1  0
 76143  1  0
 79144  1  0
 79145  1  0
 80146  1  0
 80147  1  0
 80148  1  0
 81149  1  0
 92150  1  0
 93151  1  0
 94152  1  0
 95153  1  0
 96154  1  0
M  END

