
     RDKit          3D

157174  0  0  0  0  0  0  0  0999 V2000
    1.1255   -1.5939    9.1263 C   0  0  0  0  0  0  0  0  0  0  0  0
    1.3504   -2.9218    9.1508 C   0  0  0  0  0  0  0  0  0  0  0  0
    1.4625   -3.7830    7.9669 C   0  0  0  0  0  0  0  0  0  0  0  0
    1.2124   -3.4676    6.7776 O   0  0  0  0  0  0  0  0  0  0  0  0
    1.9639   -5.0729    8.3858 C   0  0  0  0  0  0  0  0  0  0  0  0
    2.2598   -6.1703    7.5808 C   0  0  0  0  0  0  0  0  0  0  0  0
    2.7478   -7.3378    8.1868 C   0  0  0  0  0  0  0  0  0  0  0  0
    3.0489   -8.4700    7.4127 C   0  0  0  0  0  0  0  0  0  0  0  0
    3.5360   -9.6289    8.0236 C   0  0  0  0  0  0  0  0  0  0  0  0
    3.8089  -10.7229    7.2736 F   0  0  0  0  0  0  0  0  0  0  0  0
    3.7319   -9.6635    9.4078 C   0  0  0  0  0  0  0  0  0  0  0  0
    4.2126  -10.7903    9.9940 F   0  0  0  0  0  0  0  0  0  0  0  0
    3.4472   -8.5425   10.1892 C   0  0  0  0  0  0  0  0  0  0  0  0
    2.9514   -7.3722    9.5936 C   0  0  0  0  0  0  0  0  0  0  0  0
    2.6537   -6.2397   10.3780 C   0  0  0  0  0  0  0  0  0  0  0  0
    2.1290   -5.0907    9.7595 C   0  0  0  0  0  0  0  0  0  0  0  0
    1.6862   -3.7826   10.3343 C   0  0  0  0  0  0  0  0  0  0  0  0
    1.4689   -3.4959   11.6486 C   0  0  0  0  0  0  0  0  0  0  0  0
    0.7931   -2.2987   12.0922 C   0  0  0  0  0  0  0  0  0  0  0  0
    0.2522   -1.3441   12.4585 N   0  0  0  0  0  0  0  0  0  0  0  0
    1.7922   -4.4114   12.7147 C   0  0  0  0  0  0  0  0  0  0  0  0
    2.0448   -5.1325   13.5857 N   0  0  0  0  0  0  0  0  0  0  0  0
    0.9075   -0.8432    7.8863 C   0  0  0  0  0  0  0  0  0  0  0  0
    2.1341   -0.5116    6.7364 S   0  0  0  0  0  0  0  0  0  0  0  0
    1.0427    0.2247    5.7098 C   0  0  0  0  0  0  0  0  0  0  0  0
    0.9530    0.5718    4.4018 C   0  0  0  0  0  0  0  0  0  0  0  0
    1.9359    0.4957    3.0345 S   0  0  0  0  0  0  0  0  0  0  0  0
    0.5682    0.7987    2.0725 C   0  0  0  0  0  0  0  0  0  0  0  0
    0.3308    0.7520    0.6641 C   0  0  0  0  0  0  0  0  0  0  0  0
    1.2448    0.6199   -0.3838 C   0  0  0  0  0  0  0  0  0  0  0  0
    0.7127    0.5364   -1.6772 C   0  0  0  0  0  0  0  0  0  0  0  0
    1.4787    0.5384   -2.9996 C   0  0  0  0  0  0  0  0  0  0  0  0
    2.2937   -0.7389   -3.2506 C   0  0  0  0  0  0  0  0  0  0  0  0
    2.1487   -1.8942   -2.4505 C   0  0  0  0  0  0  0  0  0  0  0  0
    2.8624   -3.0592   -2.7395 C   0  0  0  0  0  0  0  0  0  0  0  0
    3.7313   -3.1043   -3.8371 C   0  0  0  0  0  0  0  0  0  0  0  0
    4.5436   -4.3433   -4.1126 C   0  0  0  0  0  0  0  0  0  0  0  0
    5.7819   -4.3838   -3.2259 C   0  0  0  0  0  0  0  0  0  0  0  0
    3.8688   -1.9735   -4.6519 C   0  0  0  0  0  0  0  0  0  0  0  0
    3.1500   -0.8124   -4.3695 C   0  0  0  0  0  0  0  0  0  0  0  0
    2.2948    1.8359   -3.0807 C   0  0  0  0  0  0  0  0  0  0  0  0
    3.6590    1.8495   -2.7225 C   0  0  0  0  0  0  0  0  0  0  0  0
    4.3958    3.0356   -2.7388 C   0  0  0  0  0  0  0  0  0  0  0  0
    3.7734    4.2482   -3.0792 C   0  0  0  0  0  0  0  0  0  0  0  0
    4.5491    5.5381   -3.0420 C   0  0  0  0  0  0  0  0  0  0  0  0
    4.4924    6.1657   -1.6532 C   0  0  0  0  0  0  0  0  0  0  0  0
    2.4035    4.2582   -3.3730 C   0  0  0  0  0  0  0  0  0  0  0  0
    1.6717    3.0674   -3.3691 C   0  0  0  0  0  0  0  0  0  0  0  0
    0.2956    0.5254   -3.9433 C   0  0  0  0  0  0  0  0  0  0  0  0
   -0.9024    0.4566   -3.2838 C   0  0  0  0  0  0  0  0  0  0  0  0
   -0.6730    0.5137   -1.8685 C   0  0  0  0  0  0  0  0  0  0  0  0
   -1.5826    0.6558   -0.8189 C   0  0  0  0  0  0  0  0  0  0  0  0
   -1.0500    0.8119    0.4723 C   0  0  0  0  0  0  0  0  0  0  0  0
   -1.7994    1.0535    1.7877 C   0  0  0  0  0  0  0  0  0  0  0  0
   -2.3088    2.5101    1.7362 C   0  0  0  0  0  0  0  0  0  0  0  0
   -1.6575    3.5562    2.4361 C   0  0  0  0  0  0  0  0  0  0  0  0
   -2.0024    4.8944    2.2188 C   0  0  0  0  0  0  0  0  0  0  0  0
   -3.0043    5.2296    1.3022 C   0  0  0  0  0  0  0  0  0  0  0  0
   -3.2719    6.6713    0.9609 C   0  0  0  0  0  0  0  0  0  0  0  0
   -2.4321    7.0878   -0.2430 C   0  0  0  0  0  0  0  0  0  0  0  0
   -3.6733    4.2077    0.6152 C   0  0  0  0  0  0  0  0  0  0  0  0
   -3.3325    2.8710    0.8319 C   0  0  0  0  0  0  0  0  0  0  0  0
   -2.8656   -0.0293    2.0003 C   0  0  0  0  0  0  0  0  0  0  0  0
   -2.5122   -1.3881    1.8474 C   0  0  0  0  0  0  0  0  0  0  0  0
   -3.4505   -2.4046    2.0446 C   0  0  0  0  0  0  0  0  0  0  0  0
   -4.7648   -2.0895    2.4103 C   0  0  0  0  0  0  0  0  0  0  0  0
   -5.7960   -3.1767    2.5675 C   0  0  0  0  0  0  0  0  0  0  0  0
   -6.5559   -3.3930    1.2626 C   0  0  0  0  0  0  0  0  0  0  0  0
   -5.1321   -0.7446    2.5653 C   0  0  0  0  0  0  0  0  0  0  0  0
   -4.1951    0.2738    2.3738 C   0  0  0  0  0  0  0  0  0  0  0  0
   -0.6251    0.8803    2.7580 C   0  0  0  0  0  0  0  0  0  0  0  0
   -0.3819    0.7433    4.1335 C   0  0  0  0  0  0  0  0  0  0  0  0
   -1.1483    0.5215    5.2461 N   0  0  0  0  0  0  0  0  0  0  0  0
   -0.2226    0.1995    6.1922 C   0  0  0  0  0  0  0  0  0  0  0  0
   -0.3462   -0.3991    7.4443 C   0  0  0  0  0  0  0  0  0  0  0  0
   -2.6017    0.4590    5.4039 C   0  0  0  0  0  0  0  0  0  0  0  0
   -3.2156    1.8554    5.3751 C   0  0  0  0  0  0  0  0  0  0  0  0
   -2.2482    0.6681   -4.3004 S   0  0  0  0  0  0  0  0  0  0  0  0
   -1.2175    0.8027   -5.6410 C   0  0  0  0  0  0  0  0  0  0  0  0
    0.1109    0.7456   -5.2972 C   0  0  0  0  0  0  0  0  0  0  0  0
    1.1113    1.1605   -6.6151 S   0  0  0  0  0  0  0  0  0  0  0  0
   -0.2347    1.3691   -7.6339 C   0  0  0  0  0  0  0  0  0  0  0  0
   -0.3884    1.7733   -8.9589 C   0  0  0  0  0  0  0  0  0  0  0  0
   -1.7535    1.8340   -9.2896 C   0  0  0  0  0  0  0  0  0  0  0  0
   -2.7235    1.3765   -7.9603 S   0  0  0  0  0  0  0  0  0  0  0  0
   -1.4046    1.1361   -6.9651 C   0  0  0  0  0  0  0  0  0  0  0  0
   -2.3099    2.1081  -10.6146 C   0  0  0  0  0  0  0  0  0  0  0  0
   -1.8925    3.0576  -11.4754 C   0  0  0  0  0  0  0  0  0  0  0  0
   -2.1417    2.9275  -12.9092 C   0  0  0  0  0  0  0  0  0  0  0  0
   -2.8949    2.0707  -13.4493 O   0  0  0  0  0  0  0  0  0  0  0  0
   -1.3130    3.8724  -13.6075 C   0  0  0  0  0  0  0  0  0  0  0  0
   -0.6034    4.6437  -12.6935 C   0  0  0  0  0  0  0  0  0  0  0  0
    0.2143    5.6920  -13.1724 C   0  0  0  0  0  0  0  0  0  0  0  0
    0.3030    5.9236  -14.5550 C   0  0  0  0  0  0  0  0  0  0  0  0
    1.0521    6.9578  -15.0238 F   0  0  0  0  0  0  0  0  0  0  0  0
   -0.4037    5.1073  -15.4620 C   0  0  0  0  0  0  0  0  0  0  0  0
   -0.3125    5.3371  -16.7971 F   0  0  0  0  0  0  0  0  0  0  0  0
   -1.2123    4.0649  -14.9848 C   0  0  0  0  0  0  0  0  0  0  0  0
   -1.9272    3.2910  -15.8511 F   0  0  0  0  0  0  0  0  0  0  0  0
   -0.9745    4.2334  -11.3004 C   0  0  0  0  0  0  0  0  0  0  0  0
   -0.7918    4.9797  -10.1791 C   0  0  0  0  0  0  0  0  0  0  0  0
    0.0985    6.1094  -10.1199 C   0  0  0  0  0  0  0  0  0  0  0  0
    0.8088    7.0193  -10.0522 N   0  0  0  0  0  0  0  0  0  0  0  0
   -1.4984    4.7405   -8.9494 C   0  0  0  0  0  0  0  0  0  0  0  0
   -2.0276    4.5782   -7.9277 N   0  0  0  0  0  0  0  0  0  0  0  0
    1.1437   -1.0010   10.0199 H   0  0  0  0  0  0  0  0  0  0  0  0
    2.1115   -6.1146    6.5123 H   0  0  0  0  0  0  0  0  0  0  0  0
    2.9005   -8.4614    6.3396 H   0  0  0  0  0  0  0  0  0  0  0  0
    3.6155   -8.5867   11.2587 H   0  0  0  0  0  0  0  0  0  0  0  0
    2.8419   -6.2778   11.4366 H   0  0  0  0  0  0  0  0  0  0  0  0
    2.3113    0.6020   -0.2045 H   0  0  0  0  0  0  0  0  0  0  0  0
    1.4824   -1.9164   -1.5981 H   0  0  0  0  0  0  0  0  0  0  0  0
    2.7487   -3.9298   -2.1017 H   0  0  0  0  0  0  0  0  0  0  0  0
    3.9249   -5.2490   -3.9255 H   0  0  0  0  0  0  0  0  0  0  0  0
    4.8580   -4.3734   -5.1810 H   0  0  0  0  0  0  0  0  0  0  0  0
    6.3802   -5.2917   -3.4569 H   0  0  0  0  0  0  0  0  0  0  0  0
    6.4110   -3.4876   -3.4013 H   0  0  0  0  0  0  0  0  0  0  0  0
    5.4846   -4.4157   -2.1548 H   0  0  0  0  0  0  0  0  0  0  0  0
    4.5382   -1.9922   -5.5041 H   0  0  0  0  0  0  0  0  0  0  0  0
    3.2724    0.0418   -5.0214 H   0  0  0  0  0  0  0  0  0  0  0  0
    4.1614    0.9413   -2.4081 H   0  0  0  0  0  0  0  0  0  0  0  0
    5.4392    3.0185   -2.4502 H   0  0  0  0  0  0  0  0  0  0  0  0
    4.1305    6.2552   -3.7844 H   0  0  0  0  0  0  0  0  0  0  0  0
    5.6091    5.3576   -3.3219 H   0  0  0  0  0  0  0  0  0  0  0  0
    5.0190    7.1435   -1.6664 H   0  0  0  0  0  0  0  0  0  0  0  0
    4.9879    5.5010   -0.9128 H   0  0  0  0  0  0  0  0  0  0  0  0
    3.4368    6.3316   -1.3497 H   0  0  0  0  0  0  0  0  0  0  0  0
    1.8995    5.1906   -3.5930 H   0  0  0  0  0  0  0  0  0  0  0  0
    0.6095    3.1183   -3.5724 H   0  0  0  0  0  0  0  0  0  0  0  0
   -2.6475    0.6657   -1.0081 H   0  0  0  0  0  0  0  0  0  0  0  0
   -0.8491    3.3630    3.1274 H   0  0  0  0  0  0  0  0  0  0  0  0
   -1.4583    5.6697    2.7434 H   0  0  0  0  0  0  0  0  0  0  0  0
   -3.0209    7.3283    1.8221 H   0  0  0  0  0  0  0  0  0  0  0  0
   -4.3479    6.8159    0.7270 H   0  0  0  0  0  0  0  0  0  0  0  0
   -2.6328    8.1514   -0.4904 H   0  0  0  0  0  0  0  0  0  0  0  0
   -1.3497    6.9731   -0.0100 H   0  0  0  0  0  0  0  0  0  0  0  0
   -2.6791    6.4642   -1.1281 H   0  0  0  0  0  0  0  0  0  0  0  0
   -4.4462    4.4464   -0.1057 H   0  0  0  0  0  0  0  0  0  0  0  0
   -3.8563    2.1145    0.2665 H   0  0  0  0  0  0  0  0  0  0  0  0
   -1.5035   -1.6663    1.5784 H   0  0  0  0  0  0  0  0  0  0  0  0
   -3.1562   -3.4387    1.9054 H   0  0  0  0  0  0  0  0  0  0  0  0
   -6.5161   -2.9089    3.3742 H   0  0  0  0  0  0  0  0  0  0  0  0
   -5.3050   -4.1271    2.8652 H   0  0  0  0  0  0  0  0  0  0  0  0
   -7.0714   -2.4622    0.9503 H   0  0  0  0  0  0  0  0  0  0  0  0
   -5.8572   -3.7092    0.4573 H   0  0  0  0  0  0  0  0  0  0  0  0
   -7.3142   -4.1891    1.4093 H   0  0  0  0  0  0  0  0  0  0  0  0
   -6.1479   -0.4813    2.8367 H   0  0  0  0  0  0  0  0  0  0  0  0
   -4.5196    1.2900    2.5526 H   0  0  0  0  0  0  0  0  0  0  0  0
   -1.2748   -0.5772    7.9650 H   0  0  0  0  0  0  0  0  0  0  0  0
   -3.0386   -0.1999    4.6351 H   0  0  0  0  0  0  0  0  0  0  0  0
   -2.8591    0.0006    6.3817 H   0  0  0  0  0  0  0  0  0  0  0  0
   -4.2937    1.7902    5.6297 H   0  0  0  0  0  0  0  0  0  0  0  0
   -2.7101    2.5081    6.1182 H   0  0  0  0  0  0  0  0  0  0  0  0
   -3.1165    2.3012    4.3717 H   0  0  0  0  0  0  0  0  0  0  0  0
    0.4253    2.0040   -9.6343 H   0  0  0  0  0  0  0  0  0  0  0  0
   -3.0290    1.3802  -10.9633 H   0  0  0  0  0  0  0  0  0  0  0  0
    0.7804    6.3316  -12.5199 H   0  0  0  0  0  0  0  0  0  0  0  0
  1  2  2  3
  2  3  1  0
  3  4  2  0
  3  5  1  0
  5  6  2  0
  6  7  1  0
  7  8  2  0
  8  9  1  0
  9 10  1  0
  9 11  2  0
 11 12  1  0
 11 13  1  0
 13 14  2  0
 14 15  1  0
 15 16  2  0
 16 17  1  0
 17 18  2  3
 18 19  1  0
 19 20  3  0
 18 21  1  0
 21 22  3  0
  1 23  1  0
 23 24  1  0
 24 25  1  0
 25 26  1  0
 26 27  1  0
 27 28  1  0
 28 29  1  0
 29 30  2  0
 30 31  1  0
 31 32  1  0
 32 33  1  0
 33 34  2  0
 34 35  1  0
 35 36  2  0
 36 37  1  0
 37 38  1  0
 36 39  1  0
 39 40  2  0
 32 41  1  0
 41 42  2  0
 42 43  1  0
 43 44  2  0
 44 45  1  0
 45 46  1  0
 44 47  1  0
 47 48  2  0
 32 49  1  0
 49 50  2  0
 50 51  1  0
 51 52  1  0
 52 53  2  0
 53 54  1  0
 54 55  1  0
 55 56  2  0
 56 57  1  0
 57 58  2  0
 58 59  1  0
 59 60  1  0
 58 61  1  0
 61 62  2  0
 54 63  1  0
 63 64  2  0
 64 65  1  0
 65 66  2  0
 66 67  1  0
 67 68  1  0
 66 69  1  0
 69 70  2  0
 54 71  1  0
 71 72  1  0
 72 73  1  0
 73 74  1  0
 74 75  1  0
 73 76  1  0
 76 77  1  0
 50 78  1  0
 78 79  1  0
 79 80  2  0
 80 81  1  0
 81 82  1  0
 82 83  1  0
 83 84  2  0
 84 85  1  0
 85 86  1  0
 84 87  1  0
 87 88  2  3
 88 89  1  0
 89 90  2  0
 89 91  1  0
 91 92  2  0
 92 93  1  0
 93 94  2  0
 94 95  1  0
 94 96  1  0
 96 97  1  0
 96 98  2  0
 98 99  1  0
 92100  1  0
100101  2  3
101102  1  0
102103  3  0
101104  1  0
104105  3  0
 17  2  1  0
 75 23  2  0
 86 79  1  0
100 88  1  0
 16  5  1  0
 74 25  2  0
 86 82  2  0
 98 91  1  0
 14  7  1  0
 72 26  2  0
 71 28  2  0
 53 29  1  0
 62 55  1  0
 70 63  1  0
 51 31  2  0
 40 33  1  0
 48 41  1  0
 80 49  1  0
  1106  1  0
  6107  1  0
  8108  1  0
 13109  1  0
 15110  1  0
 30111  1  0
 34112  1  0
 35113  1  0
 37114  1  0
 37115  1  0
 38116  1  0
 38117  1  0
 38118  1  0
 39119  1  0
 40120  1  0
 42121  1  0
 43122  1  0
 45123  1  0
 45124  1  0
 46125  1  0
 46126  1  0
 46127  1  0
 47128  1  0
 48129  1  0
 52130  1  0
 56131  1  0
 57132  1  0
 59133  1  0
 59134  1  0
 60135  1  0
 60136  1  0
 60137  1  0
 61138  1  0
 62139  1  0
 64140  1  0
 65141  1  0
 67142  1  0
 67143  1  0
 68144  1  0
 68145  1  0
 68146  1  0
 69147  1  0
 70148  1  0
 75149  1  0
 76150  1  0
 76151  1  0
 77152  1  0
 77153  1  0
 77154  1  0
 83155  1  0
 87156  1  0
 93157  1  0
M  END

