
     RDKit          3D

162178  0  0  0  0  0  0  0  0999 V2000
    7.6636    3.9427   -1.2911 C   0  0  0  0  0  0  0  0  0  0  0  0
    8.8288    3.7011   -1.9352 C   0  0  0  0  0  0  0  0  0  0  0  0
    8.9426    3.1615   -3.2942 C   0  0  0  0  0  0  0  0  0  0  0  0
    8.0096    2.6881   -3.9929 O   0  0  0  0  0  0  0  0  0  0  0  0
   10.3270    3.2478   -3.7078 C   0  0  0  0  0  0  0  0  0  0  0  0
   10.8781    2.8406   -4.9264 C   0  0  0  0  0  0  0  0  0  0  0  0
   12.2715    2.9302   -5.0972 C   0  0  0  0  0  0  0  0  0  0  0  0
   12.8754    2.5204   -6.2969 C   0  0  0  0  0  0  0  0  0  0  0  0
   14.2685    2.5592   -6.4346 C   0  0  0  0  0  0  0  0  0  0  0  0
   14.8413    2.1614   -7.5964 F   0  0  0  0  0  0  0  0  0  0  0  0
   15.0699    2.9841   -5.3635 C   0  0  0  0  0  0  0  0  0  0  0  0
   16.4177    2.9991   -5.4972 F   0  0  0  0  0  0  0  0  0  0  0  0
   14.4792    3.4291   -4.1810 C   0  0  0  0  0  0  0  0  0  0  0  0
   13.0812    3.4079   -4.0292 C   0  0  0  0  0  0  0  0  0  0  0  0
   12.4904    3.8412   -2.8326 C   0  0  0  0  0  0  0  0  0  0  0  0
   11.0937    3.7691   -2.6784 C   0  0  0  0  0  0  0  0  0  0  0  0
   10.2151    4.0990   -1.5087 C   0  0  0  0  0  0  0  0  0  0  0  0
   10.6220    4.5700   -0.2967 C   0  0  0  0  0  0  0  0  0  0  0  0
   11.9685    4.9906   -0.0258 C   0  0  0  0  0  0  0  0  0  0  0  0
   13.0454    5.3358    0.2285 N   0  0  0  0  0  0  0  0  0  0  0  0
    9.7423    4.7298    0.8342 C   0  0  0  0  0  0  0  0  0  0  0  0
    9.0389    4.8633    1.7478 N   0  0  0  0  0  0  0  0  0  0  0  0
    6.3386    3.4427   -1.7030 C   0  0  0  0  0  0  0  0  0  0  0  0
    5.9307    1.7981   -1.8815 S   0  0  0  0  0  0  0  0  0  0  0  0
    4.2686    2.0143   -1.7788 C   0  0  0  0  0  0  0  0  0  0  0  0
    3.2950    1.2087   -1.0872 C   0  0  0  0  0  0  0  0  0  0  0  0
    2.5112    1.9914   -0.2634 C   0  0  0  0  0  0  0  0  0  0  0  0
    2.7092    3.4726   -0.6901 C   0  0  0  0  0  0  0  0  0  0  0  0
    4.0318    3.3149   -1.4258 C   0  0  0  0  0  0  0  0  0  0  0  0
    5.1636    4.1471   -1.4308 C   0  0  0  0  0  0  0  0  0  0  0  0
    2.7970    4.4332    0.5052 C   0  0  0  0  0  0  0  0  0  0  0  0
    1.7198    5.2886    0.8305 C   0  0  0  0  0  0  0  0  0  0  0  0
    1.7849    6.1390    1.9377 C   0  0  0  0  0  0  0  0  0  0  0  0
    2.9104    6.1386    2.7707 C   0  0  0  0  0  0  0  0  0  0  0  0
    2.9485    7.0129    3.9993 C   0  0  0  0  0  0  0  0  0  0  0  0
    3.0407    8.4937    3.6316 C   0  0  0  0  0  0  0  0  0  0  0  0
    3.9806    5.2699    2.4742 C   0  0  0  0  0  0  0  0  0  0  0  0
    3.9091    4.4116    1.3703 C   0  0  0  0  0  0  0  0  0  0  0  0
    1.7388    3.9792   -1.7864 C   0  0  0  0  0  0  0  0  0  0  0  0
    1.9816    5.2379   -2.3879 C   0  0  0  0  0  0  0  0  0  0  0  0
    1.2742    5.6444   -3.5214 C   0  0  0  0  0  0  0  0  0  0  0  0
    0.3022    4.8079   -4.0925 C   0  0  0  0  0  0  0  0  0  0  0  0
   -0.3479    5.1795   -5.3928 C   0  0  0  0  0  0  0  0  0  0  0  0
    0.5613    4.8387   -6.5657 C   0  0  0  0  0  0  0  0  0  0  0  0
    0.0122    3.5883   -3.4828 C   0  0  0  0  0  0  0  0  0  0  0  0
    0.7057    3.1864   -2.3438 C   0  0  0  0  0  0  0  0  0  0  0  0
    1.3650    1.2904    0.1975 C   0  0  0  0  0  0  0  0  0  0  0  0
    0.6068    1.5070    1.3771 C   0  0  0  0  0  0  0  0  0  0  0  0
    1.1000    2.3503    2.5323 C   0  0  0  0  0  0  0  0  0  0  0  0
    0.0574    3.3870    2.9704 C   0  0  0  0  0  0  0  0  0  0  0  0
   -0.4770    0.6486    1.6339 C   0  0  0  0  0  0  0  0  0  0  0  0
   -0.8493   -0.3533    0.7156 C   0  0  0  0  0  0  0  0  0  0  0  0
   -1.9650   -1.1625    0.9363 C   0  0  0  0  0  0  0  0  0  0  0  0
   -2.8348   -1.2601    2.3822 S   0  0  0  0  0  0  0  0  0  0  0  0
   -3.8820   -2.3887    1.7600 C   0  0  0  0  0  0  0  0  0  0  0  0
   -4.8657   -3.2219    2.3476 C   0  0  0  0  0  0  0  0  0  0  0  0
   -5.2827   -4.1088    1.4027 C   0  0  0  0  0  0  0  0  0  0  0  0
   -4.6721   -3.8044    0.0250 C   0  0  0  0  0  0  0  0  0  0  0  0
   -5.7213   -3.0990   -0.8733 C   0  0  0  0  0  0  0  0  0  0  0  0
   -6.5743   -2.1153   -0.3126 C   0  0  0  0  0  0  0  0  0  0  0  0
   -7.4205   -1.3364   -1.1061 C   0  0  0  0  0  0  0  0  0  0  0  0
   -7.4787   -1.5464   -2.4870 C   0  0  0  0  0  0  0  0  0  0  0  0
   -8.3644   -0.6732   -3.3460 C   0  0  0  0  0  0  0  0  0  0  0  0
   -9.8496   -0.9367   -3.0872 C   0  0  0  0  0  0  0  0  0  0  0  0
   -6.6658   -2.5306   -3.0671 C   0  0  0  0  0  0  0  0  0  0  0  0
   -5.7902   -3.2858   -2.2739 C   0  0  0  0  0  0  0  0  0  0  0  0
   -4.1172   -5.1213   -0.5431 C   0  0  0  0  0  0  0  0  0  0  0  0
   -2.7615   -5.4917   -0.4082 C   0  0  0  0  0  0  0  0  0  0  0  0
   -2.2927   -6.7086   -0.9307 C   0  0  0  0  0  0  0  0  0  0  0  0
   -3.1875   -7.6177   -1.5039 C   0  0  0  0  0  0  0  0  0  0  0  0
   -2.6970   -8.9351   -2.0562 C   0  0  0  0  0  0  0  0  0  0  0  0
   -2.6584   -8.9256   -3.5802 C   0  0  0  0  0  0  0  0  0  0  0  0
   -4.5432   -7.2915   -1.5845 C   0  0  0  0  0  0  0  0  0  0  0  0
   -5.0000   -6.0666   -1.1034 C   0  0  0  0  0  0  0  0  0  0  0  0
   -3.6171   -2.7464    0.4615 C   0  0  0  0  0  0  0  0  0  0  0  0
   -2.4726   -2.0483   -0.0418 C   0  0  0  0  0  0  0  0  0  0  0  0
   -1.7719   -2.1664   -1.2715 C   0  0  0  0  0  0  0  0  0  0  0  0
   -2.3142   -2.8507   -2.4975 C   0  0  0  0  0  0  0  0  0  0  0  0
   -2.9391   -1.8407   -3.4521 C   0  0  0  0  0  0  0  0  0  0  0  0
   -0.5336   -1.4985   -1.4144 C   0  0  0  0  0  0  0  0  0  0  0  0
   -0.0720   -0.5913   -0.4391 C   0  0  0  0  0  0  0  0  0  0  0  0
    1.1153    0.1504   -0.5810 C   0  0  0  0  0  0  0  0  0  0  0  0
    2.4087   -0.1182   -1.6436 S   0  0  0  0  0  0  0  0  0  0  0  0
   -5.8414   -5.2762    1.9498 C   0  0  0  0  0  0  0  0  0  0  0  0
   -5.7807   -5.2866    3.3497 C   0  0  0  0  0  0  0  0  0  0  0  0
   -4.9921   -3.8765    3.8819 S   0  0  0  0  0  0  0  0  0  0  0  0
   -5.9707   -6.5074    4.1560 C   0  0  0  0  0  0  0  0  0  0  0  0
   -5.9120   -6.5852    5.4982 C   0  0  0  0  0  0  0  0  0  0  0  0
   -5.3095   -7.7395    6.1878 C   0  0  0  0  0  0  0  0  0  0  0  0
   -5.1296   -8.8893    5.6927 O   0  0  0  0  0  0  0  0  0  0  0  0
   -4.8619   -7.3206    7.5013 C   0  0  0  0  0  0  0  0  0  0  0  0
   -5.2472   -6.0065    7.7114 C   0  0  0  0  0  0  0  0  0  0  0  0
   -4.8169   -5.3241    8.8604 C   0  0  0  0  0  0  0  0  0  0  0  0
   -3.9867   -5.9941    9.7852 C   0  0  0  0  0  0  0  0  0  0  0  0
   -3.5855   -5.3670   10.9129 F   0  0  0  0  0  0  0  0  0  0  0  0
   -3.5970   -7.3254    9.5542 C   0  0  0  0  0  0  0  0  0  0  0  0
   -2.7379   -7.9396   10.4107 F   0  0  0  0  0  0  0  0  0  0  0  0
   -4.0242   -7.9923    8.3964 C   0  0  0  0  0  0  0  0  0  0  0  0
   -3.6029   -9.2608    8.1499 F   0  0  0  0  0  0  0  0  0  0  0  0
   -6.0128   -5.5093    6.5336 C   0  0  0  0  0  0  0  0  0  0  0  0
   -6.9316   -4.5034    6.5325 C   0  0  0  0  0  0  0  0  0  0  0  0
   -7.8208   -4.2806    5.4215 C   0  0  0  0  0  0  0  0  0  0  0  0
   -8.5168   -4.0738    4.5225 N   0  0  0  0  0  0  0  0  0  0  0  0
   -7.0907   -3.6093    7.6515 C   0  0  0  0  0  0  0  0  0  0  0  0
   -7.2268   -2.8779    8.5403 N   0  0  0  0  0  0  0  0  0  0  0  0
    7.6446    4.5471   -0.4033 H   0  0  0  0  0  0  0  0  0  0  0  0
   10.2463    2.4496   -5.7128 H   0  0  0  0  0  0  0  0  0  0  0  0
   12.2726    2.1748   -7.1277 H   0  0  0  0  0  0  0  0  0  0  0  0
   15.1141    3.7692   -3.3722 H   0  0  0  0  0  0  0  0  0  0  0  0
   13.1340    4.1815   -2.0432 H   0  0  0  0  0  0  0  0  0  0  0  0
    5.1496    5.1679   -1.0872 H   0  0  0  0  0  0  0  0  0  0  0  0
    0.8113    5.2862    0.2404 H   0  0  0  0  0  0  0  0  0  0  0  0
    0.9367    6.7776    2.1567 H   0  0  0  0  0  0  0  0  0  0  0  0
    2.0241    6.8406    4.5943 H   0  0  0  0  0  0  0  0  0  0  0  0
    3.8118    6.7464    4.6457 H   0  0  0  0  0  0  0  0  0  0  0  0
    3.1048    9.0941    4.5604 H   0  0  0  0  0  0  0  0  0  0  0  0
    3.9503    8.6860    3.0228 H   0  0  0  0  0  0  0  0  0  0  0  0
    2.1403    8.8148    3.0688 H   0  0  0  0  0  0  0  0  0  0  0  0
    4.8503    5.2368    3.1136 H   0  0  0  0  0  0  0  0  0  0  0  0
    4.7308    3.7282    1.1976 H   0  0  0  0  0  0  0  0  0  0  0  0
    2.7578    5.8831   -1.9994 H   0  0  0  0  0  0  0  0  0  0  0  0
    1.5221    6.5887   -3.9889 H   0  0  0  0  0  0  0  0  0  0  0  0
   -0.5774    6.2614   -5.4102 H   0  0  0  0  0  0  0  0  0  0  0  0
   -1.3115    4.6375   -5.5148 H   0  0  0  0  0  0  0  0  0  0  0  0
    1.5158    5.4016   -6.4884 H   0  0  0  0  0  0  0  0  0  0  0  0
    0.0736    5.1116   -7.5236 H   0  0  0  0  0  0  0  0  0  0  0  0
    0.7804    3.7522   -6.5828 H   0  0  0  0  0  0  0  0  0  0  0  0
   -0.7317    2.9238   -3.9045 H   0  0  0  0  0  0  0  0  0  0  0  0
    0.4469    2.2290   -1.9497 H   0  0  0  0  0  0  0  0  0  0  0  0
    1.3064    1.6760    3.3997 H   0  0  0  0  0  0  0  0  0  0  0  0
    2.0593    2.8373    2.3204 H   0  0  0  0  0  0  0  0  0  0  0  0
   -0.7846    2.9021    3.5009 H   0  0  0  0  0  0  0  0  0  0  0  0
   -0.3425    3.9338    2.0916 H   0  0  0  0  0  0  0  0  0  0  0  0
    0.5264    4.1143    3.6639 H   0  0  0  0  0  0  0  0  0  0  0  0
   -1.0294    0.7641    2.5606 H   0  0  0  0  0  0  0  0  0  0  0  0
   -6.5710   -1.9023    0.7434 H   0  0  0  0  0  0  0  0  0  0  0  0
   -8.0228   -0.5630   -0.6390 H   0  0  0  0  0  0  0  0  0  0  0  0
   -8.1563   -0.8524   -4.4261 H   0  0  0  0  0  0  0  0  0  0  0  0
   -8.1273    0.3963   -3.1364 H   0  0  0  0  0  0  0  0  0  0  0  0
  -10.1080   -0.7684   -2.0260 H   0  0  0  0  0  0  0  0  0  0  0  0
  -10.0980   -1.9775   -3.3679 H   0  0  0  0  0  0  0  0  0  0  0  0
  -10.4609   -0.2583   -3.7109 H   0  0  0  0  0  0  0  0  0  0  0  0
   -6.6741   -2.6917   -4.1356 H   0  0  0  0  0  0  0  0  0  0  0  0
   -5.1467   -3.9825   -2.7798 H   0  0  0  0  0  0  0  0  0  0  0  0
   -2.0511   -4.8312    0.0646 H   0  0  0  0  0  0  0  0  0  0  0  0
   -1.2369   -6.9399   -0.8553 H   0  0  0  0  0  0  0  0  0  0  0  0
   -3.3760   -9.7424   -1.7209 H   0  0  0  0  0  0  0  0  0  0  0  0
   -1.6841   -9.1743   -1.6735 H   0  0  0  0  0  0  0  0  0  0  0  0
   -3.6281   -8.5755   -3.9991 H   0  0  0  0  0  0  0  0  0  0  0  0
   -1.8445   -8.2696   -3.9468 H   0  0  0  0  0  0  0  0  0  0  0  0
   -2.4851   -9.9566   -3.9541 H   0  0  0  0  0  0  0  0  0  0  0  0
   -5.2538   -7.9899   -2.0244 H   0  0  0  0  0  0  0  0  0  0  0  0
   -6.0619   -5.8584   -1.1663 H   0  0  0  0  0  0  0  0  0  0  0  0
   -1.5001   -3.3936   -3.0222 H   0  0  0  0  0  0  0  0  0  0  0  0
   -3.0531   -3.6054   -2.2396 H   0  0  0  0  0  0  0  0  0  0  0  0
   -2.1452   -1.2381   -3.9393 H   0  0  0  0  0  0  0  0  0  0  0  0
   -3.6336   -1.1547   -2.9077 H   0  0  0  0  0  0  0  0  0  0  0  0
   -3.5153   -2.3719   -4.2347 H   0  0  0  0  0  0  0  0  0  0  0  0
    0.0265   -1.6022   -2.3282 H   0  0  0  0  0  0  0  0  0  0  0  0
   -6.1169   -6.1489    1.3739 H   0  0  0  0  0  0  0  0  0  0  0  0
   -5.8943   -7.4325    3.6033 H   0  0  0  0  0  0  0  0  0  0  0  0
   -5.0402   -4.2744    9.0204 H   0  0  0  0  0  0  0  0  0  0  0  0
  1  2  2  3
  2  3  1  0
  3  4  2  0
  3  5  1  0
  5  6  2  0
  6  7  1  0
  7  8  2  0
  8  9  1  0
  9 10  1  0
  9 11  2  0
 11 12  1  0
 11 13  1  0
 13 14  2  0
 14 15  1  0
 15 16  2  0
 16 17  1  0
 17 18  2  3
 18 19  1  0
 19 20  3  0
 18 21  1  0
 21 22  3  0
  1 23  1  0
 23 24  1  0
 24 25  1  0
 25 26  1  0
 26 27  2  0
 27 28  1  0
 28 29  1  0
 29 30  1  0
 28 31  1  0
 31 32  2  0
 32 33  1  0
 33 34  2  0
 34 35  1  0
 35 36  1  0
 34 37  1  0
 37 38  2  0
 28 39  1  0
 39 40  2  0
 40 41  1  0
 41 42  2  0
 42 43  1  0
 43 44  1  0
 42 45  1  0
 45 46  2  0
 27 47  1  0
 47 48  2  0
 48 49  1  0
 49 50  1  0
 48 51  1  0
 51 52  2  0
 52 53  1  0
 53 54  1  0
 54 55  1  0
 55 56  1  0
 56 57  2  0
 57 58  1  0
 58 59  1  0
 59 60  2  0
 60 61  1  0
 61 62  2  0
 62 63  1  0
 63 64  1  0
 62 65  1  0
 65 66  2  0
 58 67  1  0
 67 68  2  0
 68 69  1  0
 69 70  2  0
 70 71  1  0
 71 72  1  0
 70 73  1  0
 73 74  2  0
 58 75  1  0
 75 76  1  0
 76 77  1  0
 77 78  1  0
 78 79  1  0
 77 80  2  0
 80 81  1  0
 81 82  2  0
 82 83  1  0
 57 84  1  0
 84 85  2  0
 85 86  1  0
 85 87  1  0
 87 88  2  3
 88 89  1  0
 89 90  2  0
 89 91  1  0
 91 92  2  0
 92 93  1  0
 93 94  2  0
 94 95  1  0
 94 96  1  0
 96 97  1  0
 96 98  2  0
 98 99  1  0
 92100  1  0
100101  2  3
101102  1  0
102103  3  0
101104  1  0
104105  3  0
 17  2  1  0
 30 23  2  0
 38 31  1  0
 46 39  1  0
 82 47  1  0
100 88  1  0
 16  5  1  0
 29 25  2  0
 81 52  1  0
 98 91  1  0
 14  7  1  0
 83 26  1  0
 76 53  2  0
 75 55  2  0
 86 56  1  0
 66 59  1  0
 74 67  1  0
  1106  1  0
  6107  1  0
  8108  1  0
 13109  1  0
 15110  1  0
 30111  1  0
 32112  1  0
 33113  1  0
 35114  1  0
 35115  1  0
 36116  1  0
 36117  1  0
 36118  1  0
 37119  1  0
 38120  1  0
 40121  1  0
 41122  1  0
 43123  1  0
 43124  1  0
 44125  1  0
 44126  1  0
 44127  1  0
 45128  1  0
 46129  1  0
 49130  1  0
 49131  1  0
 50132  1  0
 50133  1  0
 50134  1  0
 51135  1  0
 60136  1  0
 61137  1  0
 63138  1  0
 63139  1  0
 64140  1  0
 64141  1  0
 64142  1  0
 65143  1  0
 66144  1  0
 68145  1  0
 69146  1  0
 71147  1  0
 71148  1  0
 72149  1  0
 72150  1  0
 72151  1  0
 73152  1  0
 74153  1  0
 78154  1  0
 78155  1  0
 79156  1  0
 79157  1  0
 79158  1  0
 80159  1  0
 84160  1  0
 87161  1  0
 93162  1  0
M  END

