
     RDKit          3D

154170  0  0  0  0  0  0  0  0999 V2000
   -2.6204   -0.7867    8.6571 C   0  0  0  0  0  0  0  0  0  0  0  0
   -2.6469    0.5359    8.9073 C   0  0  0  0  0  0  0  0  0  0  0  0
   -2.4762    1.5808    7.8940 C   0  0  0  0  0  0  0  0  0  0  0  0
   -1.7505    1.5131    6.8671 O   0  0  0  0  0  0  0  0  0  0  0  0
   -3.2541    2.7332    8.2962 C   0  0  0  0  0  0  0  0  0  0  0  0
   -3.5705    3.8535    7.5354 C   0  0  0  0  0  0  0  0  0  0  0  0
   -4.4502    4.8020    8.0779 C   0  0  0  0  0  0  0  0  0  0  0  0
   -4.8098    5.9344    7.3338 C   0  0  0  0  0  0  0  0  0  0  0  0
   -5.6930    6.8765    7.8689 C   0  0  0  0  0  0  0  0  0  0  0  0
   -6.0233    7.9726    7.1365 F   0  0  0  0  0  0  0  0  0  0  0  0
   -6.2282    6.6903    9.1512 C   0  0  0  0  0  0  0  0  0  0  0  0
   -7.0875    7.6027    9.6625 F   0  0  0  0  0  0  0  0  0  0  0  0
   -5.8941    5.5524    9.8978 C   0  0  0  0  0  0  0  0  0  0  0  0
   -4.9995    4.6037    9.3759 C   0  0  0  0  0  0  0  0  0  0  0  0
   -4.6629    3.4481   10.1169 C   0  0  0  0  0  0  0  0  0  0  0  0
   -3.7679    2.5214    9.5638 C   0  0  0  0  0  0  0  0  0  0  0  0
   -3.2799    1.2060   10.0766 C   0  0  0  0  0  0  0  0  0  0  0  0
   -3.2148    0.8039   11.3671 C   0  0  0  0  0  0  0  0  0  0  0  0
   -2.4756   -0.3661   11.7619 C   0  0  0  0  0  0  0  0  0  0  0  0
   -1.8821   -1.3078   12.0860 N   0  0  0  0  0  0  0  0  0  0  0  0
   -3.7857    1.5793   12.4397 C   0  0  0  0  0  0  0  0  0  0  0  0
   -4.2654    2.1927   13.3020 N   0  0  0  0  0  0  0  0  0  0  0  0
   -2.5532   -1.3123    7.2811 C   0  0  0  0  0  0  0  0  0  0  0  0
   -1.3206   -2.3292    6.6676 S   0  0  0  0  0  0  0  0  0  0  0  0
   -1.8645   -2.1586    5.0824 C   0  0  0  0  0  0  0  0  0  0  0  0
   -1.3681   -2.2557    3.8143 C   0  0  0  0  0  0  0  0  0  0  0  0
    0.0231   -2.8209    3.0339 S   0  0  0  0  0  0  0  0  0  0  0  0
   -0.4434   -1.9846    1.6255 C   0  0  0  0  0  0  0  0  0  0  0  0
    0.2291   -1.6525    0.3993 C   0  0  0  0  0  0  0  0  0  0  0  0
    1.2752   -2.3173   -0.2532 C   0  0  0  0  0  0  0  0  0  0  0  0
    1.6539   -1.8263   -1.5083 C   0  0  0  0  0  0  0  0  0  0  0  0
    2.6987   -2.3884   -2.4778 C   0  0  0  0  0  0  0  0  0  0  0  0
    2.2183   -3.6245   -3.2501 C   0  0  0  0  0  0  0  0  0  0  0  0
    3.1147   -4.3028   -4.1010 C   0  0  0  0  0  0  0  0  0  0  0  0
    2.6794   -5.3559   -4.9116 C   0  0  0  0  0  0  0  0  0  0  0  0
    1.3367   -5.7596   -4.8936 C   0  0  0  0  0  0  0  0  0  0  0  0
    0.8783   -6.9136   -5.7385 C   0  0  0  0  0  0  0  0  0  0  0  0
    0.9888   -8.2264   -4.9679 C   0  0  0  0  0  0  0  0  0  0  0  0
    0.4377   -5.0979   -4.0513 C   0  0  0  0  0  0  0  0  0  0  0  0
    0.8648   -4.0314   -3.2515 C   0  0  0  0  0  0  0  0  0  0  0  0
    4.0098   -2.6095   -1.7227 C   0  0  0  0  0  0  0  0  0  0  0  0
    4.9138   -1.5571   -1.4897 C   0  0  0  0  0  0  0  0  0  0  0  0
    6.0615   -1.7541   -0.7140 C   0  0  0  0  0  0  0  0  0  0  0  0
    6.3075   -3.0016   -0.1184 C   0  0  0  0  0  0  0  0  0  0  0  0
    7.5522   -3.2173    0.6986 C   0  0  0  0  0  0  0  0  0  0  0  0
    8.7643   -3.4390   -0.2048 C   0  0  0  0  0  0  0  0  0  0  0  0
    5.4043   -4.0514   -0.3310 C   0  0  0  0  0  0  0  0  0  0  0  0
    4.2606   -3.8521   -1.1084 C   0  0  0  0  0  0  0  0  0  0  0  0
    2.7266   -1.2435   -3.4664 C   0  0  0  0  0  0  0  0  0  0  0  0
    1.7389   -0.3332   -3.2275 C   0  0  0  0  0  0  0  0  0  0  0  0
    1.0426   -0.6745   -2.0222 C   0  0  0  0  0  0  0  0  0  0  0  0
   -0.0344   -0.0457   -1.4026 C   0  0  0  0  0  0  0  0  0  0  0  0
   -0.4652   -0.5869   -0.1814 C   0  0  0  0  0  0  0  0  0  0  0  0
   -1.7371   -0.2397    0.5968 C   0  0  0  0  0  0  0  0  0  0  0  0
   -2.9776   -0.6670   -0.2275 C   0  0  0  0  0  0  0  0  0  0  0  0
   -2.9428   -1.8887   -0.9400 C   0  0  0  0  0  0  0  0  0  0  0  0
   -4.0378   -2.3265   -1.6853 C   0  0  0  0  0  0  0  0  0  0  0  0
   -5.2147   -1.5707   -1.7262 C   0  0  0  0  0  0  0  0  0  0  0  0
   -6.3920   -2.0577   -2.5231 C   0  0  0  0  0  0  0  0  0  0  0  0
   -7.0868   -3.2225   -1.8160 C   0  0  0  0  0  0  0  0  0  0  0  0
   -5.2822   -0.3739   -1.0002 C   0  0  0  0  0  0  0  0  0  0  0  0
   -4.1799    0.0707   -0.2616 C   0  0  0  0  0  0  0  0  0  0  0  0
   -1.6266    1.2406    0.9898 C   0  0  0  0  0  0  0  0  0  0  0  0
   -0.9390    1.6324    2.1599 C   0  0  0  0  0  0  0  0  0  0  0  0
   -0.8030    2.9811    2.4986 C   0  0  0  0  0  0  0  0  0  0  0  0
   -1.3254    3.9773    1.6608 C   0  0  0  0  0  0  0  0  0  0  0  0
   -1.2140    5.4301    2.0363 C   0  0  0  0  0  0  0  0  0  0  0  0
   -0.0450    6.1007    1.3166 C   0  0  0  0  0  0  0  0  0  0  0  0
   -1.9108    3.6074    0.4448 C   0  0  0  0  0  0  0  0  0  0  0  0
   -2.0269    2.2590    0.0972 C   0  0  0  0  0  0  0  0  0  0  0  0
   -1.5694   -1.2059    1.7685 C   0  0  0  0  0  0  0  0  0  0  0  0
   -2.1233   -1.4038    3.0397 C   0  0  0  0  0  0  0  0  0  0  0  0
   -3.0983   -0.7867    3.7712 N   0  0  0  0  0  0  0  0  0  0  0  0
   -2.9067   -1.2941    5.0160 C   0  0  0  0  0  0  0  0  0  0  0  0
   -3.3757   -0.8434    6.2450 C   0  0  0  0  0  0  0  0  0  0  0  0
   -4.0008    0.2992    3.3988 C   0  0  0  0  0  0  0  0  0  0  0  0
   -3.6264    1.6175    4.0864 C   0  0  0  0  0  0  0  0  0  0  0  0
    1.8183    1.0275   -4.2454 S   0  0  0  0  0  0  0  0  0  0  0  0
    3.1578    0.3679   -5.0473 C   0  0  0  0  0  0  0  0  0  0  0  0
    3.9737    0.8439   -6.0551 C   0  0  0  0  0  0  0  0  0  0  0  0
    5.0023   -0.0709   -6.3446 C   0  0  0  0  0  0  0  0  0  0  0  0
    4.9249   -1.4039   -5.2717 S   0  0  0  0  0  0  0  0  0  0  0  0
    3.5309   -0.8380   -4.5197 C   0  0  0  0  0  0  0  0  0  0  0  0
    6.0824    0.1485   -7.3275 C   0  0  0  0  0  0  0  0  0  0  0  0
    5.8634    0.6958   -8.5439 C   0  0  0  0  0  0  0  0  0  0  0  0
    4.5471    0.9639   -9.1300 C   0  0  0  0  0  0  0  0  0  0  0  0
    3.4674    0.3837   -8.8484 O   0  0  0  0  0  0  0  0  0  0  0  0
    4.6897    2.0244  -10.1038 C   0  0  0  0  0  0  0  0  0  0  0  0
    3.6719    2.7303  -10.7443 C   0  0  0  0  0  0  0  0  0  0  0  0
    4.0201    3.8358  -11.5378 C   0  0  0  0  0  0  0  0  0  0  0  0
    2.6416    4.8637  -12.3751 Br  0  0  0  0  0  0  0  0  0  0  0  0
    5.3669    4.2051  -11.6787 C   0  0  0  0  0  0  0  0  0  0  0  0
    6.3796    3.4716  -11.0256 C   0  0  0  0  0  0  0  0  0  0  0  0
    6.0254    2.3551  -10.2436 C   0  0  0  0  0  0  0  0  0  0  0  0
    6.8477    1.4719   -9.3660 C   0  0  0  0  0  0  0  0  0  0  0  0
    8.1949    1.3085   -9.4061 C   0  0  0  0  0  0  0  0  0  0  0  0
    9.0541    2.1001  -10.2480 C   0  0  0  0  0  0  0  0  0  0  0  0
    9.7528    2.7505  -10.9059 N   0  0  0  0  0  0  0  0  0  0  0  0
    8.8549    0.2139   -8.7501 C   0  0  0  0  0  0  0  0  0  0  0  0
    9.4240   -0.6790   -8.2674 N   0  0  0  0  0  0  0  0  0  0  0  0
   -2.8393   -1.4988    9.4381 H   0  0  0  0  0  0  0  0  0  0  0  0
   -3.1751    3.9603    6.5312 H   0  0  0  0  0  0  0  0  0  0  0  0
   -4.4057    6.0903    6.3412 H   0  0  0  0  0  0  0  0  0  0  0  0
   -6.3288    5.4174   10.8819 H   0  0  0  0  0  0  0  0  0  0  0  0
   -5.1292    3.2757   11.0717 H   0  0  0  0  0  0  0  0  0  0  0  0
    1.7425   -3.1925    0.1824 H   0  0  0  0  0  0  0  0  0  0  0  0
    4.1569   -4.0065   -4.1532 H   0  0  0  0  0  0  0  0  0  0  0  0
    3.3917   -5.8553   -5.5544 H   0  0  0  0  0  0  0  0  0  0  0  0
    1.4949   -6.9900   -6.6641 H   0  0  0  0  0  0  0  0  0  0  0  0
   -0.1775   -6.7629   -6.0645 H   0  0  0  0  0  0  0  0  0  0  0  0
    2.0448   -8.4045   -4.6654 H   0  0  0  0  0  0  0  0  0  0  0  0
    0.6494   -9.0696   -5.6088 H   0  0  0  0  0  0  0  0  0  0  0  0
    0.3496   -8.1946   -4.0604 H   0  0  0  0  0  0  0  0  0  0  0  0
   -0.6009   -5.4024   -4.0119 H   0  0  0  0  0  0  0  0  0  0  0  0
    0.1262   -3.5293   -2.6372 H   0  0  0  0  0  0  0  0  0  0  0  0
    4.7450   -0.5652   -1.9074 H   0  0  0  0  0  0  0  0  0  0  0  0
    6.7509   -0.9307   -0.5676 H   0  0  0  0  0  0  0  0  0  0  0  0
    7.4340   -4.0996    1.3605 H   0  0  0  0  0  0  0  0  0  0  0  0
    7.7337   -2.3421    1.3588 H   0  0  0  0  0  0  0  0  0  0  0  0
    9.0099   -2.4997   -0.7467 H   0  0  0  0  0  0  0  0  0  0  0  0
    9.6441   -3.7384    0.3998 H   0  0  0  0  0  0  0  0  0  0  0  0
    8.5532   -4.2482   -0.9401 H   0  0  0  0  0  0  0  0  0  0  0  0
    5.5732   -5.0219    0.1153 H   0  0  0  0  0  0  0  0  0  0  0  0
    3.5573   -4.6699   -1.2138 H   0  0  0  0  0  0  0  0  0  0  0  0
   -0.5318    0.7959   -1.8640 H   0  0  0  0  0  0  0  0  0  0  0  0
   -2.0623   -2.5178   -0.9241 H   0  0  0  0  0  0  0  0  0  0  0  0
   -3.9676   -3.2609   -2.2280 H   0  0  0  0  0  0  0  0  0  0  0  0
   -7.1289   -1.2357   -2.6746 H   0  0  0  0  0  0  0  0  0  0  0  0
   -6.0500   -2.3868   -3.5252 H   0  0  0  0  0  0  0  0  0  0  0  0
   -7.4526   -2.9071   -0.8166 H   0  0  0  0  0  0  0  0  0  0  0  0
   -6.3851   -4.0775   -1.7007 H   0  0  0  0  0  0  0  0  0  0  0  0
   -7.9526   -3.5649   -2.4198 H   0  0  0  0  0  0  0  0  0  0  0  0
   -6.1851    0.2201   -1.0111 H   0  0  0  0  0  0  0  0  0  0  0  0
   -4.2930    1.0115    0.2611 H   0  0  0  0  0  0  0  0  0  0  0  0
   -0.5042    0.8980    2.8295 H   0  0  0  0  0  0  0  0  0  0  0  0
   -0.2870    3.2525    3.4180 H   0  0  0  0  0  0  0  0  0  0  0  0
   -1.0738    5.5468    3.1337 H   0  0  0  0  0  0  0  0  0  0  0  0
   -2.1546    5.9612    1.7714 H   0  0  0  0  0  0  0  0  0  0  0  0
   -0.2086    6.0776    0.2153 H   0  0  0  0  0  0  0  0  0  0  0  0
    0.9102    5.5894    1.5599 H   0  0  0  0  0  0  0  0  0  0  0  0
    0.0271    7.1608    1.6397 H   0  0  0  0  0  0  0  0  0  0  0  0
   -2.2630    4.3662   -0.2390 H   0  0  0  0  0  0  0  0  0  0  0  0
   -2.4288    2.0154   -0.8775 H   0  0  0  0  0  0  0  0  0  0  0  0
   -4.1584   -0.1120    6.3718 H   0  0  0  0  0  0  0  0  0  0  0  0
   -5.0403    0.0230    3.6643 H   0  0  0  0  0  0  0  0  0  0  0  0
   -3.9610    0.4395    2.3181 H   0  0  0  0  0  0  0  0  0  0  0  0
   -3.8715    2.4707    3.4182 H   0  0  0  0  0  0  0  0  0  0  0  0
   -4.1974    1.7465    5.0283 H   0  0  0  0  0  0  0  0  0  0  0  0
   -2.5451    1.6484    4.3228 H   0  0  0  0  0  0  0  0  0  0  0  0
    3.8363    1.7962   -6.5505 H   0  0  0  0  0  0  0  0  0  0  0  0
    7.0894    0.0019   -6.9610 H   0  0  0  0  0  0  0  0  0  0  0  0
    2.6329    2.4730  -10.5916 H   0  0  0  0  0  0  0  0  0  0  0  0
    5.6356    5.0733  -12.2657 H   0  0  0  0  0  0  0  0  0  0  0  0
    7.3959    3.8221  -11.1054 H   0  0  0  0  0  0  0  0  0  0  0  0
  1  2  2  3
  2  3  1  0
  3  4  2  0
  3  5  1  0
  5  6  2  0
  6  7  1  0
  7  8  2  0
  8  9  1  0
  9 10  1  0
  9 11  2  0
 11 12  1  0
 11 13  1  0
 13 14  2  0
 14 15  1  0
 15 16  2  0
 16 17  1  0
 17 18  2  3
 18 19  1  0
 19 20  3  0
 18 21  1  0
 21 22  3  0
  1 23  1  0
 23 24  1  0
 24 25  1  0
 25 26  1  0
 26 27  1  0
 27 28  1  0
 28 29  1  0
 29 30  2  0
 30 31  1  0
 31 32  1  0
 32 33  1  0
 33 34  2  0
 34 35  1  0
 35 36  2  0
 36 37  1  0
 37 38  1  0
 36 39  1  0
 39 40  2  0
 32 41  1  0
 41 42  2  0
 42 43  1  0
 43 44  2  0
 44 45  1  0
 45 46  1  0
 44 47  1  0
 47 48  2  0
 32 49  1  0
 49 50  2  0
 50 51  1  0
 51 52  1  0
 52 53  2  0
 53 54  1  0
 54 55  1  0
 55 56  2  0
 56 57  1  0
 57 58  2  0
 58 59  1  0
 59 60  1  0
 58 61  1  0
 61 62  2  0
 54 63  1  0
 63 64  2  0
 64 65  1  0
 65 66  2  0
 66 67  1  0
 67 68  1  0
 66 69  1  0
 69 70  2  0
 54 71  1  0
 71 72  1  0
 72 73  1  0
 73 74  1  0
 74 75  1  0
 73 76  1  0
 76 77  1  0
 50 78  1  0
 78 79  1  0
 79 80  1  0
 80 81  2  0
 81 82  1  0
 82 83  1  0
 81 84  1  0
 84 85  2  3
 85 86  1  0
 86 87  2  0
 86 88  1  0
 88 89  2  0
 89 90  1  0
 90 91  1  0
 90 92  2  0
 92 93  1  0
 93 94  2  0
 94 95  1  0
 95 96  2  3
 96 97  1  0
 97 98  3  0
 96 99  1  0
 99100  3  0
 17  2  1  0
 75 23  2  0
 83 79  2  0
 95 85  1  0
 16  5  1  0
 74 25  2  0
 94 88  1  0
 14  7  1  0
 72 26  2  0
 71 28  2  0
 53 29  1  0
 62 55  1  0
 70 63  1  0
 51 31  2  0
 40 33  1  0
 48 41  1  0
 83 49  1  0
  1101  1  0
  6102  1  0
  8103  1  0
 13104  1  0
 15105  1  0
 30106  1  0
 34107  1  0
 35108  1  0
 37109  1  0
 37110  1  0
 38111  1  0
 38112  1  0
 38113  1  0
 39114  1  0
 40115  1  0
 42116  1  0
 43117  1  0
 45118  1  0
 45119  1  0
 46120  1  0
 46121  1  0
 46122  1  0
 47123  1  0
 48124  1  0
 52125  1  0
 56126  1  0
 57127  1  0
 59128  1  0
 59129  1  0
 60130  1  0
 60131  1  0
 60132  1  0
 61133  1  0
 62134  1  0
 64135  1  0
 65136  1  0
 67137  1  0
 67138  1  0
 68139  1  0
 68140  1  0
 68141  1  0
 69142  1  0
 70143  1  0
 75144  1  0
 76145  1  0
 76146  1  0
 77147  1  0
 77148  1  0
 77149  1  0
 80150  1  0
 84151  1  0
 89152  1  0
 92153  1  0
 93154  1  0
M  END

