
     RDKit          3D

135150  0  0  0  0  0  0  0  0999 V2000
    3.4535   -5.1106    0.2123 C   0  0  0  0  0  0  0  0  0  0  0  0
    4.3330   -5.5562    1.1206 C   0  0  0  0  0  0  0  0  0  0  0  0
    5.4308   -4.6728    1.5312 C   0  0  0  0  0  0  0  0  0  0  0  0
    6.1460   -4.0045    0.7441 O   0  0  0  0  0  0  0  0  0  0  0  0
    5.4342   -4.5295    2.9731 C   0  0  0  0  0  0  0  0  0  0  0  0
    6.1151   -3.5779    3.7322 C   0  0  0  0  0  0  0  0  0  0  0  0
    5.7412   -3.4018    5.0777 C   0  0  0  0  0  0  0  0  0  0  0  0
    6.3838   -2.4440    5.8747 C   0  0  0  0  0  0  0  0  0  0  0  0
    5.9680   -2.2348    7.1934 C   0  0  0  0  0  0  0  0  0  0  0  0
    6.5877   -1.2975    7.9554 F   0  0  0  0  0  0  0  0  0  0  0  0
    4.9031   -2.9729    7.7262 C   0  0  0  0  0  0  0  0  0  0  0  0
    4.4992   -2.7551    8.9977 F   0  0  0  0  0  0  0  0  0  0  0  0
    4.2549   -3.9339    6.9444 C   0  0  0  0  0  0  0  0  0  0  0  0
    4.6644   -4.1632    5.6206 C   0  0  0  0  0  0  0  0  0  0  0  0
    4.0064   -5.1215    4.8259 C   0  0  0  0  0  0  0  0  0  0  0  0
    4.4336   -5.3170    3.5014 C   0  0  0  0  0  0  0  0  0  0  0  0
    3.8039   -6.0934    2.4123 C   0  0  0  0  0  0  0  0  0  0  0  0
    2.9703   -7.1542    2.5281 C   0  0  0  0  0  0  0  0  0  0  0  0
    2.4906   -7.8580    1.3647 C   0  0  0  0  0  0  0  0  0  0  0  0
    2.1056   -8.4268    0.4332 N   0  0  0  0  0  0  0  0  0  0  0  0
    2.5510   -7.6770    3.8026 C   0  0  0  0  0  0  0  0  0  0  0  0
    2.2008   -8.0984    4.8220 N   0  0  0  0  0  0  0  0  0  0  0  0
    2.5328   -4.0250    0.5985 C   0  0  0  0  0  0  0  0  0  0  0  0
    2.9076   -2.7985    1.1693 C   0  0  0  0  0  0  0  0  0  0  0  0
    1.7949   -2.0979    1.6095 C   0  0  0  0  0  0  0  0  0  0  0  0
    1.5653   -0.5080    2.1346 S   0  0  0  0  0  0  0  0  0  0  0  0
   -0.1265   -0.7035    2.1807 C   0  0  0  0  0  0  0  0  0  0  0  0
   -1.1942    0.2292    1.9246 C   0  0  0  0  0  0  0  0  0  0  0  0
   -1.1197    1.6228    1.8608 C   0  0  0  0  0  0  0  0  0  0  0  0
   -2.1544    2.2894    1.1802 C   0  0  0  0  0  0  0  0  0  0  0  0
   -2.1773    3.7447    0.7537 C   0  0  0  0  0  0  0  0  0  0  0  0
   -0.8382    4.1996    0.2003 C   0  0  0  0  0  0  0  0  0  0  0  0
   -0.2751    5.4660    0.3473 C   0  0  0  0  0  0  0  0  0  0  0  0
    0.9015    5.6469   -0.3865 C   0  0  0  0  0  0  0  0  0  0  0  0
    1.2669    4.5280   -1.1258 C   0  0  0  0  0  0  0  0  0  0  0  0
    2.4554    4.4274   -2.0370 C   0  0  0  0  0  0  0  0  0  0  0  0
    2.2547    5.2649   -3.2968 C   0  0  0  0  0  0  0  0  0  0  0  0
    0.1201    3.3234   -0.8769 S   0  0  0  0  0  0  0  0  0  0  0  0
   -2.6461    4.5954    1.9154 C   0  0  0  0  0  0  0  0  0  0  0  0
   -3.6841    5.5289    1.9091 C   0  0  0  0  0  0  0  0  0  0  0  0
   -3.9153    6.1204    3.1589 C   0  0  0  0  0  0  0  0  0  0  0  0
   -3.0474    5.6728    4.1447 C   0  0  0  0  0  0  0  0  0  0  0  0
   -3.0933    6.0519    5.5903 C   0  0  0  0  0  0  0  0  0  0  0  0
   -3.8500    4.9994    6.4008 C   0  0  0  0  0  0  0  0  0  0  0  0
   -2.0022    4.5375    3.4720 S   0  0  0  0  0  0  0  0  0  0  0  0
   -3.2401    3.6556   -0.3286 C   0  0  0  0  0  0  0  0  0  0  0  0
   -3.8810    2.4335   -0.3268 C   0  0  0  0  0  0  0  0  0  0  0  0
   -3.2032    1.5690    0.6046 C   0  0  0  0  0  0  0  0  0  0  0  0
   -3.2830    0.1775    0.6833 C   0  0  0  0  0  0  0  0  0  0  0  0
   -2.2507   -0.4906    1.3563 C   0  0  0  0  0  0  0  0  0  0  0  0
   -1.9370   -1.9764    1.2591 C   0  0  0  0  0  0  0  0  0  0  0  0
   -2.7802   -2.7925    2.2178 C   0  0  0  0  0  0  0  0  0  0  0  0
   -2.4848   -4.0815    2.6656 C   0  0  0  0  0  0  0  0  0  0  0  0
   -3.4256   -4.5939    3.5720 C   0  0  0  0  0  0  0  0  0  0  0  0
   -4.4781   -3.7218    3.8202 C   0  0  0  0  0  0  0  0  0  0  0  0
   -5.5947   -3.9427    4.7938 C   0  0  0  0  0  0  0  0  0  0  0  0
   -6.4170   -5.1772    4.4394 C   0  0  0  0  0  0  0  0  0  0  0  0
   -4.2304   -2.3116    2.9378 S   0  0  0  0  0  0  0  0  0  0  0  0
   -2.0423   -2.4461   -0.1780 C   0  0  0  0  0  0  0  0  0  0  0  0
   -1.4295   -1.8258   -1.2702 C   0  0  0  0  0  0  0  0  0  0  0  0
   -1.7778   -2.3861   -2.5023 C   0  0  0  0  0  0  0  0  0  0  0  0
   -2.6589   -3.4540   -2.3896 C   0  0  0  0  0  0  0  0  0  0  0  0
   -3.2697   -4.2104   -3.5239 C   0  0  0  0  0  0  0  0  0  0  0  0
   -4.6913   -3.7330   -3.7867 C   0  0  0  0  0  0  0  0  0  0  0  0
   -3.0190   -3.6881   -0.7608 S   0  0  0  0  0  0  0  0  0  0  0  0
   -0.5058   -1.9465    1.7304 C   0  0  0  0  0  0  0  0  0  0  0  0
    0.5984   -2.7239    1.4056 C   0  0  0  0  0  0  0  0  0  0  0  0
    0.8349   -4.1900    0.6233 S   0  0  0  0  0  0  0  0  0  0  0  0
   -4.4807    2.0549   -1.8694 S   0  0  0  0  0  0  0  0  0  0  0  0
   -3.9938    3.5326   -2.5180 C   0  0  0  0  0  0  0  0  0  0  0  0
   -3.8247    3.9511   -3.8342 C   0  0  0  0  0  0  0  0  0  0  0  0
   -2.9978    5.0773   -3.8862 C   0  0  0  0  0  0  0  0  0  0  0  0
   -2.4727    5.5020   -2.3264 S   0  0  0  0  0  0  0  0  0  0  0  0
   -3.3307    4.2704   -1.5775 C   0  0  0  0  0  0  0  0  0  0  0  0
   -2.4477    5.6625   -5.1115 C   0  0  0  0  0  0  0  0  0  0  0  0
   -1.3249    5.2102   -5.6916 C   0  0  0  0  0  0  0  0  0  0  0  0
   -0.6588    3.9329   -5.3967 C   0  0  0  0  0  0  0  0  0  0  0  0
   -0.8460    3.2026   -4.3890 O   0  0  0  0  0  0  0  0  0  0  0  0
    0.2523    3.6367   -6.4834 C   0  0  0  0  0  0  0  0  0  0  0  0
    1.0023    2.4791   -6.6851 C   0  0  0  0  0  0  0  0  0  0  0  0
    1.7568    2.3562   -7.8677 C   0  0  0  0  0  0  0  0  0  0  0  0
    2.5233    1.0918   -8.1629 C   0  0  0  0  0  0  0  0  0  0  0  0
    3.6387    1.3657   -8.9382 F   0  0  0  0  0  0  0  0  0  0  0  0
    2.9488    0.4932   -6.9872 F   0  0  0  0  0  0  0  0  0  0  0  0
    1.7040    0.2143   -8.8467 F   0  0  0  0  0  0  0  0  0  0  0  0
    1.6960    3.3866   -8.8349 C   0  0  0  0  0  0  0  0  0  0  0  0
    0.9305    4.5413   -8.6116 C   0  0  0  0  0  0  0  0  0  0  0  0
    0.2217    4.6669   -7.4060 C   0  0  0  0  0  0  0  0  0  0  0  0
   -0.6656    5.7541   -6.9134 C   0  0  0  0  0  0  0  0  0  0  0  0
   -0.6467    7.0584   -7.3018 C   0  0  0  0  0  0  0  0  0  0  0  0
   -1.2740    8.0920   -6.5164 C   0  0  0  0  0  0  0  0  0  0  0  0
   -1.7601    8.9117   -5.8671 N   0  0  0  0  0  0  0  0  0  0  0  0
    0.1452    7.5240   -8.4141 C   0  0  0  0  0  0  0  0  0  0  0  0
    0.7779    7.9161   -9.2990 N   0  0  0  0  0  0  0  0  0  0  0  0
    2.9892   -5.8687   -0.4080 H   0  0  0  0  0  0  0  0  0  0  0  0
    6.8723   -2.9525    3.2768 H   0  0  0  0  0  0  0  0  0  0  0  0
    7.1998   -1.8549    5.4708 H   0  0  0  0  0  0  0  0  0  0  0  0
    3.4314   -4.4941    7.3682 H   0  0  0  0  0  0  0  0  0  0  0  0
    3.1493   -5.6376    5.2260 H   0  0  0  0  0  0  0  0  0  0  0  0
    3.9200   -2.4282    1.2430 H   0  0  0  0  0  0  0  0  0  0  0  0
   -0.2412    2.1526    2.2045 H   0  0  0  0  0  0  0  0  0  0  0  0
   -0.7174    6.2547    0.9422 H   0  0  0  0  0  0  0  0  0  0  0  0
    1.4529    6.5736   -0.4016 H   0  0  0  0  0  0  0  0  0  0  0  0
    2.6177    3.3665   -2.3191 H   0  0  0  0  0  0  0  0  0  0  0  0
    3.3590    4.7825   -1.4952 H   0  0  0  0  0  0  0  0  0  0  0  0
    1.3652    4.9131   -3.8501 H   0  0  0  0  0  0  0  0  0  0  0  0
    3.1450    5.1644   -3.9542 H   0  0  0  0  0  0  0  0  0  0  0  0
    2.1195    6.3353   -3.0352 H   0  0  0  0  0  0  0  0  0  0  0  0
   -4.2714    5.7698    1.0338 H   0  0  0  0  0  0  0  0  0  0  0  0
   -4.6999    6.8443    3.3328 H   0  0  0  0  0  0  0  0  0  0  0  0
   -3.5922    7.0380    5.7127 H   0  0  0  0  0  0  0  0  0  0  0  0
   -2.0572    6.1356    5.9812 H   0  0  0  0  0  0  0  0  0  0  0  0
   -3.3741    4.0031    6.2854 H   0  0  0  0  0  0  0  0  0  0  0  0
   -3.8343    5.2795    7.4741 H   0  0  0  0  0  0  0  0  0  0  0  0
   -4.9068    4.9418    6.0609 H   0  0  0  0  0  0  0  0  0  0  0  0
   -4.0384   -0.3700    0.1321 H   0  0  0  0  0  0  0  0  0  0  0  0
   -1.6120   -4.6393    2.3564 H   0  0  0  0  0  0  0  0  0  0  0  0
   -3.3319   -5.5668    4.0341 H   0  0  0  0  0  0  0  0  0  0  0  0
   -5.1688   -4.0584    5.8143 H   0  0  0  0  0  0  0  0  0  0  0  0
   -6.2616   -3.0541    4.8053 H   0  0  0  0  0  0  0  0  0  0  0  0
   -5.7777   -6.0911    4.4548 H   0  0  0  0  0  0  0  0  0  0  0  0
   -6.8700   -5.0628    3.4363 H   0  0  0  0  0  0  0  0  0  0  0  0
   -7.2258   -5.3097    5.1915 H   0  0  0  0  0  0  0  0  0  0  0  0
   -0.7692   -0.9707   -1.1770 H   0  0  0  0  0  0  0  0  0  0  0  0
   -1.4195   -2.0032   -3.4505 H   0  0  0  0  0  0  0  0  0  0  0  0
   -2.6571   -4.0777   -4.4402 H   0  0  0  0  0  0  0  0  0  0  0  0
   -3.2868   -5.2931   -3.2730 H   0  0  0  0  0  0  0  0  0  0  0  0
   -5.3125   -3.8661   -2.8772 H   0  0  0  0  0  0  0  0  0  0  0  0
   -4.6919   -2.6599   -4.0833 H   0  0  0  0  0  0  0  0  0  0  0  0
   -5.1409   -4.3299   -4.6114 H   0  0  0  0  0  0  0  0  0  0  0  0
   -4.1805    3.4081   -4.7001 H   0  0  0  0  0  0  0  0  0  0  0  0
   -2.9819    6.4982   -5.5316 H   0  0  0  0  0  0  0  0  0  0  0  0
    0.9737    1.6829   -5.9516 H   0  0  0  0  0  0  0  0  0  0  0  0
    2.2246    3.2846   -9.7755 H   0  0  0  0  0  0  0  0  0  0  0  0
    0.8714    5.2841   -9.3940 H   0  0  0  0  0  0  0  0  0  0  0  0
  1  2  2  3
  2  3  1  0
  3  4  2  0
  3  5  1  0
  5  6  2  0
  6  7  1  0
  7  8  2  0
  8  9  1  0
  9 10  1  0
  9 11  2  0
 11 12  1  0
 11 13  1  0
 13 14  2  0
 14 15  1  0
 15 16  2  0
 16 17  1  0
 17 18  2  3
 18 19  1  0
 19 20  3  0
 18 21  1  0
 21 22  3  0
  1 23  1  0
 23 24  2  0
 24 25  1  0
 25 26  1  0
 26 27  1  0
 27 28  1  0
 28 29  2  0
 29 30  1  0
 30 31  1  0
 31 32  1  0
 32 33  2  0
 33 34  1  0
 34 35  2  0
 35 36  1  0
 36 37  1  0
 35 38  1  0
 31 39  1  0
 39 40  2  0
 40 41  1  0
 41 42  2  0
 42 43  1  0
 43 44  1  0
 42 45  1  0
 31 46  1  0
 46 47  2  0
 47 48  1  0
 48 49  1  0
 49 50  2  0
 50 51  1  0
 51 52  1  0
 52 53  2  0
 53 54  1  0
 54 55  2  0
 55 56  1  0
 56 57  1  0
 55 58  1  0
 51 59  1  0
 59 60  2  0
 60 61  1  0
 61 62  2  0
 62 63  1  0
 63 64  1  0
 62 65  1  0
 51 66  1  0
 66 67  1  0
 67 68  1  0
 47 69  1  0
 69 70  1  0
 70 71  1  0
 71 72  2  0
 72 73  1  0
 73 74  1  0
 72 75  1  0
 75 76  2  3
 76 77  1  0
 77 78  2  0
 77 79  1  0
 79 80  2  0
 80 81  1  0
 81 82  1  0
 82 83  1  0
 82 84  1  0
 82 85  1  0
 81 86  2  0
 86 87  1  0
 87 88  2  0
 88 89  1  0
 89 90  2  3
 90 91  1  0
 91 92  3  0
 90 93  1  0
 93 94  3  0
 17  2  1  0
 68 23  1  0
 74 70  2  0
 89 76  1  0
 16  5  1  0
 67 25  2  0
 88 79  1  0
 14  7  1  0
 66 27  2  0
 50 28  1  0
 58 52  1  0
 65 59  1  0
 48 30  2  0
 38 32  1  0
 45 39  1  0
 74 46  1  0
  1 95  1  0
  6 96  1  0
  8 97  1  0
 13 98  1  0
 15 99  1  0
 24100  1  0
 29101  1  0
 33102  1  0
 34103  1  0
 36104  1  0
 36105  1  0
 37106  1  0
 37107  1  0
 37108  1  0
 40109  1  0
 41110  1  0
 43111  1  0
 43112  1  0
 44113  1  0
 44114  1  0
 44115  1  0
 49116  1  0
 53117  1  0
 54118  1  0
 56119  1  0
 56120  1  0
 57121  1  0
 57122  1  0
 57123  1  0
 60124  1  0
 61125  1  0
 63126  1  0
 63127  1  0
 64128  1  0
 64129  1  0
 64130  1  0
 71131  1  0
 75132  1  0
 80133  1  0
 86134  1  0
 87135  1  0
M  END

