
     RDKit          3D

227249  0  0  0  0  0  0  0  0999 V2000
   -7.2172    0.0391   -3.9232 C   0  0  0  0  0  0  0  0  0  0  0  0
   -6.7392    0.6494   -5.0227 C   0  0  0  0  0  0  0  0  0  0  0  0
   -5.3103    0.7995   -5.3296 C   0  0  0  0  0  0  0  0  0  0  0  0
   -4.3819    0.0286   -4.9624 O   0  0  0  0  0  0  0  0  0  0  0  0
   -5.1365    1.9606   -6.1666 C   0  0  0  0  0  0  0  0  0  0  0  0
   -3.9398    2.4973   -6.6409 C   0  0  0  0  0  0  0  0  0  0  0  0
   -3.9890    3.6628   -7.4220 C   0  0  0  0  0  0  0  0  0  0  0  0
   -2.8083    4.2422   -7.9203 C   0  0  0  0  0  0  0  0  0  0  0  0
   -2.8689    5.4078   -8.6895 C   0  0  0  0  0  0  0  0  0  0  0  0
   -1.7229    5.9589   -9.1656 F   0  0  0  0  0  0  0  0  0  0  0  0
   -4.1026    5.9990   -8.9850 C   0  0  0  0  0  0  0  0  0  0  0  0
   -4.1453    7.1238   -9.7473 F   0  0  0  0  0  0  0  0  0  0  0  0
   -5.2858    5.4332   -8.4956 C   0  0  0  0  0  0  0  0  0  0  0  0
   -5.2450    4.2634   -7.7187 C   0  0  0  0  0  0  0  0  0  0  0  0
   -6.4355    3.6827   -7.2379 C   0  0  0  0  0  0  0  0  0  0  0  0
   -6.3722    2.5241   -6.4444 C   0  0  0  0  0  0  0  0  0  0  0  0
   -7.4493    1.6865   -5.8314 C   0  0  0  0  0  0  0  0  0  0  0  0
   -8.7942    1.8140   -5.9881 C   0  0  0  0  0  0  0  0  0  0  0  0
   -9.6996    0.7619   -5.6131 C   0  0  0  0  0  0  0  0  0  0  0  0
  -10.4299   -0.0902   -5.3207 N   0  0  0  0  0  0  0  0  0  0  0  0
   -9.4053    2.9862   -6.5530 C   0  0  0  0  0  0  0  0  0  0  0  0
   -9.8968    3.9498   -6.9777 N   0  0  0  0  0  0  0  0  0  0  0  0
   -6.3204   -0.3077   -2.8164 C   0  0  0  0  0  0  0  0  0  0  0  0
   -5.9821   -1.8721   -2.2177 S   0  0  0  0  0  0  0  0  0  0  0  0
   -4.9108   -1.2689   -1.0692 C   0  0  0  0  0  0  0  0  0  0  0  0
   -4.0455   -1.7712   -0.0353 C   0  0  0  0  0  0  0  0  0  0  0  0
   -3.4971   -0.6505    0.5968 C   0  0  0  0  0  0  0  0  0  0  0  0
   -3.8071    0.6359   -0.1679 C   0  0  0  0  0  0  0  0  0  0  0  0
   -2.6221    1.1471   -1.0088 C   0  0  0  0  0  0  0  0  0  0  0  0
   -2.7724    2.3396   -1.7319 C   0  0  0  0  0  0  0  0  0  0  0  0
   -1.7406    2.8290   -2.5331 C   0  0  0  0  0  0  0  0  0  0  0  0
   -0.5359    2.1331   -2.6225 C   0  0  0  0  0  0  0  0  0  0  0  0
   -0.3595    0.9225   -1.9419 C   0  0  0  0  0  0  0  0  0  0  0  0
    0.9923    0.2449   -2.0268 C   0  0  0  0  0  0  0  0  0  0  0  0
    1.0066   -1.2377   -1.6652 C   0  0  0  0  0  0  0  0  0  0  0  0
   -1.4137    0.4273   -1.1466 C   0  0  0  0  0  0  0  0  0  0  0  0
   -4.3608    1.7112    0.7745 C   0  0  0  0  0  0  0  0  0  0  0  0
   -3.4727    2.5530    1.4727 C   0  0  0  0  0  0  0  0  0  0  0  0
   -3.9510    3.5869    2.2817 C   0  0  0  0  0  0  0  0  0  0  0  0
   -5.3227    3.7875    2.4274 C   0  0  0  0  0  0  0  0  0  0  0  0
   -6.2280    2.9412    1.7743 C   0  0  0  0  0  0  0  0  0  0  0  0
   -7.7102    3.1254    1.9619 C   0  0  0  0  0  0  0  0  0  0  0  0
   -8.2085    2.3444    3.1715 C   0  0  0  0  0  0  0  0  0  0  0  0
   -5.7461    1.8879    0.9776 C   0  0  0  0  0  0  0  0  0  0  0  0
   -4.8252    0.0782   -1.1247 C   0  0  0  0  0  0  0  0  0  0  0  0
   -5.6039    0.6575   -2.1112 C   0  0  0  0  0  0  0  0  0  0  0  0
   -2.5668   -0.8024    1.6313 C   0  0  0  0  0  0  0  0  0  0  0  0
   -2.1207   -2.0968    1.8957 C   0  0  0  0  0  0  0  0  0  0  0  0
   -0.9397   -2.4681    2.6053 C   0  0  0  0  0  0  0  0  0  0  0  0
   -0.4214   -3.6072    2.0801 C   0  0  0  0  0  0  0  0  0  0  0  0
   -1.4633   -4.3406    1.2428 C   0  0  0  0  0  0  0  0  0  0  0  0
   -2.4695   -3.1840    1.0793 C   0  0  0  0  0  0  0  0  0  0  0  0
   -3.5238   -3.0556    0.1517 C   0  0  0  0  0  0  0  0  0  0  0  0
   -2.1455   -5.4607    2.0586 C   0  0  0  0  0  0  0  0  0  0  0  0
   -1.6583   -5.8854    3.3197 C   0  0  0  0  0  0  0  0  0  0  0  0
   -2.3013   -6.9000    4.0271 C   0  0  0  0  0  0  0  0  0  0  0  0
   -3.4353   -7.5082    3.5025 C   0  0  0  0  0  0  0  0  0  0  0  0
   -3.9365   -7.1175    2.2545 C   0  0  0  0  0  0  0  0  0  0  0  0
   -5.1552   -7.7960    1.6929 C   0  0  0  0  0  0  0  0  0  0  0  0
   -4.7802   -9.1081    1.0183 C   0  0  0  0  0  0  0  0  0  0  0  0
   -3.2726   -6.1204    1.5269 C   0  0  0  0  0  0  0  0  0  0  0  0
   -0.8573   -4.8922   -0.0531 C   0  0  0  0  0  0  0  0  0  0  0  0
   -0.1747   -6.1248   -0.0250 C   0  0  0  0  0  0  0  0  0  0  0  0
    0.3026   -6.7120   -1.1970 C   0  0  0  0  0  0  0  0  0  0  0  0
    0.1298   -6.0733   -2.4211 C   0  0  0  0  0  0  0  0  0  0  0  0
   -0.4969   -4.8220   -2.4801 C   0  0  0  0  0  0  0  0  0  0  0  0
   -0.7151   -4.1516   -3.8168 C   0  0  0  0  0  0  0  0  0  0  0  0
    0.6038   -3.8287   -4.5179 C   0  0  0  0  0  0  0  0  0  0  0  0
   -0.9676   -4.2236   -1.2941 C   0  0  0  0  0  0  0  0  0  0  0  0
    0.9228   -3.7802    2.4330 C   0  0  0  0  0  0  0  0  0  0  0  0
    1.3410   -2.8807    3.4075 C   0  0  0  0  0  0  0  0  0  0  0  0
    0.1471   -1.6743    3.5929 S   0  0  0  0  0  0  0  0  0  0  0  0
    2.7348   -2.6955    3.5034 C   0  0  0  0  0  0  0  0  0  0  0  0
    3.3433   -3.0813    2.3050 C   0  0  0  0  0  0  0  0  0  0  0  0
    2.2243   -3.9720    1.3785 S   0  0  0  0  0  0  0  0  0  0  0  0
    4.0172   -1.8680    1.8312 C   0  0  0  0  0  0  0  0  0  0  0  0
    4.4556   -1.5598    0.5304 C   0  0  0  0  0  0  0  0  0  0  0  0
    4.6442   -0.1939    0.2175 C   0  0  0  0  0  0  0  0  0  0  0  0
    4.2234    0.7714    1.1292 C   0  0  0  0  0  0  0  0  0  0  0  0
    3.8052    0.4782    2.4170 C   0  0  0  0  0  0  0  0  0  0  0  0
    3.8333   -0.8692    2.8002 C   0  0  0  0  0  0  0  0  0  0  0  0
    3.4865   -1.5213    4.1215 C   0  0  0  0  0  0  0  0  0  0  0  0
    4.7791   -2.0123    4.7814 C   0  0  0  0  0  0  0  0  0  0  0  0
    5.9191   -1.1793    4.8260 C   0  0  0  0  0  0  0  0  0  0  0  0
    7.0779   -1.5907    5.4826 C   0  0  0  0  0  0  0  0  0  0  0  0
    7.1247   -2.8378    6.1108 C   0  0  0  0  0  0  0  0  0  0  0  0
    5.9998   -3.6733    6.1035 C   0  0  0  0  0  0  0  0  0  0  0  0
    6.0379   -4.9939    6.8181 C   0  0  0  0  0  0  0  0  0  0  0  0
    5.5785   -4.8482    8.2617 C   0  0  0  0  0  0  0  0  0  0  0  0
    4.8248   -3.2490    5.4619 C   0  0  0  0  0  0  0  0  0  0  0  0
    2.7438   -0.7298    5.2087 C   0  0  0  0  0  0  0  0  0  0  0  0
    3.1243    0.5841    5.5489 C   0  0  0  0  0  0  0  0  0  0  0  0
    2.5002    1.2688    6.5947 C   0  0  0  0  0  0  0  0  0  0  0  0
    1.5469    0.6252    7.3823 C   0  0  0  0  0  0  0  0  0  0  0  0
    1.2754   -0.7305    7.1791 C   0  0  0  0  0  0  0  0  0  0  0  0
    0.2886   -1.4484    8.0585 C   0  0  0  0  0  0  0  0  0  0  0  0
   -1.1061   -1.4049    7.4542 C   0  0  0  0  0  0  0  0  0  0  0  0
    1.8976   -1.4080    6.1199 C   0  0  0  0  0  0  0  0  0  0  0  0
    4.2935    2.0400    0.4852 C   0  0  0  0  0  0  0  0  0  0  0  0
    3.5978    3.5300    0.7585 S   0  0  0  0  0  0  0  0  0  0  0  0
    4.0146    4.0924   -0.7957 C   0  0  0  0  0  0  0  0  0  0  0  0
    4.7404    3.1127   -1.4906 C   0  0  0  0  0  0  0  0  0  0  0  0
    4.8031    1.9172   -0.7596 C   0  0  0  0  0  0  0  0  0  0  0  0
    5.2780    0.4866   -1.0212 C   0  0  0  0  0  0  0  0  0  0  0  0
    4.8135   -0.1552   -2.3340 C   0  0  0  0  0  0  0  0  0  0  0  0
    5.2907   -1.4335   -2.6721 C   0  0  0  0  0  0  0  0  0  0  0  0
    4.9811   -2.0215   -3.9009 C   0  0  0  0  0  0  0  0  0  0  0  0
    4.2319   -1.3178   -4.8447 C   0  0  0  0  0  0  0  0  0  0  0  0
    3.7682   -0.0333   -4.5549 C   0  0  0  0  0  0  0  0  0  0  0  0
    3.0967    0.7928   -5.6244 C   0  0  0  0  0  0  0  0  0  0  0  0
    4.1299    1.6748   -6.3192 C   0  0  0  0  0  0  0  0  0  0  0  0
    4.0383    0.5328   -3.2955 C   0  0  0  0  0  0  0  0  0  0  0  0
    6.8127    0.5256   -0.9537 C   0  0  0  0  0  0  0  0  0  0  0  0
    7.5390    1.0047   -2.0639 C   0  0  0  0  0  0  0  0  0  0  0  0
    8.9245    1.1634   -1.9945 C   0  0  0  0  0  0  0  0  0  0  0  0
    9.6111    0.8614   -0.8184 C   0  0  0  0  0  0  0  0  0  0  0  0
    8.9151    0.3897    0.3034 C   0  0  0  0  0  0  0  0  0  0  0  0
    9.6439    0.1462    1.6012 C   0  0  0  0  0  0  0  0  0  0  0  0
    9.5877    1.3846    2.4946 C   0  0  0  0  0  0  0  0  0  0  0  0
    7.5218    0.2271    0.2307 C   0  0  0  0  0  0  0  0  0  0  0  0
    3.6601    5.4224   -1.3066 C   0  0  0  0  0  0  0  0  0  0  0  0
    2.4327    5.9668   -1.1545 C   0  0  0  0  0  0  0  0  0  0  0  0
    1.1890    5.2219   -0.9036 C   0  0  0  0  0  0  0  0  0  0  0  0
    1.0768    3.9788   -0.7427 O   0  0  0  0  0  0  0  0  0  0  0  0
    0.0700    6.1261   -1.0778 C   0  0  0  0  0  0  0  0  0  0  0  0
   -1.2911    5.8471   -0.9363 C   0  0  0  0  0  0  0  0  0  0  0  0
   -2.2260    6.8653   -1.2148 C   0  0  0  0  0  0  0  0  0  0  0  0
   -3.7040    6.6229   -1.0164 C   0  0  0  0  0  0  0  0  0  0  0  0
   -4.4415    7.4070   -1.8797 F   0  0  0  0  0  0  0  0  0  0  0  0
   -4.0503    6.9204    0.2891 F   0  0  0  0  0  0  0  0  0  0  0  0
   -4.0134    5.2983   -1.2696 F   0  0  0  0  0  0  0  0  0  0  0  0
   -1.7625    8.1454   -1.5577 C   0  0  0  0  0  0  0  0  0  0  0  0
   -0.3921    8.4042   -1.6949 C   0  0  0  0  0  0  0  0  0  0  0  0
    0.5324    7.3777   -1.4446 C   0  0  0  0  0  0  0  0  0  0  0  0
    2.0285    7.3773   -1.4469 C   0  0  0  0  0  0  0  0  0  0  0  0
    2.8342    8.4681   -1.4443 C   0  0  0  0  0  0  0  0  0  0  0  0
    4.2233    8.3869   -1.0695 C   0  0  0  0  0  0  0  0  0  0  0  0
    5.3334    8.3247   -0.7540 N   0  0  0  0  0  0  0  0  0  0  0  0
    2.3577    9.8007   -1.6962 C   0  0  0  0  0  0  0  0  0  0  0  0
    1.9956   10.8828   -1.8983 N   0  0  0  0  0  0  0  0  0  0  0  0
   -8.2617    0.0949   -3.6736 H   0  0  0  0  0  0  0  0  0  0  0  0
   -2.9952    2.0215   -6.4093 H   0  0  0  0  0  0  0  0  0  0  0  0
   -1.8422    3.7986   -7.7057 H   0  0  0  0  0  0  0  0  0  0  0  0
   -6.2277    5.9108   -8.7350 H   0  0  0  0  0  0  0  0  0  0  0  0
   -7.3746    4.1327   -7.4914 H   0  0  0  0  0  0  0  0  0  0  0  0
   -3.6911    2.8943   -1.6768 H   0  0  0  0  0  0  0  0  0  0  0  0
   -1.8653    3.7641   -3.0601 H   0  0  0  0  0  0  0  0  0  0  0  0
    0.2634    2.5476   -3.2196 H   0  0  0  0  0  0  0  0  0  0  0  0
    1.3478    0.3272   -3.0716 H   0  0  0  0  0  0  0  0  0  0  0  0
    1.7121    0.7878   -1.3728 H   0  0  0  0  0  0  0  0  0  0  0  0
    0.8373   -1.3831   -0.5781 H   0  0  0  0  0  0  0  0  0  0  0  0
    1.9934   -1.6767   -1.9260 H   0  0  0  0  0  0  0  0  0  0  0  0
    0.2197   -1.7565   -2.2500 H   0  0  0  0  0  0  0  0  0  0  0  0
   -1.2919   -0.5198   -0.6587 H   0  0  0  0  0  0  0  0  0  0  0  0
   -2.4011    2.4170    1.3710 H   0  0  0  0  0  0  0  0  0  0  0  0
   -3.2501    4.2376    2.7922 H   0  0  0  0  0  0  0  0  0  0  0  0
   -5.6816    4.5927    3.0606 H   0  0  0  0  0  0  0  0  0  0  0  0
   -7.9532    4.2016    2.0920 H   0  0  0  0  0  0  0  0  0  0  0  0
   -8.2576    2.7830    1.0532 H   0  0  0  0  0  0  0  0  0  0  0  0
   -7.6850    2.6837    4.0877 H   0  0  0  0  0  0  0  0  0  0  0  0
   -9.2983    2.5196    3.2999 H   0  0  0  0  0  0  0  0  0  0  0  0
   -8.0393    1.2526    3.0299 H   0  0  0  0  0  0  0  0  0  0  0  0
   -6.4634    1.2264    0.5034 H   0  0  0  0  0  0  0  0  0  0  0  0
   -5.6545    1.7201   -2.3129 H   0  0  0  0  0  0  0  0  0  0  0  0
   -2.1045    0.0577    2.0961 H   0  0  0  0  0  0  0  0  0  0  0  0
   -3.8219   -3.8635   -0.4991 H   0  0  0  0  0  0  0  0  0  0  0  0
   -0.7866   -5.4411    3.7737 H   0  0  0  0  0  0  0  0  0  0  0  0
   -1.9096   -7.2212    4.9839 H   0  0  0  0  0  0  0  0  0  0  0  0
   -3.9191   -8.2929    4.0620 H   0  0  0  0  0  0  0  0  0  0  0  0
   -5.8811   -7.9957    2.5129 H   0  0  0  0  0  0  0  0  0  0  0  0
   -5.6620   -7.1418    0.9535 H   0  0  0  0  0  0  0  0  0  0  0  0
   -4.2856   -9.7884    1.7432 H   0  0  0  0  0  0  0  0  0  0  0  0
   -5.6967   -9.6115    0.6326 H   0  0  0  0  0  0  0  0  0  0  0  0
   -4.0953   -8.9189    0.1635 H   0  0  0  0  0  0  0  0  0  0  0  0
   -3.6235   -5.8731    0.5355 H   0  0  0  0  0  0  0  0  0  0  0  0
   -0.0434   -6.6531    0.9134 H   0  0  0  0  0  0  0  0  0  0  0  0
    0.7906   -7.6749   -1.1566 H   0  0  0  0  0  0  0  0  0  0  0  0
    0.4853   -6.5585   -3.3204 H   0  0  0  0  0  0  0  0  0  0  0  0
   -1.3148   -4.8265   -4.4646 H   0  0  0  0  0  0  0  0  0  0  0  0
   -1.2981   -3.2129   -3.7016 H   0  0  0  0  0  0  0  0  0  0  0  0
    1.2388   -3.1777   -3.8758 H   0  0  0  0  0  0  0  0  0  0  0  0
    1.1670   -4.7632   -4.7462 H   0  0  0  0  0  0  0  0  0  0  0  0
    0.4010   -3.3026   -5.4736 H   0  0  0  0  0  0  0  0  0  0  0  0
   -1.4312   -3.2509   -1.3578 H   0  0  0  0  0  0  0  0  0  0  0  0
    4.5946   -2.3414   -0.1966 H   0  0  0  0  0  0  0  0  0  0  0  0
    3.4488    1.2771    3.0356 H   0  0  0  0  0  0  0  0  0  0  0  0
    5.9140   -0.2044    4.3597 H   0  0  0  0  0  0  0  0  0  0  0  0
    7.9383   -0.9430    5.5008 H   0  0  0  0  0  0  0  0  0  0  0  0
    8.0367   -3.1576    6.6038 H   0  0  0  0  0  0  0  0  0  0  0  0
    5.3856   -5.7308    6.2992 H   0  0  0  0  0  0  0  0  0  0  0  0
    7.0691   -5.4053    6.7995 H   0  0  0  0  0  0  0  0  0  0  0  0
    4.5081   -4.5510    8.2958 H   0  0  0  0  0  0  0  0  0  0  0  0
    5.6976   -5.8154    8.7911 H   0  0  0  0  0  0  0  0  0  0  0  0
    6.1877   -4.0803    8.7869 H   0  0  0  0  0  0  0  0  0  0  0  0
    3.9517   -3.8811    5.5006 H   0  0  0  0  0  0  0  0  0  0  0  0
    3.9579    1.0703    5.0687 H   0  0  0  0  0  0  0  0  0  0  0  0
    2.7650    2.2925    6.7990 H   0  0  0  0  0  0  0  0  0  0  0  0
    1.0551    1.1742    8.1769 H   0  0  0  0  0  0  0  0  0  0  0  0
    0.5990   -2.5083    8.1933 H   0  0  0  0  0  0  0  0  0  0  0  0
    0.2690   -0.9827    9.0696 H   0  0  0  0  0  0  0  0  0  0  0  0
   -1.3814   -0.3590    7.2009 H   0  0  0  0  0  0  0  0  0  0  0  0
   -1.1448   -2.0270    6.5355 H   0  0  0  0  0  0  0  0  0  0  0  0
   -1.8495   -1.7997    8.1833 H   0  0  0  0  0  0  0  0  0  0  0  0
    1.7218   -2.4696    6.0100 H   0  0  0  0  0  0  0  0  0  0  0  0
    5.1271    3.2411   -2.4899 H   0  0  0  0  0  0  0  0  0  0  0  0
    5.9430   -1.9757   -1.9948 H   0  0  0  0  0  0  0  0  0  0  0  0
    5.3616   -3.0031   -4.1388 H   0  0  0  0  0  0  0  0  0  0  0  0
    4.0480   -1.7626   -5.8147 H   0  0  0  0  0  0  0  0  0  0  0  0
    2.3064    1.4338   -5.1837 H   0  0  0  0  0  0  0  0  0  0  0  0
    2.6047    0.1375   -6.3770 H   0  0  0  0  0  0  0  0  0  0  0  0
    3.6501    2.2351   -7.1468 H   0  0  0  0  0  0  0  0  0  0  0  0
    4.9467    1.0553   -6.7423 H   0  0  0  0  0  0  0  0  0  0  0  0
    4.5625    2.4032   -5.6010 H   0  0  0  0  0  0  0  0  0  0  0  0
    3.6572    1.5177   -3.0994 H   0  0  0  0  0  0  0  0  0  0  0  0
    7.0281    1.2733   -2.9811 H   0  0  0  0  0  0  0  0  0  0  0  0
    9.4637    1.5534   -2.8483 H   0  0  0  0  0  0  0  0  0  0  0  0
   10.6846    1.0157   -0.7725 H   0  0  0  0  0  0  0  0  0  0  0  0
   10.7115   -0.1116    1.4043 H   0  0  0  0  0  0  0  0  0  0  0  0
    9.1842   -0.7161    2.1399 H   0  0  0  0  0  0  0  0  0  0  0  0
   10.1775    1.2055    3.4183 H   0  0  0  0  0  0  0  0  0  0  0  0
   10.0212    2.2601    1.9627 H   0  0  0  0  0  0  0  0  0  0  0  0
    8.5354    1.6039    2.7762 H   0  0  0  0  0  0  0  0  0  0  0  0
    7.0068   -0.1113    1.1180 H   0  0  0  0  0  0  0  0  0  0  0  0
    4.4424    5.9685   -1.8038 H   0  0  0  0  0  0  0  0  0  0  0  0
   -1.6163    4.8697   -0.6067 H   0  0  0  0  0  0  0  0  0  0  0  0
   -2.4617    8.9504   -1.7291 H   0  0  0  0  0  0  0  0  0  0  0  0
   -0.0957    9.3914   -1.9907 H   0  0  0  0  0  0  0  0  0  0  0  0
  1  2  2  3
  2  3  1  0
  3  4  2  0
  3  5  1  0
  5  6  2  0
  6  7  1  0
  7  8  2  0
  8  9  1  0
  9 10  1  0
  9 11  2  0
 11 12  1  0
 11 13  1  0
 13 14  2  0
 14 15  1  0
 15 16  2  0
 16 17  1  0
 17 18  2  3
 18 19  1  0
 19 20  3  0
 18 21  1  0
 21 22  3  0
  1 23  1  0
 23 24  1  0
 24 25  1  0
 25 26  1  0
 26 27  2  0
 27 28  1  0
 28 29  1  0
 29 30  2  0
 30 31  1  0
 31 32  2  0
 32 33  1  0
 33 34  1  0
 34 35  1  0
 33 36  2  0
 28 37  1  0
 37 38  2  0
 38 39  1  0
 39 40  2  0
 40 41  1  0
 41 42  1  0
 42 43  1  0
 41 44  2  0
 28 45  1  0
 45 46  1  0
 27 47  1  0
 47 48  2  0
 48 49  1  0
 49 50  2  0
 50 51  1  0
 51 52  1  0
 52 53  2  0
 51 54  1  0
 54 55  2  0
 55 56  1  0
 56 57  2  0
 57 58  1  0
 58 59  1  0
 59 60  1  0
 58 61  2  0
 51 62  1  0
 62 63  2  0
 63 64  1  0
 64 65  2  0
 65 66  1  0
 66 67  1  0
 67 68  1  0
 66 69  2  0
 50 70  1  0
 70 71  2  0
 71 72  1  0
 71 73  1  0
 73 74  2  0
 74 75  1  0
 74 76  1  0
 76 77  2  0
 77 78  1  0
 78 79  2  0
 79 80  1  0
 80 81  2  0
 81 82  1  0
 82 83  1  0
 83 84  2  0
 84 85  1  0
 85 86  2  0
 86 87  1  0
 87 88  1  0
 88 89  1  0
 87 90  2  0
 82 91  1  0
 91 92  2  0
 92 93  1  0
 93 94  2  0
 94 95  1  0
 95 96  1  0
 96 97  1  0
 95 98  2  0
 79 99  1  0
 99100  1  0
100101  1  0
101102  2  0
102103  1  0
103104  1  0
104105  1  0
105106  2  0
106107  1  0
107108  2  0
108109  1  0
109110  1  0
110111  1  0
109112  2  0
104113  1  0
113114  2  0
114115  1  0
115116  2  0
116117  1  0
117118  1  0
118119  1  0
117120  2  0
101121  1  0
121122  2  3
122123  1  0
123124  2  0
123125  1  0
125126  2  0
126127  1  0
127128  1  0
128129  1  0
128130  1  0
128131  1  0
127132  2  0
132133  1  0
133134  2  0
134135  1  0
135136  2  3
136137  1  0
137138  3  0
136139  1  0
139140  3  0
 17  2  1  0
 46 23  2  0
 52 48  1  0
 61 54  1  0
 69 62  1  0
 75 70  1  0
 81 76  1  0
 90 83  1  0
 98 91  1  0
103 99  2  0
112105  1  0
120113  1  0
135122  1  0
 16  5  1  0
 45 25  2  0
 72 49  1  0
 82 73  1  0
134125  1  0
 14  7  1  0
 53 26  1  0
104 78  1  0
 36 29  1  0
 44 37  1  0
  1141  1  0
  6142  1  0
  8143  1  0
 13144  1  0
 15145  1  0
 30146  1  0
 31147  1  0
 32148  1  0
 34149  1  0
 34150  1  0
 35151  1  0
 35152  1  0
 35153  1  0
 36154  1  0
 38155  1  0
 39156  1  0
 40157  1  0
 42158  1  0
 42159  1  0
 43160  1  0
 43161  1  0
 43162  1  0
 44163  1  0
 46164  1  0
 47165  1  0
 53166  1  0
 55167  1  0
 56168  1  0
 57169  1  0
 59170  1  0
 59171  1  0
 60172  1  0
 60173  1  0
 60174  1  0
 61175  1  0
 63176  1  0
 64177  1  0
 65178  1  0
 67179  1  0
 67180  1  0
 68181  1  0
 68182  1  0
 68183  1  0
 69184  1  0
 77185  1  0
 80186  1  0
 84187  1  0
 85188  1  0
 86189  1  0
 88190  1  0
 88191  1  0
 89192  1  0
 89193  1  0
 89194  1  0
 90195  1  0
 92196  1  0
 93197  1  0
 94198  1  0
 96199  1  0
 96200  1  0
 97201  1  0
 97202  1  0
 97203  1  0
 98204  1  0
102205  1  0
106206  1  0
107207  1  0
108208  1  0
110209  1  0
110210  1  0
111211  1  0
111212  1  0
111213  1  0
112214  1  0
114215  1  0
115216  1  0
116217  1  0
118218  1  0
118219  1  0
119220  1  0
119221  1  0
119222  1  0
120223  1  0
121224  1  0
126225  1  0
132226  1  0
133227  1  0
M  END

