
     RDKit          3D

224246  0  0  0  0  0  0  0  0999 V2000
   -5.2119   -4.6471   -5.1574 C   0  0  0  0  0  0  0  0  0  0  0  0
   -5.6696   -5.4525   -6.1305 C   0  0  0  0  0  0  0  0  0  0  0  0
   -5.7241   -5.1163   -7.5613 C   0  0  0  0  0  0  0  0  0  0  0  0
   -5.5644   -3.9728   -8.0767 O   0  0  0  0  0  0  0  0  0  0  0  0
   -6.0271   -6.3217   -8.2989 C   0  0  0  0  0  0  0  0  0  0  0  0
   -6.0811   -6.4906   -9.6851 C   0  0  0  0  0  0  0  0  0  0  0  0
   -6.2613   -7.7768  -10.1963 C   0  0  0  0  0  0  0  0  0  0  0  0
   -6.3256   -7.9781  -11.5861 C   0  0  0  0  0  0  0  0  0  0  0  0
   -6.4716   -9.2696  -12.1038 C   0  0  0  0  0  0  0  0  0  0  0  0
   -6.5167   -9.4523  -13.4428 F   0  0  0  0  0  0  0  0  0  0  0  0
   -6.5633  -10.3705  -11.2386 C   0  0  0  0  0  0  0  0  0  0  0  0
   -6.6992  -11.6171  -11.7522 F   0  0  0  0  0  0  0  0  0  0  0  0
   -6.5198  -10.1798   -9.8471 C   0  0  0  0  0  0  0  0  0  0  0  0
   -6.3702   -8.8891   -9.3111 C   0  0  0  0  0  0  0  0  0  0  0  0
   -6.3286   -8.6873   -7.9211 C   0  0  0  0  0  0  0  0  0  0  0  0
   -6.1937   -7.3778   -7.4197 C   0  0  0  0  0  0  0  0  0  0  0  0
   -6.1100   -6.8857   -6.0129 C   0  0  0  0  0  0  0  0  0  0  0  0
   -6.5564   -7.5363   -4.9020 C   0  0  0  0  0  0  0  0  0  0  0  0
   -7.1476   -8.8452   -4.9588 C   0  0  0  0  0  0  0  0  0  0  0  0
   -7.6287   -9.8941   -5.0025 N   0  0  0  0  0  0  0  0  0  0  0  0
   -6.6329   -6.9039   -3.6042 C   0  0  0  0  0  0  0  0  0  0  0  0
   -6.7112   -6.3985   -2.5552 N   0  0  0  0  0  0  0  0  0  0  0  0
   -4.6239   -3.3209   -5.3905 C   0  0  0  0  0  0  0  0  0  0  0  0
   -4.8584   -1.9961   -4.3538 S   0  0  0  0  0  0  0  0  0  0  0  0
   -3.6329   -1.0610   -5.0247 C   0  0  0  0  0  0  0  0  0  0  0  0
   -2.7041   -0.1489   -4.4007 C   0  0  0  0  0  0  0  0  0  0  0  0
   -1.4565   -0.3726   -4.9900 C   0  0  0  0  0  0  0  0  0  0  0  0
   -1.5747   -1.2701   -6.2121 C   0  0  0  0  0  0  0  0  0  0  0  0
   -1.6497   -0.4679   -7.5188 C   0  0  0  0  0  0  0  0  0  0  0  0
   -1.9399   -1.1408   -8.7204 C   0  0  0  0  0  0  0  0  0  0  0  0
   -2.1194   -0.4289   -9.9101 C   0  0  0  0  0  0  0  0  0  0  0  0
   -2.0291    0.9659   -9.9168 C   0  0  0  0  0  0  0  0  0  0  0  0
   -1.7017    1.6565   -8.7396 C   0  0  0  0  0  0  0  0  0  0  0  0
   -1.6191    3.1592   -8.7283 C   0  0  0  0  0  0  0  0  0  0  0  0
   -2.8534    3.7608   -8.0577 C   0  0  0  0  0  0  0  0  0  0  0  0
   -1.5082    0.9400   -7.5579 C   0  0  0  0  0  0  0  0  0  0  0  0
   -0.4649   -2.3252   -6.1959 C   0  0  0  0  0  0  0  0  0  0  0  0
   -0.4825   -3.3861   -5.2638 C   0  0  0  0  0  0  0  0  0  0  0  0
    0.5520   -4.3235   -5.2352 C   0  0  0  0  0  0  0  0  0  0  0  0
    1.6304   -4.2080   -6.1211 C   0  0  0  0  0  0  0  0  0  0  0  0
    1.7002   -3.1294   -7.0177 C   0  0  0  0  0  0  0  0  0  0  0  0
    2.8815   -2.9580   -7.9322 C   0  0  0  0  0  0  0  0  0  0  0  0
    2.4980   -3.1546   -9.3965 C   0  0  0  0  0  0  0  0  0  0  0  0
    0.6660   -2.1785   -7.0279 C   0  0  0  0  0  0  0  0  0  0  0  0
   -2.9626   -1.8096   -5.9511 C   0  0  0  0  0  0  0  0  0  0  0  0
   -3.5127   -3.0707   -6.1960 C   0  0  0  0  0  0  0  0  0  0  0  0
   -0.2869    0.1072   -4.3931 C   0  0  0  0  0  0  0  0  0  0  0  0
   -0.4327    0.8085   -3.1947 C   0  0  0  0  0  0  0  0  0  0  0  0
    0.6122    1.1279   -2.2461 C   0  0  0  0  0  0  0  0  0  0  0  0
   -0.0411    1.5463   -1.1134 C   0  0  0  0  0  0  0  0  0  0  0  0
   -1.4843    2.0000   -1.4108 C   0  0  0  0  0  0  0  0  0  0  0  0
   -1.6872    1.1082   -2.6392 C   0  0  0  0  0  0  0  0  0  0  0  0
   -2.8637    0.6747   -3.2872 C   0  0  0  0  0  0  0  0  0  0  0  0
   -2.3399    1.8704   -0.1343 C   0  0  0  0  0  0  0  0  0  0  0  0
   -3.6190    1.2579   -0.0887 C   0  0  0  0  0  0  0  0  0  0  0  0
   -4.4353    1.4055    1.0351 C   0  0  0  0  0  0  0  0  0  0  0  0
   -3.9925    2.1238    2.1515 C   0  0  0  0  0  0  0  0  0  0  0  0
   -2.7068    2.6957    2.1580 C   0  0  0  0  0  0  0  0  0  0  0  0
   -2.1629    3.3659    3.3995 C   0  0  0  0  0  0  0  0  0  0  0  0
   -2.0395    4.8734    3.2370 C   0  0  0  0  0  0  0  0  0  0  0  0
   -1.9374    2.6351    0.9888 C   0  0  0  0  0  0  0  0  0  0  0  0
   -1.5266    3.4807   -1.9025 C   0  0  0  0  0  0  0  0  0  0  0  0
   -2.6871    4.2811   -1.7264 C   0  0  0  0  0  0  0  0  0  0  0  0
   -2.7048    5.6263   -2.1148 C   0  0  0  0  0  0  0  0  0  0  0  0
   -1.6122    6.1903   -2.7723 C   0  0  0  0  0  0  0  0  0  0  0  0
   -0.5023    5.3865   -3.0832 C   0  0  0  0  0  0  0  0  0  0  0  0
    0.6589    5.9501   -3.8760 C   0  0  0  0  0  0  0  0  0  0  0  0
    1.8514    6.2583   -2.9709 C   0  0  0  0  0  0  0  0  0  0  0  0
   -0.4590    4.0589   -2.6210 C   0  0  0  0  0  0  0  0  0  0  0  0
    0.5471    0.9184   -0.0072 C   0  0  0  0  0  0  0  0  0  0  0  0
    1.7900    0.3631   -0.2228 C   0  0  0  0  0  0  0  0  0  0  0  0
    2.0104    0.2317   -1.8855 S   0  0  0  0  0  0  0  0  0  0  0  0
    2.2127   -0.5273    0.7767 C   0  0  0  0  0  0  0  0  0  0  0  0
    1.1804   -0.8174    1.6611 C   0  0  0  0  0  0  0  0  0  0  0  0
   -0.1653    0.1477    1.3115 S   0  0  0  0  0  0  0  0  0  0  0  0
    1.6940   -0.9660    2.9833 C   0  0  0  0  0  0  0  0  0  0  0  0
    0.9753   -1.1608    4.1674 C   0  0  0  0  0  0  0  0  0  0  0  0
    1.6090   -0.8106    5.3578 C   0  0  0  0  0  0  0  0  0  0  0  0
    2.8572   -0.1863    5.3273 C   0  0  0  0  0  0  0  0  0  0  0  0
    3.6100   -0.0776    4.1550 C   0  0  0  0  0  0  0  0  0  0  0  0
    3.0158   -0.5419    2.9688 C   0  0  0  0  0  0  0  0  0  0  0  0
    3.5470   -0.4842    1.5405 C   0  0  0  0  0  0  0  0  0  0  0  0
    4.3515    0.8128    1.3376 C   0  0  0  0  0  0  0  0  0  0  0  0
    3.7227    2.0656    1.4463 C   0  0  0  0  0  0  0  0  0  0  0  0
    4.4556    3.2505    1.3025 C   0  0  0  0  0  0  0  0  0  0  0  0
    5.8367    3.2038    1.1109 C   0  0  0  0  0  0  0  0  0  0  0  0
    6.5010    1.9751    1.0625 C   0  0  0  0  0  0  0  0  0  0  0  0
    7.9963    1.9215    0.8888 C   0  0  0  0  0  0  0  0  0  0  0  0
    8.3859    1.3908   -0.4884 C   0  0  0  0  0  0  0  0  0  0  0  0
    5.7614    0.7870    1.1934 C   0  0  0  0  0  0  0  0  0  0  0  0
    4.3197   -1.7596    1.1639 C   0  0  0  0  0  0  0  0  0  0  0  0
    4.5977   -2.7755    2.1127 C   0  0  0  0  0  0  0  0  0  0  0  0
    5.2896   -3.9283    1.7435 C   0  0  0  0  0  0  0  0  0  0  0  0
    5.7304   -4.0882    0.4338 C   0  0  0  0  0  0  0  0  0  0  0  0
    5.4615   -3.1052   -0.5265 C   0  0  0  0  0  0  0  0  0  0  0  0
    5.9815   -3.2732   -1.9369 C   0  0  0  0  0  0  0  0  0  0  0  0
    7.4454   -2.8585   -2.0214 C   0  0  0  0  0  0  0  0  0  0  0  0
    4.7603   -1.9489   -0.1622 C   0  0  0  0  0  0  0  0  0  0  0  0
    3.0454    0.4676    6.5919 C   0  0  0  0  0  0  0  0  0  0  0  0
    3.4853    2.0633    6.8708 S   0  0  0  0  0  0  0  0  0  0  0  0
    2.4397    2.3148    8.1775 C   0  0  0  0  0  0  0  0  0  0  0  0
    1.6685    1.1655    8.3508 C   0  0  0  0  0  0  0  0  0  0  0  0
    1.9748    0.1736    7.4050 C   0  0  0  0  0  0  0  0  0  0  0  0
    1.0289   -0.8321    6.7686 C   0  0  0  0  0  0  0  0  0  0  0  0
   -0.4400   -0.3815    6.7460 C   0  0  0  0  0  0  0  0  0  0  0  0
   -0.7674    0.9633    6.4754 C   0  0  0  0  0  0  0  0  0  0  0  0
   -2.1014    1.3827    6.4927 C   0  0  0  0  0  0  0  0  0  0  0  0
   -3.1274    0.4691    6.7197 C   0  0  0  0  0  0  0  0  0  0  0  0
   -2.8414   -0.8817    6.9392 C   0  0  0  0  0  0  0  0  0  0  0  0
   -3.9527   -1.8418    7.2559 C   0  0  0  0  0  0  0  0  0  0  0  0
   -4.3225   -2.7068    6.0544 C   0  0  0  0  0  0  0  0  0  0  0  0
   -1.4976   -1.3033    6.9227 C   0  0  0  0  0  0  0  0  0  0  0  0
    1.2773   -2.1623    7.4953 C   0  0  0  0  0  0  0  0  0  0  0  0
    0.8733   -2.2837    8.8374 C   0  0  0  0  0  0  0  0  0  0  0  0
    1.2200   -3.4104    9.5884 C   0  0  0  0  0  0  0  0  0  0  0  0
    1.9992   -4.4183    9.0222 C   0  0  0  0  0  0  0  0  0  0  0  0
    2.4375   -4.3114    7.6961 C   0  0  0  0  0  0  0  0  0  0  0  0
    3.2971   -5.3920    7.0877 C   0  0  0  0  0  0  0  0  0  0  0  0
    2.4386   -6.4428    6.3943 C   0  0  0  0  0  0  0  0  0  0  0  0
    2.0500   -3.2034    6.9209 C   0  0  0  0  0  0  0  0  0  0  0  0
    1.9724    3.6258    8.6893 C   0  0  0  0  0  0  0  0  0  0  0  0
    2.5424    4.8363    8.4679 C   0  0  0  0  0  0  0  0  0  0  0  0
    3.9868    5.0958    8.3501 C   0  0  0  0  0  0  0  0  0  0  0  0
    4.9068    4.2433    8.2157 O   0  0  0  0  0  0  0  0  0  0  0  0
    4.2161    6.5064    8.6127 C   0  0  0  0  0  0  0  0  0  0  0  0
    5.4399    7.1826    8.6760 C   0  0  0  0  0  0  0  0  0  0  0  0
    5.4295    8.5372    9.0565 C   0  0  0  0  0  0  0  0  0  0  0  0
    6.6027    9.2053    9.1641 F   0  0  0  0  0  0  0  0  0  0  0  0
    4.2153    9.1717    9.3711 C   0  0  0  0  0  0  0  0  0  0  0  0
    2.9973    8.4804    9.2894 C   0  0  0  0  0  0  0  0  0  0  0  0
    3.0126    7.1258    8.8997 C   0  0  0  0  0  0  0  0  0  0  0  0
    1.9026    6.1497    8.7445 C   0  0  0  0  0  0  0  0  0  0  0  0
    0.5769    6.4245    8.6392 C   0  0  0  0  0  0  0  0  0  0  0  0
   -0.3670    5.4641    8.0971 C   0  0  0  0  0  0  0  0  0  0  0  0
   -1.1219    4.7075    7.6545 N   0  0  0  0  0  0  0  0  0  0  0  0
    0.0167    7.7086    8.9789 C   0  0  0  0  0  0  0  0  0  0  0  0
   -0.4654    8.7179    9.2597 N   0  0  0  0  0  0  0  0  0  0  0  0
   -5.1636   -4.9808   -4.1392 H   0  0  0  0  0  0  0  0  0  0  0  0
   -5.9627   -5.6378  -10.3423 H   0  0  0  0  0  0  0  0  0  0  0  0
   -6.2501   -7.1464  -12.2679 H   0  0  0  0  0  0  0  0  0  0  0  0
   -6.6061  -11.0462   -9.1922 H   0  0  0  0  0  0  0  0  0  0  0  0
   -6.3370   -9.5378   -7.2543 H   0  0  0  0  0  0  0  0  0  0  0  0
   -2.0470   -2.2191   -8.7376 H   0  0  0  0  0  0  0  0  0  0  0  0
   -2.3496   -0.9545  -10.8296 H   0  0  0  0  0  0  0  0  0  0  0  0
   -2.2121    1.5101  -10.8343 H   0  0  0  0  0  0  0  0  0  0  0  0
   -1.5341    3.5538   -9.7660 H   0  0  0  0  0  0  0  0  0  0  0  0
   -0.7106    3.4832   -8.1708 H   0  0  0  0  0  0  0  0  0  0  0  0
   -3.7819    3.3982   -8.5468 H   0  0  0  0  0  0  0  0  0  0  0  0
   -2.8834    3.4877   -6.9829 H   0  0  0  0  0  0  0  0  0  0  0  0
   -2.8233    4.8672   -8.1357 H   0  0  0  0  0  0  0  0  0  0  0  0
   -1.2629    1.4914   -6.6625 H   0  0  0  0  0  0  0  0  0  0  0  0
   -1.2966   -3.4822   -4.5622 H   0  0  0  0  0  0  0  0  0  0  0  0
    0.5242   -5.1411   -4.5229 H   0  0  0  0  0  0  0  0  0  0  0  0
    2.4275   -4.9445   -6.0817 H   0  0  0  0  0  0  0  0  0  0  0  0
    3.7025   -3.6692   -7.6756 H   0  0  0  0  0  0  0  0  0  0  0  0
    3.2823   -1.9219   -7.8076 H   0  0  0  0  0  0  0  0  0  0  0  0
    2.0817   -4.1749   -9.5507 H   0  0  0  0  0  0  0  0  0  0  0  0
    1.7528   -2.4004   -9.7116 H   0  0  0  0  0  0  0  0  0  0  0  0
    3.4009   -3.0389  -10.0384 H   0  0  0  0  0  0  0  0  0  0  0  0
    0.7627   -1.3387   -7.6979 H   0  0  0  0  0  0  0  0  0  0  0  0
   -3.0273   -3.8212   -6.7981 H   0  0  0  0  0  0  0  0  0  0  0  0
    0.6896   -0.1441   -4.7958 H   0  0  0  0  0  0  0  0  0  0  0  0
   -3.8411    0.9696   -2.9717 H   0  0  0  0  0  0  0  0  0  0  0  0
   -4.0071    0.6824   -0.9047 H   0  0  0  0  0  0  0  0  0  0  0  0
   -5.4265    0.9613    1.0533 H   0  0  0  0  0  0  0  0  0  0  0  0
   -4.6272    2.1885    3.0202 H   0  0  0  0  0  0  0  0  0  0  0  0
   -2.8399    3.1641    4.2479 H   0  0  0  0  0  0  0  0  0  0  0  0
   -1.1651    2.9360    3.6240 H   0  0  0  0  0  0  0  0  0  0  0  0
   -3.0413    5.3367    3.0974 H   0  0  0  0  0  0  0  0  0  0  0  0
   -1.5755    5.2959    4.1460 H   0  0  0  0  0  0  0  0  0  0  0  0
   -1.3946    5.1342    2.3715 H   0  0  0  0  0  0  0  0  0  0  0  0
   -0.9737    3.1325    0.9724 H   0  0  0  0  0  0  0  0  0  0  0  0
   -3.5670    3.8936   -1.2302 H   0  0  0  0  0  0  0  0  0  0  0  0
   -3.5734    6.2299   -1.9126 H   0  0  0  0  0  0  0  0  0  0  0  0
   -1.6456    7.2309   -3.0750 H   0  0  0  0  0  0  0  0  0  0  0  0
    0.3516    6.8702   -4.4136 H   0  0  0  0  0  0  0  0  0  0  0  0
    0.9865    5.2047   -4.6480 H   0  0  0  0  0  0  0  0  0  0  0  0
    1.6124    7.0626   -2.2435 H   0  0  0  0  0  0  0  0  0  0  0  0
    2.2093    5.3558   -2.4392 H   0  0  0  0  0  0  0  0  0  0  0  0
    2.6980    6.5987   -3.6121 H   0  0  0  0  0  0  0  0  0  0  0  0
    0.4394    3.5084   -2.8392 H   0  0  0  0  0  0  0  0  0  0  0  0
   -0.0631   -1.4781    4.1427 H   0  0  0  0  0  0  0  0  0  0  0  0
    4.5853    0.3989    4.1538 H   0  0  0  0  0  0  0  0  0  0  0  0
    2.6643    2.1437    1.6464 H   0  0  0  0  0  0  0  0  0  0  0  0
    3.9476    4.2087    1.3513 H   0  0  0  0  0  0  0  0  0  0  0  0
    6.3811    4.1340    0.9952 H   0  0  0  0  0  0  0  0  0  0  0  0
    8.4375    1.2657    1.6717 H   0  0  0  0  0  0  0  0  0  0  0  0
    8.4361    2.9284    1.0127 H   0  0  0  0  0  0  0  0  0  0  0  0
    9.4905    1.3632   -0.5735 H   0  0  0  0  0  0  0  0  0  0  0  0
    7.9891    2.0599   -1.2851 H   0  0  0  0  0  0  0  0  0  0  0  0
    7.9917    0.3660   -0.6444 H   0  0  0  0  0  0  0  0  0  0  0  0
    6.3001   -0.1434    1.1919 H   0  0  0  0  0  0  0  0  0  0  0  0
    4.2643   -2.7041    3.1372 H   0  0  0  0  0  0  0  0  0  0  0  0
    5.4810   -4.6939    2.4771 H   0  0  0  0  0  0  0  0  0  0  0  0
    6.2811   -4.9760    0.1680 H   0  0  0  0  0  0  0  0  0  0  0  0
    5.8860   -4.3339   -2.2516 H   0  0  0  0  0  0  0  0  0  0  0  0
    5.3832   -2.6629   -2.6474 H   0  0  0  0  0  0  0  0  0  0  0  0
    7.7894   -2.9110   -3.0791 H   0  0  0  0  0  0  0  0  0  0  0  0
    7.5677   -1.8183   -1.6589 H   0  0  0  0  0  0  0  0  0  0  0  0
    8.0772   -3.5383   -1.4103 H   0  0  0  0  0  0  0  0  0  0  0  0
    4.5614   -1.1830   -0.9037 H   0  0  0  0  0  0  0  0  0  0  0  0
    0.7776    1.1454    8.9485 H   0  0  0  0  0  0  0  0  0  0  0  0
    0.0048    1.6876    6.2602 H   0  0  0  0  0  0  0  0  0  0  0  0
   -2.3355    2.4344    6.3697 H   0  0  0  0  0  0  0  0  0  0  0  0
   -4.1443    0.8315    6.7261 H   0  0  0  0  0  0  0  0  0  0  0  0
   -3.6399   -2.5013    8.0943 H   0  0  0  0  0  0  0  0  0  0  0  0
   -4.8585   -1.2881    7.5908 H   0  0  0  0  0  0  0  0  0  0  0  0
   -3.4185   -3.2130    5.6469 H   0  0  0  0  0  0  0  0  0  0  0  0
   -4.7871   -2.0795    5.2617 H   0  0  0  0  0  0  0  0  0  0  0  0
   -5.0581   -3.4678    6.3829 H   0  0  0  0  0  0  0  0  0  0  0  0
   -1.2900   -2.3599    7.0549 H   0  0  0  0  0  0  0  0  0  0  0  0
    0.2902   -1.5012    9.3056 H   0  0  0  0  0  0  0  0  0  0  0  0
    0.9075   -3.4797   10.6191 H   0  0  0  0  0  0  0  0  0  0  0  0
    2.2849   -5.2710    9.6279 H   0  0  0  0  0  0  0  0  0  0  0  0
    3.9042   -5.8883    7.8778 H   0  0  0  0  0  0  0  0  0  0  0  0
    4.0109   -4.9552    6.3573 H   0  0  0  0  0  0  0  0  0  0  0  0
    1.8029   -6.9642    7.1436 H   0  0  0  0  0  0  0  0  0  0  0  0
    1.7898   -5.9775    5.6211 H   0  0  0  0  0  0  0  0  0  0  0  0
    3.0921   -7.1927    5.9022 H   0  0  0  0  0  0  0  0  0  0  0  0
    2.3937   -3.1508    5.9025 H   0  0  0  0  0  0  0  0  0  0  0  0
    0.9984    3.6097    9.1423 H   0  0  0  0  0  0  0  0  0  0  0  0
    6.3651    6.6734    8.4424 H   0  0  0  0  0  0  0  0  0  0  0  0
    4.2322   10.2148    9.6844 H   0  0  0  0  0  0  0  0  0  0  0  0
    2.0943    9.0080    9.5315 H   0  0  0  0  0  0  0  0  0  0  0  0
  1  2  2  3
  2  3  1  0
  3  4  2  0
  3  5  1  0
  5  6  2  0
  6  7  1  0
  7  8  2  0
  8  9  1  0
  9 10  1  0
  9 11  2  0
 11 12  1  0
 11 13  1  0
 13 14  2  0
 14 15  1  0
 15 16  2  0
 16 17  1  0
 17 18  2  3
 18 19  1  0
 19 20  3  0
 18 21  1  0
 21 22  3  0
  1 23  1  0
 23 24  1  0
 24 25  1  0
 25 26  1  0
 26 27  2  0
 27 28  1  0
 28 29  1  0
 29 30  2  0
 30 31  1  0
 31 32  2  0
 32 33  1  0
 33 34  1  0
 34 35  1  0
 33 36  2  0
 28 37  1  0
 37 38  2  0
 38 39  1  0
 39 40  2  0
 40 41  1  0
 41 42  1  0
 42 43  1  0
 41 44  2  0
 28 45  1  0
 45 46  1  0
 27 47  1  0
 47 48  2  0
 48 49  1  0
 49 50  2  0
 50 51  1  0
 51 52  1  0
 52 53  2  0
 51 54  1  0
 54 55  2  0
 55 56  1  0
 56 57  2  0
 57 58  1  0
 58 59  1  0
 59 60  1  0
 58 61  2  0
 51 62  1  0
 62 63  2  0
 63 64  1  0
 64 65  2  0
 65 66  1  0
 66 67  1  0
 67 68  1  0
 66 69  2  0
 50 70  1  0
 70 71  2  0
 71 72  1  0
 71 73  1  0
 73 74  2  0
 74 75  1  0
 74 76  1  0
 76 77  2  0
 77 78  1  0
 78 79  2  0
 79 80  1  0
 80 81  2  0
 81 82  1  0
 82 83  1  0
 83 84  2  0
 84 85  1  0
 85 86  2  0
 86 87  1  0
 87 88  1  0
 88 89  1  0
 87 90  2  0
 82 91  1  0
 91 92  2  0
 92 93  1  0
 93 94  2  0
 94 95  1  0
 95 96  1  0
 96 97  1  0
 95 98  2  0
 79 99  1  0
 99100  1  0
100101  1  0
101102  2  0
102103  1  0
103104  1  0
104105  1  0
105106  2  0
106107  1  0
107108  2  0
108109  1  0
109110  1  0
110111  1  0
109112  2  0
104113  1  0
113114  2  0
114115  1  0
115116  2  0
116117  1  0
117118  1  0
118119  1  0
117120  2  0
101121  1  0
121122  2  3
122123  1  0
123124  2  0
123125  1  0
125126  2  0
126127  1  0
127128  1  0
127129  2  0
129130  1  0
130131  2  0
131132  1  0
132133  2  3
133134  1  0
134135  3  0
133136  1  0
136137  3  0
 17  2  1  0
 46 23  2  0
 52 48  1  0
 61 54  1  0
 69 62  1  0
 75 70  1  0
 81 76  1  0
 90 83  1  0
 98 91  1  0
103 99  2  0
112105  1  0
120113  1  0
132122  1  0
 16  5  1  0
 45 25  2  0
 72 49  1  0
 82 73  1  0
131125  1  0
 14  7  1  0
 53 26  1  0
104 78  1  0
 36 29  1  0
 44 37  1  0
  1138  1  0
  6139  1  0
  8140  1  0
 13141  1  0
 15142  1  0
 30143  1  0
 31144  1  0
 32145  1  0
 34146  1  0
 34147  1  0
 35148  1  0
 35149  1  0
 35150  1  0
 36151  1  0
 38152  1  0
 39153  1  0
 40154  1  0
 42155  1  0
 42156  1  0
 43157  1  0
 43158  1  0
 43159  1  0
 44160  1  0
 46161  1  0
 47162  1  0
 53163  1  0
 55164  1  0
 56165  1  0
 57166  1  0
 59167  1  0
 59168  1  0
 60169  1  0
 60170  1  0
 60171  1  0
 61172  1  0
 63173  1  0
 64174  1  0
 65175  1  0
 67176  1  0
 67177  1  0
 68178  1  0
 68179  1  0
 68180  1  0
 69181  1  0
 77182  1  0
 80183  1  0
 84184  1  0
 85185  1  0
 86186  1  0
 88187  1  0
 88188  1  0
 89189  1  0
 89190  1  0
 89191  1  0
 90192  1  0
 92193  1  0
 93194  1  0
 94195  1  0
 96196  1  0
 96197  1  0
 97198  1  0
 97199  1  0
 97200  1  0
 98201  1  0
102202  1  0
106203  1  0
107204  1  0
108205  1  0
110206  1  0
110207  1  0
111208  1  0
111209  1  0
111210  1  0
112211  1  0
114212  1  0
115213  1  0
116214  1  0
118215  1  0
118216  1  0
119217  1  0
119218  1  0
119219  1  0
120220  1  0
121221  1  0
126222  1  0
129223  1  0
130224  1  0
M  END

