
     RDKit          3D

112121  0  0  0  0  0  0  0  0999 V2000
   -0.9834    3.4483    2.8936 C   0  0  0  0  0  0  0  0  0  0  0  0
    0.0659    3.2165    3.7139 C   0  0  0  0  0  0  0  0  0  0  0  0
    0.7578    1.9384    3.9055 C   0  0  0  0  0  0  0  0  0  0  0  0
    1.0417    1.0832    3.0223 O   0  0  0  0  0  0  0  0  0  0  0  0
    1.2263    1.8740    5.2673 C   0  0  0  0  0  0  0  0  0  0  0  0
    1.5926    0.7434    5.9953 C   0  0  0  0  0  0  0  0  0  0  0  0
    1.8197    0.8804    7.3801 C   0  0  0  0  0  0  0  0  0  0  0  0
    2.1361   -0.2381    8.1597 C   0  0  0  0  0  0  0  0  0  0  0  0
    2.3300   -0.1004    9.5381 C   0  0  0  0  0  0  0  0  0  0  0  0
    2.6244   -1.1866   10.2837 F   0  0  0  0  0  0  0  0  0  0  0  0
    2.2247    1.1638   10.1375 C   0  0  0  0  0  0  0  0  0  0  0  0
    2.3776    1.2877   11.4741 F   0  0  0  0  0  0  0  0  0  0  0  0
    1.9043    2.2852    9.3743 C   0  0  0  0  0  0  0  0  0  0  0  0
    1.6921    2.1632    7.9930 C   0  0  0  0  0  0  0  0  0  0  0  0
    1.3180    3.2831    7.2275 C   0  0  0  0  0  0  0  0  0  0  0  0
    1.0780    3.1176    5.8485 C   0  0  0  0  0  0  0  0  0  0  0  0
    0.4900    4.0689    4.8632 C   0  0  0  0  0  0  0  0  0  0  0  0
    0.5301    5.4257    4.9265 C   0  0  0  0  0  0  0  0  0  0  0  0
    1.2220    6.1340    5.9809 C   0  0  0  0  0  0  0  0  0  0  0  0
    1.7695    6.7102    6.8262 N   0  0  0  0  0  0  0  0  0  0  0  0
   -0.1713    6.2639    3.9913 C   0  0  0  0  0  0  0  0  0  0  0  0
   -0.7742    6.9656    3.2796 N   0  0  0  0  0  0  0  0  0  0  0  0
   -1.6326    2.4524    2.0158 C   0  0  0  0  0  0  0  0  0  0  0  0
   -2.3521    2.7669    0.8543 C   0  0  0  0  0  0  0  0  0  0  0  0
   -2.8384    1.6142    0.2118 C   0  0  0  0  0  0  0  0  0  0  0  0
   -3.1490    1.3727   -1.2542 C   0  0  0  0  0  0  0  0  0  0  0  0
   -4.6747    1.5422   -1.5085 C   0  0  0  0  0  0  0  0  0  0  0  0
   -5.2060    2.9504   -1.2250 C   0  0  0  0  0  0  0  0  0  0  0  0
   -2.2994    2.2751   -2.2093 C   0  0  0  0  0  0  0  0  0  0  0  0
   -0.7852    2.0905   -2.0837 C   0  0  0  0  0  0  0  0  0  0  0  0
   -2.7706   -0.1160   -1.3592 C   0  0  0  0  0  0  0  0  0  0  0  0
   -2.4874   -0.6453   -0.0954 C   0  0  0  0  0  0  0  0  0  0  0  0
   -2.5642    0.4433    0.8485 C   0  0  0  0  0  0  0  0  0  0  0  0
   -1.6269    0.7710    2.1767 S   0  0  0  0  0  0  0  0  0  0  0  0
   -1.8087   -1.8636    0.0565 C   0  0  0  0  0  0  0  0  0  0  0  0
   -1.5045   -2.4079    1.3060 O   0  0  0  0  0  0  0  0  0  0  0  0
   -2.4796   -2.6235    2.3227 C   0  0  0  0  0  0  0  0  0  0  0  0
   -1.8214   -3.3355    3.4973 C   0  0  0  0  0  0  0  0  0  0  0  0
   -1.3452   -2.5033   -1.1082 C   0  0  0  0  0  0  0  0  0  0  0  0
   -1.7196   -2.0432   -2.3710 C   0  0  0  0  0  0  0  0  0  0  0  0
   -2.4519   -0.8495   -2.5265 C   0  0  0  0  0  0  0  0  0  0  0  0
   -2.7518   -0.3336   -3.7913 O   0  0  0  0  0  0  0  0  0  0  0  0
   -3.4947   -1.0644   -4.7661 C   0  0  0  0  0  0  0  0  0  0  0  0
   -4.9526   -0.6393   -4.7257 C   0  0  0  0  0  0  0  0  0  0  0  0
   -0.8501   -2.7024   -3.3359 C   0  0  0  0  0  0  0  0  0  0  0  0
    0.1319   -3.3869   -2.6619 C   0  0  0  0  0  0  0  0  0  0  0  0
   -0.2130   -3.5318   -1.1973 C   0  0  0  0  0  0  0  0  0  0  0  0
    0.9800   -3.1999   -0.2482 C   0  0  0  0  0  0  0  0  0  0  0  0
    1.5012   -1.7643   -0.3592 C   0  0  0  0  0  0  0  0  0  0  0  0
   -0.8073   -4.9335   -0.9136 C   0  0  0  0  0  0  0  0  0  0  0  0
    0.1664   -6.0912   -1.1655 C   0  0  0  0  0  0  0  0  0  0  0  0
    1.3690   -3.4310   -3.3258 C   0  0  0  0  0  0  0  0  0  0  0  0
    1.3086   -2.7831   -4.5720 C   0  0  0  0  0  0  0  0  0  0  0  0
   -0.2381   -2.1453   -4.7847 S   0  0  0  0  0  0  0  0  0  0  0  0
    2.4507   -2.3204   -5.3856 C   0  0  0  0  0  0  0  0  0  0  0  0
    3.6239   -1.9883   -4.8265 C   0  0  0  0  0  0  0  0  0  0  0  0
    3.6559   -0.7173   -4.0674 C   0  0  0  0  0  0  0  0  0  0  0  0
    2.7309   -0.2899   -3.3411 O   0  0  0  0  0  0  0  0  0  0  0  0
    4.7676    0.1023   -4.5170 C   0  0  0  0  0  0  0  0  0  0  0  0
    5.0785    1.4152   -4.1634 C   0  0  0  0  0  0  0  0  0  0  0  0
    6.1585    2.0516   -4.7987 C   0  0  0  0  0  0  0  0  0  0  0  0
    6.4644    3.3387   -4.4871 F   0  0  0  0  0  0  0  0  0  0  0  0
    6.9379    1.3523   -5.7383 C   0  0  0  0  0  0  0  0  0  0  0  0
    6.6088    0.0278   -6.0826 C   0  0  0  0  0  0  0  0  0  0  0  0
    5.4701   -0.5719   -5.4889 C   0  0  0  0  0  0  0  0  0  0  0  0
    4.8604   -1.9162   -5.6614 C   0  0  0  0  0  0  0  0  0  0  0  0
    5.4188   -3.0029   -6.2484 C   0  0  0  0  0  0  0  0  0  0  0  0
    6.6576   -2.9484   -6.9994 C   0  0  0  0  0  0  0  0  0  0  0  0
    7.6411   -2.9370   -7.6006 N   0  0  0  0  0  0  0  0  0  0  0  0
    4.8913   -4.3238   -6.0044 C   0  0  0  0  0  0  0  0  0  0  0  0
    4.4969   -5.3916   -5.7783 N   0  0  0  0  0  0  0  0  0  0  0  0
   -1.5130    4.3775    2.9533 H   0  0  0  0  0  0  0  0  0  0  0  0
    1.6592   -0.2207    5.5101 H   0  0  0  0  0  0  0  0  0  0  0  0
    2.2172   -1.2201    7.7057 H   0  0  0  0  0  0  0  0  0  0  0  0
    1.8138    3.2551    9.8533 H   0  0  0  0  0  0  0  0  0  0  0  0
    1.1723    4.2461    7.7073 H   0  0  0  0  0  0  0  0  0  0  0  0
   -2.4087    3.7597    0.4191 H   0  0  0  0  0  0  0  0  0  0  0  0
   -5.2443    0.8280   -0.8693 H   0  0  0  0  0  0  0  0  0  0  0  0
   -4.9039    1.2830   -2.5612 H   0  0  0  0  0  0  0  0  0  0  0  0
   -4.9925    3.2574   -0.1844 H   0  0  0  0  0  0  0  0  0  0  0  0
   -6.3097    2.9628   -1.3508 H   0  0  0  0  0  0  0  0  0  0  0  0
   -4.7760    3.6847   -1.9343 H   0  0  0  0  0  0  0  0  0  0  0  0
   -2.5959    2.0940   -3.2647 H   0  0  0  0  0  0  0  0  0  0  0  0
   -2.5179    3.3460   -2.0101 H   0  0  0  0  0  0  0  0  0  0  0  0
   -0.4172    2.4549   -1.0984 H   0  0  0  0  0  0  0  0  0  0  0  0
   -0.4862    1.0291   -2.1973 H   0  0  0  0  0  0  0  0  0  0  0  0
   -0.2797    2.6788   -2.8805 H   0  0  0  0  0  0  0  0  0  0  0  0
   -2.8958   -1.6622    2.6734 H   0  0  0  0  0  0  0  0  0  0  0  0
   -3.3024   -3.2557    1.9257 H   0  0  0  0  0  0  0  0  0  0  0  0
   -2.5277   -3.4127    4.3498 H   0  0  0  0  0  0  0  0  0  0  0  0
   -1.5171   -4.3573    3.1826 H   0  0  0  0  0  0  0  0  0  0  0  0
   -0.9178   -2.7772    3.8198 H   0  0  0  0  0  0  0  0  0  0  0  0
   -3.4191   -2.1577   -4.5778 H   0  0  0  0  0  0  0  0  0  0  0  0
   -3.0792   -0.8469   -5.7705 H   0  0  0  0  0  0  0  0  0  0  0  0
   -5.0351    0.4437   -4.9625 H   0  0  0  0  0  0  0  0  0  0  0  0
   -5.3741   -0.8180   -3.7133 H   0  0  0  0  0  0  0  0  0  0  0  0
   -5.5411   -1.2239   -5.4624 H   0  0  0  0  0  0  0  0  0  0  0  0
    0.6933   -3.3985    0.8074 H   0  0  0  0  0  0  0  0  0  0  0  0
    1.8323   -3.8732   -0.4729 H   0  0  0  0  0  0  0  0  0  0  0  0
    0.7160   -1.0077   -0.1486 H   0  0  0  0  0  0  0  0  0  0  0  0
    2.3179   -1.6096    0.3755 H   0  0  0  0  0  0  0  0  0  0  0  0
    1.9057   -1.5817   -1.3741 H   0  0  0  0  0  0  0  0  0  0  0  0
   -1.1569   -4.9826    0.1400 H   0  0  0  0  0  0  0  0  0  0  0  0
   -1.7021   -5.0969   -1.5544 H   0  0  0  0  0  0  0  0  0  0  0  0
    1.0509   -6.0093   -0.5077 H   0  0  0  0  0  0  0  0  0  0  0  0
    0.4879   -6.1094   -2.2279 H   0  0  0  0  0  0  0  0  0  0  0  0
   -0.3389   -7.0495   -0.9280 H   0  0  0  0  0  0  0  0  0  0  0  0
    2.2743   -3.8071   -2.8651 H   0  0  0  0  0  0  0  0  0  0  0  0
    2.1452   -1.7510   -6.2800 H   0  0  0  0  0  0  0  0  0  0  0  0
    4.5050    1.9431   -3.4214 H   0  0  0  0  0  0  0  0  0  0  0  0
    7.8069    1.8214   -6.1911 H   0  0  0  0  0  0  0  0  0  0  0  0
    7.2715   -0.4976   -6.7655 H   0  0  0  0  0  0  0  0  0  0  0  0
  1  2  2  3
  2  3  1  0
  3  4  2  0
  3  5  1  0
  5  6  2  0
  6  7  1  0
  7  8  2  0
  8  9  1  0
  9 10  1  0
  9 11  2  0
 11 12  1  0
 11 13  1  0
 13 14  2  0
 14 15  1  0
 15 16  2  0
 16 17  1  0
 17 18  2  3
 18 19  1  0
 19 20  3  0
 18 21  1  0
 21 22  3  0
  1 23  1  0
 23 24  2  0
 24 25  1  0
 25 26  1  0
 26 27  1  0
 27 28  1  0
 26 29  1  0
 29 30  1  0
 26 31  1  0
 31 32  2  0
 32 33  1  0
 33 34  1  0
 32 35  1  0
 35 36  1  0
 36 37  1  0
 37 38  1  0
 35 39  2  0
 39 40  1  0
 40 41  2  0
 41 42  1  0
 42 43  1  0
 43 44  1  0
 40 45  1  0
 45 46  2  0
 46 47  1  0
 47 48  1  0
 48 49  1  0
 47 50  1  0
 50 51  1  0
 46 52  1  0
 52 53  2  0
 53 54  1  0
 53 55  1  0
 55 56  2  3
 56 57  1  0
 57 58  2  0
 57 59  1  0
 59 60  2  0
 60 61  1  0
 61 62  1  0
 61 63  2  0
 63 64  1  0
 64 65  2  0
 65 66  1  0
 66 67  2  3
 67 68  1  0
 68 69  3  0
 67 70  1  0
 70 71  3  0
 17  2  1  0
 34 23  1  0
 47 39  1  0
 66 56  1  0
 16  5  1  0
 33 25  2  0
 54 45  1  0
 65 59  1  0
 14  7  1  0
 41 31  1  0
  1 72  1  0
  6 73  1  0
  8 74  1  0
 13 75  1  0
 15 76  1  0
 24 77  1  0
 27 78  1  0
 27 79  1  0
 28 80  1  0
 28 81  1  0
 28 82  1  0
 29 83  1  0
 29 84  1  0
 30 85  1  0
 30 86  1  0
 30 87  1  0
 37 88  1  0
 37 89  1  0
 38 90  1  0
 38 91  1  0
 38 92  1  0
 43 93  1  0
 43 94  1  0
 44 95  1  0
 44 96  1  0
 44 97  1  0
 48 98  1  0
 48 99  1  0
 49100  1  0
 49101  1  0
 49102  1  0
 50103  1  0
 50104  1  0
 51105  1  0
 51106  1  0
 51107  1  0
 52108  1  0
 55109  1  0
 60110  1  0
 63111  1  0
 64112  1  0
M  END

