
     RDKit          3D

 91102  0  0  0  0  0  0  0  0999 V2000
   -2.2902   -5.8386    3.5881 C   0  0  0  0  0  0  0  0  0  0  0  0
   -1.7923   -7.1116    3.1258 C   0  0  0  0  0  0  0  0  0  0  0  0
   -1.5643   -8.2609    2.8334 C   0  0  0  0  0  0  0  0  0  0  0  0
   -0.2250   -8.7168    3.1318 O   0  0  0  0  0  0  0  0  0  0  0  0
   -2.2713   -9.3019    2.2443 C   0  0  0  0  0  0  0  0  0  0  0  0
   -2.2008  -10.6524    1.9009 C   0  0  0  0  0  0  0  0  0  0  0  0
   -3.1174  -11.4159    1.4100 C   0  0  0  0  0  0  0  0  0  0  0  0
   -3.2380  -12.7719    0.9895 C   0  0  0  0  0  0  0  0  0  0  0  0
   -4.2277  -13.2975    0.5361 C   0  0  0  0  0  0  0  0  0  0  0  0
   -5.3971  -12.0009    0.5225 S   0  0  0  0  0  0  0  0  0  0  0  0
   -4.4246  -10.8071    1.1621 C   0  0  0  0  0  0  0  0  0  0  0  0
   -4.5155   -9.4539    1.4935 C   0  0  0  0  0  0  0  0  0  0  0  0
   -3.5218   -8.6946    2.0073 C   0  0  0  0  0  0  0  0  0  0  0  0
   -3.5048   -7.3483    2.4419 C   0  0  0  0  0  0  0  0  0  0  0  0
   -4.3471   -6.5296    2.5498 C   0  0  0  0  0  0  0  0  0  0  0  0
   -4.9081   -5.3240    2.9634 C   0  0  0  0  0  0  0  0  0  0  0  0
   -5.3707   -4.2948    3.3222 N   0  0  0  0  0  0  0  0  0  0  0  0
   -5.2238   -6.7428    1.1908 C   0  0  0  0  0  0  0  0  0  0  0  0
   -5.9228   -6.9216    0.1238 N   0  0  0  0  0  0  0  0  0  0  0  0
   -1.6412   -4.6280    3.4046 C   0  0  0  0  0  0  0  0  0  0  0  0
    0.2800   -4.3074    3.9409 Se  0  0  0  0  0  2  0  0  0  0  0  0
    0.1717   -2.4873    3.2746 C   0  0  0  0  0  0  0  0  0  0  0  0
    0.9377   -1.3751    3.0837 C   0  0  0  0  0  0  0  0  0  0  0  0
    2.2933   -1.1332    3.2995 C   0  0  0  0  0  0  0  0  0  0  0  0
    2.7166    0.0966    2.8045 C   0  0  0  0  0  0  0  0  0  0  0  0
    4.0624    0.2881    3.0499 N   0  0  0  0  0  0  0  0  0  0  0  0
    4.6030   -1.0680    3.8288 S   0  0  0  0  0  0  0  0  0  0  0  0
    3.1594   -1.8873    3.8659 N   0  0  0  0  0  0  0  0  0  0  0  0
    1.8605    0.9375    2.1725 C   0  0  0  0  0  0  0  0  0  0  0  0
    2.1297    2.1101    1.5516 C   0  0  0  0  0  0  0  0  0  0  0  0
    3.4361    3.2611    1.2459 S   0  0  0  0  0  0  0  0  0  0  0  0
    2.2458    4.4529    0.2030 C   0  0  0  0  0  0  0  0  0  0  0  0
    2.5846    5.5335   -0.5159 C   0  0  0  0  0  0  0  0  0  0  0  0
    3.8223    6.3742   -0.3487 C   0  0  0  0  0  0  0  0  0  0  0  0
    3.7530    7.1568    0.9378 C   0  0  0  0  0  0  0  0  0  0  0  0
    1.6139    5.8408   -1.3923 C   0  0  0  0  0  0  0  0  0  0  0  0
    0.4401    4.6296   -1.0386 S   0  0  0  0  0  0  0  0  0  0  0  0
    1.6532    3.7441    0.4601 C   0  0  0  0  0  0  0  0  0  0  0  0
    0.9223    2.6606    0.9019 C   0  0  0  0  0  0  0  0  0  0  0  0
    0.0203    1.7209    1.2061 N   0  0  0  0  0  0  0  0  0  0  0  0
    0.4965    0.7200    1.9359 C   0  0  0  0  0  0  0  0  0  0  0  0
    0.0260   -0.5071    2.4421 C   0  0  0  0  0  0  0  0  0  0  0  0
   -1.1199   -1.0768    2.3083 N   0  0  0  0  0  0  0  0  0  0  0  0
   -1.0762   -2.4070    2.8242 C   0  0  0  0  0  0  0  0  0  0  0  0
   -1.9413   -3.4087    2.8756 C   0  0  0  0  0  0  0  0  0  0  0  0
   -2.4269   -0.4936    2.0752 C   0  0  0  0  0  0  0  0  0  0  0  0
   -3.2556   -0.7128    3.3853 C   0  0  0  0  0  0  0  0  0  0  0  0
   -1.3082    1.8731    0.6243 C   0  0  0  0  0  0  0  0  0  0  0  0
   -2.0711    2.8495    1.4607 C   0  0  0  0  0  0  0  0  0  0  0  0
    1.4976    6.7894   -2.5200 C   0  0  0  0  0  0  0  0  0  0  0  0
    2.2635    6.9373   -3.4956 C   0  0  0  0  0  0  0  0  0  0  0  0
    3.5574    6.2629   -3.8973 C   0  0  0  0  0  0  0  0  0  0  0  0
    4.1091    5.4173   -3.1236 O   0  0  0  0  0  0  0  0  0  0  0  0
    3.9885    6.6881   -5.1718 C   0  0  0  0  0  0  0  0  0  0  0  0
    5.1034    6.3028   -5.8908 C   0  0  0  0  0  0  0  0  0  0  0  0
    6.2576    5.1464   -5.1653 Cl  0  0  0  0  0  0  0  0  0  0  0  0
    5.3827    6.7508   -7.1237 C   0  0  0  0  0  0  0  0  0  0  0  0
    6.8042    6.2970   -8.0705 Cl  0  0  0  0  0  0  0  0  0  0  0  0
    4.5150    7.6345   -7.6894 C   0  0  0  0  0  0  0  0  0  0  0  0
    4.7835    8.2987   -9.2732 Cl  0  0  0  0  0  0  0  0  0  0  0  0
    3.3702    8.0556   -6.9625 C   0  0  0  0  0  0  0  0  0  0  0  0
    2.1292    8.8928   -7.8685 Cl  0  0  0  0  0  0  0  0  0  0  0  0
    3.1161    7.5892   -5.6903 C   0  0  0  0  0  0  0  0  0  0  0  0
    2.0193    7.8089   -4.7210 C   0  0  0  0  0  0  0  0  0  0  0  0
    1.0070    8.5851   -4.7950 C   0  0  0  0  0  0  0  0  0  0  0  0
   -0.0878    9.1451   -4.4097 C   0  0  0  0  0  0  0  0  0  0  0  0
   -1.0521    9.6552   -4.0806 N   0  0  0  0  0  0  0  0  0  0  0  0
    1.8509    9.9329   -5.4026 C   0  0  0  0  0  0  0  0  0  0  0  0
    2.4350   10.8822   -5.8362 N   0  0  0  0  0  0  0  0  0  0  0  0
   -3.1000   -5.8871    4.2814 H   0  0  0  0  0  0  0  0  0  0  0  0
   -1.1592  -11.0708    2.1274 H   0  0  0  0  0  0  0  0  0  0  0  0
   -2.2327  -13.3643    1.1491 H   0  0  0  0  0  0  0  0  0  0  0  0
   -4.4702  -14.3426    0.1729 H   0  0  0  0  0  0  0  0  0  0  0  0
   -5.4979   -9.0533    1.3483 H   0  0  0  0  0  0  0  0  0  0  0  0
    3.8624    7.1113   -1.1825 H   0  0  0  0  0  0  0  0  0  0  0  0
    4.7730    5.7679   -0.3456 H   0  0  0  0  0  0  0  0  0  0  0  0
    3.1177    8.0295    0.7800 H   0  0  0  0  0  0  0  0  0  0  0  0
    3.1786    6.5133    1.6917 H   0  0  0  0  0  0  0  0  0  0  0  0
    4.7248    7.4689    1.3396 H   0  0  0  0  0  0  0  0  0  0  0  0
   -2.9981   -3.3665    2.4501 H   0  0  0  0  0  0  0  0  0  0  0  0
   -2.9932   -1.0553    1.3241 H   0  0  0  0  0  0  0  0  0  0  0  0
   -2.5302    0.5216    1.9661 H   0  0  0  0  0  0  0  0  0  0  0  0
   -3.3973    0.2194    3.8632 H   0  0  0  0  0  0  0  0  0  0  0  0
   -2.7641   -1.4353    4.0164 H   0  0  0  0  0  0  0  0  0  0  0  0
   -4.3127   -0.9952    3.0529 H   0  0  0  0  0  0  0  0  0  0  0  0
   -1.7646    1.0531    0.1710 H   0  0  0  0  0  0  0  0  0  0  0  0
   -1.1709    2.5012   -0.3637 H   0  0  0  0  0  0  0  0  0  0  0  0
   -1.6612    2.7470    2.5209 H   0  0  0  0  0  0  0  0  0  0  0  0
   -3.1422    2.7404    1.5173 H   0  0  0  0  0  0  0  0  0  0  0  0
   -1.8042    3.9427    1.2252 H   0  0  0  0  0  0  0  0  0  0  0  0
    0.5980    7.4188   -2.4456 H   0  0  0  0  0  0  0  0  0  0  0  0
  1  2  2  3
  2  3  1  0
  3  4  2  0
  3  5  1  0
  5  6  2  0
  6  7  1  0
  7  8  1  0
  8  9  2  0
  9 10  1  0
 10 11  1  0
 11 12  1  0
 12 13  2  0
 13 14  1  0
 14 15  2  3
 15 16  1  0
 16 17  3  0
 15 18  1  0
 18 19  3  0
  1 20  1  0
 20 21  1  0
 21 22  1  0
 22 23  1  0
 23 24  1  0
 24 25  1  0
 25 26  2  0
 26 27  1  0
 27 28  1  0
 25 29  1  0
 29 30  1  0
 30 31  1  0
 31 32  1  0
 32 33  1  0
 33 34  1  0
 34 35  1  0
 33 36  2  0
 36 37  1  0
 37 38  1  0
 38 39  1  0
 39 40  1  0
 40 41  1  0
 41 42  1  0
 42 43  1  0
 43 44  1  0
 44 45  1  0
 43 46  1  0
 46 47  1  0
 40 48  1  0
 48 49  1  0
 36 50  1  0
 50 51  2  3
 51 52  1  0
 52 53  2  0
 52 54  1  0
 54 55  2  0
 55 56  1  0
 55 57  1  0
 57 58  1  0
 57 59  2  0
 59 60  1  0
 59 61  1  0
 61 62  1  0
 61 63  2  0
 63 64  1  0
 64 65  2  3
 65 66  1  0
 66 67  3  0
 65 68  1  0
 68 69  3  0
 14  2  1  0
 45 20  2  0
 64 51  1  0
 13  5  1  0
 44 22  2  0
 63 54  1  0
 11  7  2  0
 42 23  2  0
 28 24  2  0
 41 29  2  0
 39 30  2  0
 38 32  2  0
  1 70  1  0
  6 71  1  0
  8 72  1  0
  9 73  1  0
 12 74  1  0
 34 75  1  0
 34 76  1  0
 35 77  1  0
 35 78  1  0
 35 79  1  0
 45 80  1  0
 46 81  1  0
 46 82  1  0
 47 83  1  0
 47 84  1  0
 47 85  1  0
 48 86  1  0
 48 87  1  0
 49 88  1  0
 49 89  1  0
 49 90  1  0
 50 91  1  0
M  END

