
     RDKit          3D

107122  0  0  0  0  0  0  0  0999 V2000
   -5.6734   -1.6893    5.7748 C   0  0  0  0  0  0  0  0  0  0  0  0
   -6.2329   -0.4676    5.7542 C   0  0  0  0  0  0  0  0  0  0  0  0
   -7.4888   -0.2010    5.0414 C   0  0  0  0  0  0  0  0  0  0  0  0
   -8.3700   -1.0539    4.7431 O   0  0  0  0  0  0  0  0  0  0  0  0
   -7.4627    1.1722    4.5740 C   0  0  0  0  0  0  0  0  0  0  0  0
   -8.3097    1.7782    3.6336 C   0  0  0  0  0  0  0  0  0  0  0  0
   -7.9669    3.0633    3.1927 C   0  0  0  0  0  0  0  0  0  0  0  0
   -8.6554    3.8196    2.2349 C   0  0  0  0  0  0  0  0  0  0  0  0
   -8.0469    5.0453    1.9765 C   0  0  0  0  0  0  0  0  0  0  0  0
   -6.6580    5.1867    2.9407 S   0  0  0  0  0  0  0  0  0  0  0  0
   -6.8204    3.6920    3.6809 C   0  0  0  0  0  0  0  0  0  0  0  0
   -5.9599    3.0856    4.6012 C   0  0  0  0  0  0  0  0  0  0  0  0
   -6.3042    1.7987    5.0475 C   0  0  0  0  0  0  0  0  0  0  0  0
   -5.5528    0.8514    5.9085 C   0  0  0  0  0  0  0  0  0  0  0  0
   -4.6259    1.1608    6.8535 C   0  0  0  0  0  0  0  0  0  0  0  0
   -4.1389    2.5018    7.0482 C   0  0  0  0  0  0  0  0  0  0  0  0
   -3.7599    3.5798    7.2210 N   0  0  0  0  0  0  0  0  0  0  0  0
   -4.2258    0.1975    7.8478 C   0  0  0  0  0  0  0  0  0  0  0  0
   -3.9175   -0.5764    8.6543 N   0  0  0  0  0  0  0  0  0  0  0  0
   -4.2299   -1.9043    5.5622 C   0  0  0  0  0  0  0  0  0  0  0  0
   -3.4931   -3.0583    5.9044 C   0  0  0  0  0  0  0  0  0  0  0  0
   -4.0153   -4.2258    6.6946 C   0  0  0  0  0  0  0  0  0  0  0  0
   -3.4193   -4.2493    8.0979 C   0  0  0  0  0  0  0  0  0  0  0  0
   -2.2200   -3.0284    5.3198 C   0  0  0  0  0  0  0  0  0  0  0  0
   -1.9766   -1.9483    4.5063 C   0  0  0  0  0  0  0  0  0  0  0  0
   -3.3165   -0.9592    4.4750 S   0  0  0  0  0  0  0  0  0  0  0  0
   -0.7950   -2.0510    3.7829 C   0  0  0  0  0  0  0  0  0  0  0  0
   -0.1449   -3.2073    4.0693 C   0  0  0  0  0  0  0  0  0  0  0  0
   -0.9946   -4.1980    5.1558 S   0  0  0  0  0  0  0  0  0  0  0  0
    0.7425   -3.4282    3.0588 C   0  0  0  0  0  0  0  0  0  0  0  0
    1.4704   -4.5738    2.7300 C   0  0  0  0  0  0  0  0  0  0  0  0
    1.5630   -5.6719    3.5205 N   0  0  0  0  0  0  0  0  0  0  0  0
    2.5491   -6.6099    2.5755 S   0  0  0  0  0  0  0  0  0  0  0  0
    2.8805   -5.7296    1.2121 N   0  0  0  0  0  0  0  0  0  0  0  0
    2.1710   -4.6082    1.4907 C   0  0  0  0  0  0  0  0  0  0  0  0
    2.0906   -3.5011    0.6412 C   0  0  0  0  0  0  0  0  0  0  0  0
    2.8177   -3.1907   -0.4701 C   0  0  0  0  0  0  0  0  0  0  0  0
    4.2620   -3.7745   -1.1576 S   0  0  0  0  0  0  0  0  0  0  0  0
    4.5662   -2.2610   -1.8680 C   0  0  0  0  0  0  0  0  0  0  0  0
    5.6495   -1.7476   -2.5728 C   0  0  0  0  0  0  0  0  0  0  0  0
    5.4887   -0.3751   -2.8290 C   0  0  0  0  0  0  0  0  0  0  0  0
    4.0318    0.1607   -2.1277 S   0  0  0  0  0  0  0  0  0  0  0  0
    3.6023   -1.3475   -1.5386 C   0  0  0  0  0  0  0  0  0  0  0  0
    2.6041   -1.8725   -0.7263 C   0  0  0  0  0  0  0  0  0  0  0  0
    1.7602   -1.2904    0.1658 N   0  0  0  0  0  0  0  0  0  0  0  0
    1.8452    0.1318    0.5161 C   0  0  0  0  0  0  0  0  0  0  0  0
    2.9836    0.3849    1.4988 C   0  0  0  0  0  0  0  0  0  0  0  0
    1.3868   -2.3300    0.9869 C   0  0  0  0  0  0  0  0  0  0  0  0
    0.6368   -2.3214    2.1993 C   0  0  0  0  0  0  0  0  0  0  0  0
   -0.3736   -1.4859    2.6174 N   0  0  0  0  0  0  0  0  0  0  0  0
   -1.2263   -0.6378    1.7694 C   0  0  0  0  0  0  0  0  0  0  0  0
   -1.2686    0.8124    2.2743 C   0  0  0  0  0  0  0  0  0  0  0  0
    6.4994    0.4302   -3.5442 C   0  0  0  0  0  0  0  0  0  0  0  0
    6.2263    1.3182   -4.5203 C   0  0  0  0  0  0  0  0  0  0  0  0
    7.0896    1.4065   -5.7023 C   0  0  0  0  0  0  0  0  0  0  0  0
    8.3262    1.1747   -5.7361 O   0  0  0  0  0  0  0  0  0  0  0  0
    6.2464    1.6421   -6.8614 C   0  0  0  0  0  0  0  0  0  0  0  0
    6.6084    1.5391   -8.2243 C   0  0  0  0  0  0  0  0  0  0  0  0
    5.5313    1.5934   -9.0904 C   0  0  0  0  0  0  0  0  0  0  0  0
    4.1742    1.7412   -8.6521 C   0  0  0  0  0  0  0  0  0  0  0  0
    3.8151    1.8623   -7.3187 C   0  0  0  0  0  0  0  0  0  0  0  0
    4.9122    1.8188   -6.4175 C   0  0  0  0  0  0  0  0  0  0  0  0
    4.8960    1.8352   -4.9391 C   0  0  0  0  0  0  0  0  0  0  0  0
    4.1558    2.6985   -4.2067 C   0  0  0  0  0  0  0  0  0  0  0  0
    3.0391    3.4198   -4.7668 C   0  0  0  0  0  0  0  0  0  0  0  0
    2.1545    4.0224   -5.2030 N   0  0  0  0  0  0  0  0  0  0  0  0
    4.5857    3.1185   -2.8941 C   0  0  0  0  0  0  0  0  0  0  0  0
    4.9257    3.4469   -1.8403 N   0  0  0  0  0  0  0  0  0  0  0  0
    3.6853    1.6218  -10.0652 C   0  0  0  0  0  0  0  0  0  0  0  0
    3.0246    0.2758  -10.4923 C   0  0  0  0  0  0  0  0  0  0  0  0
    3.6131   -0.8695   -9.7011 C   0  0  0  0  0  0  0  0  0  0  0  0
    4.8780   -1.0008  -10.1040 C   0  0  0  0  0  0  0  0  0  0  0  0
    5.1083    0.0575  -11.1607 C   0  0  0  0  0  0  0  0  0  0  0  0
    3.7383    0.0388  -11.8114 C   0  0  0  0  0  0  0  0  0  0  0  0
    5.0753    1.4744  -10.5139 C   0  0  0  0  0  0  0  0  0  0  0  0
   -6.3103   -2.5474    5.6148 H   0  0  0  0  0  0  0  0  0  0  0  0
   -9.1704    1.2565    3.2381 H   0  0  0  0  0  0  0  0  0  0  0  0
   -9.5649    3.4924    1.7443 H   0  0  0  0  0  0  0  0  0  0  0  0
   -8.4027    5.7845    1.2705 H   0  0  0  0  0  0  0  0  0  0  0  0
   -5.0427    3.5757    4.8830 H   0  0  0  0  0  0  0  0  0  0  0  0
   -3.7572   -5.1683    6.1695 H   0  0  0  0  0  0  0  0  0  0  0  0
   -5.1242   -4.1914    6.7748 H   0  0  0  0  0  0  0  0  0  0  0  0
   -3.6406   -3.2987    8.6173 H   0  0  0  0  0  0  0  0  0  0  0  0
   -3.8942   -5.0682    8.6865 H   0  0  0  0  0  0  0  0  0  0  0  0
   -2.3209   -4.4195    8.0579 H   0  0  0  0  0  0  0  0  0  0  0  0
    6.5181   -2.3294   -2.8661 H   0  0  0  0  0  0  0  0  0  0  0  0
    0.9217    0.5000    0.9473 H   0  0  0  0  0  0  0  0  0  0  0  0
    1.9967    0.7385   -0.3979 H   0  0  0  0  0  0  0  0  0  0  0  0
    2.8185   -0.1989    2.4292 H   0  0  0  0  0  0  0  0  0  0  0  0
    3.9554    0.0906    1.0510 H   0  0  0  0  0  0  0  0  0  0  0  0
    3.0187    1.4649    1.7520 H   0  0  0  0  0  0  0  0  0  0  0  0
   -0.8896   -0.6733    0.7148 H   0  0  0  0  0  0  0  0  0  0  0  0
   -2.2611   -1.0436    1.7433 H   0  0  0  0  0  0  0  0  0  0  0  0
   -2.0196    0.9424    3.0751 H   0  0  0  0  0  0  0  0  0  0  0  0
   -1.5476    1.4866    1.4365 H   0  0  0  0  0  0  0  0  0  0  0  0
   -0.2856    1.1313    2.6818 H   0  0  0  0  0  0  0  0  0  0  0  0
    7.5125    0.0367   -3.4971 H   0  0  0  0  0  0  0  0  0  0  0  0
    7.6215    1.3596   -8.5592 H   0  0  0  0  0  0  0  0  0  0  0  0
    2.7835    1.9210   -7.0048 H   0  0  0  0  0  0  0  0  0  0  0  0
    3.1868    2.5386  -10.4525 H   0  0  0  0  0  0  0  0  0  0  0  0
    1.9166    0.2880  -10.5507 H   0  0  0  0  0  0  0  0  0  0  0  0
    3.1005   -1.5139   -8.9952 H   0  0  0  0  0  0  0  0  0  0  0  0
    5.5700   -1.7701   -9.7794 H   0  0  0  0  0  0  0  0  0  0  0  0
    5.9649   -0.1343  -11.8416 H   0  0  0  0  0  0  0  0  0  0  0  0
    3.4850   -0.9465  -12.2789 H   0  0  0  0  0  0  0  0  0  0  0  0
    3.5884    0.8602  -12.5526 H   0  0  0  0  0  0  0  0  0  0  0  0
    5.4260    2.2996  -11.1710 H   0  0  0  0  0  0  0  0  0  0  0  0
  1  2  2  3
  2  3  1  0
  3  4  2  0
  3  5  1  0
  5  6  2  0
  6  7  1  0
  7  8  1  0
  8  9  2  0
  9 10  1  0
 10 11  1  0
 11 12  1  0
 12 13  2  0
 13 14  1  0
 14 15  2  3
 15 16  1  0
 16 17  3  0
 15 18  1  0
 18 19  3  0
  1 20  1  0
 20 21  2  0
 21 22  1  0
 22 23  1  0
 21 24  1  0
 24 25  2  0
 25 26  1  0
 25 27  1  0
 27 28  2  0
 28 29  1  0
 28 30  1  0
 30 31  1  0
 31 32  2  0
 32 33  1  0
 33 34  1  0
 34 35  2  0
 35 36  1  0
 36 37  1  0
 37 38  1  0
 38 39  1  0
 39 40  1  0
 40 41  2  0
 41 42  1  0
 42 43  1  0
 43 44  1  0
 44 45  1  0
 45 46  1  0
 46 47  1  0
 45 48  1  0
 48 49  1  0
 49 50  1  0
 50 51  1  0
 51 52  1  0
 41 53  1  0
 53 54  2  3
 54 55  1  0
 55 56  2  0
 55 57  1  0
 57 58  2  0
 58 59  1  0
 59 60  2  0
 60 61  1  0
 61 62  2  0
 62 63  1  0
 63 64  2  3
 64 65  1  0
 65 66  3  0
 64 67  1  0
 67 68  3  0
 60 69  1  0
 69 70  1  0
 70 71  1  0
 71 72  2  0
 72 73  1  0
 73 74  1  0
 73 75  1  0
 14  2  1  0
 26 20  1  0
 50 27  1  0
 63 54  1  0
 75 69  1  0
 13  5  1  0
 29 24  1  0
 49 30  2  0
 62 57  1  0
 74 70  1  0
 11  7  2  0
 35 31  1  0
 48 36  2  0
 75 59  1  0
 44 37  2  0
 43 39  2  0
  1 76  1  0
  6 77  1  0
  8 78  1  0
  9 79  1  0
 12 80  1  0
 22 81  1  0
 22 82  1  0
 23 83  1  0
 23 84  1  0
 23 85  1  0
 40 86  1  0
 46 87  1  0
 46 88  1  0
 47 89  1  0
 47 90  1  0
 47 91  1  0
 51 92  1  0
 51 93  1  0
 52 94  1  0
 52 95  1  0
 52 96  1  0
 53 97  1  0
 58 98  1  0
 61 99  1  0
 69100  1  0
 70101  1  0
 71102  1  0
 72103  1  0
 73104  1  0
 74105  1  0
 74106  1  0
 75107  1  0
M  END

