
     RDKit          3D

184202  0  0  0  0  0  0  0  0999 V2000
   -8.6211   -5.0579    0.5994 C   0  0  0  0  0  0  0  0  0  0  0  0
   -8.7874   -6.3527    0.9286 C   0  0  0  0  0  0  0  0  0  0  0  0
   -8.4100   -7.5013    0.0859 C   0  0  0  0  0  0  0  0  0  0  0  0
   -7.9704   -7.4570   -1.0963 O   0  0  0  0  0  0  0  0  0  0  0  0
   -8.8150   -8.7125    0.7565 C   0  0  0  0  0  0  0  0  0  0  0  0
   -8.5517  -10.0352    0.3636 C   0  0  0  0  0  0  0  0  0  0  0  0
   -8.9420  -11.0546    1.2374 C   0  0  0  0  0  0  0  0  0  0  0  0
   -8.7408  -12.4243    1.0464 C   0  0  0  0  0  0  0  0  0  0  0  0
   -9.2114  -13.1921    2.1097 C   0  0  0  0  0  0  0  0  0  0  0  0
   -9.8724  -12.1680    3.2835 S   0  0  0  0  0  0  0  0  0  0  0  0
   -9.5691  -10.7456    2.4397 C   0  0  0  0  0  0  0  0  0  0  0  0
   -9.8297   -9.4319    2.8400 C   0  0  0  0  0  0  0  0  0  0  0  0
   -9.4639   -8.3984    1.9504 C   0  0  0  0  0  0  0  0  0  0  0  0
   -9.5205   -6.9126    2.1157 C   0  0  0  0  0  0  0  0  0  0  0  0
  -10.0758   -6.2339    3.1544 C   0  0  0  0  0  0  0  0  0  0  0  0
   -9.8188   -4.8411    3.4125 C   0  0  0  0  0  0  0  0  0  0  0  0
   -9.6158   -3.7214    3.6319 N   0  0  0  0  0  0  0  0  0  0  0  0
  -10.9641   -6.8564    4.0970 C   0  0  0  0  0  0  0  0  0  0  0  0
  -11.6852   -7.3435    4.8653 N   0  0  0  0  0  0  0  0  0  0  0  0
   -7.6541   -4.5490   -0.3888 C   0  0  0  0  0  0  0  0  0  0  0  0
   -6.4065   -5.0900   -0.7004 C   0  0  0  0  0  0  0  0  0  0  0  0
   -5.5950   -4.2306   -1.4561 C   0  0  0  0  0  0  0  0  0  0  0  0
   -4.2579   -4.4723   -1.8166 C   0  0  0  0  0  0  0  0  0  0  0  0
   -3.6452   -5.7233   -1.6596 O   0  0  0  0  0  0  0  0  0  0  0  0
   -4.1088   -6.9102   -2.3051 C   0  0  0  0  0  0  0  0  0  0  0  0
   -3.8573   -6.8422   -3.8071 C   0  0  0  0  0  0  0  0  0  0  0  0
   -3.5168   -3.3855   -2.2863 C   0  0  0  0  0  0  0  0  0  0  0  0
   -1.8377   -3.3549   -2.5339 S   0  0  0  0  0  0  0  0  0  0  0  0
   -1.8375   -1.7016   -2.8288 C   0  0  0  0  0  0  0  0  0  0  0  0
   -0.8252   -0.6835   -2.8123 C   0  0  0  0  0  0  0  0  0  0  0  0
   -1.4802    0.5433   -2.7507 C   0  0  0  0  0  0  0  0  0  0  0  0
   -2.9678    0.3635   -2.4631 C   0  0  0  0  0  0  0  0  0  0  0  0
   -3.0793   -1.1426   -2.7015 C   0  0  0  0  0  0  0  0  0  0  0  0
   -4.0731   -2.1022   -2.4241 C   0  0  0  0  0  0  0  0  0  0  0  0
   -5.4404   -1.8806   -2.1696 C   0  0  0  0  0  0  0  0  0  0  0  0
   -6.1746   -2.9722   -1.6706 C   0  0  0  0  0  0  0  0  0  0  0  0
   -7.6980   -2.9648   -0.9633 S   0  0  0  0  0  0  0  0  0  0  0  0
   -5.9926   -0.6106   -2.3666 O   0  0  0  0  0  0  0  0  0  0  0  0
   -7.2631   -0.3561   -2.9692 C   0  0  0  0  0  0  0  0  0  0  0  0
   -7.3308   -0.9417   -4.3766 C   0  0  0  0  0  0  0  0  0  0  0  0
   -3.8172    1.1440   -3.4763 C   0  0  0  0  0  0  0  0  0  0  0  0
   -4.8881    1.9744   -3.0854 C   0  0  0  0  0  0  0  0  0  0  0  0
   -5.6518    2.6590   -4.0335 C   0  0  0  0  0  0  0  0  0  0  0  0
   -5.3843    2.5060   -5.3982 C   0  0  0  0  0  0  0  0  0  0  0  0
   -6.2687    3.1744   -6.4174 C   0  0  0  0  0  0  0  0  0  0  0  0
   -7.3911    2.2347   -6.8477 C   0  0  0  0  0  0  0  0  0  0  0  0
   -4.3399    1.6660   -5.8084 C   0  0  0  0  0  0  0  0  0  0  0  0
   -3.5629    0.9957   -4.8572 C   0  0  0  0  0  0  0  0  0  0  0  0
   -3.1711    0.7375   -0.9682 C   0  0  0  0  0  0  0  0  0  0  0  0
   -3.0795    2.0878   -0.5549 C   0  0  0  0  0  0  0  0  0  0  0  0
   -3.1236    2.4367    0.7984 C   0  0  0  0  0  0  0  0  0  0  0  0
   -3.2553    1.4496    1.7846 C   0  0  0  0  0  0  0  0  0  0  0  0
   -3.2667    1.8082    3.2475 C   0  0  0  0  0  0  0  0  0  0  0  0
   -1.9690    1.3718    3.9310 C   0  0  0  0  0  0  0  0  0  0  0  0
   -3.3308    0.1092    1.3967 C   0  0  0  0  0  0  0  0  0  0  0  0
   -3.2589   -0.2444    0.0515 C   0  0  0  0  0  0  0  0  0  0  0  0
   -0.7422    1.7338   -2.7484 C   0  0  0  0  0  0  0  0  0  0  0  0
    0.6500    1.6237   -2.6856 C   0  0  0  0  0  0  0  0  0  0  0  0
    1.5940    2.6475   -2.3579 C   0  0  0  0  0  0  0  0  0  0  0  0
    2.7763    2.0942   -1.9615 C   0  0  0  0  0  0  0  0  0  0  0  0
    2.7263    0.5679   -2.0314 C   0  0  0  0  0  0  0  0  0  0  0  0
    1.3021    0.3919   -2.5702 C   0  0  0  0  0  0  0  0  0  0  0  0
    0.5618   -0.8034   -2.6671 C   0  0  0  0  0  0  0  0  0  0  0  0
    3.7242   -0.0302   -3.0375 C   0  0  0  0  0  0  0  0  0  0  0  0
    3.8007   -1.4303   -3.2026 C   0  0  0  0  0  0  0  0  0  0  0  0
    4.6549   -1.9998   -4.1511 C   0  0  0  0  0  0  0  0  0  0  0  0
    5.4443   -1.1834   -4.9719 C   0  0  0  0  0  0  0  0  0  0  0  0
    6.3588   -1.8012   -5.9947 C   0  0  0  0  0  0  0  0  0  0  0  0
    7.6752   -2.2308   -5.3601 C   0  0  0  0  0  0  0  0  0  0  0  0
    5.3987    0.2068   -4.8046 C   0  0  0  0  0  0  0  0  0  0  0  0
    4.5342    0.7805   -3.8646 C   0  0  0  0  0  0  0  0  0  0  0  0
    2.8108    0.0133   -0.5931 C   0  0  0  0  0  0  0  0  0  0  0  0
    1.7948    0.3395    0.3364 C   0  0  0  0  0  0  0  0  0  0  0  0
    1.8886   -0.0512    1.6733 C   0  0  0  0  0  0  0  0  0  0  0  0
    3.0115   -0.7534    2.1257 C   0  0  0  0  0  0  0  0  0  0  0  0
    3.1624   -1.0694    3.5903 C   0  0  0  0  0  0  0  0  0  0  0  0
    3.6188    0.1648    4.3630 C   0  0  0  0  0  0  0  0  0  0  0  0
    4.0257   -1.0865    1.2184 C   0  0  0  0  0  0  0  0  0  0  0  0
    3.9217   -0.7219   -0.1265 C   0  0  0  0  0  0  0  0  0  0  0  0
    3.6100    3.0206   -1.3051 C   0  0  0  0  0  0  0  0  0  0  0  0
    4.8840    2.7945   -0.7409 C   0  0  0  0  0  0  0  0  0  0  0  0
    5.4915    1.5391   -0.9383 O   0  0  0  0  0  0  0  0  0  0  0  0
    6.8315    1.1607   -0.6300 C   0  0  0  0  0  0  0  0  0  0  0  0
    7.8197    1.7988   -1.6014 C   0  0  0  0  0  0  0  0  0  0  0  0
    5.4504    3.8723   -0.0103 C   0  0  0  0  0  0  0  0  0  0  0  0
    4.7990    5.1102    0.1183 C   0  0  0  0  0  0  0  0  0  0  0  0
    3.5580    5.3348   -0.4911 C   0  0  0  0  0  0  0  0  0  0  0  0
    2.8934    6.5526   -0.3620 O   0  0  0  0  0  0  0  0  0  0  0  0
    3.0936    7.6066   -1.2962 C   0  0  0  0  0  0  0  0  0  0  0  0
    2.2074    8.7890   -0.9307 C   0  0  0  0  0  0  0  0  0  0  0  0
    2.9859    4.2744   -1.1963 C   0  0  0  0  0  0  0  0  0  0  0  0
    1.4343    4.2473   -1.8740 S   0  0  0  0  0  0  0  0  0  0  0  0
    5.4554    6.0246    0.9594 C   0  0  0  0  0  0  0  0  0  0  0  0
    6.6172    5.4989    1.5101 C   0  0  0  0  0  0  0  0  0  0  0  0
    6.8390    3.9279    0.9395 S   0  0  0  0  0  0  0  0  0  0  0  0
    7.4321    6.1379    2.5505 C   0  0  0  0  0  0  0  0  0  0  0  0
    7.3151    5.8329    3.8552 C   0  0  0  0  0  0  0  0  0  0  0  0
    6.4374    4.7855    4.4029 C   0  0  0  0  0  0  0  0  0  0  0  0
    5.5087    4.1870    3.7939 O   0  0  0  0  0  0  0  0  0  0  0  0
    6.8057    4.5512    5.7793 C   0  0  0  0  0  0  0  0  0  0  0  0
    6.2976    3.5738    6.6450 C   0  0  0  0  0  0  0  0  0  0  0  0
    6.8660    3.4929    7.9210 C   0  0  0  0  0  0  0  0  0  0  0  0
    6.5003    2.5915    8.9282 C   0  0  0  0  0  0  0  0  0  0  0  0
    7.2669    2.7362   10.0837 C   0  0  0  0  0  0  0  0  0  0  0  0
    8.3882    3.9846    9.8527 S   0  0  0  0  0  0  0  0  0  0  0  0
    7.9035    4.3472    8.2873 C   0  0  0  0  0  0  0  0  0  0  0  0
    8.4173    5.3214    7.4244 C   0  0  0  0  0  0  0  0  0  0  0  0
    7.8267    5.4291    6.1466 C   0  0  0  0  0  0  0  0  0  0  0  0
    8.1372    6.3388    5.0022 C   0  0  0  0  0  0  0  0  0  0  0  0
    8.8681    7.4826    5.0507 C   0  0  0  0  0  0  0  0  0  0  0  0
    8.9426    8.4100    3.9510 C   0  0  0  0  0  0  0  0  0  0  0  0
    9.0083    9.1635    3.0736 N   0  0  0  0  0  0  0  0  0  0  0  0
    9.5205    7.9372    6.2535 C   0  0  0  0  0  0  0  0  0  0  0  0
   10.0469    8.3190    7.2107 N   0  0  0  0  0  0  0  0  0  0  0  0
   -9.1794   -4.2926    1.1064 H   0  0  0  0  0  0  0  0  0  0  0  0
   -8.0379  -10.2540   -0.5648 H   0  0  0  0  0  0  0  0  0  0  0  0
   -8.2577  -12.8495    0.1748 H   0  0  0  0  0  0  0  0  0  0  0  0
   -9.1524  -14.2708    2.1756 H   0  0  0  0  0  0  0  0  0  0  0  0
  -10.2575   -9.2519    3.8112 H   0  0  0  0  0  0  0  0  0  0  0  0
   -6.0496   -6.0240   -0.2890 H   0  0  0  0  0  0  0  0  0  0  0  0
   -5.1859   -7.0768   -2.1207 H   0  0  0  0  0  0  0  0  0  0  0  0
   -3.5509   -7.7726   -1.8864 H   0  0  0  0  0  0  0  0  0  0  0  0
   -4.1517   -7.8071   -4.2779 H   0  0  0  0  0  0  0  0  0  0  0  0
   -4.4576   -6.0290   -4.2609 H   0  0  0  0  0  0  0  0  0  0  0  0
   -2.7805   -6.6581   -4.0068 H   0  0  0  0  0  0  0  0  0  0  0  0
   -8.0973   -0.7380   -2.3494 H   0  0  0  0  0  0  0  0  0  0  0  0
   -7.4077    0.7446   -3.0390 H   0  0  0  0  0  0  0  0  0  0  0  0
   -6.3733   -0.7749   -4.9130 H   0  0  0  0  0  0  0  0  0  0  0  0
   -7.5470   -2.0288   -4.3208 H   0  0  0  0  0  0  0  0  0  0  0  0
   -8.1442   -0.4480   -4.9461 H   0  0  0  0  0  0  0  0  0  0  0  0
   -5.1816    2.0688   -2.0510 H   0  0  0  0  0  0  0  0  0  0  0  0
   -6.4736    3.2837   -3.6986 H   0  0  0  0  0  0  0  0  0  0  0  0
   -5.6740    3.4651   -7.3093 H   0  0  0  0  0  0  0  0  0  0  0  0
   -6.7166    4.1020   -5.9960 H   0  0  0  0  0  0  0  0  0  0  0  0
   -6.9739    1.3265   -7.3331 H   0  0  0  0  0  0  0  0  0  0  0  0
   -7.9980    1.9282   -5.9680 H   0  0  0  0  0  0  0  0  0  0  0  0
   -8.0560    2.7487   -7.5747 H   0  0  0  0  0  0  0  0  0  0  0  0
   -4.1332    1.5271   -6.8642 H   0  0  0  0  0  0  0  0  0  0  0  0
   -2.7646    0.3506   -5.2054 H   0  0  0  0  0  0  0  0  0  0  0  0
   -2.9751    2.8820   -1.2823 H   0  0  0  0  0  0  0  0  0  0  0  0
   -3.0450    3.4815    1.0815 H   0  0  0  0  0  0  0  0  0  0  0  0
   -4.1270    1.3043    3.7419 H   0  0  0  0  0  0  0  0  0  0  0  0
   -3.3975    2.9050    3.3828 H   0  0  0  0  0  0  0  0  0  0  0  0
   -1.8748    0.2651    3.9028 H   0  0  0  0  0  0  0  0  0  0  0  0
   -1.9754    1.6935    4.9945 H   0  0  0  0  0  0  0  0  0  0  0  0
   -1.0873    1.8256    3.4286 H   0  0  0  0  0  0  0  0  0  0  0  0
   -3.4038   -0.6687    2.1451 H   0  0  0  0  0  0  0  0  0  0  0  0
   -3.2410   -1.3004   -0.1620 H   0  0  0  0  0  0  0  0  0  0  0  0
   -1.2191    2.6994   -2.6998 H   0  0  0  0  0  0  0  0  0  0  0  0
    1.0128   -1.7786   -2.5387 H   0  0  0  0  0  0  0  0  0  0  0  0
    3.2216   -2.0917   -2.5745 H   0  0  0  0  0  0  0  0  0  0  0  0
    4.6996   -3.0785   -4.2437 H   0  0  0  0  0  0  0  0  0  0  0  0
    5.8656   -2.6832   -6.4556 H   0  0  0  0  0  0  0  0  0  0  0  0
    6.5656   -1.0792   -6.8126 H   0  0  0  0  0  0  0  0  0  0  0  0
    8.1798   -1.3587   -4.8900 H   0  0  0  0  0  0  0  0  0  0  0  0
    7.4984   -3.0152   -4.5962 H   0  0  0  0  0  0  0  0  0  0  0  0
    8.3471   -2.6462   -6.1430 H   0  0  0  0  0  0  0  0  0  0  0  0
    6.0208    0.8531   -5.4150 H   0  0  0  0  0  0  0  0  0  0  0  0
    4.5148    1.8603   -3.7968 H   0  0  0  0  0  0  0  0  0  0  0  0
    0.9296    0.9202    0.0384 H   0  0  0  0  0  0  0  0  0  0  0  0
    1.1017    0.2281    2.3633 H   0  0  0  0  0  0  0  0  0  0  0  0
    2.1921   -1.4231    3.9987 H   0  0  0  0  0  0  0  0  0  0  0  0
    3.9028   -1.8837    3.7392 H   0  0  0  0  0  0  0  0  0  0  0  0
    4.5850    0.5390    3.9629 H   0  0  0  0  0  0  0  0  0  0  0  0
    3.7533   -0.0938    5.4330 H   0  0  0  0  0  0  0  0  0  0  0  0
    2.8592    0.9724    4.2855 H   0  0  0  0  0  0  0  0  0  0  0  0
    4.9094   -1.6163    1.5546 H   0  0  0  0  0  0  0  0  0  0  0  0
    4.7333   -0.9854   -0.7829 H   0  0  0  0  0  0  0  0  0  0  0  0
    7.0849    1.3760    0.4253 H   0  0  0  0  0  0  0  0  0  0  0  0
    6.9164    0.0591   -0.7317 H   0  0  0  0  0  0  0  0  0  0  0  0
    7.8204    1.2260   -2.5540 H   0  0  0  0  0  0  0  0  0  0  0  0
    8.8462    1.7709   -1.1735 H   0  0  0  0  0  0  0  0  0  0  0  0
    7.5444    2.8504   -1.8188 H   0  0  0  0  0  0  0  0  0  0  0  0
    2.8309    7.2568   -2.3189 H   0  0  0  0  0  0  0  0  0  0  0  0
    4.1596    7.9277   -1.2813 H   0  0  0  0  0  0  0  0  0  0  0  0
    1.1388    8.4854   -0.9787 H   0  0  0  0  0  0  0  0  0  0  0  0
    2.4484    9.1410    0.0951 H   0  0  0  0  0  0  0  0  0  0  0  0
    2.3810    9.6174   -1.6486 H   0  0  0  0  0  0  0  0  0  0  0  0
    5.0744    7.0061    1.2050 H   0  0  0  0  0  0  0  0  0  0  0  0
    8.1660    6.8401    2.1964 H   0  0  0  0  0  0  0  0  0  0  0  0
    5.5072    2.9035    6.3331 H   0  0  0  0  0  0  0  0  0  0  0  0
    5.7097    1.8624    8.8246 H   0  0  0  0  0  0  0  0  0  0  0  0
    7.1534    2.1516   10.9857 H   0  0  0  0  0  0  0  0  0  0  0  0
    9.2531    5.9184    7.7445 H   0  0  0  0  0  0  0  0  0  0  0  0
  1  2  2  3
  2  3  1  0
  3  4  2  0
  3  5  1  0
  5  6  2  0
  6  7  1  0
  7  8  1  0
  8  9  2  0
  9 10  1  0
 10 11  1  0
 11 12  1  0
 12 13  2  0
 13 14  1  0
 14 15  2  3
 15 16  1  0
 16 17  3  0
 15 18  1  0
 18 19  3  0
  1 20  1  0
 20 21  2  0
 21 22  1  0
 22 23  2  0
 23 24  1  0
 24 25  1  0
 25 26  1  0
 23 27  1  0
 27 28  1  0
 28 29  1  0
 29 30  1  0
 30 31  2  0
 31 32  1  0
 32 33  1  0
 33 34  1  0
 34 35  1  0
 35 36  2  0
 36 37  1  0
 35 38  1  0
 38 39  1  0
 39 40  1  0
 32 41  1  0
 41 42  2  0
 42 43  1  0
 43 44  2  0
 44 45  1  0
 45 46  1  0
 44 47  1  0
 47 48  2  0
 32 49  1  0
 49 50  2  0
 50 51  1  0
 51 52  2  0
 52 53  1  0
 53 54  1  0
 52 55  1  0
 55 56  2  0
 31 57  1  0
 57 58  2  0
 58 59  1  0
 59 60  2  0
 60 61  1  0
 61 62  1  0
 62 63  2  0
 61 64  1  0
 64 65  2  0
 65 66  1  0
 66 67  2  0
 67 68  1  0
 68 69  1  0
 67 70  1  0
 70 71  2  0
 61 72  1  0
 72 73  2  0
 73 74  1  0
 74 75  2  0
 75 76  1  0
 76 77  1  0
 75 78  1  0
 78 79  2  0
 60 80  1  0
 80 81  2  0
 81 82  1  0
 82 83  1  0
 83 84  1  0
 81 85  1  0
 85 86  2  0
 86 87  1  0
 87 88  1  0
 88 89  1  0
 89 90  1  0
 87 91  2  0
 91 92  1  0
 86 93  1  0
 93 94  2  0
 94 95  1  0
 94 96  1  0
 96 97  2  3
 97 98  1  0
 98 99  2  0
 98100  1  0
100101  2  0
101102  1  0
102103  1  0
103104  2  0
104105  1  0
105106  1  0
106107  1  0
107108  2  0
108109  1  0
109110  2  3
110111  1  0
111112  3  0
110113  1  0
113114  3  0
 14  2  1  0
 37 20  1  0
 48 41  1  0
 56 49  1  0
 62 58  1  0
 71 64  1  0
 79 72  1  0
 91 80  1  0
109 97  1  0
 13  5  1  0
 36 22  1  0
 92 59  1  0
108100  1  0
 11  7  2  0
 34 27  2  0
 95 85  1  0
106102  2  0
 33 29  2  0
 63 30  1  0
  1115  1  0
  6116  1  0
  8117  1  0
  9118  1  0
 12119  1  0
 21120  1  0
 25121  1  0
 25122  1  0
 26123  1  0
 26124  1  0
 26125  1  0
 39126  1  0
 39127  1  0
 40128  1  0
 40129  1  0
 40130  1  0
 42131  1  0
 43132  1  0
 45133  1  0
 45134  1  0
 46135  1  0
 46136  1  0
 46137  1  0
 47138  1  0
 48139  1  0
 50140  1  0
 51141  1  0
 53142  1  0
 53143  1  0
 54144  1  0
 54145  1  0
 54146  1  0
 55147  1  0
 56148  1  0
 57149  1  0
 63150  1  0
 65151  1  0
 66152  1  0
 68153  1  0
 68154  1  0
 69155  1  0
 69156  1  0
 69157  1  0
 70158  1  0
 71159  1  0
 73160  1  0
 74161  1  0
 76162  1  0
 76163  1  0
 77164  1  0
 77165  1  0
 77166  1  0
 78167  1  0
 79168  1  0
 83169  1  0
 83170  1  0
 84171  1  0
 84172  1  0
 84173  1  0
 89174  1  0
 89175  1  0
 90176  1  0
 90177  1  0
 90178  1  0
 93179  1  0
 96180  1  0
101181  1  0
103182  1  0
104183  1  0
107184  1  0
M  END

