
     RDKit          3D

133150  0  0  0  0  0  0  0  0999 V2000
    1.9856    5.8159   -6.1321 C   0  0  0  0  0  0  0  0  0  0  0  0
    0.8015    5.3120   -6.5404 C   0  0  0  0  0  0  0  0  0  0  0  0
    0.2051    4.0644   -6.0470 C   0  0  0  0  0  0  0  0  0  0  0  0
    0.4656    3.4923   -4.9575 O   0  0  0  0  0  0  0  0  0  0  0  0
   -0.7706    3.6040   -7.0035 C   0  0  0  0  0  0  0  0  0  0  0  0
   -1.5989    2.4768   -6.9012 C   0  0  0  0  0  0  0  0  0  0  0  0
   -2.5211    2.2674   -7.9312 C   0  0  0  0  0  0  0  0  0  0  0  0
   -3.4635    1.2374   -7.9955 C   0  0  0  0  0  0  0  0  0  0  0  0
   -4.2604    1.3089   -9.1383 C   0  0  0  0  0  0  0  0  0  0  0  0
   -3.7968    2.6469  -10.0577 S   0  0  0  0  0  0  0  0  0  0  0  0
   -2.5834    3.1433   -9.0113 C   0  0  0  0  0  0  0  0  0  0  0  0
   -1.7628    4.2708   -9.1114 C   0  0  0  0  0  0  0  0  0  0  0  0
   -0.8357    4.4981   -8.0694 C   0  0  0  0  0  0  0  0  0  0  0  0
    0.0884    5.6462   -7.8137 C   0  0  0  0  0  0  0  0  0  0  0  0
    0.2085    6.7749   -8.5550 C   0  0  0  0  0  0  0  0  0  0  0  0
    0.8068    7.9759   -8.0338 C   0  0  0  0  0  0  0  0  0  0  0  0
    1.2586    8.9650   -7.6221 N   0  0  0  0  0  0  0  0  0  0  0  0
   -0.2660    6.8589   -9.9101 C   0  0  0  0  0  0  0  0  0  0  0  0
   -0.6225    6.9271  -11.0131 N   0  0  0  0  0  0  0  0  0  0  0  0
    2.9117    5.0231   -5.3050 C   0  0  0  0  0  0  0  0  0  0  0  0
    3.6309    3.9232   -5.8021 C   0  0  0  0  0  0  0  0  0  0  0  0
    3.6433    3.5354   -7.2274 C   0  0  0  0  0  0  0  0  0  0  0  0
    3.1637    2.2796   -7.6318 C   0  0  0  0  0  0  0  0  0  0  0  0
    3.0872    1.9605   -8.9899 C   0  0  0  0  0  0  0  0  0  0  0  0
    3.4875    2.8889   -9.9549 C   0  0  0  0  0  0  0  0  0  0  0  0
    3.9651    4.1494   -9.5670 C   0  0  0  0  0  0  0  0  0  0  0  0
    4.3245    5.1760  -10.6032 C   0  0  0  0  0  0  0  0  0  0  0  0
    3.1533    6.1227  -10.8517 C   0  0  0  0  0  0  0  0  0  0  0  0
    4.0437    4.4656   -8.2017 C   0  0  0  0  0  0  0  0  0  0  0  0
    4.1362    3.1453   -4.7614 C   0  0  0  0  0  0  0  0  0  0  0  0
    4.7269    1.5557   -4.7303 S   0  0  0  0  0  0  0  0  0  0  0  0
    4.6043    1.4820   -3.0432 C   0  0  0  0  0  0  0  0  0  0  0  0
    4.2727    0.4603   -2.1971 C   0  0  0  0  0  0  0  0  0  0  0  0
    4.1053   -0.9074   -2.4880 C   0  0  0  0  0  0  0  0  0  0  0  0
    3.3232   -1.7108   -1.6094 C   0  0  0  0  0  0  0  0  0  0  0  0
    3.1395   -3.0095   -1.9535 N   0  0  0  0  0  0  0  0  0  0  0  0
    3.9846   -3.0364   -3.3789 S   0  0  0  0  0  0  0  0  0  0  0  0
    4.5785   -1.5085   -3.6090 N   0  0  0  0  0  0  0  0  0  0  0  0
    2.7980   -1.1177   -0.4585 C   0  0  0  0  0  0  0  0  0  0  0  0
    2.0514   -1.6188    0.5653 C   0  0  0  0  0  0  0  0  0  0  0  0
    1.2182   -3.0353    0.9723 S   0  0  0  0  0  0  0  0  0  0  0  0
    0.6654   -2.3163    2.4229 C   0  0  0  0  0  0  0  0  0  0  0  0
   -0.2889   -2.6973    3.3689 C   0  0  0  0  0  0  0  0  0  0  0  0
   -1.0490   -3.9687    3.2974 C   0  0  0  0  0  0  0  0  0  0  0  0
   -0.3773   -5.1862    3.0991 C   0  0  0  0  0  0  0  0  0  0  0  0
   -1.0836   -6.3925    3.0803 C   0  0  0  0  0  0  0  0  0  0  0  0
   -2.4679   -6.3953    3.2652 C   0  0  0  0  0  0  0  0  0  0  0  0
   -3.1612   -5.1874    3.4519 C   0  0  0  0  0  0  0  0  0  0  0  0
   -4.6494   -5.2006    3.7089 C   0  0  0  0  0  0  0  0  0  0  0  0
   -4.9515   -5.7145    5.1146 C   0  0  0  0  0  0  0  0  0  0  0  0
   -2.4486   -3.9771    3.4473 C   0  0  0  0  0  0  0  0  0  0  0  0
   -0.5040   -1.6545    4.3066 C   0  0  0  0  0  0  0  0  0  0  0  0
    0.4106   -0.2881    3.8665 S   0  0  0  0  0  0  0  0  0  0  0  0
    1.1392   -1.0314    2.5596 C   0  0  0  0  0  0  0  0  0  0  0  0
    1.9113   -0.6319    1.4777 C   0  0  0  0  0  0  0  0  0  0  0  0
    2.5146    0.5241    1.1093 N   0  0  0  0  0  0  0  0  0  0  0  0
    3.0108    0.2279   -0.1343 C   0  0  0  0  0  0  0  0  0  0  0  0
    3.6624    1.0633   -1.0832 C   0  0  0  0  0  0  0  0  0  0  0  0
    3.5009    2.4122   -1.2993 N   0  0  0  0  0  0  0  0  0  0  0  0
    4.0921    2.6310   -2.5065 C   0  0  0  0  0  0  0  0  0  0  0  0
    3.8279    3.5829   -3.4962 C   0  0  0  0  0  0  0  0  0  0  0  0
    2.8850    4.9735   -3.6030 S   0  0  0  0  0  0  0  0  0  0  0  0
    2.4894    3.2984   -0.7066 C   0  0  0  0  0  0  0  0  0  0  0  0
    3.1388    4.5438   -0.1007 C   0  0  0  0  0  0  0  0  0  0  0  0
    3.0951    1.4980    2.0498 C   0  0  0  0  0  0  0  0  0  0  0  0
    2.0322    2.3757    2.7122 C   0  0  0  0  0  0  0  0  0  0  0  0
   -1.5147   -1.6093    5.3787 C   0  0  0  0  0  0  0  0  0  0  0  0
   -1.7839   -2.6298    6.2146 C   0  0  0  0  0  0  0  0  0  0  0  0
   -0.8936   -3.7669    6.4722 C   0  0  0  0  0  0  0  0  0  0  0  0
    0.2661   -3.9228    6.0060 O   0  0  0  0  0  0  0  0  0  0  0  0
   -1.4923   -4.6085    7.4780 C   0  0  0  0  0  0  0  0  0  0  0  0
   -0.9995   -5.8495    7.9468 C   0  0  0  0  0  0  0  0  0  0  0  0
   -1.7999   -6.4400    8.9015 C   0  0  0  0  0  0  0  0  0  0  0  0
   -3.0058   -5.8431    9.3912 C   0  0  0  0  0  0  0  0  0  0  0  0
   -3.4903   -4.6296    8.9389 C   0  0  0  0  0  0  0  0  0  0  0  0
   -2.7028   -4.0147    7.9238 C   0  0  0  0  0  0  0  0  0  0  0  0
   -2.9680   -2.7788    7.1231 C   0  0  0  0  0  0  0  0  0  0  0  0
   -4.1447   -2.0934    7.0545 C   0  0  0  0  0  0  0  0  0  0  0  0
   -4.4207   -1.1086    6.0391 C   0  0  0  0  0  0  0  0  0  0  0  0
   -4.6568   -0.3194    5.2268 N   0  0  0  0  0  0  0  0  0  0  0  0
   -5.2544   -2.3432    7.9341 C   0  0  0  0  0  0  0  0  0  0  0  0
   -6.1618   -2.5214    8.6313 N   0  0  0  0  0  0  0  0  0  0  0  0
   -3.2474   -7.0224   10.2847 C   0  0  0  0  0  0  0  0  0  0  0  0
   -4.3697   -8.0282    9.8740 C   0  0  0  0  0  0  0  0  0  0  0  0
   -4.5116   -8.0534    8.3704 C   0  0  0  0  0  0  0  0  0  0  0  0
   -3.3979   -8.6066    7.8914 C   0  0  0  0  0  0  0  0  0  0  0  0
   -2.5374   -8.9481    9.0887 C   0  0  0  0  0  0  0  0  0  0  0  0
   -3.6309   -9.3383   10.0663 C   0  0  0  0  0  0  0  0  0  0  0  0
   -2.0229   -7.6420    9.7694 C   0  0  0  0  0  0  0  0  0  0  0  0
    2.4337    6.6524   -6.6400 H   0  0  0  0  0  0  0  0  0  0  0  0
   -1.5422    1.8097   -6.0506 H   0  0  0  0  0  0  0  0  0  0  0  0
   -3.5738    0.4749   -7.2327 H   0  0  0  0  0  0  0  0  0  0  0  0
   -5.0609    0.6261   -9.3862 H   0  0  0  0  0  0  0  0  0  0  0  0
   -1.8831    4.9283   -9.9541 H   0  0  0  0  0  0  0  0  0  0  0  0
    2.8045    1.5632   -6.9031 H   0  0  0  0  0  0  0  0  0  0  0  0
    2.7015    0.9951   -9.2977 H   0  0  0  0  0  0  0  0  0  0  0  0
    3.3975    2.6338  -11.0027 H   0  0  0  0  0  0  0  0  0  0  0  0
    4.6037    4.6842  -11.5573 H   0  0  0  0  0  0  0  0  0  0  0  0
    5.2032    5.7651  -10.2692 H   0  0  0  0  0  0  0  0  0  0  0  0
    3.4033    6.8116  -11.6862 H   0  0  0  0  0  0  0  0  0  0  0  0
    2.9540    6.7293   -9.9406 H   0  0  0  0  0  0  0  0  0  0  0  0
    2.2373    5.5533  -11.1244 H   0  0  0  0  0  0  0  0  0  0  0  0
    4.3898    5.4466   -7.8986 H   0  0  0  0  0  0  0  0  0  0  0  0
    0.6992   -5.2048    2.9889 H   0  0  0  0  0  0  0  0  0  0  0  0
   -0.5568   -7.3241    2.9360 H   0  0  0  0  0  0  0  0  0  0  0  0
   -3.0025   -7.3366    3.2583 H   0  0  0  0  0  0  0  0  0  0  0  0
   -5.0761   -4.1797    3.5935 H   0  0  0  0  0  0  0  0  0  0  0  0
   -5.1414   -5.8619    2.9639 H   0  0  0  0  0  0  0  0  0  0  0  0
   -4.5806   -6.7535    5.2302 H   0  0  0  0  0  0  0  0  0  0  0  0
   -6.0496   -5.7139    5.2813 H   0  0  0  0  0  0  0  0  0  0  0  0
   -4.4714   -5.0678    5.8755 H   0  0  0  0  0  0  0  0  0  0  0  0
   -2.9864   -3.0438    3.5707 H   0  0  0  0  0  0  0  0  0  0  0  0
    1.8946    2.7767    0.0549 H   0  0  0  0  0  0  0  0  0  0  0  0
    1.7511    3.5906   -1.4793 H   0  0  0  0  0  0  0  0  0  0  0  0
    3.7635    5.0694   -0.8486 H   0  0  0  0  0  0  0  0  0  0  0  0
    3.7793    4.2791    0.7597 H   0  0  0  0  0  0  0  0  0  0  0  0
    2.3480    5.2402    0.2507 H   0  0  0  0  0  0  0  0  0  0  0  0
    3.6738    0.9582    2.8282 H   0  0  0  0  0  0  0  0  0  0  0  0
    3.8313    2.1376    1.5251 H   0  0  0  0  0  0  0  0  0  0  0  0
    2.3496    3.4389    2.7001 H   0  0  0  0  0  0  0  0  0  0  0  0
    1.9061    2.0818    3.7758 H   0  0  0  0  0  0  0  0  0  0  0  0
    1.0512    2.2881    2.2005 H   0  0  0  0  0  0  0  0  0  0  0  0
   -2.0510   -0.6811    5.4599 H   0  0  0  0  0  0  0  0  0  0  0  0
   -0.0984   -6.3159    7.5693 H   0  0  0  0  0  0  0  0  0  0  0  0
   -4.4074   -4.2395    9.3371 H   0  0  0  0  0  0  0  0  0  0  0  0
   -3.2048   -6.7822   11.3708 H   0  0  0  0  0  0  0  0  0  0  0  0
   -5.3216   -7.9291   10.4379 H   0  0  0  0  0  0  0  0  0  0  0  0
   -5.3677   -7.7375    7.7846 H   0  0  0  0  0  0  0  0  0  0  0  0
   -3.1920   -8.8213    6.8472 H   0  0  0  0  0  0  0  0  0  0  0  0
   -1.7622   -9.7212    8.9025 H   0  0  0  0  0  0  0  0  0  0  0  0
   -4.2181  -10.2315    9.7372 H   0  0  0  0  0  0  0  0  0  0  0  0
   -3.2642   -9.4953   11.1080 H   0  0  0  0  0  0  0  0  0  0  0  0
   -1.2386   -7.7910   10.5417 H   0  0  0  0  0  0  0  0  0  0  0  0
  1  2  2  3
  2  3  1  0
  3  4  2  0
  3  5  1  0
  5  6  2  0
  6  7  1  0
  7  8  1  0
  8  9  2  0
  9 10  1  0
 10 11  1  0
 11 12  1  0
 12 13  2  0
 13 14  1  0
 14 15  2  3
 15 16  1  0
 16 17  3  0
 15 18  1  0
 18 19  3  0
  1 20  1  0
 20 21  2  0
 21 22  1  0
 22 23  2  0
 23 24  1  0
 24 25  2  0
 25 26  1  0
 26 27  1  0
 27 28  1  0
 26 29  2  0
 21 30  1  0
 30 31  1  0
 31 32  1  0
 32 33  1  0
 33 34  1  0
 34 35  1  0
 35 36  2  0
 36 37  1  0
 37 38  1  0
 35 39  1  0
 39 40  1  0
 40 41  1  0
 41 42  1  0
 42 43  1  0
 43 44  1  0
 44 45  2  0
 45 46  1  0
 46 47  2  0
 47 48  1  0
 48 49  1  0
 49 50  1  0
 48 51  2  0
 43 52  2  0
 52 53  1  0
 53 54  1  0
 54 55  1  0
 55 56  1  0
 56 57  1  0
 57 58  1  0
 58 59  1  0
 59 60  1  0
 60 61  1  0
 61 62  1  0
 59 63  1  0
 63 64  1  0
 56 65  1  0
 65 66  1  0
 52 67  1  0
 67 68  2  3
 68 69  1  0
 69 70  2  0
 69 71  1  0
 71 72  2  0
 72 73  1  0
 73 74  2  0
 74 75  1  0
 75 76  2  0
 76 77  1  0
 77 78  2  3
 78 79  1  0
 79 80  3  0
 78 81  1  0
 81 82  3  0
 74 83  1  0
 83 84  1  0
 84 85  1  0
 85 86  2  0
 86 87  1  0
 87 88  1  0
 87 89  1  0
 14  2  1  0
 62 20  1  0
 77 68  1  0
 89 83  1  0
 13  5  1  0
 29 22  1  0
 61 30  2  0
 76 71  1  0
 88 84  1  0
 11  7  2  0
 60 32  2  0
 89 73  1  0
 58 33  2  0
 38 34  2  0
 57 39  2  0
 55 40  2  0
 54 42  2  0
 51 44  1  0
  1 90  1  0
  6 91  1  0
  8 92  1  0
  9 93  1  0
 12 94  1  0
 23 95  1  0
 24 96  1  0
 25 97  1  0
 27 98  1  0
 27 99  1  0
 28100  1  0
 28101  1  0
 28102  1  0
 29103  1  0
 45104  1  0
 46105  1  0
 47106  1  0
 49107  1  0
 49108  1  0
 50109  1  0
 50110  1  0
 50111  1  0
 51112  1  0
 63113  1  0
 63114  1  0
 64115  1  0
 64116  1  0
 64117  1  0
 65118  1  0
 65119  1  0
 66120  1  0
 66121  1  0
 66122  1  0
 67123  1  0
 72124  1  0
 75125  1  0
 83126  1  0
 84127  1  0
 85128  1  0
 86129  1  0
 87130  1  0
 88131  1  0
 88132  1  0
 89133  1  0
M  END

