
     RDKit          3D

116131  0  0  0  0  0  0  0  0999 V2000
    2.0023    1.6491    7.1724 C   0  0  0  0  0  0  0  0  0  0  0  0
    1.7277    2.6354    8.0467 C   0  0  0  0  0  0  0  0  0  0  0  0
    0.4157    3.2743    8.2150 C   0  0  0  0  0  0  0  0  0  0  0  0
   -0.5855    3.1412    7.4605 O   0  0  0  0  0  0  0  0  0  0  0  0
    0.4504    4.0900    9.4080 C   0  0  0  0  0  0  0  0  0  0  0  0
   -0.6091    4.7917   10.0025 C   0  0  0  0  0  0  0  0  0  0  0  0
   -0.3525    5.4239   11.2240 C   0  0  0  0  0  0  0  0  0  0  0  0
   -1.2695    6.1606   11.9802 C   0  0  0  0  0  0  0  0  0  0  0  0
   -0.7256    6.6397   13.1709 C   0  0  0  0  0  0  0  0  0  0  0  0
    0.8891    6.1477   13.2810 S   0  0  0  0  0  0  0  0  0  0  0  0
    0.9032    5.3295   11.8168 C   0  0  0  0  0  0  0  0  0  0  0  0
    1.9601    4.6275   11.2312 C   0  0  0  0  0  0  0  0  0  0  0  0
    1.7220    4.0248    9.9790 C   0  0  0  0  0  0  0  0  0  0  0  0
    2.6188    3.2000    9.1156 C   0  0  0  0  0  0  0  0  0  0  0  0
    3.9755    3.1249    9.2010 C   0  0  0  0  0  0  0  0  0  0  0  0
    4.7324    3.8519   10.1858 C   0  0  0  0  0  0  0  0  0  0  0  0
    5.3548    4.4300   10.9726 N   0  0  0  0  0  0  0  0  0  0  0  0
    4.7827    2.3944    8.2605 C   0  0  0  0  0  0  0  0  0  0  0  0
    5.4447    1.8037    7.5178 N   0  0  0  0  0  0  0  0  0  0  0  0
    1.0020    1.0552    6.2744 C   0  0  0  0  0  0  0  0  0  0  0  0
    0.0063    0.1346    6.6545 C   0  0  0  0  0  0  0  0  0  0  0  0
   -0.2665   -0.3129    8.0637 C   0  0  0  0  0  0  0  0  0  0  0  0
    0.6435   -1.4747    8.4448 C   0  0  0  0  0  0  0  0  0  0  0  0
   -0.5918   -0.4362    5.5307 C   0  0  0  0  0  0  0  0  0  0  0  0
   -1.8055   -1.6171    5.3263 S   0  0  0  0  0  0  0  0  0  0  0  0
   -1.6257   -1.5349    3.6398 C   0  0  0  0  0  0  0  0  0  0  0  0
   -2.3053   -1.9330    2.5265 C   0  0  0  0  0  0  0  0  0  0  0  0
   -3.4892   -2.6719    2.4006 C   0  0  0  0  0  0  0  0  0  0  0  0
   -4.0752   -2.7882    1.1212 C   0  0  0  0  0  0  0  0  0  0  0  0
   -5.2184   -3.5085    0.9738 N   0  0  0  0  0  0  0  0  0  0  0  0
   -5.8108   -4.1026    2.0438 C   0  0  0  0  0  0  0  0  0  0  0  0
   -5.2368   -3.9756    3.3141 C   0  0  0  0  0  0  0  0  0  0  0  0
   -4.0881   -3.2631    3.4668 N   0  0  0  0  0  0  0  0  0  0  0  0
   -3.4376   -2.1729    0.0350 C   0  0  0  0  0  0  0  0  0  0  0  0
   -3.6532   -2.3226   -1.3046 C   0  0  0  0  0  0  0  0  0  0  0  0
   -4.6019   -3.3200   -2.3024 S   0  0  0  0  0  0  0  0  0  0  0  0
   -3.5751   -3.0157   -3.6283 C   0  0  0  0  0  0  0  0  0  0  0  0
   -3.5531   -3.4678   -4.9516 C   0  0  0  0  0  0  0  0  0  0  0  0
   -4.6469   -4.2943   -5.5702 C   0  0  0  0  0  0  0  0  0  0  0  0
   -5.7825   -3.4049   -6.0659 C   0  0  0  0  0  0  0  0  0  0  0  0
   -2.4178   -2.9849   -5.6336 C   0  0  0  0  0  0  0  0  0  0  0  0
   -1.5060   -2.0033   -4.5709 S   0  0  0  0  0  0  0  0  0  0  0  0
   -2.5283   -2.2076   -3.2701 C   0  0  0  0  0  0  0  0  0  0  0  0
   -2.5828   -1.7941   -1.9448 C   0  0  0  0  0  0  0  0  0  0  0  0
   -1.6665   -1.2659   -1.0931 N   0  0  0  0  0  0  0  0  0  0  0  0
   -2.2276   -1.4639    0.1503 C   0  0  0  0  0  0  0  0  0  0  0  0
   -1.6850   -1.2748    1.4506 C   0  0  0  0  0  0  0  0  0  0  0  0
   -0.7086   -0.4144    1.9040 N   0  0  0  0  0  0  0  0  0  0  0  0
   -0.6918   -0.6377    3.2428 C   0  0  0  0  0  0  0  0  0  0  0  0
   -0.1087    0.0089    4.3252 C   0  0  0  0  0  0  0  0  0  0  0  0
    1.1125    1.1273    4.5743 S   0  0  0  0  0  0  0  0  0  0  0  0
   -0.2652    0.8383    1.2853 C   0  0  0  0  0  0  0  0  0  0  0  0
    1.2540    0.8710    1.0847 C   0  0  0  0  0  0  0  0  0  0  0  0
   -0.2515   -1.0692   -1.4295 C   0  0  0  0  0  0  0  0  0  0  0  0
   -0.0344    0.2182   -2.2335 C   0  0  0  0  0  0  0  0  0  0  0  0
   -2.2159   -3.0425   -7.0994 C   0  0  0  0  0  0  0  0  0  0  0  0
   -1.0254   -2.8813   -7.7080 C   0  0  0  0  0  0  0  0  0  0  0  0
    0.2780   -2.8381   -7.0371 C   0  0  0  0  0  0  0  0  0  0  0  0
    0.6211   -3.5233   -6.0371 O   0  0  0  0  0  0  0  0  0  0  0  0
    1.1328   -1.9140   -7.7480 C   0  0  0  0  0  0  0  0  0  0  0  0
    2.3272   -1.3303   -7.2678 C   0  0  0  0  0  0  0  0  0  0  0  0
    2.7549   -0.2485   -8.0128 C   0  0  0  0  0  0  0  0  0  0  0  0
    2.0600    0.2319   -9.1687 C   0  0  0  0  0  0  0  0  0  0  0  0
    0.9042   -0.3532   -9.6602 C   0  0  0  0  0  0  0  0  0  0  0  0
    0.4530   -1.4762   -8.9139 C   0  0  0  0  0  0  0  0  0  0  0  0
   -0.8357   -2.2087   -9.0228 C   0  0  0  0  0  0  0  0  0  0  0  0
   -1.5871   -2.3729  -10.1377 C   0  0  0  0  0  0  0  0  0  0  0  0
   -2.7110   -3.2728  -10.1751 C   0  0  0  0  0  0  0  0  0  0  0  0
   -3.6173   -3.9918  -10.2077 N   0  0  0  0  0  0  0  0  0  0  0  0
   -1.2507   -1.7399  -11.3868 C   0  0  0  0  0  0  0  0  0  0  0  0
   -0.9907   -1.2250  -12.3932 N   0  0  0  0  0  0  0  0  0  0  0  0
    3.0015    1.3960   -9.2705 C   0  0  0  0  0  0  0  0  0  0  0  0
    2.4757    2.7912   -8.8098 C   0  0  0  0  0  0  0  0  0  0  0  0
    1.4520    2.6226   -7.7079 C   0  0  0  0  0  0  0  0  0  0  0  0
    2.1116    2.1736   -6.6400 C   0  0  0  0  0  0  0  0  0  0  0  0
    3.5607    2.0468   -7.0519 C   0  0  0  0  0  0  0  0  0  0  0  0
    3.6540    3.2507   -7.9708 C   0  0  0  0  0  0  0  0  0  0  0  0
    3.7212    0.8964   -8.0954 C   0  0  0  0  0  0  0  0  0  0  0  0
    2.9672    1.1844    7.1347 H   0  0  0  0  0  0  0  0  0  0  0  0
   -1.5892    4.8265    9.5435 H   0  0  0  0  0  0  0  0  0  0  0  0
   -2.2950    6.3381   11.6818 H   0  0  0  0  0  0  0  0  0  0  0  0
   -1.2541    7.2315   13.9073 H   0  0  0  0  0  0  0  0  0  0  0  0
    2.8899    4.5380   11.7640 H   0  0  0  0  0  0  0  0  0  0  0  0
   -1.3267   -0.6316    8.1575 H   0  0  0  0  0  0  0  0  0  0  0  0
   -0.1062    0.5264    8.7723 H   0  0  0  0  0  0  0  0  0  0  0  0
    1.7100   -1.1675    8.3802 H   0  0  0  0  0  0  0  0  0  0  0  0
    0.4273   -1.7917    9.4865 H   0  0  0  0  0  0  0  0  0  0  0  0
    0.4719   -2.3372    7.7671 H   0  0  0  0  0  0  0  0  0  0  0  0
   -6.7223   -4.6697    1.9103 H   0  0  0  0  0  0  0  0  0  0  0  0
   -5.7019   -4.4410    4.1726 H   0  0  0  0  0  0  0  0  0  0  0  0
   -4.2449   -4.8888   -6.4179 H   0  0  0  0  0  0  0  0  0  0  0  0
   -5.0432   -5.0094   -4.8178 H   0  0  0  0  0  0  0  0  0  0  0  0
   -5.4155   -2.6973   -6.8401 H   0  0  0  0  0  0  0  0  0  0  0  0
   -6.5798   -4.0354   -6.5152 H   0  0  0  0  0  0  0  0  0  0  0  0
   -6.2152   -2.8256   -5.2224 H   0  0  0  0  0  0  0  0  0  0  0  0
   -0.5701    1.6961    1.9231 H   0  0  0  0  0  0  0  0  0  0  0  0
   -0.7916    0.9936    0.3295 H   0  0  0  0  0  0  0  0  0  0  0  0
    1.7395    1.4592    1.8890 H   0  0  0  0  0  0  0  0  0  0  0  0
    1.6907   -0.1493    1.0862 H   0  0  0  0  0  0  0  0  0  0  0  0
    1.4957    1.3659    0.1222 H   0  0  0  0  0  0  0  0  0  0  0  0
    0.1163   -1.9331   -2.0248 H   0  0  0  0  0  0  0  0  0  0  0  0
    0.3646   -1.0670   -0.5167 H   0  0  0  0  0  0  0  0  0  0  0  0
    1.0375    0.5038   -2.1950 H   0  0  0  0  0  0  0  0  0  0  0  0
   -0.6481    1.0549   -1.8490 H   0  0  0  0  0  0  0  0  0  0  0  0
   -0.3048    0.0737   -3.2943 H   0  0  0  0  0  0  0  0  0  0  0  0
   -3.1191   -2.9884   -7.6850 H   0  0  0  0  0  0  0  0  0  0  0  0
    2.7996   -1.6217   -6.3398 H   0  0  0  0  0  0  0  0  0  0  0  0
    0.3540    0.0988  -10.4693 H   0  0  0  0  0  0  0  0  0  0  0  0
    3.6106    1.4055  -10.2009 H   0  0  0  0  0  0  0  0  0  0  0  0
    2.1747    3.4796   -9.6278 H   0  0  0  0  0  0  0  0  0  0  0  0
    0.3980    2.8802   -7.7449 H   0  0  0  0  0  0  0  0  0  0  0  0
    1.6887    1.9995   -5.6561 H   0  0  0  0  0  0  0  0  0  0  0  0
    4.2879    2.0297   -6.2131 H   0  0  0  0  0  0  0  0  0  0  0  0
    4.6122    3.3031   -8.5404 H   0  0  0  0  0  0  0  0  0  0  0  0
    3.4771    4.2230   -7.4503 H   0  0  0  0  0  0  0  0  0  0  0  0
    4.7703    0.5921   -8.3057 H   0  0  0  0  0  0  0  0  0  0  0  0
  1  2  2  3
  2  3  1  0
  3  4  2  0
  3  5  1  0
  5  6  2  0
  6  7  1  0
  7  8  1  0
  8  9  2  0
  9 10  1  0
 10 11  1  0
 11 12  1  0
 12 13  2  0
 13 14  1  0
 14 15  2  3
 15 16  1  0
 16 17  3  0
 15 18  1  0
 18 19  3  0
  1 20  1  0
 20 21  2  0
 21 22  1  0
 22 23  1  0
 21 24  1  0
 24 25  1  0
 25 26  1  0
 26 27  1  0
 27 28  2  0
 28 29  1  0
 29 30  1  0
 30 31  2  0
 31 32  1  0
 32 33  2  0
 29 34  2  0
 34 35  1  0
 35 36  1  0
 36 37  1  0
 37 38  1  0
 38 39  1  0
 39 40  1  0
 38 41  2  0
 41 42  1  0
 42 43  1  0
 43 44  1  0
 44 45  1  0
 45 46  1  0
 46 47  2  0
 47 48  1  0
 48 49  1  0
 49 50  1  0
 50 51  1  0
 48 52  1  0
 52 53  1  0
 45 54  1  0
 54 55  1  0
 41 56  1  0
 56 57  2  3
 57 58  1  0
 58 59  2  0
 58 60  1  0
 60 61  2  0
 61 62  1  0
 62 63  2  0
 63 64  1  0
 64 65  2  0
 65 66  1  0
 66 67  2  3
 67 68  1  0
 68 69  3  0
 67 70  1  0
 70 71  3  0
 63 72  1  0
 72 73  1  0
 73 74  1  0
 74 75  2  0
 75 76  1  0
 76 77  1  0
 76 78  1  0
 14  2  1  0
 51 20  1  0
 66 57  1  0
 78 72  1  0
 13  5  1  0
 50 24  2  0
 65 60  1  0
 77 73  1  0
 11  7  2  0
 49 26  2  0
 78 62  1  0
 47 27  1  0
 33 28  1  0
 46 34  1  0
 44 35  2  0
 43 37  2  0
  1 79  1  0
  6 80  1  0
  8 81  1  0
  9 82  1  0
 12 83  1  0
 22 84  1  0
 22 85  1  0
 23 86  1  0
 23 87  1  0
 23 88  1  0
 31 89  1  0
 32 90  1  0
 39 91  1  0
 39 92  1  0
 40 93  1  0
 40 94  1  0
 40 95  1  0
 52 96  1  0
 52 97  1  0
 53 98  1  0
 53 99  1  0
 53100  1  0
 54101  1  0
 54102  1  0
 55103  1  0
 55104  1  0
 55105  1  0
 56106  1  0
 61107  1  0
 64108  1  0
 72109  1  0
 73110  1  0
 74111  1  0
 75112  1  0
 76113  1  0
 77114  1  0
 77115  1  0
 78116  1  0
M  END

