
     RDKit          3D

 88100  0  0  0  0  0  0  0  0999 V2000
   -2.5656   -1.2662   -6.8152 C   0  0  0  0  0  0  0  0  0  0  0  0
   -2.6276    0.0184   -6.2981 C   0  0  0  0  0  0  0  0  0  0  0  0
   -1.4069    0.4680   -5.6229 C   0  0  0  0  0  0  0  0  0  0  0  0
   -0.2686   -0.0904   -5.4887 O   0  0  0  0  0  0  0  0  0  0  0  0
   -1.5928    1.7733   -5.0374 C   0  0  0  0  0  0  0  0  0  0  0  0
   -0.9151    2.6360   -4.2751 C   0  0  0  0  0  0  0  0  0  0  0  0
   -1.2737    3.8070   -3.7724 C   0  0  0  0  0  0  0  0  0  0  0  0
   -0.6988    4.7353   -2.9651 C   0  0  0  0  0  0  0  0  0  0  0  0
   -1.2589    5.8213   -2.5819 C   0  0  0  0  0  0  0  0  0  0  0  0
   -0.6327    7.2610   -1.4664 Br  0  0  0  0  0  0  0  0  0  0  0  0
   -2.8102    5.7212   -3.3360 S   0  0  0  0  0  0  0  0  0  0  0  0
   -2.6129    4.2352   -4.1098 C   0  0  0  0  0  0  0  0  0  0  0  0
   -3.3831    3.3496   -4.9163 C   0  0  0  0  0  0  0  0  0  0  0  0
   -2.9749    2.1728   -5.3753 C   0  0  0  0  0  0  0  0  0  0  0  0
   -3.5635    1.0420   -6.1499 C   0  0  0  0  0  0  0  0  0  0  0  0
   -4.7520    1.0384   -6.6569 C   0  0  0  0  0  0  0  0  0  0  0  0
   -5.5134    0.1866   -7.4466 C   0  0  0  0  0  0  0  0  0  0  0  0
   -6.1472   -0.5513   -8.1284 N   0  0  0  0  0  0  0  0  0  0  0  0
   -5.6716    2.1610   -6.2209 C   0  0  0  0  0  0  0  0  0  0  0  0
   -6.4119    3.0556   -5.8510 N   0  0  0  0  0  0  0  0  0  0  0  0
   -1.3077   -1.9105   -6.4888 C   0  0  0  0  0  0  0  0  0  0  0  0
   -0.1205   -2.4036   -6.5741 C   0  0  0  0  0  0  0  0  0  0  0  0
    0.6388   -2.9730   -5.5738 C   0  0  0  0  0  0  0  0  0  0  0  0
    2.3866   -3.3696   -5.3419 S   0  0  0  0  0  0  0  0  0  0  0  0
    2.3813   -3.6676   -3.6509 C   0  0  0  0  0  0  0  0  0  0  0  0
    3.0531   -3.8297   -2.4201 C   0  0  0  0  0  0  0  0  0  0  0  0
    4.4556   -3.7455   -2.0921 C   0  0  0  0  0  0  0  0  0  0  0  0
    4.7307   -3.5203   -0.7786 C   0  0  0  0  0  0  0  0  0  0  0  0
    6.0800   -3.5475   -0.5615 N   0  0  0  0  0  0  0  0  0  0  0  0
    6.8064   -3.8438   -2.0149 S   0  0  0  0  0  0  0  0  0  0  0  0
    5.3688   -3.9321   -2.9401 N   0  0  0  0  0  0  0  0  0  0  0  0
    3.7381   -3.3685    0.1819 C   0  0  0  0  0  0  0  0  0  0  0  0
    3.8146   -2.7470    1.4116 C   0  0  0  0  0  0  0  0  0  0  0  0
    2.4473   -2.4211    1.9372 C   0  0  0  0  0  0  0  0  0  0  0  0
    1.7123   -2.9408    0.9349 N   0  0  0  0  0  0  0  0  0  0  0  0
    0.2445   -2.6299    1.0485 C   0  0  0  0  0  0  0  0  0  0  0  0
   -0.0798   -1.4201    0.2676 C   0  0  0  0  0  0  0  0  0  0  0  0
    2.3872   -3.4656   -0.0504 C   0  0  0  0  0  0  0  0  0  0  0  0
    2.1145   -3.7435   -1.4375 C   0  0  0  0  0  0  0  0  0  0  0  0
    0.9634   -3.5839   -1.9939 N   0  0  0  0  0  0  0  0  0  0  0  0
    1.0151   -3.4774   -3.3386 C   0  0  0  0  0  0  0  0  0  0  0  0
    0.3311   -3.1353   -4.4025 C   0  0  0  0  0  0  0  0  0  0  0  0
   -1.5862   -2.3123   -4.4892 Se  0  0  0  0  0  2  0  0  0  0  0  0
   -0.2847   -4.1377   -1.3638 C   0  0  0  0  0  0  0  0  0  0  0  0
   -0.7359   -5.3844   -2.1928 C   0  0  0  0  0  0  0  0  0  0  0  0
    2.7849   -1.7823    3.0337 C   0  0  0  0  0  0  0  0  0  0  0  0
    3.7719   -1.4216    3.6776 C   0  0  0  0  0  0  0  0  0  0  0  0
    4.9391   -2.1112    2.5435 S   0  0  0  0  0  0  0  0  0  0  0  0
    3.3063   -0.8450    4.6262 C   0  0  0  0  0  0  0  0  0  0  0  0
    2.9520   -0.1845    5.6968 C   0  0  0  0  0  0  0  0  0  0  0  0
    1.2057   -1.0174    4.4150 Se  0  0  0  0  0  2  0  0  0  0  0  0
    2.1305    0.3708    6.7017 C   0  0  0  0  0  0  0  0  0  0  0  0
    1.0921    1.2349    6.5244 C   0  0  0  0  0  0  0  0  0  0  0  0
    0.6232    1.8099    5.2909 C   0  0  0  0  0  0  0  0  0  0  0  0
    1.2378    1.9294    4.2190 O   0  0  0  0  0  0  0  0  0  0  0  0
   -0.7750    2.2565    5.4902 C   0  0  0  0  0  0  0  0  0  0  0  0
   -1.6536    2.7944    4.6023 C   0  0  0  0  0  0  0  0  0  0  0  0
   -3.0385    3.0403    5.0041 C   0  0  0  0  0  0  0  0  0  0  0  0
   -4.1627    3.6982    3.8625 Cl  0  0  0  0  0  0  0  0  0  0  0  0
   -3.3053    2.7304    6.2424 C   0  0  0  0  0  0  0  0  0  0  0  0
   -4.9818    3.0000    6.8628 Cl  0  0  0  0  0  0  0  0  0  0  0  0
   -2.4219    2.1940    7.1859 C   0  0  0  0  0  0  0  0  0  0  0  0
   -1.0904    1.9633    6.7710 C   0  0  0  0  0  0  0  0  0  0  0  0
    0.0639    1.3043    7.4934 C   0  0  0  0  0  0  0  0  0  0  0  0
   -0.1406    0.9828    8.7425 C   0  0  0  0  0  0  0  0  0  0  0  0
   -1.1327    1.0852    9.4878 C   0  0  0  0  0  0  0  0  0  0  0  0
   -2.2388    1.1945   10.3480 N   0  0  0  0  0  0  0  0  0  0  0  0
    1.0612    0.3406    9.4899 C   0  0  0  0  0  0  0  0  0  0  0  0
    1.9576   -0.1139   10.0425 N   0  0  0  0  0  0  0  0  0  0  0  0
   -3.3949   -1.6449   -7.3371 H   0  0  0  0  0  0  0  0  0  0  0  0
    0.1486    2.2462   -4.0344 H   0  0  0  0  0  0  0  0  0  0  0  0
    0.3883    4.5260   -2.5852 H   0  0  0  0  0  0  0  0  0  0  0  0
   -4.3459    3.7828   -5.1382 H   0  0  0  0  0  0  0  0  0  0  0  0
    0.3223   -2.2623   -7.6435 H   0  0  0  0  0  0  0  0  0  0  0  0
   -0.4476   -3.3971    1.0642 H   0  0  0  0  0  0  0  0  0  0  0  0
    0.1518   -2.1877    2.1616 H   0  0  0  0  0  0  0  0  0  0  0  0
    0.7723   -0.6891    0.5314 H   0  0  0  0  0  0  0  0  0  0  0  0
   -1.0771   -1.0315    0.4208 H   0  0  0  0  0  0  0  0  0  0  0  0
    0.0522   -1.4774   -0.8225 H   0  0  0  0  0  0  0  0  0  0  0  0
   -0.0024   -4.6037   -0.4073 H   0  0  0  0  0  0  0  0  0  0  0  0
   -1.0506   -3.4702   -1.3358 H   0  0  0  0  0  0  0  0  0  0  0  0
   -1.8156   -5.2097   -2.4935 H   0  0  0  0  0  0  0  0  0  0  0  0
   -0.7349   -6.2809   -1.5628 H   0  0  0  0  0  0  0  0  0  0  0  0
   -0.1358   -5.3691   -3.0928 H   0  0  0  0  0  0  0  0  0  0  0  0
    4.6641   -0.4286    5.1708 H   0  0  0  0  0  0  0  0  0  0  0  0
    2.3417    0.0736    7.7044 H   0  0  0  0  0  0  0  0  0  0  0  0
   -1.4235    3.0457    3.6131 H   0  0  0  0  0  0  0  0  0  0  0  0
   -2.7767    2.0368    8.1203 H   0  0  0  0  0  0  0  0  0  0  0  0
  1  2  2  3
  2  3  1  0
  3  4  2  0
  3  5  1  0
  5  6  2  0
  6  7  1  0
  7  8  1  0
  8  9  2  0
  9 10  1  0
  9 11  1  0
 11 12  1  0
 12 13  1  0
 13 14  2  0
 14 15  1  0
 15 16  2  3
 16 17  1  0
 17 18  3  0
 16 19  1  0
 19 20  3  0
  1 21  1  0
 21 22  2  0
 22 23  1  0
 23 24  1  0
 24 25  1  0
 25 26  1  0
 26 27  1  0
 27 28  1  0
 28 29  2  0
 29 30  1  0
 30 31  1  0
 28 32  1  0
 32 33  1  0
 33 34  2  0
 34 35  1  0
 35 36  1  0
 36 37  1  0
 35 38  1  0
 38 39  1  0
 39 40  1  0
 40 41  1  0
 41 42  1  0
 42 43  1  0
 40 44  1  0
 44 45  1  0
 34 46  1  0
 46 47  2  0
 47 48  1  0
 47 49  1  0
 49 50  2  0
 50 51  1  0
 50 52  1  0
 52 53  2  3
 53 54  1  0
 54 55  2  0
 54 56  1  0
 56 57  2  0
 57 58  1  0
 58 59  1  0
 58 60  2  0
 60 61  1  0
 60 62  1  0
 62 63  2  0
 63 64  1  0
 64 65  2  3
 65 66  1  0
 66 67  3  0
 65 68  1  0
 68 69  3  0
 15  2  1  0
 43 21  1  0
 51 46  1  0
 64 53  1  0
 14  5  1  0
 42 23  2  0
 63 56  1  0
 12  7  2  0
 41 25  2  0
 39 26  2  0
 31 27  2  0
 38 32  2  0
 48 33  1  0
  1 70  1  0
  6 71  1  0
  8 72  1  0
 13 73  1  0
 22 74  1  0
 36 75  1  0
 36 76  1  0
 37 77  1  0
 37 78  1  0
 37 79  1  0
 44 80  1  0
 44 81  1  0
 45 82  1  0
 45 83  1  0
 45 84  1  0
 49 85  1  0
 52 86  1  0
 57 87  1  0
 62 88  1  0
M  END

