
     RDKit          3D

100112  0  0  0  0  0  0  0  0999 V2000
   -4.8204   -1.4205   -3.8260 C   0  0  0  0  0  0  0  0  0  0  0  0
   -6.1342   -1.7172   -3.8444 C   0  0  0  0  0  0  0  0  0  0  0  0
   -7.0600   -1.6581   -2.7078 C   0  0  0  0  0  0  0  0  0  0  0  0
   -6.9343   -0.9473   -1.6751 O   0  0  0  0  0  0  0  0  0  0  0  0
   -8.1869   -2.5219   -2.9930 C   0  0  0  0  0  0  0  0  0  0  0  0
   -9.2112   -2.9195   -2.1244 C   0  0  0  0  0  0  0  0  0  0  0  0
  -10.1057   -3.8893   -2.5937 C   0  0  0  0  0  0  0  0  0  0  0  0
  -11.1582   -4.4518   -1.8669 C   0  0  0  0  0  0  0  0  0  0  0  0
  -11.8213   -5.4460   -2.5850 C   0  0  0  0  0  0  0  0  0  0  0  0
  -13.2634   -6.5118   -1.9305 Br  0  0  0  0  0  0  0  0  0  0  0  0
  -11.1159   -5.6280   -4.1105 S   0  0  0  0  0  0  0  0  0  0  0  0
   -9.9581   -4.4321   -3.8721 C   0  0  0  0  0  0  0  0  0  0  0  0
   -8.9382   -4.0340   -4.7413 C   0  0  0  0  0  0  0  0  0  0  0  0
   -8.0564   -3.0351   -4.2820 C   0  0  0  0  0  0  0  0  0  0  0  0
   -6.8580   -2.4401   -4.9316 C   0  0  0  0  0  0  0  0  0  0  0  0
   -6.6264   -2.3488   -6.2650 C   0  0  0  0  0  0  0  0  0  0  0  0
   -7.5013   -2.9468   -7.2391 C   0  0  0  0  0  0  0  0  0  0  0  0
   -8.1950   -3.4236   -8.0355 N   0  0  0  0  0  0  0  0  0  0  0  0
   -5.6170   -1.4757   -6.8114 C   0  0  0  0  0  0  0  0  0  0  0  0
   -4.8238   -0.7616   -7.2661 N   0  0  0  0  0  0  0  0  0  0  0  0
   -4.0705   -0.9722   -2.6333 C   0  0  0  0  0  0  0  0  0  0  0  0
   -4.1642   -1.6723   -1.4016 C   0  0  0  0  0  0  0  0  0  0  0  0
   -3.3818   -1.2992   -0.2983 C   0  0  0  0  0  0  0  0  0  0  0  0
   -2.4868   -0.2379   -0.4533 C   0  0  0  0  0  0  0  0  0  0  0  0
   -1.5821    0.2228    0.4472 N   0  0  0  0  0  0  0  0  0  0  0  0
   -1.3186   -0.3015    1.7938 C   0  0  0  0  0  0  0  0  0  0  0  0
   -0.3102   -1.4459    1.7332 C   0  0  0  0  0  0  0  0  0  0  0  0
   -0.8592    1.1545   -0.2220 C   0  0  0  0  0  0  0  0  0  0  0  0
   -1.3278    1.3097   -1.5258 C   0  0  0  0  0  0  0  0  0  0  0  0
   -2.3672    0.4191   -1.6634 C   0  0  0  0  0  0  0  0  0  0  0  0
   -3.1329    0.0710   -2.7739 C   0  0  0  0  0  0  0  0  0  0  0  0
   -0.6994    2.1428   -2.4637 C   0  0  0  0  0  0  0  0  0  0  0  0
    0.4512    2.8158   -2.0136 C   0  0  0  0  0  0  0  0  0  0  0  0
    0.9122    2.6608   -0.7085 C   0  0  0  0  0  0  0  0  0  0  0  0
    0.2830    1.8327    0.2288 C   0  0  0  0  0  0  0  0  0  0  0  0
    2.0970    3.3495   -0.6372 C   0  0  0  0  0  0  0  0  0  0  0  0
    3.0424    3.4104    0.3779 C   0  0  0  0  0  0  0  0  0  0  0  0
    4.2747    4.0343    0.0982 C   0  0  0  0  0  0  0  0  0  0  0  0
    4.4808    4.6655   -1.1517 C   0  0  0  0  0  0  0  0  0  0  0  0
    3.4969    4.5979   -2.1595 C   0  0  0  0  0  0  0  0  0  0  0  0
    2.3152    3.9000   -1.8838 C   0  0  0  0  0  0  0  0  0  0  0  0
    1.3129    3.5732   -2.7421 N   0  0  0  0  0  0  0  0  0  0  0  0
    1.2196    3.9119   -4.1634 C   0  0  0  0  0  0  0  0  0  0  0  0
    0.5418    5.2635   -4.3444 C   0  0  0  0  0  0  0  0  0  0  0  0
    5.3729    3.9229    1.0729 C   0  0  0  0  0  0  0  0  0  0  0  0
    5.8729    2.7270    1.4444 C   0  0  0  0  0  0  0  0  0  0  0  0
    5.4512    1.4306    0.8975 C   0  0  0  0  0  0  0  0  0  0  0  0
    4.9296    1.2273   -0.2325 O   0  0  0  0  0  0  0  0  0  0  0  0
    5.7610    0.4039    1.8614 C   0  0  0  0  0  0  0  0  0  0  0  0
    5.3683   -0.9514    1.8046 C   0  0  0  0  0  0  0  0  0  0  0  0
    5.7000   -1.6739    2.9331 C   0  0  0  0  0  0  0  0  0  0  0  0
    6.3702   -1.1038    4.0634 C   0  0  0  0  0  0  0  0  0  0  0  0
    6.7569    0.2272    4.1236 C   0  0  0  0  0  0  0  0  0  0  0  0
    6.4449    0.9869    2.9598 C   0  0  0  0  0  0  0  0  0  0  0  0
    6.6716    2.4335    2.6717 C   0  0  0  0  0  0  0  0  0  0  0  0
    7.5790    3.2505    3.2573 C   0  0  0  0  0  0  0  0  0  0  0  0
    8.3575    2.8497    4.3986 C   0  0  0  0  0  0  0  0  0  0  0  0
    8.9966    2.5438    5.3137 N   0  0  0  0  0  0  0  0  0  0  0  0
    7.9518    4.5127    2.6725 C   0  0  0  0  0  0  0  0  0  0  0  0
    8.2712    5.5155    2.1936 N   0  0  0  0  0  0  0  0  0  0  0  0
    6.2900   -2.4145    4.7907 C   0  0  0  0  0  0  0  0  0  0  0  0
    5.2285   -2.5197    5.9256 C   0  0  0  0  0  0  0  0  0  0  0  0
    5.0663   -3.9945    6.2080 C   0  0  0  0  0  0  0  0  0  0  0  0
    4.4401   -4.5190    5.1491 C   0  0  0  0  0  0  0  0  0  0  0  0
    4.2044   -3.3820    4.1851 C   0  0  0  0  0  0  0  0  0  0  0  0
    3.9203   -2.2803    5.1937 C   0  0  0  0  0  0  0  0  0  0  0  0
    5.6072   -2.9960    3.6301 C   0  0  0  0  0  0  0  0  0  0  0  0
   -4.2223   -1.5744   -4.7100 H   0  0  0  0  0  0  0  0  0  0  0  0
   -9.2831   -2.5264   -1.1173 H   0  0  0  0  0  0  0  0  0  0  0  0
  -11.4118   -4.1750   -0.8532 H   0  0  0  0  0  0  0  0  0  0  0  0
   -8.8220   -4.5204   -5.6946 H   0  0  0  0  0  0  0  0  0  0  0  0
   -4.8158   -2.5330   -1.3112 H   0  0  0  0  0  0  0  0  0  0  0  0
   -3.4503   -1.8521    0.6290 H   0  0  0  0  0  0  0  0  0  0  0  0
   -2.2626   -0.6586    2.2589 H   0  0  0  0  0  0  0  0  0  0  0  0
   -0.9214    0.5057    2.4472 H   0  0  0  0  0  0  0  0  0  0  0  0
   -0.1272   -1.8337    2.7591 H   0  0  0  0  0  0  0  0  0  0  0  0
   -0.7071   -2.2710    1.1011 H   0  0  0  0  0  0  0  0  0  0  0  0
    0.6529   -1.0878    1.3081 H   0  0  0  0  0  0  0  0  0  0  0  0
   -2.9959    0.5783   -3.7212 H   0  0  0  0  0  0  0  0  0  0  0  0
   -1.0634    2.2260   -3.4780 H   0  0  0  0  0  0  0  0  0  0  0  0
    0.6856    1.6923    1.2243 H   0  0  0  0  0  0  0  0  0  0  0  0
    2.8651    2.9164    1.3288 H   0  0  0  0  0  0  0  0  0  0  0  0
    5.4244    5.1498   -1.3668 H   0  0  0  0  0  0  0  0  0  0  0  0
    3.6796    5.0389   -3.1302 H   0  0  0  0  0  0  0  0  0  0  0  0
    0.6455    3.1342   -4.7106 H   0  0  0  0  0  0  0  0  0  0  0  0
    2.2316    3.9378   -4.6199 H   0  0  0  0  0  0  0  0  0  0  0  0
    1.1578    6.0609   -3.8799 H   0  0  0  0  0  0  0  0  0  0  0  0
    0.4287    5.4811   -5.4273 H   0  0  0  0  0  0  0  0  0  0  0  0
   -0.4644    5.2544   -3.8715 H   0  0  0  0  0  0  0  0  0  0  0  0
    5.6651    4.8321    1.5741 H   0  0  0  0  0  0  0  0  0  0  0  0
    4.8188   -1.3784    0.9754 H   0  0  0  0  0  0  0  0  0  0  0  0
    7.2056    0.6301    5.0147 H   0  0  0  0  0  0  0  0  0  0  0  0
    7.2823   -2.8598    5.0165 H   0  0  0  0  0  0  0  0  0  0  0  0
    5.4092   -1.8818    6.8154 H   0  0  0  0  0  0  0  0  0  0  0  0
    5.2981   -4.5160    7.1290 H   0  0  0  0  0  0  0  0  0  0  0  0
    4.0835   -5.5405    5.0642 H   0  0  0  0  0  0  0  0  0  0  0  0
    3.4176   -3.5630    3.4223 H   0  0  0  0  0  0  0  0  0  0  0  0
    3.8248   -1.2647    4.7482 H   0  0  0  0  0  0  0  0  0  0  0  0
    3.0168   -2.4761    5.8182 H   0  0  0  0  0  0  0  0  0  0  0  0
    6.1661   -3.8101    3.1173 H   0  0  0  0  0  0  0  0  0  0  0  0
  1  2  2  3
  2  3  1  0
  3  4  2  0
  3  5  1  0
  5  6  2  0
  6  7  1  0
  7  8  1  0
  8  9  2  0
  9 10  1  0
  9 11  1  0
 11 12  1  0
 12 13  1  0
 13 14  2  0
 14 15  1  0
 15 16  2  3
 16 17  1  0
 17 18  3  0
 16 19  1  0
 19 20  3  0
  1 21  1  0
 21 22  2  0
 22 23  1  0
 23 24  2  0
 24 25  1  0
 25 26  1  0
 26 27  1  0
 25 28  1  0
 28 29  2  0
 29 30  1  0
 30 31  2  0
 29 32  1  0
 32 33  2  0
 33 34  1  0
 34 35  2  0
 34 36  1  0
 36 37  2  0
 37 38  1  0
 38 39  2  0
 39 40  1  0
 40 41  2  0
 41 42  1  0
 42 43  1  0
 43 44  1  0
 38 45  1  0
 45 46  2  3
 46 47  1  0
 47 48  2  0
 47 49  1  0
 49 50  2  0
 50 51  1  0
 51 52  2  0
 52 53  1  0
 53 54  2  0
 54 55  1  0
 55 56  2  3
 56 57  1  0
 57 58  3  0
 56 59  1  0
 59 60  3  0
 52 61  1  0
 61 62  1  0
 62 63  1  0
 63 64  2  0
 64 65  1  0
 65 66  1  0
 65 67  1  0
 15  2  1  0
 31 21  1  0
 42 33  1  0
 55 46  1  0
 67 61  1  0
 14  5  1  0
 30 24  1  0
 41 36  1  0
 54 49  1  0
 66 62  1  0
 12  7  2  0
 35 28  1  0
 67 51  1  0
  1 68  1  0
  6 69  1  0
  8 70  1  0
 13 71  1  0
 22 72  1  0
 23 73  1  0
 26 74  1  0
 26 75  1  0
 27 76  1  0
 27 77  1  0
 27 78  1  0
 31 79  1  0
 32 80  1  0
 35 81  1  0
 37 82  1  0
 39 83  1  0
 40 84  1  0
 43 85  1  0
 43 86  1  0
 44 87  1  0
 44 88  1  0
 44 89  1  0
 45 90  1  0
 50 91  1  0
 53 92  1  0
 61 93  1  0
 62 94  1  0
 63 95  1  0
 64 96  1  0
 65 97  1  0
 66 98  1  0
 66 99  1  0
 67100  1  0
M  END

