
     RDKit          3D

152166  0  0  0  0  0  0  0  0999 V2000
   -5.3792   -4.4344   -5.3698 C   0  0  0  0  0  0  0  0  0  0  0  0
   -5.7108   -3.2651   -6.0239 C   0  0  0  0  0  0  0  0  0  0  0  0
   -7.0371   -2.7098   -5.9832 C   0  0  0  0  0  0  0  0  0  0  0  0
   -8.1085   -3.3922   -5.9012 O   0  0  0  0  0  0  0  0  0  0  0  0
   -6.9102   -1.2663   -5.9994 C   0  0  0  0  0  0  0  0  0  0  0  0
   -7.9252   -0.2810   -6.1011 C   0  0  0  0  0  0  0  0  0  0  0  0
   -7.5008    1.0726   -6.0679 C   0  0  0  0  0  0  0  0  0  0  0  0
   -6.1254    1.4071   -6.0732 C   0  0  0  0  0  0  0  0  0  0  0  0
   -5.5896    3.0877   -6.0359 Cl  0  0  0  0  0  0  0  0  0  0  0  0
   -5.1434    0.3713   -6.0766 C   0  0  0  0  0  0  0  0  0  0  0  0
   -5.5463   -0.9495   -5.9927 C   0  0  0  0  0  0  0  0  0  0  0  0
   -4.6911   -2.1672   -6.1156 C   0  0  0  0  0  0  0  0  0  0  0  0
   -3.5625   -2.1344   -6.9299 C   0  0  0  0  0  0  0  0  0  0  0  0
   -2.3125   -1.7819   -6.2714 C   0  0  0  0  0  0  0  0  0  0  0  0
   -1.4030   -1.4217   -5.6314 N   0  0  0  0  0  0  0  0  0  0  0  0
   -3.7116   -1.5407   -8.2080 C   0  0  0  0  0  0  0  0  0  0  0  0
   -3.7658   -0.9748   -9.2217 N   0  0  0  0  0  0  0  0  0  0  0  0
   -4.3440   -4.3124   -4.3320 C   0  0  0  0  0  0  0  0  0  0  0  0
   -4.6252   -4.0770   -2.9848 C   0  0  0  0  0  0  0  0  0  0  0  0
   -3.5125   -3.6246   -2.2929 C   0  0  0  0  0  0  0  0  0  0  0  0
   -3.0195   -3.6976   -0.8804 C   0  0  0  0  0  0  0  0  0  0  0  0
   -3.8506   -3.6688    0.3755 C   0  0  0  0  0  0  0  0  0  0  0  0
   -5.1949   -4.0885    0.4252 C   0  0  0  0  0  0  0  0  0  0  0  0
   -5.8045   -4.4509    1.6482 C   0  0  0  0  0  0  0  0  0  0  0  0
   -5.0101   -4.4434    2.8257 C   0  0  0  0  0  0  0  0  0  0  0  0
   -5.5129   -4.9817    4.1156 C   0  0  0  0  0  0  0  0  0  0  0  0
   -5.3163   -6.4837    4.2154 C   0  0  0  0  0  0  0  0  0  0  0  0
   -3.6684   -4.0185    2.7896 C   0  0  0  0  0  0  0  0  0  0  0  0
   -3.1180   -3.6282    1.5928 C   0  0  0  0  0  0  0  0  0  0  0  0
   -2.3033   -5.0800   -0.8078 C   0  0  0  0  0  0  0  0  0  0  0  0
   -1.0238   -5.2164   -0.2098 C   0  0  0  0  0  0  0  0  0  0  0  0
   -0.3612   -6.4388   -0.2228 C   0  0  0  0  0  0  0  0  0  0  0  0
   -1.0011   -7.5797   -0.7624 C   0  0  0  0  0  0  0  0  0  0  0  0
   -0.3087   -8.8866   -0.7668 C   0  0  0  0  0  0  0  0  0  0  0  0
    0.5318   -9.0245   -2.0180 C   0  0  0  0  0  0  0  0  0  0  0  0
   -2.3077   -7.4560   -1.2900 C   0  0  0  0  0  0  0  0  0  0  0  0
   -2.9728   -6.2252   -1.2405 C   0  0  0  0  0  0  0  0  0  0  0  0
   -1.9308   -2.6197   -1.0796 C   0  0  0  0  0  0  0  0  0  0  0  0
   -1.3629   -2.8128   -2.2934 C   0  0  0  0  0  0  0  0  0  0  0  0
   -2.4188   -3.4338   -3.1022 C   0  0  0  0  0  0  0  0  0  0  0  0
   -2.6608   -4.1391   -4.6115 S   0  0  0  0  0  0  0  0  0  0  0  0
    0.1471   -2.0376   -2.3379 S   0  0  0  0  0  0  0  0  0  0  0  0
   -0.0718   -1.2822   -0.8219 C   0  0  0  0  0  0  0  0  0  0  0  0
    0.6894   -0.2085   -0.2757 C   0  0  0  0  0  0  0  0  0  0  0  0
    2.0434   -0.0717   -0.6468 O   0  0  0  0  0  0  0  0  0  0  0  0
    3.0416   -1.0569   -0.3540 C   0  0  0  0  0  0  0  0  0  0  0  0
    3.3408   -1.0810    1.1471 C   0  0  0  0  0  0  0  0  0  0  0  0
    0.0054    0.6934    0.5456 C   0  0  0  0  0  0  0  0  0  0  0  0
   -1.3560    0.5354    0.8506 C   0  0  0  0  0  0  0  0  0  0  0  0
   -2.0904   -0.6269    0.4535 C   0  0  0  0  0  0  0  0  0  0  0  0
   -1.3552   -1.5771   -0.3693 C   0  0  0  0  0  0  0  0  0  0  0  0
   -3.4893   -0.6841    0.5715 O   0  0  0  0  0  0  0  0  0  0  0  0
   -4.1703   -0.7861    1.7988 C   0  0  0  0  0  0  0  0  0  0  0  0
   -5.1115    0.4401    2.0194 C   0  0  0  0  0  0  0  0  0  0  0  0
   -1.9895    2.0198    1.4051 S   0  0  0  0  0  0  0  0  0  0  0  0
   -0.5503    2.8703    1.1916 C   0  0  0  0  0  0  0  0  0  0  0  0
    0.0161    4.2060    1.3576 C   0  0  0  0  0  0  0  0  0  0  0  0
    1.3348    4.1494    1.1015 C   0  0  0  0  0  0  0  0  0  0  0  0
    1.8303    2.7103    1.2105 C   0  0  0  0  0  0  0  0  0  0  0  0
    0.4724    2.0191    0.8650 C   0  0  0  0  0  0  0  0  0  0  0  0
    3.0517    2.4489    0.3290 C   0  0  0  0  0  0  0  0  0  0  0  0
    4.3144    2.0903    0.8871 C   0  0  0  0  0  0  0  0  0  0  0  0
    5.4512    1.9629    0.0978 C   0  0  0  0  0  0  0  0  0  0  0  0
    5.3657    2.1449   -1.2793 C   0  0  0  0  0  0  0  0  0  0  0  0
    6.5944    1.9224   -2.1061 C   0  0  0  0  0  0  0  0  0  0  0  0
    6.8198    0.4284   -2.3516 C   0  0  0  0  0  0  0  0  0  0  0  0
    4.1174    2.4420   -1.8637 C   0  0  0  0  0  0  0  0  0  0  0  0
    2.9731    2.6178   -1.0663 C   0  0  0  0  0  0  0  0  0  0  0  0
    2.1544    2.5288    2.7309 C   0  0  0  0  0  0  0  0  0  0  0  0
    2.9992    3.4712    3.3758 C   0  0  0  0  0  0  0  0  0  0  0  0
    3.1332    3.4868    4.7687 C   0  0  0  0  0  0  0  0  0  0  0  0
    2.4140    2.5525    5.5504 C   0  0  0  0  0  0  0  0  0  0  0  0
    2.4447    2.6634    7.0267 C   0  0  0  0  0  0  0  0  0  0  0  0
    1.4532    3.7204    7.4884 C   0  0  0  0  0  0  0  0  0  0  0  0
    1.6372    1.5669    4.9152 C   0  0  0  0  0  0  0  0  0  0  0  0
    1.5374    1.5366    3.5228 C   0  0  0  0  0  0  0  0  0  0  0  0
    1.9228    5.3980    0.9443 C   0  0  0  0  0  0  0  0  0  0  0  0
    1.0046    6.4258    1.1966 C   0  0  0  0  0  0  0  0  0  0  0  0
   -0.5525    5.7700    1.4785 S   0  0  0  0  0  0  0  0  0  0  0  0
    1.2301    7.8828    1.0223 C   0  0  0  0  0  0  0  0  0  0  0  0
    2.2789    8.6035    1.4513 C   0  0  0  0  0  0  0  0  0  0  0  0
    3.3808    8.1084    2.2987 C   0  0  0  0  0  0  0  0  0  0  0  0
    3.5938    6.9159    2.6687 O   0  0  0  0  0  0  0  0  0  0  0  0
    4.1959    9.2265    2.7292 C   0  0  0  0  0  0  0  0  0  0  0  0
    5.3560    9.1700    3.5210 C   0  0  0  0  0  0  0  0  0  0  0  0
    5.9948   10.3876    3.8330 C   0  0  0  0  0  0  0  0  0  0  0  0
    5.4819   11.6048    3.3576 C   0  0  0  0  0  0  0  0  0  0  0  0
    6.2839   13.0963    3.7735 Cl  0  0  0  0  0  0  0  0  0  0  0  0
    4.3115   11.6261    2.5692 C   0  0  0  0  0  0  0  0  0  0  0  0
    3.6616   10.4122    2.2421 C   0  0  0  0  0  0  0  0  0  0  0  0
    2.4614   10.1031    1.3884 C   0  0  0  0  0  0  0  0  0  0  0  0
    1.7517   11.0264    0.6699 C   0  0  0  0  0  0  0  0  0  0  0  0
    1.9684   12.4550    0.7417 C   0  0  0  0  0  0  0  0  0  0  0  0
    2.1427   13.5932    0.8104 N   0  0  0  0  0  0  0  0  0  0  0  0
    0.7567   10.6482   -0.2788 C   0  0  0  0  0  0  0  0  0  0  0  0
   -0.0542   10.3641   -1.0692 N   0  0  0  0  0  0  0  0  0  0  0  0
   -6.2376   -4.9193   -4.9539 H   0  0  0  0  0  0  0  0  0  0  0  0
   -8.9991   -0.5884   -6.0809 H   0  0  0  0  0  0  0  0  0  0  0  0
   -8.2421    1.8574   -5.9928 H   0  0  0  0  0  0  0  0  0  0  0  0
   -4.0849    0.6090   -6.0645 H   0  0  0  0  0  0  0  0  0  0  0  0
   -5.6182   -4.0759   -2.5600 H   0  0  0  0  0  0  0  0  0  0  0  0
   -5.7974   -4.2168   -0.4677 H   0  0  0  0  0  0  0  0  0  0  0  0
   -6.8198   -4.8293    1.6730 H   0  0  0  0  0  0  0  0  0  0  0  0
   -4.9628   -4.4952    4.9618 H   0  0  0  0  0  0  0  0  0  0  0  0
   -6.5814   -4.7033    4.2238 H   0  0  0  0  0  0  0  0  0  0  0  0
   -5.0535   -6.7683    5.2564 H   0  0  0  0  0  0  0  0  0  0  0  0
   -6.2475   -7.0142    3.8951 H   0  0  0  0  0  0  0  0  0  0  0  0
   -4.4885   -6.8466    3.5365 H   0  0  0  0  0  0  0  0  0  0  0  0
   -3.0113   -4.0601    3.6601 H   0  0  0  0  0  0  0  0  0  0  0  0
   -2.0847   -3.3415    1.5999 H   0  0  0  0  0  0  0  0  0  0  0  0
   -0.4783   -4.3698    0.1956 H   0  0  0  0  0  0  0  0  0  0  0  0
    0.6519   -6.4816    0.1625 H   0  0  0  0  0  0  0  0  0  0  0  0
    0.3385   -8.9686    0.1482 H   0  0  0  0  0  0  0  0  0  0  0  0
   -1.0669   -9.6966   -0.7055 H   0  0  0  0  0  0  0  0  0  0  0  0
    1.3937   -8.3305   -1.9699 H   0  0  0  0  0  0  0  0  0  0  0  0
   -0.0593   -8.7960   -2.9280 H   0  0  0  0  0  0  0  0  0  0  0  0
    0.9061  -10.0835   -2.0862 H   0  0  0  0  0  0  0  0  0  0  0  0
   -2.7988   -8.3220   -1.7405 H   0  0  0  0  0  0  0  0  0  0  0  0
   -3.9855   -6.2252   -1.6710 H   0  0  0  0  0  0  0  0  0  0  0  0
    3.9821   -0.8443   -0.9245 H   0  0  0  0  0  0  0  0  0  0  0  0
    2.7016   -2.0934   -0.6807 H   0  0  0  0  0  0  0  0  0  0  0  0
    2.7634   -0.2456    1.6462 H   0  0  0  0  0  0  0  0  0  0  0  0
    3.0215   -2.0201    1.6294 H   0  0  0  0  0  0  0  0  0  0  0  0
    4.4191   -0.8820    1.3204 H   0  0  0  0  0  0  0  0  0  0  0  0
   -3.5379   -1.1192    2.6316 H   0  0  0  0  0  0  0  0  0  0  0  0
   -4.9215   -1.6326    1.7358 H   0  0  0  0  0  0  0  0  0  0  0  0
   -4.9110    0.7957    3.0645 H   0  0  0  0  0  0  0  0  0  0  0  0
   -6.1549    0.1269    1.6869 H   0  0  0  0  0  0  0  0  0  0  0  0
   -4.7730    1.2028    1.2938 H   0  0  0  0  0  0  0  0  0  0  0  0
    4.4887    1.9075    1.9402 H   0  0  0  0  0  0  0  0  0  0  0  0
    6.3870    1.6862    0.5737 H   0  0  0  0  0  0  0  0  0  0  0  0
    6.5130    2.4744   -3.0600 H   0  0  0  0  0  0  0  0  0  0  0  0
    7.4785    2.3369   -1.5571 H   0  0  0  0  0  0  0  0  0  0  0  0
    6.4010    0.1429   -3.3445 H   0  0  0  0  0  0  0  0  0  0  0  0
    6.3457   -0.2223   -1.5756 H   0  0  0  0  0  0  0  0  0  0  0  0
    7.9131    0.2121   -2.3376 H   0  0  0  0  0  0  0  0  0  0  0  0
    4.0308    2.5185   -2.9491 H   0  0  0  0  0  0  0  0  0  0  0  0
    2.0149    2.8703   -1.5443 H   0  0  0  0  0  0  0  0  0  0  0  0
    3.5292    4.2311    2.8182 H   0  0  0  0  0  0  0  0  0  0  0  0
    3.7379    4.2689    5.2192 H   0  0  0  0  0  0  0  0  0  0  0  0
    2.1859    1.6788    7.4762 H   0  0  0  0  0  0  0  0  0  0  0  0
    3.4761    2.9435    7.3757 H   0  0  0  0  0  0  0  0  0  0  0  0
    1.2321    3.5734    8.5672 H   0  0  0  0  0  0  0  0  0  0  0  0
    1.8660    4.7367    7.3214 H   0  0  0  0  0  0  0  0  0  0  0  0
    0.4845    3.6320    6.9386 H   0  0  0  0  0  0  0  0  0  0  0  0
    1.0188    0.8715    5.5013 H   0  0  0  0  0  0  0  0  0  0  0  0
    0.8788    0.7658    3.1167 H   0  0  0  0  0  0  0  0  0  0  0  0
    2.9453    5.5314    0.6142 H   0  0  0  0  0  0  0  0  0  0  0  0
    0.3842    8.3669    0.5916 H   0  0  0  0  0  0  0  0  0  0  0  0
    5.7598    8.2230    3.8842 H   0  0  0  0  0  0  0  0  0  0  0  0
    6.9015   10.3834    4.4492 H   0  0  0  0  0  0  0  0  0  0  0  0
    3.9593   12.5772    2.2231 H   0  0  0  0  0  0  0  0  0  0  0  0
  1  2  2  3
  2  3  1  0
  3  4  2  0
  3  5  1  0
  5  6  2  0
  6  7  1  0
  7  8  2  0
  8  9  1  0
  8 10  1  0
 10 11  2  0
 11 12  1  0
 12 13  2  3
 13 14  1  0
 14 15  3  0
 13 16  1  0
 16 17  3  0
  1 18  1  0
 18 19  2  0
 19 20  1  0
 20 21  1  0
 21 22  1  0
 22 23  2  0
 23 24  1  0
 24 25  2  0
 25 26  1  0
 26 27  1  0
 25 28  1  0
 28 29  2  0
 21 30  1  0
 30 31  2  0
 31 32  1  0
 32 33  2  0
 33 34  1  0
 34 35  1  0
 33 36  1  0
 36 37  2  0
 21 38  1  0
 38 39  2  0
 39 40  1  0
 40 41  1  0
 39 42  1  0
 42 43  1  0
 43 44  2  0
 44 45  1  0
 45 46  1  0
 46 47  1  0
 44 48  1  0
 48 49  2  0
 49 50  1  0
 50 51  2  0
 50 52  1  0
 52 53  1  0
 53 54  1  0
 49 55  1  0
 55 56  1  0
 56 57  1  0
 57 58  2  0
 58 59  1  0
 59 60  1  0
 59 61  1  0
 61 62  2  0
 62 63  1  0
 63 64  2  0
 64 65  1  0
 65 66  1  0
 64 67  1  0
 67 68  2  0
 59 69  1  0
 69 70  2  0
 70 71  1  0
 71 72  2  0
 72 73  1  0
 73 74  1  0
 72 75  1  0
 75 76  2  0
 58 77  1  0
 77 78  2  0
 78 79  1  0
 78 80  1  0
 80 81  2  3
 81 82  1  0
 82 83  2  0
 82 84  1  0
 84 85  2  0
 85 86  1  0
 86 87  2  0
 87 88  1  0
 87 89  1  0
 89 90  2  0
 90 91  1  0
 91 92  2  3
 92 93  1  0
 93 94  3  0
 92 95  1  0
 95 96  3  0
 12  2  1  0
 41 18  1  0
 51 43  1  0
 60 56  2  0
 68 61  1  0
 76 69  1  0
 91 81  1  0
 11  5  1  0
 40 20  2  0
 60 48  1  0
 90 84  1  0
 29 22  1  0
 37 30  1  0
 51 38  1  0
 79 57  1  0
  1 97  1  0
  6 98  1  0
  7 99  1  0
 10100  1  0
 19101  1  0
 23102  1  0
 24103  1  0
 26104  1  0
 26105  1  0
 27106  1  0
 27107  1  0
 27108  1  0
 28109  1  0
 29110  1  0
 31111  1  0
 32112  1  0
 34113  1  0
 34114  1  0
 35115  1  0
 35116  1  0
 35117  1  0
 36118  1  0
 37119  1  0
 46120  1  0
 46121  1  0
 47122  1  0
 47123  1  0
 47124  1  0
 53125  1  0
 53126  1  0
 54127  1  0
 54128  1  0
 54129  1  0
 62130  1  0
 63131  1  0
 65132  1  0
 65133  1  0
 66134  1  0
 66135  1  0
 66136  1  0
 67137  1  0
 68138  1  0
 70139  1  0
 71140  1  0
 73141  1  0
 73142  1  0
 74143  1  0
 74144  1  0
 74145  1  0
 75146  1  0
 76147  1  0
 77148  1  0
 80149  1  0
 85150  1  0
 86151  1  0
 89152  1  0
M  END

