
     RDKit          3D

 85 96  0  0  0  0  0  0  0  0999 V2000
   -3.5847    6.5832    0.6265 C   0  0  0  0  0  0  0  0  0  0  0  0
   -4.5298    6.5231    1.6352 C   0  0  0  0  0  0  0  0  0  0  0  0
   -3.9059    7.0926    2.8816 C   0  0  0  0  0  0  0  0  0  0  0  0
   -2.9723    7.7936    3.1534 O   0  0  0  0  0  0  0  0  0  0  0  0
   -4.8219    6.5331    3.8960 C   0  0  0  0  0  0  0  0  0  0  0  0
   -4.7322    6.5114    5.3060 C   0  0  0  0  0  0  0  0  0  0  0  0
   -5.5495    5.7839    6.0490 C   0  0  0  0  0  0  0  0  0  0  0  0
   -6.5544    4.9994    5.4944 C   0  0  0  0  0  0  0  0  0  0  0  0
   -7.5669    4.0141    6.4124 Cl  0  0  0  0  0  0  0  0  0  0  0  0
   -6.5852    5.0683    4.0332 C   0  0  0  0  0  0  0  0  0  0  0  0
   -5.7818    5.7923    3.3429 C   0  0  0  0  0  0  0  0  0  0  0  0
   -5.4950    5.8477    1.5878 C   0  0  0  0  0  0  0  0  0  0  0  0
   -6.5306    4.9395    1.3772 C   0  0  0  0  0  0  0  0  0  0  0  0
   -6.4227    3.7759    0.4064 C   0  0  0  0  0  0  0  0  0  0  0  0
   -6.3341    2.9734   -0.2490 N   0  0  0  0  0  0  0  0  0  0  0  0
   -7.8110    5.2047    1.8283 C   0  0  0  0  0  0  0  0  0  0  0  0
   -9.0320    5.4539    2.2798 N   0  0  0  0  0  0  0  0  0  0  0  0
   -2.9112    6.4948   -0.5467 C   0  0  0  0  0  0  0  0  0  0  0  0
   -2.1223    6.2076   -1.4674 C   0  0  0  0  0  0  0  0  0  0  0  0
   -1.3802    5.2880   -2.0173 C   0  0  0  0  0  0  0  0  0  0  0  0
    0.0170    5.3286   -3.1242 S   0  0  0  0  0  0  0  0  0  0  0  0
    0.5689    3.7270   -2.8619 C   0  0  0  0  0  0  0  0  0  0  0  0
    1.5828    2.8094   -3.1141 C   0  0  0  0  0  0  0  0  0  0  0  0
    2.7519    3.0120   -3.8977 C   0  0  0  0  0  0  0  0  0  0  0  0
    3.6199    1.9724   -3.8659 C   0  0  0  0  0  0  0  0  0  0  0  0
    4.7819    2.1909   -4.5921 N   0  0  0  0  0  0  0  0  0  0  0  0
    4.5835    3.7232   -5.2219 S   0  0  0  0  0  0  0  0  0  0  0  0
    3.0834    4.0811   -4.5907 N   0  0  0  0  0  0  0  0  0  0  0  0
    3.4071    0.8402   -3.1502 C   0  0  0  0  0  0  0  0  0  0  0  0
    4.1245   -0.3029   -2.9061 C   0  0  0  0  0  0  0  0  0  0  0  0
    3.4650   -1.1300   -2.0615 C   0  0  0  0  0  0  0  0  0  0  0  0
    2.2695   -0.4680   -1.7387 N   0  0  0  0  0  0  0  0  0  0  0  0
    1.4451   -1.0072   -0.6677 C   0  0  0  0  0  0  0  0  0  0  0  0
    2.0469   -0.4851    0.6340 C   0  0  0  0  0  0  0  0  0  0  0  0
    2.1828    0.6618   -2.3497 C   0  0  0  0  0  0  0  0  0  0  0  0
    1.3007    1.7349   -2.3878 C   0  0  0  0  0  0  0  0  0  0  0  0
    0.1112    1.9234   -1.6878 N   0  0  0  0  0  0  0  0  0  0  0  0
   -0.2984    3.2220   -1.9963 C   0  0  0  0  0  0  0  0  0  0  0  0
   -1.2948    4.0889   -1.5803 C   0  0  0  0  0  0  0  0  0  0  0  0
   -2.4405    4.1315   -0.1043 Se  0  0  0  0  0  2  0  0  0  0  0  0
   -0.6781    0.9644   -0.9795 C   0  0  0  0  0  0  0  0  0  0  0  0
   -1.4230    0.0286   -1.9728 C   0  0  0  0  0  0  0  0  0  0  0  0
    4.0424   -2.3044   -1.7381 C   0  0  0  0  0  0  0  0  0  0  0  0
    5.2934   -2.5962   -2.2843 C   0  0  0  0  0  0  0  0  0  0  0  0
    5.5372   -1.1685   -3.2206 S   0  0  0  0  0  0  0  0  0  0  0  0
    5.7990   -3.7752   -1.9591 C   0  0  0  0  0  0  0  0  0  0  0  0
    5.5528   -4.7679   -1.3082 C   0  0  0  0  0  0  0  0  0  0  0  0
    3.6917   -3.8833   -0.7152 Se  0  0  0  0  0  2  0  0  0  0  0  0
    5.6383   -6.0394   -0.6741 C   0  0  0  0  0  0  0  0  0  0  0  0
    4.5141   -6.8567   -0.8039 C   0  0  0  0  0  0  0  0  0  0  0  0
    3.3845   -6.4538   -1.5544 C   0  0  0  0  0  0  0  0  0  0  0  0
    3.2943   -5.5471   -2.5105 O   0  0  0  0  0  0  0  0  0  0  0  0
    2.2100   -7.1635   -1.2010 C   0  0  0  0  0  0  0  0  0  0  0  0
    0.8988   -7.2029   -1.5082 C   0  0  0  0  0  0  0  0  0  0  0  0
   -0.0634   -7.9709   -1.0022 C   0  0  0  0  0  0  0  0  0  0  0  0
   -1.3535   -7.9659   -1.3550 F   0  0  0  0  0  0  0  0  0  0  0  0
    0.3164   -8.8913    0.0172 C   0  0  0  0  0  0  0  0  0  0  0  0
   -0.6054   -9.6596    0.5575 F   0  0  0  0  0  0  0  0  0  0  0  0
    1.6513   -8.8738    0.3541 C   0  0  0  0  0  0  0  0  0  0  0  0
    2.6193   -8.0967   -0.1556 C   0  0  0  0  0  0  0  0  0  0  0  0
    4.0878   -7.8938    0.0588 C   0  0  0  0  0  0  0  0  0  0  0  0
    4.8483   -8.6521    0.7453 C   0  0  0  0  0  0  0  0  0  0  0  0
    6.2522   -8.7345    0.8471 C   0  0  0  0  0  0  0  0  0  0  0  0
    7.4435   -8.8095    0.9288 N   0  0  0  0  0  0  0  0  0  0  0  0
    4.2272   -9.6268    1.6889 C   0  0  0  0  0  0  0  0  0  0  0  0
    3.7422  -10.4259    2.4509 N   0  0  0  0  0  0  0  0  0  0  0  0
   -2.7528    7.3734    1.1897 H   0  0  0  0  0  0  0  0  0  0  0  0
   -3.9537    7.1443    5.7319 H   0  0  0  0  0  0  0  0  0  0  0  0
   -5.4739    5.7665    7.1712 H   0  0  0  0  0  0  0  0  0  0  0  0
   -7.3497    4.3382    3.7318 H   0  0  0  0  0  0  0  0  0  0  0  0
   -2.0678    7.3498   -2.0482 H   0  0  0  0  0  0  0  0  0  0  0  0
    1.7461   -2.1097   -0.6417 H   0  0  0  0  0  0  0  0  0  0  0  0
    0.4210   -1.0049   -0.6463 H   0  0  0  0  0  0  0  0  0  0  0  0
    3.1391   -0.2889    0.3824 H   0  0  0  0  0  0  0  0  0  0  0  0
    1.9583   -1.2603    1.4356 H   0  0  0  0  0  0  0  0  0  0  0  0
    1.6179    0.5077    0.9041 H   0  0  0  0  0  0  0  0  0  0  0  0
   -0.4504    0.6381   -0.0269 H   0  0  0  0  0  0  0  0  0  0  0  0
   -1.6320    1.5620   -0.6664 H   0  0  0  0  0  0  0  0  0  0  0  0
   -1.7181   -0.8791   -1.4241 H   0  0  0  0  0  0  0  0  0  0  0  0
   -0.7284   -0.2267   -2.8293 H   0  0  0  0  0  0  0  0  0  0  0  0
   -2.3049    0.4417   -2.4254 H   0  0  0  0  0  0  0  0  0  0  0  0
    6.9509   -3.9148   -2.4472 H   0  0  0  0  0  0  0  0  0  0  0  0
    6.4477   -6.3934   -0.1210 H   0  0  0  0  0  0  0  0  0  0  0  0
    0.5371   -6.5140   -2.3340 H   0  0  0  0  0  0  0  0  0  0  0  0
    1.8968   -9.5710    1.1372 H   0  0  0  0  0  0  0  0  0  0  0  0
  1  2  2  3
  2  3  1  0
  3  4  2  0
  3  5  1  0
  5  6  2  0
  6  7  1  0
  7  8  2  0
  8  9  1  0
  8 10  1  0
 10 11  2  0
 11 12  1  0
 12 13  2  3
 13 14  1  0
 14 15  3  0
 13 16  1  0
 16 17  3  0
  1 18  1  0
 18 19  2  0
 19 20  1  0
 20 21  1  0
 21 22  1  0
 22 23  1  0
 23 24  1  0
 24 25  1  0
 25 26  2  0
 26 27  1  0
 27 28  1  0
 25 29  1  0
 29 30  1  0
 30 31  2  0
 31 32  1  0
 32 33  1  0
 33 34  1  0
 32 35  1  0
 35 36  1  0
 36 37  1  0
 37 38  1  0
 38 39  1  0
 39 40  1  0
 37 41  1  0
 41 42  1  0
 31 43  1  0
 43 44  2  0
 44 45  1  0
 44 46  1  0
 46 47  2  0
 47 48  1  0
 47 49  1  0
 49 50  2  3
 50 51  1  0
 51 52  2  0
 51 53  1  0
 53 54  2  0
 54 55  1  0
 55 56  1  0
 55 57  2  0
 57 58  1  0
 57 59  1  0
 59 60  2  0
 60 61  1  0
 61 62  2  3
 62 63  1  0
 63 64  3  0
 62 65  1  0
 65 66  3  0
 12  2  1  0
 40 18  1  0
 48 43  1  0
 61 50  1  0
 11  5  1  0
 39 20  2  0
 60 53  1  0
 38 22  2  0
 36 23  2  0
 28 24  2  0
 35 29  2  0
 45 30  1  0
  1 67  1  0
  6 68  1  0
  7 69  1  0
 10 70  1  0
 19 71  1  0
 33 72  1  0
 33 73  1  0
 34 74  1  0
 34 75  1  0
 34 76  1  0
 41 77  1  0
 41 78  1  0
 42 79  1  0
 42 80  1  0
 42 81  1  0
 46 82  1  0
 49 83  1  0
 54 84  1  0
 59 85  1  0
M  END

