
     RDKit          3D

108121  0  0  0  0  0  0  0  0999 V2000
    1.0361    6.7418   -2.6132 C   0  0  0  0  0  0  0  0  0  0  0  0
    2.1666    7.4548   -2.7941 C   0  0  0  0  0  0  0  0  0  0  0  0
    3.3309    7.0623   -3.5980 C   0  0  0  0  0  0  0  0  0  0  0  0
    3.3419    6.2475   -4.5578 O   0  0  0  0  0  0  0  0  0  0  0  0
    4.4674    7.8431   -3.1588 C   0  0  0  0  0  0  0  0  0  0  0  0
    5.8046    7.7079   -3.5301 C   0  0  0  0  0  0  0  0  0  0  0  0
    6.7588    8.5185   -2.8962 C   0  0  0  0  0  0  0  0  0  0  0  0
    6.3653    9.4213   -1.8911 C   0  0  0  0  0  0  0  0  0  0  0  0
    7.5726   10.3923   -1.0695 Cl  0  0  0  0  0  0  0  0  0  0  0  0
    5.0121    9.5363   -1.5285 C   0  0  0  0  0  0  0  0  0  0  0  0
    4.0580    8.7552   -2.2004 C   0  0  0  0  0  0  0  0  0  0  0  0
    2.5826    8.6637   -2.0189 C   0  0  0  0  0  0  0  0  0  0  0  0
    1.7727    9.6184   -1.4908 C   0  0  0  0  0  0  0  0  0  0  0  0
    0.3381    9.5624   -1.6036 C   0  0  0  0  0  0  0  0  0  0  0  0
   -0.8154    9.5212   -1.6963 N   0  0  0  0  0  0  0  0  0  0  0  0
    2.2843   10.8261   -0.9005 C   0  0  0  0  0  0  0  0  0  0  0  0
    2.6799   11.8046   -0.4254 N   0  0  0  0  0  0  0  0  0  0  0  0
    0.7498    5.4174   -3.2091 C   0  0  0  0  0  0  0  0  0  0  0  0
    1.6636    4.3484   -3.2364 C   0  0  0  0  0  0  0  0  0  0  0  0
    0.8821    3.2767   -3.5859 C   0  0  0  0  0  0  0  0  0  0  0  0
   -0.3725    3.6666   -3.7349 C   0  0  0  0  0  0  0  0  0  0  0  0
   -0.5169    4.9897   -3.5143 N   0  0  0  0  0  0  0  0  0  0  0  0
   -1.7479    5.7816   -3.4360 C   0  0  0  0  0  0  0  0  0  0  0  0
   -2.4387    5.5827   -2.0912 C   0  0  0  0  0  0  0  0  0  0  0  0
   -1.1527    2.5324   -3.8063 C   0  0  0  0  0  0  0  0  0  0  0  0
   -2.5273    2.3302   -3.9979 C   0  0  0  0  0  0  0  0  0  0  0  0
   -3.0288    0.9991   -4.0014 C   0  0  0  0  0  0  0  0  0  0  0  0
   -4.3661    0.8429   -4.1744 N   0  0  0  0  0  0  0  0  0  0  0  0
   -4.8189    2.4242   -4.3417 S   0  0  0  0  0  0  0  0  0  0  0  0
   -3.4328    3.3153   -4.2025 N   0  0  0  0  0  0  0  0  0  0  0  0
   -2.1456   -0.0596   -3.7807 C   0  0  0  0  0  0  0  0  0  0  0  0
   -2.4303   -1.3525   -3.4488 C   0  0  0  0  0  0  0  0  0  0  0  0
   -3.8270   -2.1815   -2.9507 S   0  0  0  0  0  0  0  0  0  0  0  0
   -2.8931   -3.3364   -2.1220 C   0  0  0  0  0  0  0  0  0  0  0  0
   -3.2278   -4.3615   -1.2319 C   0  0  0  0  0  0  0  0  0  0  0  0
   -4.6390   -4.7605   -0.9017 C   0  0  0  0  0  0  0  0  0  0  0  0
   -5.1241   -4.0444    0.3544 C   0  0  0  0  0  0  0  0  0  0  0  0
   -2.0826   -4.8390   -0.5708 C   0  0  0  0  0  0  0  0  0  0  0  0
   -0.7013   -4.0251   -1.1491 S   0  0  0  0  0  0  0  0  0  0  0  0
   -1.5550   -3.0403   -2.2021 C   0  0  0  0  0  0  0  0  0  0  0  0
   -1.2915   -1.8988   -2.9595 C   0  0  0  0  0  0  0  0  0  0  0  0
   -0.2429   -1.0334   -2.9915 N   0  0  0  0  0  0  0  0  0  0  0  0
   -0.7688    0.1234   -3.5371 C   0  0  0  0  0  0  0  0  0  0  0  0
   -0.2401    1.4551   -3.6383 C   0  0  0  0  0  0  0  0  0  0  0  0
    1.0508    1.9404   -3.5544 N   0  0  0  0  0  0  0  0  0  0  0  0
    2.3597    1.3165   -3.7758 C   0  0  0  0  0  0  0  0  0  0  0  0
    2.3664    0.4684   -5.0487 C   0  0  0  0  0  0  0  0  0  0  0  0
    1.0061   -1.2559   -2.2565 C   0  0  0  0  0  0  0  0  0  0  0  0
    1.0381   -0.4541   -0.9578 C   0  0  0  0  0  0  0  0  0  0  0  0
   -2.0574   -5.9018    0.4495 C   0  0  0  0  0  0  0  0  0  0  0  0
   -1.3733   -5.8131    1.6084 C   0  0  0  0  0  0  0  0  0  0  0  0
   -0.8947   -4.5632    2.2210 C   0  0  0  0  0  0  0  0  0  0  0  0
   -0.9607   -3.4081    1.7232 O   0  0  0  0  0  0  0  0  0  0  0  0
   -0.4796   -4.8376    3.5767 C   0  0  0  0  0  0  0  0  0  0  0  0
    0.0202   -3.9024    4.5128 C   0  0  0  0  0  0  0  0  0  0  0  0
    0.2902   -4.4443    5.7534 C   0  0  0  0  0  0  0  0  0  0  0  0
    0.0632   -5.8214    6.0700 C   0  0  0  0  0  0  0  0  0  0  0  0
   -0.4415   -6.7375    5.1627 C   0  0  0  0  0  0  0  0  0  0  0  0
   -0.6951   -6.2109    3.8643 C   0  0  0  0  0  0  0  0  0  0  0  0
   -1.1845   -6.8953    2.6294 C   0  0  0  0  0  0  0  0  0  0  0  0
   -1.2141   -8.2361    2.4014 C   0  0  0  0  0  0  0  0  0  0  0  0
   -0.9323   -9.2118    3.4211 C   0  0  0  0  0  0  0  0  0  0  0  0
   -0.7078  -10.0128    4.2269 N   0  0  0  0  0  0  0  0  0  0  0  0
   -1.4206   -8.7919    1.0893 C   0  0  0  0  0  0  0  0  0  0  0  0
   -1.5812   -9.2505    0.0374 N   0  0  0  0  0  0  0  0  0  0  0  0
    0.5371   -5.5944    7.4748 C   0  0  0  0  0  0  0  0  0  0  0  0
   -0.5562   -5.5315    8.5815 C   0  0  0  0  0  0  0  0  0  0  0  0
    0.1102   -4.9157    9.7889 C   0  0  0  0  0  0  0  0  0  0  0  0
    0.3296   -3.6295    9.4863 C   0  0  0  0  0  0  0  0  0  0  0  0
   -0.2016   -3.4215    8.0891 C   0  0  0  0  0  0  0  0  0  0  0  0
   -1.4064   -4.3457    8.1561 C   0  0  0  0  0  0  0  0  0  0  0  0
    0.7731   -4.1848    7.1475 C   0  0  0  0  0  0  0  0  0  0  0  0
    0.2956    7.0938   -1.9178 H   0  0  0  0  0  0  0  0  0  0  0  0
    6.1053    6.9848   -4.2766 H   0  0  0  0  0  0  0  0  0  0  0  0
    7.8024    8.4209   -3.1637 H   0  0  0  0  0  0  0  0  0  0  0  0
    4.7471   10.1948   -0.7176 H   0  0  0  0  0  0  0  0  0  0  0  0
    2.6866    4.3314   -2.8846 H   0  0  0  0  0  0  0  0  0  0  0  0
   -2.4215    5.5252   -4.2734 H   0  0  0  0  0  0  0  0  0  0  0  0
   -1.5182    6.8601   -3.5641 H   0  0  0  0  0  0  0  0  0  0  0  0
   -3.4013    6.1380   -2.0817 H   0  0  0  0  0  0  0  0  0  0  0  0
   -1.7954    5.9648   -1.2693 H   0  0  0  0  0  0  0  0  0  0  0  0
   -2.6432    4.5073   -1.9135 H   0  0  0  0  0  0  0  0  0  0  0  0
   -4.6985   -5.8600   -0.7501 H   0  0  0  0  0  0  0  0  0  0  0  0
   -5.3095   -4.5056   -1.7520 H   0  0  0  0  0  0  0  0  0  0  0  0
   -6.1978   -4.2678    0.5180 H   0  0  0  0  0  0  0  0  0  0  0  0
   -4.5485   -4.3924    1.2377 H   0  0  0  0  0  0  0  0  0  0  0  0
   -5.0016   -2.9455    0.2434 H   0  0  0  0  0  0  0  0  0  0  0  0
    2.7120    0.7930   -2.8734 H   0  0  0  0  0  0  0  0  0  0  0  0
    3.1264    2.1060   -3.9251 H   0  0  0  0  0  0  0  0  0  0  0  0
    1.5735   -0.3092   -5.0317 H   0  0  0  0  0  0  0  0  0  0  0  0
    3.3512   -0.0327   -5.1568 H   0  0  0  0  0  0  0  0  0  0  0  0
    2.1990    1.1224   -5.9315 H   0  0  0  0  0  0  0  0  0  0  0  0
    1.1237   -2.3240   -2.0029 H   0  0  0  0  0  0  0  0  0  0  0  0
    1.8761   -1.0926   -2.8990 H   0  0  0  0  0  0  0  0  0  0  0  0
    1.9863   -0.6566   -0.4160 H   0  0  0  0  0  0  0  0  0  0  0  0
    0.1842   -0.7507   -0.3146 H   0  0  0  0  0  0  0  0  0  0  0  0
    0.9694    0.6328   -1.1592 H   0  0  0  0  0  0  0  0  0  0  0  0
   -2.6497   -6.7762    0.2360 H   0  0  0  0  0  0  0  0  0  0  0  0
    0.1674   -2.8549    4.2875 H   0  0  0  0  0  0  0  0  0  0  0  0
   -0.6293   -7.7501    5.4667 H   0  0  0  0  0  0  0  0  0  0  0  0
    1.4545   -6.1658    7.7357 H   0  0  0  0  0  0  0  0  0  0  0  0
   -1.1033   -6.4790    8.7713 H   0  0  0  0  0  0  0  0  0  0  0  0
    0.2992   -5.3882   10.7489 H   0  0  0  0  0  0  0  0  0  0  0  0
    0.7178   -2.8772   10.1642 H   0  0  0  0  0  0  0  0  0  0  0  0
   -0.4094   -2.3653    7.8161 H   0  0  0  0  0  0  0  0  0  0  0  0
   -2.1576   -4.0390    8.9236 H   0  0  0  0  0  0  0  0  0  0  0  0
   -1.9289   -4.4843    7.1844 H   0  0  0  0  0  0  0  0  0  0  0  0
    1.8380   -3.8693    7.1977 H   0  0  0  0  0  0  0  0  0  0  0  0
  1  2  2  3
  2  3  1  0
  3  4  2  0
  3  5  1  0
  5  6  2  0
  6  7  1  0
  7  8  2  0
  8  9  1  0
  8 10  1  0
 10 11  2  0
 11 12  1  0
 12 13  2  3
 13 14  1  0
 14 15  3  0
 13 16  1  0
 16 17  3  0
  1 18  1  0
 18 19  2  0
 19 20  1  0
 20 21  2  0
 21 22  1  0
 22 23  1  0
 23 24  1  0
 21 25  1  0
 25 26  1  0
 26 27  1  0
 27 28  2  0
 28 29  1  0
 29 30  1  0
 27 31  1  0
 31 32  1  0
 32 33  1  0
 33 34  1  0
 34 35  1  0
 35 36  1  0
 36 37  1  0
 35 38  2  0
 38 39  1  0
 39 40  1  0
 40 41  1  0
 41 42  1  0
 42 43  1  0
 43 44  1  0
 44 45  1  0
 45 46  1  0
 46 47  1  0
 42 48  1  0
 48 49  1  0
 38 50  1  0
 50 51  2  3
 51 52  1  0
 52 53  2  0
 52 54  1  0
 54 55  2  0
 55 56  1  0
 56 57  2  0
 57 58  1  0
 58 59  2  0
 59 60  1  0
 60 61  2  3
 61 62  1  0
 62 63  3  0
 61 64  1  0
 64 65  3  0
 57 66  1  0
 66 67  1  0
 67 68  1  0
 68 69  2  0
 69 70  1  0
 70 71  1  0
 70 72  1  0
 12  2  1  0
 22 18  1  0
 44 25  2  0
 60 51  1  0
 72 66  1  0
 11  5  1  0
 45 20  1  0
 59 54  1  0
 71 67  1  0
 30 26  2  0
 43 31  2  0
 72 56  1  0
 41 32  2  0
 40 34  2  0
  1 73  1  0
  6 74  1  0
  7 75  1  0
 10 76  1  0
 19 77  1  0
 23 78  1  0
 23 79  1  0
 24 80  1  0
 24 81  1  0
 24 82  1  0
 36 83  1  0
 36 84  1  0
 37 85  1  0
 37 86  1  0
 37 87  1  0
 46 88  1  0
 46 89  1  0
 47 90  1  0
 47 91  1  0
 47 92  1  0
 48 93  1  0
 48 94  1  0
 49 95  1  0
 49 96  1  0
 49 97  1  0
 50 98  1  0
 55 99  1  0
 58100  1  0
 66101  1  0
 67102  1  0
 68103  1  0
 69104  1  0
 70105  1  0
 71106  1  0
 71107  1  0
 72108  1  0
M  END

