
     RDKit          3D

 98108  0  0  0  0  0  0  0  0999 V2000
   -6.3836    1.9453    4.5013 C   0  0  0  0  0  0  0  0  0  0  0  0
   -5.8710    3.1779    4.3172 C   0  0  0  0  0  0  0  0  0  0  0  0
   -4.5173    3.4715    3.8288 C   0  0  0  0  0  0  0  0  0  0  0  0
   -3.7395    2.6777    3.2358 O   0  0  0  0  0  0  0  0  0  0  0  0
   -4.2125    4.8483    4.1438 C   0  0  0  0  0  0  0  0  0  0  0  0
   -3.0015    5.5185    3.9707 C   0  0  0  0  0  0  0  0  0  0  0  0
   -2.8933    6.8355    4.4360 C   0  0  0  0  0  0  0  0  0  0  0  0
   -3.9808    7.4451    5.0888 C   0  0  0  0  0  0  0  0  0  0  0  0
   -3.8214    9.0814    5.7044 Cl  0  0  0  0  0  0  0  0  0  0  0  0
   -5.1928    6.7508    5.2501 C   0  0  0  0  0  0  0  0  0  0  0  0
   -5.3057    5.4421    4.7519 C   0  0  0  0  0  0  0  0  0  0  0  0
   -6.4412    4.4759    4.8022 C   0  0  0  0  0  0  0  0  0  0  0  0
   -7.7528    4.7722    5.0038 C   0  0  0  0  0  0  0  0  0  0  0  0
   -8.8072    3.8169    4.7673 C   0  0  0  0  0  0  0  0  0  0  0  0
   -9.6593    3.0537    4.5861 N   0  0  0  0  0  0  0  0  0  0  0  0
   -8.2090    6.0886    5.3662 C   0  0  0  0  0  0  0  0  0  0  0  0
   -8.6006    7.1363    5.6603 N   0  0  0  0  0  0  0  0  0  0  0  0
   -5.6740    0.7242    4.1074 C   0  0  0  0  0  0  0  0  0  0  0  0
   -4.3731    0.0543    4.9828 S   0  0  0  0  0  0  0  0  0  0  0  0
   -4.0724   -1.1050    3.8131 C   0  0  0  0  0  0  0  0  0  0  0  0
   -2.9608   -1.7552    3.3670 C   0  0  0  0  0  0  0  0  0  0  0  0
   -1.3351   -1.6695    3.7590 S   0  0  0  0  0  0  0  0  0  0  0  0
   -0.8309   -2.0857    2.1843 C   0  0  0  0  0  0  0  0  0  0  0  0
    0.4915   -2.2379    1.7220 C   0  0  0  0  0  0  0  0  0  0  0  0
    1.5685   -1.8541    2.5243 O   0  0  0  0  0  0  0  0  0  0  0  0
    1.7147   -0.5492    3.0957 C   0  0  0  0  0  0  0  0  0  0  0  0
    2.6052   -0.6225    4.3266 C   0  0  0  0  0  0  0  0  0  0  0  0
    0.6645   -2.8011    0.4294 C   0  0  0  0  0  0  0  0  0  0  0  0
   -0.4840   -3.0810   -0.3661 C   0  0  0  0  0  0  0  0  0  0  0  0
   -1.7934   -2.8717    0.0954 C   0  0  0  0  0  0  0  0  0  0  0  0
   -2.9107   -3.3214   -0.6161 O   0  0  0  0  0  0  0  0  0  0  0  0
   -3.1475   -4.6978   -0.9225 C   0  0  0  0  0  0  0  0  0  0  0  0
   -3.2158   -5.5372    0.3527 C   0  0  0  0  0  0  0  0  0  0  0  0
   -1.9489   -2.2880    1.3550 C   0  0  0  0  0  0  0  0  0  0  0  0
   -3.1457   -2.0013    2.0335 C   0  0  0  0  0  0  0  0  0  0  0  0
   -4.3214   -1.4582    1.5910 N   0  0  0  0  0  0  0  0  0  0  0  0
   -4.8687   -0.9296    2.7217 C   0  0  0  0  0  0  0  0  0  0  0  0
   -5.8023    0.1016    2.8562 C   0  0  0  0  0  0  0  0  0  0  0  0
   -4.6690   -1.0336    0.2266 C   0  0  0  0  0  0  0  0  0  0  0  0
   -5.8616   -1.8311   -0.2839 C   0  0  0  0  0  0  0  0  0  0  0  0
   -0.0686   -3.6162   -1.9288 S   0  0  0  0  0  0  0  0  0  0  0  0
    1.5571   -3.5925   -1.5667 C   0  0  0  0  0  0  0  0  0  0  0  0
    2.7337   -3.6809   -2.2427 C   0  0  0  0  0  0  0  0  0  0  0  0
    3.2754   -3.6904   -3.8249 S   0  0  0  0  0  0  0  0  0  0  0  0
    4.8434   -3.1757   -3.3515 C   0  0  0  0  0  0  0  0  0  0  0  0
    4.9256   -3.0230   -1.9585 C   0  0  0  0  0  0  0  0  0  0  0  0
    3.6928   -3.2965   -1.3726 C   0  0  0  0  0  0  0  0  0  0  0  0
    3.1946   -2.9876   -0.1451 N   0  0  0  0  0  0  0  0  0  0  0  0
    4.0083   -2.4980    0.9681 C   0  0  0  0  0  0  0  0  0  0  0  0
    4.2481   -0.9978    0.8331 C   0  0  0  0  0  0  0  0  0  0  0  0
    1.8372   -3.1398   -0.3045 C   0  0  0  0  0  0  0  0  0  0  0  0
    5.9438   -2.8204   -4.2600 C   0  0  0  0  0  0  0  0  0  0  0  0
    5.8818   -1.8483   -5.1925 C   0  0  0  0  0  0  0  0  0  0  0  0
    4.7671   -0.9088   -5.3945 C   0  0  0  0  0  0  0  0  0  0  0  0
    3.5614   -1.0689   -5.0565 O   0  0  0  0  0  0  0  0  0  0  0  0
    5.2765    0.2688   -6.0618 C   0  0  0  0  0  0  0  0  0  0  0  0
    4.5841    1.4373   -6.3761 C   0  0  0  0  0  0  0  0  0  0  0  0
    5.2879    2.4978   -6.9670 C   0  0  0  0  0  0  0  0  0  0  0  0
    6.6674    2.3745   -7.2186 C   0  0  0  0  0  0  0  0  0  0  0  0
    7.5571    3.7175   -7.9182 Cl  0  0  0  0  0  0  0  0  0  0  0  0
    7.3442    1.1834   -6.8982 C   0  0  0  0  0  0  0  0  0  0  0  0
    6.6245    0.1180   -6.3228 C   0  0  0  0  0  0  0  0  0  0  0  0
    7.0554   -1.2490   -5.9048 C   0  0  0  0  0  0  0  0  0  0  0  0
    8.1970   -1.8917   -6.2642 C   0  0  0  0  0  0  0  0  0  0  0  0
    8.3569   -3.3113   -6.0867 C   0  0  0  0  0  0  0  0  0  0  0  0
    8.4959   -4.4561   -5.9627 N   0  0  0  0  0  0  0  0  0  0  0  0
    9.2861   -1.2326   -6.9334 C   0  0  0  0  0  0  0  0  0  0  0  0
   10.1748   -0.7119   -7.4628 N   0  0  0  0  0  0  0  0  0  0  0  0
   -7.3189    1.8062    5.0153 H   0  0  0  0  0  0  0  0  0  0  0  0
   -2.1557    5.0286    3.5067 H   0  0  0  0  0  0  0  0  0  0  0  0
   -1.9604    7.3719    4.3181 H   0  0  0  0  0  0  0  0  0  0  0  0
   -5.9918    7.2253    5.7929 H   0  0  0  0  0  0  0  0  0  0  0  0
    0.7460   -0.1040    3.3859 H   0  0  0  0  0  0  0  0  0  0  0  0
    2.1626    0.1416    2.3565 H   0  0  0  0  0  0  0  0  0  0  0  0
    2.7499    0.3948    4.7525 H   0  0  0  0  0  0  0  0  0  0  0  0
    2.1233   -1.2729    5.0919 H   0  0  0  0  0  0  0  0  0  0  0  0
    3.5927   -1.0445    4.0581 H   0  0  0  0  0  0  0  0  0  0  0  0
   -2.3577   -5.1034   -1.5897 H   0  0  0  0  0  0  0  0  0  0  0  0
   -4.1167   -4.7799   -1.4613 H   0  0  0  0  0  0  0  0  0  0  0  0
   -2.2260   -5.5423    0.8595 H   0  0  0  0  0  0  0  0  0  0  0  0
   -3.9775   -5.1154    1.0471 H   0  0  0  0  0  0  0  0  0  0  0  0
   -3.4863   -6.5833    0.0994 H   0  0  0  0  0  0  0  0  0  0  0  0
   -6.4576    0.4423    2.0648 H   0  0  0  0  0  0  0  0  0  0  0  0
   -4.9255    0.0457    0.2228 H   0  0  0  0  0  0  0  0  0  0  0  0
   -3.8100   -1.1361   -0.4657 H   0  0  0  0  0  0  0  0  0  0  0  0
   -6.7445   -1.6505    0.3628 H   0  0  0  0  0  0  0  0  0  0  0  0
   -6.1084   -1.5079   -1.3222 H   0  0  0  0  0  0  0  0  0  0  0  0
   -5.6307   -2.9168   -0.2960 H   0  0  0  0  0  0  0  0  0  0  0  0
    5.7908   -2.6291   -1.4384 H   0  0  0  0  0  0  0  0  0  0  0  0
    3.5668   -2.7807    1.9370 H   0  0  0  0  0  0  0  0  0  0  0  0
    4.9964   -3.0112    0.9597 H   0  0  0  0  0  0  0  0  0  0  0  0
    4.6197   -0.5892    1.7961 H   0  0  0  0  0  0  0  0  0  0  0  0
    5.0087   -0.8002    0.0465 H   0  0  0  0  0  0  0  0  0  0  0  0
    3.3105   -0.4848    0.5340 H   0  0  0  0  0  0  0  0  0  0  0  0
    6.9047   -3.2352   -4.0015 H   0  0  0  0  0  0  0  0  0  0  0  0
    3.5283    1.5349   -6.1595 H   0  0  0  0  0  0  0  0  0  0  0  0
    4.7729    3.4179   -7.2205 H   0  0  0  0  0  0  0  0  0  0  0  0
    8.4028    1.1386   -7.0658 H   0  0  0  0  0  0  0  0  0  0  0  0
  1  2  2  3
  2  3  1  0
  3  4  2  0
  3  5  1  0
  5  6  2  0
  6  7  1  0
  7  8  2  0
  8  9  1  0
  8 10  1  0
 10 11  2  0
 11 12  1  0
 12 13  2  3
 13 14  1  0
 14 15  3  0
 13 16  1  0
 16 17  3  0
  1 18  1  0
 18 19  1  0
 19 20  1  0
 20 21  1  0
 21 22  1  0
 22 23  1  0
 23 24  2  0
 24 25  1  0
 25 26  1  0
 26 27  1  0
 24 28  1  0
 28 29  2  0
 29 30  1  0
 30 31  1  0
 31 32  1  0
 32 33  1  0
 30 34  2  0
 34 35  1  0
 35 36  1  0
 36 37  1  0
 37 38  1  0
 36 39  1  0
 39 40  1  0
 29 41  1  0
 41 42  1  0
 42 43  1  0
 43 44  1  0
 44 45  1  0
 45 46  2  0
 46 47  1  0
 47 48  1  0
 48 49  1  0
 49 50  1  0
 48 51  1  0
 45 52  1  0
 52 53  2  3
 53 54  1  0
 54 55  2  0
 54 56  1  0
 56 57  2  0
 57 58  1  0
 58 59  2  0
 59 60  1  0
 59 61  1  0
 61 62  2  0
 62 63  1  0
 63 64  2  3
 64 65  1  0
 65 66  3  0
 64 67  1  0
 67 68  3  0
 12  2  1  0
 38 18  2  0
 51 42  2  0
 63 53  1  0
 11  5  1  0
 37 20  2  0
 47 43  2  0
 62 56  1  0
 35 21  2  0
 34 23  1  0
 51 28  1  0
  1 69  1  0
  6 70  1  0
  7 71  1  0
 10 72  1  0
 26 73  1  0
 26 74  1  0
 27 75  1  0
 27 76  1  0
 27 77  1  0
 32 78  1  0
 32 79  1  0
 33 80  1  0
 33 81  1  0
 33 82  1  0
 38 83  1  0
 39 84  1  0
 39 85  1  0
 40 86  1  0
 40 87  1  0
 40 88  1  0
 46 89  1  0
 49 90  1  0
 49 91  1  0
 50 92  1  0
 50 93  1  0
 50 94  1  0
 52 95  1  0
 57 96  1  0
 58 97  1  0
 61 98  1  0
M  END

