
     RDKit          3D

114129  0  0  0  0  0  0  0  0999 V2000
    8.0441   -3.8476   -0.9103 C   0  0  0  0  0  0  0  0  0  0  0  0
    8.5952   -3.4326    0.2466 C   0  0  0  0  0  0  0  0  0  0  0  0
    8.2318   -2.2098    0.9710 C   0  0  0  0  0  0  0  0  0  0  0  0
    7.1966   -1.5070    0.7898 O   0  0  0  0  0  0  0  0  0  0  0  0
    9.3048   -1.8943    1.8894 C   0  0  0  0  0  0  0  0  0  0  0  0
    9.4323   -0.7727    2.7113 C   0  0  0  0  0  0  0  0  0  0  0  0
   10.6060   -0.6265    3.4604 C   0  0  0  0  0  0  0  0  0  0  0  0
   11.6299   -1.5845    3.3642 C   0  0  0  0  0  0  0  0  0  0  0  0
   13.1088   -1.3698    4.2833 Cl  0  0  0  0  0  0  0  0  0  0  0  0
   11.4853   -2.7052    2.5246 C   0  0  0  0  0  0  0  0  0  0  0  0
   10.2932   -2.8640    1.8013 C   0  0  0  0  0  0  0  0  0  0  0  0
    9.8674   -3.9317    0.8521 C   0  0  0  0  0  0  0  0  0  0  0  0
   10.3844   -5.1802    0.7398 C   0  0  0  0  0  0  0  0  0  0  0  0
   11.5532   -5.6036    1.4623 C   0  0  0  0  0  0  0  0  0  0  0  0
   12.4923   -5.9649    2.0345 N   0  0  0  0  0  0  0  0  0  0  0  0
    9.7127   -6.2259    0.0112 C   0  0  0  0  0  0  0  0  0  0  0  0
    9.1743   -7.0760   -0.5632 N   0  0  0  0  0  0  0  0  0  0  0  0
    6.8454   -3.2380   -1.4905 C   0  0  0  0  0  0  0  0  0  0  0  0
    6.8739   -2.2031   -2.8531 S   0  0  0  0  0  0  0  0  0  0  0  0
    5.2085   -2.0523   -2.8362 C   0  0  0  0  0  0  0  0  0  0  0  0
    4.1874   -1.5427   -3.5761 C   0  0  0  0  0  0  0  0  0  0  0  0
    3.9477   -0.6525   -4.9930 S   0  0  0  0  0  0  0  0  0  0  0  0
    2.2655   -0.8618   -4.8202 C   0  0  0  0  0  0  0  0  0  0  0  0
    1.1832   -0.1358   -5.2268 C   0  0  0  0  0  0  0  0  0  0  0  0
    1.1128    1.0063   -6.0420 C   0  0  0  0  0  0  0  0  0  0  0  0
   -0.0676    1.8078   -6.0038 C   0  0  0  0  0  0  0  0  0  0  0  0
   -0.0795    2.9296   -6.7648 N   0  0  0  0  0  0  0  0  0  0  0  0
    1.4324    2.8255   -7.4333 S   0  0  0  0  0  0  0  0  0  0  0  0
    2.1286    1.4520   -6.8242 N   0  0  0  0  0  0  0  0  0  0  0  0
   -1.1325    1.3892   -5.2052 C   0  0  0  0  0  0  0  0  0  0  0  0
   -2.3534    1.9439   -4.9300 C   0  0  0  0  0  0  0  0  0  0  0  0
   -3.0221    3.5061   -4.8988 S   0  0  0  0  0  0  0  0  0  0  0  0
   -4.2108    3.0083   -3.7743 C   0  0  0  0  0  0  0  0  0  0  0  0
   -5.0514    3.7238   -2.9146 C   0  0  0  0  0  0  0  0  0  0  0  0
   -5.2898    5.2047   -3.0030 C   0  0  0  0  0  0  0  0  0  0  0  0
   -6.6130    5.4976   -3.6999 C   0  0  0  0  0  0  0  0  0  0  0  0
   -5.5442    2.8893   -1.8944 C   0  0  0  0  0  0  0  0  0  0  0  0
   -4.9311    1.3083   -2.0742 S   0  0  0  0  0  0  0  0  0  0  0  0
   -4.0584    1.6821   -3.4467 C   0  0  0  0  0  0  0  0  0  0  0  0
   -2.9886    1.0908   -4.0877 C   0  0  0  0  0  0  0  0  0  0  0  0
   -2.2465    0.0026   -3.7756 N   0  0  0  0  0  0  0  0  0  0  0  0
   -1.0690    0.2258   -4.4287 C   0  0  0  0  0  0  0  0  0  0  0  0
    0.1527   -0.4819   -4.3446 C   0  0  0  0  0  0  0  0  0  0  0  0
    0.6211   -1.2540   -3.3083 N   0  0  0  0  0  0  0  0  0  0  0  0
    1.8971   -1.5546   -3.6926 C   0  0  0  0  0  0  0  0  0  0  0  0
    3.0300   -1.9715   -2.9840 C   0  0  0  0  0  0  0  0  0  0  0  0
    3.2760   -2.7842   -1.9156 N   0  0  0  0  0  0  0  0  0  0  0  0
    4.6355   -2.7841   -1.8512 C   0  0  0  0  0  0  0  0  0  0  0  0
    5.5322   -3.5035   -1.0720 C   0  0  0  0  0  0  0  0  0  0  0  0
    2.3847   -3.7406   -1.2578 C   0  0  0  0  0  0  0  0  0  0  0  0
    2.2096   -3.3981    0.2224 C   0  0  0  0  0  0  0  0  0  0  0  0
    0.2154   -1.0571   -1.9029 C   0  0  0  0  0  0  0  0  0  0  0  0
    1.0248    0.0510   -1.2256 C   0  0  0  0  0  0  0  0  0  0  0  0
   -2.7986   -1.2961   -3.3661 C   0  0  0  0  0  0  0  0  0  0  0  0
   -3.7331   -1.8472   -4.4439 C   0  0  0  0  0  0  0  0  0  0  0  0
   -6.3299    3.3183   -0.7290 C   0  0  0  0  0  0  0  0  0  0  0  0
   -5.8503    3.2355    0.5272 C   0  0  0  0  0  0  0  0  0  0  0  0
   -4.4957    2.7955    0.8869 C   0  0  0  0  0  0  0  0  0  0  0  0
   -3.4735    2.8421    0.1502 O   0  0  0  0  0  0  0  0  0  0  0  0
   -4.5101    2.3238    2.2527 C   0  0  0  0  0  0  0  0  0  0  0  0
   -3.4764    1.6302    2.9224 C   0  0  0  0  0  0  0  0  0  0  0  0
   -3.8337    1.1743    4.1764 C   0  0  0  0  0  0  0  0  0  0  0  0
   -5.1337    1.3789    4.7455 C   0  0  0  0  0  0  0  0  0  0  0  0
   -6.1519    2.0538    4.0902 C   0  0  0  0  0  0  0  0  0  0  0  0
   -5.7997    2.5498    2.8044 C   0  0  0  0  0  0  0  0  0  0  0  0
   -6.6422    3.2566    1.7940 C   0  0  0  0  0  0  0  0  0  0  0  0
   -7.7689    3.9726    2.0339 C   0  0  0  0  0  0  0  0  0  0  0  0
   -8.3818    4.0360    3.3365 C   0  0  0  0  0  0  0  0  0  0  0  0
   -8.8825    4.0992    4.3796 N   0  0  0  0  0  0  0  0  0  0  0  0
   -8.3492    4.8362    1.0381 C   0  0  0  0  0  0  0  0  0  0  0  0
   -8.8161    5.5355    0.2421 N   0  0  0  0  0  0  0  0  0  0  0  0
   -4.7372    0.6072    5.9715 C   0  0  0  0  0  0  0  0  0  0  0  0
   -5.3125   -0.8356    6.0998 C   0  0  0  0  0  0  0  0  0  0  0  0
   -4.4746   -1.5189    7.1534 C   0  0  0  0  0  0  0  0  0  0  0  0
   -3.2665   -1.7187    6.6115 C   0  0  0  0  0  0  0  0  0  0  0  0
   -3.3283   -1.1523    5.2127 C   0  0  0  0  0  0  0  0  0  0  0  0
   -4.7595   -1.5385    4.8699 C   0  0  0  0  0  0  0  0  0  0  0  0
   -3.4082    0.3948    5.3840 C   0  0  0  0  0  0  0  0  0  0  0  0
    8.5449   -4.5842   -1.5220 H   0  0  0  0  0  0  0  0  0  0  0  0
    8.6533   -0.0227    2.7641 H   0  0  0  0  0  0  0  0  0  0  0  0
   10.7359    0.2411    4.0917 H   0  0  0  0  0  0  0  0  0  0  0  0
   12.3033   -3.3964    2.4378 H   0  0  0  0  0  0  0  0  0  0  0  0
   -5.3003    5.6482   -1.9860 H   0  0  0  0  0  0  0  0  0  0  0  0
   -4.4703    5.6885   -3.5720 H   0  0  0  0  0  0  0  0  0  0  0  0
   -6.7289    6.5935   -3.8297 H   0  0  0  0  0  0  0  0  0  0  0  0
   -7.4615    5.1231   -3.0908 H   0  0  0  0  0  0  0  0  0  0  0  0
   -6.6367    5.0172   -4.7003 H   0  0  0  0  0  0  0  0  0  0  0  0
    5.2635   -4.1754   -0.2722 H   0  0  0  0  0  0  0  0  0  0  0  0
    2.8240   -4.7566   -1.3338 H   0  0  0  0  0  0  0  0  0  0  0  0
    1.4050   -3.7919   -1.7769 H   0  0  0  0  0  0  0  0  0  0  0  0
    1.8337   -2.3592    0.3468 H   0  0  0  0  0  0  0  0  0  0  0  0
    1.4793   -4.1021    0.6796 H   0  0  0  0  0  0  0  0  0  0  0  0
    3.1767   -3.4925    0.7596 H   0  0  0  0  0  0  0  0  0  0  0  0
    0.2883   -1.9934   -1.3332 H   0  0  0  0  0  0  0  0  0  0  0  0
   -0.8360   -0.7529   -1.8178 H   0  0  0  0  0  0  0  0  0  0  0  0
    2.0939   -0.2294   -1.1474 H   0  0  0  0  0  0  0  0  0  0  0  0
    0.6412    0.2178   -0.1994 H   0  0  0  0  0  0  0  0  0  0  0  0
    0.9341    1.0000   -1.7927 H   0  0  0  0  0  0  0  0  0  0  0  0
   -1.9937   -2.0413   -3.2144 H   0  0  0  0  0  0  0  0  0  0  0  0
   -3.3584   -1.1817   -2.4120 H   0  0  0  0  0  0  0  0  0  0  0  0
   -4.6089   -1.1761   -4.5828 H   0  0  0  0  0  0  0  0  0  0  0  0
   -3.1780   -1.9382   -5.4051 H   0  0  0  0  0  0  0  0  0  0  0  0
   -4.0986   -2.8508   -4.1398 H   0  0  0  0  0  0  0  0  0  0  0  0
   -7.3595    3.5702   -0.9138 H   0  0  0  0  0  0  0  0  0  0  0  0
   -2.5078    1.4290    2.4815 H   0  0  0  0  0  0  0  0  0  0  0  0
   -7.1362    2.1277    4.5229 H   0  0  0  0  0  0  0  0  0  0  0  0
   -4.7321    1.2157    6.9081 H   0  0  0  0  0  0  0  0  0  0  0  0
   -6.4107   -0.9028    6.2472 H   0  0  0  0  0  0  0  0  0  0  0  0
   -4.8055   -1.8986    8.1115 H   0  0  0  0  0  0  0  0  0  0  0  0
   -2.4501   -2.2760    7.0636 H   0  0  0  0  0  0  0  0  0  0  0  0
   -2.5517   -1.5234    4.5112 H   0  0  0  0  0  0  0  0  0  0  0  0
   -5.1253   -1.1213    3.9069 H   0  0  0  0  0  0  0  0  0  0  0  0
   -4.9374   -2.6425    4.8705 H   0  0  0  0  0  0  0  0  0  0  0  0
   -2.5680    0.8615    5.9473 H   0  0  0  0  0  0  0  0  0  0  0  0
  1  2  2  3
  2  3  1  0
  3  4  2  0
  3  5  1  0
  5  6  2  0
  6  7  1  0
  7  8  2  0
  8  9  1  0
  8 10  1  0
 10 11  2  0
 11 12  1  0
 12 13  2  3
 13 14  1  0
 14 15  3  0
 13 16  1  0
 16 17  3  0
  1 18  1  0
 18 19  1  0
 19 20  1  0
 20 21  1  0
 21 22  1  0
 22 23  1  0
 23 24  1  0
 24 25  1  0
 25 26  1  0
 26 27  2  0
 27 28  1  0
 28 29  1  0
 26 30  1  0
 30 31  1  0
 31 32  1  0
 32 33  1  0
 33 34  1  0
 34 35  1  0
 35 36  1  0
 34 37  2  0
 37 38  1  0
 38 39  1  0
 39 40  1  0
 40 41  1  0
 41 42  1  0
 42 43  1  0
 43 44  1  0
 44 45  1  0
 45 46  1  0
 46 47  1  0
 47 48  1  0
 48 49  1  0
 47 50  1  0
 50 51  1  0
 44 52  1  0
 52 53  1  0
 41 54  1  0
 54 55  1  0
 37 56  1  0
 56 57  2  3
 57 58  1  0
 58 59  2  0
 58 60  1  0
 60 61  2  0
 61 62  1  0
 62 63  2  0
 63 64  1  0
 64 65  2  0
 65 66  1  0
 66 67  2  3
 67 68  1  0
 68 69  3  0
 67 70  1  0
 70 71  3  0
 63 72  1  0
 72 73  1  0
 73 74  1  0
 74 75  2  0
 75 76  1  0
 76 77  1  0
 76 78  1  0
 12  2  1  0
 49 18  2  0
 66 57  1  0
 78 72  1  0
 11  5  1  0
 48 20  2  0
 65 60  1  0
 77 73  1  0
 46 21  2  0
 78 62  1  0
 45 23  2  0
 43 24  2  0
 29 25  2  0
 42 30  2  0
 40 31  2  0
 39 33  2  0
  1 79  1  0
  6 80  1  0
  7 81  1  0
 10 82  1  0
 35 83  1  0
 35 84  1  0
 36 85  1  0
 36 86  1  0
 36 87  1  0
 49 88  1  0
 50 89  1  0
 50 90  1  0
 51 91  1  0
 51 92  1  0
 51 93  1  0
 52 94  1  0
 52 95  1  0
 53 96  1  0
 53 97  1  0
 53 98  1  0
 54 99  1  0
 54100  1  0
 55101  1  0
 55102  1  0
 55103  1  0
 56104  1  0
 61105  1  0
 64106  1  0
 72107  1  0
 73108  1  0
 74109  1  0
 75110  1  0
 76111  1  0
 77112  1  0
 77113  1  0
 78114  1  0
M  END

