
     RDKit          3D

113128  0  0  0  0  0  0  0  0999 V2000
   -7.2576    6.9556    0.1946 C   0  0  0  0  0  0  0  0  0  0  0  0
   -7.8727    6.5487    1.3173 C   0  0  0  0  0  0  0  0  0  0  0  0
   -8.6124    7.4545    2.1994 C   0  0  0  0  0  0  0  0  0  0  0  0
   -8.9158    8.6537    1.9552 O   0  0  0  0  0  0  0  0  0  0  0  0
   -8.8728    6.7538    3.4330 C   0  0  0  0  0  0  0  0  0  0  0  0
   -9.5038    7.2047    4.5914 C   0  0  0  0  0  0  0  0  0  0  0  0
   -9.6281    6.3152    5.6720 C   0  0  0  0  0  0  0  0  0  0  0  0
   -9.1199    5.0021    5.5739 C   0  0  0  0  0  0  0  0  0  0  0  0
   -9.2709    3.9007    6.9298 Cl  0  0  0  0  0  0  0  0  0  0  0  0
   -8.4883    4.5741    4.3962 C   0  0  0  0  0  0  0  0  0  0  0  0
   -8.3718    5.4733    3.3327 C   0  0  0  0  0  0  0  0  0  0  0  0
   -7.7384    5.2360    2.0159 C   0  0  0  0  0  0  0  0  0  0  0  0
   -7.9413    4.0848    1.3625 C   0  0  0  0  0  0  0  0  0  0  0  0
   -9.2597    3.4986    1.3737 C   0  0  0  0  0  0  0  0  0  0  0  0
  -10.3160    3.0135    1.4083 N   0  0  0  0  0  0  0  0  0  0  0  0
   -6.8492    3.1524    1.3307 C   0  0  0  0  0  0  0  0  0  0  0  0
   -5.9705    2.4019    1.3064 N   0  0  0  0  0  0  0  0  0  0  0  0
   -6.1948    6.1949   -0.4708 C   0  0  0  0  0  0  0  0  0  0  0  0
   -6.3969    4.8212   -1.4485 S   0  0  0  0  0  0  0  0  0  0  0  0
   -4.7603    4.6558   -1.7953 C   0  0  0  0  0  0  0  0  0  0  0  0
   -4.0832    3.6227   -2.4651 C   0  0  0  0  0  0  0  0  0  0  0  0
   -4.6992    2.1050   -2.9634 S   0  0  0  0  0  0  0  0  0  0  0  0
   -3.1502    1.5337   -3.3206 C   0  0  0  0  0  0  0  0  0  0  0  0
   -2.5256    0.3332   -3.5064 C   0  0  0  0  0  0  0  0  0  0  0  0
   -3.0185   -0.9587   -3.6972 C   0  0  0  0  0  0  0  0  0  0  0  0
   -2.0982   -2.0474   -3.6858 C   0  0  0  0  0  0  0  0  0  0  0  0
   -2.6181   -3.2899   -3.8367 N   0  0  0  0  0  0  0  0  0  0  0  0
   -4.2241   -2.9059   -3.9976 S   0  0  0  0  0  0  0  0  0  0  0  0
   -4.3284   -1.2577   -3.8691 N   0  0  0  0  0  0  0  0  0  0  0  0
   -0.7443   -1.7856   -3.4228 C   0  0  0  0  0  0  0  0  0  0  0  0
    0.2404   -2.6301   -2.9947 C   0  0  0  0  0  0  0  0  0  0  0  0
    0.3452   -4.2719   -2.6456 S   0  0  0  0  0  0  0  0  0  0  0  0
    1.7588   -4.0424   -1.7351 C   0  0  0  0  0  0  0  0  0  0  0  0
    2.4831   -5.0169   -1.0261 C   0  0  0  0  0  0  0  0  0  0  0  0
    3.5583   -4.6587   -0.2152 C   0  0  0  0  0  0  0  0  0  0  0  0
    3.8902   -3.3103   -0.1115 C   0  0  0  0  0  0  0  0  0  0  0  0
    4.8271   -2.7305    0.6535 N   0  0  0  0  0  0  0  0  0  0  0  0
    4.6996   -1.4300    0.4046 N   0  0  0  0  0  0  0  0  0  0  0  0
    5.4880   -0.4069    1.0795 C   0  0  0  0  0  0  0  0  0  0  0  0
    4.6713    0.2336    2.1969 C   0  0  0  0  0  0  0  0  0  0  0  0
    3.7249   -1.1554   -0.4583 N   0  0  0  0  0  0  0  0  0  0  0  0
    3.1996   -2.3414   -0.8006 C   0  0  0  0  0  0  0  0  0  0  0  0
    2.1173   -2.6687   -1.6523 C   0  0  0  0  0  0  0  0  0  0  0  0
    1.2228   -1.8853   -2.4205 C   0  0  0  0  0  0  0  0  0  0  0  0
    0.9525   -0.5504   -2.5170 N   0  0  0  0  0  0  0  0  0  0  0  0
   -0.2592   -0.4925   -3.1757 C   0  0  0  0  0  0  0  0  0  0  0  0
   -1.1600    0.5996   -3.3319 C   0  0  0  0  0  0  0  0  0  0  0  0
   -0.9319    1.9393   -3.1770 N   0  0  0  0  0  0  0  0  0  0  0  0
   -2.1844    2.4515   -3.0816 C   0  0  0  0  0  0  0  0  0  0  0  0
   -2.6721    3.6481   -2.5578 C   0  0  0  0  0  0  0  0  0  0  0  0
   -1.9854    4.6998   -1.9388 C   0  0  0  0  0  0  0  0  0  0  0  0
   -2.6565    5.6844   -1.2622 C   0  0  0  0  0  0  0  0  0  0  0  0
   -4.0504    5.6872   -1.1716 C   0  0  0  0  0  0  0  0  0  0  0  0
   -4.8508    6.5594   -0.4349 C   0  0  0  0  0  0  0  0  0  0  0  0
   -1.7621    6.4652   -0.6381 N   0  0  0  0  0  0  0  0  0  0  0  0
   -0.5780    5.9419   -0.9594 N   0  0  0  0  0  0  0  0  0  0  0  0
    0.6892    6.4393   -0.4360 C   0  0  0  0  0  0  0  0  0  0  0  0
    1.1913    5.5310    0.6790 C   0  0  0  0  0  0  0  0  0  0  0  0
   -0.6710    4.8592   -1.7295 N   0  0  0  0  0  0  0  0  0  0  0  0
    0.1972    2.6437   -3.8078 C   0  0  0  0  0  0  0  0  0  0  0  0
   -0.2472    3.5425   -4.9650 C   0  0  0  0  0  0  0  0  0  0  0  0
    1.6309    0.5250   -1.7796 C   0  0  0  0  0  0  0  0  0  0  0  0
    2.9591    0.9029   -2.4492 C   0  0  0  0  0  0  0  0  0  0  0  0
    4.1613   -5.7279    0.4412 C   0  0  0  0  0  0  0  0  0  0  0  0
    3.5691   -6.9500    0.1100 C   0  0  0  0  0  0  0  0  0  0  0  0
    2.2604   -6.6849   -0.9360 S   0  0  0  0  0  0  0  0  0  0  0  0
    3.9287   -8.2493    0.6962 C   0  0  0  0  0  0  0  0  0  0  0  0
    5.1981   -8.6880    0.8056 C   0  0  0  0  0  0  0  0  0  0  0  0
    6.3819   -8.0061    0.2710 C   0  0  0  0  0  0  0  0  0  0  0  0
    6.4046   -7.1598   -0.6638 O   0  0  0  0  0  0  0  0  0  0  0  0
    7.5491   -8.5119    0.9545 C   0  0  0  0  0  0  0  0  0  0  0  0
    8.8613   -8.0429    0.8797 C   0  0  0  0  0  0  0  0  0  0  0  0
    9.8200   -8.6078    1.7285 C   0  0  0  0  0  0  0  0  0  0  0  0
    9.4516   -9.6030    2.6491 C   0  0  0  0  0  0  0  0  0  0  0  0
   10.6508  -10.2546    3.7528 Cl  0  0  0  0  0  0  0  0  0  0  0  0
    8.1227  -10.0681    2.7034 C   0  0  0  0  0  0  0  0  0  0  0  0
    7.1748   -9.5258    1.8211 C   0  0  0  0  0  0  0  0  0  0  0  0
    5.7114   -9.7847    1.6858 C   0  0  0  0  0  0  0  0  0  0  0  0
    5.0388  -10.8873    2.1018 C   0  0  0  0  0  0  0  0  0  0  0  0
    3.6746  -11.1559    1.7202 C   0  0  0  0  0  0  0  0  0  0  0  0
    2.5787  -11.3885    1.4215 N   0  0  0  0  0  0  0  0  0  0  0  0
    5.6706  -11.9447    2.8449 C   0  0  0  0  0  0  0  0  0  0  0  0
    6.1685  -12.8013    3.4425 N   0  0  0  0  0  0  0  0  0  0  0  0
   -7.3598    7.9928   -0.1002 H   0  0  0  0  0  0  0  0  0  0  0  0
   -9.8991    8.2052    4.6593 H   0  0  0  0  0  0  0  0  0  0  0  0
  -10.1188    6.6400    6.5789 H   0  0  0  0  0  0  0  0  0  0  0  0
   -8.0960    3.5663    4.3099 H   0  0  0  0  0  0  0  0  0  0  0  0
    6.4112   -0.8586    1.5087 H   0  0  0  0  0  0  0  0  0  0  0  0
    5.7879    0.3756    0.3466 H   0  0  0  0  0  0  0  0  0  0  0  0
    3.7919    0.7683    1.7702 H   0  0  0  0  0  0  0  0  0  0  0  0
    5.2986    0.9614    2.7504 H   0  0  0  0  0  0  0  0  0  0  0  0
    4.3117   -0.5465    2.9068 H   0  0  0  0  0  0  0  0  0  0  0  0
   -4.4678    7.4010    0.1283 H   0  0  0  0  0  0  0  0  0  0  0  0
    0.5546    7.4692   -0.0383 H   0  0  0  0  0  0  0  0  0  0  0  0
    1.4435    6.4764   -1.2548 H   0  0  0  0  0  0  0  0  0  0  0  0
    2.1062    5.9682    1.1374 H   0  0  0  0  0  0  0  0  0  0  0  0
    0.4101    5.4295    1.4676 H   0  0  0  0  0  0  0  0  0  0  0  0
    1.4385    4.5239    0.2732 H   0  0  0  0  0  0  0  0  0  0  0  0
    0.7556    3.2454   -3.0605 H   0  0  0  0  0  0  0  0  0  0  0  0
    0.8836    1.8999   -4.2502 H   0  0  0  0  0  0  0  0  0  0  0  0
   -0.7635    4.4451   -4.5800 H   0  0  0  0  0  0  0  0  0  0  0  0
   -0.9197    2.9861   -5.6488 H   0  0  0  0  0  0  0  0  0  0  0  0
    0.6423    3.8731   -5.5371 H   0  0  0  0  0  0  0  0  0  0  0  0
    1.7834    0.2107   -0.7292 H   0  0  0  0  0  0  0  0  0  0  0  0
    0.9910    1.4137   -1.6790 H   0  0  0  0  0  0  0  0  0  0  0  0
    3.5868    0.0083   -2.6353 H   0  0  0  0  0  0  0  0  0  0  0  0
    3.5109    1.6151   -1.7946 H   0  0  0  0  0  0  0  0  0  0  0  0
    2.8033    1.3944   -3.4280 H   0  0  0  0  0  0  0  0  0  0  0  0
    4.9801   -5.6219    1.1405 H   0  0  0  0  0  0  0  0  0  0  0  0
    3.1142   -8.7867    1.1473 H   0  0  0  0  0  0  0  0  0  0  0  0
    9.1296   -7.2443    0.1940 H   0  0  0  0  0  0  0  0  0  0  0  0
   10.8393   -8.2562    1.6892 H   0  0  0  0  0  0  0  0  0  0  0  0
    7.8567  -10.7953    3.4516 H   0  0  0  0  0  0  0  0  0  0  0  0
  1  2  2  3
  2  3  1  0
  3  4  2  0
  3  5  1  0
  5  6  2  0
  6  7  1  0
  7  8  2  0
  8  9  1  0
  8 10  1  0
 10 11  2  0
 11 12  1  0
 12 13  2  3
 13 14  1  0
 14 15  3  0
 13 16  1  0
 16 17  3  0
  1 18  1  0
 18 19  1  0
 19 20  1  0
 20 21  1  0
 21 22  1  0
 22 23  1  0
 23 24  1  0
 24 25  1  0
 25 26  1  0
 26 27  2  0
 27 28  1  0
 28 29  1  0
 26 30  1  0
 30 31  1  0
 31 32  1  0
 32 33  1  0
 33 34  1  0
 34 35  2  0
 35 36  1  0
 36 37  2  0
 37 38  1  0
 38 39  1  0
 39 40  1  0
 38 41  1  0
 41 42  2  0
 42 43  1  0
 43 44  1  0
 44 45  1  0
 45 46  1  0
 46 47  1  0
 47 48  1  0
 48 49  1  0
 49 50  1  0
 50 51  1  0
 51 52  1  0
 52 53  1  0
 53 54  1  0
 52 55  2  0
 55 56  1  0
 56 57  1  0
 57 58  1  0
 56 59  1  0
 48 60  1  0
 60 61  1  0
 45 62  1  0
 62 63  1  0
 35 64  1  0
 64 65  2  0
 65 66  1  0
 65 67  1  0
 67 68  2  3
 68 69  1  0
 69 70  2  0
 69 71  1  0
 71 72  2  0
 72 73  1  0
 73 74  2  0
 74 75  1  0
 74 76  1  0
 76 77  2  0
 77 78  1  0
 78 79  2  3
 79 80  1  0
 80 81  3  0
 79 82  1  0
 82 83  3  0
 12  2  1  0
 54 18  2  0
 78 68  1  0
 11  5  1  0
 53 20  2  0
 77 71  1  0
 50 21  2  0
 59 51  2  0
 49 23  2  0
 47 24  2  0
 29 25  2  0
 46 30  2  0
 44 31  2  0
 43 33  2  0
 66 34  1  0
 42 36  1  0
  1 84  1  0
  6 85  1  0
  7 86  1  0
 10 87  1  0
 39 88  1  0
 39 89  1  0
 40 90  1  0
 40 91  1  0
 40 92  1  0
 54 93  1  0
 57 94  1  0
 57 95  1  0
 58 96  1  0
 58 97  1  0
 58 98  1  0
 60 99  1  0
 60100  1  0
 61101  1  0
 61102  1  0
 61103  1  0
 62104  1  0
 62105  1  0
 63106  1  0
 63107  1  0
 63108  1  0
 64109  1  0
 67110  1  0
 72111  1  0
 73112  1  0
 76113  1  0
M  END

