
     RDKit          3D

 80 90  0  0  0  0  0  0  0  0999 V2000
   -1.5865   -6.4378    5.3564 C   0  0  0  0  0  0  0  0  0  0  0  0
   -2.4639   -7.1371    4.5987 C   0  0  0  0  0  0  0  0  0  0  0  0
   -3.5570   -6.3810    3.3367 S   0  0  0  0  0  0  0  0  0  0  0  0
   -4.7070   -7.7738    3.3229 C   0  0  0  0  0  0  0  0  0  0  0  0
   -6.2880   -7.7659    2.9979 S   0  0  0  0  0  0  0  0  0  0  0  0
   -3.8683   -8.8721    3.7001 N   0  0  0  0  0  0  0  0  0  0  0  0
   -4.2318  -10.1997    3.2148 C   0  0  0  0  0  0  0  0  0  0  0  0
   -4.9492  -11.0449    4.2124 C   0  0  0  0  0  0  0  0  0  0  0  0
   -2.7165   -8.5459    4.3661 C   0  0  0  0  0  0  0  0  0  0  0  0
   -1.8196   -9.3653    4.8235 O   0  0  0  0  0  0  0  0  0  0  0  0
   -1.6004   -5.0665    5.0580 C   0  0  0  0  0  0  0  0  0  0  0  0
   -2.5659   -3.9433    5.1324 C   0  0  0  0  0  0  0  0  0  0  0  0
   -2.2923   -2.9715    4.6195 C   0  0  0  0  0  0  0  0  0  0  0  0
   -3.0058   -1.1986    5.1932 S   0  0  0  0  0  0  0  0  0  0  0  0
   -1.9429   -0.2464    4.2430 C   0  0  0  0  0  0  0  0  0  0  0  0
   -1.6480    1.0304    3.7557 C   0  0  0  0  0  0  0  0  0  0  0  0
   -2.4539    2.2097    3.8957 C   0  0  0  0  0  0  0  0  0  0  0  0
   -2.2338    3.1757    3.0294 C   0  0  0  0  0  0  0  0  0  0  0  0
   -3.0246    4.2791    3.1558 N   0  0  0  0  0  0  0  0  0  0  0  0
   -3.9939    3.9207    4.4701 S   0  0  0  0  0  0  0  0  0  0  0  0
   -3.3687    2.3530    4.8248 N   0  0  0  0  0  0  0  0  0  0  0  0
   -1.2577    3.0305    2.0567 C   0  0  0  0  0  0  0  0  0  0  0  0
   -0.9752    3.7876    0.8807 C   0  0  0  0  0  0  0  0  0  0  0  0
   -0.0383    3.2017    0.1088 C   0  0  0  0  0  0  0  0  0  0  0  0
    0.2845    2.0153    0.8395 N   0  0  0  0  0  0  0  0  0  0  0  0
    1.4923    1.2857    0.6137 C   0  0  0  0  0  0  0  0  0  0  0  0
    2.5634    1.7011    1.6471 C   0  0  0  0  0  0  0  0  0  0  0  0
   -0.4620    1.9586    1.9282 C   0  0  0  0  0  0  0  0  0  0  0  0
   -0.6724    0.8521    2.8257 C   0  0  0  0  0  0  0  0  0  0  0  0
   -0.3338   -0.4371    2.6850 N   0  0  0  0  0  0  0  0  0  0  0  0
   -1.1463   -1.2034    3.5797 C   0  0  0  0  0  0  0  0  0  0  0  0
   -1.5068   -2.2411    3.9055 C   0  0  0  0  0  0  0  0  0  0  0  0
   -0.2496   -4.1675    3.9813 Se  0  0  0  0  0  2  0  0  0  0  0  0
    0.5469   -1.1876    1.8479 C   0  0  0  0  0  0  0  0  0  0  0  0
    1.8919   -1.4065    2.4552 C   0  0  0  0  0  0  0  0  0  0  0  0
    0.1206    3.7140   -1.0324 C   0  0  0  0  0  0  0  0  0  0  0  0
   -0.6793    4.9322   -1.5946 C   0  0  0  0  0  0  0  0  0  0  0  0
   -1.4880    4.9913   -0.0841 S   0  0  0  0  0  0  0  0  0  0  0  0
   -0.0377    4.8552   -2.7317 C   0  0  0  0  0  0  0  0  0  0  0  0
    0.5074    4.8258   -3.7615 C   0  0  0  0  0  0  0  0  0  0  0  0
    1.3762    3.2048   -2.5958 Se  0  0  0  0  0  2  0  0  0  0  0  0
    1.1134    4.8859   -5.0268 C   0  0  0  0  0  0  0  0  0  0  0  0
    1.6915    5.9180   -5.5446 C   0  0  0  0  0  0  0  0  0  0  0  0
    1.8423    7.2386   -4.8646 C   0  0  0  0  0  0  0  0  0  0  0  0
    1.4322    7.4901   -3.7353 O   0  0  0  0  0  0  0  0  0  0  0  0
    2.5484    8.1145   -5.8233 C   0  0  0  0  0  0  0  0  0  0  0  0
    2.9490    9.4025   -5.7639 C   0  0  0  0  0  0  0  0  0  0  0  0
    3.6087   10.0815   -6.7423 C   0  0  0  0  0  0  0  0  0  0  0  0
    3.9076    9.4322   -7.9410 C   0  0  0  0  0  0  0  0  0  0  0  0
    4.7536   10.2012   -9.2456 Cl  0  0  0  0  0  0  0  0  0  0  0  0
    3.4852    8.0934   -8.0230 C   0  0  0  0  0  0  0  0  0  0  0  0
    2.8285    7.4388   -7.0223 C   0  0  0  0  0  0  0  0  0  0  0  0
    2.3049    6.0647   -6.8896 C   0  0  0  0  0  0  0  0  0  0  0  0
    2.1747    5.2213   -7.8161 C   0  0  0  0  0  0  0  0  0  0  0  0
    1.4415    3.9629   -7.7960 C   0  0  0  0  0  0  0  0  0  0  0  0
    0.8599    2.9979   -7.7848 N   0  0  0  0  0  0  0  0  0  0  0  0
    2.7578    5.4152   -9.1673 C   0  0  0  0  0  0  0  0  0  0  0  0
    3.1759    5.5477  -10.1586 N   0  0  0  0  0  0  0  0  0  0  0  0
   -1.0135   -6.9868    6.0742 H   0  0  0  0  0  0  0  0  0  0  0  0
   -3.2625  -10.6942    2.8925 H   0  0  0  0  0  0  0  0  0  0  0  0
   -4.8740  -10.1443    2.3064 H   0  0  0  0  0  0  0  0  0  0  0  0
   -4.9890  -10.5690    5.2153 H   0  0  0  0  0  0  0  0  0  0  0  0
   -6.0352  -11.2171    3.9054 H   0  0  0  0  0  0  0  0  0  0  0  0
   -4.4441  -12.0558    4.3347 H   0  0  0  0  0  0  0  0  0  0  0  0
   -3.4505   -4.4146    5.7547 H   0  0  0  0  0  0  0  0  0  0  0  0
    1.5753    0.3619    0.1698 H   0  0  0  0  0  0  0  0  0  0  0  0
    1.9985    1.9242   -0.3016 H   0  0  0  0  0  0  0  0  0  0  0  0
    2.3044    1.4244    2.6681 H   0  0  0  0  0  0  0  0  0  0  0  0
    2.6944    2.7955    1.5512 H   0  0  0  0  0  0  0  0  0  0  0  0
    3.5258    1.2398    1.4097 H   0  0  0  0  0  0  0  0  0  0  0  0
    0.4364   -1.0587    0.7795 H   0  0  0  0  0  0  0  0  0  0  0  0
    0.1514   -2.3108    1.8327 H   0  0  0  0  0  0  0  0  0  0  0  0
    2.0647   -2.4597    2.8053 H   0  0  0  0  0  0  0  0  0  0  0  0
    2.7141   -1.2389    1.7256 H   0  0  0  0  0  0  0  0  0  0  0  0
    2.0641   -0.8358    3.4073 H   0  0  0  0  0  0  0  0  0  0  0  0
   -0.8703    5.9956   -3.2468 H   0  0  0  0  0  0  0  0  0  0  0  0
    1.1513    3.9436   -5.5778 H   0  0  0  0  0  0  0  0  0  0  0  0
    2.7082    9.9475   -4.7842 H   0  0  0  0  0  0  0  0  0  0  0  0
    3.8714   11.0837   -6.5944 H   0  0  0  0  0  0  0  0  0  0  0  0
    3.7582    7.6343   -8.9680 H   0  0  0  0  0  0  0  0  0  0  0  0
  1  2  2  3
  2  3  1  0
  3  4  1  0
  4  5  2  0
  4  6  1  0
  6  7  1  0
  7  8  1  0
  6  9  1  0
  9 10  2  0
  1 11  1  0
 11 12  2  0
 12 13  1  0
 13 14  1  0
 14 15  1  0
 15 16  1  0
 16 17  1  0
 17 18  1  0
 18 19  2  0
 19 20  1  0
 20 21  1  0
 18 22  1  0
 22 23  1  0
 23 24  2  0
 24 25  1  0
 25 26  1  0
 26 27  1  0
 25 28  1  0
 28 29  1  0
 29 30  1  0
 30 31  1  0
 31 32  1  0
 32 33  1  0
 30 34  1  0
 34 35  1  0
 24 36  1  0
 36 37  2  0
 37 38  1  0
 37 39  1  0
 39 40  2  0
 40 41  1  0
 40 42  1  0
 42 43  2  3
 43 44  1  0
 44 45  2  0
 44 46  1  0
 46 47  2  0
 47 48  1  0
 48 49  2  0
 49 50  1  0
 49 51  1  0
 51 52  2  0
 52 53  1  0
 53 54  2  3
 54 55  1  0
 55 56  3  0
 54 57  1  0
 57 58  3  0
  9  2  1  0
 33 11  1  0
 41 36  1  0
 53 43  1  0
 32 13  2  0
 52 46  1  0
 31 15  2  0
 29 16  2  0
 21 17  2  0
 28 22  2  0
 38 23  1  0
  1 59  1  0
  7 60  1  0
  7 61  1  0
  8 62  1  0
  8 63  1  0
  8 64  1  0
 12 65  1  0
 26 66  1  0
 26 67  1  0
 27 68  1  0
 27 69  1  0
 27 70  1  0
 34 71  1  0
 34 72  1  0
 35 73  1  0
 35 74  1  0
 35 75  1  0
 39 76  1  0
 42 77  1  0
 47 78  1  0
 48 79  1  0
 51 80  1  0
M  END

