
     RDKit          3D

 92102  0  0  0  0  0  0  0  0999 V2000
   -8.3027    0.4458   -2.2767 C   0  0  0  0  0  0  0  0  0  0  0  0
   -8.1728    1.6493   -2.8527 C   0  0  0  0  0  0  0  0  0  0  0  0
   -9.4073    2.2850   -3.9946 S   0  0  0  0  0  0  0  0  0  0  0  0
   -8.2177    3.5559   -4.4706 C   0  0  0  0  0  0  0  0  0  0  0  0
   -8.1853    4.1099   -6.0118 S   0  0  0  0  0  0  0  0  0  0  0  0
   -7.0764    3.6620   -3.6055 N   0  0  0  0  0  0  0  0  0  0  0  0
   -6.0056    4.6545   -3.7273 C   0  0  0  0  0  0  0  0  0  0  0  0
   -4.8128    4.0753   -4.4810 C   0  0  0  0  0  0  0  0  0  0  0  0
   -7.0645    2.5906   -2.6769 C   0  0  0  0  0  0  0  0  0  0  0  0
   -6.1997    2.5003   -1.7621 O   0  0  0  0  0  0  0  0  0  0  0  0
   -7.2422   -0.2118   -1.4882 C   0  0  0  0  0  0  0  0  0  0  0  0
   -7.4006   -0.7468   -0.1959 C   0  0  0  0  0  0  0  0  0  0  0  0
   -8.6723   -0.7145    0.6061 C   0  0  0  0  0  0  0  0  0  0  0  0
   -9.5167   -1.9564    0.3328 C   0  0  0  0  0  0  0  0  0  0  0  0
   -6.2113   -1.3211    0.2555 C   0  0  0  0  0  0  0  0  0  0  0  0
   -5.7011   -1.9081    1.7705 S   0  0  0  0  0  0  0  0  0  0  0  0
   -4.1199   -2.1257    1.1873 C   0  0  0  0  0  0  0  0  0  0  0  0
   -2.8709   -2.1427    1.7464 C   0  0  0  0  0  0  0  0  0  0  0  0
   -2.4784   -2.0818    3.0948 C   0  0  0  0  0  0  0  0  0  0  0  0
   -1.1239   -1.7512    3.4048 C   0  0  0  0  0  0  0  0  0  0  0  0
   -0.7826   -1.7040    4.7169 N   0  0  0  0  0  0  0  0  0  0  0  0
   -2.2547   -2.0511    5.3943 S   0  0  0  0  0  0  0  0  0  0  0  0
   -3.3159   -2.2873    4.1432 N   0  0  0  0  0  0  0  0  0  0  0  0
   -0.2294   -1.5430    2.3493 C   0  0  0  0  0  0  0  0  0  0  0  0
    1.1151   -1.3104    2.3246 C   0  0  0  0  0  0  0  0  0  0  0  0
    2.3932   -0.9827    3.3895 S   0  0  0  0  0  0  0  0  0  0  0  0
    3.4979   -0.9446    2.0867 C   0  0  0  0  0  0  0  0  0  0  0  0
    4.8304   -0.5306    1.9833 C   0  0  0  0  0  0  0  0  0  0  0  0
    5.5602    0.1237    3.1253 C   0  0  0  0  0  0  0  0  0  0  0  0
    5.4513    1.6399    3.0359 C   0  0  0  0  0  0  0  0  0  0  0  0
    5.2492   -0.5234    0.6296 C   0  0  0  0  0  0  0  0  0  0  0  0
    3.9413   -0.9509   -0.3723 S   0  0  0  0  0  0  0  0  0  0  0  0
    2.8749   -1.2013    0.8909 C   0  0  0  0  0  0  0  0  0  0  0  0
    1.5063   -1.3796    1.0306 C   0  0  0  0  0  0  0  0  0  0  0  0
    0.4801   -1.6080    0.1711 N   0  0  0  0  0  0  0  0  0  0  0  0
   -0.6152   -1.6429    1.0036 C   0  0  0  0  0  0  0  0  0  0  0  0
   -1.9851   -1.8372    0.6981 C   0  0  0  0  0  0  0  0  0  0  0  0
   -2.6744   -1.4919   -0.4390 N   0  0  0  0  0  0  0  0  0  0  0  0
   -3.9713   -1.7261   -0.1041 C   0  0  0  0  0  0  0  0  0  0  0  0
   -5.1664   -1.2468   -0.6279 C   0  0  0  0  0  0  0  0  0  0  0  0
   -5.6437   -0.4610   -2.0293 S   0  0  0  0  0  0  0  0  0  0  0  0
   -2.2703   -0.4702   -1.4103 C   0  0  0  0  0  0  0  0  0  0  0  0
   -2.4443    0.9336   -0.8333 C   0  0  0  0  0  0  0  0  0  0  0  0
    0.6197   -2.2838   -1.1261 C   0  0  0  0  0  0  0  0  0  0  0  0
    1.1890   -1.3557   -2.2076 C   0  0  0  0  0  0  0  0  0  0  0  0
    6.4481    0.1309    0.0810 C   0  0  0  0  0  0  0  0  0  0  0  0
    7.7042   -0.0752    0.5135 C   0  0  0  0  0  0  0  0  0  0  0  0
    8.1764   -1.2525    1.2491 C   0  0  0  0  0  0  0  0  0  0  0  0
    7.4634   -2.1793    1.7148 O   0  0  0  0  0  0  0  0  0  0  0  0
    9.6225   -1.2410    1.2371 C   0  0  0  0  0  0  0  0  0  0  0  0
   10.4931   -2.1804    1.7938 C   0  0  0  0  0  0  0  0  0  0  0  0
   11.8701   -2.0017    1.6154 C   0  0  0  0  0  0  0  0  0  0  0  0
   12.7395   -2.8874    2.1515 F   0  0  0  0  0  0  0  0  0  0  0  0
   12.3476   -0.9049    0.8743 C   0  0  0  0  0  0  0  0  0  0  0  0
   13.6822   -0.7439    0.6904 F   0  0  0  0  0  0  0  0  0  0  0  0
   11.4531    0.0262    0.3146 C   0  0  0  0  0  0  0  0  0  0  0  0
   10.0766   -0.1395    0.5262 C   0  0  0  0  0  0  0  0  0  0  0  0
    8.9150    0.6928    0.0964 C   0  0  0  0  0  0  0  0  0  0  0  0
    8.9414    1.9837   -0.3335 C   0  0  0  0  0  0  0  0  0  0  0  0
    7.7538    2.8034   -0.3408 C   0  0  0  0  0  0  0  0  0  0  0  0
    6.7945    3.4522   -0.3231 N   0  0  0  0  0  0  0  0  0  0  0  0
   10.1589    2.6876   -0.6243 C   0  0  0  0  0  0  0  0  0  0  0  0
   11.1290    3.2753   -0.8585 N   0  0  0  0  0  0  0  0  0  0  0  0
   -9.2216   -0.1042   -2.4215 H   0  0  0  0  0  0  0  0  0  0  0  0
   -5.6804    4.9749   -2.7151 H   0  0  0  0  0  0  0  0  0  0  0  0
   -6.3772    5.5556   -4.2578 H   0  0  0  0  0  0  0  0  0  0  0  0
   -4.0061    4.8364   -4.5342 H   0  0  0  0  0  0  0  0  0  0  0  0
   -5.1120    3.7862   -5.5116 H   0  0  0  0  0  0  0  0  0  0  0  0
   -4.4257    3.1816   -3.9489 H   0  0  0  0  0  0  0  0  0  0  0  0
   -9.2534    0.1981    0.3537 H   0  0  0  0  0  0  0  0  0  0  0  0
   -8.4299   -0.6738    1.6912 H   0  0  0  0  0  0  0  0  0  0  0  0
   -8.9602   -2.8773    0.6138 H   0  0  0  0  0  0  0  0  0  0  0  0
  -10.4515   -1.9092    0.9327 H   0  0  0  0  0  0  0  0  0  0  0  0
   -9.7897   -2.0110   -0.7432 H   0  0  0  0  0  0  0  0  0  0  0  0
    6.6266   -0.1625    3.1439 H   0  0  0  0  0  0  0  0  0  0  0  0
    5.1307   -0.2130    4.0870 H   0  0  0  0  0  0  0  0  0  0  0  0
    5.9932    2.0108    2.1485 H   0  0  0  0  0  0  0  0  0  0  0  0
    5.9046    2.1001    3.9402 H   0  0  0  0  0  0  0  0  0  0  0  0
    4.3900    1.9495    2.9698 H   0  0  0  0  0  0  0  0  0  0  0  0
   -1.2205   -0.5861   -1.6960 H   0  0  0  0  0  0  0  0  0  0  0  0
   -2.8601   -0.5740   -2.3413 H   0  0  0  0  0  0  0  0  0  0  0  0
   -2.1175    1.6864   -1.5818 H   0  0  0  0  0  0  0  0  0  0  0  0
   -1.8324    1.0452    0.0860 H   0  0  0  0  0  0  0  0  0  0  0  0
   -3.5128    1.1209   -0.5892 H   0  0  0  0  0  0  0  0  0  0  0  0
   -0.3552   -2.6949   -1.4547 H   0  0  0  0  0  0  0  0  0  0  0  0
    1.2920   -3.1607   -1.0039 H   0  0  0  0  0  0  0  0  0  0  0  0
    1.2715   -0.3083   -1.8514 H   0  0  0  0  0  0  0  0  0  0  0  0
    2.1923   -1.6996   -2.5167 H   0  0  0  0  0  0  0  0  0  0  0  0
    0.5435   -1.3695   -3.1081 H   0  0  0  0  0  0  0  0  0  0  0  0
    6.2724    0.8173   -0.7324 H   0  0  0  0  0  0  0  0  0  0  0  0
   10.1168   -3.0271    2.3513 H   0  0  0  0  0  0  0  0  0  0  0  0
   11.8554    0.8397   -0.2683 H   0  0  0  0  0  0  0  0  0  0  0  0
  1  2  2  3
  2  3  1  0
  3  4  1  0
  4  5  2  0
  4  6  1  0
  6  7  1  0
  7  8  1  0
  6  9  1  0
  9 10  2  0
  1 11  1  0
 11 12  2  0
 12 13  1  0
 13 14  1  0
 12 15  1  0
 15 16  1  0
 16 17  1  0
 17 18  1  0
 18 19  1  0
 19 20  1  0
 20 21  2  0
 21 22  1  0
 22 23  1  0
 20 24  1  0
 24 25  1  0
 25 26  1  0
 26 27  1  0
 27 28  1  0
 28 29  1  0
 29 30  1  0
 28 31  2  0
 31 32  1  0
 32 33  1  0
 33 34  1  0
 34 35  1  0
 35 36  1  0
 36 37  1  0
 37 38  1  0
 38 39  1  0
 39 40  1  0
 40 41  1  0
 38 42  1  0
 42 43  1  0
 35 44  1  0
 44 45  1  0
 31 46  1  0
 46 47  2  3
 47 48  1  0
 48 49  2  0
 48 50  1  0
 50 51  2  0
 51 52  1  0
 52 53  1  0
 52 54  2  0
 54 55  1  0
 54 56  1  0
 56 57  2  0
 57 58  1  0
 58 59  2  3
 59 60  1  0
 60 61  3  0
 59 62  1  0
 62 63  3  0
  9  2  1  0
 41 11  1  0
 58 47  1  0
 40 15  2  0
 57 50  1  0
 39 17  2  0
 37 18  2  0
 23 19  2  0
 36 24  2  0
 34 25  2  0
 33 27  2  0
  1 64  1  0
  7 65  1  0
  7 66  1  0
  8 67  1  0
  8 68  1  0
  8 69  1  0
 13 70  1  0
 13 71  1  0
 14 72  1  0
 14 73  1  0
 14 74  1  0
 29 75  1  0
 29 76  1  0
 30 77  1  0
 30 78  1  0
 30 79  1  0
 42 80  1  0
 42 81  1  0
 43 82  1  0
 43 83  1  0
 43 84  1  0
 44 85  1  0
 44 86  1  0
 45 87  1  0
 45 88  1  0
 45 89  1  0
 46 90  1  0
 51 91  1  0
 56 92  1  0
M  END

