
     RDKit          3D

 94102  0  0  0  0  0  0  0  0999 V2000
    4.6563    4.0758    0.8252 C   0  0  0  0  0  0  0  0  0  0  0  0
    5.6491    4.1595    1.7250 C   0  0  0  0  0  0  0  0  0  0  0  0
    7.3460    4.4473    1.2061 S   0  0  0  0  0  0  0  0  0  0  0  0
    7.8630    4.2139    2.9127 C   0  0  0  0  0  0  0  0  0  0  0  0
    9.4075    3.7901    3.2582 S   0  0  0  0  0  0  0  0  0  0  0  0
    6.7969    4.0584    3.8534 N   0  0  0  0  0  0  0  0  0  0  0  0
    6.9581    3.8386    5.2960 C   0  0  0  0  0  0  0  0  0  0  0  0
    7.0021    2.3463    5.6121 C   0  0  0  0  0  0  0  0  0  0  0  0
    5.5425    4.0164    3.1835 C   0  0  0  0  0  0  0  0  0  0  0  0
    4.4548    3.8632    3.8071 O   0  0  0  0  0  0  0  0  0  0  0  0
    3.2215    3.7902    1.1779 C   0  0  0  0  0  0  0  0  0  0  0  0
    2.3079    4.0410    0.0049 C   0  0  0  0  0  0  0  0  0  0  0  0
    1.4604    3.0579   -0.2181 C   0  0  0  0  0  0  0  0  0  0  0  0
    0.1495    2.9278   -1.4111 S   0  0  0  0  0  0  0  0  0  0  0  0
   -0.4949    1.5128   -0.4075 C   0  0  0  0  0  0  0  0  0  0  0  0
   -1.0114    0.3451   -1.2312 C   0  0  0  0  0  0  0  0  0  0  0  0
   -1.7612    0.6203   -2.4701 C   0  0  0  0  0  0  0  0  0  0  0  0
   -2.9401    1.3475   -2.5595 C   0  0  0  0  0  0  0  0  0  0  0  0
   -3.4595    1.4036   -3.8628 C   0  0  0  0  0  0  0  0  0  0  0  0
   -4.7305    2.1408   -4.1918 C   0  0  0  0  0  0  0  0  0  0  0  0
   -4.4376    3.5868   -4.5803 C   0  0  0  0  0  0  0  0  0  0  0  0
   -2.6483    0.7583   -4.8034 C   0  0  0  0  0  0  0  0  0  0  0  0
   -2.9479    0.5418   -6.2557 C   0  0  0  0  0  0  0  0  0  0  0  0
   -3.7569   -0.7370   -6.4510 C   0  0  0  0  0  0  0  0  0  0  0  0
   -1.3253    0.0897   -4.0064 S   0  0  0  0  0  0  0  0  0  0  0  0
   -0.9402   -0.9040   -0.7004 C   0  0  0  0  0  0  0  0  0  0  0  0
   -0.1833   -1.1971    0.4598 C   0  0  0  0  0  0  0  0  0  0  0  0
    0.5758   -0.2930    1.1034 C   0  0  0  0  0  0  0  0  0  0  0  0
    1.3731   -0.6588    2.2837 C   0  0  0  0  0  0  0  0  0  0  0  0
    2.4414   -1.5437    2.2937 C   0  0  0  0  0  0  0  0  0  0  0  0
    3.0365   -1.6819    3.5579 C   0  0  0  0  0  0  0  0  0  0  0  0
    4.1967   -2.6130    3.7937 C   0  0  0  0  0  0  0  0  0  0  0  0
    3.7640   -4.0696    3.6418 C   0  0  0  0  0  0  0  0  0  0  0  0
    2.4282   -0.8848    4.5372 C   0  0  0  0  0  0  0  0  0  0  0  0
    1.1558   -0.0403    3.8292 S   0  0  0  0  0  0  0  0  0  0  0  0
    2.7702   -0.8001    5.9959 C   0  0  0  0  0  0  0  0  0  0  0  0
    2.1706   -1.9720    6.7635 C   0  0  0  0  0  0  0  0  0  0  0  0
    0.6044    1.0718    0.5355 C   0  0  0  0  0  0  0  0  0  0  0  0
    1.5880    1.9530    0.6428 C   0  0  0  0  0  0  0  0  0  0  0  0
    3.0314    2.0164    1.6755 S   0  0  0  0  0  0  0  0  0  0  0  0
   -0.3802   -2.8392    0.8926 S   0  0  0  0  0  0  0  0  0  0  0  0
   -1.4174   -3.1736   -0.3798 C   0  0  0  0  0  0  0  0  0  0  0  0
   -2.1691   -4.2930   -0.7267 C   0  0  0  0  0  0  0  0  0  0  0  0
   -3.0137   -4.0194   -1.8101 C   0  0  0  0  0  0  0  0  0  0  0  0
   -2.7903   -2.3974   -2.2850 S   0  0  0  0  0  0  0  0  0  0  0  0
   -1.6172   -2.0572   -1.1348 C   0  0  0  0  0  0  0  0  0  0  0  0
   -3.9418   -5.0183   -2.3851 C   0  0  0  0  0  0  0  0  0  0  0  0
   -4.8925   -4.7940   -3.3106 C   0  0  0  0  0  0  0  0  0  0  0  0
   -5.2957   -3.2057   -4.0635 S   0  0  0  0  0  0  0  0  0  0  0  0
   -6.5578   -4.0283   -5.0375 C   0  0  0  0  0  0  0  0  0  0  0  0
   -7.2034   -3.2894   -6.3470 S   0  0  0  0  0  0  0  0  0  0  0  0
   -6.6910   -5.4311   -4.8025 N   0  0  0  0  0  0  0  0  0  0  0  0
   -7.7656   -6.2761   -5.3315 C   0  0  0  0  0  0  0  0  0  0  0  0
   -9.0272   -6.1127   -4.4897 C   0  0  0  0  0  0  0  0  0  0  0  0
   -5.7720   -5.8539   -3.8030 C   0  0  0  0  0  0  0  0  0  0  0  0
   -5.7292   -7.0439   -3.3840 O   0  0  0  0  0  0  0  0  0  0  0  0
    4.9072    4.2168   -0.2217 H   0  0  0  0  0  0  0  0  0  0  0  0
    7.8899    4.3231    5.6610 H   0  0  0  0  0  0  0  0  0  0  0  0
    6.1101    4.3034    5.8428 H   0  0  0  0  0  0  0  0  0  0  0  0
    7.9136    1.8905    5.1767 H   0  0  0  0  0  0  0  0  0  0  0  0
    6.1058    1.8363    5.1998 H   0  0  0  0  0  0  0  0  0  0  0  0
    7.0233    2.1955    6.7120 H   0  0  0  0  0  0  0  0  0  0  0  0
    2.8879    4.4568    2.0011 H   0  0  0  0  0  0  0  0  0  0  0  0
    2.2893    4.9690   -0.5532 H   0  0  0  0  0  0  0  0  0  0  0  0
   -1.3367    1.8937    0.2085 H   0  0  0  0  0  0  0  0  0  0  0  0
   -3.4205    1.8059   -1.7039 H   0  0  0  0  0  0  0  0  0  0  0  0
   -5.2719    1.6333   -5.0176 H   0  0  0  0  0  0  0  0  0  0  0  0
   -5.4043    2.1338   -3.3093 H   0  0  0  0  0  0  0  0  0  0  0  0
   -5.3920    4.1086   -4.8016 H   0  0  0  0  0  0  0  0  0  0  0  0
   -3.7903    3.6232   -5.4803 H   0  0  0  0  0  0  0  0  0  0  0  0
   -3.9292    4.1115   -3.7443 H   0  0  0  0  0  0  0  0  0  0  0  0
   -1.9923    0.4581   -6.8158 H   0  0  0  0  0  0  0  0  0  0  0  0
   -3.5095    1.4071   -6.6658 H   0  0  0  0  0  0  0  0  0  0  0  0
   -4.7154   -0.6760   -5.8938 H   0  0  0  0  0  0  0  0  0  0  0  0
   -3.9811   -0.8736   -7.5300 H   0  0  0  0  0  0  0  0  0  0  0  0
   -3.1813   -1.6165   -6.0904 H   0  0  0  0  0  0  0  0  0  0  0  0
    2.7825   -2.0681    1.4094 H   0  0  0  0  0  0  0  0  0  0  0  0
    5.0028   -2.3913    3.0595 H   0  0  0  0  0  0  0  0  0  0  0  0
    4.6290   -2.4769    4.8063 H   0  0  0  0  0  0  0  0  0  0  0  0
    2.9127   -4.2998    4.3216 H   0  0  0  0  0  0  0  0  0  0  0  0
    4.6149   -4.7369    3.8936 H   0  0  0  0  0  0  0  0  0  0  0  0
    3.4577   -4.2703    2.5914 H   0  0  0  0  0  0  0  0  0  0  0  0
    3.8702   -0.7735    6.1320 H   0  0  0  0  0  0  0  0  0  0  0  0
    2.3643    0.1470    6.4095 H   0  0  0  0  0  0  0  0  0  0  0  0
    2.4146   -1.8738    7.8411 H   0  0  0  0  0  0  0  0  0  0  0  0
    1.0673   -1.9807    6.6514 H   0  0  0  0  0  0  0  0  0  0  0  0
    2.5838   -2.9329    6.3966 H   0  0  0  0  0  0  0  0  0  0  0  0
   -2.1364   -5.2380   -0.2010 H   0  0  0  0  0  0  0  0  0  0  0  0
   -3.8422   -6.0252   -1.9971 H   0  0  0  0  0  0  0  0  0  0  0  0
   -7.4508   -7.3427   -5.3206 H   0  0  0  0  0  0  0  0  0  0  0  0
   -7.9821   -6.0099   -6.3890 H   0  0  0  0  0  0  0  0  0  0  0  0
   -8.8156   -6.3855   -3.4342 H   0  0  0  0  0  0  0  0  0  0  0  0
   -9.8272   -6.7756   -4.8802 H   0  0  0  0  0  0  0  0  0  0  0  0
   -9.3806   -5.0612   -4.5317 H   0  0  0  0  0  0  0  0  0  0  0  0
  1  2  2  3
  2  3  1  0
  3  4  1  0
  4  5  2  0
  4  6  1  0
  6  7  1  0
  7  8  1  0
  6  9  1  0
  9 10  2  0
  1 11  1  0
 11 12  1  0
 12 13  2  0
 13 14  1  0
 14 15  1  0
 15 16  1  0
 16 17  1  0
 17 18  2  0
 18 19  1  0
 19 20  1  0
 20 21  1  0
 19 22  2  0
 22 23  1  0
 23 24  1  0
 22 25  1  0
 16 26  2  0
 26 27  1  0
 27 28  2  0
 28 29  1  0
 29 30  2  0
 30 31  1  0
 31 32  1  0
 32 33  1  0
 31 34  2  0
 34 35  1  0
 34 36  1  0
 36 37  1  0
 28 38  1  0
 38 39  2  0
 39 40  1  0
 27 41  1  0
 41 42  1  0
 42 43  1  0
 43 44  2  0
 44 45  1  0
 45 46  1  0
 44 47  1  0
 47 48  2  3
 48 49  1  0
 49 50  1  0
 50 51  2  0
 50 52  1  0
 52 53  1  0
 53 54  1  0
 52 55  1  0
 55 56  2  0
  9  2  1  0
 40 11  1  0
 46 42  2  0
 55 48  1  0
 39 13  1  0
 38 15  1  0
 25 17  1  0
 46 26  1  0
 35 29  1  0
  1 57  1  0
  7 58  1  0
  7 59  1  0
  8 60  1  0
  8 61  1  0
  8 62  1  0
 11 63  1  0
 12 64  1  0
 15 65  1  0
 18 66  1  0
 20 67  1  0
 20 68  1  0
 21 69  1  0
 21 70  1  0
 21 71  1  0
 23 72  1  0
 23 73  1  0
 24 74  1  0
 24 75  1  0
 24 76  1  0
 30 77  1  0
 32 78  1  0
 32 79  1  0
 33 80  1  0
 33 81  1  0
 33 82  1  0
 36 83  1  0
 36 84  1  0
 37 85  1  0
 37 86  1  0
 37 87  1  0
 43 88  1  0
 47 89  1  0
 53 90  1  0
 53 91  1  0
 54 92  1  0
 54 93  1  0
 54 94  1  0
M  END

