
     RDKit          3D

105119  0  0  0  0  0  0  0  0999 V2000
  -10.0154   -2.2576   -2.0491 C   0  0  0  0  0  0  0  0  0  0  0  0
  -10.8548   -1.6693   -2.9221 C   0  0  0  0  0  0  0  0  0  0  0  0
  -12.4731   -2.3778   -3.2783 S   0  0  0  0  0  0  0  0  0  0  0  0
  -12.4629   -1.4336   -4.8199 C   0  0  0  0  0  0  0  0  0  0  0  0
  -13.1598   -2.0748   -6.1827 S   0  0  0  0  0  0  0  0  0  0  0  0
  -11.4386   -0.4444   -4.9146 N   0  0  0  0  0  0  0  0  0  0  0  0
  -11.2620    0.4986   -6.0185 C   0  0  0  0  0  0  0  0  0  0  0  0
  -12.1572    1.7170   -5.8264 C   0  0  0  0  0  0  0  0  0  0  0  0
  -10.5690   -0.5287   -3.7902 C   0  0  0  0  0  0  0  0  0  0  0  0
   -9.7015    0.3427   -3.5425 O   0  0  0  0  0  0  0  0  0  0  0  0
   -8.5669   -2.0006   -1.9345 C   0  0  0  0  0  0  0  0  0  0  0  0
   -7.6540   -2.3204   -0.5362 S   0  0  0  0  0  0  0  0  0  0  0  0
   -6.1707   -1.9761   -1.2428 C   0  0  0  0  0  0  0  0  0  0  0  0
   -4.8789   -1.9784   -0.6797 C   0  0  0  0  0  0  0  0  0  0  0  0
   -4.4532   -2.3917    0.9156 S   0  0  0  0  0  0  0  0  0  0  0  0
   -2.8290   -2.0692    0.5968 C   0  0  0  0  0  0  0  0  0  0  0  0
   -1.7099   -1.8840    1.3468 C   0  0  0  0  0  0  0  0  0  0  0  0
   -1.5653   -1.9977    2.7278 C   0  0  0  0  0  0  0  0  0  0  0  0
   -0.3703   -1.5300    3.3224 C   0  0  0  0  0  0  0  0  0  0  0  0
   -0.2583   -1.6729    4.6702 N   0  0  0  0  0  0  0  0  0  0  0  0
   -1.7242   -2.3624    5.0037 S   0  0  0  0  0  0  0  0  0  0  0  0
   -2.5062   -2.5262    3.5525 N   0  0  0  0  0  0  0  0  0  0  0  0
    0.6235   -0.9978    2.4989 C   0  0  0  0  0  0  0  0  0  0  0  0
    1.8969   -0.6577    2.8228 C   0  0  0  0  0  0  0  0  0  0  0  0
    2.8259   -0.6583    4.2213 S   0  0  0  0  0  0  0  0  0  0  0  0
    4.2361   -0.3199    3.3325 C   0  0  0  0  0  0  0  0  0  0  0  0
    5.5392   -0.1843    3.8406 C   0  0  0  0  0  0  0  0  0  0  0  0
    6.6103    0.0613    2.9802 C   0  0  0  0  0  0  0  0  0  0  0  0
    6.3681    0.1245    1.6140 C   0  0  0  0  0  0  0  0  0  0  0  0
    7.2620    0.1924    0.6183 N   0  0  0  0  0  0  0  0  0  0  0  0
    6.5384    0.0697   -0.4859 N   0  0  0  0  0  0  0  0  0  0  0  0
    7.1158   -0.0101   -1.8223 C   0  0  0  0  0  0  0  0  0  0  0  0
    7.4867   -1.4619   -2.1390 C   0  0  0  0  0  0  0  0  0  0  0  0
    5.2414   -0.1174   -0.2375 N   0  0  0  0  0  0  0  0  0  0  0  0
    5.1071   -0.0563    1.0910 C   0  0  0  0  0  0  0  0  0  0  0  0
    3.9780   -0.2495    1.9296 C   0  0  0  0  0  0  0  0  0  0  0  0
    2.5891   -0.4372    1.6846 C   0  0  0  0  0  0  0  0  0  0  0  0
    1.7779   -0.5841    0.5863 N   0  0  0  0  0  0  0  0  0  0  0  0
    0.5274   -0.9084    1.0985 C   0  0  0  0  0  0  0  0  0  0  0  0
   -0.7379   -1.3033    0.5000 C   0  0  0  0  0  0  0  0  0  0  0  0
   -1.3195   -1.0895   -0.7401 N   0  0  0  0  0  0  0  0  0  0  0  0
   -2.5815   -1.6221   -0.6520 C   0  0  0  0  0  0  0  0  0  0  0  0
   -3.7549   -1.5738   -1.4465 C   0  0  0  0  0  0  0  0  0  0  0  0
   -3.9991   -1.2067   -2.7872 C   0  0  0  0  0  0  0  0  0  0  0  0
   -5.2662   -1.2441   -3.3245 C   0  0  0  0  0  0  0  0  0  0  0  0
   -6.3742   -1.6220   -2.5711 C   0  0  0  0  0  0  0  0  0  0  0  0
   -7.7062   -1.6590   -2.9787 C   0  0  0  0  0  0  0  0  0  0  0  0
   -5.2197   -0.8234   -4.5932 N   0  0  0  0  0  0  0  0  0  0  0  0
   -3.9362   -0.5815   -4.8200 N   0  0  0  0  0  0  0  0  0  0  0  0
   -3.4487   -0.0069   -6.0627 C   0  0  0  0  0  0  0  0  0  0  0  0
   -3.4425    1.5192   -5.9659 C   0  0  0  0  0  0  0  0  0  0  0  0
   -3.1670   -0.7809   -3.7508 N   0  0  0  0  0  0  0  0  0  0  0  0
   -0.9132   -0.1487   -1.7793 C   0  0  0  0  0  0  0  0  0  0  0  0
   -1.6524    1.1861   -1.6638 C   0  0  0  0  0  0  0  0  0  0  0  0
    2.2895   -0.7437   -0.7759 C   0  0  0  0  0  0  0  0  0  0  0  0
    2.6388    0.6225   -1.4014 C   0  0  0  0  0  0  0  0  0  0  0  0
    7.8569    0.0699    3.6078 C   0  0  0  0  0  0  0  0  0  0  0  0
    7.7544   -0.1910    4.9683 C   0  0  0  0  0  0  0  0  0  0  0  0
    6.1309   -0.4335    5.4049 S   0  0  0  0  0  0  0  0  0  0  0  0
    8.9197   -0.5227    5.7862 C   0  0  0  0  0  0  0  0  0  0  0  0
    9.7080    0.4498    6.2807 C   0  0  0  0  0  0  0  0  0  0  0  0
    9.2146    1.7558    6.7622 C   0  0  0  0  0  0  0  0  0  0  0  0
    8.0149    2.1512    6.8025 O   0  0  0  0  0  0  0  0  0  0  0  0
   10.3414    2.4124    7.3925 C   0  0  0  0  0  0  0  0  0  0  0  0
   10.5309    3.6343    8.0306 C   0  0  0  0  0  0  0  0  0  0  0  0
   11.8627    3.7983    8.4305 C   0  0  0  0  0  0  0  0  0  0  0  0
   12.7674    2.4183    7.9941 S   0  0  0  0  0  0  0  0  0  0  0  0
   11.4538    1.6310    7.3043 C   0  0  0  0  0  0  0  0  0  0  0  0
   11.1807    0.3786    6.5800 C   0  0  0  0  0  0  0  0  0  0  0  0
   12.1079   -0.4704    6.0660 C   0  0  0  0  0  0  0  0  0  0  0  0
   11.7782   -1.4840    5.0905 C   0  0  0  0  0  0  0  0  0  0  0  0
   11.5236   -2.2979    4.3044 N   0  0  0  0  0  0  0  0  0  0  0  0
   13.5123   -0.2715    6.3273 C   0  0  0  0  0  0  0  0  0  0  0  0
   14.6524   -0.1069    6.5033 N   0  0  0  0  0  0  0  0  0  0  0  0
  -10.3940   -3.0420   -1.4143 H   0  0  0  0  0  0  0  0  0  0  0  0
  -11.4796    0.0057   -6.9953 H   0  0  0  0  0  0  0  0  0  0  0  0
  -10.2053    0.8172   -6.0760 H   0  0  0  0  0  0  0  0  0  0  0  0
  -11.9558    2.4543   -6.6336 H   0  0  0  0  0  0  0  0  0  0  0  0
  -11.9506    2.1732   -4.8347 H   0  0  0  0  0  0  0  0  0  0  0  0
  -13.2197    1.4032   -5.8834 H   0  0  0  0  0  0  0  0  0  0  0  0
    8.0180    0.6343   -1.8639 H   0  0  0  0  0  0  0  0  0  0  0  0
    6.3885    0.3707   -2.5669 H   0  0  0  0  0  0  0  0  0  0  0  0
    7.1146   -2.1587   -1.3609 H   0  0  0  0  0  0  0  0  0  0  0  0
    8.5938   -1.5731   -2.1979 H   0  0  0  0  0  0  0  0  0  0  0  0
    7.0464   -1.7658   -3.1127 H   0  0  0  0  0  0  0  0  0  0  0  0
   -8.0144   -1.5129   -3.9980 H   0  0  0  0  0  0  0  0  0  0  0  0
   -2.4247   -0.3773   -6.2631 H   0  0  0  0  0  0  0  0  0  0  0  0
   -4.1117   -0.3205   -6.8927 H   0  0  0  0  0  0  0  0  0  0  0  0
   -3.1083    1.9496   -6.9347 H   0  0  0  0  0  0  0  0  0  0  0  0
   -2.7380    1.8404   -5.1588 H   0  0  0  0  0  0  0  0  0  0  0  0
   -4.4677    1.8872   -5.7414 H   0  0  0  0  0  0  0  0  0  0  0  0
   -1.0157   -0.6099   -2.7811 H   0  0  0  0  0  0  0  0  0  0  0  0
    0.1230    0.0913   -1.6938 H   0  0  0  0  0  0  0  0  0  0  0  0
   -1.3265    1.7076   -0.7374 H   0  0  0  0  0  0  0  0  0  0  0  0
   -1.3884    1.8265   -2.5391 H   0  0  0  0  0  0  0  0  0  0  0  0
   -2.7536    1.0402   -1.6360 H   0  0  0  0  0  0  0  0  0  0  0  0
    1.6075   -1.3476   -1.4061 H   0  0  0  0  0  0  0  0  0  0  0  0
    3.2029   -1.3743   -0.7480 H   0  0  0  0  0  0  0  0  0  0  0  0
    3.1439    0.4428   -2.3742 H   0  0  0  0  0  0  0  0  0  0  0  0
    1.7720    1.2862   -1.5606 H   0  0  0  0  0  0  0  0  0  0  0  0
    3.3050    1.1949   -0.7343 H   0  0  0  0  0  0  0  0  0  0  0  0
    8.8004    0.2004    3.0890 H   0  0  0  0  0  0  0  0  0  0  0  0
    9.3093   -1.5191    5.6739 H   0  0  0  0  0  0  0  0  0  0  0  0
    9.7511    4.3744    8.1781 H   0  0  0  0  0  0  0  0  0  0  0  0
   12.2507    4.6715    8.9397 H   0  0  0  0  0  0  0  0  0  0  0  0
  1  2  2  3
  2  3  1  0
  3  4  1  0
  4  5  2  0
  4  6  1  0
  6  7  1  0
  7  8  1  0
  6  9  1  0
  9 10  2  0
  1 11  1  0
 11 12  1  0
 12 13  1  0
 13 14  1  0
 14 15  1  0
 15 16  1  0
 16 17  1  0
 17 18  1  0
 18 19  1  0
 19 20  2  0
 20 21  1  0
 21 22  1  0
 19 23  1  0
 23 24  1  0
 24 25  1  0
 25 26  1  0
 26 27  1  0
 27 28  2  0
 28 29  1  0
 29 30  2  0
 30 31  1  0
 31 32  1  0
 32 33  1  0
 31 34  1  0
 34 35  2  0
 35 36  1  0
 36 37  1  0
 37 38  1  0
 38 39  1  0
 39 40  1  0
 40 41  1  0
 41 42  1  0
 42 43  1  0
 43 44  1  0
 44 45  1  0
 45 46  1  0
 46 47  1  0
 45 48  2  0
 48 49  1  0
 49 50  1  0
 50 51  1  0
 49 52  1  0
 41 53  1  0
 53 54  1  0
 38 55  1  0
 55 56  1  0
 28 57  1  0
 57 58  2  0
 58 59  1  0
 58 60  1  0
 60 61  2  3
 61 62  1  0
 62 63  2  0
 62 64  1  0
 64 65  1  0
 65 66  2  0
 66 67  1  0
 67 68  1  0
 68 69  1  0
 69 70  2  3
 70 71  1  0
 71 72  3  0
 70 73  1  0
 73 74  3  0
  9  2  1  0
 47 11  2  0
 69 61  1  0
 46 13  2  0
 68 64  2  0
 43 14  2  0
 52 44  2  0
 42 16  2  0
 40 17  2  0
 22 18  2  0
 39 23  2  0
 37 24  2  0
 36 26  2  0
 59 27  1  0
 35 29  1  0
  1 75  1  0
  7 76  1  0
  7 77  1  0
  8 78  1  0
  8 79  1  0
  8 80  1  0
 32 81  1  0
 32 82  1  0
 33 83  1  0
 33 84  1  0
 33 85  1  0
 47 86  1  0
 50 87  1  0
 50 88  1  0
 51 89  1  0
 51 90  1  0
 51 91  1  0
 53 92  1  0
 53 93  1  0
 54 94  1  0
 54 95  1  0
 54 96  1  0
 55 97  1  0
 55 98  1  0
 56 99  1  0
 56100  1  0
 56101  1  0
 57102  1  0
 60103  1  0
 65104  1  0
 66105  1  0
M  END

