
     RDKit          3D

 96104  0  0  0  0  0  0  0  0999 V2000
    2.3480    2.0214    7.4801 C   0  0  0  0  0  0  0  0  0  0  0  0
    1.4708    2.9593    7.8692 C   0  0  0  0  0  0  0  0  0  0  0  0
    2.0421    4.4893    8.6190 S   0  0  0  0  0  0  0  0  0  0  0  0
    0.4792    5.2306    8.1358 C   0  0  0  0  0  0  0  0  0  0  0  0
    0.4039    6.8205    7.7512 S   0  0  0  0  0  0  0  0  0  0  0  0
   -0.5225    4.2994    7.7138 N   0  0  0  0  0  0  0  0  0  0  0  0
   -1.9361    4.6165    7.4940 C   0  0  0  0  0  0  0  0  0  0  0  0
   -2.6765    4.6755    8.8225 C   0  0  0  0  0  0  0  0  0  0  0  0
    0.0255    2.9899    7.6479 C   0  0  0  0  0  0  0  0  0  0  0  0
   -0.6943    1.9626    7.5277 O   0  0  0  0  0  0  0  0  0  0  0  0
    2.0725    0.8623    6.6071 C   0  0  0  0  0  0  0  0  0  0  0  0
    2.9865   -0.1834    6.4281 C   0  0  0  0  0  0  0  0  0  0  0  0
    2.6262   -1.0156    5.3662 C   0  0  0  0  0  0  0  0  0  0  0  0
    3.4317   -1.9820    4.5290 C   0  0  0  0  0  0  0  0  0  0  0  0
    4.8263   -1.4065    4.1607 C   0  0  0  0  0  0  0  0  0  0  0  0
    4.7907   -0.0609    3.4258 C   0  0  0  0  0  0  0  0  0  0  0  0
    3.5887   -3.3520    5.2408 C   0  0  0  0  0  0  0  0  0  0  0  0
    2.2654   -4.0201    5.6367 C   0  0  0  0  0  0  0  0  0  0  0  0
    2.5279   -2.0779    3.3059 C   0  0  0  0  0  0  0  0  0  0  0  0
    1.3731   -1.3192    3.4552 C   0  0  0  0  0  0  0  0  0  0  0  0
    1.4637   -0.6704    4.7481 C   0  0  0  0  0  0  0  0  0  0  0  0
    0.8884    0.7665    5.3853 S   0  0  0  0  0  0  0  0  0  0  0  0
    0.3810   -1.2814    2.4656 C   0  0  0  0  0  0  0  0  0  0  0  0
   -0.8533   -0.6284    2.6656 C   0  0  0  0  0  0  0  0  0  0  0  0
   -1.8385   -0.6453    1.6698 C   0  0  0  0  0  0  0  0  0  0  0  0
   -1.5838   -1.2915    0.4527 C   0  0  0  0  0  0  0  0  0  0  0  0
   -2.4869   -1.3657   -0.7913 C   0  0  0  0  0  0  0  0  0  0  0  0
   -3.7346   -2.2900   -0.6220 C   0  0  0  0  0  0  0  0  0  0  0  0
   -4.4723   -2.1846    0.7165 C   0  0  0  0  0  0  0  0  0  0  0  0
   -2.7920    0.0414   -1.3959 C   0  0  0  0  0  0  0  0  0  0  0  0
   -3.9399    0.8257   -0.7583 C   0  0  0  0  0  0  0  0  0  0  0  0
   -1.5216   -2.0666   -1.7224 C   0  0  0  0  0  0  0  0  0  0  0  0
   -1.5127   -2.2433   -3.1095 C   0  0  0  0  0  0  0  0  0  0  0  0
   -0.2638   -2.6792   -3.5530 C   0  0  0  0  0  0  0  0  0  0  0  0
    0.8110   -2.8190   -2.2431 S   0  0  0  0  0  0  0  0  0  0  0  0
   -0.3538   -2.3922   -1.1132 C   0  0  0  0  0  0  0  0  0  0  0  0
   -0.3539   -1.9160    0.2483 C   0  0  0  0  0  0  0  0  0  0  0  0
    0.6331   -1.9719    1.2452 C   0  0  0  0  0  0  0  0  0  0  0  0
    1.8269   -2.7140    1.0882 C   0  0  0  0  0  0  0  0  0  0  0  0
    2.7672   -2.7847    2.1267 C   0  0  0  0  0  0  0  0  0  0  0  0
    0.1253   -2.7808   -4.9625 C   0  0  0  0  0  0  0  0  0  0  0  0
    0.7786   -1.7940   -5.6040 C   0  0  0  0  0  0  0  0  0  0  0  0
    1.0011   -0.4440   -5.0684 C   0  0  0  0  0  0  0  0  0  0  0  0
    0.8286   -0.0664   -3.8802 O   0  0  0  0  0  0  0  0  0  0  0  0
    1.4013    0.4194   -6.1545 C   0  0  0  0  0  0  0  0  0  0  0  0
    1.6852    1.7830   -6.1000 C   0  0  0  0  0  0  0  0  0  0  0  0
    2.0754    2.4328   -7.2770 C   0  0  0  0  0  0  0  0  0  0  0  0
    2.1701    1.7182   -8.4885 C   0  0  0  0  0  0  0  0  0  0  0  0
    2.6353    2.4060   -9.7385 C   0  0  0  0  0  0  0  0  0  0  0  0
    1.8828    0.3380   -8.5141 C   0  0  0  0  0  0  0  0  0  0  0  0
    1.4796   -0.3077   -7.3301 C   0  0  0  0  0  0  0  0  0  0  0  0
    1.1486   -1.7408   -7.0544 C   0  0  0  0  0  0  0  0  0  0  0  0
    1.2775   -2.7920   -7.9039 C   0  0  0  0  0  0  0  0  0  0  0  0
    1.2462   -4.1575   -7.4487 C   0  0  0  0  0  0  0  0  0  0  0  0
    1.2275   -5.2586   -7.0910 N   0  0  0  0  0  0  0  0  0  0  0  0
    1.5001   -2.6337   -9.3169 C   0  0  0  0  0  0  0  0  0  0  0  0
    1.6662   -2.5224  -10.4593 N   0  0  0  0  0  0  0  0  0  0  0  0
    3.3796    2.1556    7.7793 H   0  0  0  0  0  0  0  0  0  0  0  0
   -2.4026    3.8492    6.8425 H   0  0  0  0  0  0  0  0  0  0  0  0
   -2.0308    5.5904    6.9713 H   0  0  0  0  0  0  0  0  0  0  0  0
   -2.2336    5.4611    9.4720 H   0  0  0  0  0  0  0  0  0  0  0  0
   -3.7438    4.9186    8.6396 H   0  0  0  0  0  0  0  0  0  0  0  0
   -2.6110    3.6937    9.3399 H   0  0  0  0  0  0  0  0  0  0  0  0
    3.9245   -0.2647    6.9599 H   0  0  0  0  0  0  0  0  0  0  0  0
    5.3641   -2.1363    3.5162 H   0  0  0  0  0  0  0  0  0  0  0  0
    5.4288   -1.2820    5.0860 H   0  0  0  0  0  0  0  0  0  0  0  0
    4.3089    0.7221    4.0465 H   0  0  0  0  0  0  0  0  0  0  0  0
    4.2498   -0.1517    2.4615 H   0  0  0  0  0  0  0  0  0  0  0  0
    5.8294    0.2655    3.2098 H   0  0  0  0  0  0  0  0  0  0  0  0
    4.1975   -3.2159    6.1618 H   0  0  0  0  0  0  0  0  0  0  0  0
    4.1461   -4.0495    4.5763 H   0  0  0  0  0  0  0  0  0  0  0  0
    1.7038   -3.3855    6.3527 H   0  0  0  0  0  0  0  0  0  0  0  0
    2.4780   -4.9950    6.1252 H   0  0  0  0  0  0  0  0  0  0  0  0
    1.6362   -4.2117    4.7424 H   0  0  0  0  0  0  0  0  0  0  0  0
   -1.0767   -0.1360    3.6026 H   0  0  0  0  0  0  0  0  0  0  0  0
   -2.7858   -0.1709    1.8676 H   0  0  0  0  0  0  0  0  0  0  0  0
   -3.4347   -3.3583   -0.7236 H   0  0  0  0  0  0  0  0  0  0  0  0
   -4.4539   -2.0905   -1.4457 H   0  0  0  0  0  0  0  0  0  0  0  0
   -4.7790   -1.1464    0.9433 H   0  0  0  0  0  0  0  0  0  0  0  0
   -5.3878   -2.8101    0.6745 H   0  0  0  0  0  0  0  0  0  0  0  0
   -3.8402   -2.5732    1.5406 H   0  0  0  0  0  0  0  0  0  0  0  0
   -1.8729    0.6674   -1.3546 H   0  0  0  0  0  0  0  0  0  0  0  0
   -3.0508   -0.0700   -2.4721 H   0  0  0  0  0  0  0  0  0  0  0  0
   -4.0433    1.8006   -1.2791 H   0  0  0  0  0  0  0  0  0  0  0  0
   -4.9025    0.2876   -0.8754 H   0  0  0  0  0  0  0  0  0  0  0  0
   -3.7476    1.0423    0.3073 H   0  0  0  0  0  0  0  0  0  0  0  0
   -2.3316   -1.9806   -3.7650 H   0  0  0  0  0  0  0  0  0  0  0  0
    2.0250   -3.2660    0.1822 H   0  0  0  0  0  0  0  0  0  0  0  0
    3.6682   -3.3738    2.0095 H   0  0  0  0  0  0  0  0  0  0  0  0
   -0.2295   -3.6468   -5.4949 H   0  0  0  0  0  0  0  0  0  0  0  0
    1.6085    2.3292   -5.1677 H   0  0  0  0  0  0  0  0  0  0  0  0
    2.3036    3.4904   -7.2453 H   0  0  0  0  0  0  0  0  0  0  0  0
    2.0396    2.0594  -10.6076 H   0  0  0  0  0  0  0  0  0  0  0  0
    2.5202    3.5055   -9.6580 H   0  0  0  0  0  0  0  0  0  0  0  0
    3.7031    2.1676   -9.9160 H   0  0  0  0  0  0  0  0  0  0  0  0
    1.9845   -0.1850   -9.4466 H   0  0  0  0  0  0  0  0  0  0  0  0
  1  2  2  3
  2  3  1  0
  3  4  1  0
  4  5  2  0
  4  6  1  0
  6  7  1  0
  7  8  1  0
  6  9  1  0
  9 10  2  0
  1 11  1  0
 11 12  2  0
 12 13  1  0
 13 14  1  0
 14 15  1  0
 15 16  1  0
 14 17  1  0
 17 18  1  0
 14 19  1  0
 19 20  2  0
 20 21  1  0
 21 22  1  0
 20 23  1  0
 23 24  2  0
 24 25  1  0
 25 26  2  0
 26 27  1  0
 27 28  1  0
 28 29  1  0
 27 30  1  0
 30 31  1  0
 27 32  1  0
 32 33  1  0
 33 34  2  0
 34 35  1  0
 35 36  1  0
 36 37  1  0
 37 38  2  0
 38 39  1  0
 39 40  2  0
 34 41  1  0
 41 42  2  3
 42 43  1  0
 43 44  2  0
 43 45  1  0
 45 46  2  0
 46 47  1  0
 47 48  2  0
 48 49  1  0
 48 50  1  0
 50 51  2  0
 51 52  1  0
 52 53  2  3
 53 54  1  0
 54 55  3  0
 53 56  1  0
 56 57  3  0
  9  2  1  0
 22 11  1  0
 38 23  1  0
 52 42  1  0
 21 13  2  0
 37 26  1  0
 51 45  1  0
 40 19  1  0
 36 32  2  0
  1 58  1  0
  7 59  1  0
  7 60  1  0
  8 61  1  0
  8 62  1  0
  8 63  1  0
 12 64  1  0
 15 65  1  0
 15 66  1  0
 16 67  1  0
 16 68  1  0
 16 69  1  0
 17 70  1  0
 17 71  1  0
 18 72  1  0
 18 73  1  0
 18 74  1  0
 24 75  1  0
 25 76  1  0
 28 77  1  0
 28 78  1  0
 29 79  1  0
 29 80  1  0
 29 81  1  0
 30 82  1  0
 30 83  1  0
 31 84  1  0
 31 85  1  0
 31 86  1  0
 33 87  1  0
 39 88  1  0
 40 89  1  0
 41 90  1  0
 46 91  1  0
 47 92  1  0
 49 93  1  0
 49 94  1  0
 49 95  1  0
 50 96  1  0
M  END

