
     RDKit          3D

114128  0  0  0  0  0  0  0  0999 V2000
   -3.0230    0.9733    7.0908 C   0  0  0  0  0  0  0  0  0  0  0  0
   -1.9740    1.1129    7.9163 C   0  0  0  0  0  0  0  0  0  0  0  0
   -0.6439    0.4948    7.7183 C   0  0  0  0  0  0  0  0  0  0  0  0
   -0.3514   -0.4301    6.9143 O   0  0  0  0  0  0  0  0  0  0  0  0
    0.2379    1.0348    8.7232 C   0  0  0  0  0  0  0  0  0  0  0  0
   -0.4478    1.8987    9.5342 C   0  0  0  0  0  0  0  0  0  0  0  0
    0.3965    2.1388   10.9981 S   0  0  0  0  0  0  0  0  0  0  0  0
    1.6851    1.1522   10.5037 C   0  0  0  0  0  0  0  0  0  0  0  0
    2.7844    0.6180   11.1652 C   0  0  0  0  0  0  0  0  0  0  0  0
    3.3992   -0.3787   10.3932 C   0  0  0  0  0  0  0  0  0  0  0  0
    2.5473   -0.5934    8.9308 S   0  0  0  0  0  0  0  0  0  0  0  0
    1.4364    0.6168    9.2740 C   0  0  0  0  0  0  0  0  0  0  0  0
   -1.8706    1.9728    9.1484 C   0  0  0  0  0  0  0  0  0  0  0  0
   -2.8337    2.6227    9.8359 C   0  0  0  0  0  0  0  0  0  0  0  0
   -2.4983    3.5103   10.9220 C   0  0  0  0  0  0  0  0  0  0  0  0
   -2.2298    4.2285   11.7900 N   0  0  0  0  0  0  0  0  0  0  0  0
   -4.2385    2.4610    9.5711 C   0  0  0  0  0  0  0  0  0  0  0  0
   -5.3732    2.3324    9.3755 N   0  0  0  0  0  0  0  0  0  0  0  0
   -2.9113    0.3535    5.7628 C   0  0  0  0  0  0  0  0  0  0  0  0
   -3.7317   -0.6680    5.2647 C   0  0  0  0  0  0  0  0  0  0  0  0
   -4.6859   -1.4378    6.0820 C   0  0  0  0  0  0  0  0  0  0  0  0
   -4.1856   -2.4737    6.8853 C   0  0  0  0  0  0  0  0  0  0  0  0
   -5.0499   -3.2298    7.6805 C   0  0  0  0  0  0  0  0  0  0  0  0
   -6.4138   -2.9458    7.6979 C   0  0  0  0  0  0  0  0  0  0  0  0
   -6.9243   -1.9135    6.9080 C   0  0  0  0  0  0  0  0  0  0  0  0
   -6.0720   -1.1461    6.0930 C   0  0  0  0  0  0  0  0  0  0  0  0
   -6.6781   -0.0451    5.2490 C   0  0  0  0  0  0  0  0  0  0  0  0
   -7.3573   -0.6168    4.0087 C   0  0  0  0  0  0  0  0  0  0  0  0
   -3.4320   -0.9407    3.9291 C   0  0  0  0  0  0  0  0  0  0  0  0
   -3.9634   -2.1286    2.8241 S   0  0  0  0  0  0  0  0  0  0  0  0
   -2.9124   -1.5175    1.6348 C   0  0  0  0  0  0  0  0  0  0  0  0
   -2.3863   -1.9268    0.4460 C   0  0  0  0  0  0  0  0  0  0  0  0
   -2.6528   -3.0629   -0.3217 C   0  0  0  0  0  0  0  0  0  0  0  0
   -1.8268   -3.3328   -1.4486 C   0  0  0  0  0  0  0  0  0  0  0  0
   -2.1247   -4.4391   -2.1752 N   0  0  0  0  0  0  0  0  0  0  0  0
   -3.4149   -5.0117   -1.3055 S   0  0  0  0  0  0  0  0  0  0  0  0
   -3.6490   -3.9460   -0.0586 N   0  0  0  0  0  0  0  0  0  0  0  0
   -0.7853   -2.4482   -1.7507 C   0  0  0  0  0  0  0  0  0  0  0  0
   -0.0038   -2.3573   -2.8649 C   0  0  0  0  0  0  0  0  0  0  0  0
    0.0100   -3.0566   -4.4101 S   0  0  0  0  0  0  0  0  0  0  0  0
    0.9166   -1.7526   -5.0189 C   0  0  0  0  0  0  0  0  0  0  0  0
    1.2967   -1.3924   -6.3102 C   0  0  0  0  0  0  0  0  0  0  0  0
    1.0608   -2.2293   -7.5010 C   0  0  0  0  0  0  0  0  0  0  0  0
    1.8745   -3.3494   -7.7981 C   0  0  0  0  0  0  0  0  0  0  0  0
    3.0749   -3.7170   -6.9531 C   0  0  0  0  0  0  0  0  0  0  0  0
    4.3264   -2.9919   -7.4423 C   0  0  0  0  0  0  0  0  0  0  0  0
    1.6163   -4.0946   -8.9621 C   0  0  0  0  0  0  0  0  0  0  0  0
    0.5456   -3.7578   -9.7985 C   0  0  0  0  0  0  0  0  0  0  0  0
   -0.2598   -2.6618   -9.4940 C   0  0  0  0  0  0  0  0  0  0  0  0
   -0.0065   -1.8998   -8.3511 C   0  0  0  0  0  0  0  0  0  0  0  0
    1.8558   -0.1058   -6.3371 C   0  0  0  0  0  0  0  0  0  0  0  0
    1.7966    0.5753   -4.7735 S   0  0  0  0  0  0  0  0  0  0  0  0
    1.1383   -0.7968   -4.0598 C   0  0  0  0  0  0  0  0  0  0  0  0
    0.6191   -1.1536   -2.8194 C   0  0  0  0  0  0  0  0  0  0  0  0
    0.3139   -0.4489   -1.6992 N   0  0  0  0  0  0  0  0  0  0  0  0
   -0.5321   -1.2836   -0.9992 C   0  0  0  0  0  0  0  0  0  0  0  0
   -1.3127   -1.0549    0.1772 C   0  0  0  0  0  0  0  0  0  0  0  0
   -1.1209   -0.1953    1.2355 N   0  0  0  0  0  0  0  0  0  0  0  0
   -2.1512   -0.4854    2.0724 C   0  0  0  0  0  0  0  0  0  0  0  0
   -2.4364   -0.1642    3.3923 C   0  0  0  0  0  0  0  0  0  0  0  0
   -1.8545    0.9007    4.5416 S   0  0  0  0  0  0  0  0  0  0  0  0
    0.1493    0.3877    1.6869 C   0  0  0  0  0  0  0  0  0  0  0  0
    0.0714    1.9139    1.8132 C   0  0  0  0  0  0  0  0  0  0  0  0
    0.5260    0.9923   -1.5553 C   0  0  0  0  0  0  0  0  0  0  0  0
    2.0012    1.3206   -1.3044 C   0  0  0  0  0  0  0  0  0  0  0  0
    2.2251    0.6239   -7.5617 C   0  0  0  0  0  0  0  0  0  0  0  0
    3.4371    1.1683   -7.7801 C   0  0  0  0  0  0  0  0  0  0  0  0
    4.6342    0.9877   -6.9324 C   0  0  0  0  0  0  0  0  0  0  0  0
    4.6810    0.4984   -5.7723 O   0  0  0  0  0  0  0  0  0  0  0  0
    5.7789    1.4001   -7.7082 C   0  0  0  0  0  0  0  0  0  0  0  0
    7.1388    1.4009   -7.4621 C   0  0  0  0  0  0  0  0  0  0  0  0
    7.8391    1.9949   -8.8812 S   0  0  0  0  0  0  0  0  0  0  0  0
    6.4228    2.2386   -9.7779 C   0  0  0  0  0  0  0  0  0  0  0  0
    5.3800    1.8412   -8.9480 C   0  0  0  0  0  0  0  0  0  0  0  0
    3.9060    1.7952   -9.0635 C   0  0  0  0  0  0  0  0  0  0  0  0
    3.1605    2.3345  -10.0576 C   0  0  0  0  0  0  0  0  0  0  0  0
    3.7571    2.8517  -11.2629 C   0  0  0  0  0  0  0  0  0  0  0  0
    4.2241    3.2600  -12.2395 N   0  0  0  0  0  0  0  0  0  0  0  0
    1.7356    2.5116   -9.9426 C   0  0  0  0  0  0  0  0  0  0  0  0
    0.5944    2.6715   -9.8475 N   0  0  0  0  0  0  0  0  0  0  0  0
   -3.9804    1.4141    7.3201 H   0  0  0  0  0  0  0  0  0  0  0  0
    3.0749    0.8772   12.1729 H   0  0  0  0  0  0  0  0  0  0  0  0
    4.2527   -0.9627   10.7082 H   0  0  0  0  0  0  0  0  0  0  0  0
   -3.1275   -2.7013    6.8882 H   0  0  0  0  0  0  0  0  0  0  0  0
   -4.6553   -4.0309    8.2914 H   0  0  0  0  0  0  0  0  0  0  0  0
   -7.0805   -3.5337    8.3163 H   0  0  0  0  0  0  0  0  0  0  0  0
   -7.9881   -1.7119    6.9313 H   0  0  0  0  0  0  0  0  0  0  0  0
   -5.9169    0.7023    4.9429 H   0  0  0  0  0  0  0  0  0  0  0  0
   -7.4350    0.5035    5.8518 H   0  0  0  0  0  0  0  0  0  0  0  0
   -7.9209    0.1853    3.4906 H   0  0  0  0  0  0  0  0  0  0  0  0
   -6.6045   -1.0353    3.3122 H   0  0  0  0  0  0  0  0  0  0  0  0
   -8.0739   -1.4171    4.2903 H   0  0  0  0  0  0  0  0  0  0  0  0
    2.9017   -3.4775   -5.8842 H   0  0  0  0  0  0  0  0  0  0  0  0
    3.2533   -4.8147   -7.0006 H   0  0  0  0  0  0  0  0  0  0  0  0
    4.1869   -1.8939   -7.3670 H   0  0  0  0  0  0  0  0  0  0  0  0
    5.1920   -3.2850   -6.8161 H   0  0  0  0  0  0  0  0  0  0  0  0
    4.5402   -3.2569   -8.4973 H   0  0  0  0  0  0  0  0  0  0  0  0
    2.2413   -4.9386   -9.2236 H   0  0  0  0  0  0  0  0  0  0  0  0
    0.3539   -4.3370  -10.6922 H   0  0  0  0  0  0  0  0  0  0  0  0
   -1.0821   -2.3994  -10.1469 H   0  0  0  0  0  0  0  0  0  0  0  0
   -0.6404   -1.0507   -8.1266 H   0  0  0  0  0  0  0  0  0  0  0  0
    0.4333   -0.0488    2.6697 H   0  0  0  0  0  0  0  0  0  0  0  0
    0.9599    0.0926    0.9996 H   0  0  0  0  0  0  0  0  0  0  0  0
    1.0430    2.3594    1.5142 H   0  0  0  0  0  0  0  0  0  0  0  0
   -0.1145    2.2114    2.8626 H   0  0  0  0  0  0  0  0  0  0  0  0
   -0.7448    2.3347    1.1864 H   0  0  0  0  0  0  0  0  0  0  0  0
    0.1938    1.5092   -2.4804 H   0  0  0  0  0  0  0  0  0  0  0  0
   -0.1136    1.4049   -0.7625 H   0  0  0  0  0  0  0  0  0  0  0  0
    2.4265    0.7500   -0.4556 H   0  0  0  0  0  0  0  0  0  0  0  0
    2.6138    1.0808   -2.1956 H   0  0  0  0  0  0  0  0  0  0  0  0
    2.1165    2.4025   -1.1017 H   0  0  0  0  0  0  0  0  0  0  0  0
    1.5104    0.5752   -8.3651 H   0  0  0  0  0  0  0  0  0  0  0  0
    7.6427    1.0872   -6.5583 H   0  0  0  0  0  0  0  0  0  0  0  0
    6.3677    2.6137  -10.7902 H   0  0  0  0  0  0  0  0  0  0  0  0
  1  2  2  3
  2  3  1  0
  3  4  2  0
  3  5  1  0
  5  6  2  0
  6  7  1  0
  7  8  1  0
  8  9  1  0
  9 10  2  0
 10 11  1  0
 11 12  1  0
  6 13  1  0
 13 14  2  3
 14 15  1  0
 15 16  3  0
 14 17  1  0
 17 18  3  0
  1 19  1  0
 19 20  2  0
 20 21  1  0
 21 22  2  0
 22 23  1  0
 23 24  2  0
 24 25  1  0
 25 26  2  0
 26 27  1  0
 27 28  1  0
 20 29  1  0
 29 30  1  0
 30 31  1  0
 31 32  1  0
 32 33  1  0
 33 34  1  0
 34 35  2  0
 35 36  1  0
 36 37  1  0
 34 38  1  0
 38 39  1  0
 39 40  1  0
 40 41  1  0
 41 42  1  0
 42 43  1  0
 43 44  2  0
 44 45  1  0
 45 46  1  0
 44 47  1  0
 47 48  2  0
 48 49  1  0
 49 50  2  0
 42 51  2  0
 51 52  1  0
 52 53  1  0
 53 54  1  0
 54 55  1  0
 55 56  1  0
 56 57  1  0
 57 58  1  0
 58 59  1  0
 59 60  1  0
 60 61  1  0
 58 62  1  0
 62 63  1  0
 55 64  1  0
 64 65  1  0
 51 66  1  0
 66 67  2  3
 67 68  1  0
 68 69  2  0
 68 70  1  0
 70 71  2  0
 71 72  1  0
 72 73  1  0
 73 74  2  0
 74 75  1  0
 75 76  2  3
 76 77  1  0
 77 78  3  0
 76 79  1  0
 79 80  3  0
 13  2  1  0
 61 19  1  0
 75 67  1  0
 12  5  1  0
 26 21  1  0
 60 29  2  0
 74 70  1  0
 12  8  2  0
 59 31  2  0
 57 32  2  0
 37 33  2  0
 56 38  2  0
 54 39  2  0
 53 41  2  0
 50 43  1  0
  1 81  1  0
  9 82  1  0
 10 83  1  0
 22 84  1  0
 23 85  1  0
 24 86  1  0
 25 87  1  0
 27 88  1  0
 27 89  1  0
 28 90  1  0
 28 91  1  0
 28 92  1  0
 45 93  1  0
 45 94  1  0
 46 95  1  0
 46 96  1  0
 46 97  1  0
 47 98  1  0
 48 99  1  0
 49100  1  0
 50101  1  0
 62102  1  0
 62103  1  0
 63104  1  0
 63105  1  0
 63106  1  0
 64107  1  0
 64108  1  0
 65109  1  0
 65110  1  0
 65111  1  0
 66112  1  0
 71113  1  0
 73114  1  0
M  END

