
     RDKit          3D

119132  0  0  0  0  0  0  0  0999 V2000
   -0.4606    6.9064   -2.5988 C   0  0  0  0  0  0  0  0  0  0  0  0
    0.7818    7.3326   -2.9051 C   0  0  0  0  0  0  0  0  0  0  0  0
    1.8278    6.5294   -3.5826 C   0  0  0  0  0  0  0  0  0  0  0  0
    1.6822    5.4356   -4.1877 O   0  0  0  0  0  0  0  0  0  0  0  0
    3.0418    7.3010   -3.5659 C   0  0  0  0  0  0  0  0  0  0  0  0
    2.8177    8.5141   -2.9958 C   0  0  0  0  0  0  0  0  0  0  0  0
    4.2829    9.3706   -2.7892 S   0  0  0  0  0  0  0  0  0  0  0  0
    5.1828    8.1096   -3.4862 C   0  0  0  0  0  0  0  0  0  0  0  0
    6.5437    7.8826   -3.6747 C   0  0  0  0  0  0  0  0  0  0  0  0
    6.7665    6.6047   -4.2041 C   0  0  0  0  0  0  0  0  0  0  0  0
    5.2872    5.7800   -4.3995 S   0  0  0  0  0  0  0  0  0  0  0  0
    4.3779    7.0690   -3.8354 C   0  0  0  0  0  0  0  0  0  0  0  0
    1.4118    8.6677   -2.5810 C   0  0  0  0  0  0  0  0  0  0  0  0
    0.8732    9.7909   -2.0463 C   0  0  0  0  0  0  0  0  0  0  0  0
    1.6707   10.9723   -1.8398 C   0  0  0  0  0  0  0  0  0  0  0  0
    2.3110   11.9230   -1.6746 N   0  0  0  0  0  0  0  0  0  0  0  0
   -0.5155    9.9139   -1.6910 C   0  0  0  0  0  0  0  0  0  0  0  0
   -1.6295   10.0309   -1.3969 N   0  0  0  0  0  0  0  0  0  0  0  0
   -0.8974    5.5032   -2.7315 C   0  0  0  0  0  0  0  0  0  0  0  0
   -2.1467    5.0827   -3.2239 C   0  0  0  0  0  0  0  0  0  0  0  0
   -3.2088    5.9811   -3.7142 C   0  0  0  0  0  0  0  0  0  0  0  0
   -3.9204    6.7543   -2.7817 C   0  0  0  0  0  0  0  0  0  0  0  0
   -4.9352    7.6158   -3.2027 C   0  0  0  0  0  0  0  0  0  0  0  0
   -5.2439    7.7214   -4.5598 C   0  0  0  0  0  0  0  0  0  0  0  0
   -4.5317    6.9710   -5.5006 C   0  0  0  0  0  0  0  0  0  0  0  0
   -3.5166    6.0876   -5.0943 C   0  0  0  0  0  0  0  0  0  0  0  0
   -2.7230    5.3497   -6.1482 C   0  0  0  0  0  0  0  0  0  0  0  0
   -1.4888    6.1525   -6.5599 C   0  0  0  0  0  0  0  0  0  0  0  0
   -2.2696    3.6935   -3.1681 C   0  0  0  0  0  0  0  0  0  0  0  0
   -3.5282    2.5965   -3.5315 S   0  0  0  0  0  0  0  0  0  0  0  0
   -2.5698    1.2854   -3.0296 C   0  0  0  0  0  0  0  0  0  0  0  0
   -2.7480   -0.0131   -2.6352 C   0  0  0  0  0  0  0  0  0  0  0  0
   -3.9018   -0.8044   -2.5566 C   0  0  0  0  0  0  0  0  0  0  0  0
   -3.8491   -2.0299   -1.8233 C   0  0  0  0  0  0  0  0  0  0  0  0
   -4.9955   -2.7476   -1.7300 N   0  0  0  0  0  0  0  0  0  0  0  0
   -6.0048   -1.7549   -2.5895 S   0  0  0  0  0  0  0  0  0  0  0  0
   -5.0989   -0.4575   -3.0848 N   0  0  0  0  0  0  0  0  0  0  0  0
   -2.6304   -2.4152   -1.2539 C   0  0  0  0  0  0  0  0  0  0  0  0
   -2.2633   -3.4863   -0.4940 C   0  0  0  0  0  0  0  0  0  0  0  0
   -2.9887   -4.7586    0.3720 S   0  0  0  0  0  0  0  0  0  0  0  0
   -1.5098   -5.0960    1.1533 C   0  0  0  0  0  0  0  0  0  0  0  0
   -1.1731   -5.8887    2.2531 C   0  0  0  0  0  0  0  0  0  0  0  0
   -2.0517   -6.9342    2.8092 C   0  0  0  0  0  0  0  0  0  0  0  0
   -2.6705   -6.8197    4.0820 C   0  0  0  0  0  0  0  0  0  0  0  0
   -2.5564   -5.5667    4.9200 C   0  0  0  0  0  0  0  0  0  0  0  0
   -3.4847   -4.4681    4.4080 C   0  0  0  0  0  0  0  0  0  0  0  0
   -3.4720   -7.8774    4.5528 C   0  0  0  0  0  0  0  0  0  0  0  0
   -3.6585   -9.0261    3.7805 C   0  0  0  0  0  0  0  0  0  0  0  0
   -3.0616   -9.1311    2.5254 C   0  0  0  0  0  0  0  0  0  0  0  0
   -2.2714   -8.0846    2.0374 C   0  0  0  0  0  0  0  0  0  0  0  0
    0.1240   -5.5901    2.7105 C   0  0  0  0  0  0  0  0  0  0  0  0
    0.8230   -4.3937    1.7166 S   0  0  0  0  0  0  0  0  0  0  0  0
   -0.5127   -4.2545    0.7242 C   0  0  0  0  0  0  0  0  0  0  0  0
   -0.9378   -3.3533   -0.2325 C   0  0  0  0  0  0  0  0  0  0  0  0
   -0.3813   -2.2534   -0.7997 N   0  0  0  0  0  0  0  0  0  0  0  0
   -1.4682   -1.6377   -1.3619 C   0  0  0  0  0  0  0  0  0  0  0  0
   -1.5526   -0.3729   -1.9878 C   0  0  0  0  0  0  0  0  0  0  0  0
   -0.7133    0.7048   -1.8675 N   0  0  0  0  0  0  0  0  0  0  0  0
   -1.3570    1.6764   -2.5594 C   0  0  0  0  0  0  0  0  0  0  0  0
   -1.1913    3.0475   -2.6271 C   0  0  0  0  0  0  0  0  0  0  0  0
   -0.0222    4.1502   -2.1636 S   0  0  0  0  0  0  0  0  0  0  0  0
    0.2226    0.9754   -0.7661 C   0  0  0  0  0  0  0  0  0  0  0  0
   -0.5189    1.5380    0.4478 C   0  0  0  0  0  0  0  0  0  0  0  0
    0.9462   -2.2783   -1.4493 C   0  0  0  0  0  0  0  0  0  0  0  0
    2.1058   -2.2868   -0.4492 C   0  0  0  0  0  0  0  0  0  0  0  0
    0.8312   -6.2390    3.8333 C   0  0  0  0  0  0  0  0  0  0  0  0
    1.6009   -5.5534    4.7164 C   0  0  0  0  0  0  0  0  0  0  0  0
    1.4960   -4.0766    4.8457 C   0  0  0  0  0  0  0  0  0  0  0  0
    0.4051   -3.4864    4.6075 O   0  0  0  0  0  0  0  0  0  0  0  0
    2.6202   -3.3309    5.3307 N   0  0  0  0  0  0  0  0  0  0  0  0
    2.6671   -1.8704    5.1706 C   0  0  0  0  0  0  0  0  0  0  0  0
    3.1606   -1.5055    3.7761 C   0  0  0  0  0  0  0  0  0  0  0  0
    3.7170   -4.0504    5.9129 C   0  0  0  0  0  0  0  0  0  0  0  0
    4.7828   -3.4437    6.2141 O   0  0  0  0  0  0  0  0  0  0  0  0
    3.5879   -5.5053    6.1890 C   0  0  0  0  0  0  0  0  0  0  0  0
    2.5980   -6.2413    5.6116 C   0  0  0  0  0  0  0  0  0  0  0  0
    2.4211   -7.7088    5.9673 C   0  0  0  0  0  0  0  0  0  0  0  0
    4.5461   -6.0877    7.1092 C   0  0  0  0  0  0  0  0  0  0  0  0
    5.3138   -6.5518    7.8406 N   0  0  0  0  0  0  0  0  0  0  0  0
   -1.1899    7.5832   -2.1968 H   0  0  0  0  0  0  0  0  0  0  0  0
    7.3234    8.5895   -3.4269 H   0  0  0  0  0  0  0  0  0  0  0  0
    7.7401    6.1888   -4.4250 H   0  0  0  0  0  0  0  0  0  0  0  0
   -3.6873    6.6880   -1.7229 H   0  0  0  0  0  0  0  0  0  0  0  0
   -5.4809    8.2053   -2.4763 H   0  0  0  0  0  0  0  0  0  0  0  0
   -6.0262    8.3931   -4.8838 H   0  0  0  0  0  0  0  0  0  0  0  0
   -4.7706    7.0807   -6.5549 H   0  0  0  0  0  0  0  0  0  0  0  0
   -2.3991    4.3549   -5.7802 H   0  0  0  0  0  0  0  0  0  0  0  0
   -3.3505    5.1679   -7.0440 H   0  0  0  0  0  0  0  0  0  0  0  0
   -0.8698    6.4158   -5.6775 H   0  0  0  0  0  0  0  0  0  0  0  0
   -1.7961    7.0851   -7.0818 H   0  0  0  0  0  0  0  0  0  0  0  0
   -0.8707    5.5477   -7.2558 H   0  0  0  0  0  0  0  0  0  0  0  0
   -2.8184   -5.7826    5.9790 H   0  0  0  0  0  0  0  0  0  0  0  0
   -1.5132   -5.1942    4.9299 H   0  0  0  0  0  0  0  0  0  0  0  0
   -3.4085   -3.5771    5.0647 H   0  0  0  0  0  0  0  0  0  0  0  0
   -3.2045   -4.1643    3.3741 H   0  0  0  0  0  0  0  0  0  0  0  0
   -4.5400   -4.8230    4.4145 H   0  0  0  0  0  0  0  0  0  0  0  0
   -3.9667   -7.8094    5.5156 H   0  0  0  0  0  0  0  0  0  0  0  0
   -4.2694   -9.8387    4.1573 H   0  0  0  0  0  0  0  0  0  0  0  0
   -3.2151  -10.0215    1.9262 H   0  0  0  0  0  0  0  0  0  0  0  0
   -1.8196   -8.1875    1.0563 H   0  0  0  0  0  0  0  0  0  0  0  0
    1.0105    1.6833   -1.1007 H   0  0  0  0  0  0  0  0  0  0  0  0
    0.7372    0.0625   -0.4418 H   0  0  0  0  0  0  0  0  0  0  0  0
   -0.7937    2.5953    0.2745 H   0  0  0  0  0  0  0  0  0  0  0  0
   -1.4396    0.9471    0.6419 H   0  0  0  0  0  0  0  0  0  0  0  0
    0.1270    1.4790    1.3467 H   0  0  0  0  0  0  0  0  0  0  0  0
    1.0180   -3.1780   -2.1027 H   0  0  0  0  0  0  0  0  0  0  0  0
    1.0602   -1.4080   -2.1258 H   0  0  0  0  0  0  0  0  0  0  0  0
    2.4125   -3.3270   -0.2373 H   0  0  0  0  0  0  0  0  0  0  0  0
    1.8252   -1.7746    0.4960 H   0  0  0  0  0  0  0  0  0  0  0  0
    2.9808   -1.7698   -0.8903 H   0  0  0  0  0  0  0  0  0  0  0  0
    0.7717   -7.3160    3.8493 H   0  0  0  0  0  0  0  0  0  0  0  0
    3.3377   -1.4110    5.9230 H   0  0  0  0  0  0  0  0  0  0  0  0
    1.6562   -1.4308    5.3299 H   0  0  0  0  0  0  0  0  0  0  0  0
    3.1936   -0.3981    3.6631 H   0  0  0  0  0  0  0  0  0  0  0  0
    4.1818   -1.9192    3.6120 H   0  0  0  0  0  0  0  0  0  0  0  0
    2.4700   -1.9191    3.0129 H   0  0  0  0  0  0  0  0  0  0  0  0
    2.1511   -8.3234    5.0952 H   0  0  0  0  0  0  0  0  0  0  0  0
    1.6321   -7.8082    6.7444 H   0  0  0  0  0  0  0  0  0  0  0  0
    3.3546   -8.1710    6.3520 H   0  0  0  0  0  0  0  0  0  0  0  0
  1  2  2  3
  2  3  1  0
  3  4  2  0
  3  5  1  0
  5  6  2  0
  6  7  1  0
  7  8  1  0
  8  9  1  0
  9 10  2  0
 10 11  1  0
 11 12  1  0
  6 13  1  0
 13 14  2  3
 14 15  1  0
 15 16  3  0
 14 17  1  0
 17 18  3  0
  1 19  1  0
 19 20  2  0
 20 21  1  0
 21 22  2  0
 22 23  1  0
 23 24  2  0
 24 25  1  0
 25 26  2  0
 26 27  1  0
 27 28  1  0
 20 29  1  0
 29 30  1  0
 30 31  1  0
 31 32  1  0
 32 33  1  0
 33 34  1  0
 34 35  2  0
 35 36  1  0
 36 37  1  0
 34 38  1  0
 38 39  1  0
 39 40  1  0
 40 41  1  0
 41 42  1  0
 42 43  1  0
 43 44  2  0
 44 45  1  0
 45 46  1  0
 44 47  1  0
 47 48  2  0
 48 49  1  0
 49 50  2  0
 42 51  2  0
 51 52  1  0
 52 53  1  0
 53 54  1  0
 54 55  1  0
 55 56  1  0
 56 57  1  0
 57 58  1  0
 58 59  1  0
 59 60  1  0
 60 61  1  0
 58 62  1  0
 62 63  1  0
 55 64  1  0
 64 65  1  0
 51 66  1  0
 66 67  2  3
 67 68  1  0
 68 69  2  0
 68 70  1  0
 70 71  1  0
 71 72  1  0
 70 73  1  0
 73 74  2  0
 73 75  1  0
 75 76  2  0
 76 77  1  0
 75 78  1  0
 78 79  3  0
 13  2  1  0
 61 19  1  0
 76 67  1  0
 12  5  1  0
 26 21  1  0
 60 29  2  0
 12  8  2  0
 59 31  2  0
 57 32  2  0
 37 33  2  0
 56 38  2  0
 54 39  2  0
 53 41  2  0
 50 43  1  0
  1 80  1  0
  9 81  1  0
 10 82  1  0
 22 83  1  0
 23 84  1  0
 24 85  1  0
 25 86  1  0
 27 87  1  0
 27 88  1  0
 28 89  1  0
 28 90  1  0
 28 91  1  0
 45 92  1  0
 45 93  1  0
 46 94  1  0
 46 95  1  0
 46 96  1  0
 47 97  1  0
 48 98  1  0
 49 99  1  0
 50100  1  0
 62101  1  0
 62102  1  0
 63103  1  0
 63104  1  0
 63105  1  0
 64106  1  0
 64107  1  0
 65108  1  0
 65109  1  0
 65110  1  0
 66111  1  0
 71112  1  0
 71113  1  0
 72114  1  0
 72115  1  0
 72116  1  0
 77117  1  0
 77118  1  0
 77119  1  0
M  END

