
     RDKit          3D

124137  0  0  0  0  0  0  0  0999 V2000
    4.6010   -4.1513    7.3745 C   0  0  0  0  0  0  0  0  0  0  0  0
    3.7469   -4.7519    8.2295 C   0  0  0  0  0  0  0  0  0  0  0  0
    2.5823   -4.1457    8.8837 C   0  0  0  0  0  0  0  0  0  0  0  0
    2.4874   -2.9543    9.2839 O   0  0  0  0  0  0  0  0  0  0  0  0
    1.6087   -5.1867    9.1348 C   0  0  0  0  0  0  0  0  0  0  0  0
    0.2864   -5.0440    9.5523 C   0  0  0  0  0  0  0  0  0  0  0  0
   -0.5352   -6.1858    9.5889 C   0  0  0  0  0  0  0  0  0  0  0  0
   -1.8798   -6.0847    9.9781 C   0  0  0  0  0  0  0  0  0  0  0  0
   -2.6988   -7.2173    9.9692 C   0  0  0  0  0  0  0  0  0  0  0  0
   -2.1872   -8.4561    9.5775 C   0  0  0  0  0  0  0  0  0  0  0  0
   -2.9920   -9.5463    9.5648 F   0  0  0  0  0  0  0  0  0  0  0  0
   -0.8453   -8.5751    9.1959 C   0  0  0  0  0  0  0  0  0  0  0  0
   -0.0087   -7.4483    9.1958 C   0  0  0  0  0  0  0  0  0  0  0  0
    1.3383   -7.5593    8.7913 C   0  0  0  0  0  0  0  0  0  0  0  0
    2.1466   -6.4125    8.7862 C   0  0  0  0  0  0  0  0  0  0  0  0
    3.5616   -6.2291    8.3587 C   0  0  0  0  0  0  0  0  0  0  0  0
    4.5297   -7.1791    8.3048 C   0  0  0  0  0  0  0  0  0  0  0  0
    5.9234   -6.8442    8.1617 C   0  0  0  0  0  0  0  0  0  0  0  0
    7.0450   -6.5807    8.0470 N   0  0  0  0  0  0  0  0  0  0  0  0
    4.2518   -8.5776    8.4937 C   0  0  0  0  0  0  0  0  0  0  0  0
    4.0365   -9.7089    8.6305 N   0  0  0  0  0  0  0  0  0  0  0  0
    4.4495   -2.7946    6.8022 C   0  0  0  0  0  0  0  0  0  0  0  0
    2.9642   -1.9779    6.5709 S   0  0  0  0  0  0  0  0  0  0  0  0
    3.6006   -0.8573    5.5087 C   0  0  0  0  0  0  0  0  0  0  0  0
    3.0838   -0.2122    4.4196 C   0  0  0  0  0  0  0  0  0  0  0  0
    4.1428   -0.1006    3.5181 C   0  0  0  0  0  0  0  0  0  0  0  0
    5.2798   -0.6474    4.0348 N   0  0  0  0  0  0  0  0  0  0  0  0
    4.8990   -1.1413    5.2387 C   0  0  0  0  0  0  0  0  0  0  0  0
    5.4183   -2.2252    5.9539 C   0  0  0  0  0  0  0  0  0  0  0  0
    6.4879   -1.0075    3.2952 C   0  0  0  0  0  0  0  0  0  0  0  0
    3.9123    0.2650    2.1800 C   0  0  0  0  0  0  0  0  0  0  0  0
    2.5751    0.5022    1.8087 C   0  0  0  0  0  0  0  0  0  0  0  0
    1.9770    0.7231    0.4944 C   0  0  0  0  0  0  0  0  0  0  0  0
    0.6698    0.6758    0.6171 C   0  0  0  0  0  0  0  0  0  0  0  0
    0.1835    0.4385    2.0233 C   0  0  0  0  0  0  0  0  0  0  0  0
   -0.6733    1.6227    2.5405 C   0  0  0  0  0  0  0  0  0  0  0  0
   -0.0153    2.9988    2.3784 C   0  0  0  0  0  0  0  0  0  0  0  0
   -0.6001   -0.8996    2.1530 C   0  0  0  0  0  0  0  0  0  0  0  0
    0.1637   -2.1348    1.6562 C   0  0  0  0  0  0  0  0  0  0  0  0
    1.5213    0.3616    2.7218 C   0  0  0  0  0  0  0  0  0  0  0  0
    1.7551   -0.0076    4.0527 C   0  0  0  0  0  0  0  0  0  0  0  0
    0.0547    0.5763   -0.6777 C   0  0  0  0  0  0  0  0  0  0  0  0
    1.0779    0.5702   -1.6302 C   0  0  0  0  0  0  0  0  0  0  0  0
    2.4438    0.6468   -0.9527 C   0  0  0  0  0  0  0  0  0  0  0  0
    3.2636   -0.6591   -1.1716 C   0  0  0  0  0  0  0  0  0  0  0  0
    3.7623   -0.8937   -2.5993 C   0  0  0  0  0  0  0  0  0  0  0  0
    3.1543    1.9591   -1.3871 C   0  0  0  0  0  0  0  0  0  0  0  0
    4.4766    2.2390   -0.6767 C   0  0  0  0  0  0  0  0  0  0  0  0
    0.7693    0.6102   -3.0055 C   0  0  0  0  0  0  0  0  0  0  0  0
   -0.5884    0.5829   -3.3381 C   0  0  0  0  0  0  0  0  0  0  0  0
   -1.2454    0.6810   -4.5361 C   0  0  0  0  0  0  0  0  0  0  0  0
   -0.9272    0.9078   -6.1635 S   0  0  0  0  0  0  0  0  0  0  0  0
   -2.5979    1.0465   -6.5373 C   0  0  0  0  0  0  0  0  0  0  0  0
   -3.3862    0.8976   -5.3871 C   0  0  0  0  0  0  0  0  0  0  0  0
   -2.5702    0.7041   -4.2790 C   0  0  0  0  0  0  0  0  0  0  0  0
   -2.8354    0.6121   -2.9569 N   0  0  0  0  0  0  0  0  0  0  0  0
   -4.1260    0.7674   -2.2936 C   0  0  0  0  0  0  0  0  0  0  0  0
   -1.6047    0.5540   -2.3792 C   0  0  0  0  0  0  0  0  0  0  0  0
   -1.3054    0.5669   -1.0137 C   0  0  0  0  0  0  0  0  0  0  0  0
   -3.1445    1.2125   -7.8896 C   0  0  0  0  0  0  0  0  0  0  0  0
   -2.8387    2.2448   -8.6968 C   0  0  0  0  0  0  0  0  0  0  0  0
   -2.1825    3.4931   -8.2828 C   0  0  0  0  0  0  0  0  0  0  0  0
   -1.5826    3.7060   -7.1964 O   0  0  0  0  0  0  0  0  0  0  0  0
   -2.4459    4.4988   -9.2920 C   0  0  0  0  0  0  0  0  0  0  0  0
   -2.1355    5.8571   -9.2507 C   0  0  0  0  0  0  0  0  0  0  0  0
   -2.6090    6.6872  -10.2802 C   0  0  0  0  0  0  0  0  0  0  0  0
   -2.3168    8.0594  -10.2813 C   0  0  0  0  0  0  0  0  0  0  0  0
   -2.8172    8.8841  -11.2921 C   0  0  0  0  0  0  0  0  0  0  0  0
   -3.6187    8.3497  -12.3051 C   0  0  0  0  0  0  0  0  0  0  0  0
   -4.1057    9.1599  -13.2778 F   0  0  0  0  0  0  0  0  0  0  0  0
   -3.9180    6.9841  -12.3202 C   0  0  0  0  0  0  0  0  0  0  0  0
   -3.4164    6.1395  -11.3179 C   0  0  0  0  0  0  0  0  0  0  0  0
   -3.7174    4.7625  -11.3260 C   0  0  0  0  0  0  0  0  0  0  0  0
   -3.1907    3.9434  -10.3170 C   0  0  0  0  0  0  0  0  0  0  0  0
   -3.3808    2.4892  -10.0662 C   0  0  0  0  0  0  0  0  0  0  0  0
   -3.7000    1.5444  -10.9864 C   0  0  0  0  0  0  0  0  0  0  0  0
   -3.9647    1.8697  -12.3643 C   0  0  0  0  0  0  0  0  0  0  0  0
   -4.1615    2.1130  -13.4784 N   0  0  0  0  0  0  0  0  0  0  0  0
   -3.6258    0.1349  -10.6960 C   0  0  0  0  0  0  0  0  0  0  0  0
   -3.5676   -0.9997  -10.4722 N   0  0  0  0  0  0  0  0  0  0  0  0
    5.3694   -4.7437    6.9016 H   0  0  0  0  0  0  0  0  0  0  0  0
   -0.1015   -4.0655    9.8087 H   0  0  0  0  0  0  0  0  0  0  0  0
   -2.2979   -5.1317   10.2784 H   0  0  0  0  0  0  0  0  0  0  0  0
   -3.7387   -7.1318   10.2618 H   0  0  0  0  0  0  0  0  0  0  0  0
   -0.4678   -9.5440    8.8932 H   0  0  0  0  0  0  0  0  0  0  0  0
    1.7070   -8.5099    8.4419 H   0  0  0  0  0  0  0  0  0  0  0  0
    6.3804   -2.6777    5.7474 H   0  0  0  0  0  0  0  0  0  0  0  0
    6.3136   -1.9464    2.7276 H   0  0  0  0  0  0  0  0  0  0  0  0
    6.7641   -0.1934    2.5922 H   0  0  0  0  0  0  0  0  0  0  0  0
    7.3344   -1.1567    3.9976 H   0  0  0  0  0  0  0  0  0  0  0  0
    4.7147    0.2854    1.4604 H   0  0  0  0  0  0  0  0  0  0  0  0
   -1.6441    1.6392    1.9979 H   0  0  0  0  0  0  0  0  0  0  0  0
   -0.9010    1.4672    3.6157 H   0  0  0  0  0  0  0  0  0  0  0  0
    0.1262    3.2400    1.3046 H   0  0  0  0  0  0  0  0  0  0  0  0
   -0.6735    3.7751    2.8220 H   0  0  0  0  0  0  0  0  0  0  0  0
    0.9656    3.0316    2.8964 H   0  0  0  0  0  0  0  0  0  0  0  0
   -1.5531   -0.8326    1.5872 H   0  0  0  0  0  0  0  0  0  0  0  0
   -0.8718   -1.0640    3.2183 H   0  0  0  0  0  0  0  0  0  0  0  0
   -0.4542   -3.0405    1.8250 H   0  0  0  0  0  0  0  0  0  0  0  0
    1.1189   -2.2603    2.2065 H   0  0  0  0  0  0  0  0  0  0  0  0
    0.3747   -2.0575    0.5696 H   0  0  0  0  0  0  0  0  0  0  0  0
    0.9410   -0.2080    4.7392 H   0  0  0  0  0  0  0  0  0  0  0  0
    4.1506   -0.6651   -0.5087 H   0  0  0  0  0  0  0  0  0  0  0  0
    2.6446   -1.5350   -0.8740 H   0  0  0  0  0  0  0  0  0  0  0  0
    4.3787   -0.0442   -2.9567 H   0  0  0  0  0  0  0  0  0  0  0  0
    4.4019   -1.8021   -2.6121 H   0  0  0  0  0  0  0  0  0  0  0  0
    2.9175   -1.0771   -3.2924 H   0  0  0  0  0  0  0  0  0  0  0  0
    3.3379    1.9443   -2.4807 H   0  0  0  0  0  0  0  0  0  0  0  0
    2.4769    2.8222   -1.1954 H   0  0  0  0  0  0  0  0  0  0  0  0
    4.3063    2.4197    0.4049 H   0  0  0  0  0  0  0  0  0  0  0  0
    5.1931    1.4052   -0.8196 H   0  0  0  0  0  0  0  0  0  0  0  0
    4.9313    3.1589   -1.1031 H   0  0  0  0  0  0  0  0  0  0  0  0
    1.5320    0.6929   -3.7680 H   0  0  0  0  0  0  0  0  0  0  0  0
   -4.4667    0.9515   -5.3666 H   0  0  0  0  0  0  0  0  0  0  0  0
   -4.9539    0.5255   -2.9901 H   0  0  0  0  0  0  0  0  0  0  0  0
   -4.1918    0.0789   -1.4254 H   0  0  0  0  0  0  0  0  0  0  0  0
   -4.2391    1.8138   -1.9421 H   0  0  0  0  0  0  0  0  0  0  0  0
   -2.0788    0.6043   -0.2593 H   0  0  0  0  0  0  0  0  0  0  0  0
   -3.8989    0.5019   -8.1889 H   0  0  0  0  0  0  0  0  0  0  0  0
   -1.5578    6.2593   -8.4277 H   0  0  0  0  0  0  0  0  0  0  0  0
   -1.7028    8.4949   -9.5020 H   0  0  0  0  0  0  0  0  0  0  0  0
   -2.5869    9.9422  -11.2881 H   0  0  0  0  0  0  0  0  0  0  0  0
   -4.5397    6.5879  -13.1147 H   0  0  0  0  0  0  0  0  0  0  0  0
   -4.3790    4.3673  -12.0803 H   0  0  0  0  0  0  0  0  0  0  0  0
  1  2  2  3
  2  3  1  0
  3  4  2  0
  3  5  1  0
  5  6  2  0
  6  7  1  0
  7  8  2  0
  8  9  1  0
  9 10  2  0
 10 11  1  0
 10 12  1  0
 12 13  2  0
 13 14  1  0
 14 15  2  0
 15 16  1  0
 16 17  2  3
 17 18  1  0
 18 19  3  0
 17 20  1  0
 20 21  3  0
  1 22  1  0
 22 23  1  0
 23 24  1  0
 24 25  1  0
 25 26  2  0
 26 27  1  0
 27 28  1  0
 28 29  1  0
 27 30  1  0
 26 31  1  0
 31 32  2  0
 32 33  1  0
 33 34  2  0
 34 35  1  0
 35 36  1  0
 36 37  1  0
 35 38  1  0
 38 39  1  0
 35 40  1  0
 40 41  2  0
 34 42  1  0
 42 43  2  0
 43 44  1  0
 44 45  1  0
 45 46  1  0
 44 47  1  0
 47 48  1  0
 43 49  1  0
 49 50  2  0
 50 51  1  0
 51 52  1  0
 52 53  1  0
 53 54  2  0
 54 55  1  0
 55 56  1  0
 56 57  1  0
 56 58  1  0
 58 59  2  0
 53 60  1  0
 60 61  2  3
 61 62  1  0
 62 63  2  0
 62 64  1  0
 64 65  2  0
 65 66  1  0
 66 67  2  0
 67 68  1  0
 68 69  2  0
 69 70  1  0
 69 71  1  0
 71 72  2  0
 72 73  1  0
 73 74  2  0
 74 75  1  0
 75 76  2  3
 76 77  1  0
 77 78  3  0
 76 79  1  0
 79 80  3  0
 16  2  1  0
 29 22  2  0
 40 32  1  0
 59 42  1  0
 75 61  1  0
 15  5  1  0
 28 24  2  0
 44 33  1  0
 58 50  1  0
 74 64  1  0
 13  7  1  0
 41 25  1  0
 55 51  2  0
 72 66  1  0
  1 81  1  0
  6 82  1  0
  8 83  1  0
  9 84  1  0
 12 85  1  0
 14 86  1  0
 29 87  1  0
 30 88  1  0
 30 89  1  0
 30 90  1  0
 31 91  1  0
 36 92  1  0
 36 93  1  0
 37 94  1  0
 37 95  1  0
 37 96  1  0
 38 97  1  0
 38 98  1  0
 39 99  1  0
 39100  1  0
 39101  1  0
 41102  1  0
 45103  1  0
 45104  1  0
 46105  1  0
 46106  1  0
 46107  1  0
 47108  1  0
 47109  1  0
 48110  1  0
 48111  1  0
 48112  1  0
 49113  1  0
 54114  1  0
 57115  1  0
 57116  1  0
 57117  1  0
 59118  1  0
 60119  1  0
 65120  1  0
 67121  1  0
 68122  1  0
 71123  1  0
 73124  1  0
M  END

