
     RDKit          3D

150166  0  0  0  0  0  0  0  0999 V2000
   -2.6012    7.3830   -0.3427 C   0  0  0  0  0  0  0  0  0  0  0  0
   -3.8581    7.5433   -0.2994 C   0  0  0  0  0  0  0  0  0  0  0  0
   -4.7817    6.8637    0.5751 C   0  0  0  0  0  0  0  0  0  0  0  0
   -4.5455    6.2827    1.6774 O   0  0  0  0  0  0  0  0  0  0  0  0
   -6.1297    6.9323    0.0087 C   0  0  0  0  0  0  0  0  0  0  0  0
   -7.3153    6.3998    0.4142 C   0  0  0  0  0  0  0  0  0  0  0  0
   -8.4436    6.5478   -0.3303 C   0  0  0  0  0  0  0  0  0  0  0  0
   -9.6378    5.9451    0.0641 C   0  0  0  0  0  0  0  0  0  0  0  0
  -10.7578    6.0458   -0.7199 C   0  0  0  0  0  0  0  0  0  0  0  0
  -10.6861    6.7592   -1.9147 C   0  0  0  0  0  0  0  0  0  0  0  0
  -11.8044    6.8088   -2.6614 F   0  0  0  0  0  0  0  0  0  0  0  0
   -9.5060    7.3482   -2.2872 C   0  0  0  0  0  0  0  0  0  0  0  0
   -8.3794    7.2423   -1.4939 C   0  0  0  0  0  0  0  0  0  0  0  0
   -7.1857    7.8082   -1.9474 C   0  0  0  0  0  0  0  0  0  0  0  0
   -6.0408    7.6577   -1.1969 C   0  0  0  0  0  0  0  0  0  0  0  0
   -4.6728    8.0450   -1.3981 C   0  0  0  0  0  0  0  0  0  0  0  0
   -4.1507    8.9630   -2.3033 C   0  0  0  0  0  0  0  0  0  0  0  0
   -5.0714    9.3700   -3.4120 C   0  0  0  0  0  0  0  0  0  0  0  0
   -5.8291    9.6916   -4.3452 N   0  0  0  0  0  0  0  0  0  0  0  0
   -3.1666    9.5903   -2.1978 C   0  0  0  0  0  0  0  0  0  0  0  0
   -1.9084   10.4190   -2.0473 N   0  0  0  0  0  0  0  0  0  0  0  0
   -1.9204    6.3363    0.4909 C   0  0  0  0  0  0  0  0  0  0  0  0
   -2.7248    4.7909    0.7727 S   0  0  0  0  0  0  0  0  0  0  0  0
   -1.3533    3.8797    0.9988 C   0  0  0  0  0  0  0  0  0  0  0  0
   -0.9055    2.4632    0.8171 C   0  0  0  0  0  0  0  0  0  0  0  0
    0.4274    2.4367    0.6060 C   0  0  0  0  0  0  0  0  0  0  0  0
    0.8905    3.8135    1.0879 C   0  0  0  0  0  0  0  0  0  0  0  0
   -0.3108    4.7078    0.9019 C   0  0  0  0  0  0  0  0  0  0  0  0
   -0.6175    6.0264    0.6315 C   0  0  0  0  0  0  0  0  0  0  0  0
    1.2847    3.6801    2.4900 C   0  0  0  0  0  0  0  0  0  0  0  0
    2.2501    2.7711    2.8828 C   0  0  0  0  0  0  0  0  0  0  0  0
    2.6936    2.6257    4.1751 C   0  0  0  0  0  0  0  0  0  0  0  0
    2.1757    3.4108    5.1743 C   0  0  0  0  0  0  0  0  0  0  0  0
    2.7590    3.2022    6.5360 C   0  0  0  0  0  0  0  0  0  0  0  0
    2.0237    2.0684    7.2276 C   0  0  0  0  0  0  0  0  0  0  0  0
    1.2272    4.3132    4.8498 C   0  0  0  0  0  0  0  0  0  0  0  0
    0.7809    4.4520    3.5402 C   0  0  0  0  0  0  0  0  0  0  0  0
    1.9654    4.2868    0.1690 C   0  0  0  0  0  0  0  0  0  0  0  0
    3.2490    4.4161    0.5579 C   0  0  0  0  0  0  0  0  0  0  0  0
    4.2003    4.8718   -0.3467 C   0  0  0  0  0  0  0  0  0  0  0  0
    3.9172    5.2041   -1.6165 C   0  0  0  0  0  0  0  0  0  0  0  0
    4.8740    5.7243   -2.5818 C   0  0  0  0  0  0  0  0  0  0  0  0
    5.5909    4.7536   -3.4378 C   0  0  0  0  0  0  0  0  0  0  0  0
    2.5513    5.0548   -1.9986 C   0  0  0  0  0  0  0  0  0  0  0  0
    1.6041    4.6126   -1.1459 C   0  0  0  0  0  0  0  0  0  0  0  0
    0.9698    1.3077    0.1200 C   0  0  0  0  0  0  0  0  0  0  0  0
    2.3998    1.1243   -0.1828 C   0  0  0  0  0  0  0  0  0  0  0  0
    2.6861   -0.0787   -0.6658 C   0  0  0  0  0  0  0  0  0  0  0  0
    4.6368   -0.8306   -0.8805 Se  0  0  0  0  0  2  0  0  0  0  0  0
    3.9616   -2.4530   -1.2957 C   0  0  0  0  0  0  0  0  0  0  0  0
    4.2814   -3.9160   -1.3401 C   0  0  0  0  0  0  0  0  0  0  0  0
    3.1681   -4.6257   -1.3832 C   0  0  0  0  0  0  0  0  0  0  0  0
    2.1451   -3.6543   -1.8821 C   0  0  0  0  0  0  0  0  0  0  0  0
    2.3757   -3.4166   -3.3575 C   0  0  0  0  0  0  0  0  0  0  0  0
    2.9563   -4.3146   -4.1837 C   0  0  0  0  0  0  0  0  0  0  0  0
    3.1111   -4.0477   -5.5213 C   0  0  0  0  0  0  0  0  0  0  0  0
    2.6905   -2.8777   -6.1045 C   0  0  0  0  0  0  0  0  0  0  0  0
    2.8233   -2.5477   -7.5435 C   0  0  0  0  0  0  0  0  0  0  0  0
    1.6572   -3.0853   -8.3570 C   0  0  0  0  0  0  0  0  0  0  0  0
    2.0942   -1.9681   -5.2378 C   0  0  0  0  0  0  0  0  0  0  0  0
    1.9372   -2.2182   -3.8968 C   0  0  0  0  0  0  0  0  0  0  0  0
    0.8031   -4.1056   -1.6489 C   0  0  0  0  0  0  0  0  0  0  0  0
   -0.1008   -4.0983   -2.7231 C   0  0  0  0  0  0  0  0  0  0  0  0
   -1.3668   -4.5603   -2.5572 C   0  0  0  0  0  0  0  0  0  0  0  0
   -1.7707   -5.0395   -1.3355 C   0  0  0  0  0  0  0  0  0  0  0  0
   -3.1598   -5.5514   -1.1488 C   0  0  0  0  0  0  0  0  0  0  0  0
   -3.2704   -7.0148   -1.4867 C   0  0  0  0  0  0  0  0  0  0  0  0
   -0.9244   -5.0728   -0.2472 C   0  0  0  0  0  0  0  0  0  0  0  0
    0.3406   -4.6066   -0.4231 C   0  0  0  0  0  0  0  0  0  0  0  0
    2.5838   -2.3367   -1.2808 C   0  0  0  0  0  0  0  0  0  0  0  0
    2.0268   -1.1571   -0.9544 C   0  0  0  0  0  0  0  0  0  0  0  0
    0.5897   -1.0089   -0.6682 C   0  0  0  0  0  0  0  0  0  0  0  0
    0.3143    0.1922   -0.1803 C   0  0  0  0  0  0  0  0  0  0  0  0
   -1.5436    0.8112    0.3490 Se  0  0  0  0  0  2  0  0  0  0  0  0
    3.1767   -5.8952   -0.9851 C   0  0  0  0  0  0  0  0  0  0  0  0
    4.4158   -6.3395   -0.5471 C   0  0  0  0  0  0  0  0  0  0  0  0
    5.4489   -5.0767   -0.7236 S   0  0  0  0  0  0  0  0  0  0  0  0
    4.4071   -7.6288    0.2240 C   0  0  0  0  0  0  0  0  0  0  0  0
    3.7797   -7.4092    1.3971 C   0  0  0  0  0  0  0  0  0  0  0  0
    3.2388   -6.1010    1.8419 C   0  0  0  0  0  0  0  0  0  0  0  0
    3.5184   -4.9641    1.4372 O   0  0  0  0  0  0  0  0  0  0  0  0
    2.2691   -6.2802    2.9132 C   0  0  0  0  0  0  0  0  0  0  0  0
    1.4610   -5.3626    3.5769 C   0  0  0  0  0  0  0  0  0  0  0  0
    0.5385   -5.7837    4.5226 C   0  0  0  0  0  0  0  0  0  0  0  0
   -0.2840   -4.8365    5.1452 C   0  0  0  0  0  0  0  0  0  0  0  0
   -1.2117   -5.2443    6.0668 C   0  0  0  0  0  0  0  0  0  0  0  0
   -1.3060   -6.6192    6.3524 C   0  0  0  0  0  0  0  0  0  0  0  0
   -2.2466   -6.9747    7.2768 F   0  0  0  0  0  0  0  0  0  0  0  0
   -0.4917   -7.5219    5.7125 C   0  0  0  0  0  0  0  0  0  0  0  0
    0.4593   -7.1308    4.7720 C   0  0  0  0  0  0  0  0  0  0  0  0
    1.2807   -8.0580    4.1058 C   0  0  0  0  0  0  0  0  0  0  0  0
    2.1874   -7.6275    3.1750 C   0  0  0  0  0  0  0  0  0  0  0  0
    3.1182   -8.3346    2.2588 C   0  0  0  0  0  0  0  0  0  0  0  0
    3.3329   -9.7051    2.3159 C   0  0  0  0  0  0  0  0  0  0  0  0
    2.9691  -10.5474    2.8309 C   0  0  0  0  0  0  0  0  0  0  0  0
    2.4644  -11.7838    3.5811 N   0  0  0  0  0  0  0  0  0  0  0  0
    4.6632  -10.0001    1.5478 C   0  0  0  0  0  0  0  0  0  0  0  0
    5.7232  -10.2452    0.9120 N   0  0  0  0  0  0  0  0  0  0  0  0
   -1.9354    7.9597   -0.9237 H   0  0  0  0  0  0  0  0  0  0  0  0
   -7.3269    5.8498    1.3643 H   0  0  0  0  0  0  0  0  0  0  0  0
   -9.6973    5.3954    0.9842 H   0  0  0  0  0  0  0  0  0  0  0  0
  -11.7074    5.5624   -0.4299 H   0  0  0  0  0  0  0  0  0  0  0  0
   -9.4278    7.9077   -3.1966 H   0  0  0  0  0  0  0  0  0  0  0  0
   -7.1668    8.3168   -2.8610 H   0  0  0  0  0  0  0  0  0  0  0  0
    0.1532    6.7978    0.5103 H   0  0  0  0  0  0  0  0  0  0  0  0
    2.7134    2.0949    2.1804 H   0  0  0  0  0  0  0  0  0  0  0  0
    3.4732    1.8758    4.4222 H   0  0  0  0  0  0  0  0  0  0  0  0
    3.8315    2.8788    6.3755 H   0  0  0  0  0  0  0  0  0  0  0  0
    2.7065    4.0784    7.1582 H   0  0  0  0  0  0  0  0  0  0  0  0
    2.7856    1.3539    7.6626 H   0  0  0  0  0  0  0  0  0  0  0  0
    1.3639    2.3856    8.0335 H   0  0  0  0  0  0  0  0  0  0  0  0
    1.4572    1.4541    6.4916 H   0  0  0  0  0  0  0  0  0  0  0  0
    0.7992    4.9416    5.6521 H   0  0  0  0  0  0  0  0  0  0  0  0
    0.0337    5.1674    3.3353 H   0  0  0  0  0  0  0  0  0  0  0  0
    3.6074    4.1810    1.5603 H   0  0  0  0  0  0  0  0  0  0  0  0
    5.2402    4.9573    0.0074 H   0  0  0  0  0  0  0  0  0  0  0  0
    4.3711    6.4636   -3.2499 H   0  0  0  0  0  0  0  0  0  0  0  0
    5.6528    6.3030   -1.9842 H   0  0  0  0  0  0  0  0  0  0  0  0
    6.6644    5.0765   -3.4711 H   0  0  0  0  0  0  0  0  0  0  0  0
    5.2810    4.8377   -4.5290 H   0  0  0  0  0  0  0  0  0  0  0  0
    5.6051    3.7141   -3.1288 H   0  0  0  0  0  0  0  0  0  0  0  0
    2.3490    5.3250   -3.0086 H   0  0  0  0  0  0  0  0  0  0  0  0
    0.5775    4.5093   -1.4172 H   0  0  0  0  0  0  0  0  0  0  0  0
    3.1113    1.8617   -0.0472 H   0  0  0  0  0  0  0  0  0  0  0  0
    3.3167   -5.2577   -3.7851 H   0  0  0  0  0  0  0  0  0  0  0  0
    3.5842   -4.7905   -6.1812 H   0  0  0  0  0  0  0  0  0  0  0  0
    2.8173   -1.4168   -7.5869 H   0  0  0  0  0  0  0  0  0  0  0  0
    3.7799   -2.8913   -7.9386 H   0  0  0  0  0  0  0  0  0  0  0  0
    1.3345   -2.2728   -9.0388 H   0  0  0  0  0  0  0  0  0  0  0  0
    2.0552   -3.9375   -8.9638 H   0  0  0  0  0  0  0  0  0  0  0  0
    0.8095   -3.4145   -7.7607 H   0  0  0  0  0  0  0  0  0  0  0  0
    1.7419   -1.0435   -5.6424 H   0  0  0  0  0  0  0  0  0  0  0  0
    1.4473   -1.4555   -3.2762 H   0  0  0  0  0  0  0  0  0  0  0  0
    0.2332   -3.7499   -3.6824 H   0  0  0  0  0  0  0  0  0  0  0  0
   -2.0324   -4.5342   -3.3942 H   0  0  0  0  0  0  0  0  0  0  0  0
   -3.4620   -5.3778   -0.0882 H   0  0  0  0  0  0  0  0  0  0  0  0
   -3.8362   -4.9864   -1.8026 H   0  0  0  0  0  0  0  0  0  0  0  0
   -4.2978   -7.3397   -1.1610 H   0  0  0  0  0  0  0  0  0  0  0  0
   -2.5169   -7.6433   -1.0241 H   0  0  0  0  0  0  0  0  0  0  0  0
   -3.3190   -7.1318   -2.6185 H   0  0  0  0  0  0  0  0  0  0  0  0
   -1.2149   -5.4513    0.7363 H   0  0  0  0  0  0  0  0  0  0  0  0
    1.0836   -4.6080    0.3870 H   0  0  0  0  0  0  0  0  0  0  0  0
   -0.0728   -1.8040   -0.8471 H   0  0  0  0  0  0  0  0  0  0  0  0
    2.3208   -6.5585   -1.0100 H   0  0  0  0  0  0  0  0  0  0  0  0
    4.8112   -8.4506   -0.2001 H   0  0  0  0  0  0  0  0  0  0  0  0
    1.5086   -4.2812    3.3883 H   0  0  0  0  0  0  0  0  0  0  0  0
   -0.1376   -3.7975    4.8531 H   0  0  0  0  0  0  0  0  0  0  0  0
   -1.8496   -4.5114    6.5615 H   0  0  0  0  0  0  0  0  0  0  0  0
   -0.5969   -8.5821    5.9414 H   0  0  0  0  0  0  0  0  0  0  0  0
    1.1362   -9.1197    4.3852 H   0  0  0  0  0  0  0  0  0  0  0  0
  1  2  2  3
  2  3  1  0
  3  4  2  0
  3  5  1  0
  5  6  2  0
  6  7  1  0
  7  8  2  0
  8  9  1  0
  9 10  2  0
 10 11  1  0
 10 12  1  0
 12 13  2  0
 13 14  1  0
 14 15  2  0
 15 16  1  0
 16 17  2  3
 17 18  1  0
 18 19  3  0
 17 20  1  0
 20 21  3  0
  1 22  1  0
 22 23  1  0
 23 24  1  0
 24 25  1  0
 25 26  2  0
 26 27  1  0
 27 28  1  0
 28 29  1  0
 27 30  1  0
 30 31  2  0
 31 32  1  0
 32 33  2  0
 33 34  1  0
 34 35  1  0
 33 36  1  0
 36 37  2  0
 27 38  1  0
 38 39  2  0
 39 40  1  0
 40 41  2  0
 41 42  1  0
 42 43  1  0
 41 44  1  0
 44 45  2  0
 26 46  1  0
 46 47  2  0
 47 48  1  0
 48 49  1  0
 49 50  1  0
 50 51  1  0
 51 52  2  0
 52 53  1  0
 53 54  1  0
 54 55  2  0
 55 56  1  0
 56 57  2  0
 57 58  1  0
 58 59  1  0
 57 60  1  0
 60 61  2  0
 53 62  1  0
 62 63  2  0
 63 64  1  0
 64 65  2  0
 65 66  1  0
 66 67  1  0
 65 68  1  0
 68 69  2  0
 53 70  1  0
 70 71  1  0
 71 72  1  0
 72 73  2  0
 73 74  1  0
 52 75  1  0
 75 76  2  0
 76 77  1  0
 76 78  1  0
 78 79  2  3
 79 80  1  0
 80 81  2  0
 80 82  1  0
 82 83  2  0
 83 84  1  0
 84 85  2  0
 85 86  1  0
 86 87  2  0
 87 88  1  0
 87 89  1  0
 89 90  2  0
 90 91  1  0
 91 92  2  0
 92 93  1  0
 93 94  2  3
 94 95  1  0
 95 96  3  0
 94 97  1  0
 97 98  3  0
 16  2  1  0
 29 22  2  0
 37 30  1  0
 45 38  1  0
 73 46  1  0
 93 79  1  0
 15  5  1  0
 28 24  2  0
 71 48  2  0
 92 82  1  0
 13  7  1  0
 74 25  1  0
 90 84  1  0
 70 50  2  0
 77 51  1  0
 61 54  1  0
 69 62  1  0
  1 99  1  0
  6100  1  0
  8101  1  0
  9102  1  0
 12103  1  0
 14104  1  0
 29105  1  0
 31106  1  0
 32107  1  0
 34108  1  0
 34109  1  0
 35110  1  0
 35111  1  0
 35112  1  0
 36113  1  0
 37114  1  0
 39115  1  0
 40116  1  0
 42117  1  0
 42118  1  0
 43119  1  0
 43120  1  0
 43121  1  0
 44122  1  0
 45123  1  0
 47124  1  0
 55125  1  0
 56126  1  0
 58127  1  0
 58128  1  0
 59129  1  0
 59130  1  0
 59131  1  0
 60132  1  0
 61133  1  0
 63134  1  0
 64135  1  0
 66136  1  0
 66137  1  0
 67138  1  0
 67139  1  0
 67140  1  0
 68141  1  0
 69142  1  0
 72143  1  0
 75144  1  0
 78145  1  0
 83146  1  0
 85147  1  0
 86148  1  0
 89149  1  0
 91150  1  0
M  END

