
     RDKit          3D

114128  0  0  0  0  0  0  0  0999 V2000
   -0.3186    7.6448   -0.0872 C   0  0  0  0  0  0  0  0  0  0  0  0
    0.7533    7.4041    0.6928 C   0  0  0  0  0  0  0  0  0  0  0  0
    1.3678    6.0879    0.9173 C   0  0  0  0  0  0  0  0  0  0  0  0
    1.1250    5.0261    0.2875 O   0  0  0  0  0  0  0  0  0  0  0  0
    2.2823    6.1944    2.0288 C   0  0  0  0  0  0  0  0  0  0  0  0
    2.9975    5.1697    2.6448 C   0  0  0  0  0  0  0  0  0  0  0  0
    3.7566    5.4738    3.7878 C   0  0  0  0  0  0  0  0  0  0  0  0
    4.4932    4.4723    4.4394 C   0  0  0  0  0  0  0  0  0  0  0  0
    5.2230    4.7766    5.5926 C   0  0  0  0  0  0  0  0  0  0  0  0
    5.2224    6.0765    6.1053 C   0  0  0  0  0  0  0  0  0  0  0  0
    5.9297    6.3601    7.2268 F   0  0  0  0  0  0  0  0  0  0  0  0
    4.4940    7.0858    5.4671 C   0  0  0  0  0  0  0  0  0  0  0  0
    3.7573    6.7998    4.3060 C   0  0  0  0  0  0  0  0  0  0  0  0
    3.0186    7.8122    3.6584 C   0  0  0  0  0  0  0  0  0  0  0  0
    2.3037    7.4981    2.4901 C   0  0  0  0  0  0  0  0  0  0  0  0
    1.4455    8.3533    1.6175 C   0  0  0  0  0  0  0  0  0  0  0  0
    1.4970    9.7065    1.5079 C   0  0  0  0  0  0  0  0  0  0  0  0
    0.8283   10.4226    0.4528 C   0  0  0  0  0  0  0  0  0  0  0  0
    0.2973   11.0072   -0.3946 N   0  0  0  0  0  0  0  0  0  0  0  0
    2.3333   10.5207    2.3503 C   0  0  0  0  0  0  0  0  0  0  0  0
    3.0020   11.1880    3.0208 N   0  0  0  0  0  0  0  0  0  0  0  0
   -0.9191    6.6071   -0.9392 C   0  0  0  0  0  0  0  0  0  0  0  0
   -1.7529    5.6077   -0.4448 C   0  0  0  0  0  0  0  0  0  0  0  0
   -1.8190    4.6823   -1.4662 C   0  0  0  0  0  0  0  0  0  0  0  0
   -1.0606    5.1217   -2.4947 C   0  0  0  0  0  0  0  0  0  0  0  0
   -0.4806    6.3100   -2.1954 N   0  0  0  0  0  0  0  0  0  0  0  0
    0.4928    7.0893   -2.9657 C   0  0  0  0  0  0  0  0  0  0  0  0
    1.9281    6.7173   -2.5922 C   0  0  0  0  0  0  0  0  0  0  0  0
   -0.6167    3.9943   -3.1726 C   0  0  0  0  0  0  0  0  0  0  0  0
    0.4370    3.7887   -4.0930 C   0  0  0  0  0  0  0  0  0  0  0  0
    0.9124    2.4608   -4.3171 C   0  0  0  0  0  0  0  0  0  0  0  0
    1.9495    2.3054   -5.1779 N   0  0  0  0  0  0  0  0  0  0  0  0
    2.1904    3.8827   -5.6132 S   0  0  0  0  0  0  0  0  0  0  0  0
    1.0653    4.7687   -4.7841 N   0  0  0  0  0  0  0  0  0  0  0  0
    0.2615    1.4027   -3.6908 C   0  0  0  0  0  0  0  0  0  0  0  0
    0.4978    0.0568   -3.6884 C   0  0  0  0  0  0  0  0  0  0  0  0
    1.7501   -1.0247   -4.0699 S   0  0  0  0  0  0  0  0  0  0  0  0
    0.9348   -2.2859   -3.2490 C   0  0  0  0  0  0  0  0  0  0  0  0
    1.3367   -3.5546   -2.8222 C   0  0  0  0  0  0  0  0  0  0  0  0
    2.7063   -4.1212   -3.0671 C   0  0  0  0  0  0  0  0  0  0  0  0
    3.7063   -3.5607   -2.0600 C   0  0  0  0  0  0  0  0  0  0  0  0
    0.3770   -4.1179   -1.9567 C   0  0  0  0  0  0  0  0  0  0  0  0
   -0.8879   -3.0021   -1.6772 S   0  0  0  0  0  0  0  0  0  0  0  0
   -0.2556   -1.8546   -2.7156 C   0  0  0  0  0  0  0  0  0  0  0  0
   -0.4842   -0.5147   -2.9566 C   0  0  0  0  0  0  0  0  0  0  0  0
   -1.3705    0.3828   -2.4667 N   0  0  0  0  0  0  0  0  0  0  0  0
   -0.8552    1.5876   -2.8680 C   0  0  0  0  0  0  0  0  0  0  0  0
   -1.2330    2.9077   -2.5133 C   0  0  0  0  0  0  0  0  0  0  0  0
   -1.9148    3.3325   -1.4022 N   0  0  0  0  0  0  0  0  0  0  0  0
   -2.0823    2.6134   -0.1278 C   0  0  0  0  0  0  0  0  0  0  0  0
   -3.5232    2.7174    0.3747 C   0  0  0  0  0  0  0  0  0  0  0  0
   -2.7494    0.0741   -2.0620 C   0  0  0  0  0  0  0  0  0  0  0  0
   -3.4937   -0.6935   -3.1547 C   0  0  0  0  0  0  0  0  0  0  0  0
    0.5715   -5.3237   -1.1376 C   0  0  0  0  0  0  0  0  0  0  0  0
   -0.3775   -6.2642   -0.9791 C   0  0  0  0  0  0  0  0  0  0  0  0
   -1.6682   -6.3020   -1.6794 C   0  0  0  0  0  0  0  0  0  0  0  0
   -1.9386   -5.7361   -2.7736 O   0  0  0  0  0  0  0  0  0  0  0  0
   -2.5797   -7.1311   -0.9234 C   0  0  0  0  0  0  0  0  0  0  0  0
   -3.9626   -7.3071   -1.1559 C   0  0  0  0  0  0  0  0  0  0  0  0
   -4.6104   -8.0054   -0.1540 C   0  0  0  0  0  0  0  0  0  0  0  0
   -3.9457   -8.4884    1.0187 C   0  0  0  0  0  0  0  0  0  0  0  0
   -2.5863   -8.3369    1.2412 C   0  0  0  0  0  0  0  0  0  0  0  0
   -1.8928   -7.6599    0.1998 C   0  0  0  0  0  0  0  0  0  0  0  0
   -0.4571   -7.2737    0.1184 C   0  0  0  0  0  0  0  0  0  0  0  0
    0.5798   -7.8768    0.7544 C   0  0  0  0  0  0  0  0  0  0  0  0
    0.3871   -8.9325    1.7150 C   0  0  0  0  0  0  0  0  0  0  0  0
    0.2456   -9.7826    2.4898 N   0  0  0  0  0  0  0  0  0  0  0  0
    1.9539   -7.5983    0.4240 C   0  0  0  0  0  0  0  0  0  0  0  0
    3.0617   -7.3812    0.1642 N   0  0  0  0  0  0  0  0  0  0  0  0
   -5.2519   -8.9655    1.5816 C   0  0  0  0  0  0  0  0  0  0  0  0
   -5.9155   -8.1133    2.7086 C   0  0  0  0  0  0  0  0  0  0  0  0
   -5.5723   -6.6487    2.5290 C   0  0  0  0  0  0  0  0  0  0  0  0
   -6.2022   -6.2400    1.4270 C   0  0  0  0  0  0  0  0  0  0  0  0
   -6.9451   -7.4422    0.8872 C   0  0  0  0  0  0  0  0  0  0  0  0
   -7.3462   -8.0856    2.2026 C   0  0  0  0  0  0  0  0  0  0  0  0
   -5.9281   -8.5031    0.3638 C   0  0  0  0  0  0  0  0  0  0  0  0
   -0.8132    8.6014   -0.0825 H   0  0  0  0  0  0  0  0  0  0  0  0
    2.9505    4.1594    2.2559 H   0  0  0  0  0  0  0  0  0  0  0  0
    4.5073    3.4581    4.0568 H   0  0  0  0  0  0  0  0  0  0  0  0
    5.7898    3.9992    6.0897 H   0  0  0  0  0  0  0  0  0  0  0  0
    4.5063    8.0875    5.8792 H   0  0  0  0  0  0  0  0  0  0  0  0
    2.9830    8.7975    4.0936 H   0  0  0  0  0  0  0  0  0  0  0  0
   -2.0644    5.4833    0.5839 H   0  0  0  0  0  0  0  0  0  0  0  0
    0.3090    6.9587   -4.0500 H   0  0  0  0  0  0  0  0  0  0  0  0
    0.3425    8.1733   -2.7668 H   0  0  0  0  0  0  0  0  0  0  0  0
    2.0367    5.6211   -2.4667 H   0  0  0  0  0  0  0  0  0  0  0  0
    2.6218    7.0610   -3.3879 H   0  0  0  0  0  0  0  0  0  0  0  0
    2.2182    7.2128   -1.6442 H   0  0  0  0  0  0  0  0  0  0  0  0
    2.6808   -5.2293   -2.9897 H   0  0  0  0  0  0  0  0  0  0  0  0
    3.0362   -3.8623   -4.0969 H   0  0  0  0  0  0  0  0  0  0  0  0
    4.7171   -3.9615   -2.2751 H   0  0  0  0  0  0  0  0  0  0  0  0
    3.4181   -3.8476   -1.0261 H   0  0  0  0  0  0  0  0  0  0  0  0
    3.7444   -2.4519   -2.1285 H   0  0  0  0  0  0  0  0  0  0  0  0
   -1.4031    3.0475    0.6378 H   0  0  0  0  0  0  0  0  0  0  0  0
   -1.7798    1.5558   -0.2082 H   0  0  0  0  0  0  0  0  0  0  0  0
   -3.7524    3.7567    0.6882 H   0  0  0  0  0  0  0  0  0  0  0  0
   -3.6619    2.0454    1.2488 H   0  0  0  0  0  0  0  0  0  0  0  0
   -4.2436    2.4235   -0.4166 H   0  0  0  0  0  0  0  0  0  0  0  0
   -3.3157    1.0080   -1.9001 H   0  0  0  0  0  0  0  0  0  0  0  0
   -2.7436   -0.5214   -1.1238 H   0  0  0  0  0  0  0  0  0  0  0  0
   -3.4531   -0.1319   -4.1136 H   0  0  0  0  0  0  0  0  0  0  0  0
   -4.5580   -0.8194   -2.8597 H   0  0  0  0  0  0  0  0  0  0  0  0
   -3.0537   -1.7008   -3.3020 H   0  0  0  0  0  0  0  0  0  0  0  0
    1.4656   -5.3365   -0.5400 H   0  0  0  0  0  0  0  0  0  0  0  0
   -4.4815   -6.8838   -2.0082 H   0  0  0  0  0  0  0  0  0  0  0  0
   -2.1370   -8.6596    2.1669 H   0  0  0  0  0  0  0  0  0  0  0  0
   -5.3039  -10.0666    1.7340 H   0  0  0  0  0  0  0  0  0  0  0  0
   -5.7797   -8.5021    3.7403 H   0  0  0  0  0  0  0  0  0  0  0  0
   -5.0007   -6.0194    3.2024 H   0  0  0  0  0  0  0  0  0  0  0  0
   -6.2299   -5.2243    1.0484 H   0  0  0  0  0  0  0  0  0  0  0  0
   -7.7819   -7.2079    0.1953 H   0  0  0  0  0  0  0  0  0  0  0  0
   -7.7981   -9.0996    2.0853 H   0  0  0  0  0  0  0  0  0  0  0  0
   -8.0230   -7.4441    2.8182 H   0  0  0  0  0  0  0  0  0  0  0  0
   -6.3720   -9.3285   -0.2384 H   0  0  0  0  0  0  0  0  0  0  0  0
  1  2  2  3
  2  3  1  0
  3  4  2  0
  3  5  1  0
  5  6  2  0
  6  7  1  0
  7  8  2  0
  8  9  1  0
  9 10  2  0
 10 11  1  0
 10 12  1  0
 12 13  2  0
 13 14  1  0
 14 15  2  0
 15 16  1  0
 16 17  2  3
 17 18  1  0
 18 19  3  0
 17 20  1  0
 20 21  3  0
  1 22  1  0
 22 23  2  0
 23 24  1  0
 24 25  2  0
 25 26  1  0
 26 27  1  0
 27 28  1  0
 25 29  1  0
 29 30  1  0
 30 31  1  0
 31 32  2  0
 32 33  1  0
 33 34  1  0
 31 35  1  0
 35 36  1  0
 36 37  1  0
 37 38  1  0
 38 39  1  0
 39 40  1  0
 40 41  1  0
 39 42  2  0
 42 43  1  0
 43 44  1  0
 44 45  1  0
 45 46  1  0
 46 47  1  0
 47 48  1  0
 48 49  1  0
 49 50  1  0
 50 51  1  0
 46 52  1  0
 52 53  1  0
 42 54  1  0
 54 55  2  3
 55 56  1  0
 56 57  2  0
 56 58  1  0
 58 59  2  0
 59 60  1  0
 60 61  2  0
 61 62  1  0
 62 63  2  0
 63 64  1  0
 64 65  2  3
 65 66  1  0
 66 67  3  0
 65 68  1  0
 68 69  3  0
 61 70  1  0
 70 71  1  0
 71 72  1  0
 72 73  2  0
 73 74  1  0
 74 75  1  0
 74 76  1  0
 16  2  1  0
 26 22  1  0
 48 29  2  0
 64 55  1  0
 76 70  1  0
 15  5  1  0
 49 24  1  0
 63 58  1  0
 75 71  1  0
 13  7  1  0
 34 30  2  0
 47 35  2  0
 76 60  1  0
 45 36  2  0
 44 38  2  0
  1 77  1  0
  6 78  1  0
  8 79  1  0
  9 80  1  0
 12 81  1  0
 14 82  1  0
 23 83  1  0
 27 84  1  0
 27 85  1  0
 28 86  1  0
 28 87  1  0
 28 88  1  0
 40 89  1  0
 40 90  1  0
 41 91  1  0
 41 92  1  0
 41 93  1  0
 50 94  1  0
 50 95  1  0
 51 96  1  0
 51 97  1  0
 51 98  1  0
 52 99  1  0
 52100  1  0
 53101  1  0
 53102  1  0
 53103  1  0
 54104  1  0
 59105  1  0
 62106  1  0
 70107  1  0
 71108  1  0
 72109  1  0
 73110  1  0
 74111  1  0
 75112  1  0
 75113  1  0
 76114  1  0
M  END

