
     RDKit          3D

123137  0  0  0  0  0  0  0  0999 V2000
   -2.6721    1.8047   -6.1353 C   0  0  0  0  0  0  0  0  0  0  0  0
   -3.5193    1.3870   -5.1741 C   0  0  0  0  0  0  0  0  0  0  0  0
   -3.1788    1.1858   -3.7578 C   0  0  0  0  0  0  0  0  0  0  0  0
   -2.1462    1.6065   -3.1686 O   0  0  0  0  0  0  0  0  0  0  0  0
   -4.1800    0.3376   -3.1595 C   0  0  0  0  0  0  0  0  0  0  0  0
   -4.1596   -0.2389   -1.8880 C   0  0  0  0  0  0  0  0  0  0  0  0
   -5.1736   -1.1497   -1.5538 C   0  0  0  0  0  0  0  0  0  0  0  0
   -5.2009   -1.7528   -0.2860 C   0  0  0  0  0  0  0  0  0  0  0  0
   -6.2127   -2.6616    0.0396 C   0  0  0  0  0  0  0  0  0  0  0  0
   -7.2010   -2.9848   -0.8979 C   0  0  0  0  0  0  0  0  0  0  0  0
   -8.1602   -3.8914   -0.5858 F   0  0  0  0  0  0  0  0  0  0  0  0
   -7.1812   -2.3993   -2.1694 C   0  0  0  0  0  0  0  0  0  0  0  0
   -6.1757   -1.4801   -2.5099 C   0  0  0  0  0  0  0  0  0  0  0  0
   -6.1485   -0.8929   -3.7925 C   0  0  0  0  0  0  0  0  0  0  0  0
   -5.1530    0.0443   -4.0947 C   0  0  0  0  0  0  0  0  0  0  0  0
   -4.8694    0.7723   -5.3651 C   0  0  0  0  0  0  0  0  0  0  0  0
   -5.7453    1.0557   -6.3548 C   0  0  0  0  0  0  0  0  0  0  0  0
   -7.0797    0.5107   -6.3901 C   0  0  0  0  0  0  0  0  0  0  0  0
   -8.1494    0.0678   -6.4316 N   0  0  0  0  0  0  0  0  0  0  0  0
   -5.4491    2.0246   -7.3819 C   0  0  0  0  0  0  0  0  0  0  0  0
   -5.2037    2.8024   -8.2023 N   0  0  0  0  0  0  0  0  0  0  0  0
   -1.3605    2.3874   -5.8314 C   0  0  0  0  0  0  0  0  0  0  0  0
   -1.1676    3.6724   -5.2968 C   0  0  0  0  0  0  0  0  0  0  0  0
   -2.2443    4.6806   -5.1580 C   0  0  0  0  0  0  0  0  0  0  0  0
   -3.0500    4.9905   -6.2670 C   0  0  0  0  0  0  0  0  0  0  0  0
   -4.1197    5.8779   -6.1361 C   0  0  0  0  0  0  0  0  0  0  0  0
   -4.3823    6.4925   -4.8973 C   0  0  0  0  0  0  0  0  0  0  0  0
   -5.5500    7.4317   -4.7537 C   0  0  0  0  0  0  0  0  0  0  0  0
   -6.8021    6.6956   -4.2985 C   0  0  0  0  0  0  0  0  0  0  0  0
   -3.5969    6.1634   -3.7836 C   0  0  0  0  0  0  0  0  0  0  0  0
   -2.5355    5.2655   -3.9142 C   0  0  0  0  0  0  0  0  0  0  0  0
    0.1295    3.8091   -4.7961 C   0  0  0  0  0  0  0  0  0  0  0  0
    0.8359    4.9584   -3.7755 S   0  0  0  0  0  0  0  0  0  0  0  0
    2.1947    3.9797   -3.5081 C   0  0  0  0  0  0  0  0  0  0  0  0
    2.9699    3.7884   -2.3980 C   0  0  0  0  0  0  0  0  0  0  0  0
    2.9439    4.5064   -1.1935 C   0  0  0  0  0  0  0  0  0  0  0  0
    3.3933    3.8757    0.0051 C   0  0  0  0  0  0  0  0  0  0  0  0
    3.2958    4.5800    1.1569 N   0  0  0  0  0  0  0  0  0  0  0  0
    2.6148    5.9696    0.5715 S   0  0  0  0  0  0  0  0  0  0  0  0
    2.4230    5.7506   -1.0588 N   0  0  0  0  0  0  0  0  0  0  0  0
    3.9304    2.5937   -0.0889 C   0  0  0  0  0  0  0  0  0  0  0  0
    4.3311    1.7146    0.8764 C   0  0  0  0  0  0  0  0  0  0  0  0
    3.9030    1.4380    2.4941 S   0  0  0  0  0  0  0  0  0  0  0  0
    4.3275   -0.2077    2.3488 C   0  0  0  0  0  0  0  0  0  0  0  0
    4.1058   -1.3084    3.1681 C   0  0  0  0  0  0  0  0  0  0  0  0
    3.5845   -1.2027    4.5449 C   0  0  0  0  0  0  0  0  0  0  0  0
    4.2893   -1.7866    5.6109 C   0  0  0  0  0  0  0  0  0  0  0  0
    3.7658   -1.7251    6.9075 C   0  0  0  0  0  0  0  0  0  0  0  0
    2.5266   -1.0996    7.1512 C   0  0  0  0  0  0  0  0  0  0  0  0
    1.9614   -1.0449    8.5545 C   0  0  0  0  0  0  0  0  0  0  0  0
    2.2394    0.3240    9.1861 C   0  0  0  0  0  0  0  0  0  0  0  0
    1.8292   -0.5075    6.0852 C   0  0  0  0  0  0  0  0  0  0  0  0
    2.3592   -0.5512    4.7927 C   0  0  0  0  0  0  0  0  0  0  0  0
    4.3875   -2.5098    2.4838 C   0  0  0  0  0  0  0  0  0  0  0  0
    4.9010   -2.1663    0.8938 S   0  0  0  0  0  0  0  0  0  0  0  0
    4.7594   -0.5118    1.0834 C   0  0  0  0  0  0  0  0  0  0  0  0
    4.7356    0.5869    0.2347 C   0  0  0  0  0  0  0  0  0  0  0  0
    4.6162    0.6774   -1.1110 N   0  0  0  0  0  0  0  0  0  0  0  0
    4.0337    1.9031   -1.3044 C   0  0  0  0  0  0  0  0  0  0  0  0
    3.4187    2.4568   -2.4644 C   0  0  0  0  0  0  0  0  0  0  0  0
    2.8251    1.8075   -3.5206 N   0  0  0  0  0  0  0  0  0  0  0  0
    2.0978    2.7767   -4.1387 C   0  0  0  0  0  0  0  0  0  0  0  0
    0.9243    2.6903   -4.8988 C   0  0  0  0  0  0  0  0  0  0  0  0
    0.0495    1.4551   -5.6398 S   0  0  0  0  0  0  0  0  0  0  0  0
    2.5180    0.3747   -3.6462 C   0  0  0  0  0  0  0  0  0  0  0  0
    3.0578   -0.1915   -4.9619 C   0  0  0  0  0  0  0  0  0  0  0  0
    5.3000   -0.1731   -2.0941 C   0  0  0  0  0  0  0  0  0  0  0  0
    6.7834   -0.3024   -1.7699 C   0  0  0  0  0  0  0  0  0  0  0  0
    4.1828   -3.8762    2.9994 C   0  0  0  0  0  0  0  0  0  0  0  0
    3.0436   -4.2727    3.5940 C   0  0  0  0  0  0  0  0  0  0  0  0
    3.0237   -5.2589    4.6758 C   0  0  0  0  0  0  0  0  0  0  0  0
    3.9043   -6.1231    4.9027 O   0  0  0  0  0  0  0  0  0  0  0  0
    1.8605   -5.0034    5.5043 C   0  0  0  0  0  0  0  0  0  0  0  0
    1.5343   -5.5568    6.7466 C   0  0  0  0  0  0  0  0  0  0  0  0
    0.4468   -5.0141    7.4493 C   0  0  0  0  0  0  0  0  0  0  0  0
    0.1035   -5.5452    8.6518 F   0  0  0  0  0  0  0  0  0  0  0  0
   -0.2648   -3.9145    6.9247 C   0  0  0  0  0  0  0  0  0  0  0  0
   -1.2748   -3.3604    7.6364 F   0  0  0  0  0  0  0  0  0  0  0  0
    0.0940   -3.3644    5.6820 C   0  0  0  0  0  0  0  0  0  0  0  0
    1.1395   -3.9546    4.9579 C   0  0  0  0  0  0  0  0  0  0  0  0
    1.7443   -3.5534    3.6681 C   0  0  0  0  0  0  0  0  0  0  0  0
    1.0880   -2.9958    2.6217 C   0  0  0  0  0  0  0  0  0  0  0  0
   -0.2476   -2.4748    2.7372 C   0  0  0  0  0  0  0  0  0  0  0  0
   -1.3241   -2.0577    2.8242 N   0  0  0  0  0  0  0  0  0  0  0  0
    1.5813   -3.1300    1.2788 C   0  0  0  0  0  0  0  0  0  0  0  0
    1.9565   -3.2568    0.1898 N   0  0  0  0  0  0  0  0  0  0  0  0
   -2.9300    1.7321   -7.1815 H   0  0  0  0  0  0  0  0  0  0  0  0
   -3.3629   -0.0088   -1.1943 H   0  0  0  0  0  0  0  0  0  0  0  0
   -4.4495   -1.5107    0.4552 H   0  0  0  0  0  0  0  0  0  0  0  0
   -6.2308   -3.1254    1.0199 H   0  0  0  0  0  0  0  0  0  0  0  0
   -7.9418   -2.6658   -2.8930 H   0  0  0  0  0  0  0  0  0  0  0  0
   -6.8663   -1.2040   -4.5311 H   0  0  0  0  0  0  0  0  0  0  0  0
   -2.8414    4.5447   -7.2319 H   0  0  0  0  0  0  0  0  0  0  0  0
   -4.7323    6.0935   -7.0072 H   0  0  0  0  0  0  0  0  0  0  0  0
   -5.3028    8.2228   -4.0118 H   0  0  0  0  0  0  0  0  0  0  0  0
   -5.7472    7.9353   -5.7330 H   0  0  0  0  0  0  0  0  0  0  0  0
   -7.6598    7.3967   -4.2930 H   0  0  0  0  0  0  0  0  0  0  0  0
   -6.6681    6.2970   -3.2698 H   0  0  0  0  0  0  0  0  0  0  0  0
   -7.0544    5.8676   -4.9892 H   0  0  0  0  0  0  0  0  0  0  0  0
   -3.8121    6.5872   -2.8116 H   0  0  0  0  0  0  0  0  0  0  0  0
   -1.9498    4.9975   -3.0417 H   0  0  0  0  0  0  0  0  0  0  0  0
    5.2307   -2.3006    5.4369 H   0  0  0  0  0  0  0  0  0  0  0  0
    4.3299   -2.1711    7.7295 H   0  0  0  0  0  0  0  0  0  0  0  0
    2.4130   -1.8348    9.1991 H   0  0  0  0  0  0  0  0  0  0  0  0
    0.8676   -1.2368    8.5314 H   0  0  0  0  0  0  0  0  0  0  0  0
    1.7479    1.1239    8.5946 H   0  0  0  0  0  0  0  0  0  0  0  0
    3.3370    0.5457    9.2164 H   0  0  0  0  0  0  0  0  0  0  0  0
    1.8500    0.3502   10.2216 H   0  0  0  0  0  0  0  0  0  0  0  0
    0.8782   -0.0182    6.2645 H   0  0  0  0  0  0  0  0  0  0  0  0
    1.7840   -0.1230    3.9744 H   0  0  0  0  0  0  0  0  0  0  0  0
    2.8677   -0.2157   -2.7856 H   0  0  0  0  0  0  0  0  0  0  0  0
    1.4222    0.2308   -3.6136 H   0  0  0  0  0  0  0  0  0  0  0  0
    2.7714   -1.2578   -5.0567 H   0  0  0  0  0  0  0  0  0  0  0  0
    4.1624   -0.1223   -5.0108 H   0  0  0  0  0  0  0  0  0  0  0  0
    2.6441    0.3636   -5.8350 H   0  0  0  0  0  0  0  0  0  0  0  0
    5.2314    0.2829   -3.1064 H   0  0  0  0  0  0  0  0  0  0  0  0
    4.8340   -1.1834   -2.1004 H   0  0  0  0  0  0  0  0  0  0  0  0
    7.2908   -0.8716   -2.5772 H   0  0  0  0  0  0  0  0  0  0  0  0
    6.9281   -0.8682   -0.8197 H   0  0  0  0  0  0  0  0  0  0  0  0
    7.2390    0.7081   -1.6829 H   0  0  0  0  0  0  0  0  0  0  0  0
    5.0462   -4.5415    3.0110 H   0  0  0  0  0  0  0  0  0  0  0  0
    2.1362   -6.3563    7.1779 H   0  0  0  0  0  0  0  0  0  0  0  0
   -0.4177   -2.4880    5.3173 H   0  0  0  0  0  0  0  0  0  0  0  0
  1  2  2  3
  2  3  1  0
  3  4  2  0
  3  5  1  0
  5  6  2  0
  6  7  1  0
  7  8  2  0
  8  9  1  0
  9 10  2  0
 10 11  1  0
 10 12  1  0
 12 13  2  0
 13 14  1  0
 14 15  2  0
 15 16  1  0
 16 17  2  3
 17 18  1  0
 18 19  3  0
 17 20  1  0
 20 21  3  0
  1 22  1  0
 22 23  2  0
 23 24  1  0
 24 25  2  0
 25 26  1  0
 26 27  2  0
 27 28  1  0
 28 29  1  0
 27 30  1  0
 30 31  2  0
 23 32  1  0
 32 33  1  0
 33 34  1  0
 34 35  1  0
 35 36  1  0
 36 37  1  0
 37 38  2  0
 38 39  1  0
 39 40  1  0
 37 41  1  0
 41 42  1  0
 42 43  1  0
 43 44  1  0
 44 45  1  0
 45 46  1  0
 46 47  2  0
 47 48  1  0
 48 49  2  0
 49 50  1  0
 50 51  1  0
 49 52  1  0
 52 53  2  0
 45 54  2  0
 54 55  1  0
 55 56  1  0
 56 57  1  0
 57 58  1  0
 58 59  1  0
 59 60  1  0
 60 61  1  0
 61 62  1  0
 62 63  1  0
 63 64  1  0
 61 65  1  0
 65 66  1  0
 58 67  1  0
 67 68  1  0
 54 69  1  0
 69 70  2  3
 70 71  1  0
 71 72  2  0
 71 73  1  0
 73 74  2  0
 74 75  1  0
 75 76  1  0
 75 77  2  0
 77 78  1  0
 77 79  1  0
 79 80  2  0
 80 81  1  0
 81 82  2  3
 82 83  1  0
 83 84  3  0
 82 85  1  0
 85 86  3  0
 16  2  1  0
 64 22  1  0
 81 70  1  0
 15  5  1  0
 31 24  1  0
 63 32  2  0
 80 73  1  0
 13  7  1  0
 62 34  2  0
 60 35  2  0
 40 36  2  0
 59 41  2  0
 57 42  2  0
 56 44  2  0
 53 46  1  0
  1 87  1  0
  6 88  1  0
  8 89  1  0
  9 90  1  0
 12 91  1  0
 14 92  1  0
 25 93  1  0
 26 94  1  0
 28 95  1  0
 28 96  1  0
 29 97  1  0
 29 98  1  0
 29 99  1  0
 30100  1  0
 31101  1  0
 47102  1  0
 48103  1  0
 50104  1  0
 50105  1  0
 51106  1  0
 51107  1  0
 51108  1  0
 52109  1  0
 53110  1  0
 65111  1  0
 65112  1  0
 66113  1  0
 66114  1  0
 66115  1  0
 67116  1  0
 67117  1  0
 68118  1  0
 68119  1  0
 68120  1  0
 69121  1  0
 74122  1  0
 79123  1  0
M  END

