
     RDKit          3D

105117  0  0  0  0  0  0  0  0999 V2000
    2.7100   -5.4370    2.8418 C   0  0  0  0  0  0  0  0  0  0  0  0
    2.2927   -5.8357    1.6245 C   0  0  0  0  0  0  0  0  0  0  0  0
    1.4850   -5.0350    0.6921 C   0  0  0  0  0  0  0  0  0  0  0  0
    0.8855   -3.9578    0.9416 O   0  0  0  0  0  0  0  0  0  0  0  0
    1.4963   -5.6860   -0.5938 C   0  0  0  0  0  0  0  0  0  0  0  0
    0.9657   -5.2076   -1.7893 C   0  0  0  0  0  0  0  0  0  0  0  0
    1.2002   -5.9405   -2.9635 C   0  0  0  0  0  0  0  0  0  0  0  0
    0.6951   -5.4912   -4.1914 C   0  0  0  0  0  0  0  0  0  0  0  0
    0.9614   -6.1992   -5.3658 C   0  0  0  0  0  0  0  0  0  0  0  0
    1.7480   -7.3532   -5.3302 C   0  0  0  0  0  0  0  0  0  0  0  0
    2.0190   -8.0254   -6.4778 F   0  0  0  0  0  0  0  0  0  0  0  0
    2.2510   -7.8235   -4.1129 C   0  0  0  0  0  0  0  0  0  0  0  0
    1.9791   -7.1297   -2.9194 C   0  0  0  0  0  0  0  0  0  0  0  0
    2.5043   -7.5822   -1.6931 C   0  0  0  0  0  0  0  0  0  0  0  0
    2.2289   -6.8580   -0.5202 C   0  0  0  0  0  0  0  0  0  0  0  0
    2.6653   -7.0874    0.8879 C   0  0  0  0  0  0  0  0  0  0  0  0
    3.1151   -8.2581    1.4155 C   0  0  0  0  0  0  0  0  0  0  0  0
    3.3274   -9.4387    0.6195 C   0  0  0  0  0  0  0  0  0  0  0  0
    3.5186  -10.3890   -0.0242 N   0  0  0  0  0  0  0  0  0  0  0  0
    3.3568   -8.4430    2.8208 C   0  0  0  0  0  0  0  0  0  0  0  0
    3.5734   -8.5985    3.9414 N   0  0  0  0  0  0  0  0  0  0  0  0
    2.3385   -4.1522    3.4458 C   0  0  0  0  0  0  0  0  0  0  0  0
    1.5406   -3.9646    4.5987 C   0  0  0  0  0  0  0  0  0  0  0  0
    0.8245   -4.9468    5.3008 O   0  0  0  0  0  0  0  0  0  0  0  0
    0.2551   -6.1249    4.7258 C   0  0  0  0  0  0  0  0  0  0  0  0
   -0.8606   -5.7527    3.7507 C   0  0  0  0  0  0  0  0  0  0  0  0
    1.4718   -2.6169    4.9433 C   0  0  0  0  0  0  0  0  0  0  0  0
    0.4346   -1.7393    5.9872 S   0  0  0  0  0  0  0  0  0  0  0  0
    0.9336   -0.2730    5.2907 C   0  0  0  0  0  0  0  0  0  0  0  0
    0.4995    1.0232    5.2059 C   0  0  0  0  0  0  0  0  0  0  0  0
   -0.4251    1.7574    5.9594 C   0  0  0  0  0  0  0  0  0  0  0  0
   -0.7464    3.0867    5.5450 C   0  0  0  0  0  0  0  0  0  0  0  0
   -1.6634    3.7559    6.2931 N   0  0  0  0  0  0  0  0  0  0  0  0
   -1.9730    2.6066    7.4498 S   0  0  0  0  0  0  0  0  0  0  0  0
   -1.0364    1.2903    7.0791 N   0  0  0  0  0  0  0  0  0  0  0  0
   -0.1747    3.5834    4.3600 C   0  0  0  0  0  0  0  0  0  0  0  0
   -0.5512    4.6353    3.5709 C   0  0  0  0  0  0  0  0  0  0  0  0
   -1.7593    5.8337    3.5547 S   0  0  0  0  0  0  0  0  0  0  0  0
   -1.5645    6.0750    1.8740 C   0  0  0  0  0  0  0  0  0  0  0  0
   -2.1626    6.8932    0.9064 C   0  0  0  0  0  0  0  0  0  0  0  0
   -3.0834    7.9108    1.1581 O   0  0  0  0  0  0  0  0  0  0  0  0
   -4.4341    7.6676    1.5445 C   0  0  0  0  0  0  0  0  0  0  0  0
   -4.6336    7.9180    3.0339 C   0  0  0  0  0  0  0  0  0  0  0  0
   -1.6805    6.5940   -0.3774 C   0  0  0  0  0  0  0  0  0  0  0  0
   -0.5216    5.3571   -0.2894 S   0  0  0  0  0  0  0  0  0  0  0  0
   -0.6246    5.2050    1.3695 C   0  0  0  0  0  0  0  0  0  0  0  0
   -0.0261    4.4147    2.3396 C   0  0  0  0  0  0  0  0  0  0  0  0
    0.7205    3.2847    2.2708 N   0  0  0  0  0  0  0  0  0  0  0  0
    0.6833    2.7982    3.5569 C   0  0  0  0  0  0  0  0  0  0  0  0
    1.1220    1.5475    4.0612 C   0  0  0  0  0  0  0  0  0  0  0  0
    2.0081    0.6469    3.5291 N   0  0  0  0  0  0  0  0  0  0  0  0
    1.8249   -0.4567    4.2880 C   0  0  0  0  0  0  0  0  0  0  0  0
    2.1618   -1.7824    4.1022 C   0  0  0  0  0  0  0  0  0  0  0  0
    2.9107   -2.6498    2.8781 S   0  0  0  0  0  0  0  0  0  0  0  0
    3.2179    0.9213    2.7403 C   0  0  0  0  0  0  0  0  0  0  0  0
    4.4826    0.8400    3.5972 C   0  0  0  0  0  0  0  0  0  0  0  0
    0.9883    2.5558    1.0228 C   0  0  0  0  0  0  0  0  0  0  0  0
    2.1629    3.1738    0.2534 C   0  0  0  0  0  0  0  0  0  0  0  0
   -1.9654    7.2853   -1.6308 C   0  0  0  0  0  0  0  0  0  0  0  0
   -2.5995    6.6234   -2.6007 C   0  0  0  0  0  0  0  0  0  0  0  0
   -3.8717    5.9176   -2.4109 C   0  0  0  0  0  0  0  0  0  0  0  0
   -4.4196    5.6741   -1.3007 O   0  0  0  0  0  0  0  0  0  0  0  0
   -4.4904    5.7310   -3.7150 C   0  0  0  0  0  0  0  0  0  0  0  0
   -5.7899    5.2990   -4.0253 C   0  0  0  0  0  0  0  0  0  0  0  0
   -6.9237    4.7571   -2.7883 Cl  0  0  0  0  0  0  0  0  0  0  0  0
   -6.2024    5.3512   -5.3634 C   0  0  0  0  0  0  0  0  0  0  0  0
   -5.3396    5.8411   -6.3600 C   0  0  0  0  0  0  0  0  0  0  0  0
   -4.0550    6.3066   -6.0281 C   0  0  0  0  0  0  0  0  0  0  0  0
   -3.6335    6.2352   -4.6957 C   0  0  0  0  0  0  0  0  0  0  0  0
   -2.3810    6.7366   -4.0655 C   0  0  0  0  0  0  0  0  0  0  0  0
   -1.1847    6.9390   -4.6795 C   0  0  0  0  0  0  0  0  0  0  0  0
   -1.0057    6.8067   -6.0994 C   0  0  0  0  0  0  0  0  0  0  0  0
   -0.8472    6.7099   -7.2400 N   0  0  0  0  0  0  0  0  0  0  0  0
    0.0192    7.1982   -3.9288 C   0  0  0  0  0  0  0  0  0  0  0  0
    0.9936    7.4045   -3.3351 N   0  0  0  0  0  0  0  0  0  0  0  0
    3.3769   -6.0444    3.4257 H   0  0  0  0  0  0  0  0  0  0  0  0
    0.4081   -4.2778   -1.8151 H   0  0  0  0  0  0  0  0  0  0  0  0
    0.0966   -4.5916   -4.2485 H   0  0  0  0  0  0  0  0  0  0  0  0
    0.5640   -5.8515   -6.3111 H   0  0  0  0  0  0  0  0  0  0  0  0
    2.8501   -8.7256   -4.1019 H   0  0  0  0  0  0  0  0  0  0  0  0
    3.1363   -8.4578   -1.6896 H   0  0  0  0  0  0  0  0  0  0  0  0
   -0.1874   -6.7373    5.5460 H   0  0  0  0  0  0  0  0  0  0  0  0
    1.0150   -6.7623    4.2298 H   0  0  0  0  0  0  0  0  0  0  0  0
   -1.3615   -6.6744    3.3774 H   0  0  0  0  0  0  0  0  0  0  0  0
   -1.6146   -5.1061    4.2525 H   0  0  0  0  0  0  0  0  0  0  0  0
   -0.4385   -5.2055    2.8909 H   0  0  0  0  0  0  0  0  0  0  0  0
   -5.0831    8.3749    0.9867 H   0  0  0  0  0  0  0  0  0  0  0  0
   -4.7434    6.6324    1.2799 H   0  0  0  0  0  0  0  0  0  0  0  0
   -4.0791    8.8327    3.3413 H   0  0  0  0  0  0  0  0  0  0  0  0
   -4.2665    7.0520    3.6161 H   0  0  0  0  0  0  0  0  0  0  0  0
   -5.7106    8.0711    3.2558 H   0  0  0  0  0  0  0  0  0  0  0  0
    3.1895    1.9412    2.3406 H   0  0  0  0  0  0  0  0  0  0  0  0
    3.2916    0.2025    1.8995 H   0  0  0  0  0  0  0  0  0  0  0  0
    4.5506   -0.1391    4.1057 H   0  0  0  0  0  0  0  0  0  0  0  0
    5.3744    0.9759    2.9481 H   0  0  0  0  0  0  0  0  0  0  0  0
    4.4791    1.6457    4.3546 H   0  0  0  0  0  0  0  0  0  0  0  0
    0.0804    2.5589    0.3893 H   0  0  0  0  0  0  0  0  0  0  0  0
    1.1840    1.4890    1.2220 H   0  0  0  0  0  0  0  0  0  0  0  0
    2.8606    3.6945    0.9430 H   0  0  0  0  0  0  0  0  0  0  0  0
    1.7998    3.9083   -0.4910 H   0  0  0  0  0  0  0  0  0  0  0  0
    2.7143    2.3741   -0.2897 H   0  0  0  0  0  0  0  0  0  0  0  0
   -1.2742    8.0795   -1.8845 H   0  0  0  0  0  0  0  0  0  0  0  0
   -7.2002    5.0300   -5.6284 H   0  0  0  0  0  0  0  0  0  0  0  0
   -5.6802    5.9031   -7.3855 H   0  0  0  0  0  0  0  0  0  0  0  0
   -3.4464    6.7471   -6.8029 H   0  0  0  0  0  0  0  0  0  0  0  0
  1  2  2  3
  2  3  1  0
  3  4  2  0
  3  5  1  0
  5  6  2  0
  6  7  1  0
  7  8  2  0
  8  9  1  0
  9 10  2  0
 10 11  1  0
 10 12  1  0
 12 13  2  0
 13 14  1  0
 14 15  2  0
 15 16  1  0
 16 17  2  3
 17 18  1  0
 18 19  3  0
 17 20  1  0
 20 21  3  0
  1 22  1  0
 22 23  2  0
 23 24  1  0
 24 25  1  0
 25 26  1  0
 23 27  1  0
 27 28  1  0
 28 29  1  0
 29 30  1  0
 30 31  1  0
 31 32  1  0
 32 33  2  0
 33 34  1  0
 34 35  1  0
 32 36  1  0
 36 37  1  0
 37 38  1  0
 38 39  1  0
 39 40  1  0
 40 41  1  0
 41 42  1  0
 42 43  1  0
 40 44  2  0
 44 45  1  0
 45 46  1  0
 46 47  1  0
 47 48  1  0
 48 49  1  0
 49 50  1  0
 50 51  1  0
 51 52  1  0
 52 53  1  0
 53 54  1  0
 51 55  1  0
 55 56  1  0
 48 57  1  0
 57 58  1  0
 44 59  1  0
 59 60  2  3
 60 61  1  0
 61 62  2  0
 61 63  1  0
 63 64  2  0
 64 65  1  0
 64 66  1  0
 66 67  2  0
 67 68  1  0
 68 69  2  0
 69 70  1  0
 70 71  2  3
 71 72  1  0
 72 73  3  0
 71 74  1  0
 74 75  3  0
 16  2  1  0
 54 22  1  0
 70 60  1  0
 15  5  1  0
 53 27  2  0
 69 63  1  0
 13  7  1  0
 52 29  2  0
 50 30  2  0
 35 31  2  0
 49 36  2  0
 47 37  2  0
 46 39  2  0
  1 76  1  0
  6 77  1  0
  8 78  1  0
  9 79  1  0
 12 80  1  0
 14 81  1  0
 25 82  1  0
 25 83  1  0
 26 84  1  0
 26 85  1  0
 26 86  1  0
 42 87  1  0
 42 88  1  0
 43 89  1  0
 43 90  1  0
 43 91  1  0
 55 92  1  0
 55 93  1  0
 56 94  1  0
 56 95  1  0
 56 96  1  0
 57 97  1  0
 57 98  1  0
 58 99  1  0
 58100  1  0
 58101  1  0
 59102  1  0
 66103  1  0
 67104  1  0
 68105  1  0
M  END

