
     RDKit          3D

184201  0  0  0  0  0  0  0  0999 V2000
    0.7860    0.4545   -9.5138 C   0  0  0  0  0  0  0  0  0  0  0  0
    1.8550    1.2343   -9.2550 C   0  0  0  0  0  0  0  0  0  0  0  0
    2.2857    1.6560   -7.9154 C   0  0  0  0  0  0  0  0  0  0  0  0
    1.9988    1.0850   -6.8273 O   0  0  0  0  0  0  0  0  0  0  0  0
    3.0607    2.8651   -8.0352 C   0  0  0  0  0  0  0  0  0  0  0  0
    3.5087    3.6981   -7.0155 C   0  0  0  0  0  0  0  0  0  0  0  0
    4.0623    4.9412   -7.3573 C   0  0  0  0  0  0  0  0  0  0  0  0
    4.5087    5.8211   -6.3571 C   0  0  0  0  0  0  0  0  0  0  0  0
    5.0139    7.0798   -6.7007 C   0  0  0  0  0  0  0  0  0  0  0  0
    5.0483    7.4795   -8.0388 C   0  0  0  0  0  0  0  0  0  0  0  0
    5.4924    8.7192   -8.3580 F   0  0  0  0  0  0  0  0  0  0  0  0
    4.6308    6.6057   -9.0495 C   0  0  0  0  0  0  0  0  0  0  0  0
    4.1429    5.3282   -8.7265 C   0  0  0  0  0  0  0  0  0  0  0  0
    3.7039    4.4452   -9.7366 C   0  0  0  0  0  0  0  0  0  0  0  0
    3.2077    3.1814   -9.3767 C   0  0  0  0  0  0  0  0  0  0  0  0
    2.5945    2.1124  -10.2120 C   0  0  0  0  0  0  0  0  0  0  0  0
    2.8321    1.8819  -11.5258 C   0  0  0  0  0  0  0  0  0  0  0  0
    2.3291    0.7177  -12.2068 C   0  0  0  0  0  0  0  0  0  0  0  0
    1.9294   -0.2132  -12.7719 N   0  0  0  0  0  0  0  0  0  0  0  0
    3.7515    2.6950  -12.2818 C   0  0  0  0  0  0  0  0  0  0  0  0
    4.4975    3.3307  -12.8989 N   0  0  0  0  0  0  0  0  0  0  0  0
   -0.2109    0.1605   -8.4692 C   0  0  0  0  0  0  0  0  0  0  0  0
   -0.8400    1.1453   -7.7240 C   0  0  0  0  0  0  0  0  0  0  0  0
   -1.4724    0.6517   -6.5826 C   0  0  0  0  0  0  0  0  0  0  0  0
   -1.9955    1.4506   -5.5618 C   0  0  0  0  0  0  0  0  0  0  0  0
   -2.0659    2.8400   -5.7127 O   0  0  0  0  0  0  0  0  0  0  0  0
   -3.2813    3.5752   -5.5822 C   0  0  0  0  0  0  0  0  0  0  0  0
   -4.1352    3.4123   -6.8295 C   0  0  0  0  0  0  0  0  0  0  0  0
   -2.3582    0.8068   -4.3710 C   0  0  0  0  0  0  0  0  0  0  0  0
   -2.6465    1.5497   -2.8819 S   0  0  0  0  0  0  0  0  0  0  0  0
   -2.7735    0.1021   -2.0581 C   0  0  0  0  0  0  0  0  0  0  0  0
   -2.4179   -0.2346   -0.7092 C   0  0  0  0  0  0  0  0  0  0  0  0
   -2.0175   -1.5708   -0.6983 C   0  0  0  0  0  0  0  0  0  0  0  0
   -2.2715   -2.2368   -2.0530 C   0  0  0  0  0  0  0  0  0  0  0  0
   -2.5368   -0.9719   -2.8752 C   0  0  0  0  0  0  0  0  0  0  0  0
   -2.2824   -0.5964   -4.2150 C   0  0  0  0  0  0  0  0  0  0  0  0
   -1.8708   -1.4097   -5.2986 C   0  0  0  0  0  0  0  0  0  0  0  0
   -1.4120   -0.7376   -6.4594 C   0  0  0  0  0  0  0  0  0  0  0  0
   -0.4917   -1.3355   -7.7435 S   0  0  0  0  0  0  0  0  0  0  0  0
   -1.9116   -2.8040   -5.1819 O   0  0  0  0  0  0  0  0  0  0  0  0
   -2.1577   -3.6957   -6.2679 C   0  0  0  0  0  0  0  0  0  0  0  0
   -2.5750   -5.0558   -5.7291 C   0  0  0  0  0  0  0  0  0  0  0  0
   -3.5552   -3.0901   -1.9618 C   0  0  0  0  0  0  0  0  0  0  0  0
   -3.7627   -3.9473   -0.8589 C   0  0  0  0  0  0  0  0  0  0  0  0
   -5.0092   -4.5479   -0.6353 C   0  0  0  0  0  0  0  0  0  0  0  0
   -6.0618   -4.3446   -1.5379 C   0  0  0  0  0  0  0  0  0  0  0  0
   -7.4390   -4.8843   -1.2324 C   0  0  0  0  0  0  0  0  0  0  0  0
   -7.4657   -6.4111   -1.2167 C   0  0  0  0  0  0  0  0  0  0  0  0
   -5.8358   -3.5800   -2.6888 C   0  0  0  0  0  0  0  0  0  0  0  0
   -4.5979   -2.9647   -2.9048 C   0  0  0  0  0  0  0  0  0  0  0  0
   -1.0162   -2.9775   -2.5120 C   0  0  0  0  0  0  0  0  0  0  0  0
   -0.9899   -4.3759   -2.6839 C   0  0  0  0  0  0  0  0  0  0  0  0
    0.1509   -5.0102   -3.1762 C   0  0  0  0  0  0  0  0  0  0  0  0
    1.2982   -4.2677   -3.4890 C   0  0  0  0  0  0  0  0  0  0  0  0
    2.4680   -4.9345   -4.1606 C   0  0  0  0  0  0  0  0  0  0  0  0
    2.3458   -4.8101   -5.6761 C   0  0  0  0  0  0  0  0  0  0  0  0
    1.3050   -2.8873   -3.2698 C   0  0  0  0  0  0  0  0  0  0  0  0
    0.1635   -2.2493   -2.7740 C   0  0  0  0  0  0  0  0  0  0  0  0
   -1.2745   -2.0740    0.3878 C   0  0  0  0  0  0  0  0  0  0  0  0
   -1.0144   -1.1955    1.4443 C   0  0  0  0  0  0  0  0  0  0  0  0
   -0.0624   -1.3052    2.5170 C   0  0  0  0  0  0  0  0  0  0  0  0
    0.0994   -0.1022    3.1430 C   0  0  0  0  0  0  0  0  0  0  0  0
   -0.9893    0.8786    2.6983 C   0  0  0  0  0  0  0  0  0  0  0  0
   -1.4687    0.1208    1.4565 C   0  0  0  0  0  0  0  0  0  0  0  0
   -2.1595    0.6366    0.3504 C   0  0  0  0  0  0  0  0  0  0  0  0
   -2.1784    0.8998    3.6861 C   0  0  0  0  0  0  0  0  0  0  0  0
   -2.1153    0.3193    4.9724 C   0  0  0  0  0  0  0  0  0  0  0  0
   -3.2705    0.1361    5.7366 C   0  0  0  0  0  0  0  0  0  0  0  0
   -4.5193    0.5264    5.2398 C   0  0  0  0  0  0  0  0  0  0  0  0
   -5.7746    0.1612    5.9859 C   0  0  0  0  0  0  0  0  0  0  0  0
   -6.4846    1.3986    6.5110 C   0  0  0  0  0  0  0  0  0  0  0  0
   -4.5871    1.2058    4.0228 C   0  0  0  0  0  0  0  0  0  0  0  0
   -3.4294    1.3943    3.2561 C   0  0  0  0  0  0  0  0  0  0  0  0
   -0.4336    2.2516    2.3164 C   0  0  0  0  0  0  0  0  0  0  0  0
    0.5512    2.3560    1.3116 C   0  0  0  0  0  0  0  0  0  0  0  0
    0.9921    3.6083    0.8655 C   0  0  0  0  0  0  0  0  0  0  0  0
    0.4792    4.7847    1.4296 C   0  0  0  0  0  0  0  0  0  0  0  0
    0.9494    6.1340    0.9548 C   0  0  0  0  0  0  0  0  0  0  0  0
    0.0275    6.6854   -0.1267 C   0  0  0  0  0  0  0  0  0  0  0  0
   -0.4992    4.6929    2.4278 C   0  0  0  0  0  0  0  0  0  0  0  0
   -0.9433    3.4488    2.8757 C   0  0  0  0  0  0  0  0  0  0  0  0
    1.0415   -0.1653    4.1875 C   0  0  0  0  0  0  0  0  0  0  0  0
    1.5087    0.8819    5.0058 C   0  0  0  0  0  0  0  0  0  0  0  0
    1.2181    2.2243    4.7272 O   0  0  0  0  0  0  0  0  0  0  0  0
    2.2561    3.1637    4.4257 C   0  0  0  0  0  0  0  0  0  0  0  0
    1.9891    4.4897    5.1257 C   0  0  0  0  0  0  0  0  0  0  0  0
    2.3476    0.5291    6.0770 C   0  0  0  0  0  0  0  0  0  0  0  0
    2.7830   -0.7774    6.2996 C   0  0  0  0  0  0  0  0  0  0  0  0
    2.3865   -1.8134    5.4404 C   0  0  0  0  0  0  0  0  0  0  0  0
    2.7965   -3.1261    5.6941 O   0  0  0  0  0  0  0  0  0  0  0  0
    3.6056   -3.8781    4.7980 C   0  0  0  0  0  0  0  0  0  0  0  0
    3.9119   -5.2326    5.4213 C   0  0  0  0  0  0  0  0  0  0  0  0
    1.5260   -1.4782    4.3707 C   0  0  0  0  0  0  0  0  0  0  0  0
    0.8491   -2.5280    3.2187 S   0  0  0  0  0  0  0  0  0  0  0  0
    3.6900   -0.8918    7.3633 C   0  0  0  0  0  0  0  0  0  0  0  0
    3.9328    0.3317    7.9951 C   0  0  0  0  0  0  0  0  0  0  0  0
    3.0565    1.5394    7.2174 S   0  0  0  0  0  0  0  0  0  0  0  0
    5.0451    0.6345    8.8908 C   0  0  0  0  0  0  0  0  0  0  0  0
    4.9799    0.5343   10.2261 C   0  0  0  0  0  0  0  0  0  0  0  0
    3.9767   -0.2253   10.9818 C   0  0  0  0  0  0  0  0  0  0  0  0
    2.9025   -0.7121   10.5346 O   0  0  0  0  0  0  0  0  0  0  0  0
    4.4842   -0.4090   12.3343 C   0  0  0  0  0  0  0  0  0  0  0  0
    3.9518   -1.1882   13.3710 C   0  0  0  0  0  0  0  0  0  0  0  0
    4.6956   -1.3223   14.5553 C   0  0  0  0  0  0  0  0  0  0  0  0
    4.0640   -2.2916   15.8761 Cl  0  0  0  0  0  0  0  0  0  0  0  0
    5.9542   -0.7004   14.6727 C   0  0  0  0  0  0  0  0  0  0  0  0
    6.6939   -0.8583   15.8029 F   0  0  0  0  0  0  0  0  0  0  0  0
    6.4637    0.0812   13.6223 C   0  0  0  0  0  0  0  0  0  0  0  0
    5.6961    0.2503   12.4653 C   0  0  0  0  0  0  0  0  0  0  0  0
    6.0210    0.9669   11.2063 C   0  0  0  0  0  0  0  0  0  0  0  0
    6.8666    2.0236   11.0731 C   0  0  0  0  0  0  0  0  0  0  0  0
    6.9447    2.8088    9.8729 C   0  0  0  0  0  0  0  0  0  0  0  0
    6.9864    3.4598    8.9103 N   0  0  0  0  0  0  0  0  0  0  0  0
    7.6267    2.5390   12.1816 C   0  0  0  0  0  0  0  0  0  0  0  0
    8.2385    2.9670   13.0650 N   0  0  0  0  0  0  0  0  0  0  0  0
    0.4859    0.2299  -10.5214 H   0  0  0  0  0  0  0  0  0  0  0  0
    3.3734    3.4149   -5.9783 H   0  0  0  0  0  0  0  0  0  0  0  0
    4.4570    5.5394   -5.3118 H   0  0  0  0  0  0  0  0  0  0  0  0
    5.3455    7.7531   -5.9242 H   0  0  0  0  0  0  0  0  0  0  0  0
    4.6600    6.9380  -10.0774 H   0  0  0  0  0  0  0  0  0  0  0  0
    3.7217    4.7684  -10.7650 H   0  0  0  0  0  0  0  0  0  0  0  0
   -0.7411    2.2019   -7.9369 H   0  0  0  0  0  0  0  0  0  0  0  0
   -3.8530    3.2483   -4.6914 H   0  0  0  0  0  0  0  0  0  0  0  0
   -3.0365    4.6520   -5.4505 H   0  0  0  0  0  0  0  0  0  0  0  0
   -5.1106    3.9245   -6.6873 H   0  0  0  0  0  0  0  0  0  0  0  0
   -4.3288    2.3326   -7.0294 H   0  0  0  0  0  0  0  0  0  0  0  0
   -3.6161    3.8562   -7.7068 H   0  0  0  0  0  0  0  0  0  0  0  0
   -2.9824   -3.2926   -6.9037 H   0  0  0  0  0  0  0  0  0  0  0  0
   -1.2362   -3.8237   -6.8717 H   0  0  0  0  0  0  0  0  0  0  0  0
   -3.3880   -4.9376   -4.9800 H   0  0  0  0  0  0  0  0  0  0  0  0
   -2.9321   -5.6965   -6.5595 H   0  0  0  0  0  0  0  0  0  0  0  0
   -1.7059   -5.5551   -5.2534 H   0  0  0  0  0  0  0  0  0  0  0  0
   -2.9725   -4.1270   -0.1461 H   0  0  0  0  0  0  0  0  0  0  0  0
   -5.1517   -5.1549    0.2461 H   0  0  0  0  0  0  0  0  0  0  0  0
   -7.7641   -4.5011   -0.2391 H   0  0  0  0  0  0  0  0  0  0  0  0
   -8.1818   -4.5269   -1.9871 H   0  0  0  0  0  0  0  0  0  0  0  0
   -6.8252   -6.8059   -0.4025 H   0  0  0  0  0  0  0  0  0  0  0  0
   -7.1210   -6.8278   -2.1894 H   0  0  0  0  0  0  0  0  0  0  0  0
   -8.5038   -6.7553   -1.0285 H   0  0  0  0  0  0  0  0  0  0  0  0
   -6.6361   -3.4330   -3.4069 H   0  0  0  0  0  0  0  0  0  0  0  0
   -4.5008   -2.3376   -3.7720 H   0  0  0  0  0  0  0  0  0  0  0  0
   -1.8552   -4.9908   -2.4796 H   0  0  0  0  0  0  0  0  0  0  0  0
    0.1245   -6.0817   -3.3573 H   0  0  0  0  0  0  0  0  0  0  0  0
    2.5105   -6.0131   -3.8859 H   0  0  0  0  0  0  0  0  0  0  0  0
    3.4190   -4.4568   -3.8301 H   0  0  0  0  0  0  0  0  0  0  0  0
    1.3890   -5.2508   -6.0353 H   0  0  0  0  0  0  0  0  0  0  0  0
    2.3849   -3.7422   -5.9851 H   0  0  0  0  0  0  0  0  0  0  0  0
    3.1885   -5.3459   -6.1648 H   0  0  0  0  0  0  0  0  0  0  0  0
    2.1720   -2.2946   -3.5235 H   0  0  0  0  0  0  0  0  0  0  0  0
    0.1939   -1.1770   -2.6311 H   0  0  0  0  0  0  0  0  0  0  0  0
   -0.8428   -3.0685    0.3661 H   0  0  0  0  0  0  0  0  0  0  0  0
   -2.3980    1.6852    0.2747 H   0  0  0  0  0  0  0  0  0  0  0  0
   -1.1926   -0.0566    5.3911 H   0  0  0  0  0  0  0  0  0  0  0  0
   -3.1879   -0.3658    6.6948 H   0  0  0  0  0  0  0  0  0  0  0  0
   -5.5393   -0.5099    6.8399 H   0  0  0  0  0  0  0  0  0  0  0  0
   -6.4541   -0.3949    5.3048 H   0  0  0  0  0  0  0  0  0  0  0  0
   -6.8702    2.0136    5.6718 H   0  0  0  0  0  0  0  0  0  0  0  0
   -7.3401    1.0805    7.1426 H   0  0  0  0  0  0  0  0  0  0  0  0
   -5.7929    2.0121    7.1292 H   0  0  0  0  0  0  0  0  0  0  0  0
   -5.5371    1.5375    3.6265 H   0  0  0  0  0  0  0  0  0  0  0  0
   -3.5264    1.8850    2.2965 H   0  0  0  0  0  0  0  0  0  0  0  0
    0.9509    1.4639    0.8493 H   0  0  0  0  0  0  0  0  0  0  0  0
    1.7439    3.6605    0.0852 H   0  0  0  0  0  0  0  0  0  0  0  0
    0.9838    6.8507    1.8032 H   0  0  0  0  0  0  0  0  0  0  0  0
    1.9816    6.0666    0.5524 H   0  0  0  0  0  0  0  0  0  0  0  0
    0.0416    6.0255   -1.0196 H   0  0  0  0  0  0  0  0  0  0  0  0
   -1.0138    6.7651    0.2531 H   0  0  0  0  0  0  0  0  0  0  0  0
    0.3666    7.6983   -0.4332 H   0  0  0  0  0  0  0  0  0  0  0  0
   -0.9086    5.5940    2.8691 H   0  0  0  0  0  0  0  0  0  0  0  0
   -1.6815    3.4275    3.6658 H   0  0  0  0  0  0  0  0  0  0  0  0
    3.2550    2.7890    4.7303 H   0  0  0  0  0  0  0  0  0  0  0  0
    2.2985    3.3281    3.3331 H   0  0  0  0  0  0  0  0  0  0  0  0
    1.9749    4.3430    6.2281 H   0  0  0  0  0  0  0  0  0  0  0  0
    1.0203    4.9120    4.7945 H   0  0  0  0  0  0  0  0  0  0  0  0
    2.8003    5.2085    4.8869 H   0  0  0  0  0  0  0  0  0  0  0  0
    3.0870   -4.0371    3.8308 H   0  0  0  0  0  0  0  0  0  0  0  0
    4.5653   -3.3343    4.6205 H   0  0  0  0  0  0  0  0  0  0  0  0
    2.9686   -5.7808    5.6228 H   0  0  0  0  0  0  0  0  0  0  0  0
    4.4638   -5.0939    6.3757 H   0  0  0  0  0  0  0  0  0  0  0  0
    4.5393   -5.8331    4.7257 H   0  0  0  0  0  0  0  0  0  0  0  0
    4.1986   -1.8124    7.6266 H   0  0  0  0  0  0  0  0  0  0  0  0
    5.9347    1.0145    8.4193 H   0  0  0  0  0  0  0  0  0  0  0  0
    3.0014   -1.6798   13.2562 H   0  0  0  0  0  0  0  0  0  0  0  0
    7.4610    0.4833   13.7134 H   0  0  0  0  0  0  0  0  0  0  0  0
  1  2  2  3
  2  3  1  0
  3  4  2  0
  3  5  1  0
  5  6  2  0
  6  7  1  0
  7  8  2  0
  8  9  1  0
  9 10  2  0
 10 11  1  0
 10 12  1  0
 12 13  2  0
 13 14  1  0
 14 15  2  0
 15 16  1  0
 16 17  2  3
 17 18  1  0
 18 19  3  0
 17 20  1  0
 20 21  3  0
  1 22  1  0
 22 23  2  0
 23 24  1  0
 24 25  2  0
 25 26  1  0
 26 27  1  0
 27 28  1  0
 25 29  1  0
 29 30  1  0
 30 31  1  0
 31 32  1  0
 32 33  2  0
 33 34  1  0
 34 35  1  0
 35 36  1  0
 36 37  1  0
 37 38  2  0
 38 39  1  0
 37 40  1  0
 40 41  1  0
 41 42  1  0
 34 43  1  0
 43 44  2  0
 44 45  1  0
 45 46  2  0
 46 47  1  0
 47 48  1  0
 46 49  1  0
 49 50  2  0
 34 51  1  0
 51 52  2  0
 52 53  1  0
 53 54  2  0
 54 55  1  0
 55 56  1  0
 54 57  1  0
 57 58  2  0
 33 59  1  0
 59 60  2  0
 60 61  1  0
 61 62  2  0
 62 63  1  0
 63 64  1  0
 64 65  2  0
 63 66  1  0
 66 67  2  0
 67 68  1  0
 68 69  2  0
 69 70  1  0
 70 71  1  0
 69 72  1  0
 72 73  2  0
 63 74  1  0
 74 75  2  0
 75 76  1  0
 76 77  2  0
 77 78  1  0
 78 79  1  0
 77 80  1  0
 80 81  2  0
 62 82  1  0
 82 83  2  0
 83 84  1  0
 84 85  1  0
 85 86  1  0
 83 87  1  0
 87 88  2  0
 88 89  1  0
 89 90  1  0
 90 91  1  0
 91 92  1  0
 89 93  2  0
 93 94  1  0
 88 95  1  0
 95 96  2  0
 96 97  1  0
 96 98  1  0
 98 99  2  3
 99100  1  0
100101  2  0
100102  1  0
102103  2  0
103104  1  0
104105  1  0
104106  2  0
106107  1  0
106108  1  0
108109  2  0
109110  1  0
110111  2  3
111112  1  0
112113  3  0
111114  1  0
114115  3  0
 16  2  1  0
 39 22  1  0
 50 43  1  0
 58 51  1  0
 64 60  1  0
 73 66  1  0
 81 74  1  0
 93 82  1  0
110 99  1  0
 15  5  1  0
 38 24  1  0
 94 61  1  0
109102  1  0
 13  7  1  0
 36 29  2  0
 97 87  1  0
 35 31  2  0
 65 32  1  0
  1116  1  0
  6117  1  0
  8118  1  0
  9119  1  0
 12120  1  0
 14121  1  0
 23122  1  0
 27123  1  0
 27124  1  0
 28125  1  0
 28126  1  0
 28127  1  0
 41128  1  0
 41129  1  0
 42130  1  0
 42131  1  0
 42132  1  0
 44133  1  0
 45134  1  0
 47135  1  0
 47136  1  0
 48137  1  0
 48138  1  0
 48139  1  0
 49140  1  0
 50141  1  0
 52142  1  0
 53143  1  0
 55144  1  0
 55145  1  0
 56146  1  0
 56147  1  0
 56148  1  0
 57149  1  0
 58150  1  0
 59151  1  0
 65152  1  0
 67153  1  0
 68154  1  0
 70155  1  0
 70156  1  0
 71157  1  0
 71158  1  0
 71159  1  0
 72160  1  0
 73161  1  0
 75162  1  0
 76163  1  0
 78164  1  0
 78165  1  0
 79166  1  0
 79167  1  0
 79168  1  0
 80169  1  0
 81170  1  0
 85171  1  0
 85172  1  0
 86173  1  0
 86174  1  0
 86175  1  0
 91176  1  0
 91177  1  0
 92178  1  0
 92179  1  0
 92180  1  0
 95181  1  0
 98182  1  0
103183  1  0
108184  1  0
M  END

