
     RDKit          3D

208229  0  0  0  0  0  0  0  0999 V2000
   -7.3944   -5.2855    5.8489 C   0  0  0  0  0  0  0  0  0  0  0  0
   -7.0606   -6.5207    5.4528 C   0  0  0  0  0  0  0  0  0  0  0  0
   -7.6323   -7.0584    4.2122 C   0  0  0  0  0  0  0  0  0  0  0  0
   -8.8434   -6.9630    3.8762 O   0  0  0  0  0  0  0  0  0  0  0  0
   -6.5832   -7.6220    3.3888 C   0  0  0  0  0  0  0  0  0  0  0  0
   -6.6726   -8.0733    2.0741 C   0  0  0  0  0  0  0  0  0  0  0  0
   -5.4836   -8.3602    1.3837 C   0  0  0  0  0  0  0  0  0  0  0  0
   -5.5259   -8.7948    0.0510 C   0  0  0  0  0  0  0  0  0  0  0  0
   -4.3396   -9.0038   -0.6574 C   0  0  0  0  0  0  0  0  0  0  0  0
   -3.1029   -8.7957   -0.0367 C   0  0  0  0  0  0  0  0  0  0  0  0
   -1.9566   -8.9903   -0.7331 F   0  0  0  0  0  0  0  0  0  0  0  0
   -3.0447   -8.3909    1.3012 C   0  0  0  0  0  0  0  0  0  0  0  0
   -4.2265   -8.1719    2.0242 C   0  0  0  0  0  0  0  0  0  0  0  0
   -4.1767   -7.7325    3.3622 C   0  0  0  0  0  0  0  0  0  0  0  0
   -5.3782   -7.4941    4.0457 C   0  0  0  0  0  0  0  0  0  0  0  0
   -5.6201   -6.9217    5.3924 C   0  0  0  0  0  0  0  0  0  0  0  0
   -4.7575   -6.8929    6.4340 C   0  0  0  0  0  0  0  0  0  0  0  0
   -5.1500   -6.3825    7.7248 C   0  0  0  0  0  0  0  0  0  0  0  0
   -5.4650   -5.9725    8.7601 N   0  0  0  0  0  0  0  0  0  0  0  0
   -3.4485   -7.4813    6.3690 C   0  0  0  0  0  0  0  0  0  0  0  0
   -2.3940   -7.9572    6.3314 N   0  0  0  0  0  0  0  0  0  0  0  0
   -6.8880   -4.1269    5.0863 C   0  0  0  0  0  0  0  0  0  0  0  0
   -6.8670   -3.9818    3.6964 C   0  0  0  0  0  0  0  0  0  0  0  0
   -6.1136   -2.8751    3.2682 C   0  0  0  0  0  0  0  0  0  0  0  0
   -5.9523   -2.4310    1.9372 C   0  0  0  0  0  0  0  0  0  0  0  0
   -6.5162   -3.1713    0.7895 C   0  0  0  0  0  0  0  0  0  0  0  0
   -7.2578   -2.6190   -0.2533 C   0  0  0  0  0  0  0  0  0  0  0  0
   -7.5568   -3.5344   -1.2657 C   0  0  0  0  0  0  0  0  0  0  0  0
   -7.0566   -4.8091   -1.0153 C   0  0  0  0  0  0  0  0  0  0  0  0
   -7.1309   -5.9725   -1.9479 C   0  0  0  0  0  0  0  0  0  0  0  0
   -5.8633   -6.0780   -2.7927 C   0  0  0  0  0  0  0  0  0  0  0  0
   -6.2148   -4.7927    0.4428 S   0  0  0  0  0  0  0  0  0  0  0  0
   -5.1563   -1.2868    1.7385 C   0  0  0  0  0  0  0  0  0  0  0  0
   -4.7112   -0.5851    0.2529 S   0  0  0  0  0  0  0  0  0  0  0  0
   -3.6891    0.5289    0.9815 C   0  0  0  0  0  0  0  0  0  0  0  0
   -2.5904    1.3213    0.4999 C   0  0  0  0  0  0  0  0  0  0  0  0
   -2.1935    1.6614   -0.8021 C   0  0  0  0  0  0  0  0  0  0  0  0
   -1.0146    2.4276   -0.9245 C   0  0  0  0  0  0  0  0  0  0  0  0
   -0.1534    2.6891   -2.1737 C   0  0  0  0  0  0  0  0  0  0  0  0
   -0.9789    3.4360   -3.2333 C   0  0  0  0  0  0  0  0  0  0  0  0
   -1.0762    3.0042   -4.5726 C   0  0  0  0  0  0  0  0  0  0  0  0
   -1.8573    3.7043   -5.4944 C   0  0  0  0  0  0  0  0  0  0  0  0
   -2.5407    4.8651   -5.1146 C   0  0  0  0  0  0  0  0  0  0  0  0
   -3.4159    5.5867   -6.1030 C   0  0  0  0  0  0  0  0  0  0  0  0
   -4.7707    4.8945   -6.2289 C   0  0  0  0  0  0  0  0  0  0  0  0
   -2.4350    5.3174   -3.7939 C   0  0  0  0  0  0  0  0  0  0  0  0
   -1.6639    4.6149   -2.8656 C   0  0  0  0  0  0  0  0  0  0  0  0
    0.4329    1.3184   -2.5935 C   0  0  0  0  0  0  0  0  0  0  0  0
    1.7622    0.9409   -2.2852 C   0  0  0  0  0  0  0  0  0  0  0  0
    2.2247   -0.3507   -2.5415 C   0  0  0  0  0  0  0  0  0  0  0  0
    1.3682   -1.3195   -3.0729 C   0  0  0  0  0  0  0  0  0  0  0  0
    1.8728   -2.7128   -3.3363 C   0  0  0  0  0  0  0  0  0  0  0  0
    2.4706   -2.8134   -4.7368 C   0  0  0  0  0  0  0  0  0  0  0  0
    0.0494   -0.9709   -3.3822 C   0  0  0  0  0  0  0  0  0  0  0  0
   -0.4159    0.3255   -3.1344 C   0  0  0  0  0  0  0  0  0  0  0  0
    0.8935    3.6273   -1.5559 C   0  0  0  0  0  0  0  0  0  0  0  0
    0.6966    3.7339   -0.2113 C   0  0  0  0  0  0  0  0  0  0  0  0
   -0.4085    2.9414    0.2141 C   0  0  0  0  0  0  0  0  0  0  0  0
   -0.7286    2.5039    1.4980 C   0  0  0  0  0  0  0  0  0  0  0  0
   -1.8151    1.6238    1.6139 C   0  0  0  0  0  0  0  0  0  0  0  0
   -2.1620    0.7009    2.7754 C   0  0  0  0  0  0  0  0  0  0  0  0
   -1.1512   -0.4722    2.6367 C   0  0  0  0  0  0  0  0  0  0  0  0
    0.2217   -0.2301    2.8748 C   0  0  0  0  0  0  0  0  0  0  0  0
    1.1998   -1.1387    2.4678 C   0  0  0  0  0  0  0  0  0  0  0  0
    0.8424   -2.3272    1.8148 C   0  0  0  0  0  0  0  0  0  0  0  0
    1.8950   -3.2376    1.2415 C   0  0  0  0  0  0  0  0  0  0  0  0
    2.1067   -4.4707    2.1109 C   0  0  0  0  0  0  0  0  0  0  0  0
   -0.5154   -2.6324    1.6608 C   0  0  0  0  0  0  0  0  0  0  0  0
   -1.4973   -1.7232    2.0659 C   0  0  0  0  0  0  0  0  0  0  0  0
   -2.0802    1.4105    4.1322 C   0  0  0  0  0  0  0  0  0  0  0  0
   -1.5450    0.7585    5.2648 C   0  0  0  0  0  0  0  0  0  0  0  0
   -1.2870    1.4585    6.4435 C   0  0  0  0  0  0  0  0  0  0  0  0
   -1.5858    2.8235    6.5337 C   0  0  0  0  0  0  0  0  0  0  0  0
   -1.2117    3.5922    7.7726 C   0  0  0  0  0  0  0  0  0  0  0  0
   -2.2326    3.3841    8.8898 C   0  0  0  0  0  0  0  0  0  0  0  0
   -2.2103    3.4615    5.4504 C   0  0  0  0  0  0  0  0  0  0  0  0
   -2.4668    2.7588    4.2674 C   0  0  0  0  0  0  0  0  0  0  0  0
   -3.5830    0.3257    2.3371 C   0  0  0  0  0  0  0  0  0  0  0  0
   -4.4939   -0.6425    2.8029 C   0  0  0  0  0  0  0  0  0  0  0  0
   -4.7669   -1.0072    4.1389 C   0  0  0  0  0  0  0  0  0  0  0  0
   -5.5518   -2.1588    4.3289 C   0  0  0  0  0  0  0  0  0  0  0  0
   -6.0092   -2.8743    5.7802 S   0  0  0  0  0  0  0  0  0  0  0  0
   -4.6584   -0.0234    5.2301 C   0  0  0  0  0  0  0  0  0  0  0  0
   -4.2293   -0.2697    6.5292 C   0  0  0  0  0  0  0  0  0  0  0  0
   -4.5521    0.7568    7.4287 C   0  0  0  0  0  0  0  0  0  0  0  0
   -5.2492    1.8091    6.8451 C   0  0  0  0  0  0  0  0  0  0  0  0
   -5.9320    2.9236    7.5806 C   0  0  0  0  0  0  0  0  0  0  0  0
   -5.6739    4.2780    6.9317 C   0  0  0  0  0  0  0  0  0  0  0  0
   -5.4919    1.4351    5.2227 S   0  0  0  0  0  0  0  0  0  0  0  0
    1.9017    4.5652    0.5894 S   0  0  0  0  0  0  0  0  0  0  0  0
    2.7731    4.8054   -0.8419 C   0  0  0  0  0  0  0  0  0  0  0  0
    4.0624    5.3493   -0.9258 C   0  0  0  0  0  0  0  0  0  0  0  0
    4.6303    6.0926    0.2090 C   0  0  0  0  0  0  0  0  0  0  0  0
    4.1390    7.2999    0.6787 C   0  0  0  0  0  0  0  0  0  0  0  0
    4.8258    7.7790    1.7983 C   0  0  0  0  0  0  0  0  0  0  0  0
    5.8438    6.9281    2.2157 C   0  0  0  0  0  0  0  0  0  0  0  0
    6.7773    7.1925    3.3554 C   0  0  0  0  0  0  0  0  0  0  0  0
    7.9282    8.0855    2.9065 C   0  0  0  0  0  0  0  0  0  0  0  0
    5.9168    5.6021    1.1787 S   0  0  0  0  0  0  0  0  0  0  0  0
    4.7602    5.1594   -2.1283 C   0  0  0  0  0  0  0  0  0  0  0  0
    6.1129    5.4568   -2.3550 C   0  0  0  0  0  0  0  0  0  0  0  0
    6.5553    4.9960   -3.5928 C   0  0  0  0  0  0  0  0  0  0  0  0
    5.2541    4.3551   -4.4555 S   0  0  0  0  0  0  0  0  0  0  0  0
    4.1303    4.5597   -3.2216 C   0  0  0  0  0  0  0  0  0  0  0  0
    2.7864    4.1407   -3.1932 C   0  0  0  0  0  0  0  0  0  0  0  0
    2.1154    3.7997   -4.4496 C   0  0  0  0  0  0  0  0  0  0  0  0
    1.4596    4.7402   -5.2343 C   0  0  0  0  0  0  0  0  0  0  0  0
    1.2441    4.3209   -6.5530 C   0  0  0  0  0  0  0  0  0  0  0  0
    1.7507    3.0549   -6.8207 C   0  0  0  0  0  0  0  0  0  0  0  0
    1.7767    2.4350   -8.1892 C   0  0  0  0  0  0  0  0  0  0  0  0
    2.2271    0.9762   -8.1779 C   0  0  0  0  0  0  0  0  0  0  0  0
    2.4993    2.4801   -5.4237 S   0  0  0  0  0  0  0  0  0  0  0  0
    2.1181    4.2131   -1.9498 C   0  0  0  0  0  0  0  0  0  0  0  0
    7.9662    4.9218   -3.9955 C   0  0  0  0  0  0  0  0  0  0  0  0
    8.5554    3.8010   -4.4549 C   0  0  0  0  0  0  0  0  0  0  0  0
    9.7921    3.8155   -5.2318 C   0  0  0  0  0  0  0  0  0  0  0  0
   10.6004    4.7788   -5.3016 O   0  0  0  0  0  0  0  0  0  0  0  0
    9.8797    2.5700   -5.9810 C   0  0  0  0  0  0  0  0  0  0  0  0
    8.7870    1.7758   -5.6576 C   0  0  0  0  0  0  0  0  0  0  0  0
    8.5847    0.5591   -6.3207 C   0  0  0  0  0  0  0  0  0  0  0  0
    9.5229    0.1417   -7.2741 C   0  0  0  0  0  0  0  0  0  0  0  0
   10.6491    0.9297   -7.5690 C   0  0  0  0  0  0  0  0  0  0  0  0
   11.9031    0.2761   -8.8615 Br  0  0  0  0  0  0  0  0  0  0  0  0
   10.8298    2.1714   -6.9306 C   0  0  0  0  0  0  0  0  0  0  0  0
   12.2264    3.1821   -7.2978 Cl  0  0  0  0  0  0  0  0  0  0  0  0
    7.9887    2.4271   -4.5824 C   0  0  0  0  0  0  0  0  0  0  0  0
    7.2495    1.7747   -3.6468 C   0  0  0  0  0  0  0  0  0  0  0  0
    7.0992    2.3027   -2.3132 C   0  0  0  0  0  0  0  0  0  0  0  0
    6.9946    2.7149   -1.2373 N   0  0  0  0  0  0  0  0  0  0  0  0
    6.7837    0.4228   -3.8201 C   0  0  0  0  0  0  0  0  0  0  0  0
    6.3983   -0.6634   -3.9254 N   0  0  0  0  0  0  0  0  0  0  0  0
   -7.3996   -5.1186    6.9183 H   0  0  0  0  0  0  0  0  0  0  0  0
   -7.6350   -8.1481    1.5857 H   0  0  0  0  0  0  0  0  0  0  0  0
   -6.4719   -8.9581   -0.4472 H   0  0  0  0  0  0  0  0  0  0  0  0
   -4.3789   -9.3151   -1.6931 H   0  0  0  0  0  0  0  0  0  0  0  0
   -2.0786   -8.2389    1.7674 H   0  0  0  0  0  0  0  0  0  0  0  0
   -3.2235   -7.5292    3.8231 H   0  0  0  0  0  0  0  0  0  0  0  0
   -7.3874   -4.6504    3.0265 H   0  0  0  0  0  0  0  0  0  0  0  0
   -7.5559   -1.5796   -0.2883 H   0  0  0  0  0  0  0  0  0  0  0  0
   -8.1131   -3.2748   -2.1560 H   0  0  0  0  0  0  0  0  0  0  0  0
   -7.2643   -6.9015   -1.3603 H   0  0  0  0  0  0  0  0  0  0  0  0
   -8.0097   -5.8665   -2.6231 H   0  0  0  0  0  0  0  0  0  0  0  0
   -4.9670   -6.1287   -2.1365 H   0  0  0  0  0  0  0  0  0  0  0  0
   -5.7773   -5.1984   -3.4667 H   0  0  0  0  0  0  0  0  0  0  0  0
   -5.9020   -7.0021   -3.4066 H   0  0  0  0  0  0  0  0  0  0  0  0
   -2.7468    1.3139   -1.6624 H   0  0  0  0  0  0  0  0  0  0  0  0
   -0.5272    2.1492   -4.9354 H   0  0  0  0  0  0  0  0  0  0  0  0
   -1.9191    3.3468   -6.5172 H   0  0  0  0  0  0  0  0  0  0  0  0
   -3.5728    6.6418   -5.7900 H   0  0  0  0  0  0  0  0  0  0  0  0
   -2.9203    5.6074   -7.0982 H   0  0  0  0  0  0  0  0  0  0  0  0
   -4.6413    3.8681   -6.6297 H   0  0  0  0  0  0  0  0  0  0  0  0
   -5.4176    5.4648   -6.9301 H   0  0  0  0  0  0  0  0  0  0  0  0
   -5.2720    4.8419   -5.2391 H   0  0  0  0  0  0  0  0  0  0  0  0
   -2.9524    6.2140   -3.4757 H   0  0  0  0  0  0  0  0  0  0  0  0
   -1.5980    4.9932   -1.8527 H   0  0  0  0  0  0  0  0  0  0  0  0
    2.4530    1.6228   -1.8184 H   0  0  0  0  0  0  0  0  0  0  0  0
    3.2504   -0.6023   -2.3014 H   0  0  0  0  0  0  0  0  0  0  0  0
    2.6463   -2.9859   -2.5862 H   0  0  0  0  0  0  0  0  0  0  0  0
    1.0429   -3.4481   -3.2394 H   0  0  0  0  0  0  0  0  0  0  0  0
    1.6975   -2.5872   -5.4983 H   0  0  0  0  0  0  0  0  0  0  0  0
    3.3161   -2.1014   -4.8474 H   0  0  0  0  0  0  0  0  0  0  0  0
    2.8496   -3.8438   -4.9037 H   0  0  0  0  0  0  0  0  0  0  0  0
   -0.6262   -1.7056   -3.8015 H   0  0  0  0  0  0  0  0  0  0  0  0
   -1.4493    0.5431   -3.3652 H   0  0  0  0  0  0  0  0  0  0  0  0
   -0.1232    2.7786    2.3551 H   0  0  0  0  0  0  0  0  0  0  0  0
    0.5432    0.7034    3.3132 H   0  0  0  0  0  0  0  0  0  0  0  0
    2.2439   -0.8894    2.6143 H   0  0  0  0  0  0  0  0  0  0  0  0
    1.5889   -3.5499    0.2193 H   0  0  0  0  0  0  0  0  0  0  0  0
    2.8593   -2.6943    1.1357 H   0  0  0  0  0  0  0  0  0  0  0  0
    2.4729   -4.1712    3.1153 H   0  0  0  0  0  0  0  0  0  0  0  0
    2.8619   -5.1292    1.6350 H   0  0  0  0  0  0  0  0  0  0  0  0
    1.1583   -5.0403    2.2165 H   0  0  0  0  0  0  0  0  0  0  0  0
   -0.8152   -3.5508    1.1714 H   0  0  0  0  0  0  0  0  0  0  0  0
   -2.5161   -1.9948    1.8541 H   0  0  0  0  0  0  0  0  0  0  0  0
   -1.2961   -0.2963    5.2318 H   0  0  0  0  0  0  0  0  0  0  0  0
   -0.8423    0.9344    7.2807 H   0  0  0  0  0  0  0  0  0  0  0  0
   -1.1282    4.6794    7.5466 H   0  0  0  0  0  0  0  0  0  0  0  0
   -0.2130    3.2544    8.1314 H   0  0  0  0  0  0  0  0  0  0  0  0
   -2.2807    2.3126    9.1710 H   0  0  0  0  0  0  0  0  0  0  0  0
   -3.2306    3.7169    8.5625 H   0  0  0  0  0  0  0  0  0  0  0  0
   -1.9352    3.9738    9.7791 H   0  0  0  0  0  0  0  0  0  0  0  0
   -2.4716    4.5120    5.5103 H   0  0  0  0  0  0  0  0  0  0  0  0
   -2.9268    3.2823    3.4389 H   0  0  0  0  0  0  0  0  0  0  0  0
   -3.7351   -1.1849    6.8307 H   0  0  0  0  0  0  0  0  0  0  0  0
   -4.3333    0.6991    8.4862 H   0  0  0  0  0  0  0  0  0  0  0  0
   -5.5797    2.9496    8.6317 H   0  0  0  0  0  0  0  0  0  0  0  0
   -7.0249    2.7240    7.5971 H   0  0  0  0  0  0  0  0  0  0  0  0
   -6.2060    5.0659    7.5035 H   0  0  0  0  0  0  0  0  0  0  0  0
   -6.0432    4.2863    5.8879 H   0  0  0  0  0  0  0  0  0  0  0  0
   -4.5946    4.5184    6.9311 H   0  0  0  0  0  0  0  0  0  0  0  0
    3.3104    7.8314    0.2240 H   0  0  0  0  0  0  0  0  0  0  0  0
    4.5848    8.7149    2.2881 H   0  0  0  0  0  0  0  0  0  0  0  0
    7.1750    6.2325    3.7413 H   0  0  0  0  0  0  0  0  0  0  0  0
    6.2260    7.6946    4.1787 H   0  0  0  0  0  0  0  0  0  0  0  0
    7.5377    9.0582    2.5332 H   0  0  0  0  0  0  0  0  0  0  0  0
    8.5113    7.5890    2.1007 H   0  0  0  0  0  0  0  0  0  0  0  0
    8.6042    8.2856    3.7657 H   0  0  0  0  0  0  0  0  0  0  0  0
    6.7764    5.8785   -1.6120 H   0  0  0  0  0  0  0  0  0  0  0  0
    1.1914    5.7259   -4.8796 H   0  0  0  0  0  0  0  0  0  0  0  0
    0.7682    4.9405   -7.2994 H   0  0  0  0  0  0  0  0  0  0  0  0
    0.7581    2.4900   -8.6280 H   0  0  0  0  0  0  0  0  0  0  0  0
    2.4638    3.0185   -8.8359 H   0  0  0  0  0  0  0  0  0  0  0  0
    2.2003    0.5715   -9.2119 H   0  0  0  0  0  0  0  0  0  0  0  0
    3.2687    0.8969   -7.7989 H   0  0  0  0  0  0  0  0  0  0  0  0
    1.5536    0.3683   -7.5394 H   0  0  0  0  0  0  0  0  0  0  0  0
    8.5344    5.8394   -3.9677 H   0  0  0  0  0  0  0  0  0  0  0  0
    7.7082   -0.0474   -6.1548 H   0  0  0  0  0  0  0  0  0  0  0  0
    9.3776   -0.8037   -7.7854 H   0  0  0  0  0  0  0  0  0  0  0  0
  1  2  2  3
  2  3  1  0
  3  4  2  0
  3  5  1  0
  5  6  2  0
  6  7  1  0
  7  8  2  0
  8  9  1  0
  9 10  2  0
 10 11  1  0
 10 12  1  0
 12 13  2  0
 13 14  1  0
 14 15  2  0
 15 16  1  0
 16 17  2  3
 17 18  1  0
 18 19  3  0
 17 20  1  0
 20 21  3  0
  1 22  1  0
 22 23  2  0
 23 24  1  0
 24 25  2  0
 25 26  1  0
 26 27  2  0
 27 28  1  0
 28 29  2  0
 29 30  1  0
 30 31  1  0
 29 32  1  0
 25 33  1  0
 33 34  1  0
 34 35  1  0
 35 36  1  0
 36 37  2  0
 37 38  1  0
 38 39  1  0
 39 40  1  0
 40 41  2  0
 41 42  1  0
 42 43  2  0
 43 44  1  0
 44 45  1  0
 43 46  1  0
 46 47  2  0
 39 48  1  0
 48 49  2  0
 49 50  1  0
 50 51  2  0
 51 52  1  0
 52 53  1  0
 51 54  1  0
 54 55  2  0
 39 56  1  0
 56 57  2  0
 57 58  1  0
 58 59  1  0
 59 60  2  0
 60 61  1  0
 61 62  1  0
 62 63  2  0
 63 64  1  0
 64 65  2  0
 65 66  1  0
 66 67  1  0
 65 68  1  0
 68 69  2  0
 61 70  1  0
 70 71  2  0
 71 72  1  0
 72 73  2  0
 73 74  1  0
 74 75  1  0
 73 76  1  0
 76 77  2  0
 61 78  1  0
 78 79  1  0
 79 80  1  0
 80 81  2  0
 81 82  1  0
 80 83  1  0
 83 84  2  0
 84 85  1  0
 85 86  2  0
 86 87  1  0
 87 88  1  0
 86 89  1  0
 57 90  1  0
 90 91  1  0
 91 92  2  0
 92 93  1  0
 93 94  2  0
 94 95  1  0
 95 96  2  0
 96 97  1  0
 97 98  1  0
 96 99  1  0
 92100  1  0
100101  1  0
101102  2  0
102103  1  0
103104  1  0
104105  1  0
105106  1  0
106107  2  0
107108  1  0
108109  2  0
109110  1  0
110111  1  0
109112  1  0
105113  2  0
102114  1  0
114115  2  3
115116  1  0
116117  2  0
116118  1  0
118119  2  0
119120  1  0
120121  2  0
121122  1  0
122123  1  0
122124  2  0
124125  1  0
119126  1  0
126127  2  3
127128  1  0
128129  3  0
127130  1  0
130131  3  0
 16  2  1  0
 82 22  1  0
 89 83  1  0
113 91  1  0
126115  1  0
 15  5  1  0
 81 24  1  0
 99 93  1  0
104100  2  0
112106  1  0
124118  1  0
 13  7  1  0
 32 26  1  0
 79 33  2  0
 78 35  2  0
 60 36  1  0
 69 62  1  0
 77 70  1  0
 58 38  2  0
 47 40  1  0
 55 48  1  0
113 56  1  0
  1132  1  0
  6133  1  0
  8134  1  0
  9135  1  0
 12136  1  0
 14137  1  0
 23138  1  0
 27139  1  0
 28140  1  0
 30141  1  0
 30142  1  0
 31143  1  0
 31144  1  0
 31145  1  0
 37146  1  0
 41147  1  0
 42148  1  0
 44149  1  0
 44150  1  0
 45151  1  0
 45152  1  0
 45153  1  0
 46154  1  0
 47155  1  0
 49156  1  0
 50157  1  0
 52158  1  0
 52159  1  0
 53160  1  0
 53161  1  0
 53162  1  0
 54163  1  0
 55164  1  0
 59165  1  0
 63166  1  0
 64167  1  0
 66168  1  0
 66169  1  0
 67170  1  0
 67171  1  0
 67172  1  0
 68173  1  0
 69174  1  0
 71175  1  0
 72176  1  0
 74177  1  0
 74178  1  0
 75179  1  0
 75180  1  0
 75181  1  0
 76182  1  0
 77183  1  0
 84184  1  0
 85185  1  0
 87186  1  0
 87187  1  0
 88188  1  0
 88189  1  0
 88190  1  0
 94191  1  0
 95192  1  0
 97193  1  0
 97194  1  0
 98195  1  0
 98196  1  0
 98197  1  0
101198  1  0
107199  1  0
108200  1  0
110201  1  0
110202  1  0
111203  1  0
111204  1  0
111205  1  0
114206  1  0
120207  1  0
121208  1  0
M  END

