
     RDKit          3D

208229  0  0  0  0  0  0  0  0999 V2000
   -3.8584   -6.3913   -4.8428 C   0  0  0  0  0  0  0  0  0  0  0  0
   -5.1807   -6.2561   -4.6127 C   0  0  0  0  0  0  0  0  0  0  0  0
   -5.7964   -5.3832   -3.6004 C   0  0  0  0  0  0  0  0  0  0  0  0
   -5.2891   -4.3531   -3.0823 O   0  0  0  0  0  0  0  0  0  0  0  0
   -7.1399   -5.8524   -3.3483 C   0  0  0  0  0  0  0  0  0  0  0  0
   -7.9998   -5.4715   -2.3223 C   0  0  0  0  0  0  0  0  0  0  0  0
   -9.2021   -6.1740   -2.1557 C   0  0  0  0  0  0  0  0  0  0  0  0
  -10.0878   -5.8324   -1.1258 C   0  0  0  0  0  0  0  0  0  0  0  0
  -11.2726   -6.5547   -0.9500 C   0  0  0  0  0  0  0  0  0  0  0  0
  -11.5774   -7.6266   -1.7924 C   0  0  0  0  0  0  0  0  0  0  0  0
  -12.7251   -8.3259   -1.6100 F   0  0  0  0  0  0  0  0  0  0  0  0
  -10.7039   -7.9821   -2.8244 C   0  0  0  0  0  0  0  0  0  0  0  0
   -9.5108   -7.2628   -3.0180 C   0  0  0  0  0  0  0  0  0  0  0  0
   -8.6159   -7.6256   -4.0458 C   0  0  0  0  0  0  0  0  0  0  0  0
   -7.4370   -6.8834   -4.2185 C   0  0  0  0  0  0  0  0  0  0  0  0
   -6.2932   -7.1028   -5.1503 C   0  0  0  0  0  0  0  0  0  0  0  0
   -6.3281   -7.7724   -6.3336 C   0  0  0  0  0  0  0  0  0  0  0  0
   -7.5382   -8.3695   -6.8376 C   0  0  0  0  0  0  0  0  0  0  0  0
   -8.5074   -8.8510   -7.2530 N   0  0  0  0  0  0  0  0  0  0  0  0
   -5.1931   -7.8792   -7.2115 C   0  0  0  0  0  0  0  0  0  0  0  0
   -4.2820   -7.9965   -7.9156 N   0  0  0  0  0  0  0  0  0  0  0  0
   -2.8066   -5.7291   -4.0487 C   0  0  0  0  0  0  0  0  0  0  0  0
   -2.7676   -5.6223   -2.6638 C   0  0  0  0  0  0  0  0  0  0  0  0
   -1.5942   -5.0197   -2.1848 C   0  0  0  0  0  0  0  0  0  0  0  0
   -1.2821   -4.7812   -0.8348 C   0  0  0  0  0  0  0  0  0  0  0  0
   -2.2820   -4.9891    0.2415 C   0  0  0  0  0  0  0  0  0  0  0  0
   -2.0817   -5.6942    1.4196 C   0  0  0  0  0  0  0  0  0  0  0  0
   -3.2188   -5.7471    2.2333 C   0  0  0  0  0  0  0  0  0  0  0  0
   -4.3138   -5.0671    1.7054 C   0  0  0  0  0  0  0  0  0  0  0  0
   -5.6957   -5.0761    2.2960 C   0  0  0  0  0  0  0  0  0  0  0  0
   -6.5179   -3.8518    1.8920 C   0  0  0  0  0  0  0  0  0  0  0  0
   -3.8700   -4.4266    0.2141 S   0  0  0  0  0  0  0  0  0  0  0  0
   -0.0011   -4.2657   -0.5592 C   0  0  0  0  0  0  0  0  0  0  0  0
    0.5682   -3.7950    0.9579 S   0  0  0  0  0  0  0  0  0  0  0  0
    2.0096   -3.1923    0.3645 C   0  0  0  0  0  0  0  0  0  0  0  0
    2.7784   -2.0851    0.8620 C   0  0  0  0  0  0  0  0  0  0  0  0
    2.6136   -1.4557    2.0943 C   0  0  0  0  0  0  0  0  0  0  0  0
    3.0633   -0.1312    2.2247 C   0  0  0  0  0  0  0  0  0  0  0  0
    2.5508    0.8923    3.2522 C   0  0  0  0  0  0  0  0  0  0  0  0
    1.0479    0.6532    3.4342 C   0  0  0  0  0  0  0  0  0  0  0  0
    0.2081    0.6844    2.2980 C   0  0  0  0  0  0  0  0  0  0  0  0
   -1.1101    0.2319    2.3696 C   0  0  0  0  0  0  0  0  0  0  0  0
   -1.6318   -0.2386    3.5807 C   0  0  0  0  0  0  0  0  0  0  0  0
   -3.0024   -0.8518    3.6344 C   0  0  0  0  0  0  0  0  0  0  0  0
   -2.9119   -2.3623    3.4442 C   0  0  0  0  0  0  0  0  0  0  0  0
   -0.8243   -0.2339    4.7222 C   0  0  0  0  0  0  0  0  0  0  0  0
    0.4961    0.2029    4.6524 C   0  0  0  0  0  0  0  0  0  0  0  0
    3.4014    0.7649    4.5383 C   0  0  0  0  0  0  0  0  0  0  0  0
    3.5542   -0.4935    5.1668 C   0  0  0  0  0  0  0  0  0  0  0  0
    4.3450   -0.6422    6.3087 C   0  0  0  0  0  0  0  0  0  0  0  0
    5.0224    0.4564    6.8464 C   0  0  0  0  0  0  0  0  0  0  0  0
    5.8614    0.2978    8.0845 C   0  0  0  0  0  0  0  0  0  0  0  0
    5.0477    0.6210    9.3361 C   0  0  0  0  0  0  0  0  0  0  0  0
    4.8647    1.7156    6.2527 C   0  0  0  0  0  0  0  0  0  0  0  0
    4.0681    1.8694    5.1133 C   0  0  0  0  0  0  0  0  0  0  0  0
    2.8578    2.1824    2.4838 C   0  0  0  0  0  0  0  0  0  0  0  0
    3.6529    1.8992    1.4072 C   0  0  0  0  0  0  0  0  0  0  0  0
    3.7199    0.4858    1.1570 C   0  0  0  0  0  0  0  0  0  0  0  0
    3.8701   -0.1427   -0.0871 C   0  0  0  0  0  0  0  0  0  0  0  0
    3.3494   -1.4436   -0.2259 C   0  0  0  0  0  0  0  0  0  0  0  0
    3.0188   -2.1641   -1.5321 C   0  0  0  0  0  0  0  0  0  0  0  0
    4.3522   -2.7224   -2.0583 C   0  0  0  0  0  0  0  0  0  0  0  0
    4.7615   -4.0454   -1.7725 C   0  0  0  0  0  0  0  0  0  0  0  0
    5.9896   -4.5301   -2.2204 C   0  0  0  0  0  0  0  0  0  0  0  0
    6.8699   -3.6960   -2.9161 C   0  0  0  0  0  0  0  0  0  0  0  0
    8.1606   -4.2429   -3.4648 C   0  0  0  0  0  0  0  0  0  0  0  0
    7.9390   -4.8332   -4.8537 C   0  0  0  0  0  0  0  0  0  0  0  0
    6.5192   -2.3561   -3.1289 C   0  0  0  0  0  0  0  0  0  0  0  0
    5.2928   -1.8692   -2.6722 C   0  0  0  0  0  0  0  0  0  0  0  0
    2.2456   -1.2083   -2.4665 C   0  0  0  0  0  0  0  0  0  0  0  0
    2.5516   -1.0568   -3.8326 C   0  0  0  0  0  0  0  0  0  0  0  0
    1.7926   -0.2223   -4.6531 C   0  0  0  0  0  0  0  0  0  0  0  0
    0.6929    0.4688   -4.1399 C   0  0  0  0  0  0  0  0  0  0  0  0
   -0.1821    1.2785   -5.0563 C   0  0  0  0  0  0  0  0  0  0  0  0
   -1.2673    0.4012   -5.6751 C   0  0  0  0  0  0  0  0  0  0  0  0
    0.3674    0.3280   -2.7860 C   0  0  0  0  0  0  0  0  0  0  0  0
    1.1337   -0.4954   -1.9607 C   0  0  0  0  0  0  0  0  0  0  0  0
    2.0601   -3.2529   -1.0108 C   0  0  0  0  0  0  0  0  0  0  0  0
    0.9260   -3.9173   -1.5705 C   0  0  0  0  0  0  0  0  0  0  0  0
    0.6034   -4.1793   -2.9329 C   0  0  0  0  0  0  0  0  0  0  0  0
   -0.6761   -4.7187   -3.1913 C   0  0  0  0  0  0  0  0  0  0  0  0
   -1.3406   -5.1941   -4.6688 S   0  0  0  0  0  0  0  0  0  0  0  0
    1.5822   -4.1031   -4.0361 C   0  0  0  0  0  0  0  0  0  0  0  0
    2.7743   -4.8134   -4.1029 C   0  0  0  0  0  0  0  0  0  0  0  0
    3.4288   -4.7028   -5.3344 C   0  0  0  0  0  0  0  0  0  0  0  0
    2.7345   -3.9344   -6.2590 C   0  0  0  0  0  0  0  0  0  0  0  0
    3.1132   -3.7536   -7.7006 C   0  0  0  0  0  0  0  0  0  0  0  0
    2.7961   -2.3426   -8.1951 C   0  0  0  0  0  0  0  0  0  0  0  0
    1.2916   -3.4326   -5.5554 S   0  0  0  0  0  0  0  0  0  0  0  0
    4.0534    3.2574    0.5241 S   0  0  0  0  0  0  0  0  0  0  0  0
    3.1915    4.2978    1.5532 C   0  0  0  0  0  0  0  0  0  0  0  0
    3.0634    5.6915    1.4170 C   0  0  0  0  0  0  0  0  0  0  0  0
    3.8805    6.4588    0.4457 C   0  0  0  0  0  0  0  0  0  0  0  0
    4.0517    6.1709   -0.9059 C   0  0  0  0  0  0  0  0  0  0  0  0
    4.9541    7.0295   -1.5449 C   0  0  0  0  0  0  0  0  0  0  0  0
    5.5063    7.9844   -0.6965 C   0  0  0  0  0  0  0  0  0  0  0  0
    6.4927    9.0451   -1.0881 C   0  0  0  0  0  0  0  0  0  0  0  0
    7.7555    8.9772   -0.2325 C   0  0  0  0  0  0  0  0  0  0  0  0
    4.8580    7.7745    0.8412 S   0  0  0  0  0  0  0  0  0  0  0  0
    2.1472    6.3338    2.2677 C   0  0  0  0  0  0  0  0  0  0  0  0
    1.7161    7.6684    2.1645 C   0  0  0  0  0  0  0  0  0  0  0  0
    0.6860    7.9769    3.0481 C   0  0  0  0  0  0  0  0  0  0  0  0
    0.3523    6.6345    3.9976 S   0  0  0  0  0  0  0  0  0  0  0  0
    1.4713    5.6154    3.2537 C   0  0  0  0  0  0  0  0  0  0  0  0
    1.6404    4.2317    3.4513 C   0  0  0  0  0  0  0  0  0  0  0  0
    0.7334    3.5451    4.3763 C   0  0  0  0  0  0  0  0  0  0  0  0
    0.9860    3.2944    5.7207 C   0  0  0  0  0  0  0  0  0  0  0  0
   -0.1586    2.9290    6.4396 C   0  0  0  0  0  0  0  0  0  0  0  0
   -1.3131    2.9157    5.6669 C   0  0  0  0  0  0  0  0  0  0  0  0
   -2.7043    2.6692    6.1646 C   0  0  0  0  0  0  0  0  0  0  0  0
   -3.3513    3.9783    6.6009 C   0  0  0  0  0  0  0  0  0  0  0  0
   -0.9213    3.3944    4.1067 S   0  0  0  0  0  0  0  0  0  0  0  0
    2.5330    3.5635    2.5729 C   0  0  0  0  0  0  0  0  0  0  0  0
   -0.1021    9.2166    3.0590 C   0  0  0  0  0  0  0  0  0  0  0  0
   -0.5748    9.8005    1.9421 C   0  0  0  0  0  0  0  0  0  0  0  0
   -1.2311   11.1009    1.9146 C   0  0  0  0  0  0  0  0  0  0  0  0
   -1.5002   11.8152    2.9163 O   0  0  0  0  0  0  0  0  0  0  0  0
   -1.4983   11.4335    0.5300 C   0  0  0  0  0  0  0  0  0  0  0  0
   -2.1121   12.5766    0.0069 C   0  0  0  0  0  0  0  0  0  0  0  0
   -2.6890   13.8559    1.0666 Cl  0  0  0  0  0  0  0  0  0  0  0  0
   -2.2770   12.6688   -1.3892 C   0  0  0  0  0  0  0  0  0  0  0  0
   -3.0702   14.0872   -2.0863 Cl  0  0  0  0  0  0  0  0  0  0  0  0
   -1.8054   11.6350   -2.2286 C   0  0  0  0  0  0  0  0  0  0  0  0
   -1.9915   11.7785   -3.9783 Cl  0  0  0  0  0  0  0  0  0  0  0  0
   -1.1846   10.4935   -1.6797 C   0  0  0  0  0  0  0  0  0  0  0  0
   -0.5298    9.2629   -2.7522 Cl  0  0  0  0  0  0  0  0  0  0  0  0
   -1.0512   10.3985   -0.2782 C   0  0  0  0  0  0  0  0  0  0  0  0
   -0.5060    9.2778    0.5501 C   0  0  0  0  0  0  0  0  0  0  0  0
   -0.8651    8.0129    0.2669 C   0  0  0  0  0  0  0  0  0  0  0  0
   -1.9323    7.3622    0.9900 C   0  0  0  0  0  0  0  0  0  0  0  0
   -2.8050    6.8329    1.5407 N   0  0  0  0  0  0  0  0  0  0  0  0
   -0.0171    7.1768   -0.5380 C   0  0  0  0  0  0  0  0  0  0  0  0
    0.6596    6.4904   -1.1779 N   0  0  0  0  0  0  0  0  0  0  0  0
   -3.4978   -7.0751   -5.5845 H   0  0  0  0  0  0  0  0  0  0  0  0
   -7.7236   -4.6714   -1.6540 H   0  0  0  0  0  0  0  0  0  0  0  0
   -9.8692   -5.0088   -0.4542 H   0  0  0  0  0  0  0  0  0  0  0  0
  -11.9530   -6.2840   -0.1489 H   0  0  0  0  0  0  0  0  0  0  0  0
  -10.9537   -8.8186   -3.4698 H   0  0  0  0  0  0  0  0  0  0  0  0
   -8.8241   -8.5029   -4.6443 H   0  0  0  0  0  0  0  0  0  0  0  0
   -3.5424   -6.0240   -2.0281 H   0  0  0  0  0  0  0  0  0  0  0  0
   -1.1506   -6.1842    1.6723 H   0  0  0  0  0  0  0  0  0  0  0  0
   -3.2449   -6.2767    3.1727 H   0  0  0  0  0  0  0  0  0  0  0  0
   -6.2238   -5.9951    1.9617 H   0  0  0  0  0  0  0  0  0  0  0  0
   -5.6205   -5.1015    3.4080 H   0  0  0  0  0  0  0  0  0  0  0  0
   -7.5029   -3.8847    2.3979 H   0  0  0  0  0  0  0  0  0  0  0  0
   -6.6893   -3.8405    0.7914 H   0  0  0  0  0  0  0  0  0  0  0  0
   -5.9973   -2.9201    2.1912 H   0  0  0  0  0  0  0  0  0  0  0  0
    1.9814   -1.9050    2.8505 H   0  0  0  0  0  0  0  0  0  0  0  0
    0.5977    1.0014    1.3377 H   0  0  0  0  0  0  0  0  0  0  0  0
   -1.7108    0.2181    1.4686 H   0  0  0  0  0  0  0  0  0  0  0  0
   -3.6580   -0.4162    2.8478 H   0  0  0  0  0  0  0  0  0  0  0  0
   -3.4759   -0.6337    4.6190 H   0  0  0  0  0  0  0  0  0  0  0  0
   -2.4334   -2.6025    2.4675 H   0  0  0  0  0  0  0  0  0  0  0  0
   -3.9317   -2.7956    3.4605 H   0  0  0  0  0  0  0  0  0  0  0  0
   -2.3266   -2.8196    4.2671 H   0  0  0  0  0  0  0  0  0  0  0  0
   -1.2152   -0.5934    5.6661 H   0  0  0  0  0  0  0  0  0  0  0  0
    1.0742    0.1762    5.5624 H   0  0  0  0  0  0  0  0  0  0  0  0
    3.0450   -1.3630    4.7938 H   0  0  0  0  0  0  0  0  0  0  0  0
    4.4246   -1.6178    6.7734 H   0  0  0  0  0  0  0  0  0  0  0  0
    6.2500   -0.7422    8.1591 H   0  0  0  0  0  0  0  0  0  0  0  0
    6.7407    0.9782    8.0366 H   0  0  0  0  0  0  0  0  0  0  0  0
    4.1826   -0.0708    9.4167 H   0  0  0  0  0  0  0  0  0  0  0  0
    4.6787    1.6695    9.2964 H   0  0  0  0  0  0  0  0  0  0  0  0
    5.6902    0.5004   10.2348 H   0  0  0  0  0  0  0  0  0  0  0  0
    5.3580    2.5813    6.6756 H   0  0  0  0  0  0  0  0  0  0  0  0
    3.9947    2.8589    4.6926 H   0  0  0  0  0  0  0  0  0  0  0  0
    4.2030    0.4195   -0.9477 H   0  0  0  0  0  0  0  0  0  0  0  0
    4.1287   -4.7223   -1.2142 H   0  0  0  0  0  0  0  0  0  0  0  0
    6.2527   -5.5620   -2.0272 H   0  0  0  0  0  0  0  0  0  0  0  0
    8.5550   -5.0365   -2.7907 H   0  0  0  0  0  0  0  0  0  0  0  0
    8.9287   -3.4401   -3.5229 H   0  0  0  0  0  0  0  0  0  0  0  0
    7.5738   -4.0486   -5.5545 H   0  0  0  0  0  0  0  0  0  0  0  0
    7.1975   -5.6597   -4.8113 H   0  0  0  0  0  0  0  0  0  0  0  0
    8.8976   -5.2351   -5.2434 H   0  0  0  0  0  0  0  0  0  0  0  0
    7.1946   -1.6879   -3.6513 H   0  0  0  0  0  0  0  0  0  0  0  0
    5.0715   -0.8214   -2.8202 H   0  0  0  0  0  0  0  0  0  0  0  0
    3.3448   -1.6202   -4.2995 H   0  0  0  0  0  0  0  0  0  0  0  0
    2.0404   -0.1500   -5.7036 H   0  0  0  0  0  0  0  0  0  0  0  0
    0.4283    1.7321   -5.8688 H   0  0  0  0  0  0  0  0  0  0  0  0
   -0.6604    2.1113   -4.4976 H   0  0  0  0  0  0  0  0  0  0  0  0
   -1.9011    1.0163   -6.3504 H   0  0  0  0  0  0  0  0  0  0  0  0
   -0.8122   -0.4186   -6.2697 H   0  0  0  0  0  0  0  0  0  0  0  0
   -1.9149   -0.0347   -4.8828 H   0  0  0  0  0  0  0  0  0  0  0  0
   -0.4873    0.8461   -2.3717 H   0  0  0  0  0  0  0  0  0  0  0  0
    0.8441   -0.5949   -0.9207 H   0  0  0  0  0  0  0  0  0  0  0  0
    3.1205   -5.4647   -3.3117 H   0  0  0  0  0  0  0  0  0  0  0  0
    4.3577   -5.2122   -5.5600 H   0  0  0  0  0  0  0  0  0  0  0  0
    4.2024   -3.9340   -7.8272 H   0  0  0  0  0  0  0  0  0  0  0  0
    2.5591   -4.4957   -8.3144 H   0  0  0  0  0  0  0  0  0  0  0  0
    3.2911   -1.5825   -7.5508 H   0  0  0  0  0  0  0  0  0  0  0  0
    3.1588   -2.2226   -9.2354 H   0  0  0  0  0  0  0  0  0  0  0  0
    1.6975   -2.1732   -8.1922 H   0  0  0  0  0  0  0  0  0  0  0  0
    3.5435    5.3672   -1.4199 H   0  0  0  0  0  0  0  0  0  0  0  0
    5.2130    6.9474   -2.5913 H   0  0  0  0  0  0  0  0  0  0  0  0
    6.7834    8.9143   -2.1575 H   0  0  0  0  0  0  0  0  0  0  0  0
    6.0230   10.0447   -0.9766 H   0  0  0  0  0  0  0  0  0  0  0  0
    8.5103    9.6940   -0.6183 H   0  0  0  0  0  0  0  0  0  0  0  0
    7.5204    9.2498    0.8188 H   0  0  0  0  0  0  0  0  0  0  0  0
    8.1904    7.9559   -0.2567 H   0  0  0  0  0  0  0  0  0  0  0  0
    2.0814    8.3642    1.4186 H   0  0  0  0  0  0  0  0  0  0  0  0
    1.9564    3.4207    6.1849 H   0  0  0  0  0  0  0  0  0  0  0  0
   -0.1513    2.7116    7.5017 H   0  0  0  0  0  0  0  0  0  0  0  0
   -3.3082    2.2116    5.3518 H   0  0  0  0  0  0  0  0  0  0  0  0
   -2.6757    1.9594    7.0211 H   0  0  0  0  0  0  0  0  0  0  0  0
   -3.4282    4.6763    5.7376 H   0  0  0  0  0  0  0  0  0  0  0  0
   -4.3743    3.7777    6.9846 H   0  0  0  0  0  0  0  0  0  0  0  0
   -2.7562    4.4552    7.4047 H   0  0  0  0  0  0  0  0  0  0  0  0
   -0.3172    9.6664    4.0217 H   0  0  0  0  0  0  0  0  0  0  0  0
  1  2  2  3
  2  3  1  0
  3  4  2  0
  3  5  1  0
  5  6  2  0
  6  7  1  0
  7  8  2  0
  8  9  1  0
  9 10  2  0
 10 11  1  0
 10 12  1  0
 12 13  2  0
 13 14  1  0
 14 15  2  0
 15 16  1  0
 16 17  2  3
 17 18  1  0
 18 19  3  0
 17 20  1  0
 20 21  3  0
  1 22  1  0
 22 23  2  0
 23 24  1  0
 24 25  2  0
 25 26  1  0
 26 27  2  0
 27 28  1  0
 28 29  2  0
 29 30  1  0
 30 31  1  0
 29 32  1  0
 25 33  1  0
 33 34  1  0
 34 35  1  0
 35 36  1  0
 36 37  2  0
 37 38  1  0
 38 39  1  0
 39 40  1  0
 40 41  2  0
 41 42  1  0
 42 43  2  0
 43 44  1  0
 44 45  1  0
 43 46  1  0
 46 47  2  0
 39 48  1  0
 48 49  2  0
 49 50  1  0
 50 51  2  0
 51 52  1  0
 52 53  1  0
 51 54  1  0
 54 55  2  0
 39 56  1  0
 56 57  2  0
 57 58  1  0
 58 59  1  0
 59 60  2  0
 60 61  1  0
 61 62  1  0
 62 63  2  0
 63 64  1  0
 64 65  2  0
 65 66  1  0
 66 67  1  0
 65 68  1  0
 68 69  2  0
 61 70  1  0
 70 71  2  0
 71 72  1  0
 72 73  2  0
 73 74  1  0
 74 75  1  0
 73 76  1  0
 76 77  2  0
 61 78  1  0
 78 79  1  0
 79 80  1  0
 80 81  2  0
 81 82  1  0
 80 83  1  0
 83 84  2  0
 84 85  1  0
 85 86  2  0
 86 87  1  0
 87 88  1  0
 86 89  1  0
 57 90  1  0
 90 91  1  0
 91 92  2  0
 92 93  1  0
 93 94  2  0
 94 95  1  0
 95 96  2  0
 96 97  1  0
 97 98  1  0
 96 99  1  0
 92100  1  0
100101  1  0
101102  2  0
102103  1  0
103104  1  0
104105  1  0
105106  1  0
106107  2  0
107108  1  0
108109  2  0
109110  1  0
110111  1  0
109112  1  0
105113  2  0
102114  1  0
114115  2  3
115116  1  0
116117  2  0
116118  1  0
118119  2  0
119120  1  0
119121  1  0
121122  1  0
121123  2  0
123124  1  0
123125  1  0
125126  1  0
125127  2  0
127128  1  0
128129  2  3
129130  1  0
130131  3  0
129132  1  0
132133  3  0
 16  2  1  0
 82 22  1  0
 89 83  1  0
113 91  1  0
128115  1  0
 15  5  1  0
 81 24  1  0
 99 93  1  0
104100  2  0
112106  1  0
127118  1  0
 13  7  1  0
 32 26  1  0
 79 33  2  0
 78 35  2  0
 60 36  1  0
 69 62  1  0
 77 70  1  0
 58 38  2  0
 47 40  1  0
 55 48  1  0
113 56  1  0
  1134  1  0
  6135  1  0
  8136  1  0
  9137  1  0
 12138  1  0
 14139  1  0
 23140  1  0
 27141  1  0
 28142  1  0
 30143  1  0
 30144  1  0
 31145  1  0
 31146  1  0
 31147  1  0
 37148  1  0
 41149  1  0
 42150  1  0
 44151  1  0
 44152  1  0
 45153  1  0
 45154  1  0
 45155  1  0
 46156  1  0
 47157  1  0
 49158  1  0
 50159  1  0
 52160  1  0
 52161  1  0
 53162  1  0
 53163  1  0
 53164  1  0
 54165  1  0
 55166  1  0
 59167  1  0
 63168  1  0
 64169  1  0
 66170  1  0
 66171  1  0
 67172  1  0
 67173  1  0
 67174  1  0
 68175  1  0
 69176  1  0
 71177  1  0
 72178  1  0
 74179  1  0
 74180  1  0
 75181  1  0
 75182  1  0
 75183  1  0
 76184  1  0
 77185  1  0
 84186  1  0
 85187  1  0
 87188  1  0
 87189  1  0
 88190  1  0
 88191  1  0
 88192  1  0
 94193  1  0
 95194  1  0
 97195  1  0
 97196  1  0
 98197  1  0
 98198  1  0
 98199  1  0
101200  1  0
107201  1  0
108202  1  0
110203  1  0
110204  1  0
111205  1  0
111206  1  0
111207  1  0
114208  1  0
M  END

