
     RDKit          3D

103115  0  0  0  0  0  0  0  0999 V2000
    1.7855    0.9004   -6.9032 C   0  0  0  0  0  0  0  0  0  0  0  0
    2.8627    1.6889   -6.7171 C   0  0  0  0  0  0  0  0  0  0  0  0
    3.0717    2.6268   -5.6039 C   0  0  0  0  0  0  0  0  0  0  0  0
    2.1771    3.1127   -4.8516 O   0  0  0  0  0  0  0  0  0  0  0  0
    4.4752    2.9620   -5.5354 C   0  0  0  0  0  0  0  0  0  0  0  0
    5.1386    3.6756   -4.5363 C   0  0  0  0  0  0  0  0  0  0  0  0
    6.5393    3.8022   -4.6107 C   0  0  0  0  0  0  0  0  0  0  0  0
    7.2473    4.5085   -3.6253 C   0  0  0  0  0  0  0  0  0  0  0  0
    8.6396    4.5983   -3.6892 C   0  0  0  0  0  0  0  0  0  0  0  0
    9.3363    3.9926   -4.7341 C   0  0  0  0  0  0  0  0  0  0  0  0
   10.6839    4.1066   -4.7967 F   0  0  0  0  0  0  0  0  0  0  0  0
    8.6472    3.2821   -5.7251 C   0  0  0  0  0  0  0  0  0  0  0  0
    7.2480    3.1911   -5.6846 C   0  0  0  0  0  0  0  0  0  0  0  0
    6.5510    2.4645   -6.6763 C   0  0  0  0  0  0  0  0  0  0  0  0
    5.1458    2.3854   -6.6057 C   0  0  0  0  0  0  0  0  0  0  0  0
    4.1625    1.6518   -7.4679 C   0  0  0  0  0  0  0  0  0  0  0  0
    4.3555    1.2840   -8.7623 C   0  0  0  0  0  0  0  0  0  0  0  0
    5.6115    1.5019   -9.4343 C   0  0  0  0  0  0  0  0  0  0  0  0
    6.6160    1.6700   -9.9893 N   0  0  0  0  0  0  0  0  0  0  0  0
    3.3019    0.7476   -9.5946 C   0  0  0  0  0  0  0  0  0  0  0  0
    2.4660    0.3004  -10.2580 N   0  0  0  0  0  0  0  0  0  0  0  0
    0.6572    0.8446   -5.9670 C   0  0  0  0  0  0  0  0  0  0  0  0
   -0.7012    1.0353   -6.2965 C   0  0  0  0  0  0  0  0  0  0  0  0
   -1.2344    1.1883   -7.6902 C   0  0  0  0  0  0  0  0  0  0  0  0
   -1.4372   -0.1753   -8.3415 C   0  0  0  0  0  0  0  0  0  0  0  0
   -1.4957    0.9525   -5.1541 C   0  0  0  0  0  0  0  0  0  0  0  0
   -3.1725    1.0914   -4.8753 S   0  0  0  0  0  0  0  0  0  0  0  0
   -2.9402    0.8510   -3.2049 C   0  0  0  0  0  0  0  0  0  0  0  0
   -3.6851    0.5215   -2.1112 C   0  0  0  0  0  0  0  0  0  0  0  0
   -5.0651    0.3470   -1.9656 C   0  0  0  0  0  0  0  0  0  0  0  0
   -5.5576   -0.2144   -0.7577 C   0  0  0  0  0  0  0  0  0  0  0  0
   -6.8965   -0.3817   -0.6548 N   0  0  0  0  0  0  0  0  0  0  0  0
   -7.3668    0.1933   -2.1341 S   0  0  0  0  0  0  0  0  0  0  0  0
   -5.9799    0.6509   -2.9180 N   0  0  0  0  0  0  0  0  0  0  0  0
   -4.6514   -0.5720    0.2368 C   0  0  0  0  0  0  0  0  0  0  0  0
   -4.8476   -1.0587    1.4942 C   0  0  0  0  0  0  0  0  0  0  0  0
   -6.1140   -1.4366    2.5593 S   0  0  0  0  0  0  0  0  0  0  0  0
   -4.9945   -1.6966    3.8316 C   0  0  0  0  0  0  0  0  0  0  0  0
   -5.1167   -2.0491    5.1825 C   0  0  0  0  0  0  0  0  0  0  0  0
   -6.4414   -2.2872    5.8736 C   0  0  0  0  0  0  0  0  0  0  0  0
   -6.8693   -1.0884    6.7403 C   0  0  0  0  0  0  0  0  0  0  0  0
   -3.8393   -2.1311    5.8000 C   0  0  0  0  0  0  0  0  0  0  0  0
   -2.6310   -1.7312    4.6659 S   0  0  0  0  0  0  0  0  0  0  0  0
   -3.7125   -1.4593    3.4184 C   0  0  0  0  0  0  0  0  0  0  0  0
   -3.6302   -1.1013    2.0886 C   0  0  0  0  0  0  0  0  0  0  0  0
   -2.6376   -0.5944    1.3156 N   0  0  0  0  0  0  0  0  0  0  0  0
   -3.2693   -0.3565    0.1184 C   0  0  0  0  0  0  0  0  0  0  0  0
   -2.7670    0.1529   -1.1096 C   0  0  0  0  0  0  0  0  0  0  0  0
   -1.4839    0.1776   -1.6059 N   0  0  0  0  0  0  0  0  0  0  0  0
   -1.6397    0.6246   -2.8761 C   0  0  0  0  0  0  0  0  0  0  0  0
   -0.8155    0.6715   -3.9927 C   0  0  0  0  0  0  0  0  0  0  0  0
    0.8154    0.4831   -4.3108 S   0  0  0  0  0  0  0  0  0  0  0  0
   -0.3157   -0.5768   -1.1523 C   0  0  0  0  0  0  0  0  0  0  0  0
    0.8151    0.3802   -0.7846 C   0  0  0  0  0  0  0  0  0  0  0  0
   -1.5368    0.1934    1.8880 C   0  0  0  0  0  0  0  0  0  0  0  0
   -1.8938    1.6727    1.9856 C   0  0  0  0  0  0  0  0  0  0  0  0
   -3.5602   -2.2985    7.2371 C   0  0  0  0  0  0  0  0  0  0  0  0
   -2.4648   -2.9375    7.6830 C   0  0  0  0  0  0  0  0  0  0  0  0
   -1.7313   -2.5011    8.8754 C   0  0  0  0  0  0  0  0  0  0  0  0
   -2.1477   -1.7088    9.7637 O   0  0  0  0  0  0  0  0  0  0  0  0
   -0.3712   -2.9935    8.7644 C   0  0  0  0  0  0  0  0  0  0  0  0
    0.7378   -2.6277    9.5333 C   0  0  0  0  0  0  0  0  0  0  0  0
    2.0043   -3.0995    9.1467 C   0  0  0  0  0  0  0  0  0  0  0  0
    3.5695   -2.6551   10.1783 Br  0  0  0  0  0  0  0  0  0  0  0  0
    2.1402   -3.8890    7.9883 C   0  0  0  0  0  0  0  0  0  0  0  0
    1.0124   -4.2123    7.2029 C   0  0  0  0  0  0  0  0  0  0  0  0
   -0.2510   -3.7660    7.6156 C   0  0  0  0  0  0  0  0  0  0  0  0
   -1.5779   -3.8826    6.9501 C   0  0  0  0  0  0  0  0  0  0  0  0
   -1.9701   -4.8492    6.0813 C   0  0  0  0  0  0  0  0  0  0  0  0
   -1.0599   -5.8580    5.5867 C   0  0  0  0  0  0  0  0  0  0  0  0
   -0.3270   -6.6665    5.2028 N   0  0  0  0  0  0  0  0  0  0  0  0
   -3.3713   -5.0846    5.8311 C   0  0  0  0  0  0  0  0  0  0  0  0
   -4.5049   -5.2989    5.6633 N   0  0  0  0  0  0  0  0  0  0  0  0
    1.7503    0.2135   -7.7207 H   0  0  0  0  0  0  0  0  0  0  0  0
    4.5730    4.0904   -3.7127 H   0  0  0  0  0  0  0  0  0  0  0  0
    6.7292    4.9728   -2.8031 H   0  0  0  0  0  0  0  0  0  0  0  0
    9.1770    5.1395   -2.9227 H   0  0  0  0  0  0  0  0  0  0  0  0
    9.2126    2.8166   -6.5238 H   0  0  0  0  0  0  0  0  0  0  0  0
    7.1143    1.9597   -7.4515 H   0  0  0  0  0  0  0  0  0  0  0  0
   -2.2056    1.7345   -7.6628 H   0  0  0  0  0  0  0  0  0  0  0  0
   -0.5057    1.7666   -8.3003 H   0  0  0  0  0  0  0  0  0  0  0  0
   -0.4575   -0.6950   -8.4506 H   0  0  0  0  0  0  0  0  0  0  0  0
   -1.8635   -0.0318   -9.3576 H   0  0  0  0  0  0  0  0  0  0  0  0
   -2.1353   -0.7967   -7.7350 H   0  0  0  0  0  0  0  0  0  0  0  0
   -7.2450   -2.4746    5.1156 H   0  0  0  0  0  0  0  0  0  0  0  0
   -6.3588   -3.1950    6.5141 H   0  0  0  0  0  0  0  0  0  0  0  0
   -7.9691   -1.0673    6.8334 H   0  0  0  0  0  0  0  0  0  0  0  0
   -6.5563   -0.1336    6.2715 H   0  0  0  0  0  0  0  0  0  0  0  0
   -6.4162   -1.1690    7.7603 H   0  0  0  0  0  0  0  0  0  0  0  0
    0.0420   -1.2456   -1.9686 H   0  0  0  0  0  0  0  0  0  0  0  0
   -0.5896   -1.2570   -0.3128 H   0  0  0  0  0  0  0  0  0  0  0  0
    1.2710    0.8208   -1.6965 H   0  0  0  0  0  0  0  0  0  0  0  0
    0.4444    1.2270   -0.1671 H   0  0  0  0  0  0  0  0  0  0  0  0
    1.6012   -0.1709   -0.2317 H   0  0  0  0  0  0  0  0  0  0  0  0
   -1.2909   -0.1774    2.8925 H   0  0  0  0  0  0  0  0  0  0  0  0
   -0.6097    0.0786    1.3339 H   0  0  0  0  0  0  0  0  0  0  0  0
   -2.0351    2.1053    0.9732 H   0  0  0  0  0  0  0  0  0  0  0  0
   -2.8420    1.8024    2.5534 H   0  0  0  0  0  0  0  0  0  0  0  0
   -1.0633    2.2096    2.5023 H   0  0  0  0  0  0  0  0  0  0  0  0
   -4.1017   -1.6610    7.9213 H   0  0  0  0  0  0  0  0  0  0  0  0
    0.6347   -1.9732   10.3897 H   0  0  0  0  0  0  0  0  0  0  0  0
    3.1264   -4.2262    7.6726 H   0  0  0  0  0  0  0  0  0  0  0  0
    1.1556   -4.7431    6.2798 H   0  0  0  0  0  0  0  0  0  0  0  0
  1  2  2  3
  2  3  1  0
  3  4  2  0
  3  5  1  0
  5  6  2  0
  6  7  1  0
  7  8  2  0
  8  9  1  0
  9 10  2  0
 10 11  1  0
 10 12  1  0
 12 13  2  0
 13 14  1  0
 14 15  2  0
 15 16  1  0
 16 17  2  3
 17 18  1  0
 18 19  3  0
 17 20  1  0
 20 21  3  0
  1 22  1  0
 22 23  2  0
 23 24  1  0
 24 25  1  0
 23 26  1  0
 26 27  1  0
 27 28  1  0
 28 29  1  0
 29 30  1  0
 30 31  1  0
 31 32  2  0
 32 33  1  0
 33 34  1  0
 31 35  1  0
 35 36  1  0
 36 37  1  0
 37 38  1  0
 38 39  1  0
 39 40  1  0
 40 41  1  0
 39 42  2  0
 42 43  1  0
 43 44  1  0
 44 45  1  0
 45 46  1  0
 46 47  1  0
 47 48  1  0
 48 49  1  0
 49 50  1  0
 50 51  1  0
 51 52  1  0
 49 53  1  0
 53 54  1  0
 46 55  1  0
 55 56  1  0
 42 57  1  0
 57 58  2  3
 58 59  1  0
 59 60  2  0
 59 61  1  0
 61 62  2  0
 62 63  1  0
 63 64  1  0
 63 65  2  0
 65 66  1  0
 66 67  2  0
 67 68  1  0
 68 69  2  3
 69 70  1  0
 70 71  3  0
 69 72  1  0
 72 73  3  0
 16  2  1  0
 52 22  1  0
 68 58  1  0
 15  5  1  0
 51 26  2  0
 67 61  1  0
 13  7  1  0
 50 28  2  0
 48 29  2  0
 34 30  2  0
 47 35  2  0
 45 36  2  0
 44 38  2  0
  1 74  1  0
  6 75  1  0
  8 76  1  0
  9 77  1  0
 12 78  1  0
 14 79  1  0
 24 80  1  0
 24 81  1  0
 25 82  1  0
 25 83  1  0
 25 84  1  0
 40 85  1  0
 40 86  1  0
 41 87  1  0
 41 88  1  0
 41 89  1  0
 53 90  1  0
 53 91  1  0
 54 92  1  0
 54 93  1  0
 54 94  1  0
 55 95  1  0
 55 96  1  0
 56 97  1  0
 56 98  1  0
 56 99  1  0
 57100  1  0
 62101  1  0
 65102  1  0
 66103  1  0
M  END

