
     RDKit          3D

103115  0  0  0  0  0  0  0  0999 V2000
   -2.7384   -6.6612    1.8928 C   0  0  0  0  0  0  0  0  0  0  0  0
   -3.8680   -6.0127    2.2356 C   0  0  0  0  0  0  0  0  0  0  0  0
   -5.1999   -6.4392    1.8024 C   0  0  0  0  0  0  0  0  0  0  0  0
   -5.5226   -7.6004    1.4322 O   0  0  0  0  0  0  0  0  0  0  0  0
   -6.0450   -5.2549    1.7204 C   0  0  0  0  0  0  0  0  0  0  0  0
   -7.3072   -5.1286    1.1422 C   0  0  0  0  0  0  0  0  0  0  0  0
   -7.8467   -3.8375    0.9776 C   0  0  0  0  0  0  0  0  0  0  0  0
   -9.0997   -3.6583    0.3706 C   0  0  0  0  0  0  0  0  0  0  0  0
   -9.5912   -2.3718    0.1412 C   0  0  0  0  0  0  0  0  0  0  0  0
   -8.8390   -1.2520    0.5063 C   0  0  0  0  0  0  0  0  0  0  0  0
   -9.3151   -0.0071    0.2552 F   0  0  0  0  0  0  0  0  0  0  0  0
   -7.5957   -1.4104    1.1266 C   0  0  0  0  0  0  0  0  0  0  0  0
   -7.0907   -2.6951    1.3710 C   0  0  0  0  0  0  0  0  0  0  0  0
   -5.8275   -2.8581    1.9738 C   0  0  0  0  0  0  0  0  0  0  0  0
   -5.3305   -4.1535    2.1632 C   0  0  0  0  0  0  0  0  0  0  0  0
   -4.0075   -4.5906    2.6630 C   0  0  0  0  0  0  0  0  0  0  0  0
   -3.2662   -3.9728    3.6182 C   0  0  0  0  0  0  0  0  0  0  0  0
   -2.1818   -4.6453    4.2884 C   0  0  0  0  0  0  0  0  0  0  0  0
   -1.3108   -5.1825    4.8280 N   0  0  0  0  0  0  0  0  0  0  0  0
   -3.6090   -2.6759    4.1334 C   0  0  0  0  0  0  0  0  0  0  0  0
   -3.8781   -1.6340    4.5631 N   0  0  0  0  0  0  0  0  0  0  0  0
   -1.4769   -5.9459    1.6171 C   0  0  0  0  0  0  0  0  0  0  0  0
   -0.1696   -6.3861    1.9131 C   0  0  0  0  0  0  0  0  0  0  0  0
    0.1727   -7.7165    2.5211 C   0  0  0  0  0  0  0  0  0  0  0  0
    0.5519   -8.7223    1.4356 C   0  0  0  0  0  0  0  0  0  0  0  0
    0.7770   -5.4165    1.5523 C   0  0  0  0  0  0  0  0  0  0  0  0
    2.4616   -5.2575    1.7863 S   0  0  0  0  0  0  0  0  0  0  0  0
    2.4420   -3.7064    1.0855 C   0  0  0  0  0  0  0  0  0  0  0  0
    3.2475   -2.6051    1.0135 C   0  0  0  0  0  0  0  0  0  0  0  0
    4.5347   -2.3894    1.5152 C   0  0  0  0  0  0  0  0  0  0  0  0
    5.0627   -1.0654    1.5012 C   0  0  0  0  0  0  0  0  0  0  0  0
    6.3043   -0.8916    2.0183 N   0  0  0  0  0  0  0  0  0  0  0  0
    6.6339   -2.4479    2.4841 S   0  0  0  0  0  0  0  0  0  0  0  0
    5.3089   -3.3555    2.0697 N   0  0  0  0  0  0  0  0  0  0  0  0
    4.2874   -0.0401    0.9544 C   0  0  0  0  0  0  0  0  0  0  0  0
    4.5554    1.2861    0.7683 C   0  0  0  0  0  0  0  0  0  0  0  0
    5.7724    2.4344    1.0716 S   0  0  0  0  0  0  0  0  0  0  0  0
    4.8346    3.6603    0.3292 C   0  0  0  0  0  0  0  0  0  0  0  0
    4.9817    5.0451    0.1885 C   0  0  0  0  0  0  0  0  0  0  0  0
    6.2082    5.8081    0.6129 C   0  0  0  0  0  0  0  0  0  0  0  0
    7.0002    6.2796   -0.6034 C   0  0  0  0  0  0  0  0  0  0  0  0
    3.8385    5.6164   -0.4143 C   0  0  0  0  0  0  0  0  0  0  0  0
    2.6742    4.3992   -0.6942 S   0  0  0  0  0  0  0  0  0  0  0  0
    3.6454    3.1621   -0.1314 C   0  0  0  0  0  0  0  0  0  0  0  0
    3.4972    1.8119    0.1150 C   0  0  0  0  0  0  0  0  0  0  0  0
    2.5458    0.8980   -0.1911 N   0  0  0  0  0  0  0  0  0  0  0  0
    3.0050   -0.2560    0.4098 C   0  0  0  0  0  0  0  0  0  0  0  0
    2.4354   -1.5614    0.5166 C   0  0  0  0  0  0  0  0  0  0  0  0
    1.1330   -1.9969    0.3909 N   0  0  0  0  0  0  0  0  0  0  0  0
    1.2021   -3.3138    0.7155 C   0  0  0  0  0  0  0  0  0  0  0  0
    0.2517   -4.2868    0.9825 C   0  0  0  0  0  0  0  0  0  0  0  0
   -1.4083   -4.4152    0.8766 S   0  0  0  0  0  0  0  0  0  0  0  0
   -0.1177   -1.2252    0.3315 C   0  0  0  0  0  0  0  0  0  0  0  0
   -0.2512   -0.2795    1.5249 C   0  0  0  0  0  0  0  0  0  0  0  0
    1.5729    1.0862   -1.2803 C   0  0  0  0  0  0  0  0  0  0  0  0
    1.7500    0.0508   -2.3942 C   0  0  0  0  0  0  0  0  0  0  0  0
    3.5611    7.0647   -0.5177 C   0  0  0  0  0  0  0  0  0  0  0  0
    2.7498    7.6112   -1.4447 C   0  0  0  0  0  0  0  0  0  0  0  0
    2.4122    6.9986   -2.7381 C   0  0  0  0  0  0  0  0  0  0  0  0
    2.9084    5.9482   -3.2206 O   0  0  0  0  0  0  0  0  0  0  0  0
    1.5783    7.9182   -3.4771 C   0  0  0  0  0  0  0  0  0  0  0  0
    0.9448    7.6971   -4.7036 C   0  0  0  0  0  0  0  0  0  0  0  0
    0.1036    8.6921   -5.2142 C   0  0  0  0  0  0  0  0  0  0  0  0
   -0.7120    8.4360   -6.7472 Cl  0  0  0  0  0  0  0  0  0  0  0  0
   -0.1041    9.8789   -4.4837 C   0  0  0  0  0  0  0  0  0  0  0  0
   -0.9517   10.8276   -4.9547 F   0  0  0  0  0  0  0  0  0  0  0  0
    0.5358   10.0743   -3.2483 C   0  0  0  0  0  0  0  0  0  0  0  0
    1.4089    9.0866   -2.7560 C   0  0  0  0  0  0  0  0  0  0  0  0
    2.1443    8.9894   -1.4560 C   0  0  0  0  0  0  0  0  0  0  0  0
    2.1844    9.9286   -0.4713 C   0  0  0  0  0  0  0  0  0  0  0  0
    2.6756    9.6553    0.8521 C   0  0  0  0  0  0  0  0  0  0  0  0
    3.0628    9.4465    1.9235 N   0  0  0  0  0  0  0  0  0  0  0  0
    1.7150   11.2756   -0.6601 C   0  0  0  0  0  0  0  0  0  0  0  0
    1.3480   12.3650   -0.7981 N   0  0  0  0  0  0  0  0  0  0  0  0
   -2.7887   -7.7044    1.6206 H   0  0  0  0  0  0  0  0  0  0  0  0
   -7.8374   -6.0063    0.7921 H   0  0  0  0  0  0  0  0  0  0  0  0
   -9.6896   -4.5147    0.0602 H   0  0  0  0  0  0  0  0  0  0  0  0
  -10.5538   -2.2438   -0.3369 H   0  0  0  0  0  0  0  0  0  0  0  0
   -7.0212   -0.5296    1.3905 H   0  0  0  0  0  0  0  0  0  0  0  0
   -5.2273   -1.9943    2.2197 H   0  0  0  0  0  0  0  0  0  0  0  0
   -0.6941   -8.1061    3.0988 H   0  0  0  0  0  0  0  0  0  0  0  0
    1.0183   -7.6005    3.2317 H   0  0  0  0  0  0  0  0  0  0  0  0
    0.6845   -9.7246    1.8862 H   0  0  0  0  0  0  0  0  0  0  0  0
   -0.2433   -8.7790    0.6619 H   0  0  0  0  0  0  0  0  0  0  0  0
    1.5058   -8.4224    0.9542 H   0  0  0  0  0  0  0  0  0  0  0  0
    6.8607    5.1667    1.2420 H   0  0  0  0  0  0  0  0  0  0  0  0
    5.9139    6.6852    1.2263 H   0  0  0  0  0  0  0  0  0  0  0  0
    6.3960    6.9832   -1.2093 H   0  0  0  0  0  0  0  0  0  0  0  0
    7.2955    5.4097   -1.2301 H   0  0  0  0  0  0  0  0  0  0  0  0
    7.9205    6.8032   -0.2656 H   0  0  0  0  0  0  0  0  0  0  0  0
   -0.9929   -1.8929    0.3587 H   0  0  0  0  0  0  0  0  0  0  0  0
   -0.2373   -0.7324   -0.6412 H   0  0  0  0  0  0  0  0  0  0  0  0
   -0.1701   -0.8552    2.4718 H   0  0  0  0  0  0  0  0  0  0  0  0
    0.5343    0.5052    1.5106 H   0  0  0  0  0  0  0  0  0  0  0  0
   -1.2413    0.2221    1.4995 H   0  0  0  0  0  0  0  0  0  0  0  0
    0.5453    1.1612   -0.8866 H   0  0  0  0  0  0  0  0  0  0  0  0
    1.7303    2.0683   -1.7647 H   0  0  0  0  0  0  0  0  0  0  0  0
    0.9868    0.2246   -3.1797 H   0  0  0  0  0  0  0  0  0  0  0  0
    2.7579    0.1532   -2.8423 H   0  0  0  0  0  0  0  0  0  0  0  0
    1.6377   -0.9837   -2.0216 H   0  0  0  0  0  0  0  0  0  0  0  0
    4.0005    7.6749    0.2473 H   0  0  0  0  0  0  0  0  0  0  0  0
    1.0857    6.7652   -5.2377 H   0  0  0  0  0  0  0  0  0  0  0  0
    0.3006   10.9670   -2.6986 H   0  0  0  0  0  0  0  0  0  0  0  0
  1  2  2  3
  2  3  1  0
  3  4  2  0
  3  5  1  0
  5  6  2  0
  6  7  1  0
  7  8  2  0
  8  9  1  0
  9 10  2  0
 10 11  1  0
 10 12  1  0
 12 13  2  0
 13 14  1  0
 14 15  2  0
 15 16  1  0
 16 17  2  3
 17 18  1  0
 18 19  3  0
 17 20  1  0
 20 21  3  0
  1 22  1  0
 22 23  2  0
 23 24  1  0
 24 25  1  0
 23 26  1  0
 26 27  1  0
 27 28  1  0
 28 29  1  0
 29 30  1  0
 30 31  1  0
 31 32  2  0
 32 33  1  0
 33 34  1  0
 31 35  1  0
 35 36  1  0
 36 37  1  0
 37 38  1  0
 38 39  1  0
 39 40  1  0
 40 41  1  0
 39 42  2  0
 42 43  1  0
 43 44  1  0
 44 45  1  0
 45 46  1  0
 46 47  1  0
 47 48  1  0
 48 49  1  0
 49 50  1  0
 50 51  1  0
 51 52  1  0
 49 53  1  0
 53 54  1  0
 46 55  1  0
 55 56  1  0
 42 57  1  0
 57 58  2  3
 58 59  1  0
 59 60  2  0
 59 61  1  0
 61 62  2  0
 62 63  1  0
 63 64  1  0
 63 65  2  0
 65 66  1  0
 65 67  1  0
 67 68  2  0
 68 69  1  0
 69 70  2  3
 70 71  1  0
 71 72  3  0
 70 73  1  0
 73 74  3  0
 16  2  1  0
 52 22  1  0
 69 58  1  0
 15  5  1  0
 51 26  2  0
 68 61  1  0
 13  7  1  0
 50 28  2  0
 48 29  2  0
 34 30  2  0
 47 35  2  0
 45 36  2  0
 44 38  2  0
  1 75  1  0
  6 76  1  0
  8 77  1  0
  9 78  1  0
 12 79  1  0
 14 80  1  0
 24 81  1  0
 24 82  1  0
 25 83  1  0
 25 84  1  0
 25 85  1  0
 40 86  1  0
 40 87  1  0
 41 88  1  0
 41 89  1  0
 41 90  1  0
 53 91  1  0
 53 92  1  0
 54 93  1  0
 54 94  1  0
 54 95  1  0
 55 96  1  0
 55 97  1  0
 56 98  1  0
 56 99  1  0
 56100  1  0
 57101  1  0
 62102  1  0
 67103  1  0
M  END

