
     RDKit          3D

103115  0  0  0  0  0  0  0  0999 V2000
   -1.9673   -6.9299    1.2849 C   0  0  0  0  0  0  0  0  0  0  0  0
   -3.0513   -6.3397    1.8223 C   0  0  0  0  0  0  0  0  0  0  0  0
   -4.4165   -6.7841    1.5461 C   0  0  0  0  0  0  0  0  0  0  0  0
   -4.7597   -7.9322    1.1639 O   0  0  0  0  0  0  0  0  0  0  0  0
   -5.2980   -5.6352    1.6800 C   0  0  0  0  0  0  0  0  0  0  0  0
   -6.6498   -5.5359    1.3488 C   0  0  0  0  0  0  0  0  0  0  0  0
   -7.2798   -4.2808    1.4713 C   0  0  0  0  0  0  0  0  0  0  0  0
   -8.6379   -4.1279    1.1545 C   0  0  0  0  0  0  0  0  0  0  0  0
   -9.2518   -2.8746    1.2719 C   0  0  0  0  0  0  0  0  0  0  0  0
   -8.5166   -1.7663    1.6963 C   0  0  0  0  0  0  0  0  0  0  0  0
   -9.1221   -0.5557    1.8191 F   0  0  0  0  0  0  0  0  0  0  0  0
   -7.1625   -1.8991    2.0090 C   0  0  0  0  0  0  0  0  0  0  0  0
   -6.5298   -3.1469    1.8981 C   0  0  0  0  0  0  0  0  0  0  0  0
   -5.1632   -3.2774    2.2063 C   0  0  0  0  0  0  0  0  0  0  0  0
   -4.5636   -4.5413    2.1113 C   0  0  0  0  0  0  0  0  0  0  0  0
   -3.1598   -4.9539    2.3612 C   0  0  0  0  0  0  0  0  0  0  0  0
   -2.2684   -4.3589    3.1912 C   0  0  0  0  0  0  0  0  0  0  0  0
   -1.1308   -5.0813    3.7066 C   0  0  0  0  0  0  0  0  0  0  0  0
   -0.2305   -5.6754    4.1344 N   0  0  0  0  0  0  0  0  0  0  0  0
   -2.4851   -3.0593    3.7672 C   0  0  0  0  0  0  0  0  0  0  0  0
   -2.6481   -2.0152    4.2408 N   0  0  0  0  0  0  0  0  0  0  0  0
   -0.7835   -6.1573    0.8722 C   0  0  0  0  0  0  0  0  0  0  0  0
    0.5661   -6.5133    1.0491 C   0  0  0  0  0  0  0  0  0  0  0  0
    1.0410   -7.7940    1.6740 C   0  0  0  0  0  0  0  0  0  0  0  0
    1.1977   -8.8718    0.6136 C   0  0  0  0  0  0  0  0  0  0  0  0
    1.4092   -5.4941    0.5841 C   0  0  0  0  0  0  0  0  0  0  0  0
    3.0680   -5.1707    0.7883 S   0  0  0  0  0  0  0  0  0  0  0  0
    2.8959   -3.6262    0.0892 C   0  0  0  0  0  0  0  0  0  0  0  0
    3.5557   -2.4289    0.1744 C   0  0  0  0  0  0  0  0  0  0  0  0
    4.7582   -2.1110    0.8176 C   0  0  0  0  0  0  0  0  0  0  0  0
    5.0642   -0.7409    1.0633 C   0  0  0  0  0  0  0  0  0  0  0  0
    6.2213   -0.4724    1.7183 N   0  0  0  0  0  0  0  0  0  0  0  0
    6.7747   -2.0169    1.9418 S   0  0  0  0  0  0  0  0  0  0  0  0
    5.6454   -3.0280    1.2739 N   0  0  0  0  0  0  0  0  0  0  0  0
    4.1701    0.2343    0.6218 C   0  0  0  0  0  0  0  0  0  0  0  0
    4.2298    1.5964    0.6678 C   0  0  0  0  0  0  0  0  0  0  0  0
    5.2578    2.8324    1.2130 S   0  0  0  0  0  0  0  0  0  0  0  0
    4.2489    4.0213    0.5046 C   0  0  0  0  0  0  0  0  0  0  0  0
    4.3113    5.4137    0.4077 C   0  0  0  0  0  0  0  0  0  0  0  0
    5.4275    6.2441    0.9785 C   0  0  0  0  0  0  0  0  0  0  0  0
    6.6138    6.2947    0.0181 C   0  0  0  0  0  0  0  0  0  0  0  0
    3.2303    5.9178   -0.3424 C   0  0  0  0  0  0  0  0  0  0  0  0
    2.2590    4.6236   -0.8868 S   0  0  0  0  0  0  0  0  0  0  0  0
    3.1929    3.4467   -0.1507 C   0  0  0  0  0  0  0  0  0  0  0  0
    3.1811    2.0640   -0.0444 C   0  0  0  0  0  0  0  0  0  0  0  0
    2.4276    1.0796   -0.5930 N   0  0  0  0  0  0  0  0  0  0  0  0
    2.9982   -0.0734   -0.0944 C   0  0  0  0  0  0  0  0  0  0  0  0
    2.6256   -1.4444   -0.2222 C   0  0  0  0  0  0  0  0  0  0  0  0
    1.3873   -2.0164   -0.4262 N   0  0  0  0  0  0  0  0  0  0  0  0
    1.6095   -3.3442   -0.2417 C   0  0  0  0  0  0  0  0  0  0  0  0
    0.7629   -4.4078    0.0503 C   0  0  0  0  0  0  0  0  0  0  0  0
   -0.8868   -4.6316    0.1286 S   0  0  0  0  0  0  0  0  0  0  0  0
    0.0586   -1.3863   -0.3921 C   0  0  0  0  0  0  0  0  0  0  0  0
   -0.2183   -0.7424    0.9637 C   0  0  0  0  0  0  0  0  0  0  0  0
    1.5819    1.2833   -1.7807 C   0  0  0  0  0  0  0  0  0  0  0  0
    1.9467    0.3420   -2.9330 C   0  0  0  0  0  0  0  0  0  0  0  0
    3.1012    7.3034   -0.8292 C   0  0  0  0  0  0  0  0  0  0  0  0
    1.9385    7.9832   -0.8832 C   0  0  0  0  0  0  0  0  0  0  0  0
    0.6454    7.5270   -0.3509 C   0  0  0  0  0  0  0  0  0  0  0  0
    0.4621    6.6409    0.5263 O   0  0  0  0  0  0  0  0  0  0  0  0
   -0.3960    8.3370   -0.9438 C   0  0  0  0  0  0  0  0  0  0  0  0
   -1.7751    8.1891   -0.8066 C   0  0  0  0  0  0  0  0  0  0  0  0
   -2.6200    9.0430   -1.5292 C   0  0  0  0  0  0  0  0  0  0  0  0
   -4.3617    8.8634   -1.3534 Cl  0  0  0  0  0  0  0  0  0  0  0  0
   -2.0674   10.0192   -2.3924 C   0  0  0  0  0  0  0  0  0  0  0  0
   -3.1830   11.1758   -3.4392 Br  0  0  0  0  0  0  0  0  0  0  0  0
   -0.6700   10.1533   -2.5006 C   0  0  0  0  0  0  0  0  0  0  0  0
    0.1669    9.3147   -1.7431 C   0  0  0  0  0  0  0  0  0  0  0  0
    1.6551    9.2415   -1.6518 C   0  0  0  0  0  0  0  0  0  0  0  0
    2.5427   10.1969   -2.0363 C   0  0  0  0  0  0  0  0  0  0  0  0
    3.9379   10.1468   -1.6802 C   0  0  0  0  0  0  0  0  0  0  0  0
    5.0615   10.1191   -1.3993 N   0  0  0  0  0  0  0  0  0  0  0  0
    2.1436   11.3963   -2.7220 C   0  0  0  0  0  0  0  0  0  0  0  0
    1.8387   12.3698   -3.2755 N   0  0  0  0  0  0  0  0  0  0  0  0
   -2.0361   -7.9521    0.9363 H   0  0  0  0  0  0  0  0  0  0  0  0
   -7.1934   -6.4058    1.0017 H   0  0  0  0  0  0  0  0  0  0  0  0
   -9.2253   -4.9754    0.8246 H   0  0  0  0  0  0  0  0  0  0  0  0
  -10.3020   -2.7651    1.0347 H   0  0  0  0  0  0  0  0  0  0  0  0
   -6.6074   -1.0298    2.3412 H   0  0  0  0  0  0  0  0  0  0  0  0
   -4.5892   -2.4024    2.4786 H   0  0  0  0  0  0  0  0  0  0  0  0
    0.3080   -8.1397    2.4346 H   0  0  0  0  0  0  0  0  0  0  0  0
    2.0147   -7.6391    2.1905 H   0  0  0  0  0  0  0  0  0  0  0  0
    1.4431   -9.8410    1.1016 H   0  0  0  0  0  0  0  0  0  0  0  0
    0.2580   -8.9962    0.0331 H   0  0  0  0  0  0  0  0  0  0  0  0
    2.0217   -8.6006   -0.0807 H   0  0  0  0  0  0  0  0  0  0  0  0
    5.7584    5.8107    1.9453 H   0  0  0  0  0  0  0  0  0  0  0  0
    5.0668    7.2761    1.1772 H   0  0  0  0  0  0  0  0  0  0  0  0
    7.4168    6.9182    0.4589 H   0  0  0  0  0  0  0  0  0  0  0  0
    6.3130    6.7436   -0.9547 H   0  0  0  0  0  0  0  0  0  0  0  0
    7.0165    5.2715   -0.1496 H   0  0  0  0  0  0  0  0  0  0  0  0
   -0.7298   -2.1304   -0.5914 H   0  0  0  0  0  0  0  0  0  0  0  0
   -0.0677   -0.6841   -1.2180 H   0  0  0  0  0  0  0  0  0  0  0  0
   -1.2565   -0.3467    0.9894 H   0  0  0  0  0  0  0  0  0  0  0  0
    0.4800    0.0983    1.1450 H   0  0  0  0  0  0  0  0  0  0  0  0
   -0.1009   -1.4922    1.7734 H   0  0  0  0  0  0  0  0  0  0  0  0
    0.5105    1.2704   -1.5107 H   0  0  0  0  0  0  0  0  0  0  0  0
    1.7413    2.3040   -2.1836 H   0  0  0  0  0  0  0  0  0  0  0  0
    1.3703    0.6288   -3.8397 H   0  0  0  0  0  0  0  0  0  0  0  0
    3.0327    0.4216   -3.1579 H   0  0  0  0  0  0  0  0  0  0  0  0
    1.7084   -0.7139   -2.6971 H   0  0  0  0  0  0  0  0  0  0  0  0
    3.9908    7.7089   -1.2706 H   0  0  0  0  0  0  0  0  0  0  0  0
   -2.1876    7.4225   -0.1633 H   0  0  0  0  0  0  0  0  0  0  0  0
   -0.2765   10.8775   -3.1902 H   0  0  0  0  0  0  0  0  0  0  0  0
  1  2  2  3
  2  3  1  0
  3  4  2  0
  3  5  1  0
  5  6  2  0
  6  7  1  0
  7  8  2  0
  8  9  1  0
  9 10  2  0
 10 11  1  0
 10 12  1  0
 12 13  2  0
 13 14  1  0
 14 15  2  0
 15 16  1  0
 16 17  2  3
 17 18  1  0
 18 19  3  0
 17 20  1  0
 20 21  3  0
  1 22  1  0
 22 23  2  0
 23 24  1  0
 24 25  1  0
 23 26  1  0
 26 27  1  0
 27 28  1  0
 28 29  1  0
 29 30  1  0
 30 31  1  0
 31 32  2  0
 32 33  1  0
 33 34  1  0
 31 35  1  0
 35 36  1  0
 36 37  1  0
 37 38  1  0
 38 39  1  0
 39 40  1  0
 40 41  1  0
 39 42  2  0
 42 43  1  0
 43 44  1  0
 44 45  1  0
 45 46  1  0
 46 47  1  0
 47 48  1  0
 48 49  1  0
 49 50  1  0
 50 51  1  0
 51 52  1  0
 49 53  1  0
 53 54  1  0
 46 55  1  0
 55 56  1  0
 42 57  1  0
 57 58  2  3
 58 59  1  0
 59 60  2  0
 59 61  1  0
 61 62  2  0
 62 63  1  0
 63 64  1  0
 63 65  2  0
 65 66  1  0
 65 67  1  0
 67 68  2  0
 68 69  1  0
 69 70  2  3
 70 71  1  0
 71 72  3  0
 70 73  1  0
 73 74  3  0
 16  2  1  0
 52 22  1  0
 69 58  1  0
 15  5  1  0
 51 26  2  0
 68 61  1  0
 13  7  1  0
 50 28  2  0
 48 29  2  0
 34 30  2  0
 47 35  2  0
 45 36  2  0
 44 38  2  0
  1 75  1  0
  6 76  1  0
  8 77  1  0
  9 78  1  0
 12 79  1  0
 14 80  1  0
 24 81  1  0
 24 82  1  0
 25 83  1  0
 25 84  1  0
 25 85  1  0
 40 86  1  0
 40 87  1  0
 41 88  1  0
 41 89  1  0
 41 90  1  0
 53 91  1  0
 53 92  1  0
 54 93  1  0
 54 94  1  0
 54 95  1  0
 55 96  1  0
 55 97  1  0
 56 98  1  0
 56 99  1  0
 56100  1  0
 57101  1  0
 62102  1  0
 67103  1  0
M  END

