
     RDKit          3D

 98109  0  0  0  0  0  0  0  0999 V2000
   -1.9189    6.3005    1.0876 C   0  0  0  0  0  0  0  0  0  0  0  0
   -0.8546    7.1232    1.1271 C   0  0  0  0  0  0  0  0  0  0  0  0
    0.4379    6.7851    1.7481 C   0  0  0  0  0  0  0  0  0  0  0  0
    0.6193    6.0267    2.7451 O   0  0  0  0  0  0  0  0  0  0  0  0
    1.4786    7.4816    1.0290 C   0  0  0  0  0  0  0  0  0  0  0  0
    2.8567    7.3479    1.1837 C   0  0  0  0  0  0  0  0  0  0  0  0
    3.6971    8.0289    0.2934 C   0  0  0  0  0  0  0  0  0  0  0  0
    5.0886    7.9122    0.3999 C   0  0  0  0  0  0  0  0  0  0  0  0
    5.9212    8.5598   -0.5206 C   0  0  0  0  0  0  0  0  0  0  0  0
    5.3717    9.3091   -1.5629 C   0  0  0  0  0  0  0  0  0  0  0  0
    6.1875    9.8871   -2.4767 F   0  0  0  0  0  0  0  0  0  0  0  0
    3.9870    9.4461   -1.6772 C   0  0  0  0  0  0  0  0  0  0  0  0
    3.1356    8.8224   -0.7498 C   0  0  0  0  0  0  0  0  0  0  0  0
    1.7375    8.9589   -0.8633 C   0  0  0  0  0  0  0  0  0  0  0  0
    0.9116    8.2886    0.0506 C   0  0  0  0  0  0  0  0  0  0  0  0
   -0.5780    8.2048    0.1380 C   0  0  0  0  0  0  0  0  0  0  0  0
   -1.4919    9.0429   -0.4042 C   0  0  0  0  0  0  0  0  0  0  0  0
   -1.1559    9.9896   -1.4453 C   0  0  0  0  0  0  0  0  0  0  0  0
   -0.8845   10.7286   -2.3021 N   0  0  0  0  0  0  0  0  0  0  0  0
   -2.8574    9.0551    0.0506 C   0  0  0  0  0  0  0  0  0  0  0  0
   -3.9522    9.0709    0.4250 N   0  0  0  0  0  0  0  0  0  0  0  0
   -1.8334    4.9167    1.5754 C   0  0  0  0  0  0  0  0  0  0  0  0
   -2.2519    4.4273    2.8232 C   0  0  0  0  0  0  0  0  0  0  0  0
   -2.9777    5.2313    3.8634 C   0  0  0  0  0  0  0  0  0  0  0  0
   -4.4873    4.9729    3.7866 C   0  0  0  0  0  0  0  0  0  0  0  0
   -1.9675    3.0660    2.9391 C   0  0  0  0  0  0  0  0  0  0  0  0
   -2.3725    1.8815    4.0942 S   0  0  0  0  0  0  0  0  0  0  0  0
   -1.6117    0.6783    3.1623 C   0  0  0  0  0  0  0  0  0  0  0  0
   -1.6962   -0.6794    3.0379 C   0  0  0  0  0  0  0  0  0  0  0  0
   -2.4022   -1.6160    3.7986 C   0  0  0  0  0  0  0  0  0  0  0  0
   -2.5824   -2.9317    3.2900 C   0  0  0  0  0  0  0  0  0  0  0  0
   -3.2997   -3.7986    4.0506 N   0  0  0  0  0  0  0  0  0  0  0  0
   -3.6691   -2.8117    5.3253 S   0  0  0  0  0  0  0  0  0  0  0  0
   -2.9840   -1.3421    4.9878 N   0  0  0  0  0  0  0  0  0  0  0  0
   -2.0336   -3.2448    2.0486 C   0  0  0  0  0  0  0  0  0  0  0  0
   -1.9379   -4.4286    1.3857 C   0  0  0  0  0  0  0  0  0  0  0  0
   -2.2633   -6.0685    1.6703 S   0  0  0  0  0  0  0  0  0  0  0  0
   -1.3818   -6.5061    0.2773 C   0  0  0  0  0  0  0  0  0  0  0  0
   -1.0851   -7.7278   -0.3294 C   0  0  0  0  0  0  0  0  0  0  0  0
   -1.4380   -9.0710    0.2450 C   0  0  0  0  0  0  0  0  0  0  0  0
   -0.2985   -9.6022    1.1109 C   0  0  0  0  0  0  0  0  0  0  0  0
   -0.3098   -7.5294   -1.4812 C   0  0  0  0  0  0  0  0  0  0  0  0
    0.0336   -5.8735   -1.6908 S   0  0  0  0  0  0  0  0  0  0  0  0
   -0.8245   -5.4101   -0.3326 C   0  0  0  0  0  0  0  0  0  0  0  0
   -1.1471   -4.2217    0.3110 C   0  0  0  0  0  0  0  0  0  0  0  0
   -0.6615   -2.9543    0.2424 N   0  0  0  0  0  0  0  0  0  0  0  0
   -1.2857   -2.3242    1.2945 C   0  0  0  0  0  0  0  0  0  0  0  0
   -1.1801   -0.9840    1.7660 C   0  0  0  0  0  0  0  0  0  0  0  0
   -0.8726    0.1692    1.0893 N   0  0  0  0  0  0  0  0  0  0  0  0
   -1.1352    1.1492    1.9869 C   0  0  0  0  0  0  0  0  0  0  0  0
   -1.3411    2.5107    1.8534 C   0  0  0  0  0  0  0  0  0  0  0  0
   -1.1300    3.6621    0.6616 S   0  0  0  0  0  0  0  0  0  0  0  0
   -0.8137    0.3895   -0.3560 C   0  0  0  0  0  0  0  0  0  0  0  0
    0.5590    0.9132   -0.7802 C   0  0  0  0  0  0  0  0  0  0  0  0
    0.6666   -2.6475   -0.3165 C   0  0  0  0  0  0  0  0  0  0  0  0
    1.7137   -2.4918    0.7816 C   0  0  0  0  0  0  0  0  0  0  0  0
    0.2068   -8.5788   -2.3677 C   0  0  0  0  0  0  0  0  0  0  0  0
   -0.2154   -8.7629   -3.6297 C   0  0  0  0  0  0  0  0  0  0  0  0
    0.5610   -9.9547   -4.7278 S   0  0  0  0  0  0  0  0  0  0  0  0
   -0.5071   -9.3496   -6.0458 C   0  0  0  0  0  0  0  0  0  0  0  0
   -0.2491   -9.7588   -7.6114 S   0  0  0  0  0  0  0  0  0  0  0  0
   -1.4926   -8.3937   -5.6466 N   0  0  0  0  0  0  0  0  0  0  0  0
   -2.3973   -7.6696   -6.5485 C   0  0  0  0  0  0  0  0  0  0  0  0
   -1.7158   -6.4123   -7.0878 C   0  0  0  0  0  0  0  0  0  0  0  0
   -1.3230   -8.0530   -4.2789 C   0  0  0  0  0  0  0  0  0  0  0  0
   -2.0947   -7.2523   -3.6861 O   0  0  0  0  0  0  0  0  0  0  0  0
   -2.7587    6.5217    0.4356 H   0  0  0  0  0  0  0  0  0  0  0  0
    3.2705    6.7222    1.9644 H   0  0  0  0  0  0  0  0  0  0  0  0
    5.5385    7.3183    1.1874 H   0  0  0  0  0  0  0  0  0  0  0  0
    6.9986    8.4510   -0.4436 H   0  0  0  0  0  0  0  0  0  0  0  0
    3.5845   10.0337   -2.4923 H   0  0  0  0  0  0  0  0  0  0  0  0
    1.3258    9.5353   -1.6745 H   0  0  0  0  0  0  0  0  0  0  0  0
   -2.6059    4.9423    4.8810 H   0  0  0  0  0  0  0  0  0  0  0  0
   -2.7640    6.3252    3.7375 H   0  0  0  0  0  0  0  0  0  0  0  0
   -5.0284    5.7373    4.3878 H   0  0  0  0  0  0  0  0  0  0  0  0
   -4.8417    5.0335    2.7346 H   0  0  0  0  0  0  0  0  0  0  0  0
   -4.7260    3.9573    4.1872 H   0  0  0  0  0  0  0  0  0  0  0  0
   -1.6081   -9.7894   -0.5829 H   0  0  0  0  0  0  0  0  0  0  0  0
   -2.3697   -8.9974    0.8333 H   0  0  0  0  0  0  0  0  0  0  0  0
   -0.5879  -10.5770    1.5695 H   0  0  0  0  0  0  0  0  0  0  0  0
    0.6089   -9.7647    0.5021 H   0  0  0  0  0  0  0  0  0  0  0  0
   -0.0558   -8.8742    1.9117 H   0  0  0  0  0  0  0  0  0  0  0  0
   -1.5799    1.1321   -0.6368 H   0  0  0  0  0  0  0  0  0  0  0  0
   -1.0939   -0.5238   -0.9101 H   0  0  0  0  0  0  0  0  0  0  0  0
    0.6129    0.9525   -1.8827 H   0  0  0  0  0  0  0  0  0  0  0  0
    1.3741    0.2669   -0.3864 H   0  0  0  0  0  0  0  0  0  0  0  0
    0.7376    1.9312   -0.3881 H   0  0  0  0  0  0  0  0  0  0  0  0
    0.6557   -1.7672   -0.9675 H   0  0  0  0  0  0  0  0  0  0  0  0
    1.0137   -3.4601   -0.9835 H   0  0  0  0  0  0  0  0  0  0  0  0
    1.6924   -3.3736    1.4590 H   0  0  0  0  0  0  0  0  0  0  0  0
    1.5326   -1.5750    1.3897 H   0  0  0  0  0  0  0  0  0  0  0  0
    2.7305   -2.4067    0.3328 H   0  0  0  0  0  0  0  0  0  0  0  0
    1.0053   -9.1997   -1.9833 H   0  0  0  0  0  0  0  0  0  0  0  0
   -3.3254   -7.3998   -6.0005 H   0  0  0  0  0  0  0  0  0  0  0  0
   -2.7047   -8.3184   -7.3972 H   0  0  0  0  0  0  0  0  0  0  0  0
   -1.3757   -5.7601   -6.2572 H   0  0  0  0  0  0  0  0  0  0  0  0
   -2.4245   -5.8402   -7.7258 H   0  0  0  0  0  0  0  0  0  0  0  0
   -0.8432   -6.6876   -7.7097 H   0  0  0  0  0  0  0  0  0  0  0  0
  1  2  2  3
  2  3  1  0
  3  4  2  0
  3  5  1  0
  5  6  2  0
  6  7  1  0
  7  8  2  0
  8  9  1  0
  9 10  2  0
 10 11  1  0
 10 12  1  0
 12 13  2  0
 13 14  1  0
 14 15  2  0
 15 16  1  0
 16 17  2  3
 17 18  1  0
 18 19  3  0
 17 20  1  0
 20 21  3  0
  1 22  1  0
 22 23  2  0
 23 24  1  0
 24 25  1  0
 23 26  1  0
 26 27  1  0
 27 28  1  0
 28 29  1  0
 29 30  1  0
 30 31  1  0
 31 32  2  0
 32 33  1  0
 33 34  1  0
 31 35  1  0
 35 36  1  0
 36 37  1  0
 37 38  1  0
 38 39  1  0
 39 40  1  0
 40 41  1  0
 39 42  2  0
 42 43  1  0
 43 44  1  0
 44 45  1  0
 45 46  1  0
 46 47  1  0
 47 48  1  0
 48 49  1  0
 49 50  1  0
 50 51  1  0
 51 52  1  0
 49 53  1  0
 53 54  1  0
 46 55  1  0
 55 56  1  0
 42 57  1  0
 57 58  2  3
 58 59  1  0
 59 60  1  0
 60 61  2  0
 60 62  1  0
 62 63  1  0
 63 64  1  0
 62 65  1  0
 65 66  2  0
 16  2  1  0
 52 22  1  0
 65 58  1  0
 15  5  1  0
 51 26  2  0
 13  7  1  0
 50 28  2  0
 48 29  2  0
 34 30  2  0
 47 35  2  0
 45 36  2  0
 44 38  2  0
  1 67  1  0
  6 68  1  0
  8 69  1  0
  9 70  1  0
 12 71  1  0
 14 72  1  0
 24 73  1  0
 24 74  1  0
 25 75  1  0
 25 76  1  0
 25 77  1  0
 40 78  1  0
 40 79  1  0
 41 80  1  0
 41 81  1  0
 41 82  1  0
 53 83  1  0
 53 84  1  0
 54 85  1  0
 54 86  1  0
 54 87  1  0
 55 88  1  0
 55 89  1  0
 56 90  1  0
 56 91  1  0
 56 92  1  0
 57 93  1  0
 63 94  1  0
 63 95  1  0
 64 96  1  0
 64 97  1  0
 64 98  1  0
M  END

