
     RDKit          3D

164180  0  0  0  0  0  0  0  0999 V2000
    6.9239   -1.7060    6.5121 C   0  0  0  0  0  0  0  0  0  0  0  0
    6.6611   -3.0275    6.5272 C   0  0  0  0  0  0  0  0  0  0  0  0
    5.6361   -3.7068    5.7217 C   0  0  0  0  0  0  0  0  0  0  0  0
    5.0351   -3.2357    4.7165 O   0  0  0  0  0  0  0  0  0  0  0  0
    5.4508   -5.0437    6.2462 C   0  0  0  0  0  0  0  0  0  0  0  0
    4.5304   -6.0092    5.8370 C   0  0  0  0  0  0  0  0  0  0  0  0
    4.4785   -7.2264    6.5376 C   0  0  0  0  0  0  0  0  0  0  0  0
    3.5925   -8.2395    6.1434 C   0  0  0  0  0  0  0  0  0  0  0  0
    3.5355   -9.4407    6.8533 C   0  0  0  0  0  0  0  0  0  0  0  0
    4.3559   -9.6376    7.9682 C   0  0  0  0  0  0  0  0  0  0  0  0
    4.2914  -10.8081    8.6556 F   0  0  0  0  0  0  0  0  0  0  0  0
    5.2419   -8.6382    8.3783 C   0  0  0  0  0  0  0  0  0  0  0  0
    5.3229   -7.4319    7.6647 C   0  0  0  0  0  0  0  0  0  0  0  0
    6.2381   -6.4326    8.0518 C   0  0  0  0  0  0  0  0  0  0  0  0
    6.3207   -5.2494    7.3047 C   0  0  0  0  0  0  0  0  0  0  0  0
    7.2098   -4.0603    7.4652 C   0  0  0  0  0  0  0  0  0  0  0  0
    8.3917   -4.0184    8.1387 C   0  0  0  0  0  0  0  0  0  0  0  0
    9.2798   -2.8885    8.0776 C   0  0  0  0  0  0  0  0  0  0  0  0
   10.0019   -1.9840    8.0360 N   0  0  0  0  0  0  0  0  0  0  0  0
    8.9134   -5.1521    8.8537 C   0  0  0  0  0  0  0  0  0  0  0  0
    9.3636   -6.0531    9.4249 N   0  0  0  0  0  0  0  0  0  0  0  0
    6.1713   -0.7545    5.6865 C   0  0  0  0  0  0  0  0  0  0  0  0
    4.8459   -0.4186    5.9005 C   0  0  0  0  0  0  0  0  0  0  0  0
    4.3024    0.3577    4.8588 C   0  0  0  0  0  0  0  0  0  0  0  0
    2.8566    0.4230    4.3490 C   0  0  0  0  0  0  0  0  0  0  0  0
    2.4032    1.8957    4.2045 C   0  0  0  0  0  0  0  0  0  0  0  0
    3.0939    2.9550    4.8429 C   0  0  0  0  0  0  0  0  0  0  0  0
    2.7113    4.2852    4.6437 C   0  0  0  0  0  0  0  0  0  0  0  0
    1.6052    4.5911    3.8408 C   0  0  0  0  0  0  0  0  0  0  0  0
    1.2273    6.0260    3.5921 C   0  0  0  0  0  0  0  0  0  0  0  0
    2.0377    6.6105    2.4406 C   0  0  0  0  0  0  0  0  0  0  0  0
    0.8794    3.5489    3.2456 C   0  0  0  0  0  0  0  0  0  0  0  0
    1.2631    2.2213    3.4404 C   0  0  0  0  0  0  0  0  0  0  0  0
    1.8451   -0.2572    5.2781 C   0  0  0  0  0  0  0  0  0  0  0  0
    1.8898    0.0071    6.6656 C   0  0  0  0  0  0  0  0  0  0  0  0
    0.9567   -0.5457    7.5429 C   0  0  0  0  0  0  0  0  0  0  0  0
   -0.0979   -1.3217    7.0458 C   0  0  0  0  0  0  0  0  0  0  0  0
   -1.0789   -1.9457    7.9922 C   0  0  0  0  0  0  0  0  0  0  0  0
   -2.1332   -0.9314    8.4293 C   0  0  0  0  0  0  0  0  0  0  0  0
   -0.2587   -1.4402    5.6583 C   0  0  0  0  0  0  0  0  0  0  0  0
    0.6829   -0.8796    4.7892 C   0  0  0  0  0  0  0  0  0  0  0  0
    3.1563   -0.1863    2.9504 C   0  0  0  0  0  0  0  0  0  0  0  0
    4.4074    0.3212    2.6308 C   0  0  0  0  0  0  0  0  0  0  0  0
    5.1811    0.5678    3.8199 C   0  0  0  0  0  0  0  0  0  0  0  0
    6.6407   -0.1940    4.1731 S   0  0  0  0  0  0  0  0  0  0  0  0
    4.3165    1.2756    1.2361 S   0  0  0  0  0  0  0  0  0  0  0  0
    2.7744    0.7162    0.8345 C   0  0  0  0  0  0  0  0  0  0  0  0
    2.0978    0.8677   -0.3771 C   0  0  0  0  0  0  0  0  0  0  0  0
    1.2416   -0.1863   -0.7758 C   0  0  0  0  0  0  0  0  0  0  0  0
    1.0133   -1.2798    0.0847 C   0  0  0  0  0  0  0  0  0  0  0  0
    1.5621   -1.2929    1.3874 C   0  0  0  0  0  0  0  0  0  0  0  0
    1.4143   -2.3924    2.2491 O   0  0  0  0  0  0  0  0  0  0  0  0
    0.7315   -3.6072    1.9541 C   0  0  0  0  0  0  0  0  0  0  0  0
    1.6119   -4.5201    1.1059 C   0  0  0  0  0  0  0  0  0  0  0  0
    2.3477   -0.1972    1.7973 C   0  0  0  0  0  0  0  0  0  0  0  0
    0.6174   -0.0796   -2.0194 C   0  0  0  0  0  0  0  0  0  0  0  0
    0.5386    1.1461   -2.6832 C   0  0  0  0  0  0  0  0  0  0  0  0
    1.4050    2.1942   -2.3258 C   0  0  0  0  0  0  0  0  0  0  0  0
    2.2260    2.0221   -1.1777 C   0  0  0  0  0  0  0  0  0  0  0  0
    1.5209    3.3170   -3.1549 O   0  0  0  0  0  0  0  0  0  0  0  0
    2.6534    4.1888   -3.1534 C   0  0  0  0  0  0  0  0  0  0  0  0
    2.5592    5.1605   -4.3200 C   0  0  0  0  0  0  0  0  0  0  0  0
   -0.3142    1.0740   -3.7995 C   0  0  0  0  0  0  0  0  0  0  0  0
   -0.6010   -0.2358   -4.1328 C   0  0  0  0  0  0  0  0  0  0  0  0
   -0.1827   -1.2909   -2.8975 S   0  0  0  0  0  0  0  0  0  0  0  0
   -1.7172   -0.2456   -5.0225 C   0  0  0  0  0  0  0  0  0  0  0  0
   -2.3827   -1.3013   -6.1257 S   0  0  0  0  0  0  0  0  0  0  0  0
   -3.3356   -0.0854   -6.8386 C   0  0  0  0  0  0  0  0  0  0  0  0
   -3.1325    1.1390   -6.1871 C   0  0  0  0  0  0  0  0  0  0  0  0
   -2.1578    1.0185   -5.1986 C   0  0  0  0  0  0  0  0  0  0  0  0
   -1.4929    1.9803   -4.2299 C   0  0  0  0  0  0  0  0  0  0  0  0
   -2.5636    2.2059   -3.1312 C   0  0  0  0  0  0  0  0  0  0  0  0
   -2.6034    1.4658   -1.9291 C   0  0  0  0  0  0  0  0  0  0  0  0
   -3.6919    1.5577   -1.0590 C   0  0  0  0  0  0  0  0  0  0  0  0
   -4.7819    2.3754   -1.3666 C   0  0  0  0  0  0  0  0  0  0  0  0
   -6.0183    2.3493   -0.5043 C   0  0  0  0  0  0  0  0  0  0  0  0
   -6.9815    1.2680   -0.9840 C   0  0  0  0  0  0  0  0  0  0  0  0
   -4.7645    3.1166   -2.5526 C   0  0  0  0  0  0  0  0  0  0  0  0
   -3.6753    3.0276   -3.4220 C   0  0  0  0  0  0  0  0  0  0  0  0
   -1.0402    3.2868   -4.8923 C   0  0  0  0  0  0  0  0  0  0  0  0
   -0.6420    3.3272   -6.2445 C   0  0  0  0  0  0  0  0  0  0  0  0
   -0.4543    4.5529   -6.8950 C   0  0  0  0  0  0  0  0  0  0  0  0
   -0.6297    5.7592   -6.1971 C   0  0  0  0  0  0  0  0  0  0  0  0
   -0.5338    7.0831   -6.9127 C   0  0  0  0  0  0  0  0  0  0  0  0
    0.8991    7.6024   -6.9174 C   0  0  0  0  0  0  0  0  0  0  0  0
   -0.8936    5.7237   -4.8222 C   0  0  0  0  0  0  0  0  0  0  0  0
   -1.0655    4.4998   -4.1745 C   0  0  0  0  0  0  0  0  0  0  0  0
   -4.2216   -0.3337   -7.9843 C   0  0  0  0  0  0  0  0  0  0  0  0
   -4.2552    0.4175   -9.1079 C   0  0  0  0  0  0  0  0  0  0  0  0
   -3.2631    1.4341   -9.4753 C   0  0  0  0  0  0  0  0  0  0  0  0
   -2.3101    1.8326   -8.7583 O   0  0  0  0  0  0  0  0  0  0  0  0
   -3.4878    1.8374  -10.8500 C   0  0  0  0  0  0  0  0  0  0  0  0
   -4.5579    1.1159  -11.3684 C   0  0  0  0  0  0  0  0  0  0  0  0
   -5.0237    1.4058  -12.6604 C   0  0  0  0  0  0  0  0  0  0  0  0
   -4.3561    2.3701  -13.4309 C   0  0  0  0  0  0  0  0  0  0  0  0
   -3.2488    3.0599  -12.9190 C   0  0  0  0  0  0  0  0  0  0  0  0
   -2.3969    4.3679  -14.0222 Br  0  0  0  0  0  0  0  0  0  0  0  0
   -2.8031    2.8047  -11.6027 C   0  0  0  0  0  0  0  0  0  0  0  0
   -1.4395    3.6892  -10.9241 Cl  0  0  0  0  0  0  0  0  0  0  0  0
   -5.0964    0.1875  -10.3303 C   0  0  0  0  0  0  0  0  0  0  0  0
   -6.1270   -0.6987  -10.4710 C   0  0  0  0  0  0  0  0  0  0  0  0
   -6.7845   -1.3200   -9.3511 C   0  0  0  0  0  0  0  0  0  0  0  0
   -7.3339   -1.8074   -8.4603 N   0  0  0  0  0  0  0  0  0  0  0  0
   -6.7122   -1.0186  -11.7542 C   0  0  0  0  0  0  0  0  0  0  0  0
   -7.1784   -1.3115  -12.7795 N   0  0  0  0  0  0  0  0  0  0  0  0
    7.6107   -1.2639    7.2120 H   0  0  0  0  0  0  0  0  0  0  0  0
    3.8753   -5.8183    4.9939 H   0  0  0  0  0  0  0  0  0  0  0  0
    2.9482   -8.1065    5.2838 H   0  0  0  0  0  0  0  0  0  0  0  0
    2.8614  -10.2252    6.5352 H   0  0  0  0  0  0  0  0  0  0  0  0
    5.8749   -8.8098    9.2426 H   0  0  0  0  0  0  0  0  0  0  0  0
    6.8320   -6.5811    8.9382 H   0  0  0  0  0  0  0  0  0  0  0  0
    4.2872   -0.8601    6.7132 H   0  0  0  0  0  0  0  0  0  0  0  0
    3.9422    2.7743    5.4855 H   0  0  0  0  0  0  0  0  0  0  0  0
    3.2862    5.0770    5.1071 H   0  0  0  0  0  0  0  0  0  0  0  0
    1.3987    6.6298    4.5081 H   0  0  0  0  0  0  0  0  0  0  0  0
    0.1439    6.0980    3.3498 H   0  0  0  0  0  0  0  0  0  0  0  0
    1.9258    5.9811    1.5319 H   0  0  0  0  0  0  0  0  0  0  0  0
    1.6703    7.6343    2.2119 H   0  0  0  0  0  0  0  0  0  0  0  0
    3.1138    6.6657    2.7165 H   0  0  0  0  0  0  0  0  0  0  0  0
    0.0147    3.7649    2.6296 H   0  0  0  0  0  0  0  0  0  0  0  0
    0.6680    1.4470    2.9838 H   0  0  0  0  0  0  0  0  0  0  0  0
    2.6452    0.6683    7.0749 H   0  0  0  0  0  0  0  0  0  0  0  0
    1.0522   -0.3616    8.6052 H   0  0  0  0  0  0  0  0  0  0  0  0
   -0.5474   -2.3240    8.8960 H   0  0  0  0  0  0  0  0  0  0  0  0
   -1.5831   -2.8164    7.5117 H   0  0  0  0  0  0  0  0  0  0  0  0
   -1.6606   -0.0990    8.9948 H   0  0  0  0  0  0  0  0  0  0  0  0
   -2.6697   -0.5193    7.5493 H   0  0  0  0  0  0  0  0  0  0  0  0
   -2.8715   -1.4273    9.0951 H   0  0  0  0  0  0  0  0  0  0  0  0
   -1.1290   -1.9403    5.2514 H   0  0  0  0  0  0  0  0  0  0  0  0
    0.4521   -0.8682    3.7445 H   0  0  0  0  0  0  0  0  0  0  0  0
    0.3872   -2.0944   -0.2511 H   0  0  0  0  0  0  0  0  0  0  0  0
    0.5101   -4.1292    2.9121 H   0  0  0  0  0  0  0  0  0  0  0  0
   -0.2395   -3.4120    1.4555 H   0  0  0  0  0  0  0  0  0  0  0  0
    1.7980   -4.0621    0.1070 H   0  0  0  0  0  0  0  0  0  0  0  0
    2.5758   -4.6907    1.6217 H   0  0  0  0  0  0  0  0  0  0  0  0
    1.1064   -5.4958    0.9580 H   0  0  0  0  0  0  0  0  0  0  0  0
    2.9006    2.8125   -0.8705 H   0  0  0  0  0  0  0  0  0  0  0  0
    3.5865    3.5900   -3.2595 H   0  0  0  0  0  0  0  0  0  0  0  0
    2.6865    4.7601   -2.2011 H   0  0  0  0  0  0  0  0  0  0  0  0
    2.3834    4.6066   -5.2666 H   0  0  0  0  0  0  0  0  0  0  0  0
    1.7311    5.8744   -4.1425 H   0  0  0  0  0  0  0  0  0  0  0  0
    3.5102    5.7319   -4.4093 H   0  0  0  0  0  0  0  0  0  0  0  0
   -3.6302    2.0620   -6.4449 H   0  0  0  0  0  0  0  0  0  0  0  0
   -1.8377    0.7650   -1.6633 H   0  0  0  0  0  0  0  0  0  0  0  0
   -3.7035    0.9569   -0.1562 H   0  0  0  0  0  0  0  0  0  0  0  0
   -6.5277    3.3372   -0.5322 H   0  0  0  0  0  0  0  0  0  0  0  0
   -5.7435    2.1496    0.5536 H   0  0  0  0  0  0  0  0  0  0  0  0
   -7.8996    1.2744   -0.3587 H   0  0  0  0  0  0  0  0  0  0  0  0
   -7.2707    1.4427   -2.0417 H   0  0  0  0  0  0  0  0  0  0  0  0
   -6.5070    0.2674   -0.9076 H   0  0  0  0  0  0  0  0  0  0  0  0
   -5.6119    3.7332   -2.8262 H   0  0  0  0  0  0  0  0  0  0  0  0
   -3.7281    3.5772   -4.3594 H   0  0  0  0  0  0  0  0  0  0  0  0
   -0.5189    2.4141   -6.8146 H   0  0  0  0  0  0  0  0  0  0  0  0
   -0.2133    4.5621   -7.9510 H   0  0  0  0  0  0  0  0  0  0  0  0
   -0.8898    6.9756   -7.9599 H   0  0  0  0  0  0  0  0  0  0  0  0
   -1.1938    7.8310   -6.4195 H   0  0  0  0  0  0  0  0  0  0  0  0
    1.5721    6.8811   -7.4293 H   0  0  0  0  0  0  0  0  0  0  0  0
    1.2562    7.7702   -5.8795 H   0  0  0  0  0  0  0  0  0  0  0  0
    0.9404    8.5680   -7.4619 H   0  0  0  0  0  0  0  0  0  0  0  0
   -0.9835    6.6419   -4.2499 H   0  0  0  0  0  0  0  0  0  0  0  0
   -1.2811    4.5095   -3.1156 H   0  0  0  0  0  0  0  0  0  0  0  0
   -4.7865   -1.2507   -7.9199 H   0  0  0  0  0  0  0  0  0  0  0  0
   -5.8931    0.9371  -13.0804 H   0  0  0  0  0  0  0  0  0  0  0  0
   -4.7151    2.5937  -14.4240 H   0  0  0  0  0  0  0  0  0  0  0  0
  1  2  2  3
  2  3  1  0
  3  4  2  0
  3  5  1  0
  5  6  2  0
  6  7  1  0
  7  8  2  0
  8  9  1  0
  9 10  2  0
 10 11  1  0
 10 12  1  0
 12 13  2  0
 13 14  1  0
 14 15  2  0
 15 16  1  0
 16 17  2  3
 17 18  1  0
 18 19  3  0
 17 20  1  0
 20 21  3  0
  1 22  1  0
 22 23  2  0
 23 24  1  0
 24 25  1  0
 25 26  1  0
 26 27  2  0
 27 28  1  0
 28 29  2  0
 29 30  1  0
 30 31  1  0
 29 32  1  0
 32 33  2  0
 25 34  1  0
 34 35  2  0
 35 36  1  0
 36 37  2  0
 37 38  1  0
 38 39  1  0
 37 40  1  0
 40 41  2  0
 25 42  1  0
 42 43  2  0
 43 44  1  0
 44 45  1  0
 43 46  1  0
 46 47  1  0
 47 48  2  0
 48 49  1  0
 49 50  2  0
 50 51  1  0
 51 52  1  0
 52 53  1  0
 53 54  1  0
 51 55  2  0
 49 56  1  0
 56 57  2  0
 57 58  1  0
 58 59  2  0
 58 60  1  0
 60 61  1  0
 61 62  1  0
 57 63  1  0
 63 64  2  0
 64 65  1  0
 64 66  1  0
 66 67  1  0
 67 68  1  0
 68 69  2  0
 69 70  1  0
 70 71  1  0
 71 72  1  0
 72 73  2  0
 73 74  1  0
 74 75  2  0
 75 76  1  0
 76 77  1  0
 75 78  1  0
 78 79  2  0
 71 80  1  0
 80 81  2  0
 81 82  1  0
 82 83  2  0
 83 84  1  0
 84 85  1  0
 83 86  1  0
 86 87  2  0
 68 88  1  0
 88 89  2  3
 89 90  1  0
 90 91  2  0
 90 92  1  0
 92 93  2  0
 93 94  1  0
 94 95  2  0
 95 96  1  0
 96 97  1  0
 96 98  2  0
 98 99  1  0
 93100  1  0
100101  2  3
101102  1  0
102103  3  0
101104  1  0
104105  3  0
 16  2  1  0
 45 22  1  0
 55 47  1  0
 65 56  1  0
 70 66  2  0
 79 72  1  0
 87 80  1  0
100 89  1  0
 15  5  1  0
 44 24  2  0
 59 48  1  0
 71 63  1  0
 98 92  1  0
 13  7  1  0
 33 26  1  0
 41 34  1  0
 55 42  1  0
  1106  1  0
  6107  1  0
  8108  1  0
  9109  1  0
 12110  1  0
 14111  1  0
 23112  1  0
 27113  1  0
 28114  1  0
 30115  1  0
 30116  1  0
 31117  1  0
 31118  1  0
 31119  1  0
 32120  1  0
 33121  1  0
 35122  1  0
 36123  1  0
 38124  1  0
 38125  1  0
 39126  1  0
 39127  1  0
 39128  1  0
 40129  1  0
 41130  1  0
 50131  1  0
 53132  1  0
 53133  1  0
 54134  1  0
 54135  1  0
 54136  1  0
 59137  1  0
 61138  1  0
 61139  1  0
 62140  1  0
 62141  1  0
 62142  1  0
 69143  1  0
 73144  1  0
 74145  1  0
 76146  1  0
 76147  1  0
 77148  1  0
 77149  1  0
 77150  1  0
 78151  1  0
 79152  1  0
 81153  1  0
 82154  1  0
 84155  1  0
 84156  1  0
 85157  1  0
 85158  1  0
 85159  1  0
 86160  1  0
 87161  1  0
 88162  1  0
 94163  1  0
 95164  1  0
M  END

