
     RDKit          3D

119134  0  0  0  0  0  0  0  0999 V2000
   -5.1628    4.5198    5.4453 C   0  0  0  0  0  0  0  0  0  0  0  0
   -5.0510    3.4705    6.3116 C   0  0  0  0  0  0  0  0  0  0  0  0
   -4.9476    2.0493    5.9404 C   0  0  0  0  0  0  0  0  0  0  0  0
   -5.6065    1.4532    5.0566 O   0  0  0  0  0  0  0  0  0  0  0  0
   -4.1997    1.3756    6.9546 C   0  0  0  0  0  0  0  0  0  0  0  0
   -3.4088    0.2356    6.7973 C   0  0  0  0  0  0  0  0  0  0  0  0
   -2.4887   -0.1073    7.8104 C   0  0  0  0  0  0  0  0  0  0  0  0
   -1.4273   -0.9952    7.5378 C   0  0  0  0  0  0  0  0  0  0  0  0
   -0.3339   -1.0281    8.4074 C   0  0  0  0  0  0  0  0  0  0  0  0
   -0.3965   -0.4165    9.6749 C   0  0  0  0  0  0  0  0  0  0  0  0
    0.7063   -0.3171   10.4460 F   0  0  0  0  0  0  0  0  0  0  0  0
   -1.5229    0.3393   10.0151 C   0  0  0  0  0  0  0  0  0  0  0  0
   -2.5255    0.5656    9.0597 C   0  0  0  0  0  0  0  0  0  0  0  0
   -3.3998    1.6703    9.2078 C   0  0  0  0  0  0  0  0  0  0  0  0
   -4.1169    2.1525    8.0847 C   0  0  0  0  0  0  0  0  0  0  0  0
   -4.6468    3.5185    7.7772 C   0  0  0  0  0  0  0  0  0  0  0  0
   -4.6076    4.5963    8.6270 C   0  0  0  0  0  0  0  0  0  0  0  0
   -4.1018    4.5477    9.9864 C   0  0  0  0  0  0  0  0  0  0  0  0
   -3.6748    4.4826   11.0773 N   0  0  0  0  0  0  0  0  0  0  0  0
   -5.0497    5.9280    8.2637 C   0  0  0  0  0  0  0  0  0  0  0  0
   -5.3786    7.0256    8.0227 N   0  0  0  0  0  0  0  0  0  0  0  0
   -4.9977    4.4970    3.9556 C   0  0  0  0  0  0  0  0  0  0  0  0
   -4.9788    5.6239    3.0934 C   0  0  0  0  0  0  0  0  0  0  0  0
   -5.2120    7.0480    3.5441 C   0  0  0  0  0  0  0  0  0  0  0  0
   -3.8985    7.6561    4.0051 C   0  0  0  0  0  0  0  0  0  0  0  0
   -4.5366    5.2807    1.7877 C   0  0  0  0  0  0  0  0  0  0  0  0
   -3.9367    6.1959    0.4136 S   0  0  0  0  0  0  0  0  0  0  0  0
   -3.4008    4.7527   -0.3090 C   0  0  0  0  0  0  0  0  0  0  0  0
   -2.6178    4.3420   -1.3477 C   0  0  0  0  0  0  0  0  0  0  0  0
   -1.9766    5.1061   -2.3185 C   0  0  0  0  0  0  0  0  0  0  0  0
   -1.0203    4.4772   -3.1597 C   0  0  0  0  0  0  0  0  0  0  0  0
   -0.2991    5.2549   -3.9985 N   0  0  0  0  0  0  0  0  0  0  0  0
   -0.5125    6.6000   -4.0706 C   0  0  0  0  0  0  0  0  0  0  0  0
   -1.4775    7.2077   -3.2762 C   0  0  0  0  0  0  0  0  0  0  0  0
   -2.1827    6.4542   -2.4114 N   0  0  0  0  0  0  0  0  0  0  0  0
   -0.7831    3.1046   -2.9887 C   0  0  0  0  0  0  0  0  0  0  0  0
    0.2211    2.3406   -3.4855 C   0  0  0  0  0  0  0  0  0  0  0  0
    1.6154    2.5553   -4.4188 S   0  0  0  0  0  0  0  0  0  0  0  0
    2.2294    1.0325   -3.8943 C   0  0  0  0  0  0  0  0  0  0  0  0
    3.4376    0.3695   -4.1220 C   0  0  0  0  0  0  0  0  0  0  0  0
    4.5234    0.8894   -5.0488 C   0  0  0  0  0  0  0  0  0  0  0  0
    5.4744    1.7974   -4.2688 C   0  0  0  0  0  0  0  0  0  0  0  0
    3.4715   -0.8321   -3.4074 C   0  0  0  0  0  0  0  0  0  0  0  0
    2.0723   -1.0344   -2.4818 S   0  0  0  0  0  0  0  0  0  0  0  0
    1.3756    0.4013   -3.0443 C   0  0  0  0  0  0  0  0  0  0  0  0
    0.2353    1.1887   -2.7871 C   0  0  0  0  0  0  0  0  0  0  0  0
   -0.7402    1.1280   -1.8397 N   0  0  0  0  0  0  0  0  0  0  0  0
   -1.4056    2.3277   -1.9706 C   0  0  0  0  0  0  0  0  0  0  0  0
   -2.4092    2.9709   -1.1647 C   0  0  0  0  0  0  0  0  0  0  0  0
   -3.1396    2.5168   -0.0885 N   0  0  0  0  0  0  0  0  0  0  0  0
   -3.6821    3.6557    0.4249 C   0  0  0  0  0  0  0  0  0  0  0  0
   -4.2991    3.9519    1.6276 C   0  0  0  0  0  0  0  0  0  0  0  0
   -4.4850    3.1282    3.0829 S   0  0  0  0  0  0  0  0  0  0  0  0
   -3.6846    1.1732    0.0874 C   0  0  0  0  0  0  0  0  0  0  0  0
   -5.2130    1.1199    0.0052 C   0  0  0  0  0  0  0  0  0  0  0  0
   -0.7996    0.0751   -0.8208 C   0  0  0  0  0  0  0  0  0  0  0  0
   -1.4579   -1.1717   -1.4070 C   0  0  0  0  0  0  0  0  0  0  0  0
    4.6617   -1.6981   -3.3258 C   0  0  0  0  0  0  0  0  0  0  0  0
    4.6938   -3.0397   -3.4633 C   0  0  0  0  0  0  0  0  0  0  0  0
    3.6185   -3.8592   -4.0536 C   0  0  0  0  0  0  0  0  0  0  0  0
    2.4290   -3.5097   -4.2385 O   0  0  0  0  0  0  0  0  0  0  0  0
    4.2052   -5.0928   -4.5337 C   0  0  0  0  0  0  0  0  0  0  0  0
    3.5831   -6.1110   -5.3137 C   0  0  0  0  0  0  0  0  0  0  0  0
    4.4499   -7.0533   -5.8192 C   0  0  0  0  0  0  0  0  0  0  0  0
    5.8466   -7.0735   -5.5062 C   0  0  0  0  0  0  0  0  0  0  0  0
    6.4617   -6.1552   -4.6761 C   0  0  0  0  0  0  0  0  0  0  0  0
    5.5948   -5.1153   -4.2029 C   0  0  0  0  0  0  0  0  0  0  0  0
    5.9259   -3.9013   -3.4229 C   0  0  0  0  0  0  0  0  0  0  0  0
    6.9802   -3.7176   -2.6027 C   0  0  0  0  0  0  0  0  0  0  0  0
    8.0876   -4.6479   -2.5032 C   0  0  0  0  0  0  0  0  0  0  0  0
    8.9784   -5.3667   -2.3961 N   0  0  0  0  0  0  0  0  0  0  0  0
    6.8612   -2.7066   -1.5655 C   0  0  0  0  0  0  0  0  0  0  0  0
    6.7633   -1.9477   -0.6747 N   0  0  0  0  0  0  0  0  0  0  0  0
    6.0737   -8.1367   -6.5227 C   0  0  0  0  0  0  0  0  0  0  0  0
    6.7002   -7.7333   -7.8950 C   0  0  0  0  0  0  0  0  0  0  0  0
    6.2800   -6.3152   -8.2729 C   0  0  0  0  0  0  0  0  0  0  0  0
    4.9731   -6.3360   -8.5255 C   0  0  0  0  0  0  0  0  0  0  0  0
    4.5452   -7.7789   -8.3223 C   0  0  0  0  0  0  0  0  0  0  0  0
    5.7877   -8.4718   -8.8558 C   0  0  0  0  0  0  0  0  0  0  0  0
    4.6313   -8.1608   -6.8138 C   0  0  0  0  0  0  0  0  0  0  0  0
   -5.1424    5.4916    5.8438 H   0  0  0  0  0  0  0  0  0  0  0  0
   -3.3928   -0.2797    5.8418 H   0  0  0  0  0  0  0  0  0  0  0  0
   -1.3263   -1.4410    6.5571 H   0  0  0  0  0  0  0  0  0  0  0  0
    0.5873   -1.4705    8.0588 H   0  0  0  0  0  0  0  0  0  0  0  0
   -1.5310    0.8579   10.9348 H   0  0  0  0  0  0  0  0  0  0  0  0
   -3.4086    2.1777   10.1686 H   0  0  0  0  0  0  0  0  0  0  0  0
   -5.6254    7.6367    2.6697 H   0  0  0  0  0  0  0  0  0  0  0  0
   -5.9868    7.0999    4.3543 H   0  0  0  0  0  0  0  0  0  0  0  0
   -3.1876    7.7190    3.1756 H   0  0  0  0  0  0  0  0  0  0  0  0
   -4.0928    8.7036    4.3611 H   0  0  0  0  0  0  0  0  0  0  0  0
   -3.4693    7.0731    4.8585 H   0  0  0  0  0  0  0  0  0  0  0  0
    0.1024    7.1867   -4.7365 H   0  0  0  0  0  0  0  0  0  0  0  0
   -1.6232    8.2737   -3.3063 H   0  0  0  0  0  0  0  0  0  0  0  0
    5.1024    0.0450   -5.4822 H   0  0  0  0  0  0  0  0  0  0  0  0
    4.0625    1.4530   -5.8932 H   0  0  0  0  0  0  0  0  0  0  0  0
    4.9423    2.6645   -3.8717 H   0  0  0  0  0  0  0  0  0  0  0  0
    6.2649    2.1486   -4.9621 H   0  0  0  0  0  0  0  0  0  0  0  0
    5.9369    1.2636   -3.4233 H   0  0  0  0  0  0  0  0  0  0  0  0
   -3.3465    0.7294    1.0543 H   0  0  0  0  0  0  0  0  0  0  0  0
   -3.3370    0.4853   -0.7208 H   0  0  0  0  0  0  0  0  0  0  0  0
   -5.7072    1.8616    0.6698 H   0  0  0  0  0  0  0  0  0  0  0  0
   -5.5477    1.3085   -1.0443 H   0  0  0  0  0  0  0  0  0  0  0  0
   -5.5791    0.1285    0.3369 H   0  0  0  0  0  0  0  0  0  0  0  0
   -1.2749    0.4341    0.1186 H   0  0  0  0  0  0  0  0  0  0  0  0
    0.2092   -0.1909   -0.4817 H   0  0  0  0  0  0  0  0  0  0  0  0
   -1.9807   -1.7819   -0.6280 H   0  0  0  0  0  0  0  0  0  0  0  0
   -0.7349   -1.8477   -1.9100 H   0  0  0  0  0  0  0  0  0  0  0  0
   -2.2102   -0.8852   -2.1917 H   0  0  0  0  0  0  0  0  0  0  0  0
    5.6027   -1.1992   -3.2863 H   0  0  0  0  0  0  0  0  0  0  0  0
    2.5443   -6.0719   -5.6487 H   0  0  0  0  0  0  0  0  0  0  0  0
    7.5395   -6.1490   -4.5539 H   0  0  0  0  0  0  0  0  0  0  0  0
    6.4446   -9.0882   -6.1051 H   0  0  0  0  0  0  0  0  0  0  0  0
    7.7811   -7.9281   -7.9952 H   0  0  0  0  0  0  0  0  0  0  0  0
    6.9083   -5.4305   -8.2784 H   0  0  0  0  0  0  0  0  0  0  0  0
    4.3754   -5.5180   -8.8897 H   0  0  0  0  0  0  0  0  0  0  0  0
    3.6116   -8.0636   -8.8480 H   0  0  0  0  0  0  0  0  0  0  0  0
    5.8039   -9.5821   -8.7092 H   0  0  0  0  0  0  0  0  0  0  0  0
    6.0228   -8.2784   -9.9133 H   0  0  0  0  0  0  0  0  0  0  0  0
    4.1238   -9.1247   -6.5436 H   0  0  0  0  0  0  0  0  0  0  0  0
  1  2  2  3
  2  3  1  0
  3  4  2  0
  3  5  1  0
  5  6  2  0
  6  7  1  0
  7  8  2  0
  8  9  1  0
  9 10  2  0
 10 11  1  0
 10 12  1  0
 12 13  2  0
 13 14  1  0
 14 15  2  0
 15 16  1  0
 16 17  2  3
 17 18  1  0
 18 19  3  0
 17 20  1  0
 20 21  3  0
  1 22  1  0
 22 23  2  0
 23 24  1  0
 24 25  1  0
 23 26  1  0
 26 27  1  0
 27 28  1  0
 28 29  1  0
 29 30  2  0
 30 31  1  0
 31 32  1  0
 32 33  2  0
 33 34  1  0
 34 35  2  0
 31 36  2  0
 36 37  1  0
 37 38  1  0
 38 39  1  0
 39 40  1  0
 40 41  1  0
 41 42  1  0
 40 43  2  0
 43 44  1  0
 44 45  1  0
 45 46  1  0
 46 47  1  0
 47 48  1  0
 48 49  2  0
 49 50  1  0
 50 51  1  0
 51 52  1  0
 52 53  1  0
 50 54  1  0
 54 55  1  0
 47 56  1  0
 56 57  1  0
 43 58  1  0
 58 59  2  3
 59 60  1  0
 60 61  2  0
 60 62  1  0
 62 63  2  0
 63 64  1  0
 64 65  2  0
 65 66  1  0
 66 67  2  0
 67 68  1  0
 68 69  2  3
 69 70  1  0
 70 71  3  0
 69 72  1  0
 72 73  3  0
 65 74  1  0
 74 75  1  0
 75 76  1  0
 76 77  2  0
 77 78  1  0
 78 79  1  0
 78 80  1  0
 16  2  1  0
 53 22  1  0
 68 59  1  0
 80 74  1  0
 15  5  1  0
 52 26  2  0
 67 62  1  0
 79 75  1  0
 13  7  1  0
 51 28  2  0
 80 64  1  0
 49 29  1  0
 35 30  1  0
 48 36  1  0
 46 37  2  0
 45 39  2  0
  1 81  1  0
  6 82  1  0
  8 83  1  0
  9 84  1  0
 12 85  1  0
 14 86  1  0
 24 87  1  0
 24 88  1  0
 25 89  1  0
 25 90  1  0
 25 91  1  0
 33 92  1  0
 34 93  1  0
 41 94  1  0
 41 95  1  0
 42 96  1  0
 42 97  1  0
 42 98  1  0
 54 99  1  0
 54100  1  0
 55101  1  0
 55102  1  0
 55103  1  0
 56104  1  0
 56105  1  0
 57106  1  0
 57107  1  0
 57108  1  0
 58109  1  0
 63110  1  0
 66111  1  0
 74112  1  0
 75113  1  0
 76114  1  0
 77115  1  0
 78116  1  0
 79117  1  0
 79118  1  0
 80119  1  0
M  END

