A701.sdf
 OpenBabel12212109533D

300333  0  0  0  0  0  0  0  0999 V2000
   13.3324  -62.8906   -4.6646 C   0  0  0  0  0  0  0  0  0  0  0  0
   14.2888  -63.3277   -5.2710 O   0  0  0  0  0  0  0  0  0  0  0  0
   13.0459  -61.4374   -4.4701 C   0  0  0  0  0  0  0  0  0  0  0  0
   13.8141  -60.4197   -4.9228 C   0  0  0  0  0  0  0  0  0  0  0  0
   13.3774  -59.0951   -4.7116 C   0  0  0  0  0  0  0  0  0  0  0  0
   12.1418  -58.7594   -4.0775 C   0  0  0  0  0  0  0  0  0  0  0  0
   11.3794  -59.8611   -3.6255 C   0  0  0  0  0  0  0  0  0  0  0  0
   11.8547  -61.2139   -3.7566 C   0  0  0  0  0  0  0  0  0  0  0  0
   11.2992  -62.5744   -3.4053 C   0  0  0  0  0  0  0  0  0  0  0  0
   10.1009  -62.7518   -2.7660 C   0  0  0  0  0  0  0  0  0  0  0  0
    9.2578  -61.7009   -2.2981 C   0  0  0  0  0  0  0  0  0  0  0  0
    8.5421  -60.8816   -1.8962 N   0  0  0  0  0  0  0  0  0  0  0  0
    9.5593  -64.0343   -2.5264 C   0  0  0  0  0  0  0  0  0  0  0  0
    9.1297  -65.1050   -2.3336 N   0  0  0  0  0  0  0  0  0  0  0  0
   12.2585  -63.6589   -3.9527 C   0  0  0  0  0  0  0  0  0  0  0  0
   12.2876  -65.0086   -3.8261 C   0  0  0  0  0  0  0  0  0  0  0  0
   12.9822  -66.0548   -4.6072 C   0  0  0  0  0  0  0  0  0  0  0  0
   14.6578  -66.6889   -4.4079 S   0  0  0  0  0  0  0  0  0  0  0  0
   14.3123  -67.9616   -5.5270 C   0  0  0  0  0  0  0  0  0  0  0  0
   12.9665  -68.1646   -5.5636 C   0  0  0  0  0  0  0  0  0  0  0  0
   12.3576  -66.8773   -5.5622 C   0  0  0  0  0  0  0  0  0  0  0  0
   11.2561  -66.5494   -6.4906 C   0  0  0  0  0  0  0  0  0  0  0  0
    9.8810  -66.9605   -6.0413 C   0  0  0  0  0  0  0  0  0  0  0  0
   12.7742  -69.8628   -5.7643 S   0  0  0  0  0  0  0  0  0  0  0  0
   14.4828  -70.2717   -5.7292 C   0  0  0  0  0  0  0  0  0  0  0  0
   15.0973  -69.0665   -5.9760 C   0  0  0  0  0  0  0  0  0  0  0  0
   15.5827  -69.2373   -7.3432 N   0  0  0  0  0  0  0  0  0  0  0  0
   15.7603  -68.0360   -8.1485 C   0  0  0  0  0  0  0  0  0  0  0  0
   14.4792  -67.4655   -8.7767 C   0  0  0  0  0  0  0  0  0  0  0  0
   15.9549  -70.6608   -7.5086 C   0  0  0  0  0  0  0  0  0  0  0  0
   15.3731  -71.1583   -6.3345 C   0  0  0  0  0  0  0  0  0  0  0  0
   15.8757  -72.2609   -5.6075 C   0  0  0  0  0  0  0  0  0  0  0  0
   15.5772  -72.5398   -4.3461 N   0  0  0  0  0  0  0  0  0  0  0  0
   16.7013  -73.7422   -3.9556 S   0  0  0  0  0  0  0  0  0  0  0  0
   17.3693  -74.0405   -5.4824 N   0  0  0  0  0  0  0  0  0  0  0  0
   16.8738  -73.0441   -6.2057 C   0  0  0  0  0  0  0  0  0  0  0  0
   17.2197  -72.7546   -7.5397 C   0  0  0  0  0  0  0  0  0  0  0  0
   16.6963  -71.7045   -8.3049 C   0  0  0  0  0  0  0  0  0  0  0  0
   17.1310  -72.1396   -9.6487 N   0  0  0  0  0  0  0  0  0  0  0  0
   17.3847  -71.2558  -10.7855 C   0  0  0  0  0  0  0  0  0  0  0  0
   16.6401  -71.5254  -12.0886 C   0  0  0  0  0  0  0  0  0  0  0  0
   17.9311  -73.3237   -9.4863 C   0  0  0  0  0  0  0  0  0  0  0  0
   18.1966  -73.5114   -8.1714 C   0  0  0  0  0  0  0  0  0  0  0  0
   19.4672  -74.6626   -8.1026 S   0  0  0  0  0  0  0  0  0  0  0  0
   19.1495  -75.4370   -9.6625 C   0  0  0  0  0  0  0  0  0  0  0  0
   18.1230  -74.5765  -10.1819 C   0  0  0  0  0  0  0  0  0  0  0  0
   16.8066  -75.5657  -10.6986 S   0  0  0  0  0  0  0  0  0  0  0  0
   17.5326  -76.9413   -9.5880 C   0  0  0  0  0  0  0  0  0  0  0  0
   18.8660  -76.8359  -10.0239 C   0  0  0  0  0  0  0  0  0  0  0  0
   19.4804  -77.7069  -11.0973 C   0  0  0  0  0  0  0  0  0  0  0  0
   20.9606  -78.0543  -10.9900 C   0  0  0  0  0  0  0  0  0  0  0  0
   17.0165  -77.1874   -8.2408 C   0  0  0  0  0  0  0  0  0  0  0  0
   15.7114  -77.1144   -7.9431 C   0  0  0  0  0  0  0  0  0  0  0  0
   15.0142  -76.5423   -6.7623 C   0  0  0  0  0  0  0  0  0  0  0  0
   15.2377  -76.7414   -5.4439 C   0  0  0  0  0  0  0  0  0  0  0  0
   14.3466  -76.2429   -4.4453 C   0  0  0  0  0  0  0  0  0  0  0  0
   13.6237  -75.8481   -3.6282 N   0  0  0  0  0  0  0  0  0  0  0  0
   16.3589  -77.4636   -4.9422 C   0  0  0  0  0  0  0  0  0  0  0  0
   17.2712  -78.0063   -4.4730 N   0  0  0  0  0  0  0  0  0  0  0  0
   13.9465  -75.6597   -7.3567 C   0  0  0  0  0  0  0  0  0  0  0  0
   13.1990  -74.5900   -6.8879 C   0  0  0  0  0  0  0  0  0  0  0  0
   12.5186  -73.7787   -7.8177 C   0  0  0  0  0  0  0  0  0  0  0  0
   12.6144  -74.0025   -9.2013 C   0  0  0  0  0  0  0  0  0  0  0  0
   13.3044  -75.1038   -9.6756 C   0  0  0  0  0  0  0  0  0  0  0  0
   13.8960  -75.9231   -8.7341 C   0  0  0  0  0  0  0  0  0  0  0  0
   14.7319  -77.0679   -9.0525 C   0  0  0  0  0  0  0  0  0  0  0  0
   14.6092  -77.8340   -9.9844 O   0  0  0  0  0  0  0  0  0  0  0  0
   11.6857  -57.3018   -3.9854 C   0  0  0  0  0  0  0  0  0  0  0  0
   10.7604  -56.5469   -3.2374 C   0  0  0  0  0  0  0  0  0  0  0  0
   10.5854  -55.1066   -3.6685 C   0  0  0  0  0  0  0  0  0  0  0  0
   11.3592  -54.9268   -4.8125 C   0  0  0  0  0  0  0  0  0  0  0  0
   12.5236  -56.1781   -4.9667 S   0  0  0  0  0  0  0  0  0  0  0  0
   11.2214  -53.8056   -5.6484 C   0  0  0  0  0  0  0  0  0  0  0  0
   10.4632  -52.6817   -5.2864 C   0  0  0  0  0  0  0  0  0  0  0  0
    9.8028  -52.7417   -4.0600 C   0  0  0  0  0  0  0  0  0  0  0  0
    9.8118  -53.9462   -3.2556 C   0  0  0  0  0  0  0  0  0  0  0  0
   10.2086  -51.4310   -5.9916 C   0  0  0  0  0  0  0  0  0  0  0  0
    9.4837  -50.4964   -5.2920 C   0  0  0  0  0  0  0  0  0  0  0  0
    9.0126  -51.1957   -3.8014 S   0  0  0  0  0  0  0  0  0  0  0  0
    8.9609  -53.9322   -2.0368 C   0  0  0  0  0  0  0  0  0  0  0  0
    8.7398  -52.9083   -1.1180 C   0  0  0  0  0  0  0  0  0  0  0  0
    7.6665  -53.1483   -0.1899 C   0  0  0  0  0  0  0  0  0  0  0  0
    7.1388  -54.4101   -0.4012 C   0  0  0  0  0  0  0  0  0  0  0  0
    7.9372  -55.2501   -1.6635 S   0  0  0  0  0  0  0  0  0  0  0  0
    5.9914  -55.0771    0.2976 C   0  0  0  0  0  0  0  0  0  0  0  0
    6.4405  -55.8447    1.5296 C   0  0  0  0  0  0  0  0  0  0  0  0
    7.2161  -52.1548    0.8563 C   0  0  0  0  0  0  0  0  0  0  0  0
    6.0436  -51.2785    0.4323 C   0  0  0  0  0  0  0  0  0  0  0  0
   11.8751  -53.8021   -6.9598 C   0  0  0  0  0  0  0  0  0  0  0  0
   12.5760  -52.7956   -7.5888 C   0  0  0  0  0  0  0  0  0  0  0  0
   13.0150  -53.1511   -8.9002 C   0  0  0  0  0  0  0  0  0  0  0  0
   12.8040  -54.4988   -9.1358 C   0  0  0  0  0  0  0  0  0  0  0  0
   11.7065  -55.1503   -8.0084 S   0  0  0  0  0  0  0  0  0  0  0  0
   13.3086  -55.3789  -10.2350 C   0  0  0  0  0  0  0  0  0  0  0  0
   14.6870  -55.9423   -9.9055 C   0  0  0  0  0  0  0  0  0  0  0  0
   13.6281  -52.1656   -9.8418 C   0  0  0  0  0  0  0  0  0  0  0  0
   12.5646  -51.5535  -10.7481 C   0  0  0  0  0  0  0  0  0  0  0  0
   -7.4145  -43.3142  -16.6078 C   0  0  0  0  0  0  0  0  0  0  0  0
   -6.2375  -43.5392  -16.4187 O   0  0  0  0  0  0  0  0  0  0  0  0
   -8.1657  -43.7834  -17.7979 C   0  0  0  0  0  0  0  0  0  0  0  0
   -7.6565  -44.5878  -18.7981 C   0  0  0  0  0  0  0  0  0  0  0  0
   -8.5109  -44.9861  -19.8414 C   0  0  0  0  0  0  0  0  0  0  0  0
   -9.8891  -44.6206  -19.9228 C   0  0  0  0  0  0  0  0  0  0  0  0
  -10.3528  -43.7911  -18.8732 C   0  0  0  0  0  0  0  0  0  0  0  0
   -9.4905  -43.3421  -17.8184 C   0  0  0  0  0  0  0  0  0  0  0  0
   -9.6689  -42.4650  -16.5936 C   0  0  0  0  0  0  0  0  0  0  0  0
  -10.8356  -41.8292  -16.3143 C   0  0  0  0  0  0  0  0  0  0  0  0
  -11.9844  -41.8754  -17.1497 C   0  0  0  0  0  0  0  0  0  0  0  0
  -12.9551  -41.8885  -17.8112 N   0  0  0  0  0  0  0  0  0  0  0  0
  -11.0340  -41.0555  -15.1384 C   0  0  0  0  0  0  0  0  0  0  0  0
  -11.2234  -40.4228  -14.1838 N   0  0  0  0  0  0  0  0  0  0  0  0
   -8.3553  -42.4777  -15.7815 C   0  0  0  0  0  0  0  0  0  0  0  0
   -8.0371  -41.8452  -14.6183 C   0  0  0  0  0  0  0  0  0  0  0  0
   -6.8799  -41.8503  -13.7140 C   0  0  0  0  0  0  0  0  0  0  0  0
   -5.8595  -43.2857  -13.2472 S   0  0  0  0  0  0  0  0  0  0  0  0
   -5.0130  -42.3349  -12.0591 C   0  0  0  0  0  0  0  0  0  0  0  0
   -5.1735  -41.0291  -12.4406 C   0  0  0  0  0  0  0  0  0  0  0  0
   -6.5146  -40.8228  -12.8197 C   0  0  0  0  0  0  0  0  0  0  0  0
   -7.1949  -39.6048  -12.3127 C   0  0  0  0  0  0  0  0  0  0  0  0
   -6.8876  -38.3359  -13.0727 C   0  0  0  0  0  0  0  0  0  0  0  0
   -3.6848  -40.2328  -12.2165 S   0  0  0  0  0  0  0  0  0  0  0  0
   -2.8575  -41.6574  -11.7669 C   0  0  0  0  0  0  0  0  0  0  0  0
   -3.7507  -42.6210  -11.4587 C   0  0  0  0  0  0  0  0  0  0  0  0
   -3.4269  -42.8664  -10.0622 N   0  0  0  0  0  0  0  0  0  0  0  0
   -4.5348  -43.0999   -9.1458 C   0  0  0  0  0  0  0  0  0  0  0  0
   -5.3075  -41.8336   -8.7469 C   0  0  0  0  0  0  0  0  0  0  0  0
   -1.9527  -42.6591   -9.8935 C   0  0  0  0  0  0  0  0  0  0  0  0
   -1.7218  -42.1129  -11.1703 C   0  0  0  0  0  0  0  0  0  0  0  0
   -0.5423  -41.7202  -11.7976 C   0  0  0  0  0  0  0  0  0  0  0  0
   -0.4393  -41.2009  -13.0139 N   0  0  0  0  0  0  0  0  0  0  0  0
    1.2222  -41.0323  -13.2073 S   0  0  0  0  0  0  0  0  0  0  0  0
    1.7371  -41.6468  -11.7397 N   0  0  0  0  0  0  0  0  0  0  0  0
    0.6143  -41.9792  -11.1144 C   0  0  0  0  0  0  0  0  0  0  0  0
    0.4680  -42.4630   -9.7907 C   0  0  0  0  0  0  0  0  0  0  0  0
   -0.6913  -42.6949   -9.0412 C   0  0  0  0  0  0  0  0  0  0  0  0
   -0.0633  -42.8329   -7.6777 N   0  0  0  0  0  0  0  0  0  0  0  0
   -0.7447  -43.0674   -6.4073 C   0  0  0  0  0  0  0  0  0  0  0  0
   -1.1555  -41.8205   -5.6242 C   0  0  0  0  0  0  0  0  0  0  0  0
    1.3764  -42.6944   -7.8277 C   0  0  0  0  0  0  0  0  0  0  0  0
    1.6622  -42.5811   -9.1478 C   0  0  0  0  0  0  0  0  0  0  0  0
    3.3302  -42.4707   -9.4412 S   0  0  0  0  0  0  0  0  0  0  0  0
    3.7500  -42.3214   -7.8278 C   0  0  0  0  0  0  0  0  0  0  0  0
    2.5927  -42.5802   -7.0755 C   0  0  0  0  0  0  0  0  0  0  0  0
    3.0185  -42.6009   -5.4361 S   0  0  0  0  0  0  0  0  0  0  0  0
    4.8536  -42.9679   -6.0839 C   0  0  0  0  0  0  0  0  0  0  0  0
    4.9130  -41.9935   -7.0751 C   0  0  0  0  0  0  0  0  0  0  0  0
    5.9878  -41.1515   -7.7120 C   0  0  0  0  0  0  0  0  0  0  0  0
    5.6541  -39.6483   -7.6097 C   0  0  0  0  0  0  0  0  0  0  0  0
    5.1803  -44.3559   -5.9189 C   0  0  0  0  0  0  0  0  0  0  0  0
    6.2200  -45.2084   -5.9945 C   0  0  0  0  0  0  0  0  0  0  0  0
    6.1513  -46.5613   -5.3161 C   0  0  0  0  0  0  0  0  0  0  0  0
    5.2120  -46.9909   -4.4159 C   0  0  0  0  0  0  0  0  0  0  0  0
    5.2558  -48.2462   -3.7671 C   0  0  0  0  0  0  0  0  0  0  0  0
    5.2584  -49.2633   -3.2029 N   0  0  0  0  0  0  0  0  0  0  0  0
    4.0885  -46.2504   -3.9757 C   0  0  0  0  0  0  0  0  0  0  0  0
    3.1390  -45.6711   -3.6247 N   0  0  0  0  0  0  0  0  0  0  0  0
    7.4044  -47.3055   -5.6377 C   0  0  0  0  0  0  0  0  0  0  0  0
    7.8470  -48.5884   -5.2742 C   0  0  0  0  0  0  0  0  0  0  0  0
    9.0800  -49.1148   -5.6972 C   0  0  0  0  0  0  0  0  0  0  0  0
    9.8636  -48.2986   -6.5410 C   0  0  0  0  0  0  0  0  0  0  0  0
    9.4460  -46.9916   -6.9083 C   0  0  0  0  0  0  0  0  0  0  0  0
    8.2275  -46.5018   -6.4300 C   0  0  0  0  0  0  0  0  0  0  0  0
    7.5902  -45.1575   -6.6492 C   0  0  0  0  0  0  0  0  0  0  0  0
    8.0662  -44.2577   -7.3108 O   0  0  0  0  0  0  0  0  0  0  0  0
  -10.7868  -45.1918  -21.0239 C   0  0  0  0  0  0  0  0  0  0  0  0
  -12.0252  -44.8964  -21.6280 C   0  0  0  0  0  0  0  0  0  0  0  0
  -12.5394  -45.9266  -22.6104 C   0  0  0  0  0  0  0  0  0  0  0  0
  -11.6396  -46.9905  -22.5996 C   0  0  0  0  0  0  0  0  0  0  0  0
  -10.1636  -46.5406  -21.8564 S   0  0  0  0  0  0  0  0  0  0  0  0
  -11.9065  -48.2258  -23.2167 C   0  0  0  0  0  0  0  0  0  0  0  0
  -13.0462  -48.4345  -24.0071 C   0  0  0  0  0  0  0  0  0  0  0  0
  -13.8969  -47.3400  -24.1849 C   0  0  0  0  0  0  0  0  0  0  0  0
  -13.6866  -46.0967  -23.4852 C   0  0  0  0  0  0  0  0  0  0  0  0
  -13.5203  -49.6110  -24.7094 C   0  0  0  0  0  0  0  0  0  0  0  0
  -14.5910  -49.3727  -25.5253 C   0  0  0  0  0  0  0  0  0  0  0  0
  -15.1658  -47.8002  -25.3105 S   0  0  0  0  0  0  0  0  0  0  0  0
  -14.7473  -45.0712  -23.6685 C   0  0  0  0  0  0  0  0  0  0  0  0
  -15.4512  -44.7037  -24.8169 C   0  0  0  0  0  0  0  0  0  0  0  0
  -16.6407  -43.9283  -24.5708 C   0  0  0  0  0  0  0  0  0  0  0  0
  -16.7440  -43.6561  -23.2175 C   0  0  0  0  0  0  0  0  0  0  0  0
  -15.4257  -44.2786  -22.3168 S   0  0  0  0  0  0  0  0  0  0  0  0
  -17.8366  -42.9394  -22.4841 C   0  0  0  0  0  0  0  0  0  0  0  0
  -17.5964  -41.4418  -22.4188 C   0  0  0  0  0  0  0  0  0  0  0  0
  -17.6123  -43.4901  -25.6455 C   0  0  0  0  0  0  0  0  0  0  0  0
  -18.8211  -44.4025  -25.8242 C   0  0  0  0  0  0  0  0  0  0  0  0
  -10.9037  -49.2913  -23.0710 C   0  0  0  0  0  0  0  0  0  0  0  0
  -10.1915  -49.6681  -21.9448 C   0  0  0  0  0  0  0  0  0  0  0  0
   -9.0879  -50.5271  -22.2401 C   0  0  0  0  0  0  0  0  0  0  0  0
   -9.1861  -50.9982  -23.5370 C   0  0  0  0  0  0  0  0  0  0  0  0
  -10.3319  -50.1281  -24.4439 S   0  0  0  0  0  0  0  0  0  0  0  0
   -8.4123  -52.0672  -24.2334 C   0  0  0  0  0  0  0  0  0  0  0  0
   -9.0482  -53.4306  -23.9990 C   0  0  0  0  0  0  0  0  0  0  0  0
   -8.0049  -50.8410  -21.2518 C   0  0  0  0  0  0  0  0  0  0  0  0
   -6.8107  -49.9024  -21.4109 C   0  0  0  0  0  0  0  0  0  0  0  0
   14.7611  -60.6093   -5.4323 H   0  0  0  0  0  0  0  0  0  0  0  0
   14.0406  -58.3191   -5.0900 H   0  0  0  0  0  0  0  0  0  0  0  0
   10.4028  -59.6475   -3.2073 H   0  0  0  0  0  0  0  0  0  0  0  0
   11.5504  -65.4799   -3.1789 H   0  0  0  0  0  0  0  0  0  0  0  0
   11.4723  -67.0314   -7.4535 H   0  0  0  0  0  0  0  0  0  0  0  0
   11.2822  -65.4720   -6.6959 H   0  0  0  0  0  0  0  0  0  0  0  0
    9.8181  -68.0439   -5.9052 H   0  0  0  0  0  0  0  0  0  0  0  0
    9.1581  -66.6703   -6.8097 H   0  0  0  0  0  0  0  0  0  0  0  0
    9.6078  -66.4730   -5.1028 H   0  0  0  0  0  0  0  0  0  0  0  0
   16.5330  -68.2117   -8.8925 H   0  0  0  0  0  0  0  0  0  0  0  0
   16.1388  -67.2601   -7.4638 H   0  0  0  0  0  0  0  0  0  0  0  0
   13.9218  -68.2131   -9.3456 H   0  0  0  0  0  0  0  0  0  0  0  0
   14.7219  -66.6242   -9.4360 H   0  0  0  0  0  0  0  0  0  0  0  0
   13.7942  -67.0475   -8.0321 H   0  0  0  0  0  0  0  0  0  0  0  0
   18.4620  -71.3283  -10.9961 H   0  0  0  0  0  0  0  0  0  0  0  0
   17.1974  -70.2302  -10.4575 H   0  0  0  0  0  0  0  0  0  0  0  0
   16.8489  -72.5217  -12.4917 H   0  0  0  0  0  0  0  0  0  0  0  0
   16.9624  -70.8013  -12.8515 H   0  0  0  0  0  0  0  0  0  0  0  0
   15.5597  -71.4162  -11.9687 H   0  0  0  0  0  0  0  0  0  0  0  0
   19.2852  -77.2763  -12.0847 H   0  0  0  0  0  0  0  0  0  0  0  0
   18.9521  -78.6756  -11.0887 H   0  0  0  0  0  0  0  0  0  0  0  0
   21.5926  -77.1638  -10.9917 H   0  0  0  0  0  0  0  0  0  0  0  0
   21.2578  -78.6704  -11.8524 H   0  0  0  0  0  0  0  0  0  0  0  0
   21.1854  -78.6454  -10.0951 H   0  0  0  0  0  0  0  0  0  0  0  0
   17.7637  -77.2159   -7.4480 H   0  0  0  0  0  0  0  0  0  0  0  0
   13.1451  -74.3126   -5.8400 H   0  0  0  0  0  0  0  0  0  0  0  0
   11.9341  -72.9314   -7.4631 H   0  0  0  0  0  0  0  0  0  0  0  0
   12.1561  -73.3130   -9.9052 H   0  0  0  0  0  0  0  0  0  0  0  0
   13.4457  -75.2913  -10.7354 H   0  0  0  0  0  0  0  0  0  0  0  0
   10.1847  -56.9855   -2.4313 H   0  0  0  0  0  0  0  0  0  0  0  0
   10.5606  -51.2247   -6.9931 H   0  0  0  0  0  0  0  0  0  0  0  0
    9.2699  -51.9629   -1.1376 H   0  0  0  0  0  0  0  0  0  0  0  0
    5.4767  -55.7595   -0.3894 H   0  0  0  0  0  0  0  0  0  0  0  0
    5.2503  -54.3240    0.5885 H   0  0  0  0  0  0  0  0  0  0  0  0
    7.1350  -56.6491    1.2658 H   0  0  0  0  0  0  0  0  0  0  0  0
    5.5740  -56.2935    2.0251 H   0  0  0  0  0  0  0  0  0  0  0  0
    6.9427  -55.1900    2.2495 H   0  0  0  0  0  0  0  0  0  0  0  0
    8.0579  -51.5029    1.1212 H   0  0  0  0  0  0  0  0  0  0  0  0
    6.9442  -52.6880    1.7748 H   0  0  0  0  0  0  0  0  0  0  0  0
    6.2769  -50.6965   -0.4649 H   0  0  0  0  0  0  0  0  0  0  0  0
    5.7959  -50.5718    1.2338 H   0  0  0  0  0  0  0  0  0  0  0  0
    5.1471  -51.8723    0.2281 H   0  0  0  0  0  0  0  0  0  0  0  0
   12.7325  -51.8175   -7.1499 H   0  0  0  0  0  0  0  0  0  0  0  0
   13.3530  -54.8126  -11.1696 H   0  0  0  0  0  0  0  0  0  0  0  0
   12.6202  -56.2158  -10.4044 H   0  0  0  0  0  0  0  0  0  0  0  0
   15.4183  -55.1449   -9.7342 H   0  0  0  0  0  0  0  0  0  0  0  0
   15.0455  -56.5607  -10.7342 H   0  0  0  0  0  0  0  0  0  0  0  0
   14.6627  -56.5685   -9.0056 H   0  0  0  0  0  0  0  0  0  0  0  0
   14.4048  -52.6458  -10.4437 H   0  0  0  0  0  0  0  0  0  0  0  0
   14.1119  -51.3643   -9.2703 H   0  0  0  0  0  0  0  0  0  0  0  0
   12.0614  -52.3228  -11.3446 H   0  0  0  0  0  0  0  0  0  0  0  0
   13.0169  -50.8299  -11.4314 H   0  0  0  0  0  0  0  0  0  0  0  0
   11.7936  -51.0353  -10.1648 H   0  0  0  0  0  0  0  0  0  0  0  0
   -6.6189  -44.9135  -18.7736 H   0  0  0  0  0  0  0  0  0  0  0  0
   -8.0529  -45.6300  -20.5923 H   0  0  0  0  0  0  0  0  0  0  0  0
  -11.4089  -43.5503  -18.8922 H   0  0  0  0  0  0  0  0  0  0  0  0
   -8.7456  -41.1017  -14.2736 H   0  0  0  0  0  0  0  0  0  0  0  0
   -6.8773  -39.4555  -11.2672 H   0  0  0  0  0  0  0  0  0  0  0  0
   -8.2729  -39.7799  -12.2582 H   0  0  0  0  0  0  0  0  0  0  0  0
   -5.8237  -38.0814  -13.0192 H   0  0  0  0  0  0  0  0  0  0  0  0
   -7.4454  -37.5042  -12.6314 H   0  0  0  0  0  0  0  0  0  0  0  0
   -7.1650  -38.4315  -14.1244 H   0  0  0  0  0  0  0  0  0  0  0  0
   -4.1883  -43.6652   -8.2836 H   0  0  0  0  0  0  0  0  0  0  0  0
   -5.2508  -43.7414   -9.6859 H   0  0  0  0  0  0  0  0  0  0  0  0
   -4.6440  -41.0378   -8.4000 H   0  0  0  0  0  0  0  0  0  0  0  0
   -6.0308  -42.0621   -7.9561 H   0  0  0  0  0  0  0  0  0  0  0  0
   -5.8999  -41.4245   -9.5765 H   0  0  0  0  0  0  0  0  0  0  0  0
   -0.0884  -43.6798   -5.7737 H   0  0  0  0  0  0  0  0  0  0  0  0
   -1.6333  -43.6714   -6.6173 H   0  0  0  0  0  0  0  0  0  0  0  0
   -0.2875  -41.2459   -5.2836 H   0  0  0  0  0  0  0  0  0  0  0  0
   -1.7257  -42.0998   -4.7263 H   0  0  0  0  0  0  0  0  0  0  0  0
   -1.7897  -41.1612   -6.2231 H   0  0  0  0  0  0  0  0  0  0  0  0
    6.0927  -41.3817   -8.7816 H   0  0  0  0  0  0  0  0  0  0  0  0
    6.9675  -41.3250   -7.2580 H   0  0  0  0  0  0  0  0  0  0  0  0
    4.7647  -39.3904   -8.1999 H   0  0  0  0  0  0  0  0  0  0  0  0
    6.4770  -39.0281   -7.9863 H   0  0  0  0  0  0  0  0  0  0  0  0
    5.4566  -39.3500   -6.5744 H   0  0  0  0  0  0  0  0  0  0  0  0
    4.2462  -44.8673   -5.7476 H   0  0  0  0  0  0  0  0  0  0  0  0
    7.2412  -49.2351   -4.6577 H   0  0  0  0  0  0  0  0  0  0  0  0
   10.8193  -48.6652   -6.9186 H   0  0  0  0  0  0  0  0  0  0  0  0
   10.0719  -46.3854   -7.5611 H   0  0  0  0  0  0  0  0  0  0  0  0
  -12.5862  -44.0021  -21.3845 H   0  0  0  0  0  0  0  0  0  0  0  0
  -13.0535  -50.5874  -24.6695 H   0  0  0  0  0  0  0  0  0  0  0  0
  -15.0669  -50.0682  -26.2056 H   0  0  0  0  0  0  0  0  0  0  0  0
  -15.2062  -45.0643  -25.8107 H   0  0  0  0  0  0  0  0  0  0  0  0
  -17.9295  -43.3391  -21.4670 H   0  0  0  0  0  0  0  0  0  0  0  0
  -18.7971  -43.1342  -22.9738 H   0  0  0  0  0  0  0  0  0  0  0  0
  -16.6711  -41.2106  -21.8808 H   0  0  0  0  0  0  0  0  0  0  0  0
  -18.4250  -40.9561  -21.8948 H   0  0  0  0  0  0  0  0  0  0  0  0
  -17.5221  -41.0036  -23.4194 H   0  0  0  0  0  0  0  0  0  0  0  0
  -17.0860  -43.4211  -26.6057 H   0  0  0  0  0  0  0  0  0  0  0  0
  -17.9692  -42.4777  -25.4217 H   0  0  0  0  0  0  0  0  0  0  0  0
  -18.5243  -45.4228  -26.0870 H   0  0  0  0  0  0  0  0  0  0  0  0
  -19.4608  -44.0230  -26.6307 H   0  0  0  0  0  0  0  0  0  0  0  0
  -19.4323  -44.4501  -24.9173 H   0  0  0  0  0  0  0  0  0  0  0  0
  -10.3556  -49.2313  -20.9650 H   0  0  0  0  0  0  0  0  0  0  0  0
   -7.3768  -52.0658  -23.8820 H   0  0  0  0  0  0  0  0  0  0  0  0
   -8.3795  -51.8718  -25.3124 H   0  0  0  0  0  0  0  0  0  0  0  0
   -9.0928  -53.6724  -22.9315 H   0  0  0  0  0  0  0  0  0  0  0  0
   -8.4665  -54.2059  -24.5046 H   0  0  0  0  0  0  0  0  0  0  0  0
  -10.0727  -53.4675  -24.3887 H   0  0  0  0  0  0  0  0  0  0  0  0
   -7.6771  -51.8782  -21.3689 H   0  0  0  0  0  0  0  0  0  0  0  0
   -8.3953  -50.7409  -20.2318 H   0  0  0  0  0  0  0  0  0  0  0  0
   -6.3750  -49.9763  -22.4135 H   0  0  0  0  0  0  0  0  0  0  0  0
   -6.0322  -50.1515  -20.6833 H   0  0  0  0  0  0  0  0  0  0  0  0
   -7.0976  -48.8559  -21.2528 H   0  0  0  0  0  0  0  0  0  0  0  0
  1  2  2  0  0  0  0
  1  3  1  0  0  0  0
  1 15  1  0  0  0  0
  3  4  2  0  0  0  0
  3  8  1  0  0  0  0
  4  5  1  0  0  0  0
  4195  1  0  0  0  0
  5  6  2  0  0  0  0
  5196  1  0  0  0  0
  6  7  1  0  0  0  0
  6 68  1  0  0  0  0
  7  8  2  0  0  0  0
  7197  1  0  0  0  0
  8  9  1  0  0  0  0
  9 10  2  0  0  0  0
  9 15  1  0  0  0  0
 10 11  1  0  0  0  0
 10 13  1  0  0  0  0
 11 12  3  0  0  0  0
 13 14  3  0  0  0  0
 15 16  2  0  0  0  0
 16 17  1  0  0  0  0
 16198  1  0  0  0  0
 17 18  1  0  0  0  0
 17 21  2  0  0  0  0
 18 19  1  0  0  0  0
 19 20  2  0  0  0  0
 19 26  1  0  0  0  0
 20 21  1  0  0  0  0
 20 24  1  0  0  0  0
 21 22  1  0  0  0  0
 22 23  1  0  0  0  0
 22199  1  0  0  0  0
 22200  1  0  0  0  0
 23201  1  0  0  0  0
 23202  1  0  0  0  0
 23203  1  0  0  0  0
 24 25  1  0  0  0  0
 25 26  2  0  0  0  0
 25 31  1  0  0  0  0
 26 27  1  0  0  0  0
 27 28  1  0  0  0  0
 27 30  1  0  0  0  0
 28 29  1  0  0  0  0
 28204  1  0  0  0  0
 28205  1  0  0  0  0
 29206  1  0  0  0  0
 29207  1  0  0  0  0
 29208  1  0  0  0  0
 30 31  2  0  0  0  0
 30 38  1  0  0  0  0
 31 32  1  0  0  0  0
 32 33  2  0  0  0  0
 32 36  1  0  0  0  0
 33 34  1  0  0  0  0
 34 35  1  0  0  0  0
 35 36  2  0  0  0  0
 36 37  1  0  0  0  0
 37 38  2  0  0  0  0
 37 43  1  0  0  0  0
 38 39  1  0  0  0  0
 39 40  1  0  0  0  0
 39 42  1  0  0  0  0
 40 41  1  0  0  0  0
 40209  1  0  0  0  0
 40210  1  0  0  0  0
 41211  1  0  0  0  0
 41212  1  0  0  0  0
 41213  1  0  0  0  0
 42 43  2  0  0  0  0
 42 46  1  0  0  0  0
 43 44  1  0  0  0  0
 44 45  1  0  0  0  0
 45 46  2  0  0  0  0
 45 49  1  0  0  0  0
 46 47  1  0  0  0  0
 47 48  1  0  0  0  0
 48 49  2  0  0  0  0
 48 52  1  0  0  0  0
 49 50  1  0  0  0  0
 50 51  1  0  0  0  0
 50214  1  0  0  0  0
 50215  1  0  0  0  0
 51216  1  0  0  0  0
 51217  1  0  0  0  0
 51218  1  0  0  0  0
 52 53  2  0  0  0  0
 52219  1  0  0  0  0
 53 54  1  0  0  0  0
 53 66  1  0  0  0  0
 54 55  2  0  0  0  0
 54 60  1  0  0  0  0
 55 56  1  0  0  0  0
 55 58  1  0  0  0  0
 56 57  3  0  0  0  0
 58 59  3  0  0  0  0
 60 61  1  0  0  0  0
 60 65  2  0  0  0  0
 61 62  2  0  0  0  0
 61220  1  0  0  0  0
 62 63  1  0  0  0  0
 62221  1  0  0  0  0
 63 64  2  0  0  0  0
 63222  1  0  0  0  0
 64 65  1  0  0  0  0
 64223  1  0  0  0  0
 65 66  1  0  0  0  0
 66 67  2  0  0  0  0
 68 69  2  0  0  0  0
 69 70  1  0  0  0  0
 69224  1  0  0  0  0
 70 71  2  0  0  0  0
 71 72  1  0  0  0  0
 71 73  1  0  0  0  0
 72 68  1  0  0  0  0
 73 74  2  0  0  0  0
 73 89  1  0  0  0  0
 74 75  1  0  0  0  0
 74 77  1  0  0  0  0
 75 76  2  0  0  0  0
 76 70  1  0  0  0  0
 76 80  1  0  0  0  0
 77 78  2  0  0  0  0
 77225  1  0  0  0  0
 78 79  1  0  0  0  0
 78159  1  0  0  0  0
 79 75  1  0  0  0  0
 80 81  2  0  0  0  0
 81 82  1  0  0  0  0
 81226  1  0  0  0  0
 82 83  2  0  0  0  0
 82 87  1  0  0  0  0
 83 84  1  0  0  0  0
 83 85  1  0  0  0  0
 84 80  1  0  0  0  0
 85 86  1  0  0  0  0
 85227  1  0  0  0  0
 85228  1  0  0  0  0
 86229  1  0  0  0  0
 86230  1  0  0  0  0
 86231  1  0  0  0  0
 87 88  1  0  0  0  0
 87232  1  0  0  0  0
 87233  1  0  0  0  0
 88234  1  0  0  0  0
 88235  1  0  0  0  0
 88236  1  0  0  0  0
 89 90  2  0  0  0  0
 90 91  1  0  0  0  0
 90237  1  0  0  0  0
 91 92  2  0  0  0  0
 91 96  1  0  0  0  0
 92 93  1  0  0  0  0
 92 94  1  0  0  0  0
 93 89  1  0  0  0  0
 94 95  1  0  0  0  0
 94238  1  0  0  0  0
 94239  1  0  0  0  0
 95240  1  0  0  0  0
 95241  1  0  0  0  0
 95242  1  0  0  0  0
 96 97  1  0  0  0  0
 96243  1  0  0  0  0
 96244  1  0  0  0  0
 97245  1  0  0  0  0
 97246  1  0  0  0  0
 97247  1  0  0  0  0
 98 99  2  0  0  0  0
 98100  1  0  0  0  0
 98112  1  0  0  0  0
100101  2  0  0  0  0
100105  1  0  0  0  0
101102  1  0  0  0  0
101248  1  0  0  0  0
102103  2  0  0  0  0
102249  1  0  0  0  0
103104  1  0  0  0  0
103165  1  0  0  0  0
104105  2  0  0  0  0
104250  1  0  0  0  0
105106  1  0  0  0  0
106107  2  0  0  0  0
106112  1  0  0  0  0
107108  1  0  0  0  0
107110  1  0  0  0  0
108109  3  0  0  0  0
110111  3  0  0  0  0
112113  2  0  0  0  0
113114  1  0  0  0  0
113251  1  0  0  0  0
114115  1  0  0  0  0
114118  2  0  0  0  0
115116  1  0  0  0  0
116117  2  0  0  0  0
116123  1  0  0  0  0
117118  1  0  0  0  0
117121  1  0  0  0  0
118119  1  0  0  0  0
119120  1  0  0  0  0
119252  1  0  0  0  0
119253  1  0  0  0  0
120254  1  0  0  0  0
120255  1  0  0  0  0
120256  1  0  0  0  0
121122  1  0  0  0  0
122123  2  0  0  0  0
122128  1  0  0  0  0
123124  1  0  0  0  0
124125  1  0  0  0  0
124127  1  0  0  0  0
125126  1  0  0  0  0
125257  1  0  0  0  0
125258  1  0  0  0  0
126259  1  0  0  0  0
126260  1  0  0  0  0
126261  1  0  0  0  0
127128  2  0  0  0  0
127135  1  0  0  0  0
128129  1  0  0  0  0
129130  2  0  0  0  0
129133  1  0  0  0  0
130131  1  0  0  0  0
131132  1  0  0  0  0
132133  2  0  0  0  0
133134  1  0  0  0  0
134135  2  0  0  0  0
134140  1  0  0  0  0
135136  1  0  0  0  0
136137  1  0  0  0  0
136139  1  0  0  0  0
137138  1  0  0  0  0
137262  1  0  0  0  0
137263  1  0  0  0  0
138264  1  0  0  0  0
138265  1  0  0  0  0
138266  1  0  0  0  0
139140  2  0  0  0  0
139143  1  0  0  0  0
140141  1  0  0  0  0
141142  1  0  0  0  0
142143  2  0  0  0  0
142146  1  0  0  0  0
143144  1  0  0  0  0
144145  1  0  0  0  0
145146  2  0  0  0  0
145149  1  0  0  0  0
146147  1  0  0  0  0
147148  1  0  0  0  0
147267  1  0  0  0  0
147268  1  0  0  0  0
148269  1  0  0  0  0
148270  1  0  0  0  0
148271  1  0  0  0  0
149150  2  0  0  0  0
149272  1  0  0  0  0
150151  1  0  0  0  0
150163  1  0  0  0  0
151152  2  0  0  0  0
151157  1  0  0  0  0
152153  1  0  0  0  0
152155  1  0  0  0  0
153154  3  0  0  0  0
155156  3  0  0  0  0
157158  1  0  0  0  0
157162  2  0  0  0  0
158159  2  0  0  0  0
158273  1  0  0  0  0
159160  1  0  0  0  0
160161  2  0  0  0  0
160274  1  0  0  0  0
161162  1  0  0  0  0
161275  1  0  0  0  0
162163  1  0  0  0  0
163164  2  0  0  0  0
165166  2  0  0  0  0
166167  1  0  0  0  0
166276  1  0  0  0  0
167168  2  0  0  0  0
168169  1  0  0  0  0
168170  1  0  0  0  0
169165  1  0  0  0  0
170171  2  0  0  0  0
170186  1  0  0  0  0
171172  1  0  0  0  0
171174  1  0  0  0  0
172173  2  0  0  0  0
173167  1  0  0  0  0
173177  1  0  0  0  0
174175  2  0  0  0  0
174277  1  0  0  0  0
175176  1  0  0  0  0
175278  1  0  0  0  0
176172  1  0  0  0  0
177178  2  0  0  0  0
178179  1  0  0  0  0
178279  1  0  0  0  0
179180  2  0  0  0  0
179184  1  0  0  0  0
180181  1  0  0  0  0
180182  1  0  0  0  0
181177  1  0  0  0  0
182183  1  0  0  0  0
182280  1  0  0  0  0
182281  1  0  0  0  0
183282  1  0  0  0  0
183283  1  0  0  0  0
183284  1  0  0  0  0
184185  1  0  0  0  0
184285  1  0  0  0  0
184286  1  0  0  0  0
185287  1  0  0  0  0
185288  1  0  0  0  0
185289  1  0  0  0  0
186187  2  0  0  0  0
187188  1  0  0  0  0
187290  1  0  0  0  0
188189  2  0  0  0  0
188193  1  0  0  0  0
189190  1  0  0  0  0
189191  1  0  0  0  0
190186  1  0  0  0  0
191192  1  0  0  0  0
191291  1  0  0  0  0
191292  1  0  0  0  0
192293  1  0  0  0  0
192294  1  0  0  0  0
192295  1  0  0  0  0
193194  1  0  0  0  0
193296  1  0  0  0  0
193297  1  0  0  0  0
194298  1  0  0  0  0
194299  1  0  0  0  0
194300  1  0  0  0  0
M  END
