A702.sdf
 OpenBabel12212109533D

220245  0  0  0  0  0  0  0  0999 V2000
   -3.4505    2.0862   -0.1474 C   0  0  0  0  0  0  0  0  0  0  0  0
   -4.2313    3.0104   -0.0961 O   0  0  0  0  0  0  0  0  0  0  0  0
   -3.8510    0.6803   -0.2128 C   0  0  0  0  0  0  0  0  0  0  0  0
   -5.1388    0.2042   -0.1221 C   0  0  0  0  0  0  0  0  0  0  0  0
   -5.3241   -1.1612   -0.3013 C   0  0  0  0  0  0  0  0  0  0  0  0
   -4.2407   -2.0235   -0.5981 C   0  0  0  0  0  0  0  0  0  0  0  0
   -2.9294   -1.5056   -0.6201 C   0  0  0  0  0  0  0  0  0  0  0  0
   -2.7423   -0.1515   -0.3668 C   0  0  0  0  0  0  0  0  0  0  0  0
   -1.5174    0.6735   -0.2887 C   0  0  0  0  0  0  0  0  0  0  0  0
   -0.3258    0.1873    0.1247 C   0  0  0  0  0  0  0  0  0  0  0  0
   -0.3426   -0.5132    1.3670 C   0  0  0  0  0  0  0  0  0  0  0  0
   -0.4341   -0.9574    2.4338 N   0  0  0  0  0  0  0  0  0  0  0  0
    0.9179    0.7593   -0.2888 C   0  0  0  0  0  0  0  0  0  0  0  0
    1.9138    1.2113   -0.6689 N   0  0  0  0  0  0  0  0  0  0  0  0
   -1.9551    2.0822   -0.1115 C   0  0  0  0  0  0  0  0  0  0  0  0
   -1.1930    3.1457    0.1621 C   0  0  0  0  0  0  0  0  0  0  0  0
   -1.5442    4.5102   -0.0333 C   0  0  0  0  0  0  0  0  0  0  0  0
   -2.6789    5.4845    0.9118 S   0  0  0  0  0  0  0  0  0  0  0  0
   -2.1816    6.8376   -0.0277 C   0  0  0  0  0  0  0  0  0  0  0  0
   -0.8918    6.6042   -0.3954 C   0  0  0  0  0  0  0  0  0  0  0  0
   -0.8668    5.3067   -0.9582 C   0  0  0  0  0  0  0  0  0  0  0  0
    0.0146    4.9022   -2.0842 C   0  0  0  0  0  0  0  0  0  0  0  0
   -0.6142    3.8858   -3.0468 C   0  0  0  0  0  0  0  0  0  0  0  0
    0.0152    7.8521    0.4010 S   0  0  0  0  0  0  0  0  0  0  0  0
   -1.3973    8.8069    0.9260 C   0  0  0  0  0  0  0  0  0  0  0  0
   -2.4165    8.1967    0.2078 C   0  0  0  0  0  0  0  0  0  0  0  0
   -2.6738    9.0906   -0.8849 N   0  0  0  0  0  0  0  0  0  0  0  0
   -3.1787    8.5853   -2.1529 C   0  0  0  0  0  0  0  0  0  0  0  0
   -2.1025    8.1983   -3.1690 C   0  0  0  0  0  0  0  0  0  0  0  0
   -2.4027   10.4092   -0.4077 C   0  0  0  0  0  0  0  0  0  0  0  0
   -1.8115   10.1391    0.8450 C   0  0  0  0  0  0  0  0  0  0  0  0
   -1.5555   11.1122    1.8523 C   0  0  0  0  0  0  0  0  0  0  0  0
   -1.0441   11.0656    3.0824 N   0  0  0  0  0  0  0  0  0  0  0  0
   -1.2479   12.3710    3.4847 N   0  0  0  0  0  0  0  0  0  0  0  0
   -1.7137   13.2391    2.5494 N   0  0  0  0  0  0  0  0  0  0  0  0
   -1.9754   12.3952    1.5694 C   0  0  0  0  0  0  0  0  0  0  0  0
   -2.4850   12.6976    0.3105 C   0  0  0  0  0  0  0  0  0  0  0  0
   -2.5696   11.8179   -0.7587 C   0  0  0  0  0  0  0  0  0  0  0  0
   -2.8141   12.7327   -1.8517 N   0  0  0  0  0  0  0  0  0  0  0  0
   -3.3246   12.3850   -3.1694 C   0  0  0  0  0  0  0  0  0  0  0  0
   -2.3190   12.0304   -4.2539 C   0  0  0  0  0  0  0  0  0  0  0  0
   -3.0750   14.0088   -1.2686 C   0  0  0  0  0  0  0  0  0  0  0  0
   -3.1056   13.9061    0.0828 C   0  0  0  0  0  0  0  0  0  0  0  0
   -3.8036   15.3489    0.6731 S   0  0  0  0  0  0  0  0  0  0  0  0
   -3.4028   16.3488   -0.7238 C   0  0  0  0  0  0  0  0  0  0  0  0
   -2.8719   15.3756   -1.6308 C   0  0  0  0  0  0  0  0  0  0  0  0
   -1.3673   15.9509   -2.2434 S   0  0  0  0  0  0  0  0  0  0  0  0
   -1.3376   17.1133   -0.7313 C   0  0  0  0  0  0  0  0  0  0  0  0
   -2.6489   17.5986   -0.8530 C   0  0  0  0  0  0  0  0  0  0  0  0
   -3.0390   18.8575   -1.5780 C   0  0  0  0  0  0  0  0  0  0  0  0
   -3.7202   19.9383   -0.7396 C   0  0  0  0  0  0  0  0  0  0  0  0
   -0.6073   16.7534    0.4770 C   0  0  0  0  0  0  0  0  0  0  0  0
    0.6023   16.1825    0.4312 C   0  0  0  0  0  0  0  0  0  0  0  0
    1.1841   15.1112    1.2622 C   0  0  0  0  0  0  0  0  0  0  0  0
    1.3718   15.0712    2.6006 C   0  0  0  0  0  0  0  0  0  0  0  0
    2.2307   14.0847    3.2112 C   0  0  0  0  0  0  0  0  0  0  0  0
    2.9573   13.3440    3.7113 N   0  0  0  0  0  0  0  0  0  0  0  0
    0.7972   16.0269    3.4837 C   0  0  0  0  0  0  0  0  0  0  0  0
    0.3050   16.7338    4.2603 N   0  0  0  0  0  0  0  0  0  0  0  0
    1.6872   14.1102    0.2712 C   0  0  0  0  0  0  0  0  0  0  0  0
    2.0196   12.7655    0.3378 C   0  0  0  0  0  0  0  0  0  0  0  0
    2.4535   12.0999   -0.8367 C   0  0  0  0  0  0  0  0  0  0  0  0
    2.3381   12.7541   -2.0864 C   0  0  0  0  0  0  0  0  0  0  0  0
    1.9732   14.0897   -2.1683 C   0  0  0  0  0  0  0  0  0  0  0  0
    1.7257   14.7370   -0.9808 C   0  0  0  0  0  0  0  0  0  0  0  0
    1.3421   16.1357   -0.8519 C   0  0  0  0  0  0  0  0  0  0  0  0
    1.6246   17.0513   -1.5934 O   0  0  0  0  0  0  0  0  0  0  0  0
   -4.5325   -3.4404   -0.8602 C   0  0  0  0  0  0  0  0  0  0  0  0
   -5.5155   -4.2268   -0.2839 C   0  0  0  0  0  0  0  0  0  0  0  0
   -5.5508   -5.5467   -0.8124 C   0  0  0  0  0  0  0  0  0  0  0  0
   -4.6106   -5.7268   -1.7998 C   0  0  0  0  0  0  0  0  0  0  0  0
   -3.6764   -4.3196   -2.0613 S   0  0  0  0  0  0  0  0  0  0  0  0
   -0.6765   12.9513    4.6810 C   0  0  0  0  0  0  0  0  0  0  0  0
   -1.1200   12.4038    6.0143 C   0  0  0  0  0  0  0  0  0  0  0  0
   10.2361    6.6953   -1.6757 C   0  0  0  0  0  0  0  0  0  0  0  0
   10.7990    5.9659   -0.8888 O   0  0  0  0  0  0  0  0  0  0  0  0
    8.8513    7.1901   -1.4827 C   0  0  0  0  0  0  0  0  0  0  0  0
    7.9134    6.6435   -0.6178 C   0  0  0  0  0  0  0  0  0  0  0  0
    6.6565    7.2516   -0.5011 C   0  0  0  0  0  0  0  0  0  0  0  0
    6.3459    8.4482   -1.1742 C   0  0  0  0  0  0  0  0  0  0  0  0
    7.3268    8.9592   -2.0710 C   0  0  0  0  0  0  0  0  0  0  0  0
    8.5714    8.3043   -2.2693 C   0  0  0  0  0  0  0  0  0  0  0  0
    9.7645    8.5184   -3.1750 C   0  0  0  0  0  0  0  0  0  0  0  0
    9.8733    9.6240   -3.9682 C   0  0  0  0  0  0  0  0  0  0  0  0
    8.8799   10.6936   -4.1009 C   0  0  0  0  0  0  0  0  0  0  0  0
    8.1280   11.5466   -4.2336 N   0  0  0  0  0  0  0  0  0  0  0  0
   11.0278    9.8107   -4.7700 C   0  0  0  0  0  0  0  0  0  0  0  0
   11.9676    9.9598   -5.4355 N   0  0  0  0  0  0  0  0  0  0  0  0
   10.7943    7.3506   -2.9108 C   0  0  0  0  0  0  0  0  0  0  0  0
   11.8716    6.8987   -3.6315 C   0  0  0  0  0  0  0  0  0  0  0  0
   12.9156    5.8057   -3.5329 C   0  0  0  0  0  0  0  0  0  0  0  0
   13.4483    4.8349   -2.0648 S   0  0  0  0  0  0  0  0  0  0  0  0
   14.8417    4.1946   -2.9232 C   0  0  0  0  0  0  0  0  0  0  0  0
   14.4288    4.1410   -4.2256 C   0  0  0  0  0  0  0  0  0  0  0  0
   13.8861    5.4451   -4.5230 C   0  0  0  0  0  0  0  0  0  0  0  0
   14.5847    6.3175   -5.5200 C   0  0  0  0  0  0  0  0  0  0  0  0
   13.8297    6.7108   -6.7626 C   0  0  0  0  0  0  0  0  0  0  0  0
   14.9351    2.5760   -4.7696 S   0  0  0  0  0  0  0  0  0  0  0  0
   15.4947    1.9420   -3.1929 C   0  0  0  0  0  0  0  0  0  0  0  0
   15.7437    3.1318   -2.5320 C   0  0  0  0  0  0  0  0  0  0  0  0
   17.2139    3.1930   -2.5482 N   0  0  0  0  0  0  0  0  0  0  0  0
   17.9073    4.4637   -2.4257 C   0  0  0  0  0  0  0  0  0  0  0  0
   17.9004    5.3902   -3.6521 C   0  0  0  0  0  0  0  0  0  0  0  0
   17.7152    1.8137   -2.3997 C   0  0  0  0  0  0  0  0  0  0  0  0
   16.5124    1.1254   -2.6506 C   0  0  0  0  0  0  0  0  0  0  0  0
   16.2166   -0.0923   -1.9713 C   0  0  0  0  0  0  0  0  0  0  0  0
   15.0858   -0.7791   -1.8647 N   0  0  0  0  0  0  0  0  0  0  0  0
   15.4864   -1.8170   -1.0563 N   0  0  0  0  0  0  0  0  0  0  0  0
   16.8091   -1.8675   -0.7294 N   0  0  0  0  0  0  0  0  0  0  0  0
   17.2218   -0.7243   -1.2567 C   0  0  0  0  0  0  0  0  0  0  0  0
   18.5214   -0.2063   -1.2801 C   0  0  0  0  0  0  0  0  0  0  0  0
   18.8880    0.9620   -1.9557 C   0  0  0  0  0  0  0  0  0  0  0  0
   20.3565    0.7960   -1.9448 N   0  0  0  0  0  0  0  0  0  0  0  0
   21.3943    1.7853   -2.2296 C   0  0  0  0  0  0  0  0  0  0  0  0
   22.5081    1.9086   -1.1666 C   0  0  0  0  0  0  0  0  0  0  0  0
   20.6545   -0.4246   -1.2639 C   0  0  0  0  0  0  0  0  0  0  0  0
   19.5481   -0.8741   -0.6262 C   0  0  0  0  0  0  0  0  0  0  0  0
   20.0799   -2.0694    0.4848 S   0  0  0  0  0  0  0  0  0  0  0  0
   21.6093   -2.4622   -0.3055 C   0  0  0  0  0  0  0  0  0  0  0  0
   21.6528   -1.4560   -1.3265 C   0  0  0  0  0  0  0  0  0  0  0  0
   22.1614   -2.1875   -2.7979 S   0  0  0  0  0  0  0  0  0  0  0  0
   21.5099   -3.8177   -2.0476 C   0  0  0  0  0  0  0  0  0  0  0  0
   22.1823   -3.7214   -0.8176 C   0  0  0  0  0  0  0  0  0  0  0  0
   23.5087   -4.3811   -0.5115 C   0  0  0  0  0  0  0  0  0  0  0  0
   23.5407   -5.4064    0.6244 C   0  0  0  0  0  0  0  0  0  0  0  0
   20.1412   -4.2497   -2.2968 C   0  0  0  0  0  0  0  0  0  0  0  0
   19.5718   -4.1547   -3.5073 C   0  0  0  0  0  0  0  0  0  0  0  0
   18.2077   -3.7094   -3.8475 C   0  0  0  0  0  0  0  0  0  0  0  0
   17.0285   -4.2625   -3.4991 C   0  0  0  0  0  0  0  0  0  0  0  0
   15.8033   -3.8409   -4.1009 C   0  0  0  0  0  0  0  0  0  0  0  0
   14.8047   -3.5105   -4.5916 N   0  0  0  0  0  0  0  0  0  0  0  0
   16.9489   -5.3456   -2.5772 C   0  0  0  0  0  0  0  0  0  0  0  0
   16.8322   -6.1989   -1.7992 N   0  0  0  0  0  0  0  0  0  0  0  0
   18.4126   -2.5955   -4.8226 C   0  0  0  0  0  0  0  0  0  0  0  0
   17.6483   -1.5141   -5.2276 C   0  0  0  0  0  0  0  0  0  0  0  0
   18.2443   -0.5457   -6.0549 C   0  0  0  0  0  0  0  0  0  0  0  0
   19.5965   -0.6299   -6.4341 C   0  0  0  0  0  0  0  0  0  0  0  0
   20.3661   -1.7125   -6.0401 C   0  0  0  0  0  0  0  0  0  0  0  0
   19.7385   -2.6767   -5.2798 C   0  0  0  0  0  0  0  0  0  0  0  0
   20.4032   -3.8339   -4.6899 C   0  0  0  0  0  0  0  0  0  0  0  0
   21.3829   -4.4166   -5.0998 O   0  0  0  0  0  0  0  0  0  0  0  0
    5.0559    9.1411   -0.8574 C   0  0  0  0  0  0  0  0  0  0  0  0
    4.1994    8.9366    0.2178 C   0  0  0  0  0  0  0  0  0  0  0  0
    3.1262    9.8782    0.2947 C   0  0  0  0  0  0  0  0  0  0  0  0
    3.1765   10.8155   -0.7155 C   0  0  0  0  0  0  0  0  0  0  0  0
    4.4226   10.4011   -1.8377 S   0  0  0  0  0  0  0  0  0  0  0  0
   14.7092   -3.0383   -0.9953 C   0  0  0  0  0  0  0  0  0  0  0  0
   13.9208   -3.3046    0.2673 C   0  0  0  0  0  0  0  0  0  0  0  0
   -5.9665    0.8730    0.0882 H   0  0  0  0  0  0  0  0  0  0  0  0
   -6.3380   -1.5507   -0.2365 H   0  0  0  0  0  0  0  0  0  0  0  0
   -2.0835   -2.1555   -0.8313 H   0  0  0  0  0  0  0  0  0  0  0  0
   -0.1219    3.0140    0.2903 H   0  0  0  0  0  0  0  0  0  0  0  0
    0.9496    4.4985   -1.6891 H   0  0  0  0  0  0  0  0  0  0  0  0
    0.2534    5.7934   -2.6740 H   0  0  0  0  0  0  0  0  0  0  0  0
   -0.8286    2.9246   -2.5705 H   0  0  0  0  0  0  0  0  0  0  0  0
    0.0790    3.6798   -3.8687 H   0  0  0  0  0  0  0  0  0  0  0  0
   -1.5529    4.2496   -3.4817 H   0  0  0  0  0  0  0  0  0  0  0  0
   -3.8720    9.3170   -2.5614 H   0  0  0  0  0  0  0  0  0  0  0  0
   -3.7705    7.6815   -1.9402 H   0  0  0  0  0  0  0  0  0  0  0  0
   -1.2301    8.8557   -3.1345 H   0  0  0  0  0  0  0  0  0  0  0  0
   -2.5196    8.2108   -4.1812 H   0  0  0  0  0  0  0  0  0  0  0  0
   -1.7486    7.1725   -3.0155 H   0  0  0  0  0  0  0  0  0  0  0  0
   -3.9279   13.2309   -3.5219 H   0  0  0  0  0  0  0  0  0  0  0  0
   -4.0177   11.5504   -3.0265 H   0  0  0  0  0  0  0  0  0  0  0  0
   -1.6573   12.8692   -4.4894 H   0  0  0  0  0  0  0  0  0  0  0  0
   -2.8572   11.7713   -5.1767 H   0  0  0  0  0  0  0  0  0  0  0  0
   -1.7056   11.1687   -3.9804 H   0  0  0  0  0  0  0  0  0  0  0  0
   -3.6561   18.6286   -2.4512 H   0  0  0  0  0  0  0  0  0  0  0  0
   -2.1185   19.3210   -1.9649 H   0  0  0  0  0  0  0  0  0  0  0  0
   -4.7087   19.6256   -0.3920 H   0  0  0  0  0  0  0  0  0  0  0  0
   -3.8574   20.8451   -1.3459 H   0  0  0  0  0  0  0  0  0  0  0  0
   -3.1233   20.2287    0.1326 H   0  0  0  0  0  0  0  0  0  0  0  0
   -1.1802   16.7603    1.4040 H   0  0  0  0  0  0  0  0  0  0  0  0
    1.9909   12.2301    1.2819 H   0  0  0  0  0  0  0  0  0  0  0  0
    2.5809   12.2394   -3.0124 H   0  0  0  0  0  0  0  0  0  0  0  0
    1.8879   14.6140   -3.1137 H   0  0  0  0  0  0  0  0  0  0  0  0
   -6.1870   -3.8691    0.4878 H   0  0  0  0  0  0  0  0  0  0  0  0
   -6.2403   -6.3172   -0.4905 H   0  0  0  0  0  0  0  0  0  0  0  0
   -4.4266   -6.6187   -2.3823 H   0  0  0  0  0  0  0  0  0  0  0  0
   -0.9322   14.0192    4.6631 H   0  0  0  0  0  0  0  0  0  0  0  0
    0.4035   12.8640    4.5859 H   0  0  0  0  0  0  0  0  0  0  0  0
   -2.1704   12.6376    6.2096 H   0  0  0  0  0  0  0  0  0  0  0  0
   -0.5227   12.8815    6.8008 H   0  0  0  0  0  0  0  0  0  0  0  0
   -0.9734   11.3245    6.0782 H   0  0  0  0  0  0  0  0  0  0  0  0
    8.1476    5.7527   -0.0427 H   0  0  0  0  0  0  0  0  0  0  0  0
    5.9219    6.7811    0.1496 H   0  0  0  0  0  0  0  0  0  0  0  0
    7.0889    9.8880   -2.5786 H   0  0  0  0  0  0  0  0  0  0  0  0
   11.9934    7.4074   -4.5839 H   0  0  0  0  0  0  0  0  0  0  0  0
   15.5174    5.8270   -5.8301 H   0  0  0  0  0  0  0  0  0  0  0  0
   14.9071    7.2282   -4.9939 H   0  0  0  0  0  0  0  0  0  0  0  0
   13.3911    5.8432   -7.2589 H   0  0  0  0  0  0  0  0  0  0  0  0
   14.5219    7.1979   -7.4600 H   0  0  0  0  0  0  0  0  0  0  0  0
   13.0399    7.4308   -6.5409 H   0  0  0  0  0  0  0  0  0  0  0  0
   18.9350    4.2553   -2.1306 H   0  0  0  0  0  0  0  0  0  0  0  0
   17.4144    4.9998   -1.6057 H   0  0  0  0  0  0  0  0  0  0  0  0
   18.2235    4.8937   -4.5720 H   0  0  0  0  0  0  0  0  0  0  0  0
   18.5691    6.2418   -3.4730 H   0  0  0  0  0  0  0  0  0  0  0  0
   16.9153    5.8303   -3.8382 H   0  0  0  0  0  0  0  0  0  0  0  0
   20.8975    2.7541   -2.3196 H   0  0  0  0  0  0  0  0  0  0  0  0
   21.8507    1.5360   -3.1945 H   0  0  0  0  0  0  0  0  0  0  0  0
   22.1305    1.8006   -0.1439 H   0  0  0  0  0  0  0  0  0  0  0  0
   23.0053    2.8846   -1.2345 H   0  0  0  0  0  0  0  0  0  0  0  0
   23.2934    1.1548   -1.3112 H   0  0  0  0  0  0  0  0  0  0  0  0
   24.2894   -3.6333   -0.3469 H   0  0  0  0  0  0  0  0  0  0  0  0
   23.8157   -4.9434   -1.4088 H   0  0  0  0  0  0  0  0  0  0  0  0
   23.3906   -4.9410    1.6020 H   0  0  0  0  0  0  0  0  0  0  0  0
   24.5235   -5.9023    0.6507 H   0  0  0  0  0  0  0  0  0  0  0  0
   22.7957   -6.2002    0.4983 H   0  0  0  0  0  0  0  0  0  0  0  0
   19.5300   -4.4248   -1.4105 H   0  0  0  0  0  0  0  0  0  0  0  0
   16.6212   -1.3622   -4.9088 H   0  0  0  0  0  0  0  0  0  0  0  0
   17.6545    0.3047   -6.3924 H   0  0  0  0  0  0  0  0  0  0  0  0
   20.0487    0.1588   -7.0291 H   0  0  0  0  0  0  0  0  0  0  0  0
   21.4255   -1.7902   -6.2619 H   0  0  0  0  0  0  0  0  0  0  0  0
    4.3585    8.1896    0.9847 H   0  0  0  0  0  0  0  0  0  0  0  0
    2.4152    9.9088    1.1139 H   0  0  0  0  0  0  0  0  0  0  0  0
   15.4153   -3.8606   -1.1128 H   0  0  0  0  0  0  0  0  0  0  0  0
   14.0451   -3.0380   -1.8621 H   0  0  0  0  0  0  0  0  0  0  0  0
   14.5797   -3.5684    1.1013 H   0  0  0  0  0  0  0  0  0  0  0  0
   13.2650   -4.1660    0.0898 H   0  0  0  0  0  0  0  0  0  0  0  0
   13.3034   -2.4531    0.5585 H   0  0  0  0  0  0  0  0  0  0  0  0
  1  2  2  0  0  0  0
  1  3  1  0  0  0  0
  1 15  1  0  0  0  0
  3  4  2  0  0  0  0
  3  8  1  0  0  0  0
  4  5  1  0  0  0  0
  4149  1  0  0  0  0
  5  6  2  0  0  0  0
  5150  1  0  0  0  0
  6  7  1  0  0  0  0
  6 68  1  0  0  0  0
  7  8  2  0  0  0  0
  7151  1  0  0  0  0
  8  9  1  0  0  0  0
  9 10  2  0  0  0  0
  9 15  1  0  0  0  0
 10 11  1  0  0  0  0
 10 13  1  0  0  0  0
 11 12  3  0  0  0  0
 13 14  3  0  0  0  0
 15 16  2  0  0  0  0
 16 17  1  0  0  0  0
 16152  1  0  0  0  0
 17 18  1  0  0  0  0
 17 21  2  0  0  0  0
 18 19  1  0  0  0  0
 19 20  2  0  0  0  0
 19 26  1  0  0  0  0
 20 21  1  0  0  0  0
 20 24  1  0  0  0  0
 21 22  1  0  0  0  0
 22 23  1  0  0  0  0
 22153  1  0  0  0  0
 22154  1  0  0  0  0
 23155  1  0  0  0  0
 23156  1  0  0  0  0
 23157  1  0  0  0  0
 24 25  1  0  0  0  0
 25 26  2  0  0  0  0
 25 31  1  0  0  0  0
 26 27  1  0  0  0  0
 27 28  1  0  0  0  0
 27 30  1  0  0  0  0
 28 29  1  0  0  0  0
 28158  1  0  0  0  0
 28159  1  0  0  0  0
 29160  1  0  0  0  0
 29161  1  0  0  0  0
 29162  1  0  0  0  0
 30 31  2  0  0  0  0
 30 38  1  0  0  0  0
 31 32  1  0  0  0  0
 32 33  2  0  0  0  0
 32 36  1  0  0  0  0
 33 34  1  0  0  0  0
 34 35  1  0  0  0  0
 34 73  1  0  0  0  0
 35 36  2  0  0  0  0
 36 37  1  0  0  0  0
 37 38  2  0  0  0  0
 37 43  1  0  0  0  0
 38 39  1  0  0  0  0
 39 40  1  0  0  0  0
 39 42  1  0  0  0  0
 40 41  1  0  0  0  0
 40163  1  0  0  0  0
 40164  1  0  0  0  0
 41165  1  0  0  0  0
 41166  1  0  0  0  0
 41167  1  0  0  0  0
 42 43  2  0  0  0  0
 42 46  1  0  0  0  0
 43 44  1  0  0  0  0
 44 45  1  0  0  0  0
 45 46  2  0  0  0  0
 45 49  1  0  0  0  0
 46 47  1  0  0  0  0
 47 48  1  0  0  0  0
 48 49  2  0  0  0  0
 48 52  1  0  0  0  0
 49 50  1  0  0  0  0
 50 51  1  0  0  0  0
 50168  1  0  0  0  0
 50169  1  0  0  0  0
 51170  1  0  0  0  0
 51171  1  0  0  0  0
 51172  1  0  0  0  0
 52 53  2  0  0  0  0
 52173  1  0  0  0  0
 53 54  1  0  0  0  0
 53 66  1  0  0  0  0
 54 55  2  0  0  0  0
 54 60  1  0  0  0  0
 55 56  1  0  0  0  0
 55 58  1  0  0  0  0
 56 57  3  0  0  0  0
 58 59  3  0  0  0  0
 60 61  1  0  0  0  0
 60 65  2  0  0  0  0
 61 62  2  0  0  0  0
 61174  1  0  0  0  0
 62 63  1  0  0  0  0
 62145  1  0  0  0  0
 63 64  2  0  0  0  0
 63175  1  0  0  0  0
 64 65  1  0  0  0  0
 64176  1  0  0  0  0
 65 66  1  0  0  0  0
 66 67  2  0  0  0  0
 68 69  2  0  0  0  0
 69 70  1  0  0  0  0
 69177  1  0  0  0  0
 70 71  2  0  0  0  0
 70178  1  0  0  0  0
 71 72  1  0  0  0  0
 71179  1  0  0  0  0
 72 68  1  0  0  0  0
 73 74  1  0  0  0  0
 73180  1  0  0  0  0
 73181  1  0  0  0  0
 74182  1  0  0  0  0
 74183  1  0  0  0  0
 74184  1  0  0  0  0
 75 76  2  0  0  0  0
 75 77  1  0  0  0  0
 75 89  1  0  0  0  0
 77 78  2  0  0  0  0
 77 82  1  0  0  0  0
 78 79  1  0  0  0  0
 78185  1  0  0  0  0
 79 80  2  0  0  0  0
 79186  1  0  0  0  0
 80 81  1  0  0  0  0
 80142  1  0  0  0  0
 81 82  2  0  0  0  0
 81187  1  0  0  0  0
 82 83  1  0  0  0  0
 83 84  2  0  0  0  0
 83 89  1  0  0  0  0
 84 85  1  0  0  0  0
 84 87  1  0  0  0  0
 85 86  3  0  0  0  0
 87 88  3  0  0  0  0
 89 90  2  0  0  0  0
 90 91  1  0  0  0  0
 90188  1  0  0  0  0
 91 92  1  0  0  0  0
 91 95  2  0  0  0  0
 92 93  1  0  0  0  0
 93 94  2  0  0  0  0
 93100  1  0  0  0  0
 94 95  1  0  0  0  0
 94 98  1  0  0  0  0
 95 96  1  0  0  0  0
 96 97  1  0  0  0  0
 96189  1  0  0  0  0
 96190  1  0  0  0  0
 97191  1  0  0  0  0
 97192  1  0  0  0  0
 97193  1  0  0  0  0
 98 99  1  0  0  0  0
 99100  2  0  0  0  0
 99105  1  0  0  0  0
100101  1  0  0  0  0
101102  1  0  0  0  0
101104  1  0  0  0  0
102103  1  0  0  0  0
102194  1  0  0  0  0
102195  1  0  0  0  0
103196  1  0  0  0  0
103197  1  0  0  0  0
103198  1  0  0  0  0
104105  2  0  0  0  0
104112  1  0  0  0  0
105106  1  0  0  0  0
106107  2  0  0  0  0
106110  1  0  0  0  0
107108  1  0  0  0  0
108109  1  0  0  0  0
108147  1  0  0  0  0
109110  2  0  0  0  0
110111  1  0  0  0  0
111112  2  0  0  0  0
111117  1  0  0  0  0
112113  1  0  0  0  0
113114  1  0  0  0  0
113116  1  0  0  0  0
114115  1  0  0  0  0
114199  1  0  0  0  0
114200  1  0  0  0  0
115201  1  0  0  0  0
115202  1  0  0  0  0
115203  1  0  0  0  0
116117  2  0  0  0  0
116120  1  0  0  0  0
117118  1  0  0  0  0
118119  1  0  0  0  0
119120  2  0  0  0  0
119123  1  0  0  0  0
120121  1  0  0  0  0
121122  1  0  0  0  0
122123  2  0  0  0  0
122126  1  0  0  0  0
123124  1  0  0  0  0
124125  1  0  0  0  0
124204  1  0  0  0  0
124205  1  0  0  0  0
125206  1  0  0  0  0
125207  1  0  0  0  0
125208  1  0  0  0  0
126127  2  0  0  0  0
126209  1  0  0  0  0
127128  1  0  0  0  0
127140  1  0  0  0  0
128129  2  0  0  0  0
128134  1  0  0  0  0
129130  1  0  0  0  0
129132  1  0  0  0  0
130131  3  0  0  0  0
132133  3  0  0  0  0
134135  1  0  0  0  0
134139  2  0  0  0  0
135136  2  0  0  0  0
135210  1  0  0  0  0
136137  1  0  0  0  0
136211  1  0  0  0  0
137138  2  0  0  0  0
137212  1  0  0  0  0
138139  1  0  0  0  0
138213  1  0  0  0  0
139140  1  0  0  0  0
140141  2  0  0  0  0
142143  2  0  0  0  0
143144  1  0  0  0  0
143214  1  0  0  0  0
144145  2  0  0  0  0
144215  1  0  0  0  0
145146  1  0  0  0  0
146142  1  0  0  0  0
147148  1  0  0  0  0
147216  1  0  0  0  0
147217  1  0  0  0  0
148218  1  0  0  0  0
148219  1  0  0  0  0
148220  1  0  0  0  0
M  END
